
     RDKit          3D

  7  7  0  0  0  0  0  0  0  0999 V2000
   19.8320   12.4590   -5.3150 N   0  0  0  0  0  0  0  0  0  0  0  0
   20.4380   12.7620   -4.2250 C   0  0  0  0  0  0  0  0  0  0  0  0
   21.1460   11.9180   -1.9800 C   0  0  0  0  0  0  0  0  0  0  0  0
   20.4630   11.8140   -3.2690 N   0  0  0  0  0  0  0  0  0  0  0  0
   21.3930   13.3780   -1.6130 C   0  0  0  0  0  0  0  0  0  0  0  0
   21.0510   13.9360   -3.9920 N   0  0  0  0  0  0  0  0  0  0  0  0
   21.7650   14.3040   -2.7660 C   0  0  0  0  0  0  0  0  0  0  0  0
  1  2  1  0
  2  4  1  0
  2  6  1  0
  4  3  1  0
  6  7  1  0
  3  5  1  0
  5  7  1  0
M  END
