
     RDKit          3D

  6  6  0  0  0  0  0  0  0  0999 V2000
    0.1590    8.8920   -8.1230 N   0  0  0  0  0  0  0  0  0  0  0  0
   -0.8940    9.4850   -8.6600 C   0  0  0  0  0  0  0  0  0  0  0  0
   -0.9100   10.0240   -9.7610 O   0  0  0  0  0  0  0  0  0  0  0  0
   -2.0510    9.3780   -7.7130 C   0  0  0  0  0  0  0  0  0  0  0  0
   -1.5730    8.4160   -6.6550 C   0  0  0  0  0  0  0  0  0  0  0  0
   -0.0680    8.4170   -6.7710 C   0  0  0  0  0  0  0  0  0  0  0  0
  1  2  1  0
  1  6  1  0
  2  3  2  0
  2  4  1  0
  6  5  1  0
  4  5  1  0
M  END
