
     RDKit          3D

 15 16  0  0  0  0  0  0  0  0999 V2000
   -9.9290   37.7490    4.5770 N   0  0  0  0  0  0  0  0  0  0  0  0
   -5.9960   34.7940    8.5160 C   0  0  0  0  0  0  0  0  0  0  0  0
   -7.3440   34.5150    8.1420 O   0  0  0  0  0  0  0  0  0  0  0  0
   -7.9620   35.3720    7.2720 C   0  0  0  0  0  0  0  0  0  0  0  0
   -6.2280   39.7080    6.5700 N   0  0  0  0  0  0  0  0  0  0  0  0
   -9.2280   34.9370    6.8870 C   0  0  0  0  0  0  0  0  0  0  0  0
   -9.9680   35.6700    5.9760 C   0  0  0  0  0  0  0  0  0  0  0  0
   -9.4180   36.8360    5.4630 C   0  0  0  0  0  0  0  0  0  0  0  0
   -9.0190   38.7540    4.3990 C   0  0  0  0  0  0  0  0  0  0  0  0
   -7.9040   38.5210    5.1500 C   0  0  0  0  0  0  0  0  0  0  0  0
   -6.6560   39.3590    5.2120 C   0  0  0  0  0  0  0  0  0  0  0  0
   -7.2860   40.4160    7.2850 C   0  0  0  0  0  0  0  0  0  0  0  0
   -5.0220   40.5290    6.5250 C   0  0  0  0  0  0  0  0  0  0  0  0
   -8.1420   37.2890    5.8470 C   0  0  0  0  0  0  0  0  0  0  0  0
   -7.4080   36.5420    6.7630 C   0  0  0  0  0  0  0  0  0  0  0  0
  1  8  1  0
  1  9  1  0
  8  7  2  0
  8 14  1  0
  9 10  2  0
  2  3  1  0
  3  4  1  0
  4  6  2  0
  4 15  1  0
  6  7  1  0
 15 14  2  0
  5 11  1  0
  5 12  1  0
  5 13  1  0
 11 10  1  0
 14 10  1  0
M  END
