m-2430-8961378-14047914
     RDKit          3D

 23 25  0  0  0  0  0  0  0  0999 V2000
   -7.9810   14.7580    7.4870 C   0  0  0  0  0  0  0  0  0  0  0  0
   -8.7020   15.9270    6.8530 C   0  0  0  0  0  0  0  0  0  0  0  0
   -9.5990   16.7770    7.6860 C   0  0  0  0  0  0  0  0  0  0  0  0
   -8.5910   16.2910    5.5130 C   0  0  0  0  0  0  0  0  0  0  0  0
  -10.2590   17.8360    7.1830 N   0  0  0  0  0  0  0  0  0  0  0  0
   -9.3100   17.4040    5.0760 C   0  0  0  0  0  0  0  0  0  0  0  0
   -7.7720   15.5370    4.6680 N   0  0  0  0  0  0  0  0  0  0  0  0
  -10.1100   18.1460    5.8740 N   0  0  0  0  0  0  0  0  0  0  0  0
   -7.9860   15.2820    3.3550 C   0  0  0  0  0  0  0  0  0  0  0  0
   -8.9260   15.6120    2.6430 O   0  0  0  0  0  0  0  0  0  0  0  0
   -6.9220   14.5630    2.9350 N   0  0  0  0  0  0  0  0  0  0  0  0
   -7.0230   13.7570    1.7590 C   0  0  0  0  0  0  0  0  0  0  0  0
   -6.0510   14.2700    0.7670 C   0  0  0  0  0  0  0  0  0  0  0  0
   -4.8010   14.3960    1.1080 N   0  0  0  0  0  0  0  0  0  0  0  0
   -6.5780   14.5630   -0.4680 N   0  0  0  0  0  0  0  0  0  0  0  0
   -3.8970   14.8370    0.1410 C   0  0  0  0  0  0  0  0  0  0  0  0
   -5.7980   14.9470   -1.5190 C   0  0  0  0  0  0  0  0  0  0  0  0
   -2.5390   15.0050    0.4490 C   0  0  0  0  0  0  0  0  0  0  0  0
   -4.3350   15.1040   -1.1300 C   0  0  0  0  0  0  0  0  0  0  0  0
   -6.2410   15.1340   -2.6380 O   0  0  0  0  0  0  0  0  0  0  0  0
   -1.6640   15.4730   -0.7070 C   0  0  0  0  0  0  0  0  0  0  0  0
   -3.5430   15.5240   -2.1700 C   0  0  0  0  0  0  0  0  0  0  0  0
   -2.1910   15.7160   -1.9830 C   0  0  0  0  0  0  0  0  0  0  0  0
  1  2  1  0
  2  3  2  0
  2  4  1  0
  3  5  1  0
  4  6  2  0
  4  7  1  0
  5  8  2  0
  6  8  1  0
  7  9  1  0
  9 10  2  0
  9 11  1  0
 11 12  1  0
 12 13  1  0
 13 14  2  0
 13 15  1  0
 14 16  1  0
 15 17  1  0
 16 18  2  0
 16 19  1  0
 17 19  1  0
 17 20  2  0
 18 21  1  0
 19 22  2  0
 21 23  2  0
 22 23  1  0
M  END
