m-272610-18205442-17773864
     RDKit          3D

 25 28  0  0  0  0  0  0  0  0999 V2000
   -7.6610   14.8650    3.0270 O   0  0  0  0  0  0  0  0  0  0  0  0
   -7.0640   14.6930    1.9620 C   0  0  0  0  0  0  0  0  0  0  0  0
   -7.7730   14.1330    0.7590 C   0  0  0  0  0  0  0  0  0  0  0  0
   -5.7280   15.0240    1.8620 N   0  0  0  0  0  0  0  0  0  0  0  0
   -7.3660   15.0380   -0.7420 S   0  0  0  0  0  0  0  0  0  0  0  0
   -4.9810   14.9270    0.6670 C   0  0  0  0  0  0  0  0  0  0  0  0
   -5.5990   14.9140   -0.5850 C   0  0  0  0  0  0  0  0  0  0  0  0
   -3.5830   14.8310    0.7370 C   0  0  0  0  0  0  0  0  0  0  0  0
   -4.8530   14.7930   -1.7490 C   0  0  0  0  0  0  0  0  0  0  0  0
   -2.8190   14.7070   -0.4430 C   0  0  0  0  0  0  0  0  0  0  0  0
   -3.4540   14.6780   -1.7030 C   0  0  0  0  0  0  0  0  0  0  0  0
   -2.8120   14.5260   -2.9690 C   0  0  0  0  0  0  0  0  0  0  0  0
   -3.4830   14.1500   -3.9070 O   0  0  0  0  0  0  0  0  0  0  0  0
   -1.4930   14.8340   -3.2940 N   0  0  0  0  0  0  0  0  0  0  0  0
   -1.2170   15.8890   -4.1960 C   0  0  0  0  0  0  0  0  0  0  0  0
   -0.3340   13.8540   -3.5080 C   0  0  1  0  0  0  0  0  0  0  0  0
   -2.0990   16.8910   -4.8060 C   0  0  0  0  0  0  0  0  0  0  0  0
    0.1020   15.9550   -4.5260 C   0  0  0  0  0  0  0  0  0  0  0  0
    0.7240   14.9100   -3.8730 C   0  0  0  0  0  0  0  0  0  0  0  0
   -0.0800   12.9080   -2.4800 C   0  0  0  0  0  0  0  0  0  0  0  0
   -1.5620   17.9270   -5.7150 C   0  0  0  0  0  0  0  0  0  0  0  0
    0.6400   16.9260   -5.3830 C   0  0  0  0  0  0  0  0  0  0  0  0
    0.2850   13.1060   -1.3080 O   0  0  0  0  0  0  0  0  0  0  0  0
   -0.2410   11.6110   -2.8280 O   0  0  0  0  0  0  0  0  0  0  0  0
   -0.1750   17.9310   -5.9880 C   0  0  0  0  0  0  0  0  0  0  0  0
  1  2  2  0
  2  3  1  0
  2  4  1  0
  3  5  1  0
  4  6  1  0
  5  7  1  0
  6  7  2  0
  6  8  1  0
  7  9  1  0
  8 10  2  0
  9 11  2  0
 10 11  1  0
 11 12  1  0
 12 13  2  0
 12 14  1  0
 14 15  1  0
 14 16  1  0
 15 17  2  0
 15 18  1  0
 16 19  1  0
 18 19  1  0
 16 20  1  1
 17 21  1  0
 18 22  2  0
 20 23  2  0
 20 24  1  0
 21 25  2  0
 22 25  1  0
M  END
