m-272610-18205366-17768894
     RDKit          3D

 27 30  0  0  0  0  0  0  0  0999 V2000
   -4.0120   15.4050   -3.6850 O   0  0  0  0  0  0  0  0  0  0  0  0
   -3.4130   15.0670   -2.6720 C   0  0  0  0  0  0  0  0  0  0  0  0
   -2.0910   14.7000   -2.7090 N   0  0  0  0  0  0  0  0  0  0  0  0
   -4.0790   15.0100   -1.3550 C   0  0  0  0  0  0  0  0  0  0  0  0
   -1.4650   14.4280   -3.9800 C   0  0  1  0  0  0  0  0  0  0  0  0
   -5.4740   15.0840   -1.3170 C   0  0  0  0  0  0  0  0  0  0  0  0
   -3.3560   14.8800   -0.1720 C   0  0  0  0  0  0  0  0  0  0  0  0
   -1.2660   15.7550   -4.6350 C   0  0  0  0  0  0  0  0  0  0  0  0
   -0.0240   13.8590   -3.9340 C   0  0  1  0  0  0  0  0  0  0  0  0
   -6.1350   15.0140   -0.0900 C   0  0  0  0  0  0  0  0  0  0  0  0
   -4.0210   14.8140    1.0540 C   0  0  0  0  0  0  0  0  0  0  0  0
   -2.2320   16.5560   -5.2270 C   0  0  0  0  0  0  0  0  0  0  0  0
    0.0720   16.1440   -4.5850 C   0  0  0  0  0  0  0  0  0  0  0  0
    0.9060   15.1010   -3.8940 C   0  0  0  0  0  0  0  0  0  0  0  0
    0.3450   12.8710   -2.8410 C   0  0  0  0  0  0  0  0  0  0  0  0
   -5.4080   14.8770    1.1000 C   0  0  0  0  0  0  0  0  0  0  0  0
   -1.8360   17.7710   -5.7750 C   0  0  0  0  0  0  0  0  0  0  0  0
    0.4700   17.3530   -5.1260 C   0  0  0  0  0  0  0  0  0  0  0  0
    0.9680   13.1970   -1.8390 O   0  0  0  0  0  0  0  0  0  0  0  0
   -0.0410   11.5890   -2.9980 O   0  0  0  0  0  0  0  0  0  0  0  0
   -6.1340   14.8070    2.3040 N   0  0  0  0  0  0  0  0  0  0  0  0
   -0.4930   18.1660   -5.7250 C   0  0  0  0  0  0  0  0  0  0  0  0
   -5.6780   15.1250    3.5650 C   0  0  0  0  0  0  0  0  0  0  0  0
   -4.5050   15.3780    3.8840 O   0  0  0  0  0  0  0  0  0  0  0  0
   -6.7810   15.1600    4.5840 C   0  0  0  0  0  0  0  0  0  0  0  0
   -6.8920   14.2260    5.7670 C   0  0  0  0  0  0  0  0  0  0  0  0
   -7.8660   14.1140    4.6310 C   0  0  0  0  0  0  0  0  0  0  0  0
  1  2  2  0
  2  3  1  0
  2  4  1  0
  5  3  1  1
  4  6  2  0
  4  7  1  0
  5  8  1  0
  5  9  1  0
  6 10  1  0
  7 11  2  0
  8 12  2  0
  8 13  1  0
  9 14  1  0
 13 14  1  0
  9 15  1  1
 10 16  2  0
 11 16  1  0
 12 17  1  0
 13 18  2  0
 15 19  2  0
 15 20  1  0
 16 21  1  0
 17 22  2  0
 18 22  1  0
 21 23  1  0
 23 24  2  0
 23 25  1  0
 25 26  1  0
 25 27  1  0
 26 27  1  0
M  END
