m-272610-18205366-17768894
     RDKit          3D

 27 30  0  0  0  0  0  0  0  0999 V2000
   -4.0370   15.5590   -3.8090 O   0  0  0  0  0  0  0  0  0  0  0  0
   -3.5770   14.9410   -2.8760 C   0  0  0  0  0  0  0  0  0  0  0  0
   -2.4310   14.2010   -3.0080 N   0  0  0  0  0  0  0  0  0  0  0  0
   -4.2910   14.9390   -1.5640 C   0  0  0  0  0  0  0  0  0  0  0  0
   -1.1380   14.8240   -3.1350 C   0  0  2  0  0  0  0  0  0  0  0  0
   -5.6800   15.0490   -1.5270 C   0  0  0  0  0  0  0  0  0  0  0  0
   -3.5810   14.8190   -0.3620 C   0  0  0  0  0  0  0  0  0  0  0  0
   -1.0940   15.9110   -4.1850 C   0  0  0  0  0  0  0  0  0  0  0  0
   -0.0180   13.9420   -3.6830 C   0  0  1  0  0  0  0  0  0  0  0  0
   -6.3660   15.0250   -0.3100 C   0  0  0  0  0  0  0  0  0  0  0  0
   -4.2720   14.7990    0.8590 C   0  0  0  0  0  0  0  0  0  0  0  0
   -2.1030   16.7170   -4.7000 C   0  0  0  0  0  0  0  0  0  0  0  0
    0.2240   16.0430   -4.6150 C   0  0  0  0  0  0  0  0  0  0  0  0
    1.0780   15.0160   -3.9180 C   0  0  0  0  0  0  0  0  0  0  0  0
    0.4330   12.8660   -2.7150 C   0  0  0  0  0  0  0  0  0  0  0  0
   -5.6750   14.8950    0.8930 C   0  0  0  0  0  0  0  0  0  0  0  0
   -1.7600   17.6840   -5.6450 C   0  0  0  0  0  0  0  0  0  0  0  0
    0.5770   17.0000   -5.5450 C   0  0  0  0  0  0  0  0  0  0  0  0
    1.1200   13.0390   -1.7290 O   0  0  0  0  0  0  0  0  0  0  0  0
    0.0180   11.6130   -2.9880 O   0  0  0  0  0  0  0  0  0  0  0  0
   -6.3000   14.8560    2.1620 N   0  0  0  0  0  0  0  0  0  0  0  0
   -0.4270   17.8280   -6.0580 C   0  0  0  0  0  0  0  0  0  0  0  0
   -7.6400   14.9600    2.4970 C   0  0  0  0  0  0  0  0  0  0  0  0
   -8.6130   14.8090    1.7610 O   0  0  0  0  0  0  0  0  0  0  0  0
   -7.9000   15.3120    3.9360 C   0  0  0  0  0  0  0  0  0  0  0  0
   -9.2160   15.0730    4.6350 C   0  0  0  0  0  0  0  0  0  0  0  0
   -8.7610   16.4770    4.3580 C   0  0  0  0  0  0  0  0  0  0  0  0
  1  2  2  0
  2  3  1  0
  2  4  1  0
  5  3  1  6
  4  6  2  0
  4  7  1  0
  5  8  1  0
  5  9  1  0
  6 10  1  0
  7 11  2  0
  8 12  2  0
  8 13  1  0
  9 14  1  0
 13 14  1  0
  9 15  1  1
 10 16  2  0
 11 16  1  0
 12 17  1  0
 13 18  2  0
 15 19  2  0
 15 20  1  0
 16 21  1  0
 17 22  2  0
 18 22  1  0
 21 23  1  0
 23 24  2  0
 23 25  1  0
 25 26  1  0
 25 27  1  0
 26 27  1  0
M  END
