m-272610-18205366-17773864
     RDKit          3D

 26 29  0  0  0  0  0  0  0  0999 V2000
   -7.8750   14.7750    3.1320 O   0  0  0  0  0  0  0  0  0  0  0  0
   -7.2590   14.6170    2.0790 C   0  0  0  0  0  0  0  0  0  0  0  0
   -7.9400   14.0760    0.8500 C   0  0  0  0  0  0  0  0  0  0  0  0
   -5.9290   14.9440    1.9980 N   0  0  0  0  0  0  0  0  0  0  0  0
   -7.5680   15.0460   -0.6170 S   0  0  0  0  0  0  0  0  0  0  0  0
   -5.1820   14.9770    0.8090 C   0  0  0  0  0  0  0  0  0  0  0  0
   -5.8000   15.0240   -0.4440 C   0  0  0  0  0  0  0  0  0  0  0  0
   -3.7840   14.9590    0.8970 C   0  0  0  0  0  0  0  0  0  0  0  0
   -5.0500   15.0500   -1.5980 C   0  0  0  0  0  0  0  0  0  0  0  0
   -3.0230   14.9800   -0.2730 C   0  0  0  0  0  0  0  0  0  0  0  0
   -3.6670   15.0240   -1.5180 C   0  0  0  0  0  0  0  0  0  0  0  0
   -2.9780   15.0380   -2.7240 C   0  0  0  0  0  0  0  0  0  0  0  0
   -3.4680   15.5200   -3.7210 O   0  0  0  0  0  0  0  0  0  0  0  0
   -1.7450   14.4570   -2.7530 N   0  0  0  0  0  0  0  0  0  0  0  0
   -1.1810   14.2450   -4.0660 C   0  0  1  0  0  0  0  0  0  0  0  0
   -1.0860   15.6180   -4.6590 C   0  0  0  0  0  0  0  0  0  0  0  0
    0.3000   13.8480   -3.9710 C   0  0  1  0  0  0  0  0  0  0  0  0
   -2.1720   16.4230   -5.3030 C   0  0  0  0  0  0  0  0  0  0  0  0
    0.2050   16.1110   -4.5400 C   0  0  0  0  0  0  0  0  0  0  0  0
    1.0610   15.1900   -3.9090 C   0  0  0  0  0  0  0  0  0  0  0  0
    0.4720   12.8670   -2.8210 C   0  0  0  0  0  0  0  0  0  0  0  0
   -1.8830   17.6990   -5.7890 C   0  0  0  0  0  0  0  0  0  0  0  0
    0.5220   17.3740   -5.0130 C   0  0  0  0  0  0  0  0  0  0  0  0
    0.9040   13.1340   -1.7140 O   0  0  0  0  0  0  0  0  0  0  0  0
    0.1020   11.5980   -3.0740 O   0  0  0  0  0  0  0  0  0  0  0  0
   -0.4580   18.1640   -5.6180 C   0  0  0  0  0  0  0  0  0  0  0  0
  1  2  2  0
  2  3  1  0
  2  4  1  0
  3  5  1  0
  4  6  1  0
  5  7  1  0
  6  7  2  0
  6  8  1  0
  7  9  1  0
  8 10  2  0
  9 11  2  0
 10 11  1  0
 11 12  1  0
 12 13  2  0
 12 14  1  0
 15 14  1  1
 15 16  1  0
 15 17  1  0
 16 18  2  0
 16 19  1  0
 17 20  1  0
 19 20  1  0
 17 21  1  1
 18 22  1  0
 19 23  2  0
 21 24  2  0
 21 25  1  0
 22 26  2  0
 23 26  1  0
M  END
