m-272610-18205366-18208686
     RDKit          3D

 28 31  0  0  0  0  0  0  0  0999 V2000
   -4.2580   15.4300    3.7340 O   0  0  0  0  0  0  0  0  0  0  0  0
   -5.4400   15.2050    3.4640 C   0  0  0  0  0  0  0  0  0  0  0  0
   -5.9470   14.7090    2.2810 N   0  0  0  0  0  0  0  0  0  0  0  0
   -6.4970   15.4320    4.3340 N   0  0  0  0  0  0  0  0  0  0  0  0
   -5.3750   14.7850    0.9980 C   0  0  0  0  0  0  0  0  0  0  0  0
   -7.2110   14.3610    4.9560 C   0  0  0  0  0  0  0  0  0  0  0  0
   -3.9830   14.6640    0.8920 C   0  0  0  0  0  0  0  0  0  0  0  0
   -6.1270   14.9710   -0.1690 C   0  0  0  0  0  0  0  0  0  0  0  0
   -7.6320   14.4610    6.4010 C   0  0  0  0  0  0  0  0  0  0  0  0
   -8.6650   14.5350    5.3110 C   0  0  0  0  0  0  0  0  0  0  0  0
   -3.3530   14.7140   -0.3610 C   0  0  0  0  0  0  0  0  0  0  0  0
   -5.5010   15.0220   -1.4150 C   0  0  0  0  0  0  0  0  0  0  0  0
   -4.1150   14.8870   -1.5230 C   0  0  0  0  0  0  0  0  0  0  0  0
   -3.5430   14.9290   -2.8980 C   0  0  0  0  0  0  0  0  0  0  0  0
   -4.1130   15.5490   -3.7590 O   0  0  0  0  0  0  0  0  0  0  0  0
   -2.4020   14.2150   -3.1750 N   0  0  0  0  0  0  0  0  0  0  0  0
   -1.1230   14.8560   -3.2320 C   0  0  2  0  0  0  0  0  0  0  0  0
   -1.0560   15.9660   -4.2390 C   0  0  0  0  0  0  0  0  0  0  0  0
    0.0380   14.0030   -3.7660 C   0  0  1  0  0  0  0  0  0  0  0  0
   -2.0630   16.7840   -4.7380 C   0  0  0  0  0  0  0  0  0  0  0  0
    0.2650   16.1120   -4.6560 C   0  0  0  0  0  0  0  0  0  0  0  0
    1.1230   15.0730   -3.9840 C   0  0  0  0  0  0  0  0  0  0  0  0
    0.4730   12.9050   -2.8390 C   0  0  0  0  0  0  0  0  0  0  0  0
   -1.7220   17.7740   -5.6540 C   0  0  0  0  0  0  0  0  0  0  0  0
    0.6140   17.0960   -5.5610 C   0  0  0  0  0  0  0  0  0  0  0  0
    0.9940   13.0710   -1.7520 O   0  0  0  0  0  0  0  0  0  0  0  0
    0.2450   11.6610   -3.2950 O   0  0  0  0  0  0  0  0  0  0  0  0
   -0.3900   17.9340   -6.0580 C   0  0  0  0  0  0  0  0  0  0  0  0
  1  2  2  0
  2  3  1  0
  2  4  1  0
  3  5  1  0
  4  6  1  0
  5  7  2  0
  5  8  1  0
  6  9  1  0
  6 10  1  0
  9 10  1  0
  7 11  1  0
  8 12  2  0
 11 13  2  0
 12 13  1  0
 13 14  1  0
 14 15  2  0
 14 16  1  0
 17 16  1  6
 17 18  1  0
 17 19  1  0
 18 20  2  0
 18 21  1  0
 19 22  1  0
 21 22  1  0
 19 23  1  1
 20 24  1  0
 21 25  2  0
 23 26  2  0
 23 27  1  0
 24 28  2  0
 25 28  1  0
M  END
