m-272610-18205366-17770920
     RDKit          3D

 26 28  0  0  0  0  0  0  0  0999 V2000
   -9.2720   15.6650    0.7950 C   0  0  0  0  0  0  0  0  0  0  0  0
   -8.3090   14.6510    1.0980 O   0  0  0  0  0  0  0  0  0  0  0  0
   -7.6770   14.8230    2.2920 C   0  0  0  0  0  0  0  0  0  0  0  0
   -8.2790   14.9370    3.3500 O   0  0  0  0  0  0  0  0  0  0  0  0
   -6.3150   14.8540    2.0880 N   0  0  0  0  0  0  0  0  0  0  0  0
   -5.5770   14.8750    0.8840 C   0  0  0  0  0  0  0  0  0  0  0  0
   -4.1900   14.7470    0.8340 C   0  0  0  0  0  0  0  0  0  0  0  0
   -6.2870   15.0350   -0.3140 C   0  0  0  0  0  0  0  0  0  0  0  0
   -3.5290   14.7650   -0.4060 C   0  0  0  0  0  0  0  0  0  0  0  0
   -5.6310   15.0540   -1.5400 C   0  0  0  0  0  0  0  0  0  0  0  0
   -4.2470   14.9110   -1.6040 C   0  0  0  0  0  0  0  0  0  0  0  0
   -3.5760   14.9080   -2.9400 C   0  0  0  0  0  0  0  0  0  0  0  0
   -4.0550   15.5350   -3.8600 O   0  0  0  0  0  0  0  0  0  0  0  0
   -2.4390   14.1440   -3.1240 N   0  0  0  0  0  0  0  0  0  0  0  0
   -1.1610   14.8010   -3.2000 C   0  0  2  0  0  0  0  0  0  0  0  0
   -1.1110   15.8960   -4.1820 C   0  0  0  0  0  0  0  0  0  0  0  0
    0.0470   14.0350   -3.8030 C   0  0  1  0  0  0  0  0  0  0  0  0
   -2.0790   16.7540   -4.6670 C   0  0  0  0  0  0  0  0  0  0  0  0
    0.1550   15.9890   -4.6040 C   0  0  0  0  0  0  0  0  0  0  0  0
    1.0420   15.0390   -4.0640 C   0  0  0  0  0  0  0  0  0  0  0  0
    0.5070   12.9660   -2.8310 C   0  0  0  0  0  0  0  0  0  0  0  0
   -1.6530   17.8060   -5.6650 C   0  0  0  0  0  0  0  0  0  0  0  0
    0.5990   16.9270   -5.5060 C   0  0  0  0  0  0  0  0  0  0  0  0
    1.1420   13.1020   -1.8070 O   0  0  0  0  0  0  0  0  0  0  0  0
    0.1080   11.7300   -3.2090 O   0  0  0  0  0  0  0  0  0  0  0  0
   -0.2950   17.8590   -6.0540 C   0  0  0  0  0  0  0  0  0  0  0  0
  1  2  1  0
  2  3  1  0
  3  4  2  0
  3  5  1  0
  5  6  1  0
  6  7  2  0
  6  8  1  0
  7  9  1  0
  8 10  2  0
  9 11  2  0
 10 11  1  0
 11 12  1  0
 12 13  2  0
 12 14  1  0
 15 14  1  6
 15 16  1  0
 15 17  1  0
 16 18  2  0
 16 19  1  0
 17 20  1  0
 19 20  1  0
 17 21  1  1
 18 22  1  0
 19 23  2  0
 21 24  2  0
 21 25  1  0
 22 26  2  0
 23 26  1  0
M  END
