s-11-2990918-53482
     RDKit          3D

 20 22  0  0  0  0  0  0  0  0999 V2000
   -9.2520   16.8960    3.3500 O   0  0  0  0  0  0  0  0  0  0  0  0
   -8.8230   16.5540    4.4440 C   0  0  0  0  0  0  0  0  0  0  0  0
   -7.7660   15.6410    4.5410 N   0  0  0  0  0  0  0  0  0  0  0  0
   -9.4940   17.1080    5.6380 C   0  0  0  0  0  0  0  0  0  0  0  0
   -7.2190   15.2500    3.2010 C   0  0  0  0  0  0  0  0  0  0  0  0
   -9.2260   16.5540    6.9940 C   0  0  0  0  0  0  0  0  0  0  0  0
  -10.4010   18.1490    5.5550 C   0  0  0  0  0  0  0  0  0  0  0  0
   -5.9530   15.2600    2.7290 N   0  0  0  0  0  0  0  0  0  0  0  0
   -8.2360   14.9240    2.3800 N   0  0  0  0  0  0  0  0  0  0  0  0
   -9.8820   17.0930    8.0730 C   0  0  0  0  0  0  0  0  0  0  0  0
  -11.0430   18.6720    6.6250 N   0  0  0  0  0  0  0  0  0  0  0  0
   -5.6870   15.0260    1.3150 C   0  0  0  0  0  0  0  0  0  0  0  0
   -8.0340   14.6610    1.0550 C   0  0  0  0  0  0  0  0  0  0  0  0
  -10.7790   18.1480    7.8420 C   0  0  0  0  0  0  0  0  0  0  0  0
   -4.4110   15.1170    0.6910 C   0  0  0  0  0  0  0  0  0  0  0  0
   -6.7430   14.7270    0.4650 C   0  0  0  0  0  0  0  0  0  0  0  0
   -8.9270   14.4090    0.2600 O   0  0  0  0  0  0  0  0  0  0  0  0
   -4.3080   14.9060   -0.7060 C   0  0  0  0  0  0  0  0  0  0  0  0
   -6.6310   14.5180   -0.8770 C   0  0  0  0  0  0  0  0  0  0  0  0
   -5.4170   14.6070   -1.4710 C   0  0  0  0  0  0  0  0  0  0  0  0
  1  2  2  0
  2  3  1  0
  2  4  1  0
  3  5  1  0
  4  6  2  0
  4  7  1  0
  5  8  2  0
  5  9  1  0
  6 10  1  0
  7 11  2  0
  8 12  1  0
  9 13  1  0
 10 14  2  0
 11 14  1  0
 12 15  2  0
 12 16  1  0
 13 16  1  0
 13 17  2  0
 15 18  1  0
 16 19  2  0
 18 20  2  0
 19 20  1  0
M  END
