s-11-11560436-10336618
     RDKit          3D

 24 27  0  0  0  0  0  0  0  0999 V2000
   -0.3920   14.8020   -1.4190 O   0  0  0  0  0  0  0  0  0  0  0  0
   -1.6090   14.6410   -1.4660 C   0  0  0  0  0  0  0  0  0  0  0  0
   -2.3230   14.3400   -2.7600 C   0  0  0  0  0  0  0  0  0  0  0  0
   -2.3420   14.7470   -0.3210 N   0  0  0  0  0  0  0  0  0  0  0  0
   -3.8460   15.2820   -2.9720 S   0  0  0  0  0  0  0  0  0  0  0  0
   -3.7410   14.8030   -0.2430 C   0  0  0  0  0  0  0  0  0  0  0  0
   -4.5520   15.0350   -1.3580 C   0  0  0  0  0  0  0  0  0  0  0  0
   -4.3230   14.6120    1.0070 C   0  0  0  0  0  0  0  0  0  0  0  0
   -5.9540   15.0730   -1.2140 C   0  0  0  0  0  0  0  0  0  0  0  0
   -5.7200   14.6440    1.1560 C   0  0  0  0  0  0  0  0  0  0  0  0
   -6.5510   14.8720    0.0490 C   0  0  0  0  0  0  0  0  0  0  0  0
   -8.0440   14.8910    0.2540 C   0  0  0  0  0  0  0  0  0  0  0  0
   -8.8000   14.3840   -0.5560 O   0  0  0  0  0  0  0  0  0  0  0  0
   -8.4380   15.5130    1.4150 O   0  0  0  0  0  0  0  0  0  0  0  0
   -9.7370   15.1070    1.8780 C   0  0  2  0  0  0  0  0  0  0  0  0
  -10.8440   16.0540    1.4920 C   0  0  0  0  0  0  0  0  0  0  0  0
   -9.8970   15.0790    3.4090 C   0  0  1  0  0  0  0  0  0  0  0  0
  -10.9830   16.7950    0.3300 C   0  0  0  0  0  0  0  0  0  0  0  0
  -11.8110   16.1040    2.5050 C   0  0  0  0  0  0  0  0  0  0  0  0
  -11.4130   15.2480    3.6700 C   0  0  0  0  0  0  0  0  0  0  0  0
   -9.5320   13.8400    3.8530 F   0  0  0  0  0  0  0  0  0  0  0  0
  -12.1270   17.5840    0.1810 C   0  0  0  0  0  0  0  0  0  0  0  0
  -12.9490   16.8740    2.3590 C   0  0  0  0  0  0  0  0  0  0  0  0
  -13.1060   17.6190    1.1860 C   0  0  0  0  0  0  0  0  0  0  0  0
  1  2  2  0
  2  3  1  0
  2  4  1  0
  3  5  1  0
  4  6  1  0
  5  7  1  0
  6  7  2  0
  6  8  1  0
  7  9  1  0
  8 10  2  0
  9 11  2  0
 10 11  1  0
 11 12  1  0
 12 13  2  0
 12 14  1  0
 15 14  1  1
 15 16  1  0
 15 17  1  0
 16 18  2  0
 16 19  1  0
 17 20  1  0
 19 20  1  0
 17 21  1  6
 18 22  1  0
 19 23  2  0
 22 24  2  0
 23 24  1  0
M  END
