s-22-17541880-294410
     RDKit          3D

 21 23  0  0  0  0  0  0  0  0999 V2000
   -9.9050   16.1500    2.1450 O   0  0  0  0  0  0  0  0  0  0  0  0
  -10.0680   15.3670    1.2100 C   0  0  0  0  0  0  0  0  0  0  0  0
  -11.1850   15.5270    0.2010 C   0  0  0  0  0  0  0  0  0  0  0  0
   -9.2730   14.2770    0.9670 N   0  0  0  0  0  0  0  0  0  0  0  0
  -11.3250   16.8950   -0.4240 C   0  0  0  0  0  0  0  0  0  0  0  0
   -8.1740   14.4110    0.2540 C   0  0  0  0  0  0  0  0  0  0  0  0
  -11.2090   18.1210    0.2300 C   0  0  0  0  0  0  0  0  0  0  0  0
  -11.6060   16.9310   -1.7980 C   0  0  0  0  0  0  0  0  0  0  0  0
   -7.3690   14.6310    1.1110 N   0  0  0  0  0  0  0  0  0  0  0  0
   -7.9340   14.3440   -1.1090 N   0  0  0  0  0  0  0  0  0  0  0  0
  -11.3830   19.2970   -0.5040 C   0  0  0  0  0  0  0  0  0  0  0  0
  -11.7580   18.1600   -2.4400 C   0  0  0  0  0  0  0  0  0  0  0  0
   -6.1580   14.8280    0.7800 C   0  0  0  0  0  0  0  0  0  0  0  0
   -6.6570   14.6670   -1.6070 C   0  0  0  0  0  0  0  0  0  0  0  0
  -11.6540   19.3460   -1.8200 N   0  0  0  0  0  0  0  0  0  0  0  0
   -5.4450   14.9920    1.8610 C   0  0  0  0  0  0  0  0  0  0  0  0
   -5.6630   14.8710   -0.4630 C   0  0  0  0  0  0  0  0  0  0  0  0
   -6.3650   14.7750   -2.7850 O   0  0  0  0  0  0  0  0  0  0  0  0
   -4.0310   15.2160    1.6610 C   0  0  0  0  0  0  0  0  0  0  0  0
   -4.3100   15.0910   -0.6920 C   0  0  0  0  0  0  0  0  0  0  0  0
   -3.4690   15.2640    0.3900 C   0  0  0  0  0  0  0  0  0  0  0  0
  1  2  2  0
  2  3  1  0
  2  4  1  0
  3  5  1  0
  4  6  1  0
  5  7  2  0
  5  8  1  0
  6  9  2  0
  6 10  1  0
  7 11  1  0
  8 12  2  0
  9 13  1  0
 10 14  1  0
 11 15  2  0
 12 15  1  0
 13 16  2  0
 13 17  1  0
 14 17  1  0
 14 18  2  0
 16 19  1  0
 17 20  2  0
 19 21  2  0
 20 21  1  0
M  END
