s-34-13231222-13910464
     RDKit          3D

 18 20  0  0  0  0  0  0  0  0999 V2000
    0.8550   12.6320   -6.3750 C   0  0  0  0  0  0  0  0  0  0  0  0
    0.2900   13.3610   -5.1970 C   0  0  0  0  0  0  0  0  0  0  0  0
   -0.3570   12.7540   -4.2740 N   0  0  0  0  0  0  0  0  0  0  0  0
    0.5070   15.1350   -4.9910 S   0  0  0  0  0  0  0  0  0  0  0  0
   -0.7370   13.6200   -3.2840 C   0  0  0  0  0  0  0  0  0  0  0  0
   -0.3520   14.9550   -3.5020 C   0  0  0  0  0  0  0  0  0  0  0  0
   -1.4190   12.9540   -2.2420 C   0  0  0  0  0  0  0  0  0  0  0  0
   -2.2570   13.6690   -1.2010 N   0  0  0  0  0  0  0  0  0  0  0  0
   -1.5540   14.6170   -0.5380 C   0  0  0  0  0  0  0  0  0  0  0  0
   -3.6280   13.6820   -0.5940 C   0  0  0  0  0  0  0  0  0  0  0  0
   -2.2400   15.2050    0.3740 N   0  0  0  0  0  0  0  0  0  0  0  0
   -3.4770   14.6610    0.3560 C   0  0  0  0  0  0  0  0  0  0  0  0
   -4.8730   13.0370   -0.6920 N   0  0  0  0  0  0  0  0  0  0  0  0
   -4.5010   14.9990    1.1860 C   0  0  0  0  0  0  0  0  0  0  0  0
   -5.8240   13.4800    0.2500 C   0  0  0  0  0  0  0  0  0  0  0  0
   -4.2320   15.9630    2.0640 N   0  0  0  0  0  0  0  0  0  0  0  0
   -5.6760   14.4220    1.1570 N   0  0  0  0  0  0  0  0  0  0  0  0
   -7.0830   12.9130    0.3200 N   0  0  0  0  0  0  0  0  0  0  0  0
  1  2  1  0
  2  3  2  0
  2  4  1  0
  3  5  1  0
  4  6  1  0
  5  6  2  0
  5  7  1  0
  7  8  1  0
  8  9  1  0
  8 10  1  0
  9 11  2  0
 10 12  2  0
 11 12  1  0
 10 13  1  0
 12 14  1  0
 13 15  2  0
 14 16  1  0
 14 17  2  0
 15 17  1  0
 15 18  1  0
M  END
