s-487-14047900-150243
     RDKit          3D

 22 24  0  0  0  0  0  0  0  0999 V2000
   -8.9800   15.7940    2.6920 O   0  0  0  0  0  0  0  0  0  0  0  0
   -8.0360   15.3690    3.3550 C   0  0  0  0  0  0  0  0  0  0  0  0
   -7.1120   14.5600    2.8060 N   0  0  0  0  0  0  0  0  0  0  0  0
   -7.7530   15.6080    4.6570 N   0  0  0  0  0  0  0  0  0  0  0  0
   -7.4030   13.9340    1.5690 C   0  0  0  0  0  0  0  0  0  0  0  0
   -8.5760   16.2720    5.5560 C   0  0  0  0  0  0  0  0  0  0  0  0
   -6.3120   14.2780    0.6280 C   0  0  0  0  0  0  0  0  0  0  0  0
   -8.7600   15.8870    6.8750 C   0  0  0  0  0  0  0  0  0  0  0  0
   -9.2600   17.3980    5.0980 C   0  0  0  0  0  0  0  0  0  0  0  0
   -5.0590   14.2490    1.0190 N   0  0  0  0  0  0  0  0  0  0  0  0
   -6.7550   14.5900   -0.6310 N   0  0  0  0  0  0  0  0  0  0  0  0
   -9.6180   16.6490    7.6680 C   0  0  0  0  0  0  0  0  0  0  0  0
  -10.0980   18.1480    5.8420 N   0  0  0  0  0  0  0  0  0  0  0  0
   -4.0820   14.5000    0.0580 C   0  0  0  0  0  0  0  0  0  0  0  0
   -5.9090   14.9100   -1.6420 C   0  0  0  0  0  0  0  0  0  0  0  0
  -10.2580   17.7580    7.1170 C   0  0  0  0  0  0  0  0  0  0  0  0
   -2.7110   14.4330    0.3350 C   0  0  0  0  0  0  0  0  0  0  0  0
   -4.4440   14.8070   -1.2180 C   0  0  0  0  0  0  0  0  0  0  0  0
   -6.2850   15.2200   -2.7530 O   0  0  0  0  0  0  0  0  0  0  0  0
   -1.7640   14.6660   -0.6970 C   0  0  0  0  0  0  0  0  0  0  0  0
   -3.5070   15.0520   -2.2840 C   0  0  0  0  0  0  0  0  0  0  0  0
   -2.1620   14.9730   -2.0160 C   0  0  0  0  0  0  0  0  0  0  0  0
  1  2  2  0
  2  3  1  0
  2  4  1  0
  3  5  1  0
  4  6  1  0
  5  7  1  0
  6  8  2  0
  6  9  1  0
  7 10  2  0
  7 11  1  0
  8 12  1  0
  9 13  2  0
 10 14  1  0
 11 15  1  0
 12 16  2  0
 13 16  1  0
 14 17  2  0
 14 18  1  0
 15 18  1  0
 15 19  2  0
 17 20  1  0
 18 21  2  0
 20 22  2  0
 21 22  1  0
M  END
