s-487-14047900-150243
     RDKit          3D

 22 24  0  0  0  0  0  0  0  0999 V2000
   -9.2140   16.0200    2.4570 O   0  0  0  0  0  0  0  0  0  0  0  0
   -8.3600   15.3310    2.9850 C   0  0  0  0  0  0  0  0  0  0  0  0
   -7.7500   14.3330    2.2920 N   0  0  0  0  0  0  0  0  0  0  0  0
   -7.9040   15.4420    4.2830 N   0  0  0  0  0  0  0  0  0  0  0  0
   -6.3480   14.2070    2.4700 C   0  0  0  0  0  0  0  0  0  0  0  0
   -8.5890   16.1320    5.3010 C   0  0  0  0  0  0  0  0  0  0  0  0
   -5.6460   14.5750    1.1990 C   0  0  0  0  0  0  0  0  0  0  0  0
   -8.6490   15.7450    6.6340 C   0  0  0  0  0  0  0  0  0  0  0  0
   -9.2680   17.2970    4.9480 C   0  0  0  0  0  0  0  0  0  0  0  0
   -4.3870   14.7620    1.2660 N   0  0  0  0  0  0  0  0  0  0  0  0
   -6.3830   14.6770    0.0390 N   0  0  0  0  0  0  0  0  0  0  0  0
   -9.3720   16.5210    7.5410 C   0  0  0  0  0  0  0  0  0  0  0  0
   -9.9790   18.0690    5.8010 N   0  0  0  0  0  0  0  0  0  0  0  0
   -3.7000   15.0640    0.1090 C   0  0  0  0  0  0  0  0  0  0  0  0
   -5.7990   14.9930   -1.1660 C   0  0  0  0  0  0  0  0  0  0  0  0
  -10.0130   17.6620    7.0830 C   0  0  0  0  0  0  0  0  0  0  0  0
   -2.3270   15.2350    0.2000 C   0  0  0  0  0  0  0  0  0  0  0  0
   -4.3340   15.1870   -1.1260 C   0  0  0  0  0  0  0  0  0  0  0  0
   -6.4450   15.1030   -2.1970 O   0  0  0  0  0  0  0  0  0  0  0  0
   -1.5830   15.5230   -0.9370 C   0  0  0  0  0  0  0  0  0  0  0  0
   -3.6020   15.4750   -2.2740 C   0  0  0  0  0  0  0  0  0  0  0  0
   -2.2210   15.6410   -2.1740 C   0  0  0  0  0  0  0  0  0  0  0  0
  1  2  2  0
  2  3  1  0
  2  4  1  0
  3  5  1  0
  4  6  1  0
  5  7  1  0
  6  8  2  0
  6  9  1  0
  7 10  2  0
  7 11  1  0
  8 12  1  0
  9 13  2  0
 10 14  1  0
 11 15  1  0
 12 16  2  0
 13 16  1  0
 14 17  2  0
 14 18  1  0
 15 18  1  0
 15 19  2  0
 17 20  1  0
 18 21  2  0
 20 22  2  0
 21 22  1  0
M  END
