diamond-x0253_0_A-diamond-x0724_0_A
     RDKit          3D

 31 33  0  0  0  0  0  0  0  0999 V2000
    0.3870   11.9410   -5.3220 N   0  0  0  0  0  0  0  0  0  0  0  0
    1.0570   11.6540   -6.4900 C   0  0  0  0  0  0  0  0  0  0  0  0
    2.1660   12.1400   -6.6220 O   0  0  0  0  0  0  0  0  0  0  0  0
    1.0140   12.6230   -4.1810 C   0  0  0  0  0  0  0  0  0  0  0  0
    0.6420   11.9370   -2.8660 C   0  0  0  0  0  0  0  0  0  0  0  0
    0.4590   10.7480   -7.5080 C   0  0  0  0  0  0  0  0  0  0  0  0
    0.7350   12.5030   -1.7160 N   0  0  0  0  0  0  0  0  0  0  0  0
    0.1950   10.6720   -2.9920 O   0  0  0  0  0  0  0  0  0  0  0  0
   -0.5210    9.8300   -7.1220 C   0  0  0  0  0  0  0  0  0  0  0  0
    0.8590   10.7920   -8.8530 C   0  0  0  0  0  0  0  0  0  0  0  0
    1.2250   13.8770   -1.6500 C   0  0  0  0  0  0  0  0  0  0  0  0
   -1.0990    8.9710   -8.0590 C   0  0  0  0  0  0  0  0  0  0  0  0
    0.2880    9.9390   -9.7900 C   0  0  0  0  0  0  0  0  0  0  0  0
   -2.1520    7.9980   -7.6160 C   0  0  0  0  0  0  0  0  0  0  0  0
    0.0620   14.7350   -1.1600 C   0  0  0  0  0  0  0  0  0  0  0  0
   -0.6900    9.0290   -9.3970 C   0  0  0  0  0  0  0  0  0  0  0  0
   -1.2050   14.5840   -2.0210 C   0  0  0  0  0  0  0  0  0  0  0  0
   -2.5290   14.6270   -1.2940 C   0  0  0  0  0  0  0  0  0  0  0  0
   -2.5750   14.7460    0.1030 C   0  0  0  0  0  0  0  0  0  0  0  0
   -3.7350   14.5450   -2.0040 C   0  0  0  0  0  0  0  0  0  0  0  0
   -3.7940   14.7750    0.7800 C   0  0  0  0  0  0  0  0  0  0  0  0
   -4.9590   14.5730   -1.3310 C   0  0  0  0  0  0  0  0  0  0  0  0
   -4.9920   14.6850    0.0650 C   0  0  0  0  0  0  0  0  0  0  0  0
   -6.2360   14.7090    0.7470 N   0  0  0  0  0  0  0  0  0  0  0  0
   -7.4220   14.6010    0.0930 N   0  0  0  0  0  0  0  0  0  0  0  0
   -6.4290   14.8450    2.1030 C   0  0  0  0  0  0  0  0  0  0  0  0
   -7.7880   14.8350    2.3380 C   0  0  0  0  0  0  0  0  0  0  0  0
   -8.3450   14.6770    1.0540 C   0  0  0  0  0  0  0  0  0  0  0  0
   -8.4960   14.9650    3.6400 C   0  0  0  0  0  0  0  0  0  0  0  0
   -8.2710   13.7920    4.4740 N   0  0  0  0  0  0  0  0  0  0  0  0
   -8.7200   13.9880    5.8440 C   0  0  0  0  0  0  0  0  0  0  0  0
  1  2  1  0
  2  3  2  0
  1  4  1  0
  4  5  1  0
  2  6  1  0
  5  7  2  3
  5  8  1  0
  6  9  2  0
  6 10  1  0
  7 11  1  0
  9 12  1  0
 10 13  2  0
 12 14  1  0
 11 15  1  0
 12 16  2  0
 13 16  1  0
 15 17  1  0
 17 18  1  0
 18 19  2  0
 18 20  1  0
 19 21  1  0
 20 22  2  0
 21 23  2  0
 22 23  1  0
 23 24  1  0
 24 25  1  0
 24 26  1  0
 26 27  2  0
 25 28  2  0
 27 28  1  0
 27 29  1  0
 29 30  1  0
 30 31  1  0
M  END
