diamond-x0724_0_A-mac-x0190
     RDKit          3D

 14 15  0  0  0  0  0  0  0  0999 V2000
   -8.2520   13.7890    4.4440 N   0  0  0  0  0  0  0  0  0  0  0  0
   -8.7090   13.9650    5.8130 C   0  0  0  0  0  0  0  0  0  0  0  0
   -8.4300   15.0150    3.6800 C   0  0  0  0  0  0  0  0  0  0  0  0
   -7.7350   14.8660    2.3750 C   0  0  0  0  0  0  0  0  0  0  0  0
   -6.3790   14.8850    2.1120 C   0  0  0  0  0  0  0  0  0  0  0  0
   -8.3140   14.6760    1.1050 C   0  0  0  0  0  0  0  0  0  0  0  0
   -7.4100   14.5930    0.1280 N   0  0  0  0  0  0  0  0  0  0  0  0
   -6.2090   14.7290    0.7530 N   0  0  0  0  0  0  0  0  0  0  0  0
   -4.9900   14.7110    0.0230 C   0  0  0  0  0  0  0  0  0  0  0  0
   -3.7740   14.8440    0.7110 C   0  0  0  0  0  0  0  0  0  0  0  0
   -4.9840   14.5730   -1.3710 C   0  0  0  0  0  0  0  0  0  0  0  0
   -2.5700   14.8360    0.0100 C   0  0  0  0  0  0  0  0  0  0  0  0
   -3.7750   14.5670   -2.0660 C   0  0  0  0  0  0  0  0  0  0  0  0
   -2.5720   14.7000   -1.3790 C   0  0  0  0  0  0  0  0  0  0  0  0
  1  2  1  0
  1  3  1  0
  3  4  1  0
  4  5  2  0
  4  6  1  0
  6  7  2  0
  5  8  1  0
  7  8  1  0
  8  9  1  0
  9 10  2  0
  9 11  1  0
 10 12  1  0
 11 13  2  0
 12 14  2  0
 13 14  1  0
M  END
