diamond-x0852_0_B-mac-x0396
     RDKit          3D

 21 22  0  0  0  0  0  0  0  0999 V2000
   -9.6950   17.8630    7.1220 N   0  0  0  0  0  0  0  0  0  0  0  0
   -9.4630   17.3080    6.1240 C   0  0  0  0  0  0  0  0  0  0  0  0
   -9.2280   16.5470    4.9340 C   0  0  0  0  0  0  0  0  0  0  0  0
   -8.2870   15.5150    4.9150 C   0  0  0  0  0  0  0  0  0  0  0  0
   -9.9650   16.8380    3.7640 C   0  0  0  0  0  0  0  0  0  0  0  0
   -7.5600   15.2190    6.0410 O   0  0  0  0  0  0  0  0  0  0  0  0
   -8.0860   14.7820    3.7610 C   0  0  0  0  0  0  0  0  0  0  0  0
   -9.7650   16.0930    2.5890 C   0  0  0  0  0  0  0  0  0  0  0  0
  -10.5330   16.4400    1.4920 O   0  0  0  0  0  0  0  0  0  0  0  0
   -8.8250   15.0700    2.6110 C   0  0  0  0  0  0  0  0  0  0  0  0
   -9.9070   16.3600    0.1900 C   0  0  0  0  0  0  0  0  0  0  0  0
   -9.3560   14.9510   -0.1150 C   0  0  0  0  0  0  0  0  0  0  0  0
   -7.8430   14.9310   -0.1170 C   0  0  0  0  0  0  0  0  0  0  0  0
   -7.2250   15.3280   -1.2570 N   0  0  0  0  0  0  0  0  0  0  0  0
   -7.1150   14.5290    1.0000 C   0  0  0  0  0  0  0  0  0  0  0  0
   -5.8640   15.3380   -1.2770 C   0  0  0  0  0  0  0  0  0  0  0  0
   -5.7260   14.5510    0.9460 C   0  0  0  0  0  0  0  0  0  0  0  0
   -5.0740   14.9630   -0.2030 C   0  0  0  0  0  0  0  0  0  0  0  0
   -3.5950   14.9700   -0.2050 C   0  0  0  0  0  0  0  0  0  0  0  0
   -2.9530   14.9280    1.0030 N   0  0  0  0  0  0  0  0  0  0  0  0
   -2.9540   15.0060   -1.2450 O   0  0  0  0  0  0  0  0  0  0  0  0
  1  2  3  0
  2  3  1  0
  3  4  2  0
  3  5  1  0
  4  6  1  0
  4  7  1  0
  5  8  2  0
  8  9  1  0
  7 10  2  0
  8 10  1  0
  9 11  1  0
 11 12  1  0
 12 13  1  0
 13 14  2  0
 13 15  1  0
 14 16  1  0
 15 17  2  0
 16 18  2  0
 17 18  1  0
 18 19  1  0
 19 20  1  0
 19 21  2  0
M  END
