diamond-x0711_0_A-diamond-x0591_0_A
     RDKit          3D

 17 18  0  0  0  0  0  0  0  0999 V2000
   -1.0550   14.9700   -1.9860 N   0  0  0  0  0  0  0  0  0  0  0  0
   -0.4960   13.8990   -3.1130 S   0  0  0  0  0  0  0  0  0  0  0  0
   -1.5000   14.1880   -4.4640 C   0  0  0  0  0  0  0  0  0  0  0  0
   -2.4210   14.8420   -1.6520 C   0  0  0  0  0  0  0  0  0  0  0  0
    0.7970   14.3710   -3.5410 O   0  0  0  0  0  0  0  0  0  0  0  0
   -0.7030   12.5820   -2.5810 O   0  0  0  0  0  0  0  0  0  0  0  0
   -3.4540   14.7270   -2.5930 C   0  0  0  0  0  0  0  0  0  0  0  0
   -2.7000   14.8400   -0.2880 C   0  0  0  0  0  0  0  0  0  0  0  0
   -3.1520   14.7040   -4.3520 S   0  0  0  0  0  0  0  0  0  0  0  0
   -4.7900   14.6220   -2.1210 C   0  0  0  0  0  0  0  0  0  0  0  0
   -4.0000   14.7320    0.1740 C   0  0  0  0  0  0  0  0  0  0  0  0
   -3.8640   14.9540   -5.8190 O   0  0  0  0  0  0  0  0  0  0  0  0
   -5.0570   14.6250   -0.7280 C   0  0  0  0  0  0  0  0  0  0  0  0
   -6.4540   14.5060   -0.2120 C   0  0  0  0  0  0  0  0  0  0  0  0
   -6.5610   14.1120    1.1090 N   0  0  0  0  0  0  0  0  0  0  0  0
   -7.4320   14.7470   -0.9010 O   0  0  0  0  0  0  0  0  0  0  0  0
   -6.0570   15.0080    2.0480 N   0  0  0  0  0  0  0  0  0  0  0  0
  1  2  1  0
  2  3  1  0
  1  4  1  0
  2  5  2  0
  2  6  2  0
  4  7  2  0
  4  8  1  0
  3  9  2  0
  7  9  1  0
  7 10  1  0
  8 11  2  0
  9 12  2  0
 10 13  2  0
 11 13  1  0
 13 14  1  0
 14 15  1  0
 14 16  2  0
 15 17  1  0
M  END
