diamond-x0967_0_A-mac-x0182
     RDKit          3D

 24 27  0  0  0  0  0  0  0  0999 V2000
    1.7210   11.8950   -6.9060 O   0  0  0  0  0  0  0  0  0  0  0  0
    0.7460   11.6120   -6.2450 C   0  0  0  0  0  0  0  0  0  0  0  0
    0.4140   12.1850   -5.0430 N   0  0  0  0  0  0  0  0  0  0  0  0
   -0.2320   10.5600   -6.6260 C   0  0  0  0  0  0  0  0  0  0  0  0
   -0.7760   11.3140   -4.2420 S   0  0  2  0  0  0  0  0  0  0  0  0
   -1.1440   10.2860   -5.6070 C   0  0  0  0  0  0  0  0  0  0  0  0
   -0.2990    9.8740   -7.8340 C   0  0  0  0  0  0  0  0  0  0  0  0
   -1.8910   12.3560   -4.0210 N   0  0  0  0  0  0  0  0  0  0  0  0
   -0.0770   10.5230   -3.2560 O   0  0  0  0  0  0  0  0  0  0  0  0
   -2.1490    9.3430   -5.7200 C   0  0  0  0  0  0  0  0  0  0  0  0
   -1.3100    8.9100   -7.9780 C   0  0  0  0  0  0  0  0  0  0  0  0
   -1.7950   13.2580   -2.8300 C   0  0  0  0  0  0  0  0  0  0  0  0
   -2.2270    8.6450   -6.9330 C   0  0  0  0  0  0  0  0  0  0  0  0
   -2.7750   14.4560   -2.9200 C   0  0  0  0  0  0  0  0  0  0  0  0
   -3.5930   14.6070   -1.6470 C   0  0  0  0  0  0  0  0  0  0  0  0
   -4.9390   14.4500   -1.7700 N   0  0  0  0  0  0  0  0  0  0  0  0
   -2.9860   14.8810   -0.4230 C   0  0  0  0  0  0  0  0  0  0  0  0
   -5.7270   14.5480   -0.6900 C   0  0  0  0  0  0  0  0  0  0  0  0
   -3.7960   14.9890    0.7060 C   0  0  0  0  0  0  0  0  0  0  0  0
   -7.0440   14.3790   -0.8520 N   0  0  0  0  0  0  0  0  0  0  0  0
   -5.1830   14.8150    0.5800 C   0  0  0  0  0  0  0  0  0  0  0  0
   -6.0540   14.8970    1.6780 C   0  0  0  0  0  0  0  0  0  0  0  0
   -7.8600   14.4580    0.2250 C   0  0  0  0  0  0  0  0  0  0  0  0
   -7.4160   14.7110    1.5040 C   0  0  0  0  0  0  0  0  0  0  0  0
  1  2  2  0
  2  3  1  0
  2  4  1  0
  5  3  1  6
  4  6  2  0
  5  6  1  0
  4  7  1  0
  5  8  2  0
  5  9  2  0
  6 10  1  0
  7 11  2  0
  8 12  1  0
 10 13  2  0
 11 13  1  0
 12 14  1  0
 14 15  1  0
 15 16  2  0
 15 17  1  0
 16 18  1  0
 17 19  2  0
 18 20  2  0
 18 21  1  0
 19 21  1  0
 21 22  2  0
 20 23  1  0
 22 24  1  0
 23 24  2  0
M  END
