diamond-x0933_0_A-mac-x0138
     RDKit          3D

 18 20  0  0  0  0  0  0  0  0999 V2000
   -4.3530   15.7110    1.4050 N   0  0  0  0  0  0  0  0  0  0  0  0
   -5.4490   14.7990    1.2200 C   0  0  0  0  0  0  0  0  0  0  0  0
   -5.0140   13.4400    1.2060 N   0  0  0  0  0  0  0  0  0  0  0  0
   -3.0900   15.3370    0.9010 C   0  0  0  0  0  0  0  0  0  0  0  0
   -6.1960   14.8880   -0.0150 N   0  0  0  0  0  0  0  0  0  0  0  0
   -2.7960   15.4550   -0.4710 C   0  0  0  0  0  0  0  0  0  0  0  0
   -2.0880   14.8460    1.7030 N   0  0  0  0  0  0  0  0  0  0  0  0
   -5.3230   14.8840   -1.1770 C   0  0  0  0  0  0  0  0  0  0  0  0
   -4.0220   13.1530    0.1750 C   0  0  0  0  0  0  0  0  0  0  0  0
   -3.5460   15.8960   -1.5350 N   0  0  0  0  0  0  0  0  0  0  0  0
   -1.5380   15.0690   -0.8900 C   0  0  0  0  0  0  0  0  0  0  0  0
   -0.9060   14.5030    1.1670 C   0  0  0  0  0  0  0  0  0  0  0  0
    0.0280   14.0220    2.0630 N   0  0  0  0  0  0  0  0  0  0  0  0
   -4.3710   13.6760   -1.2150 C   0  0  0  0  0  0  0  0  0  0  0  0
   -1.5410   15.2930   -2.2430 N   0  0  0  0  0  0  0  0  0  0  0  0
   -2.7640   15.7870   -2.5820 C   0  0  0  0  0  0  0  0  0  0  0  0
   -0.5430   14.5840   -0.1330 N   0  0  0  0  0  0  0  0  0  0  0  0
   -0.4520   15.0540   -3.1510 C   0  0  0  0  0  0  0  0  0  0  0  0
  1  2  1  0
  2  3  1  0
  1  4  1  0
  2  5  1  0
  4  6  1  0
  4  7  2  0
  5  8  1  0
  3  9  1  0
  6 10  1  0
  6 11  2  0
  7 12  1  0
 12 13  1  0
  8 14  1  0
  9 14  1  0
 11 15  1  0
 10 16  2  0
 15 16  1  0
 11 17  1  0
 12 17  2  0
 15 18  1  0
M  END
