diamond-x0849_0_A-mac-x0139
     RDKit          3D

 17 19  0  0  0  0  0  0  0  0999 V2000
   -2.6160   15.0600   -2.4260 O   0  0  0  0  0  0  0  0  0  0  0  0
   -1.2410   14.6370   -2.1630 N   0  0  0  0  0  0  0  0  0  0  0  0
   -0.1480   15.0590   -3.0660 C   0  0  0  0  0  0  0  0  0  0  0  0
   -3.1450   15.1110   -1.1330 C   0  0  0  0  0  0  0  0  0  0  0  0
   -2.2140   14.8190   -0.1830 C   0  0  0  0  0  0  0  0  0  0  0  0
   -4.4160   15.4100   -0.7270 C   0  0  0  0  0  0  0  0  0  0  0  0
   -1.0360   14.5450   -0.7900 C   0  0  0  0  0  0  0  0  0  0  0  0
    0.3590   13.8610   -3.8760 C   0  0  0  0  0  0  0  0  0  0  0  0
   -2.4410   14.8100    1.1660 C   0  0  0  0  0  0  0  0  0  0  0  0
   -4.6120   15.3820    0.6520 C   0  0  0  0  0  0  0  0  0  0  0  0
    0.0350   14.2470    0.0060 C   0  0  0  0  0  0  0  0  0  0  0  0
    0.8030   12.6870   -3.0330 C   0  0  0  0  0  0  0  0  0  0  0  0
   -3.6680   15.0990    1.5820 N   0  0  0  0  0  0  0  0  0  0  0  0
   -1.4170   14.5120    1.9480 N   0  0  0  0  0  0  0  0  0  0  0  0
   -0.2240   14.2470    1.3750 C   0  0  0  0  0  0  0  0  0  0  0  0
    1.4180   12.8020   -1.9880 O   0  0  0  0  0  0  0  0  0  0  0  0
    0.4740   11.4760   -3.5300 O   0  0  0  0  0  0  0  0  0  0  0  0
  1  2  1  0
  2  3  1  0
  1  4  1  0
  4  5  1  0
  4  6  2  0
  2  7  1  0
  5  7  2  0
  3  8  1  0
  5  9  1  0
  6 10  1  0
  7 11  1  0
  8 12  1  0
  9 13  1  0
 10 13  2  0
  9 14  2  0
 11 15  2  0
 14 15  1  0
 12 16  2  0
 12 17  1  0
M  END
