diamond-x0962_1_A-diamond-x0587_0_A
     RDKit          3D

 12 12  0  0  0  0  0  0  0  0999 V2000
   -3.3550   15.1530   -0.4130 N   0  0  0  0  0  0  0  0  0  0  0  0
   -4.5290   14.6560   -1.0540 C   0  0  0  0  0  0  0  0  0  0  0  0
   -4.2650   13.3980   -1.4840 F   0  0  0  0  0  0  0  0  0  0  0  0
   -4.7110   15.3850   -2.1760 F   0  0  0  0  0  0  0  0  0  0  0  0
   -5.7590   14.6680   -0.2340 C   0  0  0  0  0  0  0  0  0  0  0  0
   -5.8730   14.7960    1.1520 N   0  0  0  0  0  0  0  0  0  0  0  0
   -7.0510   14.5530   -0.6630 C   0  0  0  0  0  0  0  0  0  0  0  0
   -7.2390   14.7620    1.4700 C   0  0  0  0  0  0  0  0  0  0  0  0
   -7.9310   14.6080    0.3660 N   0  0  0  0  0  0  0  0  0  0  0  0
   -7.9400   14.8770    2.7480 C   0  0  0  0  0  0  0  0  0  0  0  0
   -7.1910   15.0240    3.8750 N   0  0  0  0  0  0  0  0  0  0  0  0
   -9.1690   14.8770    2.8660 O   0  0  0  0  0  0  0  0  0  0  0  0
  1  2  1  0
  2  3  1  0
  2  4  1  0
  2  5  1  0
  5  6  1  0
  5  7  2  0
  6  8  1  0
  7  9  1  0
  8  9  2  0
  8 10  1  0
 10 11  1  0
 10 12  2  0
M  END
