diamond-x0128_0_A-mac-x0115
     RDKit          3D

 32 35  0  0  0  0  0  0  0  0999 V2000
   -6.3990   14.5310    2.3330 N   0  0  0  0  0  0  0  0  0  0  0  0
   -7.5500   15.0990    2.8890 C   0  0  0  0  0  0  0  0  0  0  0  0
   -8.4800   15.4240    2.1530 O   0  0  0  0  0  0  0  0  0  0  0  0
   -5.5450   14.9740    1.2000 C   0  0  2  0  0  0  0  0  0  0  0  0
   -7.5100   15.2260    4.2590 N   0  0  0  0  0  0  0  0  0  0  0  0
   -6.3920   14.8300   -0.0340 C   0  0  0  0  0  0  0  0  0  0  0  0
   -4.1110   14.3790    1.0800 C   0  0  0  0  0  0  0  0  0  0  0  0
   -5.9660   14.1940   -1.1270 C   0  0  0  0  0  0  0  0  0  0  0  0
   -3.5510   14.3640   -0.4020 C   0  0  2  0  0  0  0  0  0  0  0  0
   -8.3390   15.9720    5.1640 C   0  0  0  0  0  0  0  0  0  0  0  0
   -4.5970   13.5650   -1.2010 C   0  0  0  0  0  0  0  0  0  0  0  0
   -9.0150   17.1210    4.7280 C   0  0  0  0  0  0  0  0  0  0  0  0
   -8.5300   15.6290    6.5030 C   0  0  0  0  0  0  0  0  0  0  0  0
   -2.0060   13.9620   -0.5820 C   0  0  2  0  0  0  0  0  0  0  0  0
   -3.5120   15.6790   -1.1260 C   0  0  0  0  0  0  0  0  0  0  0  0
   -9.8180   17.8960    5.4990 N   0  0  0  0  0  0  0  0  0  0  0  0
   -9.3540   16.4110    7.3240 C   0  0  0  0  0  0  0  0  0  0  0  0
   -0.9340   14.4730    0.3940 C   0  0  0  0  0  0  0  0  0  0  0  0
   -1.6920   14.4660   -2.0050 C   0  0  1  0  0  0  0  0  0  0  0  0
   -2.4960   15.7290   -2.0180 C   0  0  0  0  0  0  0  0  0  0  0  0
   -1.1520   14.7460    1.5870 O   0  0  0  0  0  0  0  0  0  0  0  0
   -9.9710   17.5260    6.7810 C   0  0  0  0  0  0  0  0  0  0  0  0
   -0.2810   14.6700   -2.3830 N   0  0  0  0  0  0  0  0  0  0  0  0
    0.3450   14.6070   -0.1180 N   0  0  0  0  0  0  0  0  0  0  0  0
    0.0360   14.4870   -3.8260 C   0  0  0  0  0  0  0  0  0  0  0  0
    0.7160   14.4860   -1.4390 C   0  0  0  0  0  0  0  0  0  0  0  0
    0.5110   15.7430   -4.5730 C   0  0  0  0  0  0  0  0  0  0  0  0
    2.3220   14.1270   -1.7790 S   0  0  0  0  0  0  0  0  0  0  0  0
   -0.6370   16.3470   -5.1820 O   0  0  0  0  0  0  0  0  0  0  0  0
   -0.4080   17.6270   -5.7860 C   0  0  0  0  0  0  0  0  0  0  0  0
   -1.4230   18.5730   -5.1820 C   0  0  0  0  0  0  0  0  0  0  0  0
    1.0100   18.1140   -5.5560 C   0  0  0  0  0  0  0  0  0  0  0  0
  1  2  1  0
  2  3  2  0
  4  1  1  1
  2  5  1  0
  4  6  1  0
  4  7  1  0
  6  8  2  0
  9  7  1  1
  5 10  1  0
  8 11  1  0
  9 11  1  0
 10 12  2  0
 10 13  1  0
  9 14  1  0
  9 15  1  0
 12 16  1  0
 13 17  2  0
 14 18  1  1
 14 19  1  0
 15 20  2  0
 19 20  1  1
 18 21  2  0
 16 22  2  0
 17 22  1  0
 19 23  1  0
 18 24  1  0
 23 25  1  0
 23 26  1  0
 24 26  1  0
 25 27  1  0
 26 28  2  0
 27 29  1  0
 29 30  1  0
 30 31  1  0
 30 32  1  0
M  END
