diamond-x0729_1_B-diamond-x0259_0_A
     RDKit          3D

 26 28  0  0  0  0  0  0  0  0999 V2000
   19.6550   24.3410    7.0740 C   0  0  0  0  0  0  0  0  0  0  0  0
   19.9860   25.8070    6.8380 C   0  0  1  0  0  0  0  0  0  0  0  0
   20.1070   26.4780    8.1800 N   0  0  0  0  0  0  0  0  0  0  0  0
   21.1780   25.8740    5.8700 C   0  0  1  0  0  0  0  0  0  0  0  0
   20.6590   26.1920    4.5440 C   0  0  0  0  0  0  0  0  0  0  0  0
   18.8180   27.5000    8.6290 S   0  0  0  0  0  0  0  0  0  0  0  0
   21.4670   26.8810    8.6180 C   0  0  0  0  0  0  0  0  0  0  0  0
   22.3620   26.7780    6.2510 C   0  0  0  0  0  0  0  0  0  0  0  0
   19.2920   28.3310    9.7200 O   0  0  0  0  0  0  0  0  0  0  0  0
   20.1940   26.4450    3.5280 N   0  0  0  0  0  0  0  0  0  0  0  0
   17.6430   26.6720    8.7910 O   0  0  0  0  0  0  0  0  0  0  0  0
   18.6050   28.6170    7.1480 C   0  0  2  0  0  0  0  0  0  0  0  0
   22.1760   27.6270    7.5070 C   0  0  0  0  0  0  0  0  0  0  0  0
   19.8910   29.0260    6.5320 N   0  0  0  0  0  0  0  0  0  0  0  0
   17.5870   29.7610    7.2230 C   0  0  2  0  0  0  0  0  0  0  0  0
   20.2120   28.6880    5.2240 C   0  0  0  0  0  0  0  0  0  0  0  0
   17.4030   30.4220    8.5740 C   0  0  0  0  0  0  0  0  0  0  0  0
   16.1420   29.3960    6.9280 C   0  0  0  0  0  0  0  0  0  0  0  0
   19.2480   28.1790    4.4430 N   0  0  0  0  0  0  0  0  0  0  0  0
   21.5110   28.8820    4.7450 C   0  0  0  0  0  0  0  0  0  0  0  0
   15.4050   30.5680    7.3090 O   0  0  0  0  0  0  0  0  0  0  0  0
   16.1360   31.2270    8.3510 C   0  0  0  0  0  0  0  0  0  0  0  0
   22.7980   29.5350    5.6910 Cl  0  0  0  0  0  0  0  0  0  0  0  0
   19.5800   27.8670    3.1830 C   0  0  0  0  0  0  0  0  0  0  0  0
   21.7420   28.5210    3.4350 C   0  0  0  0  0  0  0  0  0  0  0  0
   20.7930   28.0110    2.6260 N   0  0  0  0  0  0  0  0  0  0  0  0
  2  1  1  1
  2  3  1  0
  2  4  1  0
  4  5  1  6
  6  3  1  0
  3  7  1  0
  4  8  1  0
  6  9  2  0
  5 10  3  0
  6 11  2  0
  6 12  1  0
  7 13  1  0
  8 13  1  0
 12 14  1  1
 12 15  1  0
 14 16  1  0
 15 17  1  1
 15 18  1  0
 16 19  2  0
 16 20  1  0
 18 21  1  0
 17 22  1  0
 21 22  1  0
 20 23  1  0
 19 24  1  0
 20 25  2  0
 24 26  2  0
 25 26  1  0
M  END
