diamond-x0766_0_A-diamond-x0282_0_A
     RDKit          3D

 26 29  0  0  0  0  0  0  0  0999 V2000
    0.6320   12.1050   -2.8840 C   0  0  0  0  0  0  0  0  0  0  0  0
   -0.0160   10.9230   -2.8720 O   0  0  0  0  0  0  0  0  0  0  0  0
    1.4120   12.4170   -2.0070 O   0  0  0  0  0  0  0  0  0  0  0  0
    0.3060   13.0150   -4.0420 C   0  0  2  0  0  0  0  0  0  0  0  0
    1.5620   13.5690   -4.7240 C   0  0  0  0  0  0  0  0  0  0  0  0
   -0.4840   14.2430   -3.5490 C   0  0  2  0  0  0  0  0  0  0  0  0
    1.6850   15.0130   -4.2360 C   0  0  0  0  0  0  0  0  0  0  0  0
    0.6690   15.1500   -3.1060 C   0  0  0  0  0  0  0  0  0  0  0  0
   -1.6080   13.8070   -2.5390 C   0  0  2  0  0  0  0  0  0  0  0  0
   -2.8110   14.6510   -2.7240 C   0  0  0  0  0  0  0  0  0  0  0  0
   -1.3350   13.4060   -1.0750 C   0  0  0  0  0  0  0  0  0  0  0  0
   -3.5240   15.9200   -1.6550 S   0  0  0  0  0  0  0  0  0  0  0  0
   -2.1530   14.1270    0.0380 C   0  0  1  0  0  0  0  0  0  0  0  0
   -2.1020   15.5350   -0.4970 C   0  0  1  0  0  0  0  0  0  0  0  0
   -3.5170   13.6390    0.3140 N   0  0  0  0  0  0  0  0  0  0  0  0
   -1.4390   14.2120    1.3120 N   0  0  0  0  0  0  0  0  0  0  0  0
   -3.9940   13.8470    1.6870 C   0  0  0  0  0  0  0  0  0  0  0  0
   -4.5480   13.6560   -0.7480 C   0  0  0  0  0  0  0  0  0  0  0  0
   -0.7020   15.6920   -1.0200 C   0  0  0  0  0  0  0  0  0  0  0  0
   -0.0320   14.3820    1.0290 C   0  0  0  0  0  0  0  0  0  0  0  0
   -5.2510   14.6970    1.8390 C   0  0  0  0  0  0  0  0  0  0  0  0
   -5.8070   14.4940   -0.4850 C   0  0  0  0  0  0  0  0  0  0  0  0
    0.2740   15.1210   -0.2560 C   0  0  0  0  0  0  0  0  0  0  0  0
   -6.2780   14.1160    0.9010 C   0  0  0  0  0  0  0  0  0  0  0  0
   -7.7270   14.4500    1.2570 C   0  0  0  0  0  0  0  0  0  0  0  0
   -8.5100   14.6850    0.0970 O   0  0  0  0  0  0  0  0  0  0  0  0
  1  2  1  0
  1  3  2  0
  4  1  1  1
  4  5  1  0
  4  6  1  0
  5  7  1  0
  6  8  1  1
  7  8  1  0
  6  9  1  0
  9 10  1  1
  9 11  1  0
 10 12  2  0
 11 13  1  0
 12 14  1  0
 13 14  1  0
 13 15  1  1
 13 16  1  0
 15 17  1  0
 15 18  1  0
 14 19  1  6
 16 20  1  0
 17 21  1  0
 18 22  1  0
 19 23  2  0
 20 23  1  0
 21 24  1  0
 22 24  1  0
 24 25  1  0
 25 26  1  0
M  END
