diamond-x0805_0_A-mac-x0193
     RDKit          3D

 28 30  0  0  0  0  0  0  0  0999 V2000
   -4.5290   15.3970    0.7200 C   0  0  0  0  0  0  0  0  0  0  0  0
   -3.2520   15.3390    0.1130 O   0  0  0  0  0  0  0  0  0  0  0  0
   -3.1120   14.6420   -1.0530 C   0  0  0  0  0  0  0  0  0  0  0  0
   -4.0720   13.9110   -1.7510 C   0  0  0  0  0  0  0  0  0  0  0  0
   -1.8240   14.7130   -1.5510 C   0  0  0  0  0  0  0  0  0  0  0  0
   -3.7140   13.2670   -2.9420 C   0  0  0  0  0  0  0  0  0  0  0  0
   -1.4340   14.0950   -2.7240 C   0  0  0  0  0  0  0  0  0  0  0  0
   -2.4020   13.3570   -3.4330 C   0  0  0  0  0  0  0  0  0  0  0  0
    0.0160   14.2710   -3.1570 C   0  0  1  0  0  0  0  0  0  0  0  0
    0.9580   13.0540   -3.3040 C   0  0  1  0  0  0  0  0  0  0  0  0
    0.1480   15.1990   -4.3590 C   0  0  0  0  0  0  0  0  0  0  0  0
    0.2960   11.7070   -3.4480 C   0  0  0  0  0  0  0  0  0  0  0  0
    2.0040   13.3350   -4.3810 C   0  0  0  0  0  0  0  0  0  0  0  0
    1.5700   15.6900   -4.5060 C   0  0  0  0  0  0  0  0  0  0  0  0
    1.0840   10.5840   -3.1590 O   0  0  0  0  0  0  0  0  0  0  0  0
   -0.6420   11.6790   -2.3830 O   0  0  0  0  0  0  0  0  0  0  0  0
   -0.3840   11.5860   -4.8330 C   0  0  0  0  0  0  0  0  0  0  0  0
    2.5130   14.6530   -4.2300 O   0  0  0  0  0  0  0  0  0  0  0  0
    0.2690   10.6800   -5.7780 N   0  0  0  0  0  0  0  0  0  0  0  0
    1.1730   11.1250   -6.7130 C   0  0  0  0  0  0  0  0  0  0  0  0
    2.2770   11.5370   -6.4180 O   0  0  0  0  0  0  0  0  0  0  0  0
    0.7000   11.0790   -8.0080 N   0  0  0  0  0  0  0  0  0  0  0  0
    0.3910    9.8640   -8.7880 C   0  0  0  0  0  0  0  0  0  0  0  0
    1.3680    8.6900   -8.5480 C   0  0  0  0  0  0  0  0  0  0  0  0
    0.1420   10.2860  -10.2580 C   0  0  0  0  0  0  0  0  0  0  0  0
    2.0760    8.0990   -9.7830 C   0  0  0  0  0  0  0  0  0  0  0  0
    0.8620    9.5330  -11.3890 C   0  0  0  0  0  0  0  0  0  0  0  0
    1.2170    8.1130  -11.0300 C   0  0  0  0  0  0  0  0  0  0  0  0
  1  2  1  0
  2  3  1  0
  3  4  2  0
  3  5  1  0
  4  6  1  0
  5  7  2  0
  6  8  2  0
  7  8  1  0
  9  7  1  6
  9 10  1  0
  9 11  1  0
 10 12  1  6
 10 13  1  0
 11 14  1  0
 12 15  1  0
 12 16  1  0
 12 17  1  0
 13 18  1  0
 14 18  1  0
 17 19  1  0
 19 20  1  0
 20 21  2  0
 20 22  1  0
 22 23  1  0
 23 24  1  0
 23 25  1  0
 24 26  1  0
 25 27  1  0
 26 28  1  0
 27 28  1  0
M  END
