diamond-x0766_0_A-diamond-x0864_0_A
     RDKit          3D

 22 24  0  0  0  0  0  0  0  0999 V2000
    0.1750   12.3000   -2.8480 C   0  0  0  0  0  0  0  0  0  0  0  0
   -0.5070   12.3350   -1.5980 O   0  0  0  0  0  0  0  0  0  0  0  0
    0.8430   11.0700   -2.8200 O   0  0  0  0  0  0  0  0  0  0  0  0
   -0.7150   12.4890   -4.1050 C   0  0  0  0  0  0  0  0  0  0  0  0
    1.0800   13.4890   -2.8490 C   0  0  1  0  0  0  0  0  0  0  0  0
    1.9390   13.6260   -4.1050 C   0  0  0  0  0  0  0  0  0  0  0  0
    0.3190   14.8160   -2.6310 C   0  0  1  0  0  0  0  0  0  0  0  0
   -0.6860   11.3590   -5.0340 N   0  0  0  0  0  0  0  0  0  0  0  0
    1.5500   14.9600   -4.7190 C   0  0  0  0  0  0  0  0  0  0  0  0
    0.3430   15.5100   -3.9870 C   0  0  0  0  0  0  0  0  0  0  0  0
   -1.0810   14.7520   -2.0430 C   0  0  0  0  0  0  0  0  0  0  0  0
   -1.6340   10.4080   -4.7850 C   0  0  0  0  0  0  0  0  0  0  0  0
    0.1350   11.3390   -6.1800 C   0  0  0  0  0  0  0  0  0  0  0  0
    1.1110   12.0490   -6.4050 O   0  0  0  0  0  0  0  0  0  0  0  0
   -2.3190   14.7720   -2.6910 C   0  0  0  0  0  0  0  0  0  0  0  0
   -1.2810   14.6650   -0.6250 C   0  0  0  0  0  0  0  0  0  0  0  0
   -1.9190    9.4750   -5.6730 C   0  0  0  0  0  0  0  0  0  0  0  0
   -0.2440   10.3210   -7.1950 C   0  0  0  0  0  0  0  0  0  0  0  0
   -2.6050   14.6300   -0.2560 C   0  0  0  0  0  0  0  0  0  0  0  0
   -3.6440   14.6980   -1.6060 S   0  0  0  0  0  0  0  0  0  0  0  0
   -1.2240    9.4470   -6.9290 C   0  0  0  0  0  0  0  0  0  0  0  0
   -1.7670    8.1400   -8.1370 Br  0  0  0  0  0  0  0  0  0  0  0  0
  1  2  1  0
  1  3  1  0
  1  4  1  0
  5  1  1  6
  5  6  1  0
  5  7  1  0
  4  8  1  0
  6  9  1  0
  7 10  1  0
  9 10  1  0
  7 11  1  6
  8 12  1  0
  8 13  1  0
 13 14  2  0
 11 15  2  0
 11 16  1  0
 12 17  2  0
 13 18  1  0
 16 19  2  0
 15 20  1  0
 19 20  1  0
 17 21  1  0
 18 21  2  0
 21 22  1  0
M  END
