diamond-x0711_0_A-mac-x0567
     RDKit          3D

 19 20  0  0  0  0  0  0  0  0999 V2000
   -2.0760   14.0910   -2.7000 N   0  0  0  0  0  0  0  0  0  0  0  0
   -0.4810   13.9580   -3.2190 S   0  0  0  0  0  0  0  0  0  0  0  0
   -0.7000   12.6850   -4.4410 C   0  0  0  0  0  0  0  0  0  0  0  0
   -2.5800   15.1280   -1.7850 C   0  0  1  0  0  0  0  0  0  0  0  0
   -0.0600   15.1640   -3.8900 O   0  0  0  0  0  0  0  0  0  0  0  0
    0.2480   13.3890   -2.1090 O   0  0  0  0  0  0  0  0  0  0  0  0
   -3.9570   15.4560   -2.3280 C   0  0  0  0  0  0  0  0  0  0  0  0
   -2.6040   14.6650   -0.2670 C   0  0  1  0  0  0  0  0  0  0  0  0
   -5.0930   15.3720   -1.6140 C   0  0  0  0  0  0  0  0  0  0  0  0
   -3.9390   13.9250    0.0090 C   0  0  0  0  0  0  0  0  0  0  0  0
   -1.2910   13.9580    0.2180 C   0  0  1  0  0  0  0  0  0  0  0  0
   -2.5900   15.7720    0.7480 C   0  0  0  0  0  0  0  0  0  0  0  0
   -0.0140   14.5440   -0.1870 N   0  0  0  0  0  0  0  0  0  0  0  0
   -5.0850   14.9340   -0.1830 C   0  0  2  0  0  0  0  0  0  0  0  0
   -1.2990   14.1890    1.6720 N   0  0  0  0  0  0  0  0  0  0  0  0
   -2.5390   14.9140    1.9170 N   0  0  0  0  0  0  0  0  0  0  0  0
   -6.4700   14.5160    0.3390 C   0  0  0  0  0  0  0  0  0  0  0  0
   -6.6090   14.4960    1.7030 N   0  0  0  0  0  0  0  0  0  0  0  0
   -7.4300   14.2340   -0.3720 O   0  0  0  0  0  0  0  0  0  0  0  0
  2  1  1  0
  2  3  1  0
  4  1  1  6
  2  5  2  0
  2  6  2  0
  4  7  1  0
  4  8  1  0
  7  9  2  0
  8 10  1  6
  8 11  1  0
  8 12  1  0
 11 13  1  6
  9 14  1  0
 10 14  1  0
 11 15  1  0
 12 16  1  0
 15 16  1  0
 14 17  1  6
 17 18  1  0
 17 19  2  0
M  END
