diamond-x0371_0_A-mac-x0115
     RDKit          3D

 33 37  0  0  0  0  0  0  0  0999 V2000
   -7.9400   14.2510    3.0790 N   0  0  0  0  0  0  0  0  0  0  0  0
   -8.6510   15.3380    3.5900 C   0  0  0  0  0  0  0  0  0  0  0  0
   -9.2800   16.1180    2.8720 O   0  0  0  0  0  0  0  0  0  0  0  0
   -8.1330   13.7790    1.7150 C   0  0  0  0  0  0  0  0  0  0  0  0
   -7.2480   14.5820    0.7460 C   0  0  1  0  0  0  0  0  0  0  0  0
   -8.5850   15.4470    5.0320 C   0  0  0  0  0  0  0  0  0  0  0  0
   -5.8940   14.7880    1.2880 N   0  0  0  0  0  0  0  0  0  0  0  0
   -7.0820   14.0010   -0.5990 N   0  0  0  0  0  0  0  0  0  0  0  0
   -8.0280   14.4070    5.7220 O   0  0  0  0  0  0  0  0  0  0  0  0
   -8.9830   16.4200    5.9350 C   0  0  0  0  0  0  0  0  0  0  0  0
   -5.6310   13.9310   -0.8600 C   0  0  2  0  0  0  0  0  0  0  0  0
   -5.0790   13.8370    0.5460 C   0  0  1  0  0  0  0  0  0  0  0  0
   -8.6460   15.9380    7.2250 C   0  0  0  0  0  0  0  0  0  0  0  0
   -8.0650   14.7090    7.0380 C   0  0  0  0  0  0  0  0  0  0  0  0
   -3.5760   14.0200    0.6910 C   0  0  0  0  0  0  0  0  0  0  0  0
   -5.1140   15.0960   -1.6920 C   0  0  0  0  0  0  0  0  0  0  0  0
   -2.9360   15.0610   -0.2110 C   0  0  2  0  0  0  0  0  0  0  0  0
   -3.5940   15.3150   -1.5960 C   0  0  1  0  0  0  0  0  0  0  0  0
   -1.4790   14.7550   -0.6030 C   0  0  1  0  0  0  0  0  0  0  0  0
   -2.7440   14.5300   -2.6300 C   0  0  0  0  0  0  0  0  0  0  0  0
   -0.4880   14.2420    0.3550 C   0  0  0  0  0  0  0  0  0  0  0  0
   -1.4670   14.0140   -1.9100 C   0  0  1  0  0  0  0  0  0  0  0  0
   -0.6820   14.1090    1.5560 O   0  0  0  0  0  0  0  0  0  0  0  0
   -0.1370   14.2750   -2.5010 N   0  0  0  0  0  0  0  0  0  0  0  0
    0.6910   13.9670   -0.2900 N   0  0  0  0  0  0  0  0  0  0  0  0
    0.0320   14.3200   -3.9760 C   0  0  0  0  0  0  0  0  0  0  0  0
    0.9690   14.0880   -1.6420 C   0  0  0  0  0  0  0  0  0  0  0  0
    0.4890   15.6820   -4.5370 C   0  0  0  0  0  0  0  0  0  0  0  0
    2.5770   13.9830   -2.0900 S   0  0  0  0  0  0  0  0  0  0  0  0
   -0.6690   16.3460   -5.0590 O   0  0  0  0  0  0  0  0  0  0  0  0
   -0.4380   17.6080   -5.7020 C   0  0  0  0  0  0  0  0  0  0  0  0
   -1.4180   18.6550   -5.2060 C   0  0  0  0  0  0  0  0  0  0  0  0
    0.9960   18.0240   -5.4320 C   0  0  0  0  0  0  0  0  0  0  0  0
  1  2  1  0
  2  3  2  0
  1  4  1  0
  5  4  1  1
  2  6  1  0
  5  7  1  0
  5  8  1  0
  6  9  1  0
  6 10  2  0
  8 11  1  0
  7 12  1  0
 11 12  1  0
 10 13  1  0
  9 14  1  0
 13 14  2  0
 12 15  1  6
 11 16  1  1
 17 15  1  6
 18 16  1  1
 17 18  1  0
 17 19  1  0
 18 20  1  0
 19 21  1  1
 19 22  1  0
 22 20  1  6
 21 23  2  0
 22 24  1  0
 21 25  1  0
 24 26  1  0
 24 27  1  0
 25 27  1  0
 26 28  1  0
 27 29  2  0
 28 30  1  0
 30 31  1  0
 31 32  1  0
 31 33  1  0
M  END
