diamond-x0438_0_A-mac-x0212
     RDKit          3D

 22 24  0  0  0  0  0  0  0  0999 V2000
   -8.8450   15.7620    3.5580 C   0  0  0  0  0  0  0  0  0  0  0  0
   -9.1720   15.0970    1.9300 S   0  0  0  0  0  0  0  0  0  0  0  0
   -9.8970   13.8630    2.1260 O   0  0  0  0  0  0  0  0  0  0  0  0
   -7.5780   14.8100    1.1880 C   0  0  0  0  0  0  0  0  0  0  0  0
   -9.7600   16.2190    1.2320 O   0  0  0  0  0  0  0  0  0  0  0  0
   -6.3610   14.4720    2.3310 S   0  0  0  0  0  0  0  0  0  0  0  0
   -7.2970   14.9040   -0.2430 C   0  0  0  0  0  0  0  0  0  0  0  0
   -6.3540   14.2600    4.0060 C   0  0  0  0  0  0  0  0  0  0  0  0
   -7.9630   14.7550    2.2810 O   0  0  0  0  0  0  0  0  0  0  0  0
   -4.9350   14.4380    1.4160 N   0  0  0  0  0  0  0  0  0  0  0  0
   -5.9720   14.8110   -0.7330 C   0  0  0  0  0  0  0  0  0  0  0  0
   -8.3530   15.0850   -1.1160 C   0  0  0  0  0  0  0  0  0  0  0  0
   -8.2090   15.1800   -2.4390 N   0  0  0  0  0  0  0  0  0  0  0  0
   -5.8180   14.9280   -2.1190 C   0  0  0  0  0  0  0  0  0  0  0  0
   -4.8190   14.6060    0.0350 C   0  0  0  0  0  0  0  0  0  0  0  0
   -4.5610   14.8650   -2.7130 C   0  0  0  0  0  0  0  0  0  0  0  0
   -3.5300   14.5430   -0.5670 C   0  0  0  0  0  0  0  0  0  0  0  0
   -6.9470   15.1020   -2.9010 C   0  0  0  0  0  0  0  0  0  0  0  0
   -3.4120   14.6750   -1.9620 C   0  0  0  0  0  0  0  0  0  0  0  0
   -2.0850   14.5920   -2.6580 C   0  0  0  0  0  0  0  0  0  0  0  0
   -1.0370   14.2950   -2.1120 O   0  0  0  0  0  0  0  0  0  0  0  0
   -2.1620   14.8570   -3.9840 O   0  0  0  0  0  0  0  0  0  0  0  0
  2  1  1  0
  2  3  2  0
  2  4  1  0
  2  5  2  0
  4  6  2  0
  4  7  1  0
  6  8  1  0
  6  9  2  0
  6 10  1  0
  7 11  2  0
  7 12  1  0
 12 13  2  0
 11 14  1  0
 10 15  1  0
 11 15  1  0
 14 16  1  0
 15 17  2  0
 13 18  1  0
 14 18  2  0
 16 19  2  0
 17 19  1  0
 19 20  1  0
 20 21  2  0
 20 22  1  0
M  END
