diamond-x0837_0_A-mac-x0204
     RDKit          3D

 18 19  0  0  0  0  0  0  0  0999 V2000
   -6.0800   15.0750    0.2460 O   0  0  0  0  0  0  0  0  0  0  0  0
   -4.8740   14.9670   -0.0380 C   0  0  0  0  0  0  0  0  0  0  0  0
   -3.8890   14.6820    0.9500 N   0  0  0  0  0  0  0  0  0  0  0  0
   -4.4800   15.1390   -1.4850 C   0  0  0  0  0  0  0  0  0  0  0  0
   -2.5720   14.4620    0.4850 C   0  0  0  0  0  0  0  0  0  0  0  0
   -3.3690   14.2160   -1.7920 C   0  0  1  0  0  0  0  0  0  0  0  0
   -2.5700   14.3150   -3.7700 I   0  0  0  0  0  0  0  0  0  0  0  0
   -2.3120   14.2440   -0.7790 C   0  0  0  0  0  0  0  0  0  0  0  0
   -1.0000   15.6030   -3.9880 C   0  0  0  0  0  0  0  0  0  0  0  0
   -0.5560   14.4300   -3.5620 C   0  0  0  0  0  0  0  0  0  0  0  0
   -2.1140   16.2430   -4.3570 C   0  0  0  0  0  0  0  0  0  0  0  0
    0.8030   14.0990   -3.2440 C   0  0  0  0  0  0  0  0  0  0  0  0
   -2.2170   17.5700   -4.7550 O   0  0  0  0  0  0  0  0  0  0  0  0
   -3.1900   15.3350   -4.2700 C   0  0  0  0  0  0  0  0  0  0  0  0
   -1.6490   13.5450   -3.4790 C   0  0  0  0  0  0  0  0  0  0  0  0
    1.1050   13.3180   -2.1530 O   0  0  0  0  0  0  0  0  0  0  0  0
    1.7330   14.5290   -3.9500 O   0  0  0  0  0  0  0  0  0  0  0  0
   -2.9130   14.0300   -3.8400 N   0  0  0  0  0  0  0  0  0  0  0  0
  1  2  2  0
  2  3  1  0
  2  4  1  0
  3  5  1  0
  4  6  1  0
  6  7  1  6
  5  8  2  0
  6  8  1  0
  7  9  1  0
  9 10  2  0
  9 11  1  0
 10 12  1  0
 11 13  1  0
 11 14  2  0
 10 15  1  0
 12 16  1  0
 12 17  2  0
 14 18  1  0
 15 18  2  0
M  END
