diamond-x0524_0_A-diamond-x0950_0_A
     RDKit          3D

 24 25  0  0  0  0  0  0  0  0999 V2000
   -0.5190    8.6940   -8.2310 N   0  0  0  0  0  0  0  0  0  0  0  0
   -0.7210    9.5540   -7.1660 C   0  0  0  0  0  0  0  0  0  0  0  0
   -1.8710    9.1550   -6.2470 C   0  0  0  0  0  0  0  0  0  0  0  0
    0.5120    8.7120   -9.1910 C   0  0  0  0  0  0  0  0  0  0  0  0
    0.0210   10.5950   -6.9680 N   0  0  0  0  0  0  0  0  0  0  0  0
    1.5700    7.7920   -9.0810 C   0  0  0  0  0  0  0  0  0  0  0  0
    0.5510    9.6000  -10.2610 C   0  0  0  0  0  0  0  0  0  0  0  0
   -0.1070   11.5300   -5.8490 C   0  0  0  0  0  0  0  0  0  0  0  0
    2.6200    7.7700  -10.0020 C   0  0  0  0  0  0  0  0  0  0  0  0
    1.5990    9.5740  -11.1850 C   0  0  0  0  0  0  0  0  0  0  0  0
    1.0180   12.4090   -5.7080 O   0  0  0  0  0  0  0  0  0  0  0  0
    2.6510    8.6610  -11.0720 C   0  0  0  0  0  0  0  0  0  0  0  0
    3.6810    8.6760  -12.0210 N   0  0  0  0  0  0  0  0  0  0  0  0
    1.4780   12.7770   -4.3980 C   0  0  2  0  0  0  0  0  0  0  0  0
    2.9890   12.5420   -4.4080 C   0  0  0  0  0  0  0  0  0  0  0  0
    0.8960   12.0690   -3.1650 C   0  0  0  0  0  0  0  0  0  0  0  0
    3.9900    9.5350  -13.0880 C   0  0  0  0  0  0  0  0  0  0  0  0
    0.4410   10.9390   -3.1040 O   0  0  0  0  0  0  0  0  0  0  0  0
    0.9240   12.8250   -2.0500 O   0  0  0  0  0  0  0  0  0  0  0  0
    3.2360   10.7000  -13.2950 C   0  0  0  0  0  0  0  0  0  0  0  0
    5.0420    9.2680  -13.9660 C   0  0  0  0  0  0  0  0  0  0  0  0
    3.5260   11.5700  -14.3470 C   0  0  0  0  0  0  0  0  0  0  0  0
    5.3360   10.1360  -15.0200 C   0  0  0  0  0  0  0  0  0  0  0  0
    4.5790   11.2850  -15.2100 C   0  0  0  0  0  0  0  0  0  0  0  0
  1  2  1  0
  2  3  1  0
  1  4  1  0
  2  5  2  3
  4  6  2  0
  4  7  1  0
  5  8  1  0
  6  9  1  0
  7 10  2  0
  8 11  1  0
  9 12  2  0
 10 12  1  0
 12 13  1  0
 11 14  1  0
 14 15  1  6
 14 16  1  0
 13 17  1  0
 16 18  2  0
 16 19  1  0
 17 20  2  0
 17 21  1  0
 20 22  1  0
 21 23  2  0
 22 24  2  0
 23 24  1  0
M  END
