diamond-x0438_0_A-mac-x0346
     RDKit          3D

 19 21  0  0  0  0  0  0  0  0999 V2000
   -8.0670   15.2490    3.4710 C   0  0  0  0  0  0  0  0  0  0  0  0
   -9.2080   15.1380    2.1030 S   0  0  0  0  0  0  0  0  0  0  0  0
  -10.2670   14.2490    2.5610 O   0  0  0  0  0  0  0  0  0  0  0  0
   -8.3220   14.3340    0.6610 C   0  0  1  0  0  0  0  0  0  0  0  0
   -9.5630   16.4970    1.7450 O   0  0  0  0  0  0  0  0  0  0  0  0
   -8.1020   15.3050   -0.4070 N   0  0  0  0  0  0  0  0  0  0  0  0
   -7.0130   13.7810    1.1290 C   0  0  0  0  0  0  0  0  0  0  0  0
   -6.9800   15.3260   -1.2200 C   0  0  0  0  0  0  0  0  0  0  0  0
   -5.7790   14.0980    0.4860 C   0  0  0  0  0  0  0  0  0  0  0  0
   -6.9960   12.9500    2.2230 C   0  0  0  0  0  0  0  0  0  0  0  0
   -7.1260   15.6570   -2.3710 O   0  0  0  0  0  0  0  0  0  0  0  0
   -5.8970   12.4250    2.7400 N   0  0  0  0  0  0  0  0  0  0  0  0
   -4.6000   13.5850    1.0440 C   0  0  0  0  0  0  0  0  0  0  0  0
   -5.6830   14.8860   -0.6660 C   0  0  0  0  0  0  0  0  0  0  0  0
   -4.4240   15.1830   -1.2310 C   0  0  0  0  0  0  0  0  0  0  0  0
   -3.3530   13.9020    0.4870 C   0  0  0  0  0  0  0  0  0  0  0  0
   -4.7350   12.7670    2.1480 C   0  0  0  0  0  0  0  0  0  0  0  0
   -4.3130   15.9270   -2.3540 O   0  0  0  0  0  0  0  0  0  0  0  0
   -3.2620   14.7030   -0.6440 C   0  0  0  0  0  0  0  0  0  0  0  0
  2  1  1  0
  2  3  2  0
  4  2  1  1
  2  5  2  0
  4  6  1  0
  4  7  1  0
  6  8  1  0
  7  9  2  0
  7 10  1  0
  8 11  2  0
 10 12  2  0
  9 13  1  0
  8 14  1  0
  9 14  1  0
 14 15  2  0
 13 16  1  0
 12 17  1  0
 13 17  2  0
 15 18  1  0
 15 19  1  0
 16 19  2  0
M  END
