diamond-x0805_0_A-diamond-x0864_0_A
     RDKit          3D

 26 28  0  0  0  0  0  0  0  0999 V2000
   -4.3950   15.6010    0.6080 C   0  0  0  0  0  0  0  0  0  0  0  0
   -3.1270   15.0930    0.2190 O   0  0  0  0  0  0  0  0  0  0  0  0
   -2.9830   14.6000   -1.0470 C   0  0  0  0  0  0  0  0  0  0  0  0
   -4.0700   13.8870   -1.5570 C   0  0  0  0  0  0  0  0  0  0  0  0
   -1.8520   14.7610   -1.8330 C   0  0  0  0  0  0  0  0  0  0  0  0
   -4.0180   13.3460   -2.8390 C   0  0  0  0  0  0  0  0  0  0  0  0
   -1.7740   14.2390   -3.1170 C   0  0  0  0  0  0  0  0  0  0  0  0
   -2.8750   13.5220   -3.6210 C   0  0  0  0  0  0  0  0  0  0  0  0
   -0.5300   14.4390   -3.9510 C   0  0  2  0  0  0  0  0  0  0  0  0
    0.3060   13.1640   -4.1920 C   0  0  2  0  0  0  0  0  0  0  0  0
    0.3350   15.6090   -3.4790 C   0  0  0  0  0  0  0  0  0  0  0  0
    0.4640   12.1370   -3.0590 C   0  0  0  0  0  0  0  0  0  0  0  0
    1.6920   13.4360   -4.8080 C   0  0  0  0  0  0  0  0  0  0  0  0
    1.7060   15.6010   -4.1150 C   0  0  0  0  0  0  0  0  0  0  0  0
    1.8300   11.8620   -2.9590 O   0  0  0  0  0  0  0  0  0  0  0  0
    0.0620   12.5910   -1.7600 O   0  0  0  0  0  0  0  0  0  0  0  0
   -0.2170   10.9010   -3.6330 C   0  0  0  0  0  0  0  0  0  0  0  0
    2.3880   14.3610   -4.0020 O   0  0  0  0  0  0  0  0  0  0  0  0
   -0.7030   11.1880   -5.0030 N   0  0  0  0  0  0  0  0  0  0  0  0
   -2.0360   10.9490   -5.1760 C   0  0  0  0  0  0  0  0  0  0  0  0
    0.1400   11.0840   -6.1220 C   0  0  0  0  0  0  0  0  0  0  0  0
    1.0810   11.8300   -6.4030 O   0  0  0  0  0  0  0  0  0  0  0  0
   -2.4290   10.1190   -6.1320 C   0  0  0  0  0  0  0  0  0  0  0  0
   -0.1900    9.9490   -6.9990 C   0  0  0  0  0  0  0  0  0  0  0  0
   -1.4460    9.4920   -6.9810 C   0  0  0  0  0  0  0  0  0  0  0  0
   -2.0010    8.0520   -8.0190 Br  0  0  0  0  0  0  0  0  0  0  0  0
  1  2  1  0
  2  3  1  0
  3  4  2  0
  3  5  1  0
  4  6  1  0
  5  7  2  0
  6  8  2  0
  7  8  1  0
  9  7  1  1
  9 10  1  0
  9 11  1  0
 10 12  1  1
 10 13  1  0
 11 14  1  0
 12 15  1  0
 12 16  1  0
 12 17  1  0
 13 18  1  0
 14 18  1  0
 17 19  1  0
 19 20  1  0
 19 21  1  0
 21 22  2  0
 20 23  2  0
 21 24  1  0
 23 25  1  0
 24 25  2  0
 25 26  1  0
M  END
