diamond-x0592_0_A-mac-x0348
     RDKit          3D

 28 30  0  0  0  0  0  0  0  0999 V2000
   -2.8650   14.7000    1.3310 N   0  0  0  0  0  0  0  0  0  0  0  0
   -3.3030   14.7370    0.0260 C   0  0  0  0  0  0  0  0  0  0  0  0
   -2.4840   14.6860   -0.9520 N   0  0  0  0  0  0  0  0  0  0  0  0
   -4.7380   14.8180   -0.1310 C   0  0  0  0  0  0  0  0  0  0  0  0
   -1.0370   14.5640   -1.0190 C   0  0  0  0  0  0  0  0  0  0  0  0
   -5.5220   15.2020   -1.2550 C   0  0  0  0  0  0  0  0  0  0  0  0
   -5.6890   14.5190    0.8170 C   0  0  0  0  0  0  0  0  0  0  0  0
   -0.7340   14.0270   -2.4160 C   0  0  0  0  0  0  0  0  0  0  0  0
   -6.8410   15.1450   -1.0280 N   0  0  0  0  0  0  0  0  0  0  0  0
   -6.9100   14.7250    0.2510 N   0  0  0  0  0  0  0  0  0  0  0  0
   -8.1880   14.5320    0.9040 C   0  0  0  0  0  0  0  0  0  0  0  0
    0.3940   14.6640   -3.2280 C   0  0  1  0  0  0  0  0  0  0  0  0
   -7.9840   14.0980    2.3520 C   0  0  0  0  0  0  0  0  0  0  0  0
    1.0630   13.4930   -3.9470 C   0  0  0  0  0  0  0  0  0  0  0  0
   -0.0790   15.7170   -4.1840 C   0  0  0  0  0  0  0  0  0  0  0  0
   -7.1630   15.0380    3.0430 O   0  0  0  0  0  0  0  0  0  0  0  0
    1.0760   12.3270   -3.0020 C   0  0  0  0  0  0  0  0  0  0  0  0
    0.6960   16.7720   -4.5880 C   0  0  0  0  0  0  0  0  0  0  0  0
   -1.3410   15.8560   -4.8490 C   0  0  0  0  0  0  0  0  0  0  0  0
    1.5770   12.4200   -1.9050 O   0  0  0  0  0  0  0  0  0  0  0  0
    0.4830   11.1990   -3.4420 O   0  0  0  0  0  0  0  0  0  0  0  0
   -0.0110   17.5320   -5.4560 N   0  0  0  0  0  0  0  0  0  0  0  0
   -1.2620   17.0090   -5.6280 C   0  0  0  0  0  0  0  0  0  0  0  0
   -2.5410   15.1170   -4.8690 C   0  0  0  0  0  0  0  0  0  0  0  0
    0.5040   18.7090   -6.0940 C   0  0  0  0  0  0  0  0  0  0  0  0
   -3.6080   15.5430   -5.6610 C   0  0  0  0  0  0  0  0  0  0  0  0
   -2.3280   17.4480   -6.4090 C   0  0  0  0  0  0  0  0  0  0  0  0
   -3.4960   16.6950   -6.4210 C   0  0  0  0  0  0  0  0  0  0  0  0
  1  2  1  0
  2  3  2  3
  2  4  1  0
  3  5  1  0
  4  6  1  0
  4  7  2  0
  5  8  1  0
  6  9  2  0
  7 10  1  0
  9 10  1  0
 10 11  1  0
 12  8  1  6
 11 13  1  0
 12 14  1  0
 12 15  1  0
 13 16  1  0
 14 17  1  0
 15 18  2  0
 15 19  1  0
 17 20  2  0
 17 21  1  0
 18 22  1  0
 19 23  2  0
 22 23  1  0
 19 24  1  0
 22 25  1  0
 24 26  2  0
 23 27  1  0
 26 28  1  0
 27 28  2  0
M  END
