diamond-x0471_0_A-mac-x0178
     RDKit          3D

 32 34  0  0  0  0  0  0  0  0999 V2000
   -8.8260   14.1290    2.7260 N   0  0  0  0  0  0  0  0  0  0  0  0
   -9.1920   15.1650    3.5630 C   0  0  0  0  0  0  0  0  0  0  0  0
   -9.4550   16.2760    3.1210 O   0  0  0  0  0  0  0  0  0  0  0  0
   -8.8320   14.3190    1.2800 C   0  0  0  0  0  0  0  0  0  0  0  0
   -9.2830   14.8420    5.0620 C   0  0  0  0  0  0  0  0  0  0  0  0
   -7.4230   14.5750    0.8640 C   0  0  0  0  0  0  0  0  0  0  0  0
   -9.5580   13.3620    5.3230 C   0  0  0  0  0  0  0  0  0  0  0  0
   -8.0480   15.3240    5.8180 C   0  0  0  0  0  0  0  0  0  0  0  0
   -6.9870   14.7850   -0.4360 N   0  0  0  0  0  0  0  0  0  0  0  0
   -6.4220   14.6330    1.6970 N   0  0  0  0  0  0  0  0  0  0  0  0
   -5.3120   14.8820    0.9550 C   0  0  0  0  0  0  0  0  0  0  0  0
   -5.6110   14.9860   -0.3980 C   0  0  0  0  0  0  0  0  0  0  0  0
   -4.6200   15.2400   -1.3690 C   0  0  0  0  0  0  0  0  0  0  0  0
   -4.0020   15.0330    1.3980 C   0  0  0  0  0  0  0  0  0  0  0  0
   -3.2890   15.3800   -0.8810 C   0  0  0  0  0  0  0  0  0  0  0  0
   -3.0120   15.2780    0.4750 C   0  0  0  0  0  0  0  0  0  0  0  0
   -2.0810   15.6320   -1.7320 C   0  0  0  0  0  0  0  0  0  0  0  0
   -2.3230   16.0190   -3.1690 C   0  0  0  0  0  0  0  0  0  0  0  0
   -1.1690   16.8880   -3.6770 C   0  0  0  0  0  0  0  0  0  0  0  0
   -1.6570   17.9910   -4.5240 N   0  0  0  0  0  0  0  0  0  0  0  0
   -1.5520   17.3490   -5.8440 S   0  0  2  0  0  0  0  0  0  0  0  0
   -0.3460   18.2540   -6.5570 N   0  0  0  0  0  0  0  0  0  0  0  0
   -2.5890   17.1610   -6.8220 O   0  0  0  0  0  0  0  0  0  0  0  0
   -0.9320   15.8720   -5.0750 C   0  0  0  0  0  0  0  0  0  0  0  0
    0.2950   15.9880   -4.3910 C   0  0  0  0  0  0  0  0  0  0  0  0
   -1.6260   14.6540   -5.0980 C   0  0  0  0  0  0  0  0  0  0  0  0
    0.8130   14.8880   -3.7100 C   0  0  0  0  0  0  0  0  0  0  0  0
   -1.0940   13.5500   -4.4080 C   0  0  0  0  0  0  0  0  0  0  0  0
    0.1220   13.6730   -3.7040 C   0  0  0  0  0  0  0  0  0  0  0  0
    0.7270   12.5610   -2.9280 C   0  0  0  0  0  0  0  0  0  0  0  0
    1.6010   12.6980   -2.0970 O   0  0  0  0  0  0  0  0  0  0  0  0
    0.2130   11.3530   -3.1940 O   0  0  0  0  0  0  0  0  0  0  0  0
  1  2  1  0
  2  3  2  0
  1  4  1  0
  2  5  1  0
  4  6  1  0
  5  7  1  0
  5  8  1  0
  6  9  1  0
  6 10  2  0
 10 11  1  0
  9 12  1  0
 11 12  2  0
 12 13  1  0
 11 14  1  0
 13 15  2  0
 14 16  2  0
 15 16  1  0
 15 17  1  0
 17 18  1  0
 18 19  1  0
 19 20  1  0
 20 21  2  0
 21 22  1  6
 21 23  2  0
 21 24  1  0
 24 25  2  0
 24 26  1  0
 25 27  1  0
 26 28  2  0
 27 29  2  0
 28 29  1  0
 29 30  1  0
 30 31  2  0
 30 32  1  0
M  END
