diamond-x0766_0_A-mac-x0123
     RDKit          3D

 22 25  0  0  0  0  0  0  0  0999 V2000
    0.3360   12.1580   -2.3760 C   0  0  0  0  0  0  0  0  0  0  0  0
    0.0610   11.0120   -3.0180 O   0  0  0  0  0  0  0  0  0  0  0  0
    0.3200   12.2570   -1.1690 O   0  0  0  0  0  0  0  0  0  0  0  0
    0.6900   13.3780   -3.1540 C   0  0  1  0  0  0  0  0  0  0  0  0
    0.8980   13.3430   -4.6600 C   0  0  0  0  0  0  0  0  0  0  0  0
   -0.0830   14.6720   -2.7970 C   0  0  1  0  0  0  0  0  0  0  0  0
    1.1590   14.8200   -4.9010 C   0  0  0  0  0  0  0  0  0  0  0  0
    0.0630   15.5070   -4.0870 C   0  0  0  0  0  0  0  0  0  0  0  0
   -1.4690   14.6770   -2.1120 C   0  0  0  0  0  0  0  0  0  0  0  0
   -2.6180   13.9130   -2.1520 C   0  0  0  0  0  0  0  0  0  0  0  0
   -1.6070   15.7670   -1.1650 C   0  0  0  0  0  0  0  0  0  0  0  0
   -2.7840   15.8670   -0.5480 C   0  0  0  0  0  0  0  0  0  0  0  0
   -3.7960   14.6360   -1.0870 S   0  0  2  0  0  0  0  0  0  0  0  0
   -4.4590   13.9650    0.4160 C   0  0  1  0  0  0  0  0  0  0  0  0
   -5.2010   15.1510   -1.9840 C   0  0  0  0  0  0  0  0  0  0  0  0
   -3.4590   14.0540    1.4790 N   0  0  0  0  0  0  0  0  0  0  0  0
   -6.3840   14.3570   -1.6680 N   0  0  0  0  0  0  0  0  0  0  0  0
   -5.7220   14.8360    0.7400 C   0  0  1  0  0  0  0  0  0  0  0  0
   -6.8360   14.7220   -0.3320 C   0  0  2  0  0  0  0  0  0  0  0  0
   -6.5610   14.6260    1.9940 C   0  0  0  0  0  0  0  0  0  0  0  0
   -7.9070   13.7930    0.2800 C   0  0  0  0  0  0  0  0  0  0  0  0
   -7.7440   14.0590    1.7380 C   0  0  0  0  0  0  0  0  0  0  0  0
  1  2  1  0
  1  3  2  0
  4  1  1  6
  4  5  1  0
  4  6  1  0
  5  7  1  0
  6  8  1  0
  7  8  1  0
  6  9  1  6
  9 10  2  0
  9 11  1  0
 11 12  2  0
 13 10  1  6
 12 13  1  0
 13 14  1  0
 13 15  1  0
 14 16  1  1
 15 17  1  0
 14 18  1  0
 17 19  1  0
 18 19  1  0
 18 20  1  1
 19 21  1  1
 20 22  2  0
 21 22  1  0
M  END
