diamond-x1012_0_A-mac-x0284
     RDKit          3D

 22 23  0  0  0  0  0  0  0  0999 V2000
   -0.4240   18.1100   -4.6990 N   0  0  0  0  0  0  0  0  0  0  0  0
   -1.2670   17.0560   -4.8140 C   0  0  0  0  0  0  0  0  0  0  0  0
   -2.4680   17.2930   -4.7510 O   0  0  0  0  0  0  0  0  0  0  0  0
   -0.6910   15.7950   -4.9680 N   0  0  0  0  0  0  0  0  0  0  0  0
   -1.6180   14.6290   -5.1100 C   0  0  0  0  0  0  0  0  0  0  0  0
    0.7830   15.5790   -4.9010 C   0  0  0  0  0  0  0  0  0  0  0  0
   -1.0380   13.2860   -4.6310 C   0  0  0  0  0  0  0  0  0  0  0  0
    1.2440   14.2440   -4.2880 C   0  0  0  0  0  0  0  0  0  0  0  0
    0.0530   13.5700   -3.6300 C   0  0  0  0  0  0  0  0  0  0  0  0
    0.2920   12.4700   -2.6030 C   0  0  0  0  0  0  0  0  0  0  0  0
    0.5780   11.2390   -3.0460 O   0  0  0  0  0  0  0  0  0  0  0  0
    0.1700   12.8590   -1.4100 N   0  0  0  0  0  0  0  0  0  0  0  0
   -0.1580   14.2730   -1.3050 C   0  0  1  0  0  0  0  0  0  0  0  0
    0.5510   15.0170   -2.2900 O   0  0  0  0  0  0  0  0  0  0  0  0
   -1.6490   14.6200   -1.4370 C   0  0  0  0  0  0  0  0  0  0  0  0
   -2.3310   14.9160   -0.2610 C   0  0  0  0  0  0  0  0  0  0  0  0
   -2.4080   14.6840   -2.6350 C   0  0  0  0  0  0  0  0  0  0  0  0
   -1.8420   14.4080   -3.8300 O   0  0  0  0  0  0  0  0  0  0  0  0
   -3.6790   15.2680   -0.2560 C   0  0  0  0  0  0  0  0  0  0  0  0
   -3.7580   15.0300   -2.6430 C   0  0  0  0  0  0  0  0  0  0  0  0
   -4.3190   15.5810    1.0510 C   0  0  0  0  0  0  0  0  0  0  0  0
   -4.3940   15.3260   -1.4490 C   0  0  0  0  0  0  0  0  0  0  0  0
  1  2  1  0
  2  3  2  0
  2  4  1  0
  4  5  1  0
  4  6  1  0
  5  7  1  0
  6  8  1  0
  7  9  1  0
  8  9  1  0
  9 10  1  0
 10 11  1  0
 10 12  2  3
 12 13  1  0
 13 14  1  6
 13 15  1  0
 15 16  2  0
 15 17  1  0
 17 18  1  0
 16 19  1  0
 17 20  2  0
 19 21  1  0
 19 22  2  0
 20 22  1  0
M  END
