diamond-x0253_0_A-mac-x0394
     RDKit          3D

 22 23  0  0  0  0  0  0  0  0999 V2000
    0.4950   11.9610   -5.4010 N   0  0  0  0  0  0  0  0  0  0  0  0
    1.1230   11.6380   -6.5600 C   0  0  0  0  0  0  0  0  0  0  0  0
    2.2390   12.0840   -6.7020 O   0  0  0  0  0  0  0  0  0  0  0  0
    0.9110   12.9530   -4.4060 C   0  0  2  0  0  0  0  0  0  0  0  0
    0.8720   12.3860   -2.9750 C   0  0  0  0  0  0  0  0  0  0  0  0
    0.5050   10.7500   -7.5720 C   0  0  0  0  0  0  0  0  0  0  0  0
    0.2200   14.2880   -4.6430 C   0  0  0  0  0  0  0  0  0  0  0  0
    1.2390   12.9340   -1.9540 O   0  0  0  0  0  0  0  0  0  0  0  0
    0.3610   11.1350   -2.8930 O   0  0  0  0  0  0  0  0  0  0  0  0
   -0.4730    9.8470   -7.1410 C   0  0  0  0  0  0  0  0  0  0  0  0
    0.8680   10.7890   -8.9250 C   0  0  0  0  0  0  0  0  0  0  0  0
   -1.1500   14.3170   -4.9010 C   0  0  0  0  0  0  0  0  0  0  0  0
    0.9150   15.5190   -4.6160 C   0  0  0  0  0  0  0  0  0  0  0  0
   -1.0870    8.9880   -8.0580 C   0  0  0  0  0  0  0  0  0  0  0  0
    0.2610    9.9360   -9.8370 C   0  0  0  0  0  0  0  0  0  0  0  0
   -1.8170   15.5120   -5.1280 C   0  0  0  0  0  0  0  0  0  0  0  0
    0.2120   16.7120   -4.8480 C   0  0  0  0  0  0  0  0  0  0  0  0
   -2.1370    8.0210   -7.5960 C   0  0  0  0  0  0  0  0  0  0  0  0
    1.0040   18.2170   -4.8320 Cl  0  0  0  0  0  0  0  0  0  0  0  0
   -3.4990   15.4750   -5.4470 Cl  0  0  0  0  0  0  0  0  0  0  0  0
   -0.7150    9.0370   -9.4070 C   0  0  0  0  0  0  0  0  0  0  0  0
   -1.1460   16.7150   -5.1030 C   0  0  0  0  0  0  0  0  0  0  0  0
  1  2  1  0
  2  3  2  0
  4  1  1  6
  4  5  1  0
  2  6  1  0
  4  7  1  0
  5  8  2  0
  5  9  1  0
  6 10  2  0
  6 11  1  0
  7 12  2  0
  7 13  1  0
 10 14  1  0
 11 15  2  0
 12 16  1  0
 13 17  2  0
 14 18  1  0
 17 19  1  0
 16 20  1  0
 14 21  2  0
 15 21  1  0
 16 22  2  0
 17 22  1  0
M  END
