diamond-x0282_0_A-mac-x0306
     RDKit          3D

 24 27  0  0  0  0  0  0  0  0999 V2000
   -6.5860   12.7830    2.4010 C   0  0  0  0  0  0  0  0  0  0  0  0
   -6.1000   13.7960    1.3630 C   0  0  0  0  0  0  0  0  0  0  0  0
   -5.5010   12.9460    0.1780 C   0  0  0  0  0  0  0  0  0  0  0  0
   -5.1100   14.7930    1.9400 C   0  0  0  0  0  0  0  0  0  0  0  0
   -7.2140   14.5070    0.8510 N   0  0  0  0  0  0  0  0  0  0  0  0
   -3.7180   14.2280    1.8700 C   0  0  0  0  0  0  0  0  0  0  0  0
   -4.0920   13.2280   -0.3620 C   0  0  0  0  0  0  0  0  0  0  0  0
   -8.4490   14.6370    1.4050 C   0  0  0  0  0  0  0  0  0  0  0  0
   -7.1750   15.1700   -0.3210 C   0  0  0  0  0  0  0  0  0  0  0  0
   -3.3360   14.0760    0.5140 N   0  0  0  0  0  0  0  0  0  0  0  0
   -9.1360   15.3950    0.5070 C   0  0  0  0  0  0  0  0  0  0  0  0
   -8.3410   15.7190   -0.5620 N   0  0  0  0  0  0  0  0  0  0  0  0
   -5.9700   15.2150   -1.1310 C   0  0  0  0  0  0  0  0  0  0  0  0
   -2.0130   14.3010    0.3080 C   0  0  0  0  0  0  0  0  0  0  0  0
   -5.9700   14.9820   -2.4920 C   0  0  0  0  0  0  0  0  0  0  0  0
   -4.7590   15.4860   -0.5070 C   0  0  0  0  0  0  0  0  0  0  0  0
   -1.5640   14.3050   -0.9580 N   0  0  0  0  0  0  0  0  0  0  0  0
   -1.2490   14.5090    1.3840 N   0  0  0  0  0  0  0  0  0  0  0  0
   -4.7620   15.0210   -3.1680 C   0  0  0  0  0  0  0  0  0  0  0  0
   -3.6210   15.4960   -1.2680 C   0  0  0  0  0  0  0  0  0  0  0  0
   -0.2700   14.5400   -1.1490 C   0  0  0  0  0  0  0  0  0  0  0  0
    0.0320   14.7340    1.1280 C   0  0  0  0  0  0  0  0  0  0  0  0
   -3.5780   15.2720   -2.5900 N   0  0  0  0  0  0  0  0  0  0  0  0
    0.5790   14.7660   -0.1310 C   0  0  0  0  0  0  0  0  0  0  0  0
  2  1  1  0
  2  3  1  0
  2  4  1  0
  2  5  1  0
  4  6  1  0
  3  7  1  0
  5  8  1  0
  5  9  1  0
  6 10  1  0
  7 10  1  0
  8 11  2  0
  9 12  2  0
 11 12  1  0
  9 13  1  0
 10 14  1  0
 13 15  2  0
 13 16  1  0
 14 17  2  0
 14 18  1  0
 15 19  1  0
 16 20  2  0
 17 21  1  0
 18 22  2  0
 19 23  2  0
 20 23  1  0
 21 24  2  0
 22 24  1  0
M  END
