diamond-x0969_0_A-diamond-x0685_1_A
     RDKit          3D

 25 27  0  0  0  0  0  0  0  0999 V2000
   -6.8050   14.8270    2.4960 N   0  0  0  0  0  0  0  0  0  0  0  0
   -6.5690   14.7900    1.1660 C   0  0  0  0  0  0  0  0  0  0  0  0
   -7.4680   14.7180    0.2100 N   0  0  0  0  0  0  0  0  0  0  0  0
   -5.3060   14.8270    0.6100 N   0  0  0  0  0  0  0  0  0  0  0  0
   -6.8090   14.6970   -1.0010 N   0  0  0  0  0  0  0  0  0  0  0  0
   -5.5170   14.7520   -0.7570 C   0  0  0  0  0  0  0  0  0  0  0  0
   -4.0400   14.9080    1.1870 C   0  0  0  0  0  0  0  0  0  0  0  0
   -4.3710   14.7210   -1.6010 C   0  0  0  0  0  0  0  0  0  0  0  0
   -2.9620   14.8700    0.4000 C   0  0  0  0  0  0  0  0  0  0  0  0
   -3.1350   14.7440   -1.0440 C   0  0  0  0  0  0  0  0  0  0  0  0
   -1.8650   14.6050   -1.8420 C   0  0  0  0  0  0  0  0  0  0  0  0
   -1.2640   13.2280   -1.5580 C   0  0  0  0  0  0  0  0  0  0  0  0
    0.1300   13.2390   -1.8490 O   0  0  0  0  0  0  0  0  0  0  0  0
    0.7120   12.1500   -2.8780 S   0  0  0  0  0  0  0  0  0  0  0  0
    0.0580   12.5410   -4.5050 C   0  0  0  0  0  0  0  0  0  0  0  0
    2.2990   12.2770   -3.0290 O   0  0  0  0  0  0  0  0  0  0  0  0
    0.2770   10.6460   -2.4710 O   0  0  0  0  0  0  0  0  0  0  0  0
   -1.3500   12.0050   -4.7320 C   0  0  0  0  0  0  0  0  0  0  0  0
   -1.4030   10.5480   -4.9410 N   0  0  0  0  0  0  0  0  0  0  0  0
   -1.4440   10.0370   -6.3240 C   0  0  0  0  0  0  0  0  0  0  0  0
   -0.1970    9.2360   -6.6910 C   0  0  0  0  0  0  0  0  0  0  0  0
   -1.5890   11.1940   -7.3270 C   0  0  0  0  0  0  0  0  0  0  0  0
   -0.3480    8.4880   -7.9990 C   0  0  0  0  0  0  0  0  0  0  0  0
   -1.0980   10.7990   -8.7250 C   0  0  0  0  0  0  0  0  0  0  0  0
   -1.1870    9.2920   -8.9850 C   0  0  0  0  0  0  0  0  0  0  0  0
  1  2  1  0
  2  3  2  0
  2  4  1  0
  3  5  1  0
  4  6  1  0
  5  6  2  0
  4  7  1  0
  6  8  1  0
  7  9  2  0
  8 10  2  0
  9 10  1  0
 10 11  1  0
 11 12  1  0
 12 13  1  0
 14 13  1  0
 14 15  1  0
 14 16  1  0
 14 17  1  0
 15 18  1  0
 18 19  1  0
 19 20  1  0
 20 21  1  0
 20 22  1  0
 21 23  1  0
 22 24  1  0
 23 25  1  0
 24 25  1  0
M  END
