diamond-x0950_1_A-mac-x0188
     RDKit          3D

 19 21  0  0  0  0  0  0  0  0999 V2000
    1.2530   13.8170   -5.0330 C   0  0  0  0  0  0  0  0  0  0  0  0
    1.4030   12.3930   -4.5080 C   0  0  2  0  0  0  0  0  0  0  0  0
    0.7850   11.5260   -5.4520 O   0  0  0  0  0  0  0  0  0  0  0  0
    0.0040   14.4940   -4.5420 C   0  0  1  0  0  0  0  0  0  0  0  0
    0.9850   12.1060   -3.0310 C   0  0  0  0  0  0  0  0  0  0  0  0
   -1.0280   14.5450   -5.5000 O   0  0  0  0  0  0  0  0  0  0  0  0
   -0.6260   13.7740   -3.4100 C   0  0  1  0  0  0  0  0  0  0  0  0
    0.5140   11.0200   -2.6930 O   0  0  0  0  0  0  0  0  0  0  0  0
    1.1400   13.0850   -2.0940 O   0  0  0  0  0  0  0  0  0  0  0  0
    0.2340   14.0780   -2.2210 C   0  0  0  0  0  0  0  0  0  0  0  0
   -2.1230   15.0750   -4.7060 N   0  0  0  0  0  0  0  0  0  0  0  0
   -2.0890   14.2130   -3.5230 C   0  0  2  0  0  0  0  0  0  0  0  0
    0.1940   15.0500   -1.4820 O   0  0  0  0  0  0  0  0  0  0  0  0
   -2.8920   14.6920   -2.3340 C   0  0  0  0  0  0  0  0  0  0  0  0
   -4.1800   15.1790   -2.5900 C   0  0  0  0  0  0  0  0  0  0  0  0
   -2.4490   14.6720   -1.0020 C   0  0  0  0  0  0  0  0  0  0  0  0
   -4.9990   15.6310   -1.5640 C   0  0  0  0  0  0  0  0  0  0  0  0
   -3.2730   15.1260    0.0290 C   0  0  0  0  0  0  0  0  0  0  0  0
   -4.5430   15.6030   -0.2540 C   0  0  0  0  0  0  0  0  0  0  0  0
  1  2  1  0
  2  3  1  6
  4  1  1  6
  2  5  1  0
  4  6  1  0
  4  7  1  0
  5  8  2  0
  5  9  1  0
  7 10  1  1
  9 10  1  0
  6 11  1  0
  7 12  1  0
 11 12  1  0
 10 13  2  0
 12 14  1  1
 14 15  2  0
 14 16  1  0
 15 17  1  0
 16 18  2  0
 17 19  2  0
 18 19  1  0
M  END
