diamond-x0421_0_A-diamond-x0837_0_A
     RDKit          3D

 12 13  0  0  0  0  0  0  0  0999 V2000
   -3.9570   15.1350   -2.8300 N   0  0  0  0  0  0  0  0  0  0  0  0
   -3.1130   14.9470   -1.7780 C   0  0  0  0  0  0  0  0  0  0  0  0
   -1.9140   14.8160   -1.9920 O   0  0  0  0  0  0  0  0  0  0  0  0
   -3.7180   14.9090   -0.4760 C   0  0  0  0  0  0  0  0  0  0  0  0
   -3.1020   15.0080    0.7920 C   0  0  0  0  0  0  0  0  0  0  0  0
   -5.0520   14.7590   -0.2070 N   0  0  0  0  0  0  0  0  0  0  0  0
   -6.1140   14.6200   -0.8670 O   0  0  0  0  0  0  0  0  0  0  0  0
   -4.0140   14.9220    1.8400 N   0  0  0  0  0  0  0  0  0  0  0  0
   -5.2110   14.7670    1.2360 C   0  0  0  0  0  0  0  0  0  0  0  0
   -6.5670   14.6130    1.9590 C   0  0  0  0  0  0  0  0  0  0  0  0
   -7.8530   14.6780    1.1790 C   0  0  0  0  0  0  0  0  0  0  0  0
   -7.3690   13.3640    1.7240 C   0  0  0  0  0  0  0  0  0  0  0  0
  1  2  1  0
  2  3  2  0
  2  4  1  0
  4  5  2  0
  4  6  1  0
  6  7  1  0
  5  8  1  0
  6  9  2  0
  8  9  1  0
  9 10  1  0
 10 11  1  0
 10 12  1  0
 11 12  1  0
M  CHG  2   6   1   7  -1
M  END
