diamond-x1015_0_A-mac-x0124
     RDKit          3D

 25 28  0  0  0  0  0  0  0  0999 V2000
    0.0540   14.0770   -5.4080 C   0  0  0  0  0  0  0  0  0  0  0  0
    0.7640   13.3950   -4.2480 C   0  0  2  0  0  0  0  0  0  0  0  0
    0.4370   11.9730   -4.1330 N   0  0  0  0  0  0  0  0  0  0  0  0
   -0.0220   13.7730   -3.0680 C   0  0  0  0  0  0  0  0  0  0  0  0
   -0.7760   14.8000   -3.0150 N   0  0  0  0  0  0  0  0  0  0  0  0
    0.3280   11.6490   -2.7680 C   0  0  0  0  0  0  0  0  0  0  0  0
    0.1560   12.8310   -2.1150 N   0  0  0  0  0  0  0  0  0  0  0  0
   -0.1810   11.2520   -5.1830 C   0  0  0  0  0  0  0  0  0  0  0  0
    0.3700   10.5460   -2.2210 O   0  0  0  0  0  0  0  0  0  0  0  0
    0.2580   11.4220   -6.5050 C   0  0  0  0  0  0  0  0  0  0  0  0
   -1.2330   10.3510   -4.9530 C   0  0  0  0  0  0  0  0  0  0  0  0
   -1.5490   15.0010   -1.9590 N   0  0  0  0  0  0  0  0  0  0  0  0
   -0.3310   10.7160   -7.5580 C   0  0  0  0  0  0  0  0  0  0  0  0
   -1.8240    9.6400   -6.0060 C   0  0  0  0  0  0  0  0  0  0  0  0
   -2.8810   15.3010   -2.2050 C   0  0  0  0  0  0  0  0  0  0  0  0
   -1.5040   13.9590   -0.9200 C   0  0  2  0  0  0  0  0  0  0  0  0
   -1.3660    9.8270   -7.3030 C   0  0  0  0  0  0  0  0  0  0  0  0
   -3.6980   14.8300   -1.2770 C   0  0  0  0  0  0  0  0  0  0  0  0
   -2.8910   14.0810   -0.2500 C   0  0  2  0  0  0  0  0  0  0  0  0
   -0.3580   13.8990   -0.0020 N   0  0  0  0  0  0  0  0  0  0  0  0
   -2.0780    8.9520   -8.6020 Cl  0  0  0  0  0  0  0  0  0  0  0  0
   -2.7320   14.6040    1.1600 C   0  0  2  0  0  0  0  0  0  0  0  0
   -0.3070   14.9770    0.9510 C   0  0  0  0  0  0  0  0  0  0  0  0
   -3.8890   15.3450    1.6150 N   0  0  0  0  0  0  0  0  0  0  0  0
   -1.6020   15.4420    1.3910 N   0  0  0  0  0  0  0  0  0  0  0  0
  2  1  1  6
  2  3  1  0
  2  4  1  0
  4  5  2  3
  3  6  1  0
  4  7  1  0
  6  7  1  0
  3  8  1  0
  6  9  2  0
  8 10  2  0
  8 11  1  0
  5 12  1  0
 10 13  1  0
 11 14  2  0
 12 15  1  0
 12 16  1  0
 13 17  2  0
 14 17  1  0
 15 18  2  0
 16 19  1  0
 19 18  1  6
 16 20  1  1
 17 21  1  0
 19 22  1  0
 20 23  1  0
 22 24  1  6
 22 25  1  0
 23 25  1  0
M  END
