diamond-x0685_1_A-diamond-x0962_0_A
     RDKit          3D

 22 23  0  0  0  0  0  0  0  0999 V2000
   -1.4840   10.5400   -4.8800 N   0  0  0  0  0  0  0  0  0  0  0  0
   -1.4940   11.9380   -4.4140 C   0  0  0  0  0  0  0  0  0  0  0  0
   -0.0940   12.5040   -4.2140 C   0  0  0  0  0  0  0  0  0  0  0  0
   -0.8010   10.3600   -6.1760 C   0  0  0  0  0  0  0  0  0  0  0  0
   -0.5850    8.8590   -6.4270 C   0  0  0  0  0  0  0  0  0  0  0  0
   -1.5820   11.0000   -7.3460 C   0  0  0  0  0  0  0  0  0  0  0  0
    0.7590   11.9640   -2.7320 S   0  0  0  0  0  0  0  0  0  0  0  0
    0.0520    8.5900   -7.7860 C   0  0  0  0  0  0  0  0  0  0  0  0
   -1.0000   10.7020   -8.7310 C   0  0  0  0  0  0  0  0  0  0  0  0
    2.3160   12.1970   -3.0320 O   0  0  0  0  0  0  0  0  0  0  0  0
    0.4220   10.3980   -2.5570 O   0  0  0  0  0  0  0  0  0  0  0  0
    0.2630   12.7530   -1.4280 O   0  0  0  0  0  0  0  0  0  0  0  0
   -0.7430    9.2130   -8.9340 C   0  0  0  0  0  0  0  0  0  0  0  0
    0.4120   14.1640   -1.4380 C   0  0  0  0  0  0  0  0  0  0  0  0
   -0.5480   14.7380   -2.4750 C   0  0  0  0  0  0  0  0  0  0  0  0
   -1.8870   14.7940   -1.8900 C   0  0  0  0  0  0  0  0  0  0  0  0
   -2.8800   14.8640   -1.2470 C   0  0  0  0  0  0  0  0  0  0  0  0
   -3.8990   14.9630   -0.2960 C   0  0  0  0  0  0  0  0  0  0  0  0
   -3.6590   15.3410    0.9860 N   0  0  0  0  0  0  0  0  0  0  0  0
   -5.2440   14.7370   -0.3730 C   0  0  0  0  0  0  0  0  0  0  0  0
   -4.8490   15.3300    1.6390 C   0  0  0  0  0  0  0  0  0  0  0  0
   -5.8320   14.9640    0.8430 N   0  0  0  0  0  0  0  0  0  0  0  0
  1  2  1  0
  2  3  1  0
  1  4  1  0
  4  5  1  0
  4  6  1  0
  3  7  1  0
  5  8  1  0
  6  9  1  0
  7 10  1  0
  7 11  1  0
  7 12  1  0
  8 13  1  0
  9 13  1  0
 12 14  1  0
 14 15  1  0
 15 16  1  0
 16 17  3  0
 17 18  1  0
 18 19  1  0
 18 20  2  0
 19 21  1  0
 20 22  1  0
 21 22  2  0
M  END
