diamond-x0438_0_A-mac-x0206
     RDKit          3D

 18 19  0  0  0  0  0  0  0  0999 V2000
   -8.0720   15.3630    3.7180 C   0  0  0  0  0  0  0  0  0  0  0  0
   -9.1600   15.1370    2.3190 S   0  0  0  0  0  0  0  0  0  0  0  0
  -10.3460   14.4610    2.8230 O   0  0  0  0  0  0  0  0  0  0  0  0
   -8.3300   14.0240    1.1920 C   0  0  0  0  0  0  0  0  0  0  0  0
   -9.3350   16.4070    1.6440 O   0  0  0  0  0  0  0  0  0  0  0  0
   -6.9510   14.4690    0.7800 C   0  0  0  0  0  0  0  0  0  0  0  0
   -6.5150   14.8560   -0.6740 C   0  0  1  0  0  0  0  0  0  0  0  0
   -5.9860   14.5720    1.6540 N   0  0  0  0  0  0  0  0  0  0  0  0
   -5.8170   13.8300   -1.5570 C   0  0  0  0  0  0  0  0  0  0  0  0
   -7.2130   15.8720   -1.3360 O   0  0  0  0  0  0  0  0  0  0  0  0
   -4.8690   15.0400    0.9320 C   0  0  0  0  0  0  0  0  0  0  0  0
   -5.1480   15.2450   -0.3970 C   0  0  0  0  0  0  0  0  0  0  0  0
   -4.6240   13.3370   -1.0600 N   0  0  0  0  0  0  0  0  0  0  0  0
   -6.2010   13.5030   -2.6560 O   0  0  0  0  0  0  0  0  0  0  0  0
   -4.2370   15.6990   -1.3130 C   0  0  0  0  0  0  0  0  0  0  0  0
   -3.6020   15.2900    1.3980 C   0  0  0  0  0  0  0  0  0  0  0  0
   -2.9640   15.9500   -0.8630 C   0  0  0  0  0  0  0  0  0  0  0  0
   -2.6440   15.7480    0.4830 C   0  0  0  0  0  0  0  0  0  0  0  0
  2  1  1  0
  2  3  2  0
  2  4  1  0
  2  5  2  0
  4  6  1  0
  6  7  1  0
  6  8  2  0
  7  9  1  0
  7 10  1  6
  8 11  1  0
  7 12  1  0
 11 12  2  0
  9 13  1  0
  9 14  2  0
 12 15  1  0
 11 16  1  0
 15 17  2  0
 16 18  2  0
 17 18  1  0
M  END
