diamond-x1018_0_A-diamond-x0962_0_A
     RDKit          3D

 12 13  0  0  0  0  0  0  0  0999 V2000
   -8.0490   14.6090    1.2030 Cl  0  0  0  0  0  0  0  0  0  0  0  0
   -6.5510   14.7120    0.3430 C   0  0  0  0  0  0  0  0  0  0  0  0
   -5.2580   14.8390    1.0880 C   0  0  0  0  0  0  0  0  0  0  0  0
   -6.6640   14.6610   -0.9490 N   0  0  0  0  0  0  0  0  0  0  0  0
   -5.4680   14.7230   -1.5680 N   0  0  0  0  0  0  0  0  0  0  0  0
   -4.1430   14.8730    0.3280 C   0  0  0  0  0  0  0  0  0  0  0  0
   -2.7930   14.9660    0.6720 C   0  0  0  0  0  0  0  0  0  0  0  0
   -5.3080   14.6940   -2.8940 N   0  0  0  0  0  0  0  0  0  0  0  0
   -4.2400   14.8200   -1.0160 C   0  0  0  0  0  0  0  0  0  0  0  0
   -1.6490   15.0060    0.7400 N   0  0  0  0  0  0  0  0  0  0  0  0
   -3.3180   14.8520   -1.9320 N   0  0  0  0  0  0  0  0  0  0  0  0
   -3.9980   14.7720   -3.1060 N   0  0  0  0  0  0  0  0  0  0  0  0
  1  2  1  0
  2  3  1  0
  2  4  2  0
  4  5  1  0
  3  6  2  0
  6  7  1  0
  5  8  1  0
  5  9  1  0
  6  9  1  0
  7 10  3  0
  9 11  2  0
  8 12  2  0
 11 12  1  0
M  END
