diamond-x1012_0_A-diamond-x0587_0_A
     RDKit          3D

 27 28  0  0  0  0  0  0  0  0999 V2000
   -0.4470   18.0340   -4.7920 N   0  0  0  0  0  0  0  0  0  0  0  0
   -1.3140   16.9960   -4.8080 C   0  0  0  0  0  0  0  0  0  0  0  0
   -2.5900   17.0360   -4.8190 N   0  0  0  0  0  0  0  0  0  0  0  0
   -0.6150   15.8060   -4.8050 N   0  0  0  0  0  0  0  0  0  0  0  0
   -3.3120   15.7410   -4.8710 C   0  0  0  0  0  0  0  0  0  0  0  0
   -1.2460   14.5040   -5.0850 C   0  0  0  0  0  0  0  0  0  0  0  0
    0.8440   15.7540   -4.6870 C   0  0  0  0  0  0  0  0  0  0  0  0
   -3.3970   15.1010   -3.4700 C   0  0  0  0  0  0  0  0  0  0  0  0
   -1.0880   13.5570   -3.9130 C   0  0  0  0  0  0  0  0  0  0  0  0
    1.2940   14.6630   -3.7350 C   0  0  0  0  0  0  0  0  0  0  0  0
   -4.5680   15.3120   -2.6740 O   0  0  0  0  0  0  0  0  0  0  0  0
    0.1600   13.8480   -3.0800 C   0  0  0  0  0  0  0  0  0  0  0  0
    0.7620   12.5700   -2.5540 C   0  0  0  0  0  0  0  0  0  0  0  0
   -4.4400   14.5070   -1.4890 C   0  0  0  0  0  0  0  0  0  0  0  0
    0.0620   11.4320   -2.7630 O   0  0  0  0  0  0  0  0  0  0  0  0
    1.8180   12.5610   -1.9650 O   0  0  0  0  0  0  0  0  0  0  0  0
   -3.2050   14.7740   -0.9640 F   0  0  0  0  0  0  0  0  0  0  0  0
   -4.3380   13.2250   -1.9490 F   0  0  0  0  0  0  0  0  0  0  0  0
   -5.5330   14.6040   -0.4160 C   0  0  0  0  0  0  0  0  0  0  0  0
   -6.8420   14.3940   -0.7260 N   0  0  0  0  0  0  0  0  0  0  0  0
   -5.0910   14.8920    0.8260 N   0  0  0  0  0  0  0  0  0  0  0  0
   -7.7290   14.4840    0.3010 C   0  0  0  0  0  0  0  0  0  0  0  0
   -6.0200   14.9680    1.7950 C   0  0  0  0  0  0  0  0  0  0  0  0
   -7.3550   14.7710    1.5950 C   0  0  0  0  0  0  0  0  0  0  0  0
   -8.2540   14.8890    2.7440 C   0  0  0  0  0  0  0  0  0  0  0  0
   -7.6570   14.7620    3.9620 N   0  0  0  0  0  0  0  0  0  0  0  0
   -9.4510   15.0980    2.6160 O   0  0  0  0  0  0  0  0  0  0  0  0
  1  2  1  0
  2  3  2  3
  2  4  1  0
  3  5  1  0
  4  6  1  0
  4  7  1  0
  5  8  1  0
  6  9  1  0
  7 10  1  0
  8 11  1  0
  9 12  1  0
 10 12  1  0
 12 13  1  0
 11 14  1  0
 13 15  1  0
 13 16  2  0
 14 17  1  0
 14 18  1  0
 14 19  1  0
 19 20  2  0
 19 21  1  0
 20 22  1  0
 21 23  2  0
 22 24  2  0
 23 24  1  0
 24 25  1  0
 25 26  1  0
 25 27  2  0
M  END
