diamond-x0685_1_A-diamond-x0950_1_A
     RDKit          3D

 15 15  0  0  0  0  0  0  0  0999 V2000
   -1.5880   10.7900   -5.0050 N   0  0  0  0  0  0  0  0  0  0  0  0
   -1.3200   12.1430   -4.4900 C   0  0  0  0  0  0  0  0  0  0  0  0
    0.1690   12.5610   -4.3190 C   0  0  2  0  0  0  0  0  0  0  0  0
   -0.9820   10.3630   -6.2750 C   0  0  0  0  0  0  0  0  0  0  0  0
   -0.6790    8.8630   -6.4310 C   0  0  0  0  0  0  0  0  0  0  0  0
   -1.7360   10.9330   -7.4840 C   0  0  0  0  0  0  0  0  0  0  0  0
    0.7420   12.0330   -2.6390 S   0  0  0  0  0  0  0  0  0  0  0  0
    0.4830   14.0430   -4.5290 C   0  0  0  0  0  0  0  0  0  0  0  0
    0.9720   11.8490   -5.2600 O   0  0  0  0  0  0  0  0  0  0  0  0
    0.0640    8.5960   -7.7390 C   0  0  0  0  0  0  0  0  0  0  0  0
   -1.0180   10.6210   -8.7930 C   0  0  0  0  0  0  0  0  0  0  0  0
    2.3060   12.3670   -2.6770 O   0  0  0  0  0  0  0  0  0  0  0  0
    0.4750   10.4480   -2.5300 O   0  0  0  0  0  0  0  0  0  0  0  0
    0.0390   12.7900   -1.4160 O   0  0  0  0  0  0  0  0  0  0  0  0
   -0.7180    9.1280   -8.9370 C   0  0  0  0  0  0  0  0  0  0  0  0
  1  2  1  0
  2  3  1  0
  1  4  1  0
  4  5  1  0
  4  6  1  0
  3  7  1  0
  3  8  1  1
  3  9  1  0
  5 10  1  0
  6 11  1  0
  7 12  1  0
  7 13  1  0
  7 14  1  0
 10 15  1  0
 11 15  1  0
M  END
