diamond-x0766_0_A-mac-x0348
     RDKit          3D

 25 28  0  0  0  0  0  0  0  0999 V2000
    0.6310   12.6610   -2.5830 C   0  0  0  0  0  0  0  0  0  0  0  0
   -0.0510   12.4580   -1.3470 O   0  0  0  0  0  0  0  0  0  0  0  0
    1.5020   11.6090   -2.7120 O   0  0  0  0  0  0  0  0  0  0  0  0
    1.3660   14.0080   -2.6200 C   0  0  0  0  0  0  0  0  0  0  0  0
   -0.3650   12.5360   -3.7180 C   0  0  2  0  0  0  0  0  0  0  0  0
    0.3910   15.1860   -2.4370 C   0  0  0  0  0  0  0  0  0  0  0  0
    0.3880   12.5150   -5.0540 C   0  0  0  0  0  0  0  0  0  0  0  0
   -1.3240   13.7000   -3.9180 C   0  0  2  0  0  0  0  0  0  0  0  0
    0.7240   13.9710   -5.2750 C   0  0  0  0  0  0  0  0  0  0  0  0
   -0.4710   14.7220   -4.7000 C   0  0  0  0  0  0  0  0  0  0  0  0
   -2.1120   14.1740   -2.6960 C   0  0  0  0  0  0  0  0  0  0  0  0
    0.0690   16.0780   -3.6310 C   0  0  0  0  0  0  0  0  0  0  0  0
   -3.4630   14.5090   -2.6530 C   0  0  0  0  0  0  0  0  0  0  0  0
   -1.5500   14.3510   -1.3690 C   0  0  0  0  0  0  0  0  0  0  0  0
    0.8540   17.0350   -4.2320 C   0  0  0  0  0  0  0  0  0  0  0  0
   -1.1680   16.0890   -4.3500 C   0  0  0  0  0  0  0  0  0  0  0  0
   -2.4640   14.7880   -0.4400 C   0  0  0  0  0  0  0  0  0  0  0  0
   -4.0090   15.0090   -1.1140 S   0  0  0  0  0  0  0  0  0  0  0  0
    0.1550   17.6070   -5.2680 N   0  0  0  0  0  0  0  0  0  0  0  0
   -1.0960   17.0520   -5.3530 C   0  0  0  0  0  0  0  0  0  0  0  0
   -2.3490   15.3440   -4.2060 C   0  0  0  0  0  0  0  0  0  0  0  0
    0.6720   18.6430   -6.1270 C   0  0  0  0  0  0  0  0  0  0  0  0
   -3.4110   15.5630   -5.0450 C   0  0  0  0  0  0  0  0  0  0  0  0
   -2.1780   17.2920   -6.2090 C   0  0  0  0  0  0  0  0  0  0  0  0
   -3.3230   16.5140   -6.0160 C   0  0  0  0  0  0  0  0  0  0  0  0
  1  2  1  0
  1  3  1  0
  1  4  1  0
  5  1  1  1
  4  6  1  0
  5  7  1  0
  5  8  1  0
  7  9  1  0
  8 10  1  0
  9 10  1  0
  8 11  1  1
  6 12  1  0
 11 13  2  0
 11 14  1  0
 12 15  2  0
 12 16  1  0
 14 17  2  0
 13 18  1  0
 17 18  1  0
 15 19  1  0
 16 20  2  0
 19 20  1  0
 16 21  1  0
 19 22  1  0
 21 23  2  0
 20 24  1  0
 23 25  1  0
 24 25  2  0
M  END
