diamond-x0685_0_A-diamond-x0837_0_A
     RDKit          3D

 12 12  0  0  0  0  0  0  0  0999 V2000
   -5.9530   14.6330    2.6670 N   0  0  0  0  0  0  0  0  0  0  0  0
   -7.3610   14.8690    2.9590 C   0  0  0  0  0  0  0  0  0  0  0  0
   -8.0900   13.5550    3.1610 C   0  0  0  0  0  0  0  0  0  0  0  0
   -5.3440   14.7890    1.4150 C   0  0  0  0  0  0  0  0  0  0  0  0
   -3.9560   14.9120    1.2970 C   0  0  0  0  0  0  0  0  0  0  0  0
   -6.1560   14.8130    0.2580 N   0  0  0  0  0  0  0  0  0  0  0  0
   -7.4320   14.6990    0.3470 O   0  0  0  0  0  0  0  0  0  0  0  0
   -3.3780   15.0550    0.0470 C   0  0  0  0  0  0  0  0  0  0  0  0
   -5.5620   14.9570   -0.9760 C   0  0  0  0  0  0  0  0  0  0  0  0
   -4.1820   15.0760   -1.0930 C   0  0  0  0  0  0  0  0  0  0  0  0
   -3.5980   15.2150   -2.3890 C   0  0  0  0  0  0  0  0  0  0  0  0
   -3.1290   15.3130   -3.4430 N   0  0  0  0  0  0  0  0  0  0  0  0
  1  2  1  0
  2  3  1  0
  1  4  1  0
  4  5  2  0
  4  6  1  0
  6  7  1  0
  5  8  1  0
  6  9  2  0
  8 10  2  0
  9 10  1  0
 10 11  1  0
 11 12  3  0
M  CHG  2   6   1   7  -1
M  END
