diamond-x0685_0_A-mac-x0439
     RDKit          3D

 25 27  0  0  0  0  0  0  0  0999 V2000
   -5.9200   15.1090    2.6840 N   0  0  0  0  0  0  0  0  0  0  0  0
   -7.2730   14.5880    2.8930 C   0  0  0  0  0  0  0  0  0  0  0  0
   -7.3370   13.0720    2.8410 C   0  0  0  0  0  0  0  0  0  0  0  0
   -5.2970   15.0480    1.4480 C   0  0  0  0  0  0  0  0  0  0  0  0
   -3.9110   15.0990    1.3230 C   0  0  0  0  0  0  0  0  0  0  0  0
   -6.1160   14.9530    0.3880 N   0  0  0  0  0  0  0  0  0  0  0  0
   -3.3460   15.0610    0.0540 C   0  0  0  0  0  0  0  0  0  0  0  0
   -5.5440   14.9220   -0.8320 C   0  0  0  0  0  0  0  0  0  0  0  0
   -4.1800   14.9740   -1.0470 C   0  0  0  0  0  0  0  0  0  0  0  0
   -3.6690   14.9350   -2.3710 C   0  0  0  0  0  0  0  0  0  0  0  0
   -3.2870   14.8390   -3.5000 C   0  0  0  0  0  0  0  0  0  0  0  0
   -2.8640   14.6410   -4.8910 C   0  0  0  0  0  0  0  0  0  0  0  0
   -2.9220   15.9380   -5.6940 C   0  0  0  0  0  0  0  0  0  0  0  0
   -1.6910   16.8080   -5.5680 C   0  0  0  0  0  0  0  0  0  0  0  0
   -0.7410   16.6170   -4.4470 C   0  0  1  0  0  0  0  0  0  0  0  0
   -1.3890   17.8040   -6.4260 C   0  0  0  0  0  0  0  0  0  0  0  0
   -0.4540   15.3580   -3.6860 C   0  0  0  0  0  0  0  0  0  0  0  0
    0.6700   16.9750   -4.7580 C   0  0  0  0  0  0  0  0  0  0  0  0
   -0.1680   18.5870   -6.3050 C   0  0  0  0  0  0  0  0  0  0  0  0
    0.8780   15.1970   -3.6130 C   0  0  0  0  0  0  0  0  0  0  0  0
    1.5660   16.1750   -4.2740 N   0  0  0  0  0  0  0  0  0  0  0  0
    0.8690   18.2190   -5.5240 C   0  0  0  0  0  0  0  0  0  0  0  0
    1.5340   14.0760   -2.8770 C   0  0  0  0  0  0  0  0  0  0  0  0
    2.8660   14.2500   -2.6960 O   0  0  0  0  0  0  0  0  0  0  0  0
    0.9780   13.0800   -2.4440 O   0  0  0  0  0  0  0  0  0  0  0  0
  1  2  1  0
  2  3  1  0
  1  4  1  0
  4  5  2  0
  4  6  1  0
  5  7  1  0
  6  8  2  0
  7  9  2  0
  8  9  1  0
  9 10  1  0
 10 11  3  0
 11 12  1  0
 12 13  1  0
 13 14  1  0
 14 15  1  0
 14 16  2  0
 15 17  1  6
 15 18  1  0
 16 19  1  0
 17 20  2  0
 18 21  2  0
 20 21  1  0
 18 22  1  0
 19 22  2  0
 20 23  1  0
 23 24  1  0
 23 25  2  0
M  END
