diamond-x1015_0_A-mac-x0567
     RDKit          3D

 26 29  0  0  0  0  0  0  0  0999 V2000
   -1.2780   14.3130   -4.4410 C   0  0  0  0  0  0  0  0  0  0  0  0
    0.0340   13.5890   -4.1360 C   0  0  2  0  0  0  0  0  0  0  0  0
   -0.1670   12.1410   -4.0280 N   0  0  0  0  0  0  0  0  0  0  0  0
    0.4530   13.8350   -2.7040 C   0  0  0  0  0  0  0  0  0  0  0  0
    0.4640   14.8680   -1.9760 N   0  0  0  0  0  0  0  0  0  0  0  0
    0.3040   11.6420   -2.8000 C   0  0  0  0  0  0  0  0  0  0  0  0
    0.8900   12.6790   -2.1580 N   0  0  0  0  0  0  0  0  0  0  0  0
   -0.5530   11.3540   -5.1270 C   0  0  0  0  0  0  0  0  0  0  0  0
    0.2410   10.5020   -2.3350 O   0  0  0  0  0  0  0  0  0  0  0  0
    0.9470   14.5870   -0.6500 C   0  0  0  0  0  0  0  0  0  0  0  0
    0.0200   11.5580   -6.3900 C   0  0  0  0  0  0  0  0  0  0  0  0
   -1.5140   10.3480   -4.9890 C   0  0  0  0  0  0  0  0  0  0  0  0
    0.0890   13.7800    0.1760 N   0  0  0  0  0  0  0  0  0  0  0  0
   -0.3580   10.7770   -7.4830 C   0  0  0  0  0  0  0  0  0  0  0  0
   -1.8950    9.5650   -6.0780 C   0  0  0  0  0  0  0  0  0  0  0  0
   -1.3170    9.7820   -7.3200 C   0  0  0  0  0  0  0  0  0  0  0  0
   -1.1630   14.2300    0.4660 C   0  0  0  0  0  0  0  0  0  0  0  0
   -1.7890    8.8170   -8.6590 Cl  0  0  0  0  0  0  0  0  0  0  0  0
   -1.6050   14.3630    1.7410 N   0  0  0  0  0  0  0  0  0  0  0  0
   -2.2310   14.6350   -0.2990 C   0  0  0  0  0  0  0  0  0  0  0  0
   -2.8640   14.8180    1.8660 N   0  0  0  0  0  0  0  0  0  0  0  0
   -3.2850   15.0010    0.6140 C   0  0  0  0  0  0  0  0  0  0  0  0
   -2.2990   14.6890   -1.6860 C   0  0  0  0  0  0  0  0  0  0  0  0
   -4.5190   15.4640    0.1430 C   0  0  0  0  0  0  0  0  0  0  0  0
   -3.5510   15.1610   -2.1350 C   0  0  0  0  0  0  0  0  0  0  0  0
   -4.6160   15.5320   -1.2600 C   0  0  0  0  0  0  0  0  0  0  0  0
  2  1  1  1
  2  3  1  0
  2  4  1  0
  4  5  2  3
  3  6  1  0
  4  7  1  0
  6  7  1  0
  3  8  1  0
  6  9  2  0
  5 10  1  0
  8 11  2  0
  8 12  1  0
 10 13  1  0
 11 14  1  0
 12 15  2  0
 14 16  2  0
 15 16  1  0
 13 17  1  0
 16 18  1  0
 17 19  1  0
 17 20  2  0
 19 21  1  0
 20 22  1  0
 21 22  2  0
 20 23  1  0
 22 24  1  0
 23 25  2  0
 24 26  2  0
 25 26  1  0
M  END
