diamond-x0766_0_A-diamond-x0471_0_A
     RDKit          3D

 27 30  0  0  0  0  0  0  0  0999 V2000
    0.3960   12.2420   -2.4510 C   0  0  0  0  0  0  0  0  0  0  0  0
    0.2920   10.9620   -2.8460 O   0  0  0  0  0  0  0  0  0  0  0  0
    0.5630   12.5160   -1.2780 O   0  0  0  0  0  0  0  0  0  0  0  0
    0.2290   13.2590   -3.5520 C   0  0  2  0  0  0  0  0  0  0  0  0
    1.5010   13.4880   -4.3740 C   0  0  0  0  0  0  0  0  0  0  0  0
   -0.0240   14.6040   -2.8540 C   0  0  1  0  0  0  0  0  0  0  0  0
    1.5380   14.9990   -4.6410 C   0  0  0  0  0  0  0  0  0  0  0  0
    0.3870   15.6450   -3.8840 C   0  0  0  0  0  0  0  0  0  0  0  0
   -1.4260   14.7270   -2.3260 C   0  0  0  0  0  0  0  0  0  0  0  0
   -2.4990   14.9700   -3.1410 C   0  0  0  0  0  0  0  0  0  0  0  0
   -1.7340   14.5800   -0.8350 C   0  0  0  0  0  0  0  0  0  0  0  0
   -3.0610   14.6870   -0.5080 C   0  0  0  0  0  0  0  0  0  0  0  0
   -3.8080   14.9480   -2.0190 S   0  0  0  0  0  0  0  0  0  0  0  0
   -5.5460   15.0860   -2.0330 C   0  0  0  0  0  0  0  0  0  0  0  0
   -3.8980   14.6220    0.6800 C   0  0  0  0  0  0  0  0  0  0  0  0
   -5.2800   14.7070    0.5660 C   0  0  0  0  0  0  0  0  0  0  0  0
   -6.0930   14.8970   -0.6840 C   0  0  0  0  0  0  0  0  0  0  0  0
   -7.3570   14.8310   -0.4380 N   0  0  0  0  0  0  0  0  0  0  0  0
   -6.2270   14.6080    1.5590 N   0  0  0  0  0  0  0  0  0  0  0  0
   -7.3830   14.6450    0.9370 C   0  0  0  0  0  0  0  0  0  0  0  0
   -8.7470   14.5140    1.5820 C   0  0  0  0  0  0  0  0  0  0  0  0
   -8.6060   14.3060    3.0110 N   0  0  0  0  0  0  0  0  0  0  0  0
   -9.0650   15.2700    3.8720 C   0  0  0  0  0  0  0  0  0  0  0  0
   -9.3170   16.4080    3.5010 O   0  0  0  0  0  0  0  0  0  0  0  0
   -9.2440   14.8300    5.3210 C   0  0  0  0  0  0  0  0  0  0  0  0
   -9.6800   13.3700    5.4350 C   0  0  0  0  0  0  0  0  0  0  0  0
   -7.9710   15.1000    6.1100 C   0  0  0  0  0  0  0  0  0  0  0  0
  1  2  1  0
  1  3  2  0
  4  1  1  1
  4  5  1  0
  4  6  1  0
  5  7  1  0
  6  8  1  0
  7  8  1  0
  6  9  1  6
  9 10  2  0
  9 11  1  0
 11 12  2  0
 10 13  1  0
 12 13  1  0
 13 14  2  0
 12 15  1  0
 15 16  2  0
 14 17  1  0
 16 17  1  0
 17 18  2  0
 16 19  1  0
 18 20  1  0
 19 20  2  0
 20 21  1  0
 21 22  1  0
 22 23  1  0
 23 24  2  0
 23 25  1  0
 25 26  1  0
 25 27  1  0
M  END
