diamond-x0587_0_A-mac-x0301
     RDKit          3D

 24 26  0  0  0  0  0  0  0  0999 V2000
   -7.7570   14.8610    4.2370 N   0  0  0  0  0  0  0  0  0  0  0  0
   -8.3640   14.9090    3.0200 C   0  0  0  0  0  0  0  0  0  0  0  0
   -9.5750   15.0480    2.9000 O   0  0  0  0  0  0  0  0  0  0  0  0
   -7.4980   14.8090    1.8490 C   0  0  0  0  0  0  0  0  0  0  0  0
   -8.0240   14.5860    0.5980 C   0  0  0  0  0  0  0  0  0  0  0  0
   -6.1350   14.9380    1.9020 C   0  0  0  0  0  0  0  0  0  0  0  0
   -7.2720   14.5040   -0.5160 N   0  0  0  0  0  0  0  0  0  0  0  0
   -5.3410   14.8640    0.8280 N   0  0  0  0  0  0  0  0  0  0  0  0
   -5.9440   14.6530   -0.3540 C   0  0  0  0  0  0  0  0  0  0  0  0
   -5.0700   14.5800   -1.5960 C   0  0  0  0  0  0  0  0  0  0  0  0
   -5.2560   13.3910   -2.2590 F   0  0  0  0  0  0  0  0  0  0  0  0
   -5.3770   15.5200   -2.5290 F   0  0  0  0  0  0  0  0  0  0  0  0
   -3.6260   14.6540   -1.2280 C   0  0  0  0  0  0  0  0  0  0  0  0
   -3.1790   14.7580    0.0970 C   0  0  0  0  0  0  0  0  0  0  0  0
   -2.7310   14.5950   -2.2940 C   0  0  0  0  0  0  0  0  0  0  0  0
   -1.3730   14.6170   -2.0860 C   0  0  0  0  0  0  0  0  0  0  0  0
   -1.8340   14.7780    0.2950 C   0  0  0  0  0  0  0  0  0  0  0  0
   -0.4640   14.5400   -3.2520 C   0  0  0  0  0  0  0  0  0  0  0  0
   -0.9400   14.7040   -0.7700 C   0  0  0  0  0  0  0  0  0  0  0  0
   -1.2290   14.8640    1.5120 O   0  0  0  0  0  0  0  0  0  0  0  0
    0.8220   14.7300   -2.9300 O   0  0  0  0  0  0  0  0  0  0  0  0
   -0.7790   14.3310   -4.4050 O   0  0  0  0  0  0  0  0  0  0  0  0
    0.3210   14.7280   -0.3290 O   0  0  0  0  0  0  0  0  0  0  0  0
    0.1040   14.6020    1.0860 C   0  0  0  0  0  0  0  0  0  0  0  0
  1  2  1  0
  2  3  2  0
  2  4  1  0
  4  5  2  0
  4  6  1  0
  5  7  1  0
  6  8  2  0
  7  9  2  0
  8  9  1  0
  9 10  1  0
 10 11  1  0
 10 12  1  0
 10 13  1  0
 13 14  2  0
 13 15  1  0
 15 16  2  0
 14 17  1  0
 16 18  1  0
 16 19  1  0
 17 19  2  0
 17 20  1  0
 18 21  1  0
 18 22  2  0
 19 23  1  0
 20 24  1  0
 23 24  1  0
M  END
