diamond-x0905_0_A-mac-x0455
     RDKit          3D

 20 21  0  0  0  0  0  0  0  0999 V2000
   -6.9500   15.0340   -1.0590 O   0  0  0  0  0  0  0  0  0  0  0  0
   -5.6770   15.0180   -0.5640 C   0  0  0  0  0  0  0  0  0  0  0  0
   -5.5890   15.2470    0.7450 N   0  0  0  0  0  0  0  0  0  0  0  0
   -4.5830   14.7770   -1.3770 C   0  0  0  0  0  0  0  0  0  0  0  0
   -4.3680   15.2540    1.3000 C   0  0  0  0  0  0  0  0  0  0  0  0
   -3.3200   14.7770   -0.7660 C   0  0  0  0  0  0  0  0  0  0  0  0
   -3.2190   15.0250    0.5900 C   0  0  0  0  0  0  0  0  0  0  0  0
   -2.0580   14.5110   -1.5090 C   0  0  0  0  0  0  0  0  0  0  0  0
   -2.1790   14.6210   -3.0120 C   0  0  0  0  0  0  0  0  0  0  0  0
   -0.8650   14.3080   -3.7440 C   0  0  1  0  0  0  0  0  0  0  0  0
   -0.6450   15.4250   -4.6240 O   0  0  0  0  0  0  0  0  0  0  0  0
    0.2640   14.2860   -2.6690 C   0  0  0  0  0  0  0  0  0  0  0  0
   -0.8680   13.0180   -4.5520 C   0  0  0  0  0  0  0  0  0  0  0  0
    0.9100   15.2230   -2.2460 O   0  0  0  0  0  0  0  0  0  0  0  0
    0.5220   13.0450   -2.1780 O   0  0  0  0  0  0  0  0  0  0  0  0
   -1.9060   12.0750   -4.4210 C   0  0  0  0  0  0  0  0  0  0  0  0
    0.1710   12.7360   -5.4560 C   0  0  0  0  0  0  0  0  0  0  0  0
   -1.9030   10.8950   -5.1690 C   0  0  0  0  0  0  0  0  0  0  0  0
    0.1720   11.5570   -6.2020 C   0  0  0  0  0  0  0  0  0  0  0  0
   -0.8630   10.6380   -6.0570 C   0  0  0  0  0  0  0  0  0  0  0  0
  1  2  1  0
  2  3  2  0
  2  4  1  0
  3  5  1  0
  4  6  2  0
  5  7  2  0
  6  7  1  0
  6  8  1  0
  8  9  1  0
  9 10  1  0
 10 11  1  6
 10 12  1  0
 10 13  1  0
 12 14  2  0
 12 15  1  0
 13 16  2  0
 13 17  1  0
 16 18  1  0
 17 19  2  0
 18 20  2  0
 19 20  1  0
M  END
