diamond-x0910_0_A-mac-x0546
     RDKit          3D

 22 24  0  0  0  0  0  0  0  0999 V2000
   -2.7660   14.3760   -1.6700 N   0  0  0  0  0  0  0  0  0  0  0  0
   -2.1010   14.5380   -0.5140 C   0  0  0  0  0  0  0  0  0  0  0  0
   -2.4430   15.2730    0.5150 N   0  0  0  0  0  0  0  0  0  0  0  0
   -0.9200   13.9300   -0.2180 N   0  0  0  0  0  0  0  0  0  0  0  0
   -0.1290   13.0100   -0.9690 C   0  0  0  0  0  0  0  0  0  0  0  0
   -1.4690   15.1510    1.4700 N   0  0  0  0  0  0  0  0  0  0  0  0
   -0.5640   14.3470    1.0180 C   0  0  0  0  0  0  0  0  0  0  0  0
    0.2440   13.3270   -2.3020 N   0  0  0  0  0  0  0  0  0  0  0  0
    0.4530   12.3410   -3.0910 C   0  0  0  0  0  0  0  0  0  0  0  0
    0.8660   12.6750   -4.4800 C   0  0  0  0  0  0  0  0  0  0  0  0
    0.3340   11.0320   -2.7680 O   0  0  0  0  0  0  0  0  0  0  0  0
    0.8970   14.1450   -4.5250 C   0  0  0  0  0  0  0  0  0  0  0  0
   -0.0490   14.9730   -5.2730 C   0  0  1  0  0  0  0  0  0  0  0  0
    1.7550   14.9570   -3.9070 C   0  0  0  0  0  0  0  0  0  0  0  0
   -1.5260   14.9440   -5.1070 C   0  0  0  0  0  0  0  0  0  0  0  0
    0.4810   16.3150   -4.8670 C   0  0  0  0  0  0  0  0  0  0  0  0
    1.5050   16.2900   -4.1050 N   0  0  0  0  0  0  0  0  0  0  0  0
   -2.2200   16.0940   -5.2500 C   0  0  0  0  0  0  0  0  0  0  0  0
   -0.2060   17.5170   -5.3620 C   0  0  0  0  0  0  0  0  0  0  0  0
   -3.5670   16.2240   -5.1650 O   0  0  0  0  0  0  0  0  0  0  0  0
   -1.5320   17.3550   -5.5330 C   0  0  0  0  0  0  0  0  0  0  0  0
   -4.3530   15.2600   -5.8660 C   0  0  0  0  0  0  0  0  0  0  0  0
  1  2  1  0
  2  3  2  0
  2  4  1  0
  4  5  1  0
  3  6  1  0
  4  7  1  0
  6  7  2  0
  5  8  1  0
  8  9  2  3
  9 10  1  0
  9 11  1  0
 10 12  1  0
 12 13  1  0
 12 14  2  0
 13 15  1  1
 13 16  1  0
 14 17  1  0
 16 17  2  0
 15 18  2  0
 16 19  1  0
 18 20  1  0
 18 21  1  0
 19 21  2  0
 20 22  1  0
M  END
