diamond-x0910_1_A-mac-x0412
     RDKit          3D

 10 11  0  0  0  0  0  0  0  0999 V2000
   -7.7600   14.5040    1.6300 N   0  0  0  0  0  0  0  0  0  0  0  0
   -6.8080   14.6970    0.7290 C   0  0  0  0  0  0  0  0  0  0  0  0
   -7.0050   14.8550   -0.5690 N   0  0  0  0  0  0  0  0  0  0  0  0
   -5.5220   14.7390    1.1500 N   0  0  0  0  0  0  0  0  0  0  0  0
   -5.7450   14.9940   -1.0230 N   0  0  0  0  0  0  0  0  0  0  0  0
   -4.8550   14.9170    0.0450 C   0  0  0  0  0  0  0  0  0  0  0  0
   -3.4670   15.0200   -0.2410 C   0  0  0  0  0  0  0  0  0  0  0  0
   -5.3340   15.1680   -2.3280 C   0  0  0  0  0  0  0  0  0  0  0  0
   -3.0710   15.1630   -1.5200 C   0  0  0  0  0  0  0  0  0  0  0  0
   -4.0270   15.2450   -2.6080 C   0  0  0  0  0  0  0  0  0  0  0  0
  1  2  1  0
  2  3  2  0
  2  4  1  0
  3  5  1  0
  4  6  2  0
  5  6  1  0
  6  7  1  0
  5  8  1  0
  7  9  2  0
  8 10  2  0
  9 10  1  0
M  END
