diamond-x0681_0_A-mac-x0397
     RDKit          3D

 19 21  0  0  0  0  0  0  0  0999 V2000
   -4.5170   13.8660   -3.6240 N   0  0  0  0  0  0  0  0  0  0  0  0
   -3.7560   13.2180   -2.6970 C   0  0  0  0  0  0  0  0  0  0  0  0
   -2.7910   12.5600   -3.0770 O   0  0  0  0  0  0  0  0  0  0  0  0
   -4.1610   13.3820   -1.2220 C   0  0  1  0  0  0  0  0  0  0  0  0
   -4.9920   12.2810   -0.5270 C   0  0  1  0  0  0  0  0  0  0  0  0
   -2.9240   13.9460   -0.4270 C   0  0  2  0  0  0  0  0  0  0  0  0
   -6.2440   12.7010    0.3230 C   0  0  2  0  0  0  0  0  0  0  0  0
   -4.1160   14.2200    0.4650 C   0  0  1  0  0  0  0  0  0  0  0  0
   -5.5630   11.2530   -1.4300 N   0  0  0  0  0  0  0  0  0  0  0  0
   -2.6930   14.7400   -1.6800 C   0  0  0  0  0  0  0  0  0  0  0  0
   -5.8970   13.1130    1.7750 C   0  0  2  0  0  0  0  0  0  0  0  0
   -4.4940   13.6960    1.8140 C   0  0  0  0  0  0  0  0  0  0  0  0
   -7.1090   11.4750    0.1960 C   0  0  0  0  0  0  0  0  0  0  0  0
   -6.6700   10.7160   -0.8080 C   0  0  0  0  0  0  0  0  0  0  0  0
   -3.6340   15.6370   -2.0340 C   0  0  0  0  0  0  0  0  0  0  0  0
   -4.5680   15.6410    0.2880 C   0  0  0  0  0  0  0  0  0  0  0  0
   -6.2020   12.1140    2.7940 N   0  0  0  0  0  0  0  0  0  0  0  0
   -4.8720   15.8700   -1.1780 C   0  0  2  0  0  0  0  0  0  0  0  0
   -6.2990   14.9770   -1.7670 Cl  0  0  0  0  0  0  0  0  0  0  0  0
  1  2  1  0
  2  3  2  0
  4  2  1  6
  4  5  1  0
  4  6  1  0
  5  7  1  0
  6  8  1  0
  5  9  1  6
  6 10  1  6
  7 11  1  0
  8 12  1  1
 11 12  1  0
  7 13  1  1
  9 14  1  0
 13 14  2  0
 10 15  2  0
  8 16  1  0
 11 17  1  1
 15 18  1  0
 16 18  1  0
 18 19  1  6
M  END
