diamond-x0849_0_A-mac-x0385
     RDKit          3D

 12 13  0  0  0  0  0  0  0  0999 V2000
   -3.5030   14.9070   -2.9610 Br  0  0  0  0  0  0  0  0  0  0  0  0
   -3.2620   15.1830   -1.1260 C   0  0  0  0  0  0  0  0  0  0  0  0
   -2.1020   14.9790   -0.4380 C   0  0  0  0  0  0  0  0  0  0  0  0
   -4.4300   15.6690   -0.4070 C   0  0  0  0  0  0  0  0  0  0  0  0
   -2.0720   15.2810    1.0600 C   0  0  1  0  0  0  0  0  0  0  0  0
   -4.4260   15.5360    0.9120 C   0  0  0  0  0  0  0  0  0  0  0  0
   -0.8420   14.5210   -0.9900 C   0  0  0  0  0  0  0  0  0  0  0  0
   -3.3690   14.9630    1.5260 N   0  0  0  0  0  0  0  0  0  0  0  0
   -1.1270   14.5260    1.8500 N   0  0  0  0  0  0  0  0  0  0  0  0
    0.1170   14.0350   -0.2010 C   0  0  0  0  0  0  0  0  0  0  0  0
   -3.3190   13.5650    1.3930 C   0  0  0  0  0  0  0  0  0  0  0  0
   -0.1740   13.9800    1.2410 C   0  0  0  0  0  0  0  0  0  0  0  0
  1  2  1  0
  2  3  2  0
  2  4  1  0
  3  5  1  0
  4  6  2  0
  3  7  1  0
  5  8  1  0
  6  8  1  0
  5  9  1  1
  7 10  2  0
  8 11  1  0
  9 12  2  0
 10 12  1  0
M  END
