diamond-x0905_0_A-mac-x0341
     RDKit          3D

 12 13  0  0  0  0  0  0  0  0999 V2000
   -7.5400   15.2720   -0.6530 O   0  0  0  0  0  0  0  0  0  0  0  0
   -6.2320   15.1630   -0.8180 C   0  0  0  0  0  0  0  0  0  0  0  0
   -5.4150   14.9170    0.2440 N   0  0  0  0  0  0  0  0  0  0  0  0
   -5.4610   15.2520   -1.9460 C   0  0  0  0  0  0  0  0  0  0  0  0
   -5.9900   14.7780    1.5730 N   0  0  0  0  0  0  0  0  0  0  0  0
   -4.1150   15.0510   -1.5710 C   0  0  0  0  0  0  0  0  0  0  0  0
   -4.1000   14.8430   -0.1890 C   0  0  0  0  0  0  0  0  0  0  0  0
   -2.8940   14.6170    0.4660 C   0  0  0  0  0  0  0  0  0  0  0  0
   -2.9060   15.0240   -2.2940 C   0  0  0  0  0  0  0  0  0  0  0  0
   -2.7730   14.3930    1.8750 C   0  0  0  0  0  0  0  0  0  0  0  0
   -1.7180   14.5940   -0.2670 C   0  0  0  0  0  0  0  0  0  0  0  0
   -1.7100   14.7910   -1.6250 C   0  0  0  0  0  0  0  0  0  0  0  0
  1  2  1  0
  2  3  1  0
  2  4  2  0
  3  5  1  0
  4  6  1  0
  3  7  1  0
  6  7  2  0
  7  8  1  0
  6  9  1  0
  8 10  1  0
  8 11  2  0
  9 12  2  0
 11 12  1  0
M  END
