diamond-x0855_0_A-mac-x0338
     RDKit          3D

 22 23  0  0  0  0  0  0  0  0999 V2000
    2.1260   12.4910   -2.6540 O   0  0  0  0  0  0  0  0  0  0  0  0
    0.8230   12.1360   -3.0520 C   0  0  0  0  0  0  0  0  0  0  0  0
    0.5550   12.4820   -4.5420 C   0  0  0  0  0  0  0  0  0  0  0  0
    0.6480   10.7550   -2.8180 O   0  0  0  0  0  0  0  0  0  0  0  0
   -0.1260   12.9030   -2.1150 C   0  0  0  0  0  0  0  0  0  0  0  0
   -1.4090   13.3960   -2.7890 C   0  0  0  0  0  0  0  0  0  0  0  0
   -0.4630   11.6240   -5.1120 N   0  0  0  0  0  0  0  0  0  0  0  0
   -1.7690   14.7970   -2.3380 C   0  0  0  0  0  0  0  0  0  0  0  0
   -0.3140   10.7260   -6.1290 C   0  0  0  0  0  0  0  0  0  0  0  0
   -1.7180   11.6650   -4.6200 N   0  0  0  0  0  0  0  0  0  0  0  0
   -1.5460   10.1520   -6.2850 C   0  0  0  0  0  0  0  0  0  0  0  0
   -2.3770   10.7610   -5.3420 C   0  0  0  0  0  0  0  0  0  0  0  0
   -3.1960   14.9240   -1.9090 C   0  0  0  0  0  0  0  0  0  0  0  0
   -2.0610    8.8270   -7.4860 Br  0  0  0  0  0  0  0  0  0  0  0  0
   -3.4720   14.9560   -0.5840 N   0  0  0  0  0  0  0  0  0  0  0  0
   -4.1910   15.0030   -2.8670 C   0  0  0  0  0  0  0  0  0  0  0  0
   -4.7960   15.0700   -0.2870 C   0  0  0  0  0  0  0  0  0  0  0  0
   -5.5010   15.1140   -2.5660 N   0  0  0  0  0  0  0  0  0  0  0  0
   -5.1740   15.1040    1.1330 C   0  0  0  0  0  0  0  0  0  0  0  0
   -5.7810   15.1490   -1.2460 C   0  0  0  0  0  0  0  0  0  0  0  0
   -4.1530   15.3210    1.9960 N   0  0  0  0  0  0  0  0  0  0  0  0
   -6.3320   14.9360    1.4980 O   0  0  0  0  0  0  0  0  0  0  0  0
  2  1  1  0
  2  3  1  0
  2  4  1  0
  2  5  1  0
  5  6  1  0
  3  7  1  0
  6  8  1  0
  7  9  1  0
  7 10  1  0
  9 11  2  0
 10 12  2  0
 11 12  1  0
  8 13  1  0
 11 14  1  0
 13 15  2  0
 13 16  1  0
 15 17  1  0
 16 18  2  0
 17 19  1  0
 17 20  2  0
 18 20  1  0
 19 21  1  0
 19 22  2  0
M  END
