diamond-x0676_0_B-diamond-x0465_0_A
     RDKit          3D

 28 30  0  0  0  0  0  0  0  0999 V2000
    5.8180    6.6500   -9.1620 C   0  0  0  0  0  0  0  0  0  0  0  0
    4.7640    7.1930  -10.0630 C   0  0  0  0  0  0  0  0  0  0  0  0
    5.0000    7.7100  -11.2350 N   0  0  0  0  0  0  0  0  0  0  0  0
    3.3170    7.1880   -9.6820 C   0  0  0  0  0  0  0  0  0  0  0  0
    2.7610    8.0720  -10.7690 C   0  0  0  0  0  0  0  0  0  0  0  0
    3.7590    8.1400  -11.7300 N   0  0  0  0  0  0  0  0  0  0  0  0
    1.5860    8.5500  -10.6110 N   0  0  0  0  0  0  0  0  0  0  0  0
    3.8550    9.1910  -12.6950 C   0  0  0  0  0  0  0  0  0  0  0  0
    0.8380    8.2310   -9.3980 C   0  0  0  0  0  0  0  0  0  0  0  0
    2.9490   10.2700  -12.7280 C   0  0  0  0  0  0  0  0  0  0  0  0
    4.8750    9.1780  -13.6530 C   0  0  0  0  0  0  0  0  0  0  0  0
    0.6460    9.5140   -8.5820 C   0  0  0  0  0  0  0  0  0  0  0  0
    3.0660   11.2950  -13.6750 C   0  0  0  0  0  0  0  0  0  0  0  0
    4.9960   10.1990  -14.6030 C   0  0  0  0  0  0  0  0  0  0  0  0
    0.4930    9.2190   -7.1980 O   0  0  0  0  0  0  0  0  0  0  0  0
    4.0870   11.2570  -14.6150 C   0  0  0  0  0  0  0  0  0  0  0  0
   -0.6280    9.6280   -6.5370 C   0  0  0  0  0  0  0  0  0  0  0  0
   -0.4960   10.7520   -5.7000 C   0  0  0  0  0  0  0  0  0  0  0  0
   -1.8690    9.0000   -6.6420 C   0  0  0  0  0  0  0  0  0  0  0  0
    0.6880   11.4360   -5.5330 O   0  0  0  0  0  0  0  0  0  0  0  0
   -2.9690    9.4820   -5.9320 C   0  0  0  0  0  0  0  0  0  0  0  0
   -1.6000   11.2310   -4.9900 C   0  0  0  0  0  0  0  0  0  0  0  0
    0.7310   12.5590   -4.6500 C   0  0  2  0  0  0  0  0  0  0  0  0
   -2.8360   10.5950   -5.1050 C   0  0  0  0  0  0  0  0  0  0  0  0
    2.0570   13.2520   -4.9310 C   0  0  0  0  0  0  0  0  0  0  0  0
    0.7330   12.1510   -3.1780 C   0  0  0  0  0  0  0  0  0  0  0  0
    1.0910   12.8100   -2.2170 O   0  0  0  0  0  0  0  0  0  0  0  0
    0.2740   10.8960   -2.9830 O   0  0  0  0  0  0  0  0  0  0  0  0
  1  2  1  0
  2  3  2  0
  2  4  1  0
  4  5  1  0
  3  6  1  0
  5  6  1  0
  5  7  2  3
  6  8  1  0
  7  9  1  0
  8 10  2  0
  8 11  1  0
  9 12  1  0
 10 13  1  0
 11 14  2  0
 12 15  1  0
 13 16  2  0
 14 16  1  0
 15 17  1  0
 17 18  2  0
 17 19  1  0
 18 20  1  0
 19 21  2  0
 18 22  1  0
 20 23  1  0
 21 24  1  0
 22 24  2  0
 23 25  1  6
 23 26  1  0
 26 27  2  0
 26 28  1  0
M  END
