diamond-x0905_0_A-mac-x0212
     RDKit          3D

 13 13  0  0  0  0  0  0  0  0999 V2000
   -6.8580   15.0680   -0.6630 N   0  0  0  0  0  0  0  0  0  0  0  0
   -7.5470   14.3950    0.5480 S   0  0  0  0  0  0  0  0  0  0  0  0
   -6.5850   12.9910    1.0720 C   0  0  0  0  0  0  0  0  0  0  0  0
   -5.4210   15.0370   -0.5820 C   0  0  0  0  0  0  0  0  0  0  0  0
   -8.0070   15.0680    1.7490 O   0  0  0  0  0  0  0  0  0  0  0  0
   -4.9550   15.1940    0.6650 N   0  0  0  0  0  0  0  0  0  0  0  0
   -4.6220   14.8560   -1.7060 C   0  0  0  0  0  0  0  0  0  0  0  0
   -3.6310   15.1620    0.8360 C   0  0  0  0  0  0  0  0  0  0  0  0
   -3.2310   14.8230   -1.4990 C   0  0  0  0  0  0  0  0  0  0  0  0
   -2.2770   14.6100   -2.6470 C   0  0  0  0  0  0  0  0  0  0  0  0
   -2.7330   14.9800   -0.1960 C   0  0  0  0  0  0  0  0  0  0  0  0
   -1.1360   14.1980   -2.4940 O   0  0  0  0  0  0  0  0  0  0  0  0
   -2.7800   14.9030   -3.8660 O   0  0  0  0  0  0  0  0  0  0  0  0
  1  2  2  0
  2  3  1  0
  1  4  1  0
  2  5  2  0
  4  6  2  0
  4  7  1  0
  6  8  1  0
  7  9  2  0
  9 10  1  0
  8 11  2  0
  9 11  1  0
 10 12  2  0
 10 13  1  0
M  END
