diamond-x0471_0_A-mac-x0394
     RDKit          3D

 30 32  0  0  0  0  0  0  0  0999 V2000
   -8.8730   14.0280    2.8270 N   0  0  0  0  0  0  0  0  0  0  0  0
   -8.9750   14.9680    3.8150 C   0  0  0  0  0  0  0  0  0  0  0  0
   -9.2780   16.1400    3.5890 O   0  0  0  0  0  0  0  0  0  0  0  0
   -8.9840   14.4160    1.4480 C   0  0  0  0  0  0  0  0  0  0  0  0
   -8.7000   14.4530    5.2210 C   0  0  0  0  0  0  0  0  0  0  0  0
   -7.6120   14.5960    0.9280 C   0  0  0  0  0  0  0  0  0  0  0  0
   -9.9000   13.6670    5.7450 C   0  0  0  0  0  0  0  0  0  0  0  0
   -8.3080   15.5810    6.1670 C   0  0  0  0  0  0  0  0  0  0  0  0
   -7.3840   14.7470   -0.4050 N   0  0  0  0  0  0  0  0  0  0  0  0
   -6.4800   14.6380    1.6120 N   0  0  0  0  0  0  0  0  0  0  0  0
   -5.4870   14.8220    0.6780 C   0  0  0  0  0  0  0  0  0  0  0  0
   -6.0480   14.8890   -0.5850 C   0  0  0  0  0  0  0  0  0  0  0  0
   -5.3280   15.0620   -1.7360 C   0  0  0  0  0  0  0  0  0  0  0  0
   -4.0930   14.9410    0.8150 C   0  0  0  0  0  0  0  0  0  0  0  0
   -3.9570   15.1700   -1.6140 C   0  0  0  0  0  0  0  0  0  0  0  0
   -3.3310   15.1140   -0.3530 C   0  0  0  0  0  0  0  0  0  0  0  0
   -3.2170   15.3400   -2.8970 C   0  0  0  0  0  0  0  0  0  0  0  0
   -3.8730   14.7240   -4.1300 C   0  0  0  0  0  0  0  0  0  0  0  0
   -3.1700   15.2000   -5.3970 C   0  0  0  0  0  0  0  0  0  0  0  0
   -1.7000   15.4110   -5.1620 C   0  0  0  0  0  0  0  0  0  0  0  0
   -0.9130   14.2860   -4.8580 C   0  0  0  0  0  0  0  0  0  0  0  0
   -1.0870   16.6580   -5.2290 C   0  0  0  0  0  0  0  0  0  0  0  0
    0.4630   14.3900   -4.6200 C   0  0  0  0  0  0  0  0  0  0  0  0
    0.2760   16.7650   -4.9970 C   0  0  0  0  0  0  0  0  0  0  0  0
    0.9870   18.3060   -5.0970 Cl  0  0  0  0  0  0  0  0  0  0  0  0
    1.2770   13.1580   -4.2890 C   0  0  0  0  0  0  0  0  0  0  0  0
    1.0560   15.6480   -4.6930 C   0  0  0  0  0  0  0  0  0  0  0  0
    0.8950   12.5120   -2.9720 C   0  0  0  0  0  0  0  0  0  0  0  0
    0.3510   11.2810   -3.1410 O   0  0  0  0  0  0  0  0  0  0  0  0
    1.0180   12.9650   -1.8480 O   0  0  0  0  0  0  0  0  0  0  0  0
  1  2  1  0
  2  3  2  0
  1  4  1  0
  2  5  1  0
  4  6  1  0
  5  7  1  0
  5  8  1  0
  6  9  1  0
  6 10  2  0
 10 11  1  0
  9 12  1  0
 11 12  2  0
 12 13  1  0
 11 14  1  0
 13 15  2  0
 14 16  2  0
 15 16  1  0
 15 17  1  0
 17 18  1  0
 18 19  1  0
 19 20  1  0
 20 21  2  0
 20 22  1  0
 21 23  1  0
 22 24  2  0
 24 25  1  0
 23 26  1  0
 23 27  2  0
 24 27  1  0
 26 28  1  0
 28 29  1  0
 28 30  2  0
M  END
