diamond-x0727_0_A-diamond-x0662_0_A
     RDKit          3D

 23 24  0  0  0  0  0  0  0  0999 V2000
    0.1400   11.4910   -5.7000 C   0  0  0  0  0  0  0  0  0  0  0  0
    0.8920   12.4010   -4.7510 C   0  0  1  0  0  0  0  0  0  0  0  0
    0.4520   13.8470   -4.9230 C   0  0  0  0  0  0  0  0  0  0  0  0
    0.9530   11.1600   -6.9350 C   0  0  0  0  0  0  0  0  0  0  0  0
   -0.9860   11.0550   -5.5230 O   0  0  0  0  0  0  0  0  0  0  0  0
    1.8450   11.9320   -7.1420 O   0  0  0  0  0  0  0  0  0  0  0  0
    0.7190   11.9540   -3.3210 C   0  0  0  0  0  0  0  0  0  0  0  0
    0.6770    9.9220   -7.7700 C   0  0  2  0  0  0  0  0  0  0  0  0
    0.2370   10.8790   -3.0040 O   0  0  0  0  0  0  0  0  0  0  0  0
    1.1560   12.8530   -2.4120 O   0  0  0  0  0  0  0  0  0  0  0  0
   -0.0560   10.2200   -9.1000 C   0  0  1  0  0  0  0  0  0  0  0  0
   -0.1170    8.8460   -7.0040 C   0  0  0  0  0  0  0  0  0  0  0  0
    0.8160   10.3480  -10.3500 N   0  0  0  0  0  0  0  0  0  0  0  0
   -1.1450    9.1160   -9.1420 C   0  0  0  0  0  0  0  0  0  0  0  0
   -1.4670    8.7980   -7.6810 C   0  0  0  0  0  0  0  0  0  0  0  0
    1.7680    9.4480  -10.9110 C   0  0  0  0  0  0  0  0  0  0  0  0
    1.9880    8.3280  -10.4650 O   0  0  0  0  0  0  0  0  0  0  0  0
    2.5360    9.9480  -12.1220 C   0  0  0  0  0  0  0  0  0  0  0  0
    2.4020   11.1890  -12.8200 C   0  0  0  0  0  0  0  0  0  0  0  0
    3.5200    9.2030  -12.7100 N   0  0  0  0  0  0  0  0  0  0  0  0
    3.9800    9.9640  -13.7320 N   0  0  0  0  0  0  0  0  0  0  0  0
    3.3410   11.1610  -13.8400 C   0  0  0  0  0  0  0  0  0  0  0  0
    5.0530    9.4760  -14.5790 C   0  0  0  0  0  0  0  0  0  0  0  0
  1  2  1  0
  2  3  1  1
  1  4  1  0
  1  5  2  0
  4  6  2  0
  2  7  1  0
  8  4  1  1
  7  9  2  0
  7 10  1  0
  8 11  1  0
  8 12  1  0
 11 13  1  6
 11 14  1  0
 12 15  1  0
 14 15  1  0
 13 16  1  0
 16 17  2  0
 16 18  1  0
 18 19  1  0
 18 20  2  0
 20 21  1  0
 19 22  2  0
 21 22  1  0
 21 23  1  0
M  END
