diamond-x1015_0_A-diamond-x0421_0_A
     RDKit          3D

 27 30  0  0  0  0  0  0  0  0999 V2000
    0.1300   14.1180   -5.2260 C   0  0  0  0  0  0  0  0  0  0  0  0
    0.8480   13.3740   -4.0980 C   0  0  2  0  0  0  0  0  0  0  0  0
    0.3630   11.9970   -4.0010 N   0  0  0  0  0  0  0  0  0  0  0  0
    0.2400   13.9190   -2.8430 C   0  0  0  0  0  0  0  0  0  0  0  0
    0.1530   15.1310   -2.4670 N   0  0  0  0  0  0  0  0  0  0  0  0
    0.1210   11.7170   -2.6620 C   0  0  0  0  0  0  0  0  0  0  0  0
   -0.2930   12.8970   -2.1160 N   0  0  0  0  0  0  0  0  0  0  0  0
   -0.2030   11.2930   -5.0960 C   0  0  0  0  0  0  0  0  0  0  0  0
    0.2460   10.6530   -2.0510 O   0  0  0  0  0  0  0  0  0  0  0  0
   -0.6740   15.4090   -1.3310 C   0  0  0  0  0  0  0  0  0  0  0  0
    0.2550   11.4850   -6.4040 C   0  0  0  0  0  0  0  0  0  0  0  0
   -1.2460   10.3680   -4.8970 C   0  0  0  0  0  0  0  0  0  0  0  0
   -1.8770   15.4220   -2.1410 N   0  0  0  0  0  0  0  0  0  0  0  0
   -0.2990   10.7830   -7.4770 C   0  0  0  0  0  0  0  0  0  0  0  0
   -1.8030    9.6610   -5.9680 C   0  0  0  0  0  0  0  0  0  0  0  0
   -3.0910   15.3150   -1.7910 C   0  0  0  0  0  0  0  0  0  0  0  0
   -1.3250    9.8720   -7.2540 C   0  0  0  0  0  0  0  0  0  0  0  0
   -2.0030    9.0040   -8.5740 Cl  0  0  0  0  0  0  0  0  0  0  0  0
   -4.0240   15.3370   -2.7880 N   0  0  0  0  0  0  0  0  0  0  0  0
   -3.6570   15.1600   -0.4780 C   0  0  0  0  0  0  0  0  0  0  0  0
   -2.9790   15.1760    0.7210 C   0  0  0  0  0  0  0  0  0  0  0  0
   -5.0020   14.9650   -0.2640 N   0  0  0  0  0  0  0  0  0  0  0  0
   -3.9370   14.9880    1.6570 N   0  0  0  0  0  0  0  0  0  0  0  0
   -5.1350   14.8650    1.0260 C   0  0  0  0  0  0  0  0  0  0  0  0
   -6.4790   14.6360    1.7510 C   0  0  0  0  0  0  0  0  0  0  0  0
   -7.7560   14.6330    0.9540 C   0  0  0  0  0  0  0  0  0  0  0  0
   -7.2080   13.3430    1.5070 C   0  0  0  0  0  0  0  0  0  0  0  0
  2  1  1  6
  2  3  1  0
  2  4  1  0
  4  5  2  3
  3  6  1  0
  4  7  1  0
  6  7  1  0
  3  8  1  0
  6  9  2  0
  5 10  1  0
  8 11  2  0
  8 12  1  0
 10 13  1  0
 11 14  1  0
 12 15  2  0
 13 16  2  3
 14 17  2  0
 15 17  1  0
 17 18  1  0
 16 19  1  0
 16 20  1  0
 20 21  2  0
 20 22  1  0
 21 23  1  0
 22 24  2  0
 23 24  1  0
 24 25  1  0
 25 26  1  0
 25 27  1  0
 26 27  1  0
M  END
