diamond-x0962_2_B-mac-x0453
     RDKit          3D

 15 16  0  0  0  0  0  0  0  0999 V2000
  -11.1970   16.2880    1.3440 N   0  0  0  0  0  0  0  0  0  0  0  0
  -10.3050   15.9650    1.9960 C   0  0  0  0  0  0  0  0  0  0  0  0
   -9.1800   15.4870    2.7130 C   0  0  0  0  0  0  0  0  0  0  0  0
   -8.7670   15.9780    3.9340 N   0  0  0  0  0  0  0  0  0  0  0  0
   -8.3820   14.4850    2.2600 C   0  0  0  0  0  0  0  0  0  0  0  0
   -7.6940   15.2500    4.2090 C   0  0  0  0  0  0  0  0  0  0  0  0
   -7.4400   14.3360    3.2030 N   0  0  0  0  0  0  0  0  0  0  0  0
   -6.3890   13.3900    3.1220 N   0  0  0  0  0  0  0  0  0  0  0  0
   -5.6290   13.3890    1.8440 C   0  0  0  0  0  0  0  0  0  0  0  0
   -5.2150   14.7860    1.3530 C   0  0  0  0  0  0  0  0  0  0  0  0
   -4.2910   14.7730    0.1740 C   0  0  0  0  0  0  0  0  0  0  0  0
   -2.9540   14.4450    0.1180 C   0  0  0  0  0  0  0  0  0  0  0  0
   -4.7420   15.1250   -1.0800 N   0  0  0  0  0  0  0  0  0  0  0  0
   -2.5950   14.6020   -1.1940 N   0  0  0  0  0  0  0  0  0  0  0  0
   -3.7070   15.0130   -1.8780 C   0  0  0  0  0  0  0  0  0  0  0  0
  1  2  3  0
  2  3  1  0
  3  4  1  0
  3  5  2  0
  4  6  2  0
  5  7  1  0
  6  7  1  0
  7  8  1  0
  8  9  1  0
  9 10  1  0
 10 11  1  0
 11 12  2  0
 11 13  1  0
 12 14  1  0
 13 15  2  0
 14 15  1  0
M  END
