diamond-x0864_0_A-mac-x0380
     RDKit          3D

 28 30  0  0  0  0  0  0  0  0999 V2000
    1.4520   12.0910   -6.4630 O   0  0  0  0  0  0  0  0  0  0  0  0
    0.3930   11.5170   -6.2240 C   0  0  0  0  0  0  0  0  0  0  0  0
   -0.5130   11.8680   -5.2060 N   0  0  0  0  0  0  0  0  0  0  0  0
    0.0150   10.3400   -7.0590 C   0  0  0  0  0  0  0  0  0  0  0  0
   -0.1480   12.7920   -4.1000 C   0  0  1  0  0  0  0  0  0  0  0  0
   -1.6740   11.1460   -5.0010 C   0  0  0  0  0  0  0  0  0  0  0  0
   -1.1230    9.6770   -6.8130 C   0  0  0  0  0  0  0  0  0  0  0  0
    0.8090   12.1610   -3.0800 C   0  0  0  0  0  0  0  0  0  0  0  0
   -1.6640    8.1950   -7.8060 Br  0  0  0  0  0  0  0  0  0  0  0  0
    0.2450   14.2200   -4.5150 C   0  0  0  0  0  0  0  0  0  0  0  0
   -1.9950   10.0950   -5.7500 C   0  0  0  0  0  0  0  0  0  0  0  0
    0.5510   10.8620   -2.8230 O   0  0  0  0  0  0  0  0  0  0  0  0
    1.7220   12.7260   -2.5050 O   0  0  0  0  0  0  0  0  0  0  0  0
   -0.3910   15.2970   -3.6070 C   0  0  0  0  0  0  0  0  0  0  0  0
   -1.3670   14.7090   -2.7030 O   0  0  0  0  0  0  0  0  0  0  0  0
   -2.6570   15.1200   -2.8930 C   0  0  0  0  0  0  0  0  0  0  0  0
   -3.1200   15.4850   -3.9600 O   0  0  0  0  0  0  0  0  0  0  0  0
   -3.4820   15.0910   -1.6340 C   0  0  0  0  0  0  0  0  0  0  0  0
   -4.8780   15.1380   -1.7000 C   0  0  0  0  0  0  0  0  0  0  0  0
   -2.8680   15.0120   -0.3700 C   0  0  0  0  0  0  0  0  0  0  0  0
   -5.6550   15.1060   -0.5390 C   0  0  0  0  0  0  0  0  0  0  0  0
   -3.6450   14.9880    0.8010 C   0  0  0  0  0  0  0  0  0  0  0  0
   -5.0420   15.0280    0.7170 C   0  0  0  0  0  0  0  0  0  0  0  0
   -7.4250   15.1540   -0.7120 S   0  0  0  0  0  0  0  0  0  0  0  0
   -5.7960   14.9850    1.9110 N   0  0  0  0  0  0  0  0  0  0  0  0
   -7.8160   14.1700    0.7470 C   0  0  0  0  0  0  0  0  0  0  0  0
   -7.1340   14.6800    1.9860 C   0  0  0  0  0  0  0  0  0  0  0  0
   -7.7590   14.8360    3.0410 O   0  0  0  0  0  0  0  0  0  0  0  0
  1  2  2  0
  2  3  1  0
  2  4  1  0
  3  5  1  0
  3  6  1  0
  4  7  2  0
  5  8  1  0
  7  9  1  0
  5 10  1  6
  6 11  2  0
  7 11  1  0
  8 12  1  0
  8 13  2  0
 10 14  1  0
 14 15  1  0
 15 16  1  0
 16 17  2  0
 16 18  1  0
 18 19  2  0
 18 20  1  0
 19 21  1  0
 20 22  2  0
 21 23  2  0
 22 23  1  0
 21 24  1  0
 23 25  1  0
 24 26  1  0
 25 27  1  0
 26 27  1  0
 27 28  2  0
M  END
