diamond-x0465_0_A-diamond-x0676_0_B
     RDKit          3D

 28 30  0  0  0  0  0  0  0  0999 V2000
    2.0070   13.2420   -4.9440 C   0  0  0  0  0  0  0  0  0  0  0  0
    0.7020   12.5260   -4.6450 C   0  0  1  0  0  0  0  0  0  0  0  0
    0.6550   11.4010   -5.5370 O   0  0  0  0  0  0  0  0  0  0  0  0
    0.7230   12.0950   -3.1710 C   0  0  0  0  0  0  0  0  0  0  0  0
    1.0320   12.8460   -2.2550 O   0  0  0  0  0  0  0  0  0  0  0  0
    0.3800   10.8060   -2.9390 O   0  0  0  0  0  0  0  0  0  0  0  0
   -0.5640   10.7740   -5.6710 C   0  0  0  0  0  0  0  0  0  0  0  0
   -0.6450    9.6940   -6.5730 C   0  0  0  0  0  0  0  0  0  0  0  0
   -1.6820   11.1880   -4.9440 C   0  0  0  0  0  0  0  0  0  0  0  0
    0.5140    9.3800   -7.2330 O   0  0  0  0  0  0  0  0  0  0  0  0
   -1.8630    9.0370   -6.7290 C   0  0  0  0  0  0  0  0  0  0  0  0
   -2.8950   10.5180   -5.1110 C   0  0  0  0  0  0  0  0  0  0  0  0
    0.6170    9.6790   -8.6310 C   0  0  0  0  0  0  0  0  0  0  0  0
   -2.9820    9.4470   -6.0000 C   0  0  0  0  0  0  0  0  0  0  0  0
    0.7790    8.3970   -9.4580 C   0  0  0  0  0  0  0  0  0  0  0  0
    1.6120    8.6660  -10.6330 N   0  0  0  0  0  0  0  0  0  0  0  0
    2.7490    8.0730  -10.7360 C   0  0  0  0  0  0  0  0  0  0  0  0
    3.2870    7.1010   -9.7130 C   0  0  0  0  0  0  0  0  0  0  0  0
    3.7430    8.1420  -11.7190 N   0  0  0  0  0  0  0  0  0  0  0  0
    4.9740    7.6980  -11.2240 N   0  0  0  0  0  0  0  0  0  0  0  0
    4.7350    7.1350  -10.0800 C   0  0  0  0  0  0  0  0  0  0  0  0
    3.8450    9.1700  -12.7090 C   0  0  0  0  0  0  0  0  0  0  0  0
    5.7830    6.5670   -9.1890 C   0  0  0  0  0  0  0  0  0  0  0  0
    2.9240   10.2450  -12.7490 C   0  0  0  0  0  0  0  0  0  0  0  0
    4.8510    9.1840  -13.6860 C   0  0  0  0  0  0  0  0  0  0  0  0
    3.0070   11.2680  -13.7000 C   0  0  0  0  0  0  0  0  0  0  0  0
    4.9380   10.2030  -14.6420 C   0  0  0  0  0  0  0  0  0  0  0  0
    4.0190   11.2470  -14.6530 C   0  0  0  0  0  0  0  0  0  0  0  0
  2  1  1  6
  2  3  1  0
  2  4  1  0
  4  5  2  0
  4  6  1  0
  3  7  1  0
  7  8  2  0
  7  9  1  0
  8 10  1  0
  8 11  1  0
  9 12  2  0
 10 13  1  0
 11 14  2  0
 12 14  1  0
 13 15  1  0
 15 16  1  0
 16 17  2  3
 17 18  1  0
 17 19  1  0
 19 20  1  0
 18 21  1  0
 20 21  2  0
 19 22  1  0
 21 23  1  0
 22 24  2  0
 22 25  1  0
 24 26  1  0
 25 27  2  0
 26 28  2  0
 27 28  1  0
M  END
