diamond-x0380_0_B-diamond-x0918_1_B
     RDKit          3D

 21 22  0  0  0  0  0  0  0  0999 V2000
   -4.3540   29.8180  -14.4280 N   0  0  0  0  0  0  0  0  0  0  0  0
   -3.8060   30.7880  -15.2330 C   0  0  0  0  0  0  0  0  0  0  0  0
   -4.4900   31.7700  -15.5170 O   0  0  0  0  0  0  0  0  0  0  0  0
   -5.6720   29.7640  -13.9350 C   0  0  0  0  0  0  0  0  0  0  0  0
   -2.3870   30.6640  -15.8090 C   0  0  0  0  0  0  0  0  0  0  0  0
   -6.1170   29.0080  -12.8200 C   0  0  0  0  0  0  0  0  0  0  0  0
   -6.6080   30.5360  -14.6330 C   0  0  0  0  0  0  0  0  0  0  0  0
   -5.3010   28.1060  -11.9570 C   0  0  0  0  0  0  0  0  0  0  0  0
   -2.3430   31.4070  -17.0840 N   0  0  0  0  0  0  0  0  0  0  0  0
   -7.4530   29.0710  -12.4580 C   0  0  0  0  0  0  0  0  0  0  0  0
   -7.9460   30.5720  -14.2450 C   0  0  0  0  0  0  0  0  0  0  0  0
   -8.0240   28.1670  -11.1110 Cl  0  0  0  0  0  0  0  0  0  0  0  0
   -5.5430   26.6230  -12.3790 C   0  0  0  0  0  0  0  0  0  0  0  0
   -8.3690   29.8380  -13.1500 C   0  0  0  0  0  0  0  0  0  0  0  0
   -4.4300   26.3790  -13.3100 C   0  0  0  0  0  0  0  0  0  0  0  0
   -3.2430   26.3040  -12.6890 C   0  0  0  0  0  0  0  0  0  0  0  0
   -4.5880   26.2930  -14.6390 N   0  0  0  0  0  0  0  0  0  0  0  0
   -2.1030   26.1830  -13.3800 C   0  0  0  0  0  0  0  0  0  0  0  0
   -3.4400   26.1550  -15.3300 C   0  0  0  0  0  0  0  0  0  0  0  0
   -0.9080   26.1610  -12.6990 N   0  0  0  0  0  0  0  0  0  0  0  0
   -2.1820   26.1050  -14.7500 C   0  0  0  0  0  0  0  0  0  0  0  0
  1  2  1  0
  2  3  2  0
  1  4  1  0
  2  5  1  0
  4  6  2  0
  4  7  1  0
  6  8  1  0
  5  9  1  0
  6 10  1  0
  7 11  2  0
 10 12  1  0
  8 13  1  0
 10 14  2  0
 11 14  1  0
 13 15  1  0
 15 16  2  0
 15 17  1  0
 16 18  1  0
 17 19  2  0
 18 20  1  0
 18 21  2  0
 19 21  1  0
M  END
