diamond-x0895_0_A-mac-x0381
     RDKit          3D

 22 24  0  0  0  0  0  0  0  0999 V2000
   -1.6490   14.6340    1.9740 O   0  0  0  0  0  0  0  0  0  0  0  0
   -2.6760   14.6950    1.3160 C   0  0  0  0  0  0  0  0  0  0  0  0
   -4.1380   14.5560    1.7920 C   0  0  1  0  0  0  0  0  0  0  0  0
   -2.6810   14.9210   -0.0270 N   0  0  0  0  0  0  0  0  0  0  0  0
   -4.5550   15.2760    3.0770 C   0  0  0  0  0  0  0  0  0  0  0  0
   -4.7490   15.2120    0.6510 N   0  0  0  0  0  0  0  0  0  0  0  0
   -3.9340   15.1760   -0.4480 C   0  0  0  0  0  0  0  0  0  0  0  0
   -4.2860   15.3440   -1.6000 O   0  0  0  0  0  0  0  0  0  0  0  0
   -5.7350   14.6540    3.8510 C   0  0  0  0  0  0  0  0  0  0  0  0
   -7.0190   15.2300    3.5130 N   0  0  0  0  0  0  0  0  0  0  0  0
   -8.0740   14.5410    3.7450 C   0  0  0  0  0  0  0  0  0  0  0  0
   -8.0620   13.2820    4.2980 N   0  0  0  0  0  0  0  0  0  0  0  0
   -9.4090   15.1250    3.3720 C   0  0  0  0  0  0  0  0  0  0  0  0
   -9.5570   15.7800    2.1440 C   0  0  0  0  0  0  0  0  0  0  0  0
  -10.5060   15.0150    4.2320 C   0  0  0  0  0  0  0  0  0  0  0  0
  -10.7940   16.3200    1.7570 C   0  0  0  0  0  0  0  0  0  0  0  0
  -11.7430   15.5500    3.8600 C   0  0  0  0  0  0  0  0  0  0  0  0
  -11.9030   16.2000    2.6270 C   0  0  0  0  0  0  0  0  0  0  0  0
  -10.9530   16.9730    0.5250 C   0  0  0  0  0  0  0  0  0  0  0  0
  -13.1430   16.7310    2.2380 C   0  0  0  0  0  0  0  0  0  0  0  0
  -12.1940   17.4910    0.1530 C   0  0  0  0  0  0  0  0  0  0  0  0
  -13.2870   17.3680    1.0090 C   0  0  0  0  0  0  0  0  0  0  0  0
  1  2  2  0
  2  3  1  0
  2  4  1  0
  3  5  1  1
  3  6  1  0
  4  7  1  0
  6  7  1  0
  7  8  2  0
  5  9  1  0
  9 10  1  0
 10 11  2  3
 11 12  1  0
 11 13  1  0
 13 14  2  0
 13 15  1  0
 14 16  1  0
 15 17  2  0
 16 18  2  0
 17 18  1  0
 16 19  1  0
 18 20  1  0
 19 21  2  0
 20 22  2  0
 21 22  1  0
M  END
