diamond-x0724_0_A-mac-x0396
     RDKit          3D

 17 18  0  0  0  0  0  0  0  0999 V2000
   -8.3730   14.0700    4.1440 N   0  0  0  0  0  0  0  0  0  0  0  0
   -8.3920   14.0950    5.6030 C   0  0  0  0  0  0  0  0  0  0  0  0
   -7.5450   15.1350    3.5480 C   0  0  0  0  0  0  0  0  0  0  0  0
   -7.1070   14.7820    2.1420 C   0  0  0  0  0  0  0  0  0  0  0  0
   -5.8950   14.9420    1.3880 C   0  0  0  0  0  0  0  0  0  0  0  0
   -7.9490   14.1480    1.1890 C   0  0  0  0  0  0  0  0  0  0  0  0
   -4.5310   15.4670    1.4620 C   0  0  0  0  0  0  0  0  0  0  0  0
   -7.3570   13.9320    0.0070 N   0  0  0  0  0  0  0  0  0  0  0  0
   -6.1140   14.4310    0.1920 N   0  0  0  0  0  0  0  0  0  0  0  0
   -3.7190   15.0770    2.4330 N   0  0  0  0  0  0  0  0  0  0  0  0
   -4.0530   16.2140    0.6010 O   0  0  0  0  0  0  0  0  0  0  0  0
   -5.0290   14.4840   -0.7020 C   0  0  0  0  0  0  0  0  0  0  0  0
   -3.7790   14.2120   -0.1010 C   0  0  0  0  0  0  0  0  0  0  0  0
   -5.0890   14.7900   -2.0470 C   0  0  0  0  0  0  0  0  0  0  0  0
   -2.6080   14.2570   -0.8340 C   0  0  0  0  0  0  0  0  0  0  0  0
   -3.9000   14.8300   -2.7860 C   0  0  0  0  0  0  0  0  0  0  0  0
   -2.6690   14.5680   -2.1800 C   0  0  0  0  0  0  0  0  0  0  0  0
  1  2  1  0
  1  3  1  0
  3  4  1  0
  4  5  2  0
  4  6  1  0
  5  7  1  0
  6  8  2  0
  5  9  1  0
  8  9  1  0
  7 10  1  0
  7 11  2  0
  9 12  1  0
 12 13  2  0
 12 14  1  0
 13 15  1  0
 14 16  2  0
 15 17  2  0
 16 17  1  0
M  END
