diamond-x0662_0_A-mac-x0453
     RDKit          3D

 29 31  0  0  0  0  0  0  0  0999 V2000
    5.3440    9.5390  -15.0180 C   0  0  0  0  0  0  0  0  0  0  0  0
    4.2940   10.0150  -14.1460 N   0  0  0  0  0  0  0  0  0  0  0  0
    3.6410   11.2090  -14.2150 C   0  0  0  0  0  0  0  0  0  0  0  0
    3.8820    9.2340  -13.1400 N   0  0  0  0  0  0  0  0  0  0  0  0
    2.7400   11.1990  -13.1720 C   0  0  0  0  0  0  0  0  0  0  0  0
    2.9180    9.9400  -12.5130 C   0  0  0  0  0  0  0  0  0  0  0  0
    2.2160    9.3890  -11.3100 C   0  0  0  0  0  0  0  0  0  0  0  0
    2.3500    8.2150  -11.0000 O   0  0  0  0  0  0  0  0  0  0  0  0
    1.4460   10.3220  -10.6130 N   0  0  0  0  0  0  0  0  0  0  0  0
    0.6830   10.1240   -9.4260 C   0  0  0  0  0  0  0  0  0  0  0  0
   -0.2890    9.1200   -9.4690 C   0  0  0  0  0  0  0  0  0  0  0  0
    0.8320   10.8520   -8.2370 C   0  0  0  0  0  0  0  0  0  0  0  0
   -1.0880    8.8550   -8.3520 C   0  0  0  0  0  0  0  0  0  0  0  0
    0.0400   10.6110   -7.0970 C   0  0  0  0  0  0  0  0  0  0  0  0
    0.2860   11.4670   -5.8460 C   0  0  0  0  0  0  0  0  0  0  0  0
   -0.9220    9.5950   -7.1810 C   0  0  0  0  0  0  0  0  0  0  0  0
   -0.5040   11.3370   -4.8340 N   0  0  0  0  0  0  0  0  0  0  0  0
    1.2830   12.1970   -5.9980 O   0  0  0  0  0  0  0  0  0  0  0  0
   -0.1850   12.1650   -3.6720 C   0  0  0  0  0  0  0  0  0  0  0  0
   -1.4550   12.6000   -2.9380 C   0  0  0  0  0  0  0  0  0  0  0  0
   -1.3650   14.0070   -2.3300 C   0  0  0  0  0  0  0  0  0  0  0  0
   -2.5740   14.4140   -1.6480 N   0  0  0  0  0  0  0  0  0  0  0  0
   -2.8030   14.3570   -0.3110 C   0  0  0  0  0  0  0  0  0  0  0  0
   -3.6980   14.9230   -2.2360 C   0  0  0  0  0  0  0  0  0  0  0  0
   -4.0760   14.8330   -0.1460 C   0  0  0  0  0  0  0  0  0  0  0  0
   -4.6340   15.1850   -1.3520 N   0  0  0  0  0  0  0  0  0  0  0  0
   -4.8080   14.9690    1.1200 C   0  0  0  0  0  0  0  0  0  0  0  0
   -6.0250   14.0280    1.1570 C   0  0  0  0  0  0  0  0  0  0  0  0
   -6.8550   14.2210    2.3570 N   0  0  0  0  0  0  0  0  0  0  0  0
  1  2  1  0
  2  3  1  0
  2  4  1  0
  3  5  2  0
  4  6  2  0
  5  6  1  0
  6  7  1  0
  7  8  2  0
  7  9  1  0
  9 10  1  0
 10 11  2  0
 10 12  1  0
 11 13  1  0
 12 14  2  0
 14 15  1  0
 13 16  2  0
 14 16  1  0
 15 17  2  3
 15 18  1  0
 17 19  1  0
 19 20  1  0
 20 21  1  0
 21 22  1  0
 22 23  1  0
 22 24  1  0
 23 25  2  0
 24 26  2  0
 25 26  1  0
 25 27  1  0
 27 28  1  0
 28 29  1  0
M  CHG  1  18  -1
M  END
