diamond-x0438_0_A-mac-x0365
     RDKit          3D

 19 20  0  0  0  0  0  0  0  0999 V2000
   -8.2370   15.6150    3.9360 C   0  0  0  0  0  0  0  0  0  0  0  0
   -9.3830   15.3110    2.6030 S   0  0  0  0  0  0  0  0  0  0  0  0
  -10.6040   14.8140    3.2120 O   0  0  0  0  0  0  0  0  0  0  0  0
   -8.7120   13.9650    1.6680 C   0  0  0  0  0  0  0  0  0  0  0  0
   -9.4560   16.4840    1.7580 O   0  0  0  0  0  0  0  0  0  0  0  0
   -7.3510   14.2540    1.1470 C   0  0  0  0  0  0  0  0  0  0  0  0
   -7.1540   14.3660   -0.2190 N   0  0  0  0  0  0  0  0  0  0  0  0
   -6.3040   14.4340    1.9070 N   0  0  0  0  0  0  0  0  0  0  0  0
   -5.2900   14.6080    1.0220 C   0  0  0  0  0  0  0  0  0  0  0  0
   -5.8800   14.6290   -0.3030 C   0  0  0  0  0  0  0  0  0  0  0  0
   -5.0680   14.9630   -1.5080 C   0  0  2  0  0  0  0  0  0  0  0  0
   -3.9720   14.7270    1.1860 C   0  0  0  0  0  0  0  0  0  0  0  0
   -5.5390   16.2600   -1.5960 O   0  0  0  0  0  0  0  0  0  0  0  0
   -5.5200   14.3410   -2.6290 F   0  0  0  0  0  0  0  0  0  0  0  0
   -3.5690   14.9160   -1.2200 C   0  0  0  0  0  0  0  0  0  0  0  0
   -3.0960   14.8290    0.0400 C   0  0  0  0  0  0  0  0  0  0  0  0
   -2.4980   14.9410   -2.2530 C   0  0  0  0  0  0  0  0  0  0  0  0
   -1.2580   14.8920   -1.7320 O   0  0  0  0  0  0  0  0  0  0  0  0
   -2.6350   14.9850   -3.4620 O   0  0  0  0  0  0  0  0  0  0  0  0
  2  1  1  0
  2  3  2  0
  2  4  1  0
  2  5  2  0
  4  6  1  0
  6  7  1  0
  6  8  2  0
  8  9  1  0
  7 10  2  0
  9 10  1  0
 10 11  1  0
  9 12  2  0
 11 13  1  6
 11 14  1  0
 11 15  1  0
 12 16  1  0
 15 16  2  0
 15 17  1  0
 17 18  1  0
 17 19  2  0
M  END
