diamond-x0631_0_A-mac-x0193
     RDKit          3D

 29 31  0  0  0  0  0  0  0  0999 V2000
   -2.5970    8.7790   -6.8790 C   0  0  0  0  0  0  0  0  0  0  0  0
   -1.1570    8.9920   -6.4180 C   0  0  0  0  0  0  0  0  0  0  0  0
   -0.1090    9.4910   -7.4720 C   0  0  2  0  0  0  0  0  0  0  0  0
    0.6550   10.7390   -6.8200 C   0  0  0  0  0  0  0  0  0  0  0  0
   -0.7070   10.1040   -8.6530 N   0  0  0  0  0  0  0  0  0  0  0  0
    0.8520    8.2760   -7.9130 C   0  0  0  0  0  0  0  0  0  0  0  0
    0.0890   11.2860   -5.6700 N   0  0  0  0  0  0  0  0  0  0  0  0
    1.6760   11.2150   -7.2710 O   0  0  0  0  0  0  0  0  0  0  0  0
   -0.6900   11.5160   -8.6140 N   0  0  0  0  0  0  0  0  0  0  0  0
   -0.0980    9.7150   -9.8810 N   0  0  0  0  0  0  0  0  0  0  0  0
   -0.0440    7.1030   -8.3210 C   0  0  0  0  0  0  0  0  0  0  0  0
    1.8650    8.4030   -9.0810 C   0  0  0  0  0  0  0  0  0  0  0  0
    0.7730   12.3730   -4.9820 C   0  0  0  0  0  0  0  0  0  0  0  0
    0.0110   11.9230   -9.8180 N   0  0  0  0  0  0  0  0  0  0  0  0
    0.8260   10.7930  -10.1460 C   0  0  2  0  0  0  0  0  0  0  0  0
    1.5890    7.4580  -10.2570 C   0  0  0  0  0  0  0  0  0  0  0  0
   -0.8000    7.3880   -9.6250 C   0  0  0  0  0  0  0  0  0  0  0  0
    1.1220   10.7730  -11.5490 N   0  0  0  0  0  0  0  0  0  0  0  0
    0.7910   12.1290   -3.4750 C   0  0  0  0  0  0  0  0  0  0  0  0
    0.1650    7.5680  -10.7830 C   0  0  0  0  0  0  0  0  0  0  0  0
    2.1520    9.8730  -12.0090 C   0  0  1  0  0  0  0  0  0  0  0  0
    0.2660   10.9420   -3.1100 O   0  0  0  0  0  0  0  0  0  0  0  0
    1.2240   12.8840   -2.6200 O   0  0  0  0  0  0  0  0  0  0  0  0
    1.5620    8.5960  -12.1530 O   0  0  0  0  0  0  0  0  0  0  0  0
    2.7040   10.2340  -13.4010 C   0  0  2  0  0  0  0  0  0  0  0  0
    4.0560    9.7560  -13.5240 O   0  0  0  0  0  0  0  0  0  0  0  0
    2.7940   11.7060  -13.7130 C   0  0  0  0  0  0  0  0  0  0  0  0
    3.8400   11.7410  -14.8050 C   0  0  0  0  0  0  0  0  0  0  0  0
    4.5830   10.4220  -14.6730 C   0  0  0  0  0  0  0  0  0  0  0  0
  1  2  1  0
  3  2  1  1
  3  4  1  0
  3  5  1  0
  3  6  1  0
  4  7  1  0
  4  8  2  0
  5  9  1  0
  5 10  1  0
  6 11  1  0
  6 12  1  0
  7 13  1  0
  9 14  1  0
 10 15  1  0
 14 15  1  0
 12 16  1  0
 11 17  1  0
 15 18  1  6
 13 19  1  0
 16 20  1  0
 17 20  1  0
 18 21  1  0
 19 22  1  0
 19 23  2  0
 21 24  1  6
 21 25  1  0
 25 26  1  0
 25 27  1  1
 27 28  1  0
 26 29  1  0
 28 29  1  0
M  END
