diamond-x0905_0_A-diamond-x0722_0_A
     RDKit          3D

 18 19  0  0  0  0  0  0  0  0999 V2000
   -6.6060   15.1650   -0.5940 N   0  0  0  0  0  0  0  0  0  0  0  0
   -6.4000   13.9340   -0.3660 C   0  0  0  0  0  0  0  0  0  0  0  0
   -7.4510   13.1210   -0.0770 N   0  0  0  0  0  0  0  0  0  0  0  0
   -5.3200   15.4800   -0.7560 C   0  0  0  0  0  0  0  0  0  0  0  0
   -4.9750   13.3210   -0.4350 C   0  0  0  0  0  0  0  0  0  0  0  0
   -4.7540   15.8360    0.3860 N   0  0  0  0  0  0  0  0  0  0  0  0
   -4.6840   15.3810   -1.9680 C   0  0  0  0  0  0  0  0  0  0  0  0
   -3.4560   16.0980    0.3370 C   0  0  0  0  0  0  0  0  0  0  0  0
   -3.3320   15.6600   -1.9970 C   0  0  0  0  0  0  0  0  0  0  0  0
   -3.8090   13.8800    0.3750 C   0  0  0  0  0  0  0  0  0  0  0  0
   -2.7020   16.0200   -0.8160 C   0  0  0  0  0  0  0  0  0  0  0  0
   -3.7900   14.4960    1.6720 C   0  0  0  0  0  0  0  0  0  0  0  0
   -2.4590   13.8890   -0.0090 C   0  0  0  0  0  0  0  0  0  0  0  0
   -4.9080   14.8010    2.6030 C   0  0  0  0  0  0  0  0  0  0  0  0
   -1.7780   13.4190   -1.2440 C   0  0  0  0  0  0  0  0  0  0  0  0
   -2.5460   14.8150    2.0350 N   0  0  0  0  0  0  0  0  0  0  0  0
   -1.7610   14.4440    1.0250 N   0  0  0  0  0  0  0  0  0  0  0  0
   -0.3310   14.6450    1.1090 C   0  0  0  0  0  0  0  0  0  0  0  0
  1  2  2  3
  2  3  1  0
  1  4  1  0
  2  5  1  0
  4  6  2  0
  4  7  1  0
  6  8  1  0
  7  9  2  0
  5 10  1  0
  8 11  2  0
  9 11  1  0
 10 12  1  0
 10 13  2  0
 12 14  1  0
 13 15  1  0
 12 16  2  0
 13 17  1  0
 16 17  1  0
 17 18  1  0
M  END
