diamond-x0524_0_A-mac-x0223
     RDKit          3D

 32 34  0  0  0  0  0  0  0  0999 V2000
   -0.4920    8.5900   -8.2090 N   0  0  0  0  0  0  0  0  0  0  0  0
   -0.8000    9.5290   -7.2520 C   0  0  0  0  0  0  0  0  0  0  0  0
   -1.9940    9.1520   -6.3890 C   0  0  0  0  0  0  0  0  0  0  0  0
    0.5740    8.5800   -9.1210 C   0  0  0  0  0  0  0  0  0  0  0  0
   -0.1390   10.6250   -7.1040 N   0  0  0  0  0  0  0  0  0  0  0  0
    1.6900    7.7600   -8.9850 C   0  0  0  0  0  0  0  0  0  0  0  0
    0.5240    9.4290  -10.2320 C   0  0  0  0  0  0  0  0  0  0  0  0
   -0.4320   11.6350   -6.0990 C   0  0  0  0  0  0  0  0  0  0  0  0
    2.7270    7.7820   -9.9260 C   0  0  0  0  0  0  0  0  0  0  0  0
    1.5580    9.4530  -11.1750 C   0  0  0  0  0  0  0  0  0  0  0  0
    0.7770   12.5060   -5.7580 C   0  0  0  0  0  0  0  0  0  0  0  0
    2.6780    8.6260  -11.0370 C   0  0  0  0  0  0  0  0  0  0  0  0
    3.7000    8.6670  -12.0000 N   0  0  0  0  0  0  0  0  0  0  0  0
    0.7440   13.3220   -4.4470 C   0  0  2  0  0  0  0  0  0  0  0  0
    0.5070   12.4900   -3.1790 C   0  0  0  0  0  0  0  0  0  0  0  0
    3.9910    9.5320  -13.0700 C   0  0  0  0  0  0  0  0  0  0  0  0
   -0.0780   14.5960   -4.5670 C   0  0  0  0  0  0  0  0  0  0  0  0
   -0.0050   11.3830   -3.1410 O   0  0  0  0  0  0  0  0  0  0  0  0
    0.9210   13.1000   -2.0390 O   0  0  0  0  0  0  0  0  0  0  0  0
    3.2240   10.6930  -13.2700 C   0  0  0  0  0  0  0  0  0  0  0  0
    5.0370    9.2780  -13.9590 C   0  0  0  0  0  0  0  0  0  0  0  0
   -1.4870   14.5210   -4.5940 C   0  0  0  0  0  0  0  0  0  0  0  0
    0.5330   15.8610   -4.6530 C   0  0  0  0  0  0  0  0  0  0  0  0
    3.4980   11.5630  -14.3220 C   0  0  0  0  0  0  0  0  0  0  0  0
    5.3140   10.1470  -15.0140 C   0  0  0  0  0  0  0  0  0  0  0  0
   -0.2450   17.0020   -4.7590 C   0  0  0  0  0  0  0  0  0  0  0  0
   -2.2650   15.6730   -4.7010 C   0  0  0  0  0  0  0  0  0  0  0  0
    0.2000   18.2800   -4.8470 O   0  0  0  0  0  0  0  0  0  0  0  0
    4.5430   11.2920  -15.1970 C   0  0  0  0  0  0  0  0  0  0  0  0
   -1.6230   16.8980   -4.7810 C   0  0  0  0  0  0  0  0  0  0  0  0
    1.2520   18.4540   -5.7660 C   0  0  0  0  0  0  0  0  0  0  0  0
   -2.3450   18.0510   -4.8740 O   0  0  0  0  0  0  0  0  0  0  0  0
  1  2  1  0
  2  3  1  0
  1  4  1  0
  2  5  2  3
  4  6  2  0
  4  7  1  0
  5  8  1  0
  6  9  1  0
  7 10  2  0
  8 11  1  0
  9 12  2  0
 10 12  1  0
 12 13  1  0
 14 11  1  6
 14 15  1  0
 13 16  1  0
 14 17  1  0
 15 18  2  0
 15 19  1  0
 16 20  2  0
 16 21  1  0
 17 22  2  0
 17 23  1  0
 20 24  1  0
 21 25  2  0
 23 26  2  0
 22 27  1  0
 26 28  1  0
 24 29  2  0
 25 29  1  0
 26 30  1  0
 27 30  2  0
 28 31  1  0
 30 32  1  0
M  END
