diamond-x0895_1_A-diamond-x0962_1_A
     RDKit          3D

 13 14  0  0  0  0  0  0  0  0999 V2000
   -1.2080   14.5410    1.8030 O   0  0  0  0  0  0  0  0  0  0  0  0
   -2.2470   14.5240    1.1900 C   0  0  0  0  0  0  0  0  0  0  0  0
   -2.5330   14.6910   -0.2630 C   0  0  0  0  0  0  0  0  0  0  0  0
   -3.4870   14.3690    1.6910 N   0  0  0  0  0  0  0  0  0  0  0  0
   -3.6400   15.6660   -0.1490 N   0  0  0  0  0  0  0  0  0  0  0  0
   -4.3070   15.3320    1.1200 C   0  0  1  0  0  0  0  0  0  0  0  0
   -5.6110   14.9220    0.7430 N   0  0  0  0  0  0  0  0  0  0  0  0
   -5.9630   14.7560   -0.5390 C   0  0  0  0  0  0  0  0  0  0  0  0
   -6.6850   14.6400    1.5450 C   0  0  0  0  0  0  0  0  0  0  0  0
   -5.0840   14.9560   -1.6320 C   0  0  0  0  0  0  0  0  0  0  0  0
   -7.7210   14.3060    0.8040 N   0  0  0  0  0  0  0  0  0  0  0  0
   -7.2790   14.3770   -0.4990 C   0  0  0  0  0  0  0  0  0  0  0  0
   -4.2830   15.1170   -2.4620 N   0  0  0  0  0  0  0  0  0  0  0  0
  1  2  2  0
  2  3  1  0
  2  4  1  0
  3  5  1  0
  4  6  1  0
  5  6  1  0
  6  7  1  6
  7  8  1  0
  7  9  1  0
  8 10  1  0
  9 11  2  0
  8 12  2  0
 11 12  1  0
 10 13  3  0
M  END
