diamond-x0742_0_A-mac-x0360
     RDKit          3D

 26 29  0  0  0  0  0  0  0  0999 V2000
   -5.3920   13.5240   -0.1320 C   0  0  0  0  0  0  0  0  0  0  0  0
   -5.0370   14.9930   -0.1520 C   0  0  2  0  0  0  0  0  0  0  0  0
   -4.8460   15.4560    1.2750 C   0  0  0  0  0  0  0  0  0  0  0  0
   -6.2840   13.0550   -0.8450 O   0  0  0  0  0  0  0  0  0  0  0  0
   -6.1120   15.6130   -1.0320 C   0  0  0  0  0  0  0  0  0  0  0  0
   -3.7780   15.3350   -0.9480 C   0  0  2  0  0  0  0  0  0  0  0  0
   -4.1850   14.9710   -2.4030 C   0  0  2  0  0  0  0  0  0  0  0  0
   -2.4970   14.8910   -0.2340 C   0  0  0  0  0  0  0  0  0  0  0  0
   -3.7560   14.6570    1.9320 C   0  0  0  0  0  0  0  0  0  0  0  0
   -5.7390   14.9660   -2.3680 C   0  0  0  0  0  0  0  0  0  0  0  0
   -1.2440   14.7680   -0.8670 C   0  0  0  0  0  0  0  0  0  0  0  0
   -2.5190   14.5950    1.1250 C   0  0  0  0  0  0  0  0  0  0  0  0
   -3.5680   13.7360   -2.8410 N   0  0  0  0  0  0  0  0  0  0  0  0
   -1.4580   14.2280    1.8440 N   0  0  0  0  0  0  0  0  0  0  0  0
   -0.1250   14.3750   -0.1320 C   0  0  0  0  0  0  0  0  0  0  0  0
   -3.0900   12.7510   -1.7930 S   0  0  1  0  0  0  0  0  0  0  0  0
   -0.2980   14.1220    1.2170 C   0  0  0  0  0  0  0  0  0  0  0  0
   -2.2000   11.7800   -2.8230 N   0  0  0  0  0  0  0  0  0  0  0  0
   -2.1770   12.9670   -0.7020 O   0  0  0  0  0  0  0  0  0  0  0  0
   -4.5180   11.9030   -1.2250 C   0  0  0  0  0  0  0  0  0  0  0  0
   -5.0950   10.9770   -2.0700 C   0  0  0  0  0  0  0  0  0  0  0  0
   -5.0600   12.1640    0.0460 C   0  0  0  0  0  0  0  0  0  0  0  0
   -6.2310   10.3010   -1.6530 C   0  0  0  0  0  0  0  0  0  0  0  0
   -6.2120   11.4810    0.4570 C   0  0  0  0  0  0  0  0  0  0  0  0
   -6.9360    9.1460   -2.7090 Cl  0  0  0  0  0  0  0  0  0  0  0  0
   -6.7960   10.5500   -0.3990 C   0  0  0  0  0  0  0  0  0  0  0  0
  2  1  1  1
  2  3  1  0
  1  4  2  0
  2  5  1  0
  2  6  1  0
  6  7  1  0
  6  8  1  1
  3  9  1  0
  5 10  1  0
  7 10  1  0
  8 11  1  0
  8 12  2  0
  9 12  1  0
  7 13  1  1
 12 14  1  0
 11 15  2  0
 13 16  2  0
 14 17  2  0
 15 17  1  0
 16 18  1  6
 16 19  2  0
 16 20  1  0
 20 21  2  0
 20 22  1  0
 21 23  1  0
 22 24  2  0
 23 25  1  0
 23 26  2  0
 24 26  1  0
M  END
