diamond-x0962_3_A-diamond-x0591_0_A
     RDKit          3D

 24 25  0  0  0  0  0  0  0  0999 V2000
    1.2280   11.1720   -8.7450 N   0  0  0  0  0  0  0  0  0  0  0  0
    0.3090   11.3170   -7.6550 C   0  0  2  0  0  0  0  0  0  0  0  0
    1.0010   11.7810   -6.3570 C   0  0  0  0  0  0  0  0  0  0  0  0
   -0.3460   10.0090   -7.5440 C   0  0  0  0  0  0  0  0  0  0  0  0
    0.6540   13.1710   -5.8130 C   0  0  0  0  0  0  0  0  0  0  0  0
    0.0610    8.8910   -8.2410 N   0  0  0  0  0  0  0  0  0  0  0  0
   -1.4170    9.5980   -6.8000 C   0  0  0  0  0  0  0  0  0  0  0  0
   -0.2560   13.1730   -4.5910 C   0  0  0  0  0  0  0  0  0  0  0  0
   -0.7780    7.8770   -7.8880 C   0  0  0  0  0  0  0  0  0  0  0  0
   -1.6810    8.2800   -7.0180 N   0  0  0  0  0  0  0  0  0  0  0  0
   -1.6560   13.2790   -5.0460 N   0  0  0  0  0  0  0  0  0  0  0  0
   -2.3430   14.6410   -4.9760 S   0  0  1  0  0  0  0  0  0  0  0  0
   -1.0240   15.6210   -4.6550 N   0  0  0  0  0  0  0  0  0  0  0  0
   -2.9980   15.2920   -6.0880 O   0  0  0  0  0  0  0  0  0  0  0  0
   -3.4440   14.6700   -3.5950 C   0  0  0  0  0  0  0  0  0  0  0  0
   -2.9850   14.5470   -2.2790 C   0  0  0  0  0  0  0  0  0  0  0  0
   -4.7920   14.8210   -3.8580 C   0  0  0  0  0  0  0  0  0  0  0  0
   -3.9130   14.5780   -1.2250 C   0  0  0  0  0  0  0  0  0  0  0  0
   -5.7100   14.8560   -2.8130 C   0  0  0  0  0  0  0  0  0  0  0  0
   -5.2800   14.7340   -1.4970 C   0  0  0  0  0  0  0  0  0  0  0  0
   -6.2650   14.7670   -0.3800 C   0  0  0  0  0  0  0  0  0  0  0  0
   -5.7990   14.5780    0.8970 N   0  0  0  0  0  0  0  0  0  0  0  0
   -7.4510   14.9540   -0.6330 O   0  0  0  0  0  0  0  0  0  0  0  0
   -6.7500   14.5160    1.9860 C   0  0  0  0  0  0  0  0  0  0  0  0
  2  1  1  6
  2  3  1  0
  2  4  1  0
  3  5  1  0
  4  6  1  0
  4  7  2  0
  5  8  1  0
  6  9  1  0
  7 10  1  0
  9 10  2  0
  8 11  1  0
 11 12  2  0
 12 13  1  1
 12 14  2  0
 12 15  1  0
 15 16  2  0
 15 17  1  0
 16 18  1  0
 17 19  2  0
 18 20  2  0
 19 20  1  0
 20 21  1  0
 21 22  1  0
 21 23  2  0
 22 24  1  0
M  END
