diamond-x0724_0_A-mac-x0328
     RDKit          3D

 18 19  0  0  0  0  0  0  0  0999 V2000
   -8.8350   13.7650    4.4140 N   0  0  0  0  0  0  0  0  0  0  0  0
   -8.6850   13.6650    5.8560 C   0  0  0  0  0  0  0  0  0  0  0  0
   -8.3100   15.0390    3.9470 C   0  0  0  0  0  0  0  0  0  0  0  0
   -7.7140   14.8680    2.6010 C   0  0  0  0  0  0  0  0  0  0  0  0
   -6.3800   14.9220    2.2680 C   0  0  0  0  0  0  0  0  0  0  0  0
   -8.3540   14.6250    1.3690 C   0  0  0  0  0  0  0  0  0  0  0  0
   -7.4960   14.5440    0.3540 N   0  0  0  0  0  0  0  0  0  0  0  0
   -6.2630   14.7360    0.9220 N   0  0  0  0  0  0  0  0  0  0  0  0
   -5.1170   14.7300    0.0940 C   0  0  0  0  0  0  0  0  0  0  0  0
   -3.8250   14.6670    0.6590 C   0  0  0  0  0  0  0  0  0  0  0  0
   -5.2630   14.7970   -1.2780 C   0  0  0  0  0  0  0  0  0  0  0  0
   -6.5250   14.8660   -1.8020 O   0  0  0  0  0  0  0  0  0  0  0  0
   -2.6970   14.6660   -0.1660 C   0  0  0  0  0  0  0  0  0  0  0  0
   -4.1410   14.7950   -2.1190 C   0  0  0  0  0  0  0  0  0  0  0  0
   -2.8620   14.7270   -1.5540 C   0  0  0  0  0  0  0  0  0  0  0  0
   -1.6600   14.7160   -2.4070 C   0  0  0  0  0  0  0  0  0  0  0  0
   -1.9360   14.7190   -3.7290 O   0  0  0  0  0  0  0  0  0  0  0  0
   -0.5380   14.7070   -1.9480 O   0  0  0  0  0  0  0  0  0  0  0  0
  1  2  1  0
  1  3  1  0
  3  4  1  0
  4  5  2  0
  4  6  1  0
  6  7  2  0
  5  8  1  0
  7  8  1  0
  8  9  1  0
  9 10  2  0
  9 11  1  0
 11 12  1  0
 10 13  1  0
 11 14  2  0
 13 15  2  0
 14 15  1  0
 15 16  1  0
 16 17  1  0
 16 18  2  0
M  END
