diamond-x0626_0_A-mac-x0182
     RDKit          3D

 25 27  0  0  0  0  0  0  0  0999 V2000
   -4.8990   14.9950    1.4660 N   0  0  0  0  0  0  0  0  0  0  0  0
   -6.0670   14.7580    0.8030 C   0  0  0  0  0  0  0  0  0  0  0  0
   -6.0980   14.8970   -0.4260 O   0  0  0  0  0  0  0  0  0  0  0  0
   -3.6650   14.7960    0.9370 C   0  0  0  0  0  0  0  0  0  0  0  0
   -7.2960   14.3370    1.5880 C   0  0  0  0  0  0  0  0  0  0  0  0
   -2.4890   14.7930    1.5220 N   0  0  0  0  0  0  0  0  0  0  0  0
   -3.6910   14.4940   -0.7340 S   0  0  0  0  0  0  0  0  0  0  0  0
   -8.5880   14.6580    0.8510 C   0  0  0  0  0  0  0  0  0  0  0  0
   -1.9900   14.3060   -0.7060 C   0  0  0  0  0  0  0  0  0  0  0  0
   -1.5160   14.5100    0.5830 C   0  0  0  0  0  0  0  0  0  0  0  0
   -0.1190   14.4500    1.0620 C   0  0  0  0  0  0  0  0  0  0  0  0
   -1.2980   13.9540   -1.9920 C   0  0  0  0  0  0  0  0  0  0  0  0
   -1.6700   12.5040   -2.3650 C   0  0  0  0  0  0  0  0  0  0  0  0
   -1.6050   12.2260   -3.8160 N   0  0  0  0  0  0  0  0  0  0  0  0
   -0.5850   11.1700   -4.2060 S   0  0  2  0  0  0  0  0  0  0  0  0
    0.1530   10.3330   -3.2990 O   0  0  0  0  0  0  0  0  0  0  0  0
    0.5600   12.0700   -5.0340 N   0  0  0  0  0  0  0  0  0  0  0  0
   -1.0780   10.2320   -5.5880 C   0  0  0  0  0  0  0  0  0  0  0  0
    0.7790   11.5610   -6.2840 C   0  0  0  0  0  0  0  0  0  0  0  0
   -0.2420   10.5480   -6.6510 C   0  0  0  0  0  0  0  0  0  0  0  0
   -2.1030    9.3130   -5.6860 C   0  0  0  0  0  0  0  0  0  0  0  0
    1.6980   11.8610   -6.9970 O   0  0  0  0  0  0  0  0  0  0  0  0
   -2.2800    8.6890   -6.9260 C   0  0  0  0  0  0  0  0  0  0  0  0
   -0.4080    9.9360   -7.8830 C   0  0  0  0  0  0  0  0  0  0  0  0
   -1.4400    8.9970   -8.0170 C   0  0  0  0  0  0  0  0  0  0  0  0
  1  2  1  0
  2  3  2  0
  1  4  1  0
  2  5  1  0
  4  6  2  0
  4  7  1  0
  5  8  1  0
  7  9  1  0
  6 10  1  0
  9 10  2  0
 10 11  1  0
  9 12  1  0
 12 13  1  0
 13 14  1  0
 14 15  2  0
 15 16  2  0
 15 17  1  6
 15 18  1  0
 17 19  1  0
 18 20  2  0
 19 20  1  0
 18 21  1  0
 19 22  2  0
 21 23  2  0
 20 24  1  0
 23 25  1  0
 24 25  2  0
M  END
