diamond-x0962_2_B-diamond-x0724_0_A
     RDKit          3D

 21 23  0  0  0  0  0  0  0  0999 V2000
  -10.6920   16.3330    1.0110 N   0  0  0  0  0  0  0  0  0  0  0  0
  -10.1470   16.2560    2.0290 C   0  0  0  0  0  0  0  0  0  0  0  0
   -9.4700   16.1030    3.2620 C   0  0  0  0  0  0  0  0  0  0  0  0
   -9.3910   17.0190    4.2600 N   0  0  0  0  0  0  0  0  0  0  0  0
   -8.7640   15.0370    3.7180 C   0  0  0  0  0  0  0  0  0  0  0  0
   -8.5110   13.7690    3.0470 C   0  0  2  0  0  0  0  0  0  0  0  0
   -8.6450   16.4680    5.2650 C   0  0  0  0  0  0  0  0  0  0  0  0
   -8.2530   15.2700    4.9700 N   0  0  0  0  0  0  0  0  0  0  0  0
   -7.7020   12.9670    3.9690 N   0  0  0  0  0  0  0  0  0  0  0  0
   -7.7930   14.1460    1.8070 C   0  0  0  0  0  0  0  0  0  0  0  0
   -8.1690   13.0500    5.3560 C   0  0  0  0  0  0  0  0  0  0  0  0
   -6.4620   14.0790    1.5370 C   0  0  0  0  0  0  0  0  0  0  0  0
   -8.3330   14.6720    0.6200 C   0  0  0  0  0  0  0  0  0  0  0  0
   -7.4070   14.9160   -0.3070 N   0  0  0  0  0  0  0  0  0  0  0  0
   -6.2490   14.5460    0.2850 N   0  0  0  0  0  0  0  0  0  0  0  0
   -4.9950   14.6410   -0.3420 C   0  0  0  0  0  0  0  0  0  0  0  0
   -3.8460   14.7150    0.4640 C   0  0  0  0  0  0  0  0  0  0  0  0
   -4.8780   14.6570   -1.7300 C   0  0  0  0  0  0  0  0  0  0  0  0
   -2.5900   14.8000   -0.1250 C   0  0  0  0  0  0  0  0  0  0  0  0
   -3.6180   14.7430   -2.3130 C   0  0  0  0  0  0  0  0  0  0  0  0
   -2.4790   14.8120   -1.5150 C   0  0  0  0  0  0  0  0  0  0  0  0
  1  2  3  0
  2  3  1  0
  3  4  1  0
  3  5  2  0
  5  6  1  0
  4  7  1  0
  5  8  1  0
  7  8  2  0
  6  9  1  1
  6 10  1  0
  9 11  1  0
 10 12  2  0
 10 13  1  0
 13 14  2  0
 12 15  1  0
 14 15  1  0
 15 16  1  0
 16 17  2  0
 16 18  1  0
 17 19  1  0
 18 20  2  0
 19 21  2  0
 20 21  1  0
M  END
