diamond-x0216_0_A-diamond-x0933_4_B
     RDKit          3D

 21 23  0  0  0  0  0  0  0  0999 V2000
   18.0320   28.8320    6.2310 N   0  0  0  0  0  0  0  0  0  0  0  0
   16.8830   28.7500    7.0890 C   0  0  1  0  0  0  0  0  0  0  0  0
   16.9880   29.5800    8.3640 C   0  0  1  0  0  0  0  0  0  0  0  0
   19.0890   28.0720    6.5810 C   0  0  0  0  0  0  0  0  0  0  0  0
   19.3670   27.8760    7.7610 O   0  0  0  0  0  0  0  0  0  0  0  0
   19.8180   27.5240    5.5580 N   0  0  0  0  0  0  0  0  0  0  0  0
   15.6660   29.3650    6.4230 C   0  0  0  0  0  0  0  0  0  0  0  0
   14.9460   30.0440    7.5820 C   0  0  0  0  0  0  0  0  0  0  0  0
   19.3960   27.5090    4.1530 C   0  0  0  0  0  0  0  0  0  0  0  0
   20.9670   26.7120    5.9340 C   0  0  2  0  0  0  0  0  0  0  0  0
   18.3180   30.0800    8.8290 C   0  0  0  0  0  0  0  0  0  0  0  0
   16.1020   30.7710    8.0990 C   0  0  2  0  0  0  0  0  0  0  0  0
   22.2680   27.5220    6.0600 C   0  0  0  0  0  0  0  0  0  0  0  0
   21.2290   25.4860    5.0510 C   0  0  0  0  0  0  0  0  0  0  0  0
   18.3340   31.5430    8.8920 N   0  0  0  0  0  0  0  0  0  0  0  0
   16.6660   31.7600    7.1860 N   0  0  0  0  0  0  0  0  0  0  0  0
   22.8320   27.5890    4.6560 C   0  0  0  0  0  0  0  0  0  0  0  0
   22.6430   25.9240    4.0540 S   0  0  0  0  0  0  0  0  0  0  0  0
   17.9450   32.2070    7.6570 C   0  0  0  0  0  0  0  0  0  0  0  0
   22.2230   25.9940    2.6700 O   0  0  0  0  0  0  0  0  0  0  0  0
   23.7870   25.1440    4.4740 O   0  0  0  0  0  0  0  0  0  0  0  0
  2  1  1  6
  2  3  1  0
  1  4  1  0
  4  5  2  0
  4  6  1  0
  2  7  1  0
  7  8  1  0
  6  9  1  0
 10  6  1  6
  3 11  1  6
  3 12  1  0
 12  8  1  6
 10 13  1  0
 10 14  1  0
 11 15  1  0
 12 16  1  0
 13 17  1  0
 18 14  1  0
 17 18  1  0
 15 19  1  0
 16 19  1  0
 18 20  2  0
 18 21  2  0
M  END
