diamond-x0727_0_A-diamond-x0159_0_B
     RDKit          3D

 32 35  0  0  0  0  0  0  0  0999 V2000
    0.0730   11.4020   -5.7080 N   0  0  0  0  0  0  0  0  0  0  0  0
    0.8640   12.3150   -4.8710 C   0  0  1  0  0  0  0  0  0  0  0  0
    0.4290   13.7550   -5.0900 C   0  0  0  0  0  0  0  0  0  0  0  0
    0.6280   10.9250   -6.8780 C   0  0  0  0  0  0  0  0  0  0  0  0
    1.3910   11.5930   -7.5140 O   0  0  0  0  0  0  0  0  0  0  0  0
    0.6830   11.9020   -3.4050 C   0  0  0  0  0  0  0  0  0  0  0  0
    0.2560    9.4940   -7.2540 C   0  0  2  0  0  0  0  0  0  0  0  0
    0.0820   10.9090   -3.0170 O   0  0  0  0  0  0  0  0  0  0  0  0
    1.2580   12.7460   -2.5290 O   0  0  0  0  0  0  0  0  0  0  0  0
   -0.5200    9.2900   -8.5460 C   0  0  2  0  0  0  0  0  0  0  0  0
   -0.5980    8.7520   -6.2400 C   0  0  0  0  0  0  0  0  0  0  0  0
    0.1610    9.9760   -9.7570 C   0  0  0  0  0  0  0  0  0  0  0  0
   -1.8890    9.7540   -8.0560 C   0  0  0  0  0  0  0  0  0  0  0  0
   -2.0290    8.9760   -6.7370 C   0  0  0  0  0  0  0  0  0  0  0  0
    1.3190    9.1590  -10.1840 N   0  0  0  0  0  0  0  0  0  0  0  0
    1.7710    8.0780   -9.2950 C   0  0  0  0  0  0  0  0  0  0  0  0
    2.1130    9.4410  -11.2420 C   0  0  0  0  0  0  0  0  0  0  0  0
    0.9260    6.8180   -9.4780 C   0  0  0  0  0  0  0  0  0  0  0  0
    1.9630   10.5820  -11.9770 N   0  0  0  0  0  0  0  0  0  0  0  0
    3.1080    8.7140  -11.7200 N   0  0  0  0  0  0  0  0  0  0  0  0
    3.6100    9.4170  -12.7860 C   0  0  0  0  0  0  0  0  0  0  0  0
    2.9040   10.6000  -12.9680 C   0  0  0  0  0  0  0  0  0  0  0  0
    1.3660    5.6760   -8.6090 C   0  0  0  0  0  0  0  0  0  0  0  0
    2.3100    4.7700   -9.0980 C   0  0  0  0  0  0  0  0  0  0  0  0
    0.8440    5.5110   -7.3300 C   0  0  0  0  0  0  0  0  0  0  0  0
    3.1850   11.5240  -13.9700 C   0  0  0  0  0  0  0  0  0  0  0  0
    4.6700    9.1210  -13.6540 C   0  0  0  0  0  0  0  0  0  0  0  0
    2.7300    3.7070   -8.3130 C   0  0  0  0  0  0  0  0  0  0  0  0
    1.2680    4.4450   -6.5490 C   0  0  0  0  0  0  0  0  0  0  0  0
    4.2430   11.2150  -14.8240 C   0  0  0  0  0  0  0  0  0  0  0  0
    4.9760   10.0320  -14.6720 C   0  0  0  0  0  0  0  0  0  0  0  0
    2.2140    3.5480   -7.0480 C   0  0  0  0  0  0  0  0  0  0  0  0
  1  2  1  0
  2  3  1  1
  1  4  1  0
  4  5  2  0
  2  6  1  0
  7  4  1  1
  6  8  2  0
  6  9  1  0
  7 10  1  0
  7 11  1  0
 10 12  1  6
 10 13  1  0
 11 14  1  0
 13 14  1  0
 12 15  1  0
 15 16  1  0
 15 17  1  0
 16 18  1  0
 17 19  1  0
 17 20  2  0
 20 21  1  0
 19 22  1  0
 21 22  2  0
 18 23  1  0
 23 24  2  0
 23 25  1  0
 22 26  1  0
 21 27  1  0
 24 28  1  0
 25 29  2  0
 26 30  2  0
 27 31  2  0
 30 31  1  0
 28 32  2  0
 29 32  1  0
M  END
