diamond-x0962_0_A-diamond-x0933_0_A
     RDKit          3D

  8  8  0  0  0  0  0  0  0  0999 V2000
   -2.6290   14.9180   -2.7000 N   0  0  0  0  0  0  0  0  0  0  0  0
   -3.2130   14.9660   -1.7010 C   0  0  0  0  0  0  0  0  0  0  0  0
   -3.8690   15.0080   -0.4390 C   0  0  0  0  0  0  0  0  0  0  0  0
   -3.1490   15.2660    0.6980 N   0  0  0  0  0  0  0  0  0  0  0  0
   -5.2060   14.8090   -0.1640 C   0  0  0  0  0  0  0  0  0  0  0  0
   -4.0370   15.2340    1.6490 C   0  0  0  0  0  0  0  0  0  0  0  0
   -5.2780   14.9520    1.1810 N   0  0  0  0  0  0  0  0  0  0  0  0
   -6.4020   14.8330    1.9960 N   0  0  0  0  0  0  0  0  0  0  0  0
  1  2  3  0
  2  3  1  0
  3  4  1  0
  3  5  2  0
  4  6  2  0
  5  7  1  0
  6  7  1  0
  7  8  1  0
M  END
