diamond-x0962_1_A-diamond-x1015_0_A
     RDKit          3D

 25 27  0  0  0  0  0  0  0  0999 V2000
   -4.1360   15.8170   -1.5960 N   0  0  0  0  0  0  0  0  0  0  0  0
   -4.3180   14.5440   -0.9620 C   0  0  1  0  0  0  0  0  0  0  0  0
   -3.0080   14.0100   -0.3700 C   0  0  0  0  0  0  0  0  0  0  0  0
   -5.5020   14.5670   -0.0590 C   0  0  0  0  0  0  0  0  0  0  0  0
   -1.8840   13.8710   -1.4100 C   0  0  0  0  0  0  0  0  0  0  0  0
   -5.4090   14.6020    1.3090 N   0  0  0  0  0  0  0  0  0  0  0  0
   -6.8620   14.5560   -0.3020 C   0  0  0  0  0  0  0  0  0  0  0  0
   -2.4220   13.9180   -2.8570 C   0  0  0  0  0  0  0  0  0  0  0  0
   -6.6730   14.6030    1.8200 C   0  0  0  0  0  0  0  0  0  0  0  0
   -7.5760   14.5770    0.8670 N   0  0  0  0  0  0  0  0  0  0  0  0
   -1.4100   14.3360   -3.9390 C   0  0  0  0  0  0  0  0  0  0  0  0
   -0.0330   13.6660   -3.8990 C   0  0  2  0  0  0  0  0  0  0  0  0
   -0.0180   12.2110   -3.9250 N   0  0  0  0  0  0  0  0  0  0  0  0
    0.6210   13.9220   -2.5530 C   0  0  0  0  0  0  0  0  0  0  0  0
    1.0210   14.9990   -2.1370 O   0  0  0  0  0  0  0  0  0  0  0  0
    0.3220   11.7000   -2.6610 C   0  0  0  0  0  0  0  0  0  0  0  0
    0.6960   12.7540   -1.8780 N   0  0  0  0  0  0  0  0  0  0  0  0
   -0.4390   11.4330   -5.0330 C   0  0  0  0  0  0  0  0  0  0  0  0
    0.3090   10.5330   -2.2680 O   0  0  0  0  0  0  0  0  0  0  0  0
    0.1020   11.6290   -6.3120 C   0  0  0  0  0  0  0  0  0  0  0  0
   -1.4140   10.4340   -4.8780 C   0  0  0  0  0  0  0  0  0  0  0  0
   -0.3150   10.8550   -7.4000 C   0  0  0  0  0  0  0  0  0  0  0  0
   -1.8340    9.6580   -5.9620 C   0  0  0  0  0  0  0  0  0  0  0  0
   -1.2810    9.8720   -7.2210 C   0  0  0  0  0  0  0  0  0  0  0  0
   -1.7990    8.9150   -8.5510 Cl  0  0  0  0  0  0  0  0  0  0  0  0
  2  1  1  1
  2  3  1  0
  2  4  1  0
  3  5  1  0
  4  6  1  0
  4  7  2  0
  5  8  1  0
  6  9  1  0
  7 10  1  0
  9 10  2  0
  8 11  1  0
 12 11  1  1
 12 13  1  0
 12 14  1  0
 14 15  2  0
 13 16  1  0
 14 17  1  0
 16 17  1  0
 13 18  1  0
 16 19  2  0
 18 20  2  0
 18 21  1  0
 20 22  1  0
 21 23  2  0
 22 24  2  0
 23 24  1  0
 24 25  1  0
M  END
