diamond-x0852_0_B-mac-x0361
     RDKit          3D

 22 23  0  0  0  0  0  0  0  0999 V2000
   -9.7500   17.8230    7.1410 N   0  0  0  0  0  0  0  0  0  0  0  0
   -9.4850   17.2970    6.1380 C   0  0  0  0  0  0  0  0  0  0  0  0
   -9.1900   16.5700    4.9430 C   0  0  0  0  0  0  0  0  0  0  0  0
   -8.2530   15.5300    4.9450 C   0  0  0  0  0  0  0  0  0  0  0  0
   -9.8540   16.9020    3.7440 C   0  0  0  0  0  0  0  0  0  0  0  0
   -7.5430   15.1190    6.0440 O   0  0  0  0  0  0  0  0  0  0  0  0
   -7.9890   14.8330    3.7760 C   0  0  0  0  0  0  0  0  0  0  0  0
   -9.5840   16.1940    2.5600 C   0  0  0  0  0  0  0  0  0  0  0  0
  -10.2770   16.5890    1.4400 O   0  0  0  0  0  0  0  0  0  0  0  0
   -8.6490   15.1620    2.5970 C   0  0  0  0  0  0  0  0  0  0  0  0
   -9.7110   16.2390    0.1600 C   0  0  0  0  0  0  0  0  0  0  0  0
   -9.0380   14.8530    0.2190 C   0  0  0  0  0  0  0  0  0  0  0  0
   -7.7130   14.8840   -0.4080 N   0  0  0  0  0  0  0  0  0  0  0  0
   -6.5740   14.8260    0.2030 C   0  0  0  0  0  0  0  0  0  0  0  0
   -6.3540   14.7150    1.5620 N   0  0  0  0  0  0  0  0  0  0  0  0
   -5.3780   14.9040   -0.7050 C   0  0  0  0  0  0  0  0  0  0  0  0
   -4.0820   14.8090   -0.1880 C   0  0  0  0  0  0  0  0  0  0  0  0
   -5.5680   15.0720   -2.0790 C   0  0  0  0  0  0  0  0  0  0  0  0
   -2.9840   14.8790   -1.0520 C   0  0  0  0  0  0  0  0  0  0  0  0
   -4.4690   15.1400   -2.9360 C   0  0  0  0  0  0  0  0  0  0  0  0
   -3.1910   15.0450   -2.4190 C   0  0  0  0  0  0  0  0  0  0  0  0
   -2.1000   15.1100   -3.2360 O   0  0  0  0  0  0  0  0  0  0  0  0
  1  2  3  0
  2  3  1  0
  3  4  2  0
  3  5  1  0
  4  6  1  0
  4  7  1  0
  5  8  2  0
  8  9  1  0
  7 10  2  0
  8 10  1  0
  9 11  1  0
 11 12  1  0
 12 13  1  0
 13 14  2  3
 14 15  1  0
 14 16  1  0
 16 17  2  0
 16 18  1  0
 17 19  1  0
 18 20  2  0
 19 21  2  0
 20 21  1  0
 21 22  1  0
M  END
