diamond-x0727_0_A-mac-x0132
     RDKit          3D

 27 29  0  0  0  0  0  0  0  0999 V2000
    0.1150   11.7630   -5.5250 N   0  0  0  0  0  0  0  0  0  0  0  0
    1.0050   12.5630   -4.7060 C   0  0  1  0  0  0  0  0  0  0  0  0
    0.5680   14.0250   -4.8000 C   0  0  0  0  0  0  0  0  0  0  0  0
    0.4830   11.1400   -6.6790 C   0  0  0  0  0  0  0  0  0  0  0  0
    1.5000   11.3650   -7.3080 O   0  0  0  0  0  0  0  0  0  0  0  0
    0.8800   12.0150   -3.2850 C   0  0  0  0  0  0  0  0  0  0  0  0
   -0.5520   10.1080   -7.0590 C   0  0  0  0  0  0  0  0  0  0  0  0
    0.3180   10.9750   -2.9710 O   0  0  0  0  0  0  0  0  0  0  0  0
    1.4630   12.7890   -2.3510 O   0  0  0  0  0  0  0  0  0  0  0  0
   -0.9640   14.1870   -4.8220 C   0  0  0  0  0  0  0  0  0  0  0  0
   -1.0010   10.0380   -8.5000 C   0  0  0  0  0  0  0  0  0  0  0  0
   -0.2240    8.6640   -6.7460 C   0  0  0  0  0  0  0  0  0  0  0  0
   -1.4330   15.3190   -3.9040 C   0  0  0  0  0  0  0  0  0  0  0  0
   -1.9650    8.8510   -8.4310 C   0  0  0  0  0  0  0  0  0  0  0  0
   -1.4840    7.9860   -7.2500 C   0  0  0  0  0  0  0  0  0  0  0  0
   -1.7180   14.8090   -2.4850 C   0  0  0  0  0  0  0  0  0  0  0  0
   -3.1700   14.8270   -2.0620 C   0  0  0  0  0  0  0  0  0  0  0  0
   -4.2060   14.7930   -2.9950 C   0  0  0  0  0  0  0  0  0  0  0  0
   -3.5060   14.8630   -0.7090 C   0  0  0  0  0  0  0  0  0  0  0  0
   -4.8550   14.8420   -0.2970 C   0  0  0  0  0  0  0  0  0  0  0  0
   -5.5410   14.7760   -2.5690 C   0  0  0  0  0  0  0  0  0  0  0  0
   -5.2490   14.8640    1.0270 C   0  0  0  0  0  0  0  0  0  0  0  0
   -5.8860   14.7890   -1.2250 C   0  0  0  0  0  0  0  0  0  0  0  0
   -4.2910   14.9430    2.0220 N   0  0  0  0  0  0  0  0  0  0  0  0
   -7.1780   14.7470   -0.8670 N   0  0  0  0  0  0  0  0  0  0  0  0
   -6.5300   14.8140    1.4270 N   0  0  0  0  0  0  0  0  0  0  0  0
   -7.4370   14.7530    0.4470 C   0  0  0  0  0  0  0  0  0  0  0  0
  1  2  1  0
  2  3  1  1
  1  4  1  0
  4  5  2  0
  2  6  1  0
  4  7  1  0
  6  8  2  0
  6  9  1  0
  3 10  1  0
  7 11  1  0
  7 12  1  0
 10 13  1  0
 11 14  1  0
 12 15  1  0
 14 15  1  0
 13 16  1  0
 16 17  1  0
 17 18  2  0
 17 19  1  0
 19 20  2  0
 18 21  1  0
 20 22  1  0
 20 23  1  0
 21 23  2  0
 22 24  1  0
 23 25  1  0
 22 26  2  0
 25 27  2  0
 26 27  1  0
M  END
