diamond-x0711_0_A-mac-x0546
     RDKit          3D

 27 29  0  0  0  0  0  0  0  0999 V2000
   -1.3390   14.6080   -1.9970 N   0  0  0  0  0  0  0  0  0  0  0  0
   -0.8650   13.5680   -3.0650 S   0  0  0  0  0  0  0  0  0  0  0  0
    0.3410   13.4890   -4.0180 C   0  0  0  0  0  0  0  0  0  0  0  0
   -2.6520   14.6540   -1.4420 C   0  0  0  0  0  0  0  0  0  0  0  0
   -2.2230   12.5060   -3.6930 O   0  0  0  0  0  0  0  0  0  0  0  0
   -0.5090   12.4070   -2.3180 N   0  0  0  0  0  0  0  0  0  0  0  0
   -3.7940   15.0100   -2.1710 C   0  0  0  0  0  0  0  0  0  0  0  0
   -2.8690   14.3460   -0.1390 C   0  0  0  0  0  0  0  0  0  0  0  0
    0.1390   11.3940   -2.6830 C   0  0  0  0  0  0  0  0  0  0  0  0
   -5.0600   15.0410   -1.6130 C   0  0  0  0  0  0  0  0  0  0  0  0
   -4.1150   14.3720    0.4220 C   0  0  0  0  0  0  0  0  0  0  0  0
    0.6300   14.8180   -4.3130 C   0  0  0  0  0  0  0  0  0  0  0  0
    0.3780   10.3670   -1.8270 O   0  0  0  0  0  0  0  0  0  0  0  0
   -5.2160   14.7110   -0.2940 C   0  0  0  0  0  0  0  0  0  0  0  0
   -0.2660   15.6400   -4.9820 C   0  0  1  0  0  0  0  0  0  0  0  0
    1.6740   15.5430   -4.0270 C   0  0  0  0  0  0  0  0  0  0  0  0
   -6.5160   14.7030    0.3810 C   0  0  0  0  0  0  0  0  0  0  0  0
   -1.6700   15.4830   -5.1360 C   0  0  0  0  0  0  0  0  0  0  0  0
    0.2370   16.9600   -5.0120 C   0  0  0  0  0  0  0  0  0  0  0  0
    1.3950   16.8670   -4.4670 N   0  0  0  0  0  0  0  0  0  0  0  0
   -6.6210   14.6490    1.7880 N   0  0  0  0  0  0  0  0  0  0  0  0
   -7.5750   14.7370   -0.2920 O   0  0  0  0  0  0  0  0  0  0  0  0
   -2.3550   16.5320   -5.5450 C   0  0  0  0  0  0  0  0  0  0  0  0
   -0.5040   18.0460   -5.5710 C   0  0  0  0  0  0  0  0  0  0  0  0
   -3.7420   16.3780   -5.7290 O   0  0  0  0  0  0  0  0  0  0  0  0
   -1.8010   17.8430   -5.8380 C   0  0  0  0  0  0  0  0  0  0  0  0
   -4.2110   15.0440   -5.9460 C   0  0  0  0  0  0  0  0  0  0  0  0
  1  2  1  0
  2  3  1  0
  1  4  1  0
  2  5  2  0
  2  6  1  0
  4  7  2  0
  4  8  1  0
  6  9  2  3
  7 10  1  0
  8 11  2  0
  3 12  1  0
  9 13  1  0
 10 14  2  0
 11 14  1  0
 12 15  1  0
 12 16  2  0
 14 17  1  0
 15 18  1  1
 15 19  1  0
 16 20  1  0
 19 20  2  0
 17 21  1  0
 17 22  2  0
 18 23  2  0
 19 24  1  0
 23 25  1  0
 23 26  1  0
 24 26  2  0
 25 27  1  0
M  END
