diamond-x0724_0_A-mac-x0415
     RDKit          3D

 30 33  0  0  0  0  0  0  0  0999 V2000
   -8.6380   13.8030    4.3010 N   0  0  0  0  0  0  0  0  0  0  0  0
   -8.4770   13.9090    5.7440 C   0  0  0  0  0  0  0  0  0  0  0  0
   -8.3760   15.0880    3.6580 C   0  0  0  0  0  0  0  0  0  0  0  0
   -7.7670   14.8510    2.3200 C   0  0  0  0  0  0  0  0  0  0  0  0
   -6.4360   14.9120    1.9820 C   0  0  0  0  0  0  0  0  0  0  0  0
   -8.3900   14.5250    1.0970 C   0  0  0  0  0  0  0  0  0  0  0  0
   -7.5230   14.3970    0.0860 N   0  0  0  0  0  0  0  0  0  0  0  0
   -6.3060   14.6400    0.6470 N   0  0  0  0  0  0  0  0  0  0  0  0
   -5.0910   14.6090   -0.0910 C   0  0  0  0  0  0  0  0  0  0  0  0
   -3.9100   14.9790    0.5690 C   0  0  0  0  0  0  0  0  0  0  0  0
   -5.0380   14.2170   -1.4410 C   0  0  0  0  0  0  0  0  0  0  0  0
   -2.6970   14.9560   -0.1080 C   0  0  0  0  0  0  0  0  0  0  0  0
   -3.8100   14.1900   -2.1300 C   0  0  0  0  0  0  0  0  0  0  0  0
   -3.7160   13.7480   -3.5850 C   0  0  0  0  0  0  0  0  0  0  0  0
   -2.6460   14.5660   -1.4470 C   0  0  0  0  0  0  0  0  0  0  0  0
   -4.5870   14.5060   -4.5960 C   0  0  0  0  0  0  0  0  0  0  0  0
   -3.8070   15.2940   -5.5180 O   0  0  0  0  0  0  0  0  0  0  0  0
   -2.4660   15.4270   -5.2620 C   0  0  0  0  0  0  0  0  0  0  0  0
   -2.1200   16.7880   -4.8560 C   0  0  0  0  0  0  0  0  0  0  0  0
   -1.5080   14.4700   -5.3310 C   0  0  0  0  0  0  0  0  0  0  0  0
   -0.1780   14.8520   -4.9580 C   0  0  0  0  0  0  0  0  0  0  0  0
   -0.8680   17.2290   -4.7720 C   0  0  0  0  0  0  0  0  0  0  0  0
    0.8400   14.1300   -4.4900 C   0  0  0  0  0  0  0  0  0  0  0  0
    0.1930   16.2880   -5.1220 C   0  0  1  0  0  0  0  0  0  0  0  0
    1.0480   12.6900   -4.2210 C   0  0  0  0  0  0  0  0  0  0  0  0
    1.8030   15.1940   -4.2090 C   0  0  0  0  0  0  0  0  0  0  0  0
    1.4680   16.4120   -4.4910 N   0  0  0  0  0  0  0  0  0  0  0  0
    0.7420   12.2540   -2.8050 C   0  0  0  0  0  0  0  0  0  0  0  0
    0.0420   11.0960   -2.7620 O   0  0  0  0  0  0  0  0  0  0  0  0
    1.0710   12.8420   -1.7940 O   0  0  0  0  0  0  0  0  0  0  0  0
  1  2  1  0
  1  3  1  0
  3  4  1  0
  4  5  2  0
  4  6  1  0
  6  7  2  0
  5  8  1  0
  7  8  1  0
  8  9  1  0
  9 10  2  0
  9 11  1  0
 10 12  1  0
 11 13  2  0
 13 14  1  0
 12 15  2  0
 13 15  1  0
 14 16  1  0
 16 17  1  0
 17 18  1  0
 18 19  1  0
 18 20  2  0
 20 21  1  0
 19 22  2  0
 21 23  2  0
 21 24  1  0
 24 22  1  1
 23 25  1  0
 23 26  1  0
 24 27  1  0
 26 27  2  0
 25 28  1  0
 28 29  1  0
 28 30  2  0
M  END
