diamond-x0967_0_A-mac-x0555
     RDKit          3D

 11 12  0  0  0  0  0  0  0  0999 V2000
   -7.7580   14.4110    2.9840 N   0  0  0  0  0  0  0  0  0  0  0  0
   -7.1250   14.5390    1.7550 C   0  0  0  0  0  0  0  0  0  0  0  0
   -5.7590   14.6830    1.7470 C   0  0  0  0  0  0  0  0  0  0  0  0
   -7.7510   14.5310    0.5170 C   0  0  0  0  0  0  0  0  0  0  0  0
   -7.1030   14.6510   -0.6710 N   0  0  0  0  0  0  0  0  0  0  0  0
   -5.0590   14.8010    0.5550 C   0  0  0  0  0  0  0  0  0  0  0  0
   -5.7710   14.7810   -0.6580 C   0  0  0  0  0  0  0  0  0  0  0  0
   -3.6730   14.9340    0.5510 C   0  0  0  0  0  0  0  0  0  0  0  0
   -5.1250   14.8900   -1.8160 N   0  0  0  0  0  0  0  0  0  0  0  0
   -3.0160   15.0410   -0.6550 C   0  0  0  0  0  0  0  0  0  0  0  0
   -3.7820   15.0160   -1.8040 C   0  0  0  0  0  0  0  0  0  0  0  0
  1  2  1  0
  2  3  2  0
  2  4  1  0
  4  5  2  0
  3  6  1  0
  5  7  1  0
  6  7  2  0
  6  8  1  0
  7  9  1  0
  8 10  2  0
  9 11  2  0
 10 11  1  0
M  END
