diamond-x1018_0_A-diamond-x0104_0_A
     RDKit          3D

 20 23  0  0  0  0  0  0  0  0999 V2000
   -8.0280   14.6690    1.2340 N   0  0  0  0  0  0  0  0  0  0  0  0
   -7.8760   15.0270    2.6710 C   0  0  2  0  0  0  0  0  0  0  0  0
   -6.4440   14.9630    2.8410 N   0  0  0  0  0  0  0  0  0  0  0  0
   -6.7310   14.6760    0.6140 C   0  0  0  0  0  0  0  0  0  0  0  0
   -8.5010   14.2430    3.7030 N   0  0  0  0  0  0  0  0  0  0  0  0
   -6.2240   14.6010   -0.7290 N   0  0  0  0  0  0  0  0  0  0  0  0
   -5.8180   14.8090    1.6120 C   0  0  0  0  0  0  0  0  0  0  0  0
   -6.2270   13.4290   -1.4840 O   0  0  0  0  0  0  0  0  0  0  0  0
   -5.0230   15.2550   -0.8660 N   0  0  0  0  0  0  0  0  0  0  0  0
   -4.3910   14.7940    1.3400 C   0  0  0  0  0  0  0  0  0  0  0  0
   -9.3210   14.6250    4.7470 C   0  0  0  0  0  0  0  0  0  0  0  0
   -5.1110   13.4910   -2.3890 C   0  0  0  0  0  0  0  0  0  0  0  0
   -4.4230   15.4720   -2.0840 N   0  0  0  0  0  0  0  0  0  0  0  0
   -4.0560   15.0060    0.0610 C   0  0  0  0  0  0  0  0  0  0  0  0
   -9.0720   14.9490    6.0790 C   0  0  0  0  0  0  0  0  0  0  0  0
  -11.0140   14.7410    4.4340 S   0  0  0  0  0  0  0  0  0  0  0  0
   -2.8920   15.0390   -0.6250 N   0  0  0  0  0  0  0  0  0  0  0  0
   -3.1850   15.1490   -1.9740 N   0  0  0  0  0  0  0  0  0  0  0  0
  -11.3860   15.2010    6.0360 C   0  0  0  0  0  0  0  0  0  0  0  0
  -10.2570   15.2780    6.8190 C   0  0  0  0  0  0  0  0  0  0  0  0
  1  2  1  0
  2  3  1  0
  1  4  1  0
  2  5  1  1
  4  6  1  0
  3  7  1  0
  4  7  2  0
  6  8  1  0
  6  9  1  0
  7 10  1  0
  5 11  1  0
  8 12  1  0
  9 13  1  0
  9 14  1  0
 10 14  2  0
 11 15  2  0
 11 16  1  0
 14 17  1  0
 13 18  2  0
 17 18  1  0
 16 19  1  0
 15 20  1  0
 19 20  2  0
M  END
