diamond-x0969_0_A-mac-x0546
     RDKit          3D

 27 30  0  0  0  0  0  0  0  0999 V2000
   -6.7010   14.8590    2.6850 N   0  0  0  0  0  0  0  0  0  0  0  0
   -6.6060   14.7620    1.3460 C   0  0  0  0  0  0  0  0  0  0  0  0
   -7.6060   14.5580    0.5200 N   0  0  0  0  0  0  0  0  0  0  0  0
   -5.4250   14.8780    0.6220 N   0  0  0  0  0  0  0  0  0  0  0  0
   -7.1160   14.5380   -0.7570 N   0  0  0  0  0  0  0  0  0  0  0  0
   -5.8200   14.7270   -0.6940 C   0  0  0  0  0  0  0  0  0  0  0  0
   -4.1030   15.0970    1.0020 C   0  0  0  0  0  0  0  0  0  0  0  0
   -4.8520   14.7900   -1.7310 C   0  0  0  0  0  0  0  0  0  0  0  0
   -3.1650   15.1620    0.0400 C   0  0  0  0  0  0  0  0  0  0  0  0
   -5.3290   14.5960   -3.1660 C   0  0  0  0  0  0  0  0  0  0  0  0
   -3.5600   15.0070   -1.3650 C   0  0  0  0  0  0  0  0  0  0  0  0
   -4.2600   14.3810   -4.2520 C   0  0  0  0  0  0  0  0  0  0  0  0
   -3.7960   15.5660   -5.0420 N   0  0  0  0  0  0  0  0  0  0  0  0
   -4.3240   15.4310   -6.3830 C   0  0  0  0  0  0  0  0  0  0  0  0
   -2.4580   15.8540   -4.8280 C   0  0  0  0  0  0  0  0  0  0  0  0
   -1.7480   14.8200   -4.4310 C   0  0  0  0  0  0  0  0  0  0  0  0
   -1.7980   17.1830   -4.9570 C   0  0  0  0  0  0  0  0  0  0  0  0
   -0.3620   14.9450   -4.0620 C   0  0  2  0  0  0  0  0  0  0  0  0
   -0.4480   17.3650   -4.8800 C   0  0  0  0  0  0  0  0  0  0  0  0
    0.3200   16.1210   -4.6810 C   0  0  0  0  0  0  0  0  0  0  0  0
    0.6710   13.9270   -4.3220 C   0  0  0  0  0  0  0  0  0  0  0  0
    0.5290   12.4680   -4.1170 C   0  0  0  0  0  0  0  0  0  0  0  0
    1.5550   15.9030   -4.9630 N   0  0  0  0  0  0  0  0  0  0  0  0
    1.7350   14.5510   -4.7410 C   0  0  0  0  0  0  0  0  0  0  0  0
    0.4450   12.0560   -2.6730 C   0  0  0  0  0  0  0  0  0  0  0  0
    0.8770   12.7240   -1.7530 O   0  0  0  0  0  0  0  0  0  0  0  0
   -0.1610   10.8640   -2.4900 O   0  0  0  0  0  0  0  0  0  0  0  0
  1  2  1  0
  2  3  2  0
  2  4  1  0
  3  5  1  0
  4  6  1  0
  5  6  2  0
  4  7  1  0
  6  8  1  0
  7  9  2  0
  8 10  1  0
  8 11  2  0
  9 11  1  0
 10 12  1  0
 12 13  1  0
 13 14  1  0
 13 15  1  0
 15 16  2  0
 15 17  1  0
 18 16  1  6
 17 19  2  0
 18 20  1  0
 19 20  1  0
 18 21  1  0
 21 22  1  0
 20 23  2  0
 21 24  2  0
 23 24  1  0
 22 25  1  0
 25 26  2  0
 25 27  1  0
M  END
