diamond-x0926_0_A-mac-x0588
     RDKit          3D

 17 19  0  0  0  0  0  0  0  0999 V2000
   -6.2840   14.9740   -0.9510 O   0  0  0  0  0  0  0  0  0  0  0  0
   -5.0760   15.1630   -0.7890 C   0  0  0  0  0  0  0  0  0  0  0  0
   -4.5470   15.4680    0.5590 C   0  0  0  0  0  0  0  0  0  0  0  0
   -4.1420   15.0970   -1.8270 N   0  0  0  0  0  0  0  0  0  0  0  0
   -2.7420   15.4540   -1.6830 N   0  0  0  0  0  0  0  0  0  0  0  0
   -3.2280   15.4950    0.7730 C   0  0  0  0  0  0  0  0  0  0  0  0
   -1.8450   15.1500   -2.8880 C   0  0  0  0  0  0  0  0  0  0  0  0
   -2.1990   15.2160   -0.3040 C   0  0  1  0  0  0  0  0  0  0  0  0
   -0.9540   16.3530   -3.4010 C   0  0  2  0  0  0  0  0  0  0  0  0
   -1.6820   13.8660   -0.0240 N   0  0  0  0  0  0  0  0  0  0  0  0
   -0.8830   16.0260   -0.1470 C   0  0  0  0  0  0  0  0  0  0  0  0
   -1.7540   17.3240   -4.1470 O   0  0  0  0  0  0  0  0  0  0  0  0
    0.1510   15.9730   -4.3970 C   0  0  0  0  0  0  0  0  0  0  0  0
    0.1730   15.0200   -0.1820 N   0  0  0  0  0  0  0  0  0  0  0  0
   -0.4520   14.1080    0.7110 C   0  0  0  0  0  0  0  0  0  0  0  0
    0.4470   17.3050   -5.0560 C   0  0  0  0  0  0  0  0  0  0  0  0
   -0.9420   17.8950   -5.1860 C   0  0  0  0  0  0  0  0  0  0  0  0
  1  2  2  0
  2  3  1  0
  2  4  1  0
  4  5  1  0
  3  6  2  0
  5  7  1  0
  5  8  1  0
  8  6  1  1
  9  7  1  6
  8 10  1  0
  8 11  1  0
  9 12  1  0
  9 13  1  0
 11 14  1  0
 10 15  1  0
 14 15  1  0
 13 16  1  0
 12 17  1  0
 16 17  1  0
M  END
