diamond-x0742_0_A-mac-x0587
     RDKit          3D

 26 28  0  0  0  0  0  0  0  0999 V2000
   -4.9080   12.2100   -1.2220 C   0  0  0  0  0  0  0  0  0  0  0  0
   -5.9160   12.0410   -0.0910 C   0  0  0  0  0  0  0  0  0  0  0  0
   -4.8850   11.3790   -2.1200 O   0  0  0  0  0  0  0  0  0  0  0  0
   -3.9540   13.4330   -1.1820 C   0  0  2  0  0  0  0  0  0  0  0  0
   -4.2760   14.2860    0.1000 C   0  0  2  0  0  0  0  0  0  0  0  0
   -4.1520   14.3320   -2.4370 C   0  0  2  0  0  0  0  0  0  0  0  0
   -2.5400   12.9970   -1.1830 C   0  0  0  0  0  0  0  0  0  0  0  0
   -2.9840   14.6480   -3.4980 C   0  0  0  0  0  0  0  0  0  0  0  0
   -2.0930   12.1080   -1.8490 O   0  0  0  0  0  0  0  0  0  0  0  0
   -4.4490   15.7070   -0.3410 C   0  0  0  0  0  0  0  0  0  0  0  0
   -1.6230   13.7160   -0.3790 C   0  0  0  0  0  0  0  0  0  0  0  0
   -3.3760   14.0580    1.3140 C   0  0  0  0  0  0  0  0  0  0  0  0
   -4.5410   15.6840   -1.8650 C   0  0  0  0  0  0  0  0  0  0  0  0
   -1.4690   14.2450   -3.4030 C   0  0  2  0  0  0  0  0  0  0  0  0
   -3.3140   15.2760   -4.5020 O   0  0  0  0  0  0  0  0  0  0  0  0
   -0.3770   13.8570   -0.9020 C   0  0  0  0  0  0  0  0  0  0  0  0
   -1.9760   14.2260    0.8360 C   0  0  0  0  0  0  0  0  0  0  0  0
   -0.4930   15.4240   -3.4840 C   0  0  0  0  0  0  0  0  0  0  0  0
   -0.9820   13.1060   -4.7660 S   0  0  0  0  0  0  0  0  0  0  0  0
   -1.0930   14.8790    1.5930 N   0  0  0  0  0  0  0  0  0  0  0  0
    0.5340   14.5210   -0.1810 C   0  0  0  0  0  0  0  0  0  0  0  0
   -0.7750   11.4780   -3.9510 C   0  0  0  0  0  0  0  0  0  0  0  0
    0.1430   15.0000    1.0410 C   0  0  0  0  0  0  0  0  0  0  0  0
    0.4490   11.3960   -3.0720 C   0  0  0  0  0  0  0  0  0  0  0  0
    0.7000   10.4930   -2.2830 O   0  0  0  0  0  0  0  0  0  0  0  0
    1.3100   12.4290   -3.2030 O   0  0  0  0  0  0  0  0  0  0  0  0
  1  2  1  0
  1  3  2  0
  4  1  1  6
  4  5  1  0
  4  6  1  0
  4  7  1  0
  6  8  1  1
  7  9  2  0
  5 10  1  6
  7 11  1  0
  5 12  1  0
  6 13  1  0
 10 13  1  0
  8 14  1  0
  8 15  2  0
 11 16  2  0
 11 17  1  0
 12 17  1  0
 14 18  1  6
 14 19  1  0
 17 20  2  0
 16 21  1  0
 19 22  1  0
 20 23  1  0
 21 23  2  0
 22 24  1  0
 24 25  2  0
 24 26  1  0
M  END
