diamond-x0742_0_A-mac-x0472
     RDKit          3D

 26 29  0  0  0  0  0  0  0  0999 V2000
   -6.2310   11.7220    0.5830 C   0  0  0  0  0  0  0  0  0  0  0  0
   -6.3510   11.7900    2.0730 C   0  0  0  0  0  0  0  0  0  0  0  0
   -6.8310   10.8330   -0.0340 O   0  0  0  0  0  0  0  0  0  0  0  0
   -5.4170   12.7770   -0.1940 C   0  0  2  0  0  0  0  0  0  0  0  0
   -5.3290   14.0140    0.7280 C   0  0  0  0  0  0  0  0  0  0  0  0
   -6.2600   12.9680   -1.4460 C   0  0  0  0  0  0  0  0  0  0  0  0
   -3.9930   12.4330   -0.8650 C   0  0  1  0  0  0  0  0  0  0  0  0
   -4.3100   11.7640   -2.1990 C   0  0  0  0  0  0  0  0  0  0  0  0
   -2.6780   13.2230   -0.4550 C   0  0  0  0  0  0  0  0  0  0  0  0
   -4.2960   14.7280   -0.0420 C   0  0  0  0  0  0  0  0  0  0  0  0
   -5.8420   11.7560   -2.2720 C   0  0  0  0  0  0  0  0  0  0  0  0
   -4.5570   15.7970   -0.9910 N   0  0  0  0  0  0  0  0  0  0  0  0
   -1.3110   12.8700   -0.5440 C   0  0  0  0  0  0  0  0  0  0  0  0
   -2.8830   14.4330    0.0800 C   0  0  0  0  0  0  0  0  0  0  0  0
   -4.4250   15.3950   -2.6480 S   0  0  0  0  0  0  0  0  0  0  0  0
   -1.9840   15.2850    0.6070 N   0  0  0  0  0  0  0  0  0  0  0  0
   -0.3170   13.7180   -0.0460 C   0  0  0  0  0  0  0  0  0  0  0  0
   -5.7710   15.2380   -3.1340 O   0  0  0  0  0  0  0  0  0  0  0  0
   -3.4920   16.3110   -3.2550 O   0  0  0  0  0  0  0  0  0  0  0  0
   -0.6980   14.9040    0.5340 C   0  0  0  0  0  0  0  0  0  0  0  0
   -3.6180   13.8580   -3.0090 C   0  0  0  0  0  0  0  0  0  0  0  0
   -2.3090   13.5780   -2.6080 C   0  0  0  0  0  0  0  0  0  0  0  0
   -4.3470   12.9160   -3.7430 C   0  0  0  0  0  0  0  0  0  0  0  0
   -1.7340   12.3400   -2.9440 C   0  0  0  0  0  0  0  0  0  0  0  0
   -3.7700   11.6850   -4.0740 C   0  0  0  0  0  0  0  0  0  0  0  0
   -2.4610   11.3960   -3.6720 C   0  0  0  0  0  0  0  0  0  0  0  0
  1  2  1  0
  1  3  2  0
  4  1  1  1
  4  5  1  0
  4  6  1  0
  4  7  1  0
  7  8  1  6
  7  9  1  0
  5 10  1  0
  6 11  1  0
  8 11  1  0
 10 12  1  0
  9 13  1  0
  9 14  2  0
 10 14  1  0
 15 12  1  0
 14 16  1  0
 13 17  2  0
 15 18  2  0
 15 19  2  0
 16 20  2  0
 17 20  1  0
 15 21  1  0
 21 22  2  0
 21 23  1  0
 22 24  1  0
 23 25  2  0
 24 26  2  0
 25 26  1  0
M  END
