diamond-x0910_1_A-mac-x0161
     RDKit          3D

 24 27  0  0  0  0  0  0  0  0999 V2000
   -8.3900   14.0880    0.9800 N   0  0  0  0  0  0  0  0  0  0  0  0
   -7.2630   14.6540    0.5320 C   0  0  0  0  0  0  0  0  0  0  0  0
   -7.1460   15.2550   -0.6930 N   0  0  0  0  0  0  0  0  0  0  0  0
   -6.1300   14.7320    1.1520 N   0  0  0  0  0  0  0  0  0  0  0  0
   -5.9100   15.7360   -0.8800 N   0  0  0  0  0  0  0  0  0  0  0  0
   -5.3350   15.3900    0.2700 C   0  0  0  0  0  0  0  0  0  0  0  0
   -4.0860   15.6140    0.5780 N   0  0  0  0  0  0  0  0  0  0  0  0
   -3.3810   14.4800    0.1060 C   0  0  1  0  0  0  0  0  0  0  0  0
   -3.6470   14.1190   -1.2810 N   0  0  0  0  0  0  0  0  0  0  0  0
   -1.8670   14.4320    0.3760 C   0  0  1  0  0  0  0  0  0  0  0  0
   -2.9980   14.9860   -2.2330 C   0  0  0  0  0  0  0  0  0  0  0  0
   -1.0480   14.2860   -0.9200 C   0  0  1  0  0  0  0  0  0  0  0  0
   -1.1950   15.4900    1.0880 N   0  0  0  0  0  0  0  0  0  0  0  0
   -1.5530   15.0480   -2.0430 N   0  0  0  0  0  0  0  0  0  0  0  0
    0.2510   14.7960   -0.5040 N   0  0  0  0  0  0  0  0  0  0  0  0
    0.1420   15.0430    0.9140 C   0  0  0  0  0  0  0  0  0  0  0  0
   -0.8000   14.8820   -3.2910 C   0  0  0  0  0  0  0  0  0  0  0  0
   -0.6320   13.4480   -3.6290 C   0  0  0  0  0  0  0  0  0  0  0  0
   -1.0350   12.6630   -4.6780 C   0  0  0  0  0  0  0  0  0  0  0  0
    0.0640   12.6940   -2.7390 O   0  0  0  0  0  0  0  0  0  0  0  0
    0.1280   11.3870   -3.1860 N   0  0  0  0  0  0  0  0  0  0  0  0
   -0.5350   11.3940   -4.3450 C   0  0  0  0  0  0  0  0  0  0  0  0
   -0.6850   10.2780   -5.0890 O   0  0  0  0  0  0  0  0  0  0  0  0
   -1.7610   10.3340   -6.0180 C   0  0  0  0  0  0  0  0  0  0  0  0
  1  2  1  0
  2  3  1  0
  2  4  2  0
  3  5  1  0
  4  6  1  0
  5  6  2  0
  6  7  1  0
  8  7  1  6
  8  9  1  0
  8 10  1  0
  9 11  1  0
 10 12  1  0
 10 13  1  6
 11 14  1  0
 12 14  1  0
 12 15  1  1
 13 16  1  0
 15 16  1  0
 14 17  1  0
 17 18  1  0
 18 19  2  0
 18 20  1  0
 20 21  1  0
 19 22  1  0
 21 22  2  0
 22 23  1  0
 23 24  1  0
M  END
