diamond-x0729_0_A-diamond-x0091_0_B
     RDKit          3D

 30 32  0  0  0  0  0  0  0  0999 V2000
   19.8000   25.4090    5.9130 C   0  0  0  0  0  0  0  0  0  0  0  0
   19.9170   26.9090    6.1590 C   0  0  1  0  0  0  0  0  0  0  0  0
   20.2530   27.0800    7.6040 N   0  0  0  0  0  0  0  0  0  0  0  0
   20.9200   27.5350    5.1810 C   0  0  1  0  0  0  0  0  0  0  0  0
   20.3130   27.7160    3.8470 C   0  0  0  0  0  0  0  0  0  0  0  0
   19.0010   27.1290    8.7780 S   0  0  0  0  0  0  0  0  0  0  0  0
   21.6250   27.5660    7.9770 C   0  0  0  0  0  0  0  0  0  0  0  0
   21.5680   28.8060    5.7050 C   0  0  0  0  0  0  0  0  0  0  0  0
   17.7610   27.0910    8.0450 O   0  0  0  0  0  0  0  0  0  0  0  0
   19.8720   27.7810    2.7760 N   0  0  0  0  0  0  0  0  0  0  0  0
   19.3070   28.2430    9.6520 O   0  0  0  0  0  0  0  0  0  0  0  0
   19.0930   25.6080    9.7530 C   0  0  0  0  0  0  0  0  0  0  0  0
   22.3150   28.5370    7.0050 C   0  0  0  0  0  0  0  0  0  0  0  0
   17.7660   25.3750   10.5190 C   0  0  0  0  0  0  0  0  0  0  0  0
   17.2680   23.9130   10.5960 C   0  0  0  0  0  0  0  0  0  0  0  0
   16.7000   23.5050   11.9520 C   0  0  2  0  0  0  0  0  0  0  0  0
   15.1980   23.4710   12.2200 C   0  0  2  0  0  0  0  0  0  0  0  0
   16.0620   24.5590   12.8110 C   0  0  0  0  0  0  0  0  0  0  0  0
   14.5880   22.5320   13.1370 N   0  0  0  0  0  0  0  0  0  0  0  0
   13.7990   21.4720   12.7380 C   0  0  0  0  0  0  0  0  0  0  0  0
   12.7910   21.0880   13.6200 N   0  0  0  0  0  0  0  0  0  0  0  0
   13.9840   20.8880   11.6800 O   0  0  0  0  0  0  0  0  0  0  0  0
   12.2000   21.9380   14.6410 C   0  0  0  0  0  0  0  0  0  0  0  0
   12.2790   19.7110   13.5320 C   0  0  0  0  0  0  0  0  0  0  0  0
   13.1840   18.7450   14.2450 C   0  0  0  0  0  0  0  0  0  0  0  0
   12.6860   17.7420   14.9860 N   0  0  0  0  0  0  0  0  0  0  0  0
   14.6030   18.7170   14.2650 C   0  0  0  0  0  0  0  0  0  0  0  0
   13.7770   17.0540   15.4920 O   0  0  0  0  0  0  0  0  0  0  0  0
   14.9200   17.6430   15.0570 C   0  0  0  0  0  0  0  0  0  0  0  0
   16.1930   17.0390   15.5020 C   0  0  0  0  0  0  0  0  0  0  0  0
  2  1  1  6
  2  3  1  0
  2  4  1  0
  4  5  1  6
  3  6  1  0
  3  7  1  0
  4  8  1  0
  6  9  2  0
  5 10  3  0
  6 11  2  0
  6 12  1  0
  7 13  1  0
  8 13  1  0
 12 14  1  0
 14 15  1  0
 16 15  1  6
 16 17  1  0
 16 18  1  0
 17 18  1  0
 17 19  1  1
 19 20  1  0
 20 21  1  0
 20 22  2  0
 21 23  1  0
 21 24  1  0
 24 25  1  0
 25 26  2  0
 25 27  1  0
 26 28  1  0
 27 29  2  0
 28 29  1  0
 29 30  1  0
M  END
