diamond-x0689_0_A-mac-x0365
     RDKit          3D

 20 21  0  0  0  0  0  0  0  0999 V2000
   -3.7230   15.1790    1.7800 N   0  0  0  0  0  0  0  0  0  0  0  0
   -4.5510   13.9810    1.5690 C   0  0  0  0  0  0  0  0  0  0  0  0
   -6.0630   14.2990    1.5000 C   0  0  0  0  0  0  0  0  0  0  0  0
   -2.4590   15.1510    1.2190 C   0  0  0  0  0  0  0  0  0  0  0  0
   -2.1920   15.7560    0.0630 N   0  0  0  0  0  0  0  0  0  0  0  0
   -1.5530   14.4770    1.9200 N   0  0  0  0  0  0  0  0  0  0  0  0
   -6.4680   14.6060    0.1520 O   0  0  0  0  0  0  0  0  0  0  0  0
   -0.9330   15.6660   -0.4050 C   0  0  0  0  0  0  0  0  0  0  0  0
   -0.3150   14.4020    1.4220 C   0  0  0  0  0  0  0  0  0  0  0  0
    0.0620   14.9870    0.2430 C   0  0  0  0  0  0  0  0  0  0  0  0
   -5.3710   14.6010   -0.6460 C   0  0  0  0  0  0  0  0  0  0  0  0
   -5.4400   15.1390   -1.9250 C   0  0  0  0  0  0  0  0  0  0  0  0
   -4.1650   14.0640   -0.2070 C   0  0  0  0  0  0  0  0  0  0  0  0
   -6.5920   15.6450   -2.3700 F   0  0  0  0  0  0  0  0  0  0  0  0
   -4.3140   15.1550   -2.7510 C   0  0  0  0  0  0  0  0  0  0  0  0
   -3.0400   14.0720   -1.0130 C   0  0  0  0  0  0  0  0  0  0  0  0
   -3.1130   14.6220   -2.2830 C   0  0  0  0  0  0  0  0  0  0  0  0
   -1.9180   14.6470   -3.1550 C   0  0  0  0  0  0  0  0  0  0  0  0
   -0.7620   14.4980   -2.4720 O   0  0  0  0  0  0  0  0  0  0  0  0
   -1.9760   14.7870   -4.3590 O   0  0  0  0  0  0  0  0  0  0  0  0
  1  2  1  0
  2  3  1  0
  1  4  1  0
  4  5  2  0
  4  6  1  0
  3  7  1  0
  5  8  1  0
  6  9  2  0
  8 10  2  0
  9 10  1  0
  7 11  1  0
 11 12  2  0
 11 13  1  0
 12 14  1  0
 12 15  1  0
 13 16  2  0
 15 17  2  0
 16 17  1  0
 17 18  1  0
 18 19  1  0
 18 20  2  0
M  END
