diamond-x0933_0_A-mac-x0404
     RDKit          3D

 25 27  0  0  0  0  0  0  0  0999 V2000
   -6.1050   14.6110    1.5740 N   0  0  0  0  0  0  0  0  0  0  0  0
   -4.9930   15.1380    0.8780 C   0  0  1  0  0  0  0  0  0  0  0  0
   -3.9190   14.3940    1.3740 N   0  0  0  0  0  0  0  0  0  0  0  0
   -5.1160   14.7770   -0.4960 N   0  0  0  0  0  0  0  0  0  0  0  0
   -3.8900   15.1590   -1.2490 C   0  0  0  0  0  0  0  0  0  0  0  0
   -2.6670   14.9520    0.9300 C   0  0  0  0  0  0  0  0  0  0  0  0
   -2.5640   14.7080   -0.5700 C   0  0  2  0  0  0  0  0  0  0  0  0
   -1.2410   15.2240   -1.1670 C   0  0  0  0  0  0  0  0  0  0  0  0
    0.0270   14.6340   -0.5100 C   0  0  0  0  0  0  0  0  0  0  0  0
    0.9820   13.9930   -1.5220 C   0  0  0  0  0  0  0  0  0  0  0  0
    0.7090   12.5820   -1.5910 O   0  0  0  0  0  0  0  0  0  0  0  0
    0.8080   11.9320   -2.8000 C   0  0  0  0  0  0  0  0  0  0  0  0
    0.3830   10.7980   -2.9580 O   0  0  0  0  0  0  0  0  0  0  0  0
    1.5020   12.7040   -3.9450 C   0  0  0  0  0  0  0  0  0  0  0  0
    1.2120   14.0730   -4.1910 O   0  0  0  0  0  0  0  0  0  0  0  0
   -0.0610   14.4690   -4.5650 C   0  0  0  0  0  0  0  0  0  0  0  0
   -0.1960   15.8380   -4.8900 C   0  0  0  0  0  0  0  0  0  0  0  0
   -1.1730   13.6260   -4.6360 C   0  0  0  0  0  0  0  0  0  0  0  0
   -1.4570   16.3490   -5.2800 C   0  0  0  0  0  0  0  0  0  0  0  0
   -2.4150   14.1380   -5.0210 C   0  0  0  0  0  0  0  0  0  0  0  0
    0.8870   16.7190   -4.8410 C   0  0  0  0  0  0  0  0  0  0  0  0
   -2.5570   15.4880   -5.3380 C   0  0  0  0  0  0  0  0  0  0  0  0
   -1.5860   17.7060   -5.6050 C   0  0  0  0  0  0  0  0  0  0  0  0
    0.7550   18.0660   -5.1680 C   0  0  0  0  0  0  0  0  0  0  0  0
   -0.4890   18.5570   -5.5520 C   0  0  0  0  0  0  0  0  0  0  0  0
  2  1  1  1
  2  3  1  0
  2  4  1  0
  4  5  1  0
  3  6  1  0
  5  7  1  0
  6  7  1  0
  7  8  1  6
  8  9  1  0
  9 10  1  0
 10 11  1  0
 11 12  1  0
 12 13  2  0
 12 14  1  0
 14 15  1  0
 15 16  1  0
 16 17  1  0
 16 18  2  0
 17 19  2  0
 18 20  1  0
 17 21  1  0
 19 22  1  0
 20 22  2  0
 19 23  1  0
 21 24  2  0
 23 25  2  0
 24 25  1  0
M  END
