diamond-x0844_0_A-mac-x0182
     RDKit          3D

 22 24  0  0  0  0  0  0  0  0999 V2000
   -7.5290   14.8530   -0.0650 O   0  0  0  0  0  0  0  0  0  0  0  0
   -6.2980   14.8570   -0.1130 C   0  0  0  0  0  0  0  0  0  0  0  0
   -5.5540   14.8620    1.0410 N   0  0  0  0  0  0  0  0  0  0  0  0
   -5.5540   14.8590   -1.4340 C   0  0  0  0  0  0  0  0  0  0  0  0
   -4.1960   14.9500    1.0970 C   0  0  0  0  0  0  0  0  0  0  0  0
   -4.0820   15.2520   -1.3570 C   0  0  2  0  0  0  0  0  0  0  0  0
   -3.2620   14.5060   -2.2870 O   0  0  0  0  0  0  0  0  0  0  0  0
   -3.4690   15.1250   -0.0010 C   0  0  0  0  0  0  0  0  0  0  0  0
   -2.5430   13.3820   -1.7300 C   0  0  0  0  0  0  0  0  0  0  0  0
   -2.6550   12.1550   -2.6720 C   0  0  0  0  0  0  0  0  0  0  0  0
   -1.8310   12.2180   -3.9110 N   0  0  0  0  0  0  0  0  0  0  0  0
   -0.7060   11.2200   -4.2040 S   0  0  2  0  0  0  0  0  0  0  0  0
    0.0210   10.4080   -3.2550 O   0  0  0  0  0  0  0  0  0  0  0  0
    0.4620   12.1180   -5.0200 N   0  0  0  0  0  0  0  0  0  0  0  0
   -1.1080   10.2380   -5.5850 C   0  0  0  0  0  0  0  0  0  0  0  0
    0.7550   11.5840   -6.2410 C   0  0  0  0  0  0  0  0  0  0  0  0
   -0.2320   10.5410   -6.6220 C   0  0  0  0  0  0  0  0  0  0  0  0
   -2.1130    9.2930   -5.7040 C   0  0  0  0  0  0  0  0  0  0  0  0
    1.6980   11.8820   -6.9300 O   0  0  0  0  0  0  0  0  0  0  0  0
   -2.2230    8.6350   -6.9310 C   0  0  0  0  0  0  0  0  0  0  0  0
   -0.3310    9.8930   -7.8410 C   0  0  0  0  0  0  0  0  0  0  0  0
   -1.3410    8.9310   -7.9910 C   0  0  0  0  0  0  0  0  0  0  0  0
  1  2  2  0
  2  3  1  0
  2  4  1  0
  3  5  1  0
  4  6  1  0
  6  7  1  6
  5  8  2  0
  6  8  1  0
  7  9  1  0
  9 10  1  0
 10 11  1  0
 11 12  2  0
 12 13  2  0
 12 14  1  6
 12 15  1  0
 14 16  1  0
 15 17  2  0
 16 17  1  0
 15 18  1  0
 16 19  2  0
 18 20  2  0
 17 21  1  0
 20 22  1  0
 21 22  2  0
M  END
