diamond-x0471_0_A-mac-x0433
     RDKit          3D

 17 18  0  0  0  0  0  0  0  0999 V2000
   -8.8810   13.9930    2.7740 N   0  0  0  0  0  0  0  0  0  0  0  0
   -8.9730   14.9500    3.7560 C   0  0  0  0  0  0  0  0  0  0  0  0
   -9.2630   16.1230    3.5170 O   0  0  0  0  0  0  0  0  0  0  0  0
   -8.9520   14.3530    1.3750 C   0  0  0  0  0  0  0  0  0  0  0  0
   -8.7060   14.4470    5.1670 C   0  0  0  0  0  0  0  0  0  0  0  0
   -7.5740   14.5700    0.8780 C   0  0  0  0  0  0  0  0  0  0  0  0
   -9.9030   13.6660    5.7040 C   0  0  0  0  0  0  0  0  0  0  0  0
   -8.3090   15.5940    6.0890 C   0  0  0  0  0  0  0  0  0  0  0  0
   -7.3080   14.7350   -0.4560 N   0  0  0  0  0  0  0  0  0  0  0  0
   -6.4700   14.6360    1.5870 N   0  0  0  0  0  0  0  0  0  0  0  0
   -5.4590   14.8540    0.6860 C   0  0  0  0  0  0  0  0  0  0  0  0
   -5.9630   14.9180   -0.6100 C   0  0  0  0  0  0  0  0  0  0  0  0
   -5.1800   15.1250   -1.7360 C   0  0  0  0  0  0  0  0  0  0  0  0
   -4.0860   15.0030    0.9080 C   0  0  0  0  0  0  0  0  0  0  0  0
   -5.7110   15.1760   -3.0340 N   0  0  0  0  0  0  0  0  0  0  0  0
   -3.8030   15.2730   -1.4920 C   0  0  0  0  0  0  0  0  0  0  0  0
   -3.2650   15.2110   -0.1960 C   0  0  0  0  0  0  0  0  0  0  0  0
  1  2  1  0
  2  3  2  0
  1  4  1  0
  2  5  1  0
  4  6  1  0
  5  7  1  0
  5  8  1  0
  6  9  1  0
  6 10  2  0
 10 11  1  0
  9 12  1  0
 11 12  2  0
 12 13  1  0
 11 14  1  0
 13 15  1  0
 13 16  2  0
 14 17  2  0
 16 17  1  0
M  END
