diamond-x0844_0_A-mac-x0381
     RDKit          3D

 23 25  0  0  0  0  0  0  0  0999 V2000
   -7.4500   14.9550   -0.2110 O   0  0  0  0  0  0  0  0  0  0  0  0
   -6.2280   14.8650   -0.1290 C   0  0  0  0  0  0  0  0  0  0  0  0
   -5.4850   14.7680    1.0470 N   0  0  0  0  0  0  0  0  0  0  0  0
   -5.4280   14.8380   -1.3730 C   0  0  0  0  0  0  0  0  0  0  0  0
   -5.9590   13.8470    2.0590 C   0  0  0  0  0  0  0  0  0  0  0  0
   -4.1350   15.0240    1.0850 C   0  0  0  0  0  0  0  0  0  0  0  0
   -4.1000   14.9490   -1.3090 C   0  0  0  0  0  0  0  0  0  0  0  0
   -3.0510   14.8890   -2.8480 Br  0  0  0  0  0  0  0  0  0  0  0  0
   -6.3530   14.5940    3.3240 C   0  0  0  0  0  0  0  0  0  0  0  0
   -3.4350   15.1120   -0.0380 C   0  0  0  0  0  0  0  0  0  0  0  0
   -7.6400   15.1080    3.1690 N   0  0  0  0  0  0  0  0  0  0  0  0
   -8.5580   14.5180    3.7600 C   0  0  0  0  0  0  0  0  0  0  0  0
   -8.4220   13.4180    4.5750 N   0  0  0  0  0  0  0  0  0  0  0  0
   -9.8630   15.1030    3.4420 C   0  0  0  0  0  0  0  0  0  0  0  0
   -9.9270   15.7580    2.2120 C   0  0  0  0  0  0  0  0  0  0  0  0
  -10.9630   15.0180    4.2720 C   0  0  0  0  0  0  0  0  0  0  0  0
  -11.1060   16.3300    1.7820 C   0  0  0  0  0  0  0  0  0  0  0  0
  -12.1610   15.5930    3.8570 C   0  0  0  0  0  0  0  0  0  0  0  0
  -12.2460   16.2450    2.6120 C   0  0  0  0  0  0  0  0  0  0  0  0
  -11.1830   16.9780    0.5440 C   0  0  0  0  0  0  0  0  0  0  0  0
  -13.4420   16.8100    2.1740 C   0  0  0  0  0  0  0  0  0  0  0  0
  -12.3830   17.5310    0.1200 C   0  0  0  0  0  0  0  0  0  0  0  0
  -13.5140   17.4440    0.9370 C   0  0  0  0  0  0  0  0  0  0  0  0
  1  2  2  0
  2  3  1  0
  2  4  1  0
  3  5  1  0
  3  6  1  0
  4  7  2  0
  7  8  1  0
  5  9  1  0
  6 10  2  0
  7 10  1  0
  9 11  1  0
 11 12  2  3
 12 13  1  0
 12 14  1  0
 14 15  2  0
 14 16  1  0
 15 17  1  0
 16 18  2  0
 17 19  2  0
 18 19  1  0
 17 20  1  0
 19 21  1  0
 20 22  2  0
 21 23  2  0
 22 23  1  0
M  END
