diamond-x0689_0_A-mac-x0139
     RDKit          3D

 18 19  0  0  0  0  0  0  0  0999 V2000
   -3.5960   13.7300    1.4300 N   0  0  0  0  0  0  0  0  0  0  0  0
   -4.9680   14.2060    1.4540 C   0  0  0  0  0  0  0  0  0  0  0  0
   -2.7100   14.7340    0.9330 C   0  0  2  0  0  0  0  0  0  0  0  0
   -2.4920   14.7500   -0.5170 N   0  0  0  0  0  0  0  0  0  0  0  0
   -1.4640   14.9500    1.6030 N   0  0  0  0  0  0  0  0  0  0  0  0
   -3.4270   15.9940    0.9730 N   0  0  0  0  0  0  0  0  0  0  0  0
   -1.1850   15.2200   -1.0030 C   0  0  2  0  0  0  0  0  0  0  0  0
   -0.3360   14.3810    1.1090 C   0  0  0  0  0  0  0  0  0  0  0  0
   -3.6980   15.1560   -1.0490 C   0  0  0  0  0  0  0  0  0  0  0  0
   -4.2780   15.9240   -0.1280 C   0  0  0  0  0  0  0  0  0  0  0  0
   -0.9120   15.2730   -2.4760 N   0  0  0  0  0  0  0  0  0  0  0  0
   -0.1350   14.4820   -0.1930 C   0  0  0  0  0  0  0  0  0  0  0  0
   -2.0670   15.9050   -3.1340 C   0  0  0  0  0  0  0  0  0  0  0  0
   -0.7540   13.9450   -3.0740 C   0  0  0  0  0  0  0  0  0  0  0  0
    0.6140   13.6950   -3.6890 C   0  0  0  0  0  0  0  0  0  0  0  0
    1.1680   12.4810   -3.0160 C   0  0  0  0  0  0  0  0  0  0  0  0
    1.9990   12.5130   -2.1410 O   0  0  0  0  0  0  0  0  0  0  0  0
    0.6310   11.3300   -3.4810 O   0  0  0  0  0  0  0  0  0  0  0  0
  1  2  1  0
  3  1  1  1
  3  4  1  0
  3  5  1  0
  3  6  1  0
  4  7  1  0
  5  8  1  0
  4  9  1  0
  6 10  1  0
  9 10  2  0
  7 11  1  6
  7 12  1  0
  8 12  2  0
 11 13  1  0
 11 14  1  0
 14 15  1  0
 15 16  1  0
 16 17  2  0
 16 18  1  0
M  END
