diamond-x0421_0_A-diamond-x0900_0_A
     RDKit          3D

 12 13  0  0  0  0  0  0  0  0999 V2000
   -3.8620   15.1870   -3.0330 N   0  0  0  0  0  0  0  0  0  0  0  0
   -3.0250   14.9890   -1.9760 C   0  0  0  0  0  0  0  0  0  0  0  0
   -1.8180   14.9070   -2.1690 O   0  0  0  0  0  0  0  0  0  0  0  0
   -3.6450   14.8810   -0.6920 C   0  0  0  0  0  0  0  0  0  0  0  0
   -3.0470   14.7730    0.5800 C   0  0  0  0  0  0  0  0  0  0  0  0
   -4.9950   14.8540   -0.4650 N   0  0  0  0  0  0  0  0  0  0  0  0
   -6.0220   14.9110   -1.1830 O   0  0  0  0  0  0  0  0  0  0  0  0
   -3.9880   14.6710    1.5830 N   0  0  0  0  0  0  0  0  0  0  0  0
   -5.1860   14.7170    0.9700 C   0  0  0  0  0  0  0  0  0  0  0  0
   -6.5500   14.6270    1.7090 C   0  0  0  0  0  0  0  0  0  0  0  0
   -7.8370   14.6570    0.9360 C   0  0  0  0  0  0  0  0  0  0  0  0
   -7.3630   13.3750    1.5600 C   0  0  0  0  0  0  0  0  0  0  0  0
  1  2  1  0
  2  3  2  0
  2  4  1  0
  4  5  2  0
  4  6  1  0
  6  7  1  0
  5  8  1  0
  6  9  2  0
  8  9  1  0
  9 10  1  0
 10 11  1  0
 10 12  1  0
 11 12  1  0
M  CHG  2   6   1   7  -1
M  END
