diamond-x0895_0_A-mac-x0455
     RDKit          3D

 20 21  0  0  0  0  0  0  0  0999 V2000
   -1.4690   14.6050    1.8410 O   0  0  0  0  0  0  0  0  0  0  0  0
   -2.5130   14.7020    1.2190 C   0  0  0  0  0  0  0  0  0  0  0  0
   -3.9190   14.7850    1.7850 C   0  0  0  0  0  0  0  0  0  0  0  0
   -2.6640   14.7620   -0.1430 N   0  0  0  0  0  0  0  0  0  0  0  0
   -4.6270   15.3510    0.6570 N   0  0  0  0  0  0  0  0  0  0  0  0
   -3.9230   15.1370   -0.4810 C   0  0  0  0  0  0  0  0  0  0  0  0
   -4.2830   15.2380   -1.7120 N   0  0  0  0  0  0  0  0  0  0  0  0
   -3.3550   14.9730   -2.8310 C   0  0  0  0  0  0  0  0  0  0  0  0
   -2.0780   14.2520   -2.3790 C   0  0  0  0  0  0  0  0  0  0  0  0
   -0.9020   14.2380   -3.3940 C   0  0  1  0  0  0  0  0  0  0  0  0
   -1.0020   15.4320   -4.1920 O   0  0  0  0  0  0  0  0  0  0  0  0
    0.4290   14.2270   -2.5880 C   0  0  0  0  0  0  0  0  0  0  0  0
   -0.9380   13.0150   -4.3260 C   0  0  0  0  0  0  0  0  0  0  0  0
    1.2660   15.1080   -2.5410 O   0  0  0  0  0  0  0  0  0  0  0  0
    0.6550   13.1080   -1.8670 O   0  0  0  0  0  0  0  0  0  0  0  0
   -1.9990   12.0880   -4.3130 C   0  0  0  0  0  0  0  0  0  0  0  0
    0.1140   12.7820   -5.2380 C   0  0  0  0  0  0  0  0  0  0  0  0
   -2.0070   10.9820   -5.1670 C   0  0  0  0  0  0  0  0  0  0  0  0
    0.1060   11.6770   -6.0920 C   0  0  0  0  0  0  0  0  0  0  0  0
   -0.9550   10.7770   -6.0540 C   0  0  0  0  0  0  0  0  0  0  0  0
  1  2  2  0
  2  3  1  0
  2  4  1  0
  3  5  1  0
  4  6  1  0
  5  6  1  0
  6  7  2  3
  7  8  1  0
  8  9  1  0
  9 10  1  0
 10 11  1  6
 10 12  1  0
 10 13  1  0
 12 14  2  0
 12 15  1  0
 13 16  2  0
 13 17  1  0
 16 18  1  0
 17 19  2  0
 18 20  2  0
 19 20  1  0
M  END
