diamond-x0722_0_A-mac-x0319
     RDKit          3D

 25 26  0  0  0  0  0  0  0  0999 V2000
   -4.5730   15.7100    2.2450 C   0  0  0  0  0  0  0  0  0  0  0  0
   -3.5270   15.2430    1.3750 C   0  0  0  0  0  0  0  0  0  0  0  0
   -2.4080   14.8830    1.9490 N   0  0  0  0  0  0  0  0  0  0  0  0
   -3.5060   15.1250   -0.0250 C   0  0  0  0  0  0  0  0  0  0  0  0
   -4.6220   15.4460   -0.9780 C   0  0  0  0  0  0  0  0  0  0  0  0
   -2.2150   14.6690   -0.2630 C   0  0  0  0  0  0  0  0  0  0  0  0
   -1.6190   14.5440    0.9640 N   0  0  0  0  0  0  0  0  0  0  0  0
   -0.2830   14.1150    1.3090 C   0  0  0  0  0  0  0  0  0  0  0  0
   -1.4690   14.3530   -1.4930 C   0  0  0  0  0  0  0  0  0  0  0  0
   -5.9130   14.7130   -0.6360 C   0  0  0  0  0  0  0  0  0  0  0  0
   -7.0280   15.1880   -0.8230 O   0  0  0  0  0  0  0  0  0  0  0  0
   -5.7890   13.4690   -0.0900 N   0  0  0  0  0  0  0  0  0  0  0  0
   -0.0270   14.8100   -1.2490 C   0  0  0  0  0  0  0  0  0  0  0  0
    0.8820   13.6120   -1.0530 C   0  0  0  0  0  0  0  0  0  0  0  0
    0.9810   13.1070   -2.3650 N   0  0  0  0  0  0  0  0  0  0  0  0
    0.8700   11.9820   -2.9240 C   0  0  0  0  0  0  0  0  0  0  0  0
    0.6090   10.7250   -2.4470 O   0  0  0  0  0  0  0  0  0  0  0  0
    1.0210   12.2090   -4.3880 C   0  0  0  0  0  0  0  0  0  0  0  0
    0.4220   13.6000   -4.5160 C   0  0  0  0  0  0  0  0  0  0  0  0
    1.1960   14.7680   -4.3130 C   0  0  0  0  0  0  0  0  0  0  0  0
   -0.9350   13.7390   -4.8170 C   0  0  0  0  0  0  0  0  0  0  0  0
    0.5900   16.0250   -4.4120 C   0  0  0  0  0  0  0  0  0  0  0  0
   -1.5200   15.0010   -4.9150 C   0  0  0  0  0  0  0  0  0  0  0  0
    1.3320   17.1450   -4.2050 O   0  0  0  0  0  0  0  0  0  0  0  0
   -0.7540   16.1450   -4.7120 C   0  0  0  0  0  0  0  0  0  0  0  0
  1  2  1  0
  2  3  2  0
  2  4  1  0
  4  5  1  0
  4  6  2  0
  3  7  1  0
  6  7  1  0
  7  8  1  0
  6  9  1  0
  5 10  1  0
 10 11  2  0
 10 12  1  0
  9 13  1  0
 13 14  1  0
 14 15  1  0
 15 16  2  3
 16 17  1  0
 16 18  1  0
 18 19  1  0
 19 20  2  0
 19 21  1  0
 20 22  1  0
 21 23  2  0
 22 24  1  0
 22 25  2  0
 23 25  1  0
M  END
