diamond-x0259_0_A-diamond-x0729_0_A
     RDKit          3D

 27 29  0  0  0  0  0  0  0  0999 V2000
   19.8380   28.9240    6.8200 N   0  0  0  0  0  0  0  0  0  0  0  0
   20.4180   30.0590    7.5260 C   0  0  0  0  0  0  0  0  0  0  0  0
   18.6150   28.4760    7.3510 C   0  0  0  0  0  0  0  0  0  0  0  0
   20.0740   28.7780    5.3930 C   0  0  0  0  0  0  0  0  0  0  0  0
   18.7840   26.8380    7.9960 S   0  0  0  0  0  0  0  0  0  0  0  0
   17.5090   29.5400    7.2210 C   0  0  2  0  0  0  0  0  0  0  0  0
   19.1480   28.0250    4.7450 N   0  0  0  0  0  0  0  0  0  0  0  0
   21.1400   29.3310    4.6760 C   0  0  0  0  0  0  0  0  0  0  0  0
   22.4240   30.3120    5.2770 Cl  0  0  0  0  0  0  0  0  0  0  0  0
   17.4480   27.7650    8.0060 O   0  0  0  0  0  0  0  0  0  0  0  0
   17.8470   25.6040    8.7860 C   0  0  0  0  0  0  0  0  0  0  0  0
   17.2180   30.2710    8.5140 C   0  0  0  0  0  0  0  0  0  0  0  0
   16.1240   29.0420    6.8010 C   0  0  0  0  0  0  0  0  0  0  0  0
   19.2760   27.8230    3.4290 C   0  0  0  0  0  0  0  0  0  0  0  0
   21.1670   29.0530    3.3160 C   0  0  0  0  0  0  0  0  0  0  0  0
   20.4140   26.7550    7.5660 N   0  0  0  0  0  0  0  0  0  0  0  0
   15.1480   29.8290    7.5070 O   0  0  0  0  0  0  0  0  0  0  0  0
   15.8370   30.8210    8.2630 C   0  0  0  0  0  0  0  0  0  0  0  0
   20.2560   28.3060    2.6620 N   0  0  0  0  0  0  0  0  0  0  0  0
   21.4760   27.3220    8.3820 C   0  0  0  0  0  0  0  0  0  0  0  0
   20.9390   25.8720    6.5010 C   0  0  1  0  0  0  0  0  0  0  0  0
   19.8140   25.1270    5.7840 C   0  0  0  0  0  0  0  0  0  0  0  0
   22.5730   27.9950    7.5400 C   0  0  0  0  0  0  0  0  0  0  0  0
   21.8270   26.6460    5.5060 C   0  0  2  0  0  0  0  0  0  0  0  0
   22.3000   25.8060    4.3890 C   0  0  0  0  0  0  0  0  0  0  0  0
   23.0130   27.2240    6.2840 C   0  0  0  0  0  0  0  0  0  0  0  0
   22.6770   25.1710    3.4950 N   0  0  0  0  0  0  0  0  0  0  0  0
  1  2  1  0
  1  3  1  0
  1  4  1  0
  3  5  2  0
  6  3  1  1
  4  7  2  0
  4  8  1  0
  8  9  1  0
  5 10  2  0
  5 11  1  0
  6 12  1  0
  6 13  1  0
  7 14  1  0
  8 15  2  0
  5 16  1  0
 13 17  1  0
 12 18  1  0
 17 18  1  0
 14 19  2  0
 15 19  1  0
 16 20  1  0
 16 21  1  0
 21 22  1  6
 20 23  1  0
 21 24  1  0
 24 25  1  6
 23 26  1  0
 24 26  1  0
 25 27  3  0
M  END
