diamond-x0895_0_A-diamond-x0895_1_A
     RDKit          3D

  8  8  0  0  0  0  0  0  0  0999 V2000
   -1.5580   14.5600    1.8510 O   0  0  0  0  0  0  0  0  0  0  0  0
   -2.5410   14.8650    1.1900 C   0  0  0  0  0  0  0  0  0  0  0  0
   -3.8270   15.4710    1.6990 C   0  0  0  0  0  0  0  0  0  0  0  0
   -2.6600   14.7070   -0.1630 N   0  0  0  0  0  0  0  0  0  0  0  0
   -4.7570   15.0740    0.6200 C   0  0  0  0  0  0  0  0  0  0  0  0
   -3.8950   15.0360   -0.6230 C   0  0  0  0  0  0  0  0  0  0  0  0
   -4.2540   15.2540   -1.7550 O   0  0  0  0  0  0  0  0  0  0  0  0
   -5.9470   14.8230    0.6880 O   0  0  0  0  0  0  0  0  0  0  0  0
  1  2  2  0
  2  3  1  0
  2  4  1  0
  3  5  1  0
  4  6  1  0
  5  6  1  0
  6  7  2  0
  5  8  2  0
M  END
