diamond-x0918_4_B-diamond-x0091_0_B
     RDKit          3D

 21 23  0  0  0  0  0  0  0  0999 V2000
   14.5300   21.5900   13.0800 N   0  0  0  0  0  0  0  0  0  0  0  0
   13.5740   20.5690   12.6720 C   0  0  0  0  0  0  0  0  0  0  0  0
   12.4570   20.3390   13.5040 N   0  0  0  0  0  0  0  0  0  0  0  0
   14.1750   22.9690   12.8470 C   0  0  0  0  0  0  0  0  0  0  0  0
   15.9890   21.3220   13.0830 C   0  0  0  0  0  0  0  0  0  0  0  0
   13.6740   19.8890   11.6290 O   0  0  0  0  0  0  0  0  0  0  0  0
   14.0430   22.8140   14.1850 C   0  0  0  0  0  0  0  0  0  0  0  0
   14.5240   22.3060   11.7430 C   0  0  0  0  0  0  0  0  0  0  0  0
   17.0090   22.3740   12.7030 C   0  0  0  0  0  0  0  0  0  0  0  0
   16.8920   21.9490   14.1270 C   0  0  0  0  0  0  0  0  0  0  0  0
   11.9580   21.4340   14.3150 C   0  0  0  0  0  0  0  0  0  0  0  0
   11.9790   19.0020   13.8750 C   0  0  0  0  0  0  0  0  0  0  0  0
   14.4010   21.5060   14.5000 C   0  0  0  0  0  0  0  0  0  0  0  0
   14.8620   21.0100   12.1620 C   0  0  0  0  0  0  0  0  0  0  0  0
   14.8070   20.6060   13.5150 N   0  0  0  0  0  0  0  0  0  0  0  0
   12.9950   18.1390   14.5650 C   0  0  0  0  0  0  0  0  0  0  0  0
   12.7450   17.6890   15.8070 N   0  0  0  0  0  0  0  0  0  0  0  0
   14.2590   17.6760   14.1130 C   0  0  0  0  0  0  0  0  0  0  0  0
   13.8420   16.9300   16.1720 O   0  0  0  0  0  0  0  0  0  0  0  0
   14.7420   16.9250   15.1560 C   0  0  0  0  0  0  0  0  0  0  0  0
   15.9790   16.1530   15.3830 C   0  0  0  0  0  0  0  0  0  0  0  0
  1  2  1  0
  2  3  1  0
  1  4  1  0
  1  5  1  0
  2  6  2  0
  4  7  2  0
  4  8  1  0
  5  9  1  0
  5 10  1  0
  9 10  1  0
  3 11  1  0
  3 12  1  0
  7 13  1  0
  8 14  2  0
 13 15  2  0
 14 15  1  0
 12 16  1  0
 16 17  2  0
 16 18  1  0
 17 19  1  0
 18 20  2  0
 19 20  1  0
 20 21  1  0
M  END
