diamond-x0864_0_A-mac-x0319
     RDKit          3D

 19 20  0  0  0  0  0  0  0  0999 V2000
    1.7680   12.0320   -6.7360 O   0  0  0  0  0  0  0  0  0  0  0  0
    0.6850   11.5930   -6.3790 C   0  0  0  0  0  0  0  0  0  0  0  0
   -0.0490   12.0170   -5.2490 N   0  0  0  0  0  0  0  0  0  0  0  0
    0.0980   10.4880   -7.1960 C   0  0  0  0  0  0  0  0  0  0  0  0
   -1.1740   11.2660   -4.8760 C   0  0  0  0  0  0  0  0  0  0  0  0
   -1.0150    9.8510   -6.8030 C   0  0  0  0  0  0  0  0  0  0  0  0
    0.0470   13.3900   -4.7580 C   0  0  0  0  0  0  0  0  0  0  0  0
   -1.7850    8.4570   -7.7700 Br  0  0  0  0  0  0  0  0  0  0  0  0
   -1.6520   10.2420   -5.5840 C   0  0  0  0  0  0  0  0  0  0  0  0
    0.6360   14.4250   -5.4940 C   0  0  0  0  0  0  0  0  0  0  0  0
   -0.4590   13.7150   -3.5070 C   0  0  0  0  0  0  0  0  0  0  0  0
    0.6910   15.7420   -5.0090 C   0  0  0  0  0  0  0  0  0  0  0  0
   -0.4130   15.0350   -3.0420 C   0  0  0  0  0  0  0  0  0  0  0  0
   -1.0330   12.6640   -2.6110 C   0  0  0  0  0  0  0  0  0  0  0  0
    1.2610   16.7760   -5.6940 O   0  0  0  0  0  0  0  0  0  0  0  0
    0.1600   16.0480   -3.7960 C   0  0  0  0  0  0  0  0  0  0  0  0
    0.1850   11.8450   -2.2400 C   0  0  0  0  0  0  0  0  0  0  0  0
    0.0160   10.5030   -2.3200 O   0  0  0  0  0  0  0  0  0  0  0  0
    1.2630   12.2970   -1.9050 O   0  0  0  0  0  0  0  0  0  0  0  0
  1  2  2  0
  2  3  1  0
  2  4  1  0
  3  5  1  0
  4  6  2  0
  3  7  1  0
  6  8  1  0
  5  9  2  0
  6  9  1  0
  7 10  2  0
  7 11  1  0
 10 12  1  0
 11 13  2  0
 11 14  1  0
 12 15  1  0
 12 16  2  0
 13 16  1  0
 14 17  1  0
 17 18  1  0
 17 19  2  0
M  END
