diamond-x0421_0_A-mac-x0402
     RDKit          3D

 16 18  0  0  0  0  0  0  0  0999 V2000
   -2.7760   14.2640   -2.8770 N   0  0  0  0  0  0  0  0  0  0  0  0
   -2.4090   14.1760   -1.5590 C   0  0  0  0  0  0  0  0  0  0  0  0
   -1.2730   13.8540   -1.2550 O   0  0  0  0  0  0  0  0  0  0  0  0
   -3.5280   14.5510   -0.6040 C   0  0  1  0  0  0  0  0  0  0  0  0
   -3.2230   15.0470    0.8210 C   0  0  0  0  0  0  0  0  0  0  0  0
   -4.1920   15.5580   -1.4680 C   0  0  0  0  0  0  0  0  0  0  0  0
   -4.6720   13.6200   -0.2470 C   0  0  1  0  0  0  0  0  0  0  0  0
   -4.5870   15.5060    1.2010 N   0  0  0  0  0  0  0  0  0  0  0  0
   -5.5450   14.7900    0.3180 C   0  0  2  0  0  0  0  0  0  0  0  0
   -5.2460   12.9050   -1.3920 N   0  0  0  0  0  0  0  0  0  0  0  0
   -5.2720   15.2360   -2.1880 C   0  0  0  0  0  0  0  0  0  0  0  0
   -4.9570   15.5380    2.6000 N   0  0  0  0  0  0  0  0  0  0  0  0
   -6.8940   14.3510    0.8200 C   0  0  0  0  0  0  0  0  0  0  0  0
   -5.9130   13.8930   -2.2260 C   0  0  0  0  0  0  0  0  0  0  0  0
   -7.4790   14.6170    2.1780 C   0  0  0  0  0  0  0  0  0  0  0  0
   -7.0980   13.2130    1.7790 C   0  0  0  0  0  0  0  0  0  0  0  0
  1  2  1  0
  2  3  2  0
  4  2  1  6
  4  5  1  0
  4  6  1  0
  4  7  1  0
  5  8  1  0
  7  9  1  0
  8  9  1  0
  7 10  1  6
  6 11  2  0
  8 12  1  0
  9 13  1  1
 10 14  1  0
 11 14  1  0
 13 15  1  0
 13 16  1  0
 15 16  1  0
M  END
