diamond-x0626_0_A-mac-x0124
     RDKit          3D

 15 16  0  0  0  0  0  0  0  0999 V2000
   -4.8320   14.5310    1.0140 N   0  0  0  0  0  0  0  0  0  0  0  0
   -6.0830   14.6450    0.4650 C   0  0  0  0  0  0  0  0  0  0  0  0
   -6.2790   14.9340   -0.7070 O   0  0  0  0  0  0  0  0  0  0  0  0
   -3.6830   15.1790    0.4670 C   0  0  1  0  0  0  0  0  0  0  0  0
   -7.1830   14.3720    1.4710 C   0  0  0  0  0  0  0  0  0  0  0  0
   -2.6870   14.8390    1.4800 N   0  0  0  0  0  0  0  0  0  0  0  0
   -3.1210   14.5860   -0.8470 C   0  0  2  0  0  0  0  0  0  0  0  0
   -8.5620   14.6560    0.9010 C   0  0  0  0  0  0  0  0  0  0  0  0
   -1.7140   14.1550   -0.4660 C   0  0  2  0  0  0  0  0  0  0  0  0
   -1.4040   14.9080    0.7880 C   0  0  2  0  0  0  0  0  0  0  0  0
   -2.8480   15.5250   -2.0260 C   0  0  0  0  0  0  0  0  0  0  0  0
   -0.2630   14.2310    1.5050 C   0  0  0  0  0  0  0  0  0  0  0  0
   -1.6210   14.9960   -2.6820 N   0  0  0  0  0  0  0  0  0  0  0  0
   -0.7790   14.5340   -1.5880 C   0  0  0  0  0  0  0  0  0  0  0  0
   -0.8830   15.9990   -3.4500 C   0  0  0  0  0  0  0  0  0  0  0  0
  1  2  1  0
  2  3  2  0
  4  1  1  1
  2  5  1  0
  4  6  1  0
  4  7  1  0
  5  8  1  0
  7  9  1  0
  6 10  1  0
  9 10  1  0
  7 11  1  6
 10 12  1  1
 11 13  1  0
  9 14  1  6
 13 14  1  0
 13 15  1  0
M  END
