diamond-x0727_0_A-mac-x0338
     RDKit          3D

 25 26  0  0  0  0  0  0  0  0999 V2000
    0.3440   11.7580   -5.5030 N   0  0  0  0  0  0  0  0  0  0  0  0
    1.1870   12.6210   -4.7090 C   0  0  1  0  0  0  0  0  0  0  0  0
    0.7980   14.0880   -4.9520 C   0  0  0  0  0  0  0  0  0  0  0  0
    0.5090   11.0960   -6.6510 C   0  0  0  0  0  0  0  0  0  0  0  0
    1.4820   11.3810   -7.3430 O   0  0  0  0  0  0  0  0  0  0  0  0
    0.9560   12.1480   -3.2570 C   0  0  0  0  0  0  0  0  0  0  0  0
   -0.4490   10.0130   -7.0420 C   0  0  0  0  0  0  0  0  0  0  0  0
    0.2560   11.1850   -2.9510 O   0  0  0  0  0  0  0  0  0  0  0  0
    1.6060   12.8710   -2.3220 O   0  0  0  0  0  0  0  0  0  0  0  0
    0.3810   14.8700   -3.7040 C   0  0  0  0  0  0  0  0  0  0  0  0
   -1.0410   10.0760   -8.4330 C   0  0  0  0  0  0  0  0  0  0  0  0
   -0.1880    8.5400   -6.8440 C   0  0  0  0  0  0  0  0  0  0  0  0
   -1.1420   14.8400   -3.5500 C   0  0  0  0  0  0  0  0  0  0  0  0
   -2.0190    8.9000   -8.3820 C   0  0  0  0  0  0  0  0  0  0  0  0
   -1.5680    8.0150   -7.2040 C   0  0  0  0  0  0  0  0  0  0  0  0
   -1.5780   14.5110   -2.1220 C   0  0  0  0  0  0  0  0  0  0  0  0
   -3.0350   14.7520   -1.7980 C   0  0  0  0  0  0  0  0  0  0  0  0
   -3.4050   14.8300   -0.5070 N   0  0  0  0  0  0  0  0  0  0  0  0
   -3.9660   14.8840   -2.8290 C   0  0  0  0  0  0  0  0  0  0  0  0
   -4.7320   15.0400   -0.2900 C   0  0  0  0  0  0  0  0  0  0  0  0
   -5.2850   15.0910   -2.6100 N   0  0  0  0  0  0  0  0  0  0  0  0
   -5.1770   15.1240    1.1100 C   0  0  0  0  0  0  0  0  0  0  0  0
   -5.6500   15.1710   -1.3110 C   0  0  0  0  0  0  0  0  0  0  0  0
   -4.2020   15.4030    2.0020 N   0  0  0  0  0  0  0  0  0  0  0  0
   -6.3450   14.9400    1.4360 O   0  0  0  0  0  0  0  0  0  0  0  0
  1  2  1  0
  2  3  1  1
  1  4  1  0
  4  5  2  0
  2  6  1  0
  4  7  1  0
  6  8  2  0
  6  9  1  0
  3 10  1  0
  7 11  1  0
  7 12  1  0
 10 13  1  0
 11 14  1  0
 12 15  1  0
 14 15  1  0
 13 16  1  0
 16 17  1  0
 17 18  2  0
 17 19  1  0
 18 20  1  0
 19 21  2  0
 20 22  1  0
 20 23  2  0
 21 23  1  0
 22 24  1  0
 22 25  2  0
M  END
