diamond-x0592_0_A-diamond-x0711_0_A
     RDKit          3D

 22 23  0  0  0  0  0  0  0  0999 V2000
   -2.7090   14.7370    1.8130 N   0  0  0  0  0  0  0  0  0  0  0  0
   -3.0470   15.6770    0.7650 C   0  0  0  0  0  0  0  0  0  0  0  0
   -4.4240   15.4730    0.3630 C   0  0  0  0  0  0  0  0  0  0  0  0
   -5.1870   16.0410   -0.6620 C   0  0  0  0  0  0  0  0  0  0  0  0
   -5.2590   14.6220    0.9350 C   0  0  0  0  0  0  0  0  0  0  0  0
   -6.4220   15.5820   -0.7310 N   0  0  0  0  0  0  0  0  0  0  0  0
   -6.4280   14.6780    0.2740 N   0  0  0  0  0  0  0  0  0  0  0  0
   -7.4030   13.8370    0.5780 C   0  0  0  0  0  0  0  0  0  0  0  0
   -8.5520   14.0980    1.5320 C   0  0  0  0  0  0  0  0  0  0  0  0
   -6.9220   12.8700   -0.1960 C   0  0  0  0  0  0  0  0  0  0  0  0
   -8.0660   14.8350    2.6620 O   0  0  0  0  0  0  0  0  0  0  0  0
   -5.6300   13.3500   -0.8530 C   0  0  0  0  0  0  0  0  0  0  0  0
   -5.5970   14.0330   -2.0890 C   0  0  0  0  0  0  0  0  0  0  0  0
   -4.3910   13.1510   -0.1950 C   0  0  0  0  0  0  0  0  0  0  0  0
   -4.3820   14.5080   -2.6330 C   0  0  0  0  0  0  0  0  0  0  0  0
   -3.1770   13.6270   -0.7450 C   0  0  0  0  0  0  0  0  0  0  0  0
   -3.1590   14.3160   -1.9650 C   0  0  0  0  0  0  0  0  0  0  0  0
   -1.8700   14.8540   -2.5400 C   0  0  0  0  0  0  0  0  0  0  0  0
   -0.6670   13.7040   -3.1830 S   0  0  0  0  0  0  0  0  0  0  0  0
   -1.5770   12.5400   -4.1660 C   0  0  0  0  0  0  0  0  0  0  0  0
    0.1600   14.4750   -4.0960 O   0  0  0  0  0  0  0  0  0  0  0  0
   -0.0370   13.0070   -2.0760 O   0  0  0  0  0  0  0  0  0  0  0  0
  1  2  1  0
  2  3  1  0
  3  4  1  0
  3  5  2  0
  4  6  2  0
  5  7  1  0
  6  7  1  0
  7  8  1  0
  8  9  1  0
  8 10  2  3
  9 11  1  0
 10 12  1  0
 12 13  2  0
 12 14  1  0
 13 15  1  0
 14 16  2  0
 15 17  2  0
 16 17  1  0
 17 18  1  0
 19 18  1  0
 19 20  1  0
 19 21  2  0
 19 22  2  0
M  END
