diamond-x1018_0_A-mac-x0412
     RDKit          3D

 10 11  0  0  0  0  0  0  0  0999 V2000
   -8.3550   14.5840    0.8960 Cl  0  0  0  0  0  0  0  0  0  0  0  0
   -6.6820   14.6590    0.4660 C   0  0  0  0  0  0  0  0  0  0  0  0
   -5.6620   14.6160    1.5560 C   0  0  0  0  0  0  0  0  0  0  0  0
   -6.4310   14.7530   -0.7980 N   0  0  0  0  0  0  0  0  0  0  0  0
   -5.1030   14.8050   -1.0510 N   0  0  0  0  0  0  0  0  0  0  0  0
   -4.3690   14.6740    1.2120 C   0  0  0  0  0  0  0  0  0  0  0  0
   -4.6120   14.9000   -2.2920 N   0  0  0  0  0  0  0  0  0  0  0  0
   -4.0530   14.7720   -0.1530 C   0  0  0  0  0  0  0  0  0  0  0  0
   -2.9280   14.8430   -0.8260 N   0  0  0  0  0  0  0  0  0  0  0  0
   -3.2930   14.9220   -2.1520 N   0  0  0  0  0  0  0  0  0  0  0  0
  1  2  1  0
  2  3  1  0
  2  4  2  0
  4  5  1  0
  3  6  2  0
  5  7  1  0
  5  8  1  0
  6  8  1  0
  8  9  2  0
  7 10  2  0
  9 10  1  0
M  END
