diamond-x0849_0_A-mac-x0451
     RDKit          3D

 16 17  0  0  0  0  0  0  0  0999 V2000
   -6.6090   14.7850    3.0930 N   0  0  0  0  0  0  0  0  0  0  0  0
   -4.3810   15.3090    1.3290 C   0  0  1  0  0  0  0  0  0  0  0  0
   -3.2530   15.0620    1.9700 N   0  0  0  0  0  0  0  0  0  0  0  0
   -4.5010   15.4110   -0.0400 C   0  0  1  0  0  0  0  0  0  0  0  0
   -2.1260   14.8950    1.2200 C   0  0  0  0  0  0  0  0  0  0  0  0
   -4.1700   15.1990   -2.4440 C   0  0  1  0  0  0  0  0  0  0  0  0
   -4.8930   15.3150   -0.8360 C   0  0  0  0  0  0  0  0  0  0  0  0
   -0.9870   14.6590    1.9300 N   0  0  0  0  0  0  0  0  0  0  0  0
   -5.2840   15.2190   -1.6310 C   0  0  0  0  0  0  0  0  0  0  0  0
   -2.9090   15.0340   -1.8620 C   0  0  0  0  0  0  0  0  0  0  0  0
   -4.7270   15.2090   -2.0380 C   0  0  0  0  0  0  0  0  0  0  0  0
   -2.1250   14.9910   -0.1910 C   0  0  2  0  0  0  0  0  0  0  0  0
    0.1450   14.5600    1.2530 C   0  0  0  0  0  0  0  0  0  0  0  0
    0.2490   14.6660   -0.1220 C   0  0  0  0  0  0  0  0  0  0  0  0
   -0.8790   14.8680   -0.8460 C   0  0  0  0  0  0  0  0  0  0  0  0
   -3.8580   14.8470    0.3090 C   0  0  0  0  0  0  0  0  0  0  0  0
  2  1  1  6
  2  3  1  0
  2  4  1  0
  3  5  1  0
  4  6  1  0
  4  7  1  6
  5  8  1  0
  7  9  1  0
  6 10  1  1
  6 11  1  0
  9 11  2  0
 10 12  1  0
  8 13  1  0
 13 14  1  0
 12 15  1  0
 14 15  2  0
 12 16  1  1
M  END
