diamond-x0967_0_A-diamond-x0628_0_A
     RDKit          3D

 24 26  0  0  0  0  0  0  0  0999 V2000
   -1.0610    9.1140   -7.2690 C   0  0  0  0  0  0  0  0  0  0  0  0
   -0.9960   10.2940   -6.3860 C   0  0  0  0  0  0  0  0  0  0  0  0
   -1.9250   10.5420   -5.4100 N   0  0  0  0  0  0  0  0  0  0  0  0
   -0.0260   11.1990   -6.4750 N   0  0  0  0  0  0  0  0  0  0  0  0
   -0.3560   12.0660   -5.4970 N   0  0  0  0  0  0  0  0  0  0  0  0
   -1.5050   11.6710   -4.8480 C   0  0  0  0  0  0  0  0  0  0  0  0
   -2.1670   12.3800   -3.6980 C   0  0  0  0  0  0  0  0  0  0  0  0
    0.4770   13.2260   -5.2510 C   0  0  0  0  0  0  0  0  0  0  0  0
    1.6370   12.9900   -4.2990 C   0  0  0  0  0  0  0  0  0  0  0  0
   -3.0730   13.5910   -3.9970 C   0  0  0  0  0  0  0  0  0  0  0  0
    1.1850   12.3000   -3.0430 C   0  0  0  0  0  0  0  0  0  0  0  0
   -2.8890   14.8190   -3.0650 C   0  0  0  0  0  0  0  0  0  0  0  0
    0.5130   11.2850   -2.9440 O   0  0  0  0  0  0  0  0  0  0  0  0
    1.6050   12.9490   -1.9430 O   0  0  0  0  0  0  0  0  0  0  0  0
   -3.6970   14.8320   -1.7750 C   0  0  0  0  0  0  0  0  0  0  0  0
   -5.0400   14.6740   -1.8720 N   0  0  0  0  0  0  0  0  0  0  0  0
   -3.0620   15.0040   -0.5490 C   0  0  0  0  0  0  0  0  0  0  0  0
   -5.7930   14.6800   -0.7680 C   0  0  0  0  0  0  0  0  0  0  0  0
   -3.8330   15.0170    0.6040 C   0  0  0  0  0  0  0  0  0  0  0  0
   -7.1130   14.5150   -0.9070 N   0  0  0  0  0  0  0  0  0  0  0  0
   -5.2190   14.8530    0.5010 C   0  0  0  0  0  0  0  0  0  0  0  0
   -6.0610   14.8540    1.6220 C   0  0  0  0  0  0  0  0  0  0  0  0
   -7.8990   14.5130    0.1930 C   0  0  0  0  0  0  0  0  0  0  0  0
   -7.4240   14.6760    1.4740 C   0  0  0  0  0  0  0  0  0  0  0  0
  1  2  1  0
  2  3  1  0
  2  4  2  0
  4  5  1  0
  3  6  2  0
  5  6  1  0
  6  7  1  0
  5  8  1  0
  8  9  1  0
  7 10  1  0
  9 11  1  0
 10 12  1  0
 11 13  2  0
 11 14  1  0
 12 15  1  0
 15 16  2  0
 15 17  1  0
 16 18  1  0
 17 19  2  0
 18 20  2  0
 18 21  1  0
 19 21  1  0
 21 22  2  0
 20 23  1  0
 22 24  1  0
 23 24  2  0
M  END
