diamond-x0950_1_A-mac-x0572
     RDKit          3D

 22 23  0  0  0  0  0  0  0  0999 V2000
    1.0510   13.9890   -4.7080 C   0  0  0  0  0  0  0  0  0  0  0  0
    1.3280   12.5180   -4.4500 C   0  0  2  0  0  0  0  0  0  0  0  0
    0.6670   11.7660   -5.4660 O   0  0  0  0  0  0  0  0  0  0  0  0
    0.9160   12.0780   -3.0310 C   0  0  0  0  0  0  0  0  0  0  0  0
    0.1550   11.1560   -2.7580 O   0  0  0  0  0  0  0  0  0  0  0  0
    1.5370   12.8610   -2.0980 O   0  0  0  0  0  0  0  0  0  0  0  0
    0.7500   13.9410   -1.5780 C   0  0  0  0  0  0  0  0  0  0  0  0
   -0.7180   13.5180   -1.4960 C   0  0  0  0  0  0  0  0  0  0  0  0
   -1.5100   14.4150   -0.5420 C   0  0  0  0  0  0  0  0  0  0  0  0
   -2.9530   14.6330   -0.9830 C   0  0  0  0  0  0  0  0  0  0  0  0
   -2.8040   15.0070    0.4490 C   0  0  0  0  0  0  0  0  0  0  0  0
   -4.3180   14.9020   -1.1560 C   0  0  0  0  0  0  0  0  0  0  0  0
   -5.4190   15.3860   -0.2360 C   0  0  1  0  0  0  0  0  0  0  0  0
   -3.6720   15.2140    1.4320 C   0  0  0  0  0  0  0  0  0  0  0  0
   -6.8210   14.8310   -0.5280 C   0  0  0  0  0  0  0  0  0  0  0  0
   -5.0710   15.0950    1.1660 C   0  0  0  0  0  0  0  0  0  0  0  0
   -7.2000   14.5360   -1.6590 O   0  0  0  0  0  0  0  0  0  0  0  0
   -7.7630   14.6600    0.6460 C   0  0  0  0  0  0  0  0  0  0  0  0
   -5.8810   14.7650    2.1130 N   0  0  0  0  0  0  0  0  0  0  0  0
   -9.1130   14.5350    0.3850 O   0  0  0  0  0  0  0  0  0  0  0  0
   -7.2170   14.6420    1.8780 C   0  0  0  0  0  0  0  0  0  0  0  0
   -8.0160   14.4860    3.1510 C   0  0  0  0  0  0  0  0  0  0  0  0
  2  1  1  6
  2  3  1  0
  2  4  1  0
  4  5  2  0
  4  6  1  0
  6  7  1  0
  7  8  1  0
  8  9  1  0
  9 10  1  0
 10 11  1  0
 10 12  2  0
 13 12  1  6
 11 14  2  0
 13 15  1  0
 13 16  1  0
 14 16  1  0
 15 17  2  0
 15 18  1  0
 16 19  2  0
 18 20  1  0
 18 21  2  0
 19 21  1  0
 21 22  1  0
M  END
