diamond-x0895_0_A-mac-x0568
     RDKit          3D

 16 17  0  0  0  0  0  0  0  0999 V2000
   -0.9660   14.5670    1.9790 O   0  0  0  0  0  0  0  0  0  0  0  0
   -1.9190   14.7000    1.2680 C   0  0  0  0  0  0  0  0  0  0  0  0
   -3.3040   15.0720    1.6530 C   0  0  0  0  0  0  0  0  0  0  0  0
   -2.0060   14.5040   -0.0780 N   0  0  0  0  0  0  0  0  0  0  0  0
   -3.9580   13.9660    0.9570 N   0  0  0  0  0  0  0  0  0  0  0  0
   -3.2680   13.8800   -0.3440 C   0  0  1  0  0  0  0  0  0  0  0  0
   -4.1340   14.6710   -1.3550 C   0  0  2  0  0  0  0  0  0  0  0  0
   -4.2080   14.0610   -2.6230 O   0  0  0  0  0  0  0  0  0  0  0  0
   -3.5100   15.9120   -1.5690 N   0  0  0  0  0  0  0  0  0  0  0  0
   -5.4320   14.7120   -0.6260 C   0  0  0  0  0  0  0  0  0  0  0  0
   -6.6340   14.9130   -1.2670 C   0  0  0  0  0  0  0  0  0  0  0  0
   -5.4780   14.5330    0.7620 C   0  0  0  0  0  0  0  0  0  0  0  0
   -7.8240   14.9360   -0.6300 N   0  0  0  0  0  0  0  0  0  0  0  0
   -6.6720   14.5510    1.4410 C   0  0  0  0  0  0  0  0  0  0  0  0
   -7.8270   14.7530    0.7120 C   0  0  0  0  0  0  0  0  0  0  0  0
   -9.1370   14.7760    1.4200 C   0  0  0  0  0  0  0  0  0  0  0  0
  1  2  2  0
  2  3  1  0
  2  4  1  0
  3  5  1  0
  6  4  1  1
  5  6  1  0
  6  7  1  0
  7  8  1  0
  7  9  1  6
  7 10  1  0
 10 11  2  0
 10 12  1  0
 11 13  1  0
 12 14  2  0
 13 15  2  0
 14 15  1  0
 15 16  1  0
M  END
