diamond-x0685_0_A-mac-x0131
     RDKit          3D

 25 28  0  0  0  0  0  0  0  0999 V2000
   -6.7570   13.8220    2.5850 N   0  0  0  0  0  0  0  0  0  0  0  0
   -7.8240   14.7380    2.8940 C   0  0  0  0  0  0  0  0  0  0  0  0
   -8.9530   13.8960    3.4340 C   0  0  0  0  0  0  0  0  0  0  0  0
   -5.9480   14.1550    1.5150 C   0  0  0  0  0  0  0  0  0  0  0  0
   -4.6160   13.8470    1.5310 C   0  0  0  0  0  0  0  0  0  0  0  0
   -6.5480   14.7900    0.4840 N   0  0  0  0  0  0  0  0  0  0  0  0
   -3.8460   14.2170    0.4670 C   0  0  0  0  0  0  0  0  0  0  0  0
   -5.7620   15.1530   -0.5600 C   0  0  0  0  0  0  0  0  0  0  0  0
   -4.4080   14.8950   -0.6000 C   0  0  0  0  0  0  0  0  0  0  0  0
   -3.5030   15.3200   -1.6670 C   0  0  2  0  0  0  0  0  0  0  0  0
   -2.8270   14.4360   -2.7230 C   0  0  0  0  0  0  0  0  0  0  0  0
   -2.3520   15.7720   -0.7820 C   0  0  2  0  0  0  0  0  0  0  0  0
   -1.0710   15.4040   -1.4990 C   0  0  2  0  0  0  0  0  0  0  0  0
   -1.5230   15.1070   -2.8480 N   0  0  0  0  0  0  0  0  0  0  0  0
   -2.3730   15.0850    0.5830 C   0  0  2  0  0  0  0  0  0  0  0  0
   -3.3790   15.6440    1.4690 N   0  0  0  0  0  0  0  0  0  0  0  0
   -0.5760   14.6080   -3.8380 C   0  0  0  0  0  0  0  0  0  0  0  0
   -1.1510   15.2530    1.2780 N   0  0  0  0  0  0  0  0  0  0  0  0
   -0.3460   14.3520   -0.8040 N   0  0  0  0  0  0  0  0  0  0  0  0
   -0.0150   14.7230    0.5680 C   0  0  0  0  0  0  0  0  0  0  0  0
   -0.4490   13.1290   -3.7870 C   0  0  0  0  0  0  0  0  0  0  0  0
    0.5690   12.2660   -3.4390 C   0  0  0  0  0  0  0  0  0  0  0  0
   -1.5560   12.4240   -4.1510 O   0  0  0  0  0  0  0  0  0  0  0  0
   -1.2500   11.1150   -4.0340 C   0  0  0  0  0  0  0  0  0  0  0  0
    0.0370   10.9610   -3.5980 C   0  0  0  0  0  0  0  0  0  0  0  0
  1  2  1  0
  2  3  1  0
  1  4  1  0
  4  5  2  0
  4  6  1  0
  5  7  1  0
  6  8  2  0
  7  9  2  0
  8  9  1  0
 10  9  1  1
 10 11  1  0
 12 10  1  6
 12 13  1  0
 11 14  1  0
 13 14  1  0
 12 15  1  0
 15 16  1  1
 14 17  1  0
 15 18  1  0
 13 19  1  1
 18 20  1  0
 19 20  1  0
 17 21  1  0
 21 22  2  0
 21 23  1  0
 23 24  1  0
 22 25  1  0
 24 25  2  0
M  END
