diamond-x0900_0_A-mac-x0385
     RDKit          3D

 14 15  0  0  0  0  0  0  0  0999 V2000
   -6.9390   15.7960   -0.8680 O   0  0  0  0  0  0  0  0  0  0  0  0
   -6.0380   15.1590   -0.3570 C   0  0  0  0  0  0  0  0  0  0  0  0
   -4.8410   14.7250   -0.8970 N   0  0  0  0  0  0  0  0  0  0  0  0
   -6.0520   14.6000    1.0410 C   0  0  0  0  0  0  0  0  0  0  0  0
   -5.1860   13.3690    0.8210 C   0  0  0  0  0  0  0  0  0  0  0  0
   -5.0630   13.3520   -0.7010 C   0  0  0  0  0  0  0  0  0  0  0  0
   -3.5580   14.8910   -0.3890 C   0  0  0  0  0  0  0  0  0  0  0  0
   -3.2230   15.2590    0.9170 C   0  0  0  0  0  0  0  0  0  0  0  0
   -2.4980   14.6350   -1.2210 C   0  0  0  0  0  0  0  0  0  0  0  0
   -4.1540   15.5800    1.9090 N   0  0  0  0  0  0  0  0  0  0  0  0
   -1.9630   15.3250    1.3390 N   0  0  0  0  0  0  0  0  0  0  0  0
   -1.2250   14.7060   -0.8500 N   0  0  0  0  0  0  0  0  0  0  0  0
   -1.0330   15.0420    0.4230 C   0  0  0  0  0  0  0  0  0  0  0  0
    0.3390   15.1100    0.8540 C   0  0  0  0  0  0  0  0  0  0  0  0
  1  2  2  0
  2  3  1  0
  2  4  1  0
  4  5  1  0
  3  6  1  0
  5  6  1  0
  3  7  1  0
  7  8  2  0
  7  9  1  0
  8 10  1  0
  8 11  1  0
  9 12  2  0
 11 13  2  0
 12 13  1  0
 13 14  1  0
M  END
