diamond-x1012_0_A-mac-x0360
     RDKit          3D

 25 26  0  0  0  0  0  0  0  0999 V2000
   -0.3300   18.2180   -4.7610 N   0  0  0  0  0  0  0  0  0  0  0  0
   -1.2000   17.1920   -4.8470 C   0  0  0  0  0  0  0  0  0  0  0  0
   -2.3980   17.4340   -4.7600 O   0  0  0  0  0  0  0  0  0  0  0  0
   -0.6620   15.9270   -5.0040 N   0  0  0  0  0  0  0  0  0  0  0  0
   -1.5030   14.8590   -4.4780 C   0  0  0  0  0  0  0  0  0  0  0  0
    0.7720   15.6640   -4.8940 C   0  0  0  0  0  0  0  0  0  0  0  0
   -1.1150   14.4940   -3.0450 C   0  0  1  0  0  0  0  0  0  0  0  0
    1.0870   14.2770   -4.3110 C   0  0  0  0  0  0  0  0  0  0  0  0
   -2.1880   13.6950   -2.3110 C   0  0  0  0  0  0  0  0  0  0  0  0
    0.3280   13.9840   -3.0140 C   0  0  2  0  0  0  0  0  0  0  0  0
    0.4710   12.6050   -2.4210 C   0  0  0  0  0  0  0  0  0  0  0  0
   -3.2290   14.6590   -1.9500 N   0  0  0  0  0  0  0  0  0  0  0  0
    0.4510   11.5810   -3.2940 O   0  0  0  0  0  0  0  0  0  0  0  0
    0.5840   12.4010   -1.2330 O   0  0  0  0  0  0  0  0  0  0  0  0
   -3.8800   14.7010   -0.4030 S   0  0  0  0  0  0  0  0  0  0  0  0
   -4.8080   15.8080   -0.4320 O   0  0  0  0  0  0  0  0  0  0  0  0
   -2.8250   14.6220    0.5830 O   0  0  0  0  0  0  0  0  0  0  0  0
   -4.8310   13.2060   -0.4100 C   0  0  0  0  0  0  0  0  0  0  0  0
   -4.6260   12.2550   -1.4170 C   0  0  0  0  0  0  0  0  0  0  0  0
   -5.7820   12.9910    0.5880 C   0  0  0  0  0  0  0  0  0  0  0  0
   -5.3880   11.0920   -1.4190 C   0  0  0  0  0  0  0  0  0  0  0  0
   -6.5340   11.8220    0.5650 C   0  0  0  0  0  0  0  0  0  0  0  0
   -7.7140   11.5430    1.7860 Cl  0  0  0  0  0  0  0  0  0  0  0  0
   -5.1470    9.9120   -2.6500 Cl  0  0  0  0  0  0  0  0  0  0  0  0
   -6.3460   10.8720   -0.4330 C   0  0  0  0  0  0  0  0  0  0  0  0
  1  2  1  0
  2  3  2  0
  2  4  1  0
  4  5  1  0
  4  6  1  0
  5  7  1  0
  6  8  1  0
  7  9  1  6
  7 10  1  0
  8 10  1  0
 10 11  1  6
  9 12  1  0
 11 13  1  0
 11 14  2  0
 15 12  1  0
 15 16  2  0
 15 17  2  0
 15 18  1  0
 18 19  2  0
 18 20  1  0
 19 21  1  0
 20 22  2  0
 22 23  1  0
 21 24  1  0
 21 25  2  0
 22 25  1  0
M  END
