diamond-x0962_0_A-mac-x0398
     RDKit          3D

 10 10  0  0  0  0  0  0  0  0999 V2000
   -2.0320   14.8380   -1.9950 N   0  0  0  0  0  0  0  0  0  0  0  0
   -3.3720   15.0840   -1.9090 C   0  0  0  0  0  0  0  0  0  0  0  0
   -4.0020   15.3200   -2.9370 O   0  0  0  0  0  0  0  0  0  0  0  0
   -3.9580   15.0320   -0.5630 C   0  0  0  0  0  0  0  0  0  0  0  0
   -3.2060   15.0960    0.6150 N   0  0  0  0  0  0  0  0  0  0  0  0
   -5.3080   14.9090   -0.2640 C   0  0  0  0  0  0  0  0  0  0  0  0
   -6.3930   14.8180   -1.0540 O   0  0  0  0  0  0  0  0  0  0  0  0
   -4.0760   15.0040    1.5860 C   0  0  0  0  0  0  0  0  0  0  0  0
   -5.3440   14.8860    1.1160 N   0  0  0  0  0  0  0  0  0  0  0  0
   -6.4870   14.7550    1.9430 N   0  0  0  0  0  0  0  0  0  0  0  0
  1  2  1  0
  2  3  2  0
  2  4  1  0
  4  5  1  0
  4  6  2  0
  6  7  1  0
  5  8  2  0
  6  9  1  0
  8  9  1  0
  9 10  1  0
M  END
