diamond-x0969_0_A-mac-x0333
     RDKit          3D

 11 12  0  0  0  0  0  0  0  0999 V2000
   -6.7270   14.7520    2.5730 N   0  0  0  0  0  0  0  0  0  0  0  0
   -6.5810   14.7550    1.2300 C   0  0  0  0  0  0  0  0  0  0  0  0
   -7.5530   14.6450    0.3500 N   0  0  0  0  0  0  0  0  0  0  0  0
   -5.3720   14.8850    0.5590 N   0  0  0  0  0  0  0  0  0  0  0  0
   -7.0120   14.7080   -0.9130 N   0  0  0  0  0  0  0  0  0  0  0  0
   -5.7120   14.8510   -0.7900 C   0  0  0  0  0  0  0  0  0  0  0  0
   -4.0510   15.0250    1.0030 C   0  0  0  0  0  0  0  0  0  0  0  0
   -4.6750   14.9640   -1.7490 C   0  0  0  0  0  0  0  0  0  0  0  0
   -3.0670   15.1190    0.0870 C   0  0  0  0  0  0  0  0  0  0  0  0
   -3.4070   15.0840   -1.3370 C   0  0  0  0  0  0  0  0  0  0  0  0
   -2.3440   15.1840   -2.2080 O   0  0  0  0  0  0  0  0  0  0  0  0
  1  2  1  0
  2  3  2  0
  2  4  1  0
  3  5  1  0
  4  6  1  0
  5  6  2  0
  4  7  1  0
  6  8  1  0
  7  9  2  0
  8 10  2  0
  9 10  1  0
 10 11  1  0
M  END
