diamond-x0724_0_A-mac-x0510
     RDKit          3D

 20 22  0  0  0  0  0  0  0  0999 V2000
   -8.2590   13.8670    4.3950 N   0  0  0  0  0  0  0  0  0  0  0  0
   -8.7160   14.0390    5.7670 C   0  0  0  0  0  0  0  0  0  0  0  0
   -8.4300   15.0910    3.6210 C   0  0  0  0  0  0  0  0  0  0  0  0
   -7.8030   14.8880    2.2850 C   0  0  0  0  0  0  0  0  0  0  0  0
   -6.4660   14.7520    1.9810 C   0  0  0  0  0  0  0  0  0  0  0  0
   -8.4430   14.7890    1.0250 C   0  0  0  0  0  0  0  0  0  0  0  0
   -7.5790   14.6110    0.0130 N   0  0  0  0  0  0  0  0  0  0  0  0
   -6.3800   14.5930    0.6280 N   0  0  0  0  0  0  0  0  0  0  0  0
   -5.1430   14.4110   -0.1130 C   0  0  2  0  0  0  0  0  0  0  0  0
   -4.0290   15.2740    0.4140 C   0  0  0  0  0  0  0  0  0  0  0  0
   -5.1760   14.5390   -1.6130 C   0  0  0  0  0  0  0  0  0  0  0  0
   -4.2670   16.3620    0.9060 O   0  0  0  0  0  0  0  0  0  0  0  0
   -2.6760   14.5870    0.2710 C   0  0  1  0  0  0  0  0  0  0  0  0
   -3.7210   14.4070   -1.9800 C   0  0  0  0  0  0  0  0  0  0  0  0
   -3.2650   14.8730   -3.0260 O   0  0  0  0  0  0  0  0  0  0  0  0
   -2.8340   13.6900   -0.9600 C   0  0  0  0  0  0  0  0  0  0  0  0
   -1.3880   15.2570    0.0900 N   0  0  0  0  0  0  0  0  0  0  0  0
   -2.4750   14.0630    1.6520 C   0  0  0  0  0  0  0  0  0  0  0  0
   -1.0200   13.8550    1.7950 N   0  0  0  0  0  0  0  0  0  0  0  0
   -0.3730   14.4420    0.6620 C   0  0  0  0  0  0  0  0  0  0  0  0
  1  2  1  0
  1  3  1  0
  3  4  1  0
  4  5  2  0
  4  6  1  0
  6  7  2  0
  5  8  1  0
  7  8  1  0
  9  8  1  1
  9 10  1  0
  9 11  1  0
 10 12  2  0
 13 10  1  0
 11 14  1  0
 14 15  2  0
 13 16  1  6
 14 16  1  0
 13 17  1  0
 13 18  1  0
 18 19  1  0
 17 20  1  0
 19 20  1  0
M  END
