diamond-x0091_0_B-diamond-x0158_0_B
     RDKit          3D

 30 32  0  0  0  0  0  0  0  0999 V2000
   12.6240   21.0360   13.5680 N   0  0  0  0  0  0  0  0  0  0  0  0
   12.1830   21.8460   14.6960 C   0  0  0  0  0  0  0  0  0  0  0  0
   12.1830   19.6360   13.5320 C   0  0  0  0  0  0  0  0  0  0  0  0
   13.6490   21.3920   12.6970 C   0  0  0  0  0  0  0  0  0  0  0  0
   13.9300   20.7250   11.7080 O   0  0  0  0  0  0  0  0  0  0  0  0
   14.3370   22.5350   12.9980 N   0  0  0  0  0  0  0  0  0  0  0  0
   13.0940   18.7360   14.3180 C   0  0  0  0  0  0  0  0  0  0  0  0
   12.5930   17.7440   15.0760 N   0  0  0  0  0  0  0  0  0  0  0  0
   14.5150   18.7630   14.3970 C   0  0  0  0  0  0  0  0  0  0  0  0
   15.6800   22.7020   12.5230 C   0  0  0  0  0  0  0  0  0  0  0  0
   13.6870   17.1170   15.6580 O   0  0  0  0  0  0  0  0  0  0  0  0
   14.8300   17.7320   15.2490 C   0  0  0  0  0  0  0  0  0  0  0  0
   16.7660   21.7850   13.0040 C   0  0  0  0  0  0  0  0  0  0  0  0
   16.7790   23.2020   13.4180 C   0  0  0  0  0  0  0  0  0  0  0  0
   16.1080   17.1860   15.7860 C   0  0  0  0  0  0  0  0  0  0  0  0
   16.8970   16.4350   14.7200 C   0  0  0  0  0  0  0  0  0  0  0  0
   16.1410   15.2750   14.2640 N   0  0  0  0  0  0  0  0  0  0  0  0
   16.0390   15.0080   13.0160 C   0  0  0  0  0  0  0  0  0  0  0  0
   16.6200   15.8020   12.0760 O   0  0  0  0  0  0  0  0  0  0  0  0
   15.3520   13.8590   12.2960 C   0  0  0  0  0  0  0  0  0  0  0  0
   16.1940   17.1620   11.9190 C   0  0  0  0  0  0  0  0  0  0  0  0
   14.5770   12.9250   13.1230 N   0  0  0  0  0  0  0  0  0  0  0  0
   17.4310   17.9000   11.4690 C   0  0  0  0  0  0  0  0  0  0  0  0
   13.9820   11.8660   12.3020 C   0  0  0  0  0  0  0  0  0  0  0  0
   13.6340   13.5890   14.0130 C   0  0  0  0  0  0  0  0  0  0  0  0
   13.1940   10.8270   13.0690 C   0  0  0  0  0  0  0  0  0  0  0  0
   12.1600   13.2730   13.9100 C   0  0  0  0  0  0  0  0  0  0  0  0
   11.7080   11.5630   13.6630 S   0  0  0  0  0  0  0  0  0  0  0  0
   11.3890   10.9810   14.9590 O   0  0  0  0  0  0  0  0  0  0  0  0
   10.7130   11.4820   12.6020 O   0  0  0  0  0  0  0  0  0  0  0  0
  1  2  1  0
  1  3  1  0
  1  4  1  0
  4  5  2  0
  4  6  1  0
  3  7  1  0
  7  8  2  0
  7  9  1  0
  6 10  1  0
  8 11  1  0
  9 12  2  0
 11 12  1  0
 10 13  1  0
 10 14  1  0
 13 14  1  0
 12 15  1  0
 15 16  1  0
 16 17  1  0
 17 18  2  3
 18 19  1  0
 18 20  1  0
 19 21  1  0
 20 22  1  0
 21 23  1  0
 22 24  1  0
 22 25  1  0
 24 26  1  0
 25 27  1  0
 28 26  1  0
 27 28  1  0
 28 29  2  0
 28 30  2  0
M  END
