diamond-x0128_0_A-mac-x0161
     RDKit          3D

 33 37  0  0  0  0  0  0  0  0999 V2000
   -6.2390   15.0140    2.4850 N   0  0  0  0  0  0  0  0  0  0  0  0
   -7.4970   15.1930    3.1070 C   0  0  0  0  0  0  0  0  0  0  0  0
   -8.5640   15.2000    2.4960 O   0  0  0  0  0  0  0  0  0  0  0  0
   -6.0800   14.6390    1.1240 C   0  0  0  0  0  0  0  0  0  0  0  0
   -7.3920   15.3840    4.4780 N   0  0  0  0  0  0  0  0  0  0  0  0
   -7.1480   13.9390    0.5640 C   0  0  0  0  0  0  0  0  0  0  0  0
   -4.9620   14.9100    0.2440 C   0  0  0  0  0  0  0  0  0  0  0  0
   -7.1520   13.5200   -0.7630 C   0  0  0  0  0  0  0  0  0  0  0  0
   -5.0230   14.4610   -1.0690 C   0  0  0  0  0  0  0  0  0  0  0  0
   -8.2960   16.0750    5.3400 C   0  0  0  0  0  0  0  0  0  0  0  0
   -3.6380   15.6390    0.3150 C   0  0  2  0  0  0  0  0  0  0  0  0
   -6.0830   13.7830   -1.5750 C   0  0  0  0  0  0  0  0  0  0  0  0
   -8.9950   17.1980    4.8760 C   0  0  0  0  0  0  0  0  0  0  0  0
   -8.5440   15.7060    6.6600 C   0  0  0  0  0  0  0  0  0  0  0  0
   -3.7420   16.0290   -1.1080 N   0  0  0  0  0  0  0  0  0  0  0  0
   -2.1980   15.0640    0.6050 C   0  0  2  0  0  0  0  0  0  0  0  0
   -9.8730   17.9290    5.6090 N   0  0  0  0  0  0  0  0  0  0  0  0
   -9.4420   16.4390    7.4420 C   0  0  0  0  0  0  0  0  0  0  0  0
   -3.1570   15.1750   -2.1390 C   0  0  0  0  0  0  0  0  0  0  0  0
   -1.5510   14.3420   -0.5640 C   0  0  1  0  0  0  0  0  0  0  0  0
   -1.8330   14.1400    1.6450 N   0  0  0  0  0  0  0  0  0  0  0  0
  -10.0750   17.5330    6.8780 C   0  0  0  0  0  0  0  0  0  0  0  0
   -1.7560   15.0140   -1.8290 N   0  0  0  0  0  0  0  0  0  0  0  0
   -0.1890   14.2340   -0.0630 N   0  0  0  0  0  0  0  0  0  0  0  0
   -0.3830   14.0660    1.3960 C   0  0  0  0  0  0  0  0  0  0  0  0
   -0.8020   14.8340   -2.9390 C   0  0  0  0  0  0  0  0  0  0  0  0
   -0.6600   13.4220   -3.3890 C   0  0  0  0  0  0  0  0  0  0  0  0
   -1.0470   12.7280   -4.5110 C   0  0  0  0  0  0  0  0  0  0  0  0
   -0.0110   12.5770   -2.5440 O   0  0  0  0  0  0  0  0  0  0  0  0
    0.0360   11.3130   -3.0930 N   0  0  0  0  0  0  0  0  0  0  0  0
   -0.5840   11.4220   -4.2680 C   0  0  0  0  0  0  0  0  0  0  0  0
   -0.7270   10.3630   -5.0930 O   0  0  0  0  0  0  0  0  0  0  0  0
   -1.8180   10.4640   -6.0010 C   0  0  0  0  0  0  0  0  0  0  0  0
  1  2  1  0
  2  3  2  0
  1  4  1  0
  2  5  1  0
  4  6  2  0
  4  7  1  0
  6  8  1  0
  7  9  2  0
  5 10  1  0
 11  7  1  6
  8 12  2  0
  9 12  1  0
 10 13  2  0
 10 14  1  0
 11 15  1  0
 11 16  1  0
 13 17  1  0
 14 18  2  0
 15 19  1  0
 16 20  1  0
 16 21  1  1
 17 22  2  0
 18 22  1  0
 19 23  1  0
 20 23  1  0
 20 24  1  1
 21 25  1  0
 24 25  1  0
 23 26  1  0
 26 27  1  0
 27 28  2  0
 27 29  1  0
 29 30  1  0
 28 31  1  0
 30 31  2  0
 31 32  1  0
 32 33  1  0
M  END
