diamond-x0864_0_A-diamond-x0685_0_A
     RDKit          3D

 26 27  0  0  0  0  0  0  0  0999 V2000
    1.3230   11.9890   -6.6080 O   0  0  0  0  0  0  0  0  0  0  0  0
    0.3290   11.3310   -6.3130 C   0  0  0  0  0  0  0  0  0  0  0  0
   -0.4670   11.5190   -5.1750 N   0  0  0  0  0  0  0  0  0  0  0  0
   -0.0870   10.2210   -7.2080 C   0  0  0  0  0  0  0  0  0  0  0  0
   -0.2040   12.6220   -4.2520 C   0  0  1  0  0  0  0  0  0  0  0  0
   -1.6350   10.8230   -4.9830 C   0  0  0  0  0  0  0  0  0  0  0  0
   -1.2100    9.5360   -6.9450 C   0  0  0  0  0  0  0  0  0  0  0  0
    0.7770   12.4230   -3.1070 C   0  0  0  0  0  0  0  0  0  0  0  0
   -1.8020    8.1250   -8.0070 Br  0  0  0  0  0  0  0  0  0  0  0  0
   -0.3780   14.0030   -4.8890 C   0  0  0  0  0  0  0  0  0  0  0  0
   -2.0220    9.8670   -5.8090 C   0  0  0  0  0  0  0  0  0  0  0  0
    0.6310   11.2350   -2.4960 O   0  0  0  0  0  0  0  0  0  0  0  0
    1.6160   13.2100   -2.7160 O   0  0  0  0  0  0  0  0  0  0  0  0
   -1.8400   14.3360   -5.2370 C   0  0  0  0  0  0  0  0  0  0  0  0
   -2.4120   15.6160   -4.6380 C   0  0  0  0  0  0  0  0  0  0  0  0
   -3.0580   15.3620   -3.3490 C   0  0  0  0  0  0  0  0  0  0  0  0
   -3.5580   15.2180   -2.2720 C   0  0  0  0  0  0  0  0  0  0  0  0
   -4.1730   15.1270   -0.9950 C   0  0  0  0  0  0  0  0  0  0  0  0
   -3.4340   15.1560    0.1830 C   0  0  0  0  0  0  0  0  0  0  0  0
   -5.5430   15.0150   -0.9000 C   0  0  0  0  0  0  0  0  0  0  0  0
   -4.1080   15.0840    1.4000 C   0  0  0  0  0  0  0  0  0  0  0  0
   -6.2150   14.9410    0.2660 N   0  0  0  0  0  0  0  0  0  0  0  0
   -5.4930   14.9850    1.4010 C   0  0  0  0  0  0  0  0  0  0  0  0
   -6.2540   14.9390    2.5610 N   0  0  0  0  0  0  0  0  0  0  0  0
   -7.6870   14.7370    2.4870 C   0  0  0  0  0  0  0  0  0  0  0  0
   -8.0730   13.3520    2.9780 C   0  0  0  0  0  0  0  0  0  0  0  0
  1  2  2  0
  2  3  1  0
  2  4  1  0
  3  5  1  0
  3  6  1  0
  4  7  2  0
  5  8  1  0
  7  9  1  0
  5 10  1  6
  6 11  2  0
  7 11  1  0
  8 12  1  0
  8 13  2  0
 10 14  1  0
 14 15  1  0
 15 16  1  0
 16 17  3  0
 17 18  1  0
 18 19  2  0
 18 20  1  0
 19 21  1  0
 20 22  2  0
 21 23  2  0
 22 23  1  0
 23 24  1  0
 24 25  1  0
 25 26  1  0
M  END
