diamond-x0591_0_A-mac-x0190
     RDKit          3D

 25 27  0  0  0  0  0  0  0  0999 V2000
   -7.6350   12.6510   -0.8340 N   0  0  0  0  0  0  0  0  0  0  0  0
   -6.9490   12.1840    0.3820 C   0  0  0  0  0  0  0  0  0  0  0  0
   -7.1900   13.9630   -1.2790 C   0  0  2  0  0  0  0  0  0  0  0  0
   -8.2590   14.7760   -1.7330 O   0  0  0  0  0  0  0  0  0  0  0  0
   -5.9580   14.0240   -2.2130 C   0  0  0  0  0  0  0  0  0  0  0  0
   -6.6860   14.4170   -0.0250 N   0  0  0  0  0  0  0  0  0  0  0  0
   -4.6750   13.4980   -1.8690 C   0  0  0  0  0  0  0  0  0  0  0  0
   -6.0790   14.6280   -3.4700 C   0  0  0  0  0  0  0  0  0  0  0  0
   -7.3140   14.5430    1.1980 C   0  0  0  0  0  0  0  0  0  0  0  0
   -5.4020   14.7830    0.0940 C   0  0  0  0  0  0  0  0  0  0  0  0
   -8.7510   14.2480    1.5100 C   0  0  0  0  0  0  0  0  0  0  0  0
   -3.5780   13.5890   -2.7490 C   0  0  0  0  0  0  0  0  0  0  0  0
   -4.9930   14.7130   -4.3420 C   0  0  0  0  0  0  0  0  0  0  0  0
   -5.2580   15.1120    1.4050 C   0  0  0  0  0  0  0  0  0  0  0  0
   -6.4450   14.9670    2.0900 N   0  0  0  0  0  0  0  0  0  0  0  0
   -4.3700   14.8440   -0.8290 C   0  0  0  0  0  0  0  0  0  0  0  0
   -9.1820   15.2030    2.4820 O   0  0  0  0  0  0  0  0  0  0  0  0
   -3.7570   14.2050   -3.9850 C   0  0  0  0  0  0  0  0  0  0  0  0
   -3.1400   15.2400   -0.3870 C   0  0  0  0  0  0  0  0  0  0  0  0
   -4.0060   15.5220    1.8480 C   0  0  0  0  0  0  0  0  0  0  0  0
   -2.4410   14.3680   -5.1520 S   0  0  0  0  0  0  0  0  0  0  0  0
   -2.9460   15.5780    0.9390 C   0  0  0  0  0  0  0  0  0  0  0  0
   -1.3600   15.4120   -4.4010 N   0  0  0  0  0  0  0  0  0  0  0  0
   -1.7550   13.1060   -5.2770 O   0  0  0  0  0  0  0  0  0  0  0  0
   -2.9680   15.0920   -6.2830 O   0  0  0  0  0  0  0  0  0  0  0  0
  1  2  1  0
  1  3  1  0
  3  4  1  6
  3  5  1  0
  3  6  1  0
  5  7  2  0
  5  8  1  0
  6  9  1  0
  6 10  1  0
  9 11  1  0
  7 12  1  0
  8 13  2  0
 10 14  2  0
  9 15  2  0
 14 15  1  0
 10 16  1  0
 11 17  1  0
 12 18  2  0
 13 18  1  0
 16 19  2  0
 14 20  1  0
 18 21  1  0
 19 22  1  0
 20 22  2  0
 21 23  1  0
 21 24  2  0
 21 25  2  0
M  END
