diamond-x0253_0_A-mac-x0305
     RDKit          3D

 23 24  0  0  0  0  0  0  0  0999 V2000
    0.2920   11.9570   -5.3640 N   0  0  0  0  0  0  0  0  0  0  0  0
    1.0520   11.6740   -6.4800 C   0  0  0  0  0  0  0  0  0  0  0  0
    2.1700   12.1330   -6.6080 O   0  0  0  0  0  0  0  0  0  0  0  0
    0.8500   12.7100   -4.2440 C   0  0  0  0  0  0  0  0  0  0  0  0
    0.4290   12.1390   -2.8840 C   0  0  0  0  0  0  0  0  0  0  0  0
    0.4460   10.7400   -7.4920 C   0  0  0  0  0  0  0  0  0  0  0  0
   -0.0590   12.6800   -1.8060 N   0  0  0  0  0  0  0  0  0  0  0  0
    0.5890   10.8130   -2.7990 O   0  0  0  0  0  0  0  0  0  0  0  0
   -0.5320    9.8190   -7.1090 C   0  0  0  0  0  0  0  0  0  0  0  0
    0.8510   10.7750   -8.8380 C   0  0  0  0  0  0  0  0  0  0  0  0
   -0.3200   14.0360   -1.7510 C   0  0  0  0  0  0  0  0  0  0  0  0
   -1.1050    8.9460   -8.0490 C   0  0  0  0  0  0  0  0  0  0  0  0
    0.2870    9.9120   -9.7750 C   0  0  0  0  0  0  0  0  0  0  0  0
   -2.1550    7.9680   -7.6220 C   0  0  0  0  0  0  0  0  0  0  0  0
    0.4630   14.8610   -2.2090 O   0  0  0  0  0  0  0  0  0  0  0  0
   -0.6870    9.0010   -9.3820 C   0  0  0  0  0  0  0  0  0  0  0  0
   -1.6250   14.5250   -1.1400 C   0  0  0  0  0  0  0  0  0  0  0  0
   -1.8160   14.6900    0.2520 C   0  0  0  0  0  0  0  0  0  0  0  0
   -2.6090   14.8000   -2.0520 N   0  0  0  0  0  0  0  0  0  0  0  0
   -0.8910   14.4420    1.2350 O   0  0  0  0  0  0  0  0  0  0  0  0
   -3.0600   15.1530    0.6940 C   0  0  0  0  0  0  0  0  0  0  0  0
   -3.7930   15.2470   -1.5760 C   0  0  0  0  0  0  0  0  0  0  0  0
   -4.0630   15.4380   -0.2330 C   0  0  0  0  0  0  0  0  0  0  0  0
  1  2  1  0
  2  3  2  0
  1  4  1  0
  4  5  1  0
  2  6  1  0
  5  7  2  3
  5  8  1  0
  6  9  2  0
  6 10  1  0
  7 11  1  0
  9 12  1  0
 10 13  2  0
 12 14  1  0
 11 15  2  0
 12 16  2  0
 13 16  1  0
 11 17  1  0
 17 18  2  0
 17 19  1  0
 18 20  1  0
 18 21  1  0
 19 22  2  0
 21 23  2  0
 22 23  1  0
M  END
