diamond-x0722_0_A-mac-x0496
     RDKit          3D

 22 23  0  0  0  0  0  0  0  0999 V2000
   -4.3750   15.8490    2.4550 C   0  0  0  0  0  0  0  0  0  0  0  0
   -3.4920   15.3280    1.4350 C   0  0  0  0  0  0  0  0  0  0  0  0
   -2.2650   15.0090    1.7970 N   0  0  0  0  0  0  0  0  0  0  0  0
   -3.7500   15.1150    0.0710 C   0  0  0  0  0  0  0  0  0  0  0  0
   -5.0580   15.3810   -0.6520 C   0  0  0  0  0  0  0  0  0  0  0  0
   -2.5220   14.6290   -0.4020 C   0  0  0  0  0  0  0  0  0  0  0  0
   -1.6770   14.5910    0.6980 N   0  0  0  0  0  0  0  0  0  0  0  0
   -0.2950   14.1840    0.8180 C   0  0  0  0  0  0  0  0  0  0  0  0
   -2.0450   14.2180   -1.6710 C   0  0  0  0  0  0  0  0  0  0  0  0
   -6.3370   14.5430   -0.2100 C   0  0  1  0  0  0  0  0  0  0  0  0
   -7.3810   14.8690   -1.0830 O   0  0  0  0  0  0  0  0  0  0  0  0
   -6.1340   13.1410   -0.4090 N   0  0  0  0  0  0  0  0  0  0  0  0
   -6.9120   14.6830    1.1300 N   0  0  0  0  0  0  0  0  0  0  0  0
   -2.4740   14.7330   -2.8370 C   0  0  0  0  0  0  0  0  0  0  0  0
   -8.3400   14.2920    1.3400 C   0  0  0  0  0  0  0  0  0  0  0  0
   -3.4080   15.7080   -3.0430 O   0  0  0  0  0  0  0  0  0  0  0  0
   -9.1110   15.3030    2.1620 C   0  0  0  0  0  0  0  0  0  0  0  0
  -10.3830   15.6280    1.7590 O   0  0  0  0  0  0  0  0  0  0  0  0
   -8.7470   15.9520    3.2500 N   0  0  0  0  0  0  0  0  0  0  0  0
   -9.8410   16.7270    3.5260 C   0  0  0  0  0  0  0  0  0  0  0  0
  -10.8640   16.5730    2.6770 N   0  0  0  0  0  0  0  0  0  0  0  0
   -9.8790   17.6570    4.6770 C   0  0  0  0  0  0  0  0  0  0  0  0
  1  2  1  0
  2  3  2  0
  2  4  1  0
  4  5  1  0
  4  6  2  0
  3  7  1  0
  6  7  1  0
  7  8  1  0
  6  9  1  0
  5 10  1  0
 10 11  1  0
 10 12  1  6
 10 13  1  0
  9 14  2  3
 13 15  1  0
 14 16  1  0
 15 17  1  0
 17 18  1  0
 17 19  2  0
 19 20  1  0
 18 21  1  0
 20 21  2  0
 20 22  1  0
M  END
