diamond-x0104_0_A-mac-x0116
     RDKit          3D

 32 36  0  0  0  0  0  0  0  0999 V2000
   -6.3330   14.5420    2.1210 C   0  0  2  0  0  0  0  0  0  0  0  0
   -7.6670   15.1410    2.8860 C   0  0  0  0  0  0  0  0  0  0  0  0
   -7.6720   15.0770    4.2970 N   0  0  0  0  0  0  0  0  0  0  0  0
   -4.9050   15.1560    2.1560 N   0  0  0  0  0  0  0  0  0  0  0  0
   -6.2860   14.6220    0.6430 C   0  0  0  0  0  0  0  0  0  0  0  0
   -6.5540   13.0510    2.1850 C   0  0  0  0  0  0  0  0  0  0  0  0
   -8.6350   15.5960    2.2630 O   0  0  0  0  0  0  0  0  0  0  0  0
   -5.1060   14.0980    0.1530 C   0  0  0  0  0  0  0  0  0  0  0  0
   -7.2060   15.1250   -0.2650 C   0  0  0  0  0  0  0  0  0  0  0  0
   -3.9840   15.2680    1.0190 C   0  0  0  0  0  0  0  0  0  0  0  0
   -6.4980   12.4270    0.9620 O   0  0  0  0  0  0  0  0  0  0  0  0
   -6.8260   12.1330    3.1640 C   0  0  0  0  0  0  0  0  0  0  0  0
   -4.7590   14.0450   -1.1260 N   0  0  0  0  0  0  0  0  0  0  0  0
   -6.8730   15.0920   -1.6130 C   0  0  0  0  0  0  0  0  0  0  0  0
   -8.8050   15.1040    5.1220 C   0  0  0  0  0  0  0  0  0  0  0  0
   -4.4090   15.7380   -0.2090 N   0  0  0  0  0  0  0  0  0  0  0  0
   -2.6410   14.9450    1.0000 C   0  0  0  0  0  0  0  0  0  0  0  0
   -6.9510   10.8950    2.5090 C   0  0  0  0  0  0  0  0  0  0  0  0
   -6.7420   11.1270    1.1720 C   0  0  0  0  0  0  0  0  0  0  0  0
   -5.6460   14.5500   -1.9810 C   0  0  0  0  0  0  0  0  0  0  0  0
   -8.9660   15.2110    6.4910 C   0  0  0  0  0  0  0  0  0  0  0  0
  -10.3100   14.9780    4.3220 S   0  0  0  0  0  0  0  0  0  0  0  0
   -3.6230   15.7800   -1.3350 C   0  0  0  0  0  0  0  0  0  0  0  0
   -1.8480   15.0800   -0.2490 C   0  0  0  0  0  0  0  0  0  0  0  0
   -1.7640   14.4830    1.9330 N   0  0  0  0  0  0  0  0  0  0  0  0
   -5.3240   14.5390   -3.3150 O   0  0  0  0  0  0  0  0  0  0  0  0
  -11.1870   15.0630    5.7980 C   0  0  0  0  0  0  0  0  0  0  0  0
  -10.3460   15.1870    6.8820 C   0  0  0  0  0  0  0  0  0  0  0  0
   -2.3770   15.4810   -1.4250 N   0  0  0  0  0  0  0  0  0  0  0  0
   -0.6120   14.7450   -0.0470 N   0  0  0  0  0  0  0  0  0  0  0  0
   -0.6290   14.3960    1.2910 C   0  0  0  0  0  0  0  0  0  0  0  0
   -3.9130   14.5760   -3.5430 C   0  0  0  0  0  0  0  0  0  0  0  0
  1  2  1  0
  2  3  1  0
  1  4  1  1
  1  5  1  0
  1  6  1  0
  2  7  2  0
  5  8  2  0
  5  9  1  0
  4 10  1  0
  6 11  1  0
  6 12  2  0
  8 13  1  0
  9 14  2  0
  3 15  1  0
 10 16  1  0
 10 17  2  0
 12 18  1  0
 11 19  1  0
 18 19  2  0
 13 20  2  0
 14 20  1  0
 15 21  2  0
 15 22  1  0
 16 23  1  0
 17 24  1  0
 17 25  1  0
 20 26  1  0
 22 27  1  0
 21 28  1  0
 27 28  2  0
 23 29  2  0
 24 29  1  0
 24 30  2  0
 25 31  2  0
 30 31  1  0
 26 32  1  0
M  END
