diamond-x0371_0_A-mac-x0348
     RDKit          3D

 35 39  0  0  0  0  0  0  0  0999 V2000
   -8.3750   14.5440    2.8940 N   0  0  0  0  0  0  0  0  0  0  0  0
   -8.8850   15.5470    3.6750 C   0  0  0  0  0  0  0  0  0  0  0  0
   -9.5080   16.4400    3.1020 O   0  0  0  0  0  0  0  0  0  0  0  0
   -8.4930   14.4690    1.4580 C   0  0  0  0  0  0  0  0  0  0  0  0
   -7.1670   14.5910    0.8090 C   0  0  0  0  0  0  0  0  0  0  0  0
   -8.6930   15.5220    5.1030 C   0  0  0  0  0  0  0  0  0  0  0  0
   -5.9840   14.6400    1.5120 N   0  0  0  0  0  0  0  0  0  0  0  0
   -6.9450   14.6640   -0.4880 N   0  0  0  0  0  0  0  0  0  0  0  0
   -8.0800   14.4590    5.6980 O   0  0  0  0  0  0  0  0  0  0  0  0
   -9.0410   16.4450    6.0680 C   0  0  0  0  0  0  0  0  0  0  0  0
   -5.5830   14.7470   -0.6180 C   0  0  0  0  0  0  0  0  0  0  0  0
   -4.9650   14.7410    0.6230 C   0  0  0  0  0  0  0  0  0  0  0  0
   -8.6160   15.9100    7.3090 C   0  0  0  0  0  0  0  0  0  0  0  0
   -8.0350   14.6980    7.0270 C   0  0  0  0  0  0  0  0  0  0  0  0
   -3.5960   14.8190    0.8140 C   0  0  0  0  0  0  0  0  0  0  0  0
   -4.7970   14.8200   -1.7670 C   0  0  0  0  0  0  0  0  0  0  0  0
   -2.8260   14.8820   -0.3380 C   0  0  0  0  0  0  0  0  0  0  0  0
   -3.4040   14.8730   -1.6090 C   0  0  0  0  0  0  0  0  0  0  0  0
   -2.5020   14.8990   -2.7960 C   0  0  0  0  0  0  0  0  0  0  0  0
   -1.0880   14.3690   -2.4420 C   0  0  0  0  0  0  0  0  0  0  0  0
   -0.1970   14.1150   -3.6740 C   0  0  2  0  0  0  0  0  0  0  0  0
    1.0910   13.3650   -3.3920 C   0  0  0  0  0  0  0  0  0  0  0  0
   -0.1170   15.4130   -4.3770 C   0  0  0  0  0  0  0  0  0  0  0  0
    0.7270   12.3180   -2.3820 C   0  0  0  0  0  0  0  0  0  0  0  0
    0.8870   16.3380   -4.5320 C   0  0  0  0  0  0  0  0  0  0  0  0
   -1.2480   15.8770   -5.0410 C   0  0  0  0  0  0  0  0  0  0  0  0
    0.7290   12.5480   -1.1890 O   0  0  0  0  0  0  0  0  0  0  0  0
    0.3530   11.1300   -2.8910 O   0  0  0  0  0  0  0  0  0  0  0  0
    0.3720   17.3540   -5.2830 N   0  0  0  0  0  0  0  0  0  0  0  0
   -0.9250   17.1000   -5.5970 C   0  0  0  0  0  0  0  0  0  0  0  0
   -2.5260   15.3260   -5.2010 C   0  0  0  0  0  0  0  0  0  0  0  0
    1.0870   18.5250   -5.6900 C   0  0  0  0  0  0  0  0  0  0  0  0
   -3.4550   16.0280   -5.9170 C   0  0  0  0  0  0  0  0  0  0  0  0
   -1.8510   17.8170   -6.3140 C   0  0  0  0  0  0  0  0  0  0  0  0
   -3.0890   17.2520   -6.4490 C   0  0  0  0  0  0  0  0  0  0  0  0
  1  2  1  0
  2  3  2  0
  1  4  1  0
  4  5  1  0
  2  6  1  0
  5  7  1  0
  5  8  2  0
  6  9  1  0
  6 10  2  0
  8 11  1  0
  7 12  1  0
 11 12  2  0
 10 13  1  0
  9 14  1  0
 13 14  2  0
 12 15  1  0
 11 16  1  0
 15 17  2  0
 16 18  2  0
 17 18  1  0
 18 19  1  0
 19 20  1  0
 21 20  1  1
 21 22  1  0
 21 23  1  0
 22 24  1  0
 23 25  2  0
 23 26  1  0
 24 27  2  0
 24 28  1  0
 25 29  1  0
 26 30  2  0
 29 30  1  0
 26 31  1  0
 29 32  1  0
 31 33  2  0
 30 34  1  0
 33 35  1  0
 34 35  2  0
M  END
