diamond-x0689_0_A-diamond-x0766_0_A
     RDKit          3D

 19 21  0  0  0  0  0  0  0  0999 V2000
   -3.7810   14.5030    1.4380 N   0  0  0  0  0  0  0  0  0  0  0  0
   -4.6430   15.6250    1.3150 C   0  0  0  0  0  0  0  0  0  0  0  0
   -2.5190   14.5540    0.9680 C   0  0  0  0  0  0  0  0  0  0  0  0
   -2.3770   14.6500   -0.3850 N   0  0  0  0  0  0  0  0  0  0  0  0
   -1.5240   14.5110    1.8150 N   0  0  0  0  0  0  0  0  0  0  0  0
   -1.1930   14.0630   -0.9380 C   0  0  2  0  0  0  0  0  0  0  0  0
   -0.2780   14.5700    1.2520 C   0  0  0  0  0  0  0  0  0  0  0  0
   -3.6280   14.6070   -1.5290 S   0  0  0  0  0  0  0  0  0  0  0  0
   -0.0410   14.3750   -0.0470 C   0  0  0  0  0  0  0  0  0  0  0  0
   -2.4400   14.9140   -2.7520 C   0  0  0  0  0  0  0  0  0  0  0  0
   -1.1840   14.6140   -2.3280 C   0  0  0  0  0  0  0  0  0  0  0  0
    0.1360   14.7680   -3.0140 C   0  0  1  0  0  0  0  0  0  0  0  0
    1.0110   13.5110   -3.2560 C   0  0  1  0  0  0  0  0  0  0  0  0
    0.1950   15.5710   -4.3010 C   0  0  0  0  0  0  0  0  0  0  0  0
    0.5630   12.2880   -2.4940 C   0  0  0  0  0  0  0  0  0  0  0  0
    1.1510   13.4240   -4.7600 C   0  0  0  0  0  0  0  0  0  0  0  0
    1.3150   14.9070   -5.0510 C   0  0  0  0  0  0  0  0  0  0  0  0
    0.5280   12.3000   -1.2840 O   0  0  0  0  0  0  0  0  0  0  0  0
    0.2140   11.1940   -3.1830 O   0  0  0  0  0  0  0  0  0  0  0  0
  1  2  1  0
  1  3  1  0
  3  4  1  0
  3  5  2  0
  4  6  1  0
  5  7  1  0
  4  8  1  0
  6  9  1  1
  7  9  2  0
  8 10  1  0
  6 11  1  0
 10 11  2  0
 12 11  1  6
 12 13  1  0
 12 14  1  0
 13 15  1  6
 13 16  1  0
 14 17  1  0
 16 17  1  0
 15 18  2  0
 15 19  1  0
M  END
