diamond-x0724_0_A-diamond-x0253_0_A
     RDKit          3D

 31 33  0  0  0  0  0  0  0  0999 V2000
   -8.2610   13.7680    4.4320 N   0  0  0  0  0  0  0  0  0  0  0  0
   -8.6650   13.9550    5.8200 C   0  0  0  0  0  0  0  0  0  0  0  0
   -8.4940   14.9780    3.6530 C   0  0  0  0  0  0  0  0  0  0  0  0
   -7.7920   14.8390    2.3490 C   0  0  0  0  0  0  0  0  0  0  0  0
   -6.4350   14.8520    2.1080 C   0  0  0  0  0  0  0  0  0  0  0  0
   -8.3500   14.6690    1.0660 C   0  0  0  0  0  0  0  0  0  0  0  0
   -7.4320   14.5880    0.1050 N   0  0  0  0  0  0  0  0  0  0  0  0
   -6.2440   14.7070    0.7530 N   0  0  0  0  0  0  0  0  0  0  0  0
   -5.0010   14.6830    0.0660 C   0  0  0  0  0  0  0  0  0  0  0  0
   -3.7990   14.7800    0.7780 C   0  0  0  0  0  0  0  0  0  0  0  0
   -4.9750   14.5660   -1.3320 C   0  0  0  0  0  0  0  0  0  0  0  0
   -2.5820   14.7500    0.0970 C   0  0  0  0  0  0  0  0  0  0  0  0
   -3.7560   14.5380   -2.0110 C   0  0  0  0  0  0  0  0  0  0  0  0
   -2.5460   14.6260   -1.3000 C   0  0  0  0  0  0  0  0  0  0  0  0
   -1.2290   14.5820   -2.0370 C   0  0  0  0  0  0  0  0  0  0  0  0
   -0.0280   14.6830   -1.0820 C   0  0  0  0  0  0  0  0  0  0  0  0
    1.1430   13.8580   -1.5900 C   0  0  0  0  0  0  0  0  0  0  0  0
    0.6950   12.4760   -1.7150 N   0  0  0  0  0  0  0  0  0  0  0  0
    0.6530   11.9660   -2.9010 C   0  0  0  0  0  0  0  0  0  0  0  0
    0.2320   10.6840   -2.9960 O   0  0  0  0  0  0  0  0  0  0  0  0
    1.0190   12.6210   -4.2430 C   0  0  0  0  0  0  0  0  0  0  0  0
    0.3630   11.9050   -5.3320 N   0  0  0  0  0  0  0  0  0  0  0  0
    1.0770   11.6630   -6.4920 C   0  0  0  0  0  0  0  0  0  0  0  0
    2.1790   12.1560   -6.6380 O   0  0  0  0  0  0  0  0  0  0  0  0
    0.4610   10.7530   -7.5000 C   0  0  0  0  0  0  0  0  0  0  0  0
   -0.5230    9.8390   -7.1010 C   0  0  0  0  0  0  0  0  0  0  0  0
    0.8530   10.7940   -8.8420 C   0  0  0  0  0  0  0  0  0  0  0  0
   -1.1100    8.9780   -8.0370 C   0  0  0  0  0  0  0  0  0  0  0  0
    0.2730    9.9390   -9.7750 C   0  0  0  0  0  0  0  0  0  0  0  0
   -2.1670    8.0000   -7.6050 C   0  0  0  0  0  0  0  0  0  0  0  0
   -0.7050    9.0340   -9.3770 C   0  0  0  0  0  0  0  0  0  0  0  0
  1  2  1  0
  1  3  1  0
  3  4  1  0
  4  5  2  0
  4  6  1  0
  6  7  2  0
  5  8  1  0
  7  8  1  0
  8  9  1  0
  9 10  2  0
  9 11  1  0
 10 12  1  0
 11 13  2  0
 12 14  2  0
 13 14  1  0
 14 15  1  0
 15 16  1  0
 16 17  1  0
 17 18  1  0
 18 19  2  3
 19 20  1  0
 19 21  1  0
 21 22  1  0
 22 23  1  0
 23 24  2  0
 23 25  1  0
 25 26  2  0
 25 27  1  0
 26 28  1  0
 27 29  2  0
 28 30  1  0
 28 31  2  0
 29 31  1  0
M  END
