diamond-x0849_0_A-mac-x0567
     RDKit          3D

 11 12  0  0  0  0  0  0  0  0999 V2000
   -3.4330   15.1360   -2.9620 Br  0  0  0  0  0  0  0  0  0  0  0  0
   -3.4290   15.0860   -1.0640 C   0  0  0  0  0  0  0  0  0  0  0  0
   -2.2620   14.8270   -0.3160 C   0  0  0  0  0  0  0  0  0  0  0  0
   -4.6400   15.3150   -0.4280 C   0  0  0  0  0  0  0  0  0  0  0  0
   -2.4020   14.8060    1.0740 C   0  0  0  0  0  0  0  0  0  0  0  0
   -4.6400   15.2720    0.9380 C   0  0  0  0  0  0  0  0  0  0  0  0
   -0.9710   14.5910   -0.8450 C   0  0  0  0  0  0  0  0  0  0  0  0
   -3.5540   15.0240    1.6650 N   0  0  0  0  0  0  0  0  0  0  0  0
   -1.3930   14.5670    1.8740 N   0  0  0  0  0  0  0  0  0  0  0  0
    0.0880   14.3490    0.0110 C   0  0  0  0  0  0  0  0  0  0  0  0
   -0.1900   14.3480    1.3620 C   0  0  0  0  0  0  0  0  0  0  0  0
  1  2  1  0
  2  3  2  0
  2  4  1  0
  3  5  1  0
  4  6  2  0
  3  7  1  0
  5  8  2  0
  6  8  1  0
  5  9  1  0
  7 10  2  0
  9 11  2  0
 10 11  1  0
M  END
