diamond-x0626_0_A-diamond-x0711_0_A
     RDKit          3D

 16 16  0  0  0  0  0  0  0  0999 V2000
   -4.9300   14.6370    1.2170 N   0  0  0  0  0  0  0  0  0  0  0  0
   -6.2030   14.6020    0.7640 C   0  0  0  0  0  0  0  0  0  0  0  0
   -6.3630   14.7840   -0.4490 O   0  0  0  0  0  0  0  0  0  0  0  0
   -3.7330   14.6750    0.5750 C   0  0  0  0  0  0  0  0  0  0  0  0
   -7.3850   14.3610    1.6710 C   0  0  0  0  0  0  0  0  0  0  0  0
   -2.6040   14.5120    1.2220 N   0  0  0  0  0  0  0  0  0  0  0  0
   -3.5950   14.9340   -1.0920 S   0  0  0  0  0  0  0  0  0  0  0  0
   -8.7080   14.5930    0.9550 C   0  0  0  0  0  0  0  0  0  0  0  0
   -1.9080   14.8290   -0.9720 C   0  0  0  0  0  0  0  0  0  0  0  0
   -1.5260   14.5960    0.3500 C   0  0  0  0  0  0  0  0  0  0  0  0
   -0.1690   14.4430    0.9300 C   0  0  0  0  0  0  0  0  0  0  0  0
   -1.0670   15.0090   -2.1780 N   0  0  0  0  0  0  0  0  0  0  0  0
   -0.3190   13.6710   -2.8960 S   0  0  0  0  0  0  0  0  0  0  0  0
   -1.6860   12.8920   -3.7180 C   0  0  0  0  0  0  0  0  0  0  0  0
    0.5230   14.2570   -3.9180 O   0  0  0  0  0  0  0  0  0  0  0  0
    0.2000   12.7940   -1.8720 O   0  0  0  0  0  0  0  0  0  0  0  0
  1  2  1  0
  2  3  2  0
  1  4  1  0
  2  5  1  0
  4  6  2  0
  4  7  1  0
  5  8  1  0
  7  9  1  0
  6 10  1  0
  9 10  2  0
 10 11  1  0
  9 12  1  0
 13 12  1  0
 13 14  1  0
 13 15  2  0
 13 16  2  0
M  END
