diamond-x0685_1_A-mac-x0301
     RDKit          3D

 23 25  0  0  0  0  0  0  0  0999 V2000
   -1.0300   11.1160   -5.1730 N   0  0  0  0  0  0  0  0  0  0  0  0
   -0.4520   12.4600   -4.9560 C   0  0  0  0  0  0  0  0  0  0  0  0
   -0.5900   12.8860   -3.5250 C   0  0  0  0  0  0  0  0  0  0  0  0
   -0.5850   10.5350   -6.4390 C   0  0  0  0  0  0  0  0  0  0  0  0
   -0.6140    9.0030   -6.4720 C   0  0  0  0  0  0  0  0  0  0  0  0
   -1.5010   11.0380   -7.5630 C   0  0  0  0  0  0  0  0  0  0  0  0
    0.4930   12.0770   -2.4950 S   0  0  0  0  0  0  0  0  0  0  0  0
   -1.5310   13.8070   -3.1430 C   0  0  0  0  0  0  0  0  0  0  0  0
   -0.0300    8.4960   -7.7880 C   0  0  0  0  0  0  0  0  0  0  0  0
   -1.0190   10.5620   -8.9320 C   0  0  0  0  0  0  0  0  0  0  0  0
    1.9940   12.3230   -2.9920 O   0  0  0  0  0  0  0  0  0  0  0  0
    0.2130   10.4960   -2.4790 O   0  0  0  0  0  0  0  0  0  0  0  0
    0.3630   12.6390   -1.0290 O   0  0  0  0  0  0  0  0  0  0  0  0
   -0.8270    9.0420   -8.9790 C   0  0  0  0  0  0  0  0  0  0  0  0
   -2.0030   14.3820   -1.8550 C   0  0  0  0  0  0  0  0  0  0  0  0
   -1.3930   14.3960   -0.5890 C   0  0  0  0  0  0  0  0  0  0  0  0
   -3.2750   14.9850   -1.9300 C   0  0  0  0  0  0  0  0  0  0  0  0
   -2.0350   14.9540    0.5160 C   0  0  0  0  0  0  0  0  0  0  0  0
   -3.9040   15.5510   -0.8110 C   0  0  0  0  0  0  0  0  0  0  0  0
   -0.1780   13.9020   -0.2360 O   0  0  0  0  0  0  0  0  0  0  0  0
   -3.2830   15.5330    0.4370 C   0  0  0  0  0  0  0  0  0  0  0  0
   -1.3010   14.8610    1.6600 O   0  0  0  0  0  0  0  0  0  0  0  0
   -0.0590   14.4230    1.1080 C   0  0  0  0  0  0  0  0  0  0  0  0
  1  2  1  0
  2  3  1  0
  1  4  1  0
  4  5  1  0
  4  6  1  0
  3  7  1  0
  3  8  2  3
  5  9  1  0
  6 10  1  0
  7 11  1  0
  7 12  1  0
  7 13  1  0
  9 14  1  0
 10 14  1  0
  8 15  1  0
 15 16  1  0
 15 17  2  0
 16 18  2  0
 17 19  1  0
 16 20  1  0
 18 21  1  0
 19 21  2  0
 18 22  1  0
 20 23  1  0
 22 23  1  0
M  END
