diamond-x0282_0_A-mac-x0398
     RDKit          3D

 19 20  0  0  0  0  0  0  0  0999 V2000
   -7.7790   13.7770    0.5280 C   0  0  0  0  0  0  0  0  0  0  0  0
   -8.4750   14.9490    0.1490 O   0  0  0  0  0  0  0  0  0  0  0  0
   -6.2550   13.8320    0.3400 C   0  0  2  0  0  0  0  0  0  0  0  0
   -5.4950   14.2300    1.6280 C   0  0  2  0  0  0  0  0  0  0  0  0
   -5.7720   14.5300   -0.9550 C   0  0  1  0  0  0  0  0  0  0  0  0
   -6.3930   14.9170    2.5680 N   0  0  0  0  0  0  0  0  0  0  0  0
   -6.2980   15.8420   -1.1470 O   0  0  0  0  0  0  0  0  0  0  0  0
   -4.2140   15.0940    1.4650 C   0  0  0  0  0  0  0  0  0  0  0  0
   -4.2370   14.4020   -1.0330 C   0  0  1  0  0  0  0  0  0  0  0  0
   -3.6990   14.9180   -2.4030 C   0  0  0  0  0  0  0  0  0  0  0  0
   -3.5360   14.9800    0.1780 N   0  0  0  0  0  0  0  0  0  0  0  0
   -4.3930   15.2050   -3.3700 O   0  0  0  0  0  0  0  0  0  0  0  0
   -2.3480   15.0180   -2.4820 O   0  0  0  0  0  0  0  0  0  0  0  0
   -2.1840   14.7380    0.2100 C   0  0  0  0  0  0  0  0  0  0  0  0
   -1.6550   14.6880   -1.0050 N   0  0  0  0  0  0  0  0  0  0  0  0
   -1.4830   14.5770    1.3550 N   0  0  0  0  0  0  0  0  0  0  0  0
   -0.3660   14.4790   -1.1310 C   0  0  0  0  0  0  0  0  0  0  0  0
   -0.1660   14.3670    1.1710 C   0  0  0  0  0  0  0  0  0  0  0  0
    0.4360   14.3110   -0.0800 C   0  0  0  0  0  0  0  0  0  0  0  0
  1  2  1  0
  3  1  1  1
  3  4  1  0
  3  5  1  0
  4  6  1  1
  5  7  1  1
  4  8  1  0
  5  9  1  0
  9 10  1  6
  8 11  1  0
  9 11  1  0
 10 12  2  0
 10 13  1  0
 11 14  1  0
 14 15  2  0
 14 16  1  0
 15 17  1  0
 16 18  2  0
 17 19  2  0
 18 19  1  0
M  END
