diamond-x0104_0_A-diamond-x0592_0_A
     RDKit          3D

 20 23  0  0  0  0  0  0  0  0999 V2000
   -6.9220   13.8920    2.5990 N   0  0  0  0  0  0  0  0  0  0  0  0
   -8.1570   14.4460    3.1300 C   0  0  1  0  0  0  0  0  0  0  0  0
   -8.0790   14.9960    4.4620 N   0  0  0  0  0  0  0  0  0  0  0  0
   -6.3510   14.5100    1.4200 C   0  0  1  0  0  0  0  0  0  0  0  0
   -8.6880   15.4040    2.1770 N   0  0  0  0  0  0  0  0  0  0  0  0
   -5.0530   13.9200    0.9020 C   0  0  0  0  0  0  0  0  0  0  0  0
   -7.3250   14.4530    0.2710 C   0  0  1  0  0  0  0  0  0  0  0  0
   -8.6770   14.9660    0.7710 C   0  0  0  0  0  0  0  0  0  0  0  0
   -4.4100   14.9220    0.0540 N   0  0  0  0  0  0  0  0  0  0  0  0
   -6.7910   15.1830   -0.9770 C   0  0  0  0  0  0  0  0  0  0  0  0
   -9.1560   15.0510    5.2940 C   0  0  0  0  0  0  0  0  0  0  0  0
   -3.2430   14.3170   -0.5450 C   0  0  1  0  0  0  0  0  0  0  0  0
   -5.2590   15.3530   -1.0750 C   0  0  2  0  0  0  0  0  0  0  0  0
   -9.2170   15.2020    6.6670 C   0  0  0  0  0  0  0  0  0  0  0  0
  -10.7410   14.9170    4.6340 S   0  0  0  0  0  0  0  0  0  0  0  0
   -3.3330   14.7090   -2.0340 C   0  0  0  0  0  0  0  0  0  0  0  0
   -4.7420   14.8020   -2.2860 O   0  0  0  0  0  0  0  0  0  0  0  0
   -2.1440   14.8420    0.2360 N   0  0  0  0  0  0  0  0  0  0  0  0
  -11.4820   15.0590    6.1670 C   0  0  0  0  0  0  0  0  0  0  0  0
  -10.5500   15.2080    7.1720 C   0  0  0  0  0  0  0  0  0  0  0  0
  1  2  1  0
  2  3  1  1
  1  4  1  0
  2  5  1  0
  4  6  1  6
  4  7  1  0
  5  8  1  0
  7  8  1  1
  6  9  1  0
  7 10  1  0
  3 11  1  0
  9 12  1  0
  9 13  1  0
 13 10  1  1
 11 14  2  0
 11 15  1  0
 12 16  1  0
 13 17  1  0
 16 17  1  0
 12 18  1  1
 15 19  1  0
 14 20  1  0
 19 20  2  0
M  END
