diamond-x0438_0_A-mac-x0326
     RDKit          3D

 24 26  0  0  0  0  0  0  0  0999 V2000
   -8.2380   15.8080    4.0690 C   0  0  0  0  0  0  0  0  0  0  0  0
   -9.1410   15.2590    2.6340 S   0  0  0  0  0  0  0  0  0  0  0  0
  -10.4160   14.7530    3.1190 O   0  0  0  0  0  0  0  0  0  0  0  0
   -8.2110   13.8470    2.0360 C   0  0  0  0  0  0  0  0  0  0  0  0
   -9.1760   16.3030    1.6280 O   0  0  0  0  0  0  0  0  0  0  0  0
   -6.9590   14.1490    1.2610 C   0  0  0  0  0  0  0  0  0  0  0  0
   -6.9650   14.3050   -0.1000 N   0  0  0  0  0  0  0  0  0  0  0  0
   -5.7080   14.2840    1.7220 N   0  0  0  0  0  0  0  0  0  0  0  0
   -4.8960   14.5170    0.6350 C   0  0  0  0  0  0  0  0  0  0  0  0
   -5.6720   14.5290   -0.4730 C   0  0  0  0  0  0  0  0  0  0  0  0
   -5.2170   14.7390   -1.8190 C   0  0  1  0  0  0  0  0  0  0  0  0
   -3.3860   14.7270    0.5900 C   0  0  0  0  0  0  0  0  0  0  0  0
   -6.6560   15.3810   -2.5790 Cl  0  0  0  0  0  0  0  0  0  0  0  0
   -3.9650   15.6340   -1.7320 C   0  0  0  0  0  0  0  0  0  0  0  0
   -2.8640   14.9330   -0.9040 C   0  0  2  0  0  0  0  0  0  0  0  0
   -2.4450   13.6660   -1.6640 C   0  0  0  0  0  0  0  0  0  0  0  0
   -1.1860   15.7070   -1.0870 S   0  0  0  0  0  0  0  0  0  0  0  0
   -0.9770   15.1630   -2.8320 C   0  0  2  0  0  0  0  0  0  0  0  0
   -1.9340   14.0600   -3.0110 N   0  0  0  0  0  0  0  0  0  0  0  0
    0.4530   14.7260   -3.2620 C   0  0  0  0  0  0  0  0  0  0  0  0
    0.5580   13.4080   -4.0490 C   0  0  0  0  0  0  0  0  0  0  0  0
    1.0510   12.3050   -3.1480 C   0  0  0  0  0  0  0  0  0  0  0  0
    0.3730   11.1410   -3.2510 O   0  0  0  0  0  0  0  0  0  0  0  0
    1.9810   12.4480   -2.3820 O   0  0  0  0  0  0  0  0  0  0  0  0
  2  1  1  0
  2  3  2  0
  2  4  1  0
  2  5  2  0
  4  6  1  0
  6  7  1  0
  6  8  2  0
  8  9  1  0
  7 10  1  0
  9 10  2  0
 10 11  1  0
  9 12  1  0
 11 13  1  6
 11 14  1  0
 15 12  1  1
 14 15  1  0
 15 16  1  0
 15 17  1  0
 17 18  1  0
 16 19  1  0
 18 19  1  0
 18 20  1  1
 20 21  1  0
 21 22  1  0
 22 23  1  0
 22 24  2  0
M  END
