diamond-x0905_0_B-diamond-x0598_0_A
     RDKit          3D

 20 21  0  0  0  0  0  0  0  0999 V2000
   13.8400   19.3150   11.9250 O   0  0  0  0  0  0  0  0  0  0  0  0
   13.4400   20.1700   12.9100 C   0  0  0  0  0  0  0  0  0  0  0  0
   12.3140   19.8340   13.5590 N   0  0  0  0  0  0  0  0  0  0  0  0
   14.1870   21.2940   13.1800 C   0  0  0  0  0  0  0  0  0  0  0  0
   11.9070   20.6880   14.5420 C   0  0  0  0  0  0  0  0  0  0  0  0
   13.7460   22.1530   14.1920 C   0  0  0  0  0  0  0  0  0  0  0  0
   12.5720   21.8670   14.9080 C   0  0  0  0  0  0  0  0  0  0  0  0
   12.1030   22.8170   16.0100 C   0  0  0  0  0  0  0  0  0  0  0  0
   10.8950   23.6130   15.6950 N   0  0  0  0  0  0  0  0  0  0  0  0
   11.0020   25.0710   15.2090 S   0  0  2  0  0  0  0  0  0  0  0  0
    9.7010   26.0050   15.8710 N   0  0  0  0  0  0  0  0  0  0  0  0
   10.8390   25.0670   13.4500 C   0  0  0  0  0  0  0  0  0  0  0  0
   12.1110   25.9020   15.4460 O   0  0  0  0  0  0  0  0  0  0  0  0
    8.8360   25.6060   17.0140 C   0  0  0  0  0  0  0  0  0  0  0  0
    7.3260   26.1110   17.0020 C   0  0  0  0  0  0  0  0  0  0  0  0
    6.2500   25.1550   16.4010 C   0  0  0  0  0  0  0  0  0  0  0  0
    6.8780   26.6540   18.3700 C   0  0  0  0  0  0  0  0  0  0  0  0
    4.8060   25.2290   16.8870 C   0  0  0  0  0  0  0  0  0  0  0  0
    5.3790   26.5730   18.6970 C   0  0  0  0  0  0  0  0  0  0  0  0
    4.7170   25.3450   18.3140 N   0  0  0  0  0  0  0  0  0  0  0  0
  1  2  1  0
  2  3  2  0
  2  4  1  0
  3  5  1  0
  4  6  2  0
  5  7  2  0
  6  7  1  0
  7  8  1  0
  8  9  1  0
  9 10  2  0
 10 11  1  0
 10 12  1  6
 10 13  2  0
 11 14  1  0
 14 15  1  0
 15 16  1  0
 15 17  1  0
 16 18  1  0
 17 19  1  0
 18 20  1  0
 19 20  1  0
M  END
