diamond-x1012_0_A-mac-x0379
     RDKit          3D

 20 21  0  0  0  0  0  0  0  0999 V2000
   -0.3910   18.2670   -4.7030 N   0  0  0  0  0  0  0  0  0  0  0  0
   -1.2100   17.1950   -4.7760 C   0  0  0  0  0  0  0  0  0  0  0  0
   -2.4170   17.3700   -4.6720 O   0  0  0  0  0  0  0  0  0  0  0  0
   -0.5920   15.9720   -4.9670 N   0  0  0  0  0  0  0  0  0  0  0  0
   -1.3890   14.7650   -4.7480 C   0  0  0  0  0  0  0  0  0  0  0  0
    0.8680   15.7910   -4.9270 C   0  0  0  0  0  0  0  0  0  0  0  0
   -0.9570   14.0710   -3.4470 C   0  0  1  0  0  0  0  0  0  0  0  0
    1.2780   14.3480   -4.6250 C   0  0  0  0  0  0  0  0  0  0  0  0
    0.5400   13.8420   -3.3930 C   0  0  2  0  0  0  0  0  0  0  0  0
   -1.1960   14.9620   -2.2480 C   0  0  1  0  0  0  0  0  0  0  0  0
    0.9230   12.4740   -2.9110 C   0  0  0  0  0  0  0  0  0  0  0  0
   -0.6440   16.2510   -2.4380 O   0  0  0  0  0  0  0  0  0  0  0  0
   -2.6120   15.0390   -1.8850 C   0  0  0  0  0  0  0  0  0  0  0  0
    0.1970   11.4390   -3.3670 O   0  0  0  0  0  0  0  0  0  0  0  0
    1.8160   12.2810   -2.1330 O   0  0  0  0  0  0  0  0  0  0  0  0
   -3.7140   15.1770   -2.6980 C   0  0  0  0  0  0  0  0  0  0  0  0
   -3.0820   14.9350   -0.2490 S   0  0  0  0  0  0  0  0  0  0  0  0
   -4.7070   15.0550   -0.7510 C   0  0  0  0  0  0  0  0  0  0  0  0
   -4.9170   15.1840   -2.0410 N   0  0  0  0  0  0  0  0  0  0  0  0
   -5.7740   14.9990    0.2620 C   0  0  0  0  0  0  0  0  0  0  0  0
  1  2  1  0
  2  3  2  0
  2  4  1  0
  4  5  1  0
  4  6  1  0
  7  5  1  6
  6  8  1  0
  7  9  1  0
  8  9  1  0
  7 10  1  0
  9 11  1  6
 10 12  1  6
 10 13  1  0
 11 14  1  0
 11 15  2  0
 13 16  2  0
 13 17  1  0
 17 18  1  0
 16 19  1  0
 18 19  2  0
 18 20  1  0
M  END
