diamond-x0282_0_A-mac-x0124
     RDKit          3D

 20 22  0  0  0  0  0  0  0  0999 V2000
   -7.1820   13.3600    0.6060 C   0  0  0  0  0  0  0  0  0  0  0  0
   -8.5280   13.6800    0.2590 O   0  0  0  0  0  0  0  0  0  0  0  0
   -6.3170   14.6090    0.5530 C   0  0  0  0  0  0  0  0  0  0  0  0
   -5.2590   14.7100    1.6350 C   0  0  0  0  0  0  0  0  0  0  0  0
   -5.5950   14.8510   -0.7600 C   0  0  0  0  0  0  0  0  0  0  0  0
   -4.2870   13.5340    1.4810 C   0  0  0  0  0  0  0  0  0  0  0  0
   -4.5560   13.7490   -1.0290 C   0  0  0  0  0  0  0  0  0  0  0  0
   -3.6680   13.4220    0.1150 N   0  0  0  0  0  0  0  0  0  0  0  0
   -2.1770   13.6930    0.0490 C   0  0  1  0  0  0  0  0  0  0  0  0
   -1.6380   14.8200   -0.9530 C   0  0  1  0  0  0  0  0  0  0  0  0
   -1.7520   13.9990    1.4330 N   0  0  0  0  0  0  0  0  0  0  0  0
   -2.5760   15.1150    1.8900 N   0  0  0  0  0  0  0  0  0  0  0  0
   -0.3660   15.5060   -0.5320 C   0  0  0  0  0  0  0  0  0  0  0  0
   -0.2960   14.1740    1.5100 C   0  0  0  0  0  0  0  0  0  0  0  0
   -1.4980   14.5820   -2.4210 N   0  0  0  0  0  0  0  0  0  0  0  0
   -2.8040   15.8220   -0.9030 C   0  0  0  0  0  0  0  0  0  0  0  0
   -0.2140   14.8520   -3.0520 C   0  0  0  0  0  0  0  0  0  0  0  0
    0.2440   15.2040    0.6040 C   0  0  0  0  0  0  0  0  0  0  0  0
   -2.6860   14.9130   -3.0280 C   0  0  0  0  0  0  0  0  0  0  0  0
   -3.4790   15.6140   -2.2240 C   0  0  0  0  0  0  0  0  0  0  0  0
  1  2  1  0
  1  3  1  0
  3  4  1  0
  3  5  1  0
  4  6  1  0
  5  7  1  0
  6  8  1  0
  7  8  1  0
  9  8  1  1
  9 10  1  0
  9 11  1  0
 11 12  1  0
 10 13  1  1
 11 14  1  0
 10 15  1  0
 10 16  1  0
 15 17  1  0
 13 18  2  0
 14 18  1  0
 15 19  1  0
 16 20  1  0
 19 20  2  0
M  END
