diamond-x0722_0_A-mac-x0188
     RDKit          3D

 27 29  0  0  0  0  0  0  0  0999 V2000
   -5.1830   15.1970    2.0310 C   0  0  0  0  0  0  0  0  0  0  0  0
   -3.8310   14.9310    1.5960 C   0  0  0  0  0  0  0  0  0  0  0  0
   -2.7840   14.6780    2.3970 N   0  0  0  0  0  0  0  0  0  0  0  0
   -3.3870   14.8670    0.3280 C   0  0  0  0  0  0  0  0  0  0  0  0
   -2.0590   14.5870    0.3460 C   0  0  0  0  0  0  0  0  0  0  0  0
   -1.7160   14.4670    1.5710 N   0  0  0  0  0  0  0  0  0  0  0  0
   -3.6770   14.9400   -0.9600 C   0  0  0  0  0  0  0  0  0  0  0  0
   -0.3250   14.1330    1.8530 C   0  0  0  0  0  0  0  0  0  0  0  0
   -1.0350   14.4030   -0.7140 C   0  0  0  0  0  0  0  0  0  0  0  0
   -4.5950   15.2550   -1.9370 C   0  0  0  0  0  0  0  0  0  0  0  0
   -2.4680   14.4650   -1.1490 C   0  0  0  0  0  0  0  0  0  0  0  0
   -4.0780   15.0070   -3.2610 C   0  0  0  0  0  0  0  0  0  0  0  0
   -2.0080   14.2370   -2.2980 C   0  0  0  0  0  0  0  0  0  0  0  0
   -5.9620   15.7710   -1.6090 C   0  0  0  0  0  0  0  0  0  0  0  0
   -2.7450   14.4810   -3.3510 C   0  0  0  0  0  0  0  0  0  0  0  0
   -6.7690   14.8270   -0.7560 C   0  0  0  0  0  0  0  0  0  0  0  0
   -1.8380   14.0660   -4.3480 C   0  0  0  0  0  0  0  0  0  0  0  0
   -7.9300   15.0650   -0.4750 O   0  0  0  0  0  0  0  0  0  0  0  0
   -6.1760   13.6820   -0.2940 N   0  0  0  0  0  0  0  0  0  0  0  0
   -2.1390   13.7820   -5.6020 N   0  0  0  0  0  0  0  0  0  0  0  0
   -0.4420   13.8730   -4.0480 C   0  0  0  0  0  0  0  0  0  0  0  0
    0.3870   14.0400   -2.8540 C   0  0  0  0  0  0  0  0  0  0  0  0
    0.0600   13.4300   -5.2160 C   0  0  0  0  0  0  0  0  0  0  0  0
   -0.9330   13.3780   -6.1470 O   0  0  0  0  0  0  0  0  0  0  0  0
    1.4170   13.0230   -5.5910 C   0  0  0  0  0  0  0  0  0  0  0  0
    0.8990   15.0930   -2.4890 O   0  0  0  0  0  0  0  0  0  0  0  0
    0.6130   12.9280   -2.1210 O   0  0  0  0  0  0  0  0  0  0  0  0
  1  2  1  0
  2  3  2  0
  2  4  1  0
  4  5  2  0
  3  6  1  0
  5  6  1  0
  4  7  1  0
  6  8  1  0
  5  9  1  0
  7 10  2  0
  7 11  1  0
 10 12  1  0
 11 13  2  0
 10 14  1  0
 12 15  2  0
 13 15  1  0
 14 16  1  0
 15 17  1  0
 16 18  2  0
 16 19  1  0
 17 20  2  0
 17 21  1  0
 21 22  1  0
 21 23  2  0
 20 24  1  0
 23 24  1  0
 23 25  1  0
 22 26  2  0
 22 27  1  0
M  END
