diamond-x1012_0_A-mac-x0347
     RDKit          3D

 25 27  0  0  0  0  0  0  0  0999 V2000
   -0.4230   18.3780   -4.9980 N   0  0  0  0  0  0  0  0  0  0  0  0
   -1.0760   17.1610   -4.7120 C   0  0  0  0  0  0  0  0  0  0  0  0
   -2.3590   17.2500   -4.6930 O   0  0  0  0  0  0  0  0  0  0  0  0
   -0.3460   15.9740   -4.4290 N   0  0  0  0  0  0  0  0  0  0  0  0
   -0.4200   14.8920   -5.3440 C   0  0  0  0  0  0  0  0  0  0  0  0
    0.9670   16.1400   -4.0110 C   0  0  0  0  0  0  0  0  0  0  0  0
    0.3350   13.6330   -4.9450 C   0  0  0  0  0  0  0  0  0  0  0  0
    1.5660   15.0530   -3.2620 C   0  0  0  0  0  0  0  0  0  0  0  0
    1.1530   13.6730   -3.6290 C   0  0  0  0  0  0  0  0  0  0  0  0
    0.0880   12.9950   -2.6710 S   0  0  0  0  0  0  0  0  0  0  0  0
    0.3420   11.5520   -1.7650 O   0  0  0  0  0  0  0  0  0  0  0  0
    0.6620   13.6440   -1.3250 O   0  0  0  0  0  0  0  0  0  0  0  0
   -0.3680   12.1550   -3.6440 O   0  0  0  0  0  0  0  0  0  0  0  0
   -1.3970   13.8170   -2.5670 C   0  0  0  0  0  0  0  0  0  0  0  0
   -2.1220   13.9050   -1.4580 C   0  0  0  0  0  0  0  0  0  0  0  0
   -1.8330   14.3990   -3.7280 C   0  0  0  0  0  0  0  0  0  0  0  0
   -3.3180   14.5880   -1.5260 C   0  0  0  0  0  0  0  0  0  0  0  0
   -2.9960   15.0760   -3.7990 N   0  0  0  0  0  0  0  0  0  0  0  0
   -3.7300   15.1640   -2.6980 C   0  0  0  0  0  0  0  0  0  0  0  0
   -4.1490   14.6790   -0.3460 C   0  0  0  0  0  0  0  0  0  0  0  0
   -3.7450   15.3200    0.7800 C   0  0  0  0  0  0  0  0  0  0  0  0
   -5.3820   14.0870   -0.3850 C   0  0  0  0  0  0  0  0  0  0  0  0
   -4.6010   15.3560    1.8760 C   0  0  0  0  0  0  0  0  0  0  0  0
   -6.2360   14.1200    0.7040 C   0  0  0  0  0  0  0  0  0  0  0  0
   -5.8440   14.7600    1.8500 C   0  0  0  0  0  0  0  0  0  0  0  0
  1  2  1  0
  2  3  2  0
  2  4  1  0
  4  5  1  0
  4  6  1  0
  5  7  1  0
  6  8  1  0
  7  9  1  0
  8  9  1  0
  9 10  1  0
 10 11  1  0
 10 12  2  0
 10 13  1  0
 10 14  1  0
 14 15  2  0
 14 16  1  0
 15 17  1  0
 16 18  2  0
 17 19  2  0
 18 19  1  0
 17 20  1  0
 20 21  2  0
 20 22  1  0
 21 23  1  0
 22 24  2  0
 23 25  2  0
 24 25  1  0
M  END
