diamond-x0967_0_A-diamond-x0711_0_A
     RDKit          3D

 18 19  0  0  0  0  0  0  0  0999 V2000
   -2.9570   14.7370   -2.6750 N   0  0  0  0  0  0  0  0  0  0  0  0
   -1.3210   14.1700   -2.8070 S   0  0  0  0  0  0  0  0  0  0  0  0
   -1.4850   12.8070   -3.9480 C   0  0  0  0  0  0  0  0  0  0  0  0
   -3.7030   14.8950   -1.4280 C   0  0  0  0  0  0  0  0  0  0  0  0
   -0.5580   15.1730   -3.5310 O   0  0  0  0  0  0  0  0  0  0  0  0
   -0.8090   13.6320   -1.5650 O   0  0  0  0  0  0  0  0  0  0  0  0
   -5.1180   14.9590   -1.2500 N   0  0  0  0  0  0  0  0  0  0  0  0
   -2.9640   15.0140   -0.3070 C   0  0  0  0  0  0  0  0  0  0  0  0
   -6.1860   14.4150   -1.8800 C   0  0  0  0  0  0  0  0  0  0  0  0
   -5.5560   14.3490   -0.0440 C   0  0  2  0  0  0  0  0  0  0  0  0
   -3.6060   15.2260    0.9830 C   0  0  0  0  0  0  0  0  0  0  0  0
   -6.4920   13.1720   -1.3830 N   0  0  0  0  0  0  0  0  0  0  0  0
   -6.8970   14.8970   -2.7210 O   0  0  0  0  0  0  0  0  0  0  0  0
   -7.0410   14.2940   -0.0660 N   0  0  0  0  0  0  0  0  0  0  0  0
   -4.8980   14.9230    1.1190 C   0  0  0  0  0  0  0  0  0  0  0  0
   -5.7190   15.0820    2.2930 C   0  0  0  0  0  0  0  0  0  0  0  0
   -7.6590   14.5280    1.0120 C   0  0  0  0  0  0  0  0  0  0  0  0
   -7.0480   14.8820    2.2880 C   0  0  0  0  0  0  0  0  0  0  0  0
  2  1  1  0
  2  3  1  0
  1  4  1  0
  2  5  2  0
  2  6  2  0
  4  7  1  0
  4  8  2  0
  7  9  1  0
  7 10  1  0
  8 11  1  0
  9 12  1  0
  9 13  2  0
 10 14  1  1
 10 15  1  0
 11 15  2  0
 15 16  1  0
 14 17  2  0
 16 18  2  0
 17 18  1  0
M  END
