diamond-x0742_0_A-mac-x0337
     RDKit          3D

 27 30  0  0  0  0  0  0  0  0999 V2000
   -5.5420   12.5280   -0.7700 C   0  0  0  0  0  0  0  0  0  0  0  0
   -6.3110   11.6300   -1.2790 N   0  0  0  0  0  0  0  0  0  0  0  0
   -5.3760   11.0290   -2.0530 C   0  0  0  0  0  0  0  0  0  0  0  0
   -4.1130   12.2410   -1.1610 C   0  0  0  0  0  0  0  0  0  0  0  0
   -5.5940   13.7840    0.0740 C   0  0  2  0  0  0  0  0  0  0  0  0
   -5.2620   13.5510    1.5530 C   0  0  0  0  0  0  0  0  0  0  0  0
   -6.8780   14.6050   -0.2000 C   0  0  0  0  0  0  0  0  0  0  0  0
   -4.4770   14.6060   -0.6740 C   0  0  1  0  0  0  0  0  0  0  0  0
   -5.0350   15.9870   -0.8080 C   0  0  0  0  0  0  0  0  0  0  0  0
   -3.0560   14.5950   -0.1630 C   0  0  0  0  0  0  0  0  0  0  0  0
   -3.9410   14.1380    2.0600 C   0  0  0  0  0  0  0  0  0  0  0  0
   -5.1340    9.7200   -2.4710 C   0  0  0  0  0  0  0  0  0  0  0  0
   -4.5350   12.0530   -2.4470 C   0  0  0  0  0  0  0  0  0  0  0  0
   -6.4860   15.7280   -1.1520 C   0  0  0  0  0  0  0  0  0  0  0  0
   -5.9960    8.5500   -2.0970 C   0  0  0  0  0  0  0  0  0  0  0  0
   -1.9320   14.7960   -0.9810 C   0  0  0  0  0  0  0  0  0  0  0  0
   -2.8180   14.3810    1.1510 C   0  0  0  0  0  0  0  0  0  0  0  0
   -3.9940    9.5140   -3.2920 C   0  0  0  0  0  0  0  0  0  0  0  0
   -3.4400   11.8650   -3.2320 C   0  0  0  0  0  0  0  0  0  0  0  0
   -2.4850   13.3150   -3.6120 S   0  0  0  0  0  0  0  0  0  0  0  0
   -1.5910   14.3670    1.7250 N   0  0  0  0  0  0  0  0  0  0  0  0
   -0.6500   14.7760   -0.4280 C   0  0  0  0  0  0  0  0  0  0  0  0
   -3.1450   10.5780   -3.6730 C   0  0  0  0  0  0  0  0  0  0  0  0
   -2.2730   13.3990   -5.0300 O   0  0  0  0  0  0  0  0  0  0  0  0
   -1.4040   13.4060   -2.6560 O   0  0  0  0  0  0  0  0  0  0  0  0
   -3.5760   14.5600   -3.2800 N   0  0  0  0  0  0  0  0  0  0  0  0
   -0.5330   14.5620    0.9280 C   0  0  0  0  0  0  0  0  0  0  0  0
  1  2  2  3
  2  3  1  0
  1  4  1  0
  5  1  1  6
  5  6  1  0
  5  7  1  0
  5  8  1  0
  8  9  1  1
  8 10  1  0
  6 11  1  0
  3 12  2  0
  3 13  1  0
  7 14  1  0
  9 14  1  0
 12 15  1  0
 10 16  1  0
 10 17  2  0
 11 17  1  0
 12 18  1  0
 13 19  2  0
 19 20  1  0
 17 21  1  0
 16 22  2  0
 18 23  2  0
 19 23  1  0
 20 24  2  0
 20 25  2  0
 20 26  1  0
 21 27  2  0
 22 27  1  0
M  END
