diamond-x0685_1_A-diamond-x0849_0_A
     RDKit          3D

 25 27  0  0  0  0  0  0  0  0999 V2000
   -1.1800   10.6240   -4.7620 N   0  0  0  0  0  0  0  0  0  0  0  0
   -1.4700   12.0300   -4.4260 C   0  0  0  0  0  0  0  0  0  0  0  0
   -0.2080   12.7970   -4.0200 C   0  0  0  0  0  0  0  0  0  0  0  0
   -0.6580   10.3850   -6.1240 C   0  0  0  0  0  0  0  0  0  0  0  0
   -0.5560    8.8800   -6.4250 C   0  0  0  0  0  0  0  0  0  0  0  0
   -1.5700   11.0150   -7.1990 C   0  0  0  0  0  0  0  0  0  0  0  0
    0.8350   11.9730   -2.8070 S   0  0  0  0  0  0  0  0  0  0  0  0
    0.0570    8.6280   -7.7980 C   0  0  0  0  0  0  0  0  0  0  0  0
   -1.0670   10.7510   -8.6250 C   0  0  0  0  0  0  0  0  0  0  0  0
    2.3440   12.1540   -3.3110 O   0  0  0  0  0  0  0  0  0  0  0  0
    0.4030   10.4220   -2.7120 O   0  0  0  0  0  0  0  0  0  0  0  0
    0.6530   12.6180   -1.3620 O   0  0  0  0  0  0  0  0  0  0  0  0
   -0.8060    9.2640   -8.8870 C   0  0  0  0  0  0  0  0  0  0  0  0
    0.9220   13.9810   -1.1020 C   0  0  0  0  0  0  0  0  0  0  0  0
   -0.2330   14.3210   -0.2670 C   0  0  0  0  0  0  0  0  0  0  0  0
   -0.2720   14.3640    1.1150 C   0  0  0  0  0  0  0  0  0  0  0  0
   -1.3880   14.5980   -0.9280 C   0  0  0  0  0  0  0  0  0  0  0  0
   -2.5370   14.8970   -0.2200 C   0  0  0  0  0  0  0  0  0  0  0  0
   -1.3590   14.6510    1.8260 N   0  0  0  0  0  0  0  0  0  0  0  0
   -2.4700   14.9110    1.1710 C   0  0  0  0  0  0  0  0  0  0  0  0
   -3.7490   15.1810   -0.8310 C   0  0  0  0  0  0  0  0  0  0  0  0
   -3.9110   15.1760   -2.7230 Br  0  0  0  0  0  0  0  0  0  0  0  0
   -3.5250   15.1840    1.8930 N   0  0  0  0  0  0  0  0  0  0  0  0
   -4.8610   15.4680   -0.0700 C   0  0  0  0  0  0  0  0  0  0  0  0
   -4.6820   15.4490    1.2930 C   0  0  0  0  0  0  0  0  0  0  0  0
  1  2  1  0
  2  3  1  0
  1  4  1  0
  4  5  1  0
  4  6  1  0
  3  7  1  0
  5  8  1  0
  6  9  1  0
  7 10  1  0
  7 11  1  0
  7 12  1  0
  8 13  1  0
  9 13  1  0
 12 14  1  0
 14 15  1  0
 15 16  2  0
 15 17  1  0
 17 18  2  0
 16 19  1  0
 18 20  1  0
 19 20  2  0
 18 21  1  0
 21 22  1  0
 20 23  1  0
 21 24  2  0
 23 25  2  0
 24 25  1  0
M  END
