diamond-x0104_0_A-diamond-x0727_0_A
     RDKit          3D

 33 35  0  0  0  0  0  0  0  0999 V2000
   -6.7690   14.7250    2.6760 N   0  0  0  0  0  0  0  0  0  0  0  0
   -8.0290   15.0820    3.1500 C   0  0  0  0  0  0  0  0  0  0  0  0
   -8.0110   15.1250    4.5400 N   0  0  0  0  0  0  0  0  0  0  0  0
   -6.2460   14.7220    1.3620 C   0  0  0  0  0  0  0  0  0  0  0  0
   -9.0020   15.3210    2.4490 O   0  0  0  0  0  0  0  0  0  0  0  0
   -4.8840   14.7890    1.0740 C   0  0  0  0  0  0  0  0  0  0  0  0
   -7.1230   14.6510    0.2820 C   0  0  0  0  0  0  0  0  0  0  0  0
   -4.3660   14.7830   -0.1800 N   0  0  0  0  0  0  0  0  0  0  0  0
   -6.6130   14.6480   -1.0200 C   0  0  0  0  0  0  0  0  0  0  0  0
   -9.1260   15.1250    5.3530 C   0  0  0  0  0  0  0  0  0  0  0  0
   -5.2420   14.7140   -1.1950 C   0  0  0  0  0  0  0  0  0  0  0  0
   -9.2700   15.2060    6.7210 C   0  0  0  0  0  0  0  0  0  0  0  0
  -10.6250   15.0060    4.5500 S   0  0  0  0  0  0  0  0  0  0  0  0
   -4.7880   14.7030   -2.4990 O   0  0  0  0  0  0  0  0  0  0  0  0
  -11.4890   15.0560    6.0330 C   0  0  0  0  0  0  0  0  0  0  0  0
  -10.6420   15.1650    7.1130 C   0  0  0  0  0  0  0  0  0  0  0  0
   -3.4410   15.1390   -2.6540 C   0  0  0  0  0  0  0  0  0  0  0  0
   -3.0960   15.4410   -4.1200 C   0  0  0  0  0  0  0  0  0  0  0  0
   -2.1110   14.4500   -4.7550 C   0  0  0  0  0  0  0  0  0  0  0  0
   -0.7240   14.3990   -4.0960 C   0  0  0  0  0  0  0  0  0  0  0  0
    0.4300   13.8860   -4.9800 C   0  0  0  0  0  0  0  0  0  0  0  0
    0.8800   12.4310   -4.7730 C   0  0  2  0  0  0  0  0  0  0  0  0
    0.1200   11.5020   -5.6080 N   0  0  0  0  0  0  0  0  0  0  0  0
    0.7300   11.9990   -3.3180 C   0  0  0  0  0  0  0  0  0  0  0  0
    0.2910   10.9250   -2.9370 O   0  0  0  0  0  0  0  0  0  0  0  0
    0.7000   11.1220   -6.7920 C   0  0  0  0  0  0  0  0  0  0  0  0
    1.1470   12.9320   -2.4420 O   0  0  0  0  0  0  0  0  0  0  0  0
    1.6650   11.7040   -7.2060 O   0  0  0  0  0  0  0  0  0  0  0  0
    0.0750    9.9260   -7.4970 C   0  0  0  0  0  0  0  0  0  0  0  0
   -1.2410   10.3020   -8.1890 C   0  0  0  0  0  0  0  0  0  0  0  0
   -0.2640    8.7810   -6.5260 C   0  0  0  0  0  0  0  0  0  0  0  0
   -2.1800    9.1280   -7.9570 C   0  0  0  0  0  0  0  0  0  0  0  0
   -1.7610    8.5430   -6.6190 C   0  0  0  0  0  0  0  0  0  0  0  0
  1  2  1  0
  2  3  1  0
  1  4  1  0
  2  5  2  0
  4  6  2  0
  4  7  1  0
  6  8  1  0
  7  9  2  0
  3 10  1  0
  8 11  2  0
  9 11  1  0
 10 12  2  0
 10 13  1  0
 11 14  1  0
 13 15  1  0
 12 16  1  0
 15 16  2  0
 14 17  1  0
 17 18  1  0
 18 19  1  0
 19 20  1  0
 20 21  1  0
 22 21  1  1
 22 23  1  0
 22 24  1  0
 24 25  2  0
 23 26  1  0
 24 27  1  0
 26 28  2  0
 26 29  1  0
 29 30  1  0
 29 31  1  0
 30 32  1  0
 31 33  1  0
 32 33  1  0
M  END
