diamond-x0844_0_A-mac-x0546
     RDKit          3D

 25 27  0  0  0  0  0  0  0  0999 V2000
   -7.6970   14.7330    0.0790 O   0  0  0  0  0  0  0  0  0  0  0  0
   -6.4750   14.8700    0.0900 C   0  0  0  0  0  0  0  0  0  0  0  0
   -5.7370   14.8590    1.2530 N   0  0  0  0  0  0  0  0  0  0  0  0
   -5.6720   15.0660   -1.1620 C   0  0  0  0  0  0  0  0  0  0  0  0
   -4.4130   15.1970    1.3120 C   0  0  0  0  0  0  0  0  0  0  0  0
   -4.3060   14.4420   -0.9710 C   0  0  1  0  0  0  0  0  0  0  0  0
   -3.4340   14.6070   -2.0860 O   0  0  0  0  0  0  0  0  0  0  0  0
   -3.6540   15.0110    0.2390 C   0  0  0  0  0  0  0  0  0  0  0  0
   -3.9910   15.5150   -3.0100 C   0  0  0  0  0  0  0  0  0  0  0  0
   -4.3940   14.8790   -4.3470 C   0  0  0  0  0  0  0  0  0  0  0  0
   -3.7290   15.6470   -5.4360 N   0  0  0  0  0  0  0  0  0  0  0  0
   -4.1060   15.0360   -6.6960 C   0  0  0  0  0  0  0  0  0  0  0  0
   -2.4130   15.8990   -5.0700 C   0  0  0  0  0  0  0  0  0  0  0  0
   -1.7580   14.8460   -4.6000 C   0  0  0  0  0  0  0  0  0  0  0  0
   -1.7220   17.2180   -5.0940 C   0  0  0  0  0  0  0  0  0  0  0  0
   -0.4110   14.9490   -4.0700 C   0  0  2  0  0  0  0  0  0  0  0  0
   -0.3840   17.3650   -4.8910 C   0  0  0  0  0  0  0  0  0  0  0  0
    0.3380   16.1020   -4.6650 C   0  0  0  0  0  0  0  0  0  0  0  0
    0.6270   13.9060   -4.2550 C   0  0  0  0  0  0  0  0  0  0  0  0
    0.4300   12.4490   -4.0030 C   0  0  0  0  0  0  0  0  0  0  0  0
    1.5750   15.8600   -4.9100 N   0  0  0  0  0  0  0  0  0  0  0  0
    1.7250   14.5100   -4.6660 C   0  0  0  0  0  0  0  0  0  0  0  0
    0.4380   11.8560   -2.5950 C   0  0  0  0  0  0  0  0  0  0  0  0
    0.5580   12.5190   -1.5670 O   0  0  0  0  0  0  0  0  0  0  0  0
    0.2890   10.5140   -2.5220 O   0  0  0  0  0  0  0  0  0  0  0  0
  1  2  2  0
  2  3  1  0
  2  4  1  0
  3  5  1  0
  4  6  1  0
  6  7  1  6
  5  8  2  0
  6  8  1  0
  7  9  1  0
  9 10  1  0
 10 11  1  0
 11 12  1  0
 11 13  1  0
 13 14  2  0
 13 15  1  0
 16 14  1  6
 15 17  2  0
 16 18  1  0
 17 18  1  0
 16 19  1  0
 19 20  1  0
 18 21  2  0
 19 22  2  0
 21 22  1  0
 20 23  1  0
 23 24  2  0
 23 25  1  0
M  END
