diamond-x0905_0_A-mac-x0572
     RDKit          3D

 12 13  0  0  0  0  0  0  0  0999 V2000
   -7.9460   14.5580    3.1240 C   0  0  0  0  0  0  0  0  0  0  0  0
   -7.1310   14.6690    1.8580 C   0  0  0  0  0  0  0  0  0  0  0  0
   -5.8550   14.8940    1.9670 N   0  0  0  0  0  0  0  0  0  0  0  0
   -7.8360   14.5260    0.5460 C   0  0  0  0  0  0  0  0  0  0  0  0
   -9.1240   14.0430    0.5200 O   0  0  0  0  0  0  0  0  0  0  0  0
   -5.1230   14.9960    0.8030 N   0  0  0  0  0  0  0  0  0  0  0  0
   -7.1550   14.8880   -0.5570 C   0  0  0  0  0  0  0  0  0  0  0  0
   -3.7530   15.0150    0.9080 C   0  0  0  0  0  0  0  0  0  0  0  0
   -5.7450   15.4270   -0.4770 C   0  0  2  0  0  0  0  0  0  0  0  0
   -2.9470   14.9510   -0.1580 C   0  0  0  0  0  0  0  0  0  0  0  0
   -4.8510   15.0720   -1.6430 C   0  0  0  0  0  0  0  0  0  0  0  0
   -3.5360   14.8580   -1.4810 C   0  0  0  0  0  0  0  0  0  0  0  0
  1  2  1  0
  2  3  2  0
  2  4  1  0
  4  5  1  0
  3  6  1  0
  4  7  2  0
  6  8  1  0
  6  9  1  0
  9  7  1  6
  8 10  2  0
  9 11  1  0
 10 12  1  0
 11 12  2  0
M  END
