diamond-x0969_0_A-mac-x0385
     RDKit          3D

 19 21  0  0  0  0  0  0  0  0999 V2000
   -6.5230   11.9870    2.1550 N   0  0  0  0  0  0  0  0  0  0  0  0
   -6.4040   12.0890    0.8100 C   0  0  0  0  0  0  0  0  0  0  0  0
   -6.6540   11.1610   -0.1070 N   0  0  0  0  0  0  0  0  0  0  0  0
   -5.9780   13.2430    0.1670 N   0  0  0  0  0  0  0  0  0  0  0  0
   -6.3860   11.6770   -1.3630 N   0  0  0  0  0  0  0  0  0  0  0  0
   -5.9870   12.9070   -1.1560 C   0  0  0  0  0  0  0  0  0  0  0  0
   -5.5730   14.5550    0.5990 C   0  0  0  0  0  0  0  0  0  0  0  0
   -5.5520   14.0170   -1.8740 C   0  0  0  0  0  0  0  0  0  0  0  0
   -5.1470   15.5590   -0.3060 C   0  0  0  0  0  0  0  0  0  0  0  0
   -5.4510   14.4700   -0.4230 C   0  0  0  0  0  0  0  0  0  0  0  0
   -5.1390   15.2370   -1.7320 C   0  0  0  0  0  0  0  0  0  0  0  0
   -4.0030   14.4370    0.0890 C   0  0  0  0  0  0  0  0  0  0  0  0
   -3.4910   15.0290    1.2610 C   0  0  0  0  0  0  0  0  0  0  0  0
   -3.0660   13.7520   -0.6630 C   0  0  0  0  0  0  0  0  0  0  0  0
   -4.2580   15.7680    2.1580 N   0  0  0  0  0  0  0  0  0  0  0  0
   -2.2070   14.9200    1.6100 N   0  0  0  0  0  0  0  0  0  0  0  0
   -1.7720   13.6340   -0.3410 N   0  0  0  0  0  0  0  0  0  0  0  0
   -1.4140   14.2340    0.7990 C   0  0  0  0  0  0  0  0  0  0  0  0
   -0.0120   14.1270    1.2010 C   0  0  0  0  0  0  0  0  0  0  0  0
  1  2  1  0
  2  3  2  0
  2  4  1  0
  3  5  1  0
  4  6  1  0
  5  6  2  0
  4  7  1  0
  6  8  1  0
  7  9  2  0
  8 10  1  0
  8 11  2  0
  9 11  1  0
 10 12  1  0
 12 13  2  0
 12 14  1  0
 13 15  1  0
 13 16  1  0
 14 17  2  0
 16 18  2  0
 17 18  1  0
 18 19  1  0
M  END
