diamond-x0864_0_A-diamond-x0926_0_A
     RDKit          3D

 22 23  0  0  0  0  0  0  0  0999 V2000
    1.4510   12.1000   -6.5970 O   0  0  0  0  0  0  0  0  0  0  0  0
    0.4710   11.4630   -6.2220 C   0  0  0  0  0  0  0  0  0  0  0  0
   -0.1860   11.7160   -5.0170 N   0  0  0  0  0  0  0  0  0  0  0  0
   -0.0550   10.3490   -7.0480 C   0  0  0  0  0  0  0  0  0  0  0  0
    0.5280   12.4740   -3.9720 C   0  0  0  0  0  0  0  0  0  0  0  0
   -1.4070   11.1340   -4.7280 C   0  0  0  0  0  0  0  0  0  0  0  0
   -1.2000    9.7440   -6.6930 C   0  0  0  0  0  0  0  0  0  0  0  0
    0.4280   11.7890   -2.5990 C   0  0  0  0  0  0  0  0  0  0  0  0
   -1.9190    8.3300   -7.6730 Br  0  0  0  0  0  0  0  0  0  0  0  0
   -1.9190   10.1800   -5.5190 C   0  0  0  0  0  0  0  0  0  0  0  0
    0.4740   10.4330   -2.5960 O   0  0  0  0  0  0  0  0  0  0  0  0
    0.3030   12.4230   -1.4730 N   0  0  0  0  0  0  0  0  0  0  0  0
    0.2240   13.8810   -1.3770 C   0  0  0  0  0  0  0  0  0  0  0  0
   -0.2140   14.2830    0.0420 C   0  0  0  0  0  0  0  0  0  0  0  0
   -1.6620   13.9410    0.4540 C   0  0  0  0  0  0  0  0  0  0  0  0
   -2.6900   15.0660    0.3090 C   0  0  1  0  0  0  0  0  0  0  0  0
   -3.1740   15.1260   -1.0990 N   0  0  0  0  0  0  0  0  0  0  0  0
   -3.7770   14.9870    1.3220 C   0  0  0  0  0  0  0  0  0  0  0  0
   -5.0720   15.0250    1.0250 C   0  0  0  0  0  0  0  0  0  0  0  0
   -4.5400   15.4640   -1.2950 N   0  0  0  0  0  0  0  0  0  0  0  0
   -5.5130   15.1490   -0.3730 C   0  0  0  0  0  0  0  0  0  0  0  0
   -6.6870   14.9720   -0.6770 O   0  0  0  0  0  0  0  0  0  0  0  0
  1  2  2  0
  2  3  1  0
  2  4  1  0
  3  5  1  0
  3  6  1  0
  4  7  2  0
  5  8  1  0
  7  9  1  0
  6 10  2  0
  7 10  1  0
  8 11  1  0
  8 12  2  3
 12 13  1  0
 13 14  1  0
 14 15  1  0
 16 15  1  6
 16 17  1  0
 16 18  1  0
 18 19  2  0
 17 20  1  0
 19 21  1  0
 20 21  1  0
 21 22  2  0
M  END
