diamond-x0591_0_A-mac-x0373
     RDKit          3D

 24 25  0  0  0  0  0  0  0  0999 V2000
   -5.7270   14.6520    0.9830 N   0  0  0  0  0  0  0  0  0  0  0  0
   -6.7240   14.4970    2.0130 C   0  0  0  0  0  0  0  0  0  0  0  0
   -6.1300   14.8350   -0.3170 C   0  0  0  0  0  0  0  0  0  0  0  0
   -7.2950   15.0720   -0.6180 O   0  0  0  0  0  0  0  0  0  0  0  0
   -5.1030   14.7220   -1.3910 C   0  0  0  0  0  0  0  0  0  0  0  0
   -3.7950   14.2250   -1.2070 C   0  0  0  0  0  0  0  0  0  0  0  0
   -5.4920   15.1250   -2.6530 C   0  0  0  0  0  0  0  0  0  0  0  0
   -2.8690   14.1290   -2.2920 C   0  0  0  0  0  0  0  0  0  0  0  0
   -4.6040   15.0430   -3.7120 C   0  0  0  0  0  0  0  0  0  0  0  0
   -1.4780   13.5170   -2.0660 C   0  0  2  0  0  0  0  0  0  0  0  0
   -3.3240   14.5730   -3.5630 C   0  0  0  0  0  0  0  0  0  0  0  0
   -2.4300   14.5950   -5.1100 S   0  0  0  0  0  0  0  0  0  0  0  0
   -0.1520   14.2650   -1.7660 C   0  0  0  0  0  0  0  0  0  0  0  0
   -1.4760   12.5270   -3.2100 C   0  0  0  0  0  0  0  0  0  0  0  0
   -1.0860   15.5520   -4.7710 N   0  0  0  0  0  0  0  0  0  0  0  0
   -1.9520   13.2840   -5.4240 O   0  0  0  0  0  0  0  0  0  0  0  0
   -3.1720   15.3660   -6.0830 O   0  0  0  0  0  0  0  0  0  0  0  0
    0.7490   13.4360   -1.1440 O   0  0  0  0  0  0  0  0  0  0  0  0
    0.1440   15.4160   -2.0210 O   0  0  0  0  0  0  0  0  0  0  0  0
   -0.5370   12.4290   -4.2530 C   0  0  0  0  0  0  0  0  0  0  0  0
   -2.5630   11.6430   -3.1830 C   0  0  0  0  0  0  0  0  0  0  0  0
   -0.7100   11.4520   -5.2400 C   0  0  0  0  0  0  0  0  0  0  0  0
   -2.7290   10.6820   -4.1590 C   0  0  0  0  0  0  0  0  0  0  0  0
   -1.8030   10.5830   -5.1920 C   0  0  0  0  0  0  0  0  0  0  0  0
  1  2  1  0
  1  3  1  0
  3  4  2  0
  3  5  1  0
  5  6  2  0
  5  7  1  0
  6  8  1  0
  7  9  2  0
  8 10  1  0
  8 11  2  0
  9 11  1  0
 11 12  1  0
 10 13  1  6
 10 14  1  0
 12 15  1  0
 12 16  2  0
 12 17  2  0
 13 18  1  0
 13 19  2  0
 14 20  2  0
 14 21  1  0
 20 22  1  0
 21 23  2  0
 22 24  2  0
 23 24  1  0
M  END
