diamond-x0438_0_A-diamond-x0685_0_A
     RDKit          3D

 18 20  0  0  0  0  0  0  0  0999 V2000
   -7.3890   15.0910    3.2260 C   0  0  0  0  0  0  0  0  0  0  0  0
   -9.0170   15.1940    2.4630 S   0  0  0  0  0  0  0  0  0  0  0  0
  -10.0600   15.0980    3.4750 O   0  0  0  0  0  0  0  0  0  0  0  0
   -6.0680   14.9430    2.4530 N   0  0  0  0  0  0  0  0  0  0  0  0
   -8.9120   13.6050    1.7500 C   0  0  0  0  0  0  0  0  0  0  0  0
   -9.1160   16.2150    1.4410 O   0  0  0  0  0  0  0  0  0  0  0  0
   -5.9130   14.7360    1.0060 C   0  0  0  0  0  0  0  0  0  0  0  0
   -8.2550   13.6570    0.4200 C   0  0  0  0  0  0  0  0  0  0  0  0
   -6.9290   14.1580    0.1250 C   0  0  0  0  0  0  0  0  0  0  0  0
   -4.6580   15.1370    0.4100 C   0  0  0  0  0  0  0  0  0  0  0  0
   -6.6110   14.0480   -1.2590 C   0  0  0  0  0  0  0  0  0  0  0  0
   -4.4350   14.9800   -0.9730 C   0  0  0  0  0  0  0  0  0  0  0  0
   -9.0660   13.1460   -0.5970 C   0  0  0  0  0  0  0  0  0  0  0  0
   -8.7350   13.0630   -1.8830 N   0  0  0  0  0  0  0  0  0  0  0  0
   -5.4030   14.4540   -1.7650 C   0  0  0  0  0  0  0  0  0  0  0  0
   -3.2040   15.3520   -1.6780 C   0  0  0  0  0  0  0  0  0  0  0  0
   -7.5180   13.5160   -2.1740 C   0  0  0  0  0  0  0  0  0  0  0  0
   -3.0440   14.6340   -2.9360 N   0  0  0  0  0  0  0  0  0  0  0  0
  2  1  1  0
  2  3  2  0
  1  4  1  0
  2  5  1  0
  2  6  2  0
  4  7  1  0
  5  8  1  0
  7  9  1  0
  8  9  2  0
  7 10  2  0
  9 11  1  0
 10 12  1  0
  8 13  1  0
 13 14  2  0
 11 15  1  0
 12 15  2  0
 12 16  1  0
 11 17  2  0
 14 17  1  0
 16 18  1  0
M  END
