diamond-x0282_0_A-mac-x0437
     RDKit          3D

 29 32  0  0  0  0  0  0  0  0999 V2000
   -7.1680   13.3410    0.4770 C   0  0  0  0  0  0  0  0  0  0  0  0
   -8.5340   13.6200    0.1710 O   0  0  0  0  0  0  0  0  0  0  0  0
   -6.4510   14.6790    0.5780 C   0  0  0  0  0  0  0  0  0  0  0  0
   -5.5170   14.7470    1.8000 C   0  0  0  0  0  0  0  0  0  0  0  0
   -5.7160   15.1190   -0.7010 C   0  0  0  0  0  0  0  0  0  0  0  0
   -4.1880   14.0220    1.6040 C   0  0  0  0  0  0  0  0  0  0  0  0
   -4.3490   14.4500   -0.8520 C   0  0  0  0  0  0  0  0  0  0  0  0
   -3.5990   14.5190    0.3930 N   0  0  0  0  0  0  0  0  0  0  0  0
   -2.2310   14.5270    0.2950 C   0  0  0  0  0  0  0  0  0  0  0  0
   -1.7190   14.4620   -0.9390 N   0  0  0  0  0  0  0  0  0  0  0  0
   -1.4830   14.5970    1.4200 N   0  0  0  0  0  0  0  0  0  0  0  0
   -0.3920   14.4780   -1.0700 C   0  0  0  0  0  0  0  0  0  0  0  0
   -0.1590   14.6180    1.2270 C   0  0  0  0  0  0  0  0  0  0  0  0
    0.2350   14.3870   -2.4260 C   0  0  0  0  0  0  0  0  0  0  0  0
    0.4240   14.5660   -0.0130 C   0  0  0  0  0  0  0  0  0  0  0  0
    1.2740   13.3820   -2.3520 O   0  0  0  0  0  0  0  0  0  0  0  0
    1.1860   12.4130   -3.2760 C   0  0  0  0  0  0  0  0  0  0  0  0
    0.8590   11.2540   -3.0330 O   0  0  0  0  0  0  0  0  0  0  0  0
    1.5300   12.9350   -4.6490 C   0  0  0  0  0  0  0  0  0  0  0  0
    0.3160   13.1870   -5.5300 C   0  0  0  0  0  0  0  0  0  0  0  0
   -0.5160   12.0140   -5.6980 N   0  0  0  0  0  0  0  0  0  0  0  0
   -1.6520   11.7160   -5.0000 C   0  0  0  0  0  0  0  0  0  0  0  0
   -0.2900   11.0060   -6.5920 C   0  0  0  0  0  0  0  0  0  0  0  0
   -2.1750   10.5730   -5.3880 N   0  0  0  0  0  0  0  0  0  0  0  0
   -1.3380   10.1180   -6.3760 C   0  0  0  0  0  0  0  0  0  0  0  0
    0.7060   10.7880   -7.5450 C   0  0  0  0  0  0  0  0  0  0  0  0
   -1.4120    8.9450   -7.1400 C   0  0  0  0  0  0  0  0  0  0  0  0
    0.6190    9.6150   -8.2990 C   0  0  0  0  0  0  0  0  0  0  0  0
   -0.4210    8.7060   -8.1020 C   0  0  0  0  0  0  0  0  0  0  0  0
  1  2  1  0
  1  3  1  0
  3  4  1  0
  3  5  1  0
  4  6  1  0
  5  7  1  0
  6  8  1  0
  7  8  1  0
  8  9  1  0
  9 10  2  0
  9 11  1  0
 10 12  1  0
 11 13  2  0
 12 14  1  0
 12 15  2  0
 13 15  1  0
 14 16  1  0
 16 17  1  0
 17 18  2  0
 17 19  1  0
 19 20  1  0
 20 21  1  0
 21 22  1  0
 21 23  1  0
 22 24  2  0
 23 25  2  0
 24 25  1  0
 23 26  1  0
 25 27  1  0
 26 28  2  0
 27 29  2  0
 28 29  1  0
M  END
