diamond-x1012_0_A-diamond-x0844_0_A
     RDKit          3D

 21 22  0  0  0  0  0  0  0  0999 V2000
   -0.1830   18.1680   -4.7960 N   0  0  0  0  0  0  0  0  0  0  0  0
   -1.1770   17.2510   -4.7930 C   0  0  0  0  0  0  0  0  0  0  0  0
   -2.3310   17.6640   -4.8210 O   0  0  0  0  0  0  0  0  0  0  0  0
   -0.8040   15.9290   -4.7460 N   0  0  0  0  0  0  0  0  0  0  0  0
   -1.7370   14.8030   -4.7100 C   0  0  0  0  0  0  0  0  0  0  0  0
    0.6220   15.5840   -4.7090 C   0  0  0  0  0  0  0  0  0  0  0  0
   -1.4690   13.8030   -3.5720 C   0  0  2  0  0  0  0  0  0  0  0  0
    0.9650   14.6450   -3.5560 C   0  0  0  0  0  0  0  0  0  0  0  0
   -2.0810   14.2730   -2.2260 C   0  0  0  0  0  0  0  0  0  0  0  0
    0.0300   13.4220   -3.5300 C   0  0  1  0  0  0  0  0  0  0  0  0
    0.3070   12.4870   -2.3720 C   0  0  0  0  0  0  0  0  0  0  0  0
   -3.4820   14.4540   -2.3330 O   0  0  0  0  0  0  0  0  0  0  0  0
    0.2040   11.1880   -2.7130 O   0  0  0  0  0  0  0  0  0  0  0  0
    0.5820   12.7810   -1.2240 O   0  0  0  0  0  0  0  0  0  0  0  0
   -4.1030   15.3040   -1.3550 C   0  0  2  0  0  0  0  0  0  0  0  0
   -3.4700   15.0800   -0.0200 C   0  0  0  0  0  0  0  0  0  0  0  0
   -5.6120   15.0740   -1.4070 C   0  0  0  0  0  0  0  0  0  0  0  0
   -4.1780   14.8640    1.0800 C   0  0  0  0  0  0  0  0  0  0  0  0
   -6.3100   14.8710   -0.0810 C   0  0  0  0  0  0  0  0  0  0  0  0
   -7.5340   14.7520   -0.0080 O   0  0  0  0  0  0  0  0  0  0  0  0
   -5.5410   14.8260    1.0540 N   0  0  0  0  0  0  0  0  0  0  0  0
  1  2  1  0
  2  3  2  0
  2  4  1  0
  4  5  1  0
  4  6  1  0
  5  7  1  0
  6  8  1  0
  7  9  1  1
  7 10  1  0
  8 10  1  0
 10 11  1  1
  9 12  1  0
 11 13  1  0
 11 14  2  0
 15 12  1  6
 15 16  1  0
 15 17  1  0
 16 18  2  0
 17 19  1  0
 19 20  2  0
 18 21  1  0
 19 21  1  0
M  END
