diamond-x0855_0_A-mac-x0398
     RDKit          3D

 23 24  0  0  0  0  0  0  0  0999 V2000
    1.7670   12.9700   -2.5000 O   0  0  0  0  0  0  0  0  0  0  0  0
    0.9490   12.1710   -3.2090 C   0  0  0  0  0  0  0  0  0  0  0  0
    0.2600   12.7470   -4.4500 C   0  0  2  0  0  0  0  0  0  0  0  0
    0.7640   11.0140   -2.8410 O   0  0  0  0  0  0  0  0  0  0  0  0
   -0.4770   14.0470   -4.0390 C   0  0  0  0  0  0  0  0  0  0  0  0
   -0.6140   11.7660   -5.0870 N   0  0  0  0  0  0  0  0  0  0  0  0
   -1.4580   13.8680   -2.8630 C   0  0  0  0  0  0  0  0  0  0  0  0
   -0.3290   10.8490   -6.0650 C   0  0  0  0  0  0  0  0  0  0  0  0
   -1.9080   11.7080   -4.6790 N   0  0  0  0  0  0  0  0  0  0  0  0
   -2.0410   15.1120   -2.4640 O   0  0  0  0  0  0  0  0  0  0  0  0
   -1.4960   10.1690   -6.2790 C   0  0  0  0  0  0  0  0  0  0  0  0
   -2.4350   10.7290   -5.4130 C   0  0  0  0  0  0  0  0  0  0  0  0
   -1.8210    8.7720   -7.4670 Br  0  0  0  0  0  0  0  0  0  0  0  0
   -3.3790   15.2070   -2.6790 C   0  0  0  0  0  0  0  0  0  0  0  0
   -3.9000   15.3590   -3.7690 O   0  0  0  0  0  0  0  0  0  0  0  0
   -4.1040   15.0980   -1.3880 C   0  0  0  0  0  0  0  0  0  0  0  0
   -5.4930   15.1180   -1.3930 C   0  0  0  0  0  0  0  0  0  0  0  0
   -3.4220   14.9740   -0.1620 C   0  0  0  0  0  0  0  0  0  0  0  0
   -6.1690   15.2400   -2.5740 O   0  0  0  0  0  0  0  0  0  0  0  0
   -6.2090   15.0120   -0.2010 C   0  0  0  0  0  0  0  0  0  0  0  0
   -4.1500   14.8690    1.0390 C   0  0  0  0  0  0  0  0  0  0  0  0
   -5.5450   14.8860    1.0250 C   0  0  0  0  0  0  0  0  0  0  0  0
   -6.3030   14.7860    2.2020 N   0  0  0  0  0  0  0  0  0  0  0  0
  1  2  1  0
  2  3  1  0
  2  4  2  0
  3  5  1  1
  3  6  1  0
  5  7  1  0
  6  8  1  0
  6  9  1  0
  7 10  1  0
  8 11  2  0
  9 12  2  0
 11 12  1  0
 11 13  1  0
 10 14  1  0
 14 15  2  0
 14 16  1  0
 16 17  2  0
 16 18  1  0
 17 19  1  0
 17 20  1  0
 18 21  2  0
 20 22  2  0
 21 22  1  0
 22 23  1  0
M  END
