diamond-x0253_0_A-mac-x0522
     RDKit          3D

 29 31  0  0  0  0  0  0  0  0999 V2000
    0.3450   12.1410   -5.4760 N   0  0  0  0  0  0  0  0  0  0  0  0
    1.0750   11.7260   -6.5630 C   0  0  0  0  0  0  0  0  0  0  0  0
    2.1980   12.1500   -6.7280 O   0  0  0  0  0  0  0  0  0  0  0  0
    1.0400   12.9340   -4.4840 C   0  0  0  0  0  0  0  0  0  0  0  0
    0.9060   12.3700   -3.0850 C   0  0  0  0  0  0  0  0  0  0  0  0
    0.4450   10.7210   -7.4770 C   0  0  0  0  0  0  0  0  0  0  0  0
    1.1180   12.9530   -2.0370 O   0  0  0  0  0  0  0  0  0  0  0  0
    0.5090   11.0860   -3.0660 O   0  0  0  0  0  0  0  0  0  0  0  0
   -0.5860    9.9840   -6.8770 C   0  0  0  0  0  0  0  0  0  0  0  0
    0.7840   10.4580   -8.8280 C   0  0  0  0  0  0  0  0  0  0  0  0
   -1.2850    9.0050   -7.5710 C   0  0  0  0  0  0  0  0  0  0  0  0
    0.0630    9.4470   -9.5190 C   0  0  0  0  0  0  0  0  0  0  0  0
   -2.3840    8.2230   -6.9230 C   0  0  0  0  0  0  0  0  0  0  0  0
    0.2260    8.9650  -10.9280 C   0  0  0  0  0  0  0  0  0  0  0  0
   -0.9480    8.7540   -8.8770 C   0  0  0  0  0  0  0  0  0  0  0  0
    1.3830    9.3470  -11.6780 N   0  0  0  0  0  0  0  0  0  0  0  0
    2.6000    8.9310  -11.6520 C   0  0  0  0  0  0  0  0  0  0  0  0
    3.2470    7.9740  -10.8400 N   0  0  0  0  0  0  0  0  0  0  0  0
    3.3910    9.5840  -12.7220 C   0  0  0  0  0  0  0  0  0  0  0  0
    2.8250    7.1440   -9.8220 C   0  0  0  0  0  0  0  0  0  0  0  0
    4.5370    9.0010  -13.2540 C   0  0  0  0  0  0  0  0  0  0  0  0
    2.9120   10.8130  -13.1860 C   0  0  0  0  0  0  0  0  0  0  0  0
    3.3900    6.0140   -9.4220 N   0  0  0  0  0  0  0  0  0  0  0  0
    1.4130    7.5300   -8.8960 S   0  0  0  0  0  0  0  0  0  0  0  0
    5.2070    9.6710  -14.2800 C   0  0  0  0  0  0  0  0  0  0  0  0
    3.5850   11.4710  -14.2050 C   0  0  0  0  0  0  0  0  0  0  0  0
    1.5920    6.1210   -7.9410 C   0  0  0  0  0  0  0  0  0  0  0  0
    2.7050    5.4360   -8.3670 C   0  0  0  0  0  0  0  0  0  0  0  0
    4.7310   10.8980  -14.7540 C   0  0  0  0  0  0  0  0  0  0  0  0
  1  2  1  0
  2  3  2  0
  1  4  1  0
  4  5  1  0
  2  6  1  0
  5  7  2  0
  5  8  1  0
  6  9  2  0
  6 10  1  0
  9 11  1  0
 10 12  2  0
 11 13  1  0
 12 14  1  0
 11 15  2  0
 12 15  1  0
 14 16  1  0
 16 17  2  3
 17 18  1  0
 17 19  1  0
 18 20  1  0
 19 21  2  0
 19 22  1  0
 20 23  2  0
 20 24  1  0
 21 25  1  0
 22 26  2  0
 24 27  1  0
 23 28  1  0
 27 28  2  0
 25 29  2  0
 26 29  1  0
M  END
