diamond-x0895_0_A-mac-x0319
     RDKit          3D

 20 21  0  0  0  0  0  0  0  0999 V2000
   -1.6490   14.5450    1.8480 O   0  0  0  0  0  0  0  0  0  0  0  0
   -2.6030   14.8530    1.1450 C   0  0  0  0  0  0  0  0  0  0  0  0
   -3.7860   15.7500    1.5100 C   0  0  0  0  0  0  0  0  0  0  0  0
   -2.8340   14.4630   -0.1550 N   0  0  0  0  0  0  0  0  0  0  0  0
   -4.7250   15.3820    0.4760 N   0  0  0  0  0  0  0  0  0  0  0  0
   -4.0360   14.9100   -0.5870 C   0  0  0  0  0  0  0  0  0  0  0  0
   -4.3350   14.8270   -1.8260 N   0  0  0  0  0  0  0  0  0  0  0  0
   -3.3690   14.2280   -2.7510 C   0  0  0  0  0  0  0  0  0  0  0  0
   -2.9900   15.1770   -3.8930 C   0  0  0  0  0  0  0  0  0  0  0  0
   -1.5040   15.1000   -4.1100 C   0  0  0  0  0  0  0  0  0  0  0  0
   -0.7540   16.2130   -4.4780 C   0  0  0  0  0  0  0  0  0  0  0  0
   -0.8570   13.8740   -3.9250 C   0  0  0  0  0  0  0  0  0  0  0  0
    0.5270   13.7420   -4.0910 C   0  0  0  0  0  0  0  0  0  0  0  0
    0.6130   16.0970   -4.6450 C   0  0  0  0  0  0  0  0  0  0  0  0
    1.1490   12.3810   -3.8560 C   0  0  0  0  0  0  0  0  0  0  0  0
    1.2560   17.2400   -4.9960 O   0  0  0  0  0  0  0  0  0  0  0  0
    1.2720   14.8770   -4.4560 C   0  0  0  0  0  0  0  0  0  0  0  0
    0.7450   11.7740   -2.5130 C   0  0  0  0  0  0  0  0  0  0  0  0
    0.3390   10.4660   -2.5690 O   0  0  0  0  0  0  0  0  0  0  0  0
    0.7470   12.3630   -1.4430 O   0  0  0  0  0  0  0  0  0  0  0  0
  1  2  2  0
  2  3  1  0
  2  4  1  0
  3  5  1  0
  4  6  1  0
  5  6  1  0
  6  7  2  3
  7  8  1  0
  8  9  1  0
  9 10  1  0
 10 11  2  0
 10 12  1  0
 12 13  2  0
 11 14  1  0
 13 15  1  0
 14 16  1  0
 13 17  1  0
 14 17  2  0
 15 18  1  0
 18 19  1  0
 18 20  2  0
M  END
