diamond-x0290_0_A-diamond-x0727_0_A
     RDKit          3D

 28 29  0  0  0  0  0  0  0  0999 V2000
   -7.7660   13.8500    0.8720 N   0  0  0  0  0  0  0  0  0  0  0  0
   -8.6530   14.9890    0.7250 C   0  0  0  0  0  0  0  0  0  0  0  0
   -6.6100   14.1550    1.7360 C   0  0  0  0  0  0  0  0  0  0  0  0
   -5.3790   14.4800    0.8810 C   0  0  0  0  0  0  0  0  0  0  0  0
   -5.4700   14.5210   -0.3540 O   0  0  0  0  0  0  0  0  0  0  0  0
   -4.1610   14.7200    1.4330 N   0  0  0  0  0  0  0  0  0  0  0  0
   -2.8960   14.6950    0.8680 C   0  0  0  0  0  0  0  0  0  0  0  0
   -1.8420   14.6230    1.7220 N   0  0  0  0  0  0  0  0  0  0  0  0
   -2.7280   14.7390   -0.4930 C   0  0  0  0  0  0  0  0  0  0  0  0
   -0.5990   14.5950    1.1810 C   0  0  0  0  0  0  0  0  0  0  0  0
   -1.4540   14.7100   -1.0380 C   0  0  0  0  0  0  0  0  0  0  0  0
   -1.3600   14.7540   -2.5340 C   0  0  0  0  0  0  0  0  0  0  0  0
   -0.3500   14.6370   -0.1810 C   0  0  0  0  0  0  0  0  0  0  0  0
   -0.0240   15.1230   -3.1490 C   0  0  0  0  0  0  0  0  0  0  0  0
    0.0060   14.7850   -4.6320 C   0  0  0  0  0  0  0  0  0  0  0  0
    1.1400   13.8870   -5.0920 C   0  0  0  0  0  0  0  0  0  0  0  0
    1.0880   12.3850   -4.8090 C   0  0  2  0  0  0  0  0  0  0  0  0
    0.1520   11.6520   -5.6660 N   0  0  0  0  0  0  0  0  0  0  0  0
    0.8390   11.9480   -3.3670 C   0  0  0  0  0  0  0  0  0  0  0  0
    0.2460   10.9350   -3.0340 O   0  0  0  0  0  0  0  0  0  0  0  0
    0.6560   11.1410   -6.8230 C   0  0  0  0  0  0  0  0  0  0  0  0
    1.3530   12.7690   -2.4430 O   0  0  0  0  0  0  0  0  0  0  0  0
    1.6570   11.6150   -7.2870 O   0  0  0  0  0  0  0  0  0  0  0  0
   -0.0230    9.9520   -7.4840 C   0  0  0  0  0  0  0  0  0  0  0  0
   -1.3190   10.3050   -8.2040 C   0  0  0  0  0  0  0  0  0  0  0  0
   -0.3660    8.8280   -6.4940 C   0  0  0  0  0  0  0  0  0  0  0  0
   -2.2170    9.1000   -7.9930 C   0  0  0  0  0  0  0  0  0  0  0  0
   -1.8620    8.6150   -6.6000 C   0  0  0  0  0  0  0  0  0  0  0  0
  1  2  1  0
  1  3  1  0
  3  4  1  0
  4  5  2  0
  4  6  1  0
  6  7  1  0
  7  8  2  0
  7  9  1  0
  8 10  1  0
  9 11  2  0
 11 12  1  0
 10 13  2  0
 11 13  1  0
 12 14  1  0
 14 15  1  0
 15 16  1  0
 17 16  1  1
 17 18  1  0
 17 19  1  0
 19 20  2  0
 18 21  1  0
 19 22  1  0
 21 23  2  0
 21 24  1  0
 24 25  1  0
 24 26  1  0
 25 27  1  0
 26 28  1  0
 27 28  1  0
M  END
