diamond-x0962_0_A-mac-x0178
     RDKit          3D

 21 22  0  0  0  0  0  0  0  0999 V2000
   -2.3200   15.9710   -1.6530 N   0  0  0  0  0  0  0  0  0  0  0  0
   -3.3080   14.9260   -1.8230 C   0  0  1  0  0  0  0  0  0  0  0  0
   -2.5810   13.6900   -2.4350 C   0  0  0  0  0  0  0  0  0  0  0  0
   -4.0850   14.8830   -0.5630 C   0  0  0  0  0  0  0  0  0  0  0  0
   -3.5300   15.0260    0.6810 N   0  0  0  0  0  0  0  0  0  0  0  0
   -5.4290   14.7250   -0.3330 C   0  0  0  0  0  0  0  0  0  0  0  0
   -1.4530   14.2790   -3.2720 C   0  0  0  0  0  0  0  0  0  0  0  0
   -4.5450   14.9560    1.5820 C   0  0  0  0  0  0  0  0  0  0  0  0
   -5.7050   14.7700    0.9990 N   0  0  0  0  0  0  0  0  0  0  0  0
   -0.1030   13.8820   -3.3590 C   0  0  0  0  0  0  0  0  0  0  0  0
   -1.8720   15.3970   -4.0210 C   0  0  0  0  0  0  0  0  0  0  0  0
    0.5050   12.7410   -2.6430 C   0  0  0  0  0  0  0  0  0  0  0  0
   -1.0010   16.1200   -4.8190 C   0  0  0  0  0  0  0  0  0  0  0  0
    0.7810   14.6210   -4.1790 C   0  0  0  0  0  0  0  0  0  0  0  0
   -1.6430   17.5330   -5.7020 S   0  0  0  0  0  0  0  0  0  0  0  0
    1.3470   12.8580   -1.7850 O   0  0  0  0  0  0  0  0  0  0  0  0
    0.0230   11.5560   -3.0390 O   0  0  0  0  0  0  0  0  0  0  0  0
    0.3360   15.7390   -4.9040 C   0  0  0  0  0  0  0  0  0  0  0  0
   -0.2690   18.1800   -6.4180 N   0  0  0  0  0  0  0  0  0  0  0  0
   -2.5290   17.0860   -6.7440 O   0  0  0  0  0  0  0  0  0  0  0  0
   -2.0680   18.5150   -4.7430 O   0  0  0  0  0  0  0  0  0  0  0  0
  2  1  1  1
  2  3  1  0
  2  4  1  0
  4  5  1  0
  4  6  2  0
  3  7  1  0
  5  8  1  0
  6  9  1  0
  8  9  2  0
  7 10  2  0
  7 11  1  0
 10 12  1  0
 11 13  2  0
 10 14  1  0
 13 15  1  0
 12 16  2  0
 12 17  1  0
 13 18  1  0
 14 18  2  0
 15 19  1  0
 15 20  2  0
 15 21  2  0
M  END
