diamond-x0855_0_A-diamond-x0844_0_A
     RDKit          3D

 21 22  0  0  0  0  0  0  0  0999 V2000
    1.8560   12.8740   -2.7000 O   0  0  0  0  0  0  0  0  0  0  0  0
    0.9590   12.0480   -3.2860 C   0  0  0  0  0  0  0  0  0  0  0  0
    0.3260   12.6460   -4.5150 C   0  0  2  0  0  0  0  0  0  0  0  0
    0.7460   10.9610   -2.7880 O   0  0  0  0  0  0  0  0  0  0  0  0
   -0.4470   13.9030   -4.1050 C   0  0  0  0  0  0  0  0  0  0  0  0
   -0.5580   11.6870   -5.1600 N   0  0  0  0  0  0  0  0  0  0  0  0
   -1.3440   13.6270   -2.8840 C   0  0  0  0  0  0  0  0  0  0  0  0
   -0.3240   10.7680   -6.1450 C   0  0  0  0  0  0  0  0  0  0  0  0
   -1.8400   11.6740   -4.7270 N   0  0  0  0  0  0  0  0  0  0  0  0
   -2.1580   14.8360   -2.4750 C   0  0  0  0  0  0  0  0  0  0  0  0
   -1.5200   10.1320   -6.3370 C   0  0  0  0  0  0  0  0  0  0  0  0
   -2.4200   10.7210   -5.4490 C   0  0  0  0  0  0  0  0  0  0  0  0
   -1.9330    8.7550   -7.5190 Br  0  0  0  0  0  0  0  0  0  0  0  0
   -3.4900   14.4310   -2.1950 O   0  0  0  0  0  0  0  0  0  0  0  0
   -4.1830   15.3100   -1.3050 C   0  0  2  0  0  0  0  0  0  0  0  0
   -3.5810   15.2140    0.0630 C   0  0  0  0  0  0  0  0  0  0  0  0
   -5.6790   15.0090   -1.3840 C   0  0  0  0  0  0  0  0  0  0  0  0
   -4.2990   14.9780    1.1480 C   0  0  0  0  0  0  0  0  0  0  0  0
   -6.3970   14.8520   -0.0640 C   0  0  0  0  0  0  0  0  0  0  0  0
   -7.6250   14.7720   -0.0060 O   0  0  0  0  0  0  0  0  0  0  0  0
   -5.6460   14.7970    1.0800 N   0  0  0  0  0  0  0  0  0  0  0  0
  1  2  1  0
  2  3  1  0
  2  4  2  0
  3  5  1  1
  3  6  1  0
  5  7  1  0
  6  8  1  0
  6  9  1  0
  7 10  1  0
  8 11  2  0
  9 12  2  0
 11 12  1  0
 11 13  1  0
 10 14  1  0
 15 14  1  6
 15 16  1  0
 15 17  1  0
 16 18  2  0
 17 19  1  0
 19 20  2  0
 18 21  1  0
 19 21  1  0
M  END
