diamond-x0548_0_A-mac-x0482
     RDKit          3D

 27 30  0  0  0  0  0  0  0  0999 V2000
   -9.4900   46.8720   -4.7150 C   0  0  0  0  0  0  0  0  0  0  0  0
  -10.3560   45.7570   -4.9180 O   0  0  0  0  0  0  0  0  0  0  0  0
   -9.9730   44.8380   -5.8630 C   0  0  0  0  0  0  0  0  0  0  0  0
   -8.7170   44.5840   -6.2980 C   0  0  0  0  0  0  0  0  0  0  0  0
  -11.1020   44.0870   -6.4270 C   0  0  0  0  0  0  0  0  0  0  0  0
   -8.5530   43.5720   -7.3100 C   0  0  0  0  0  0  0  0  0  0  0  0
  -10.9190   42.9460   -7.1300 C   0  0  0  0  0  0  0  0  0  0  0  0
   -9.5350   42.4460   -7.3100 C   0  0  1  0  0  0  0  0  0  0  0  0
   -7.6570   43.4570   -8.2820 C   0  0  0  0  0  0  0  0  0  0  0  0
   -6.4910   44.2240   -8.7640 C   0  0  0  0  0  0  0  0  0  0  0  0
   -9.1870   41.6160   -8.4700 N   0  0  0  0  0  0  0  0  0  0  0  0
   -8.1270   42.2220   -8.9320 C   0  0  0  0  0  0  0  0  0  0  0  0
   -5.5550   44.5340   -7.7020 N   0  0  0  0  0  0  0  0  0  0  0  0
   -4.4110   43.6240   -7.7340 C   0  0  0  0  0  0  0  0  0  0  0  0
   -3.4010   44.1820   -8.6760 C   0  0  2  0  0  0  0  0  0  0  0  0
   -2.8340   43.1120   -9.4670 N   0  0  0  0  0  0  0  0  0  0  0  0
   -2.4470   45.0750   -7.9120 C   0  0  0  0  0  0  0  0  0  0  0  0
   -3.7910   42.1770   -9.8530 C   0  0  0  0  0  0  0  0  0  0  0  0
   -1.7370   43.5440  -10.3050 C   0  0  0  0  0  0  0  0  0  0  0  0
   -2.1810   46.3520   -8.6790 C   0  0  0  0  0  0  0  0  0  0  0  0
   -3.6960   41.6160  -11.0770 N   0  0  0  0  0  0  0  0  0  0  0  0
   -4.8490   41.7990   -9.0130 C   0  0  0  0  0  0  0  0  0  0  0  0
   -2.0040   44.9990  -10.7690 C   0  0  0  0  0  0  0  0  0  0  0  0
   -1.4610   46.0910   -9.9310 N   0  0  0  0  0  0  0  0  0  0  0  0
   -4.6230   40.7040  -11.4590 C   0  0  0  0  0  0  0  0  0  0  0  0
   -5.7920   40.8570   -9.4210 C   0  0  0  0  0  0  0  0  0  0  0  0
   -5.6780   40.2950  -10.6740 C   0  0  0  0  0  0  0  0  0  0  0  0
  1  2  1  0
  2  3  1  0
  3  4  2  0
  3  5  1  0
  4  6  1  0
  5  7  2  0
  6  8  1  0
  8  7  1  6
  6  9  2  0
  9 10  1  0
  8 11  1  0
  9 12  1  0
 11 12  2  0
 10 13  1  0
 13 14  1  0
 15 14  1  1
 15 16  1  0
 15 17  1  0
 16 18  1  0
 16 19  1  0
 17 20  1  0
 18 21  2  0
 18 22  1  0
 19 23  1  0
 20 24  1  0
 23 24  1  0
 21 25  1  0
 22 26  2  0
 25 27  2  0
 26 27  1  0
M  END
