diamond-x0895_1_A-mac-x0321
     RDKit          3D

 10 10  0  0  0  0  0  0  0  0999 V2000
   -1.6220   14.9260    1.3800 O   0  0  0  0  0  0  0  0  0  0  0  0
   -2.6930   14.9040    0.7580 C   0  0  0  0  0  0  0  0  0  0  0  0
   -2.9200   15.3420   -0.7050 C   0  0  1  0  0  0  0  0  0  0  0  0
   -3.8820   14.4980    1.2660 N   0  0  0  0  0  0  0  0  0  0  0  0
   -2.0120   14.7560   -1.8080 C   0  0  0  0  0  0  0  0  0  0  0  0
   -4.3110   14.9520   -0.8350 N   0  0  0  0  0  0  0  0  0  0  0  0
   -4.8770   14.7620    0.3980 C   0  0  0  0  0  0  0  0  0  0  0  0
   -6.0700   14.8170    0.6520 O   0  0  0  0  0  0  0  0  0  0  0  0
   -0.7400   14.4880   -1.4450 O   0  0  0  0  0  0  0  0  0  0  0  0
   -2.3850   14.5450   -2.9650 O   0  0  0  0  0  0  0  0  0  0  0  0
  1  2  2  0
  2  3  1  0
  2  4  1  0
  3  5  1  6
  3  6  1  0
  4  7  1  0
  6  7  1  0
  7  8  2  0
  5  9  1  0
  5 10  2  0
M  END
