diamond-x0685_0_A-mac-x0437
     RDKit          3D

 28 30  0  0  0  0  0  0  0  0999 V2000
   -6.3090   15.0470    2.4870 N   0  0  0  0  0  0  0  0  0  0  0  0
   -7.7030   14.6450    2.5030 C   0  0  0  0  0  0  0  0  0  0  0  0
   -7.8510   13.2640    3.1130 C   0  0  0  0  0  0  0  0  0  0  0  0
   -5.6100   15.0430    1.2720 C   0  0  0  0  0  0  0  0  0  0  0  0
   -4.2210   15.1740    1.3130 C   0  0  0  0  0  0  0  0  0  0  0  0
   -6.2800   14.9330    0.1140 N   0  0  0  0  0  0  0  0  0  0  0  0
   -3.5020   15.2040    0.1250 C   0  0  0  0  0  0  0  0  0  0  0  0
   -5.5660   14.9710   -1.0250 C   0  0  0  0  0  0  0  0  0  0  0  0
   -4.1960   15.1070   -1.0770 C   0  0  0  0  0  0  0  0  0  0  0  0
   -3.5270   15.1530   -2.3290 C   0  0  0  0  0  0  0  0  0  0  0  0
   -2.9990   15.3060   -3.3920 C   0  0  0  0  0  0  0  0  0  0  0  0
   -2.3590   15.6180   -4.6760 C   0  0  0  0  0  0  0  0  0  0  0  0
   -0.8400   15.4440   -4.5930 C   0  0  0  0  0  0  0  0  0  0  0  0
   -0.3580   14.3150   -5.5120 C   0  0  0  0  0  0  0  0  0  0  0  0
   -0.0470   13.0250   -4.8000 C   0  0  2  0  0  0  0  0  0  0  0  0
    1.3910   12.8150   -4.3790 C   0  0  0  0  0  0  0  0  0  0  0  0
   -0.6870   11.8410   -5.3520 N   0  0  0  0  0  0  0  0  0  0  0  0
    1.3930   12.1710   -3.0360 C   0  0  0  0  0  0  0  0  0  0  0  0
   -1.8600   11.3820   -4.8170 C   0  0  0  0  0  0  0  0  0  0  0  0
   -0.3440   10.9960   -6.3940 C   0  0  0  0  0  0  0  0  0  0  0  0
    2.0110   12.9060   -2.1060 O   0  0  0  0  0  0  0  0  0  0  0  0
    0.8660   11.1080   -2.7570 O   0  0  0  0  0  0  0  0  0  0  0  0
   -2.2980   10.3130   -5.4190 N   0  0  0  0  0  0  0  0  0  0  0  0
   -1.3770   10.0530   -6.3940 C   0  0  0  0  0  0  0  0  0  0  0  0
    0.7060   10.9190   -7.3230 C   0  0  0  0  0  0  0  0  0  0  0  0
   -1.3770    9.0050   -7.3230 C   0  0  0  0  0  0  0  0  0  0  0  0
    0.6880    9.8630   -8.2460 C   0  0  0  0  0  0  0  0  0  0  0  0
   -0.3360    8.9180   -8.2470 C   0  0  0  0  0  0  0  0  0  0  0  0
  1  2  1  0
  2  3  1  0
  1  4  1  0
  4  5  2  0
  4  6  1  0
  5  7  1  0
  6  8  2  0
  7  9  2  0
  8  9  1  0
  9 10  1  0
 10 11  3  0
 11 12  1  0
 12 13  1  0
 13 14  1  0
 15 14  1  6
 15 16  1  0
 15 17  1  0
 16 18  1  0
 17 19  1  0
 17 20  1  0
 18 21  1  0
 18 22  2  0
 19 23  2  0
 20 24  2  0
 23 24  1  0
 20 25  1  0
 24 26  1  0
 25 27  2  0
 26 28  2  0
 27 28  1  0
M  END
