diamond-x0711_0_A-diamond-x0895_0_A
     RDKit          3D

 15 15  0  0  0  0  0  0  0  0999 V2000
   -1.5650   14.9830   -2.3410 N   0  0  0  0  0  0  0  0  0  0  0  0
   -0.4580   13.9620   -3.0840 S   0  0  0  0  0  0  0  0  0  0  0  0
   -1.5280   12.8940   -4.0210 C   0  0  0  0  0  0  0  0  0  0  0  0
   -2.7390   14.3980   -1.6760 C   0  0  2  0  0  0  0  0  0  0  0  0
    0.2610   14.7910   -4.0260 O   0  0  0  0  0  0  0  0  0  0  0  0
    0.2110   13.1880   -2.0670 O   0  0  0  0  0  0  0  0  0  0  0  0
   -3.9420   15.1120   -2.2390 C   0  0  0  0  0  0  0  0  0  0  0  0
   -2.6870   14.6120   -0.1310 C   0  0  0  0  0  0  0  0  0  0  0  0
   -1.6320   14.6270    0.5260 O   0  0  0  0  0  0  0  0  0  0  0  0
   -5.0980   15.1000   -1.5860 C   0  0  0  0  0  0  0  0  0  0  0  0
   -4.0030   14.7950    0.6050 C   0  0  0  0  0  0  0  0  0  0  0  0
   -5.1700   14.3650   -0.2760 C   0  0  1  0  0  0  0  0  0  0  0  0
   -6.5230   14.6150    0.3950 C   0  0  0  0  0  0  0  0  0  0  0  0
   -6.5250   14.6840    1.7680 N   0  0  0  0  0  0  0  0  0  0  0  0
   -7.5740   14.7470   -0.2200 O   0  0  0  0  0  0  0  0  0  0  0  0
  2  1  1  0
  2  3  1  0
  4  1  1  6
  2  5  2  0
  2  6  2  0
  4  7  1  0
  4  8  1  0
  8  9  2  0
  7 10  2  0
  8 11  1  0
 10 12  1  0
 11 12  1  0
 12 13  1  1
 13 14  1  0
 13 15  2  0
M  END
