diamond-x0950_0_A-mac-x0375
     RDKit          3D

 13 13  0  0  0  0  0  0  0  0999 V2000
    2.6570   12.9620   -4.5710 C   0  0  0  0  0  0  0  0  0  0  0  0
    1.1950   13.0980   -4.2200 C   0  0  1  0  0  0  0  0  0  0  0  0
    0.4210   12.8370   -5.3940 O   0  0  0  0  0  0  0  0  0  0  0  0
    0.8360   12.1670   -3.0680 C   0  0  0  0  0  0  0  0  0  0  0  0
    0.3250   11.0650   -3.1810 O   0  0  0  0  0  0  0  0  0  0  0  0
    1.1320   12.6990   -1.8610 O   0  0  0  0  0  0  0  0  0  0  0  0
    0.7470   11.5050   -5.8700 O   0  0  0  0  0  0  0  0  0  0  0  0
   -0.4230   10.7940   -5.9720 C   0  0  0  0  0  0  0  0  0  0  0  0
   -0.3830    9.6480   -6.7690 C   0  0  0  0  0  0  0  0  0  0  0  0
   -1.6110   11.1560   -5.3310 C   0  0  0  0  0  0  0  0  0  0  0  0
   -1.5250    8.8660   -6.9230 C   0  0  0  0  0  0  0  0  0  0  0  0
   -2.7540   10.3680   -5.4880 C   0  0  0  0  0  0  0  0  0  0  0  0
   -2.7090    9.2230   -6.2840 C   0  0  0  0  0  0  0  0  0  0  0  0
  2  1  1  6
  2  3  1  0
  2  4  1  0
  4  5  2  0
  4  6  1  0
  3  7  1  0
  7  8  1  0
  8  9  2  0
  8 10  1  0
  9 11  1  0
 10 12  2  0
 11 13  2  0
 12 13  1  0
M  END
