diamond-x0855_0_A-diamond-x0900_1_A
     RDKit          3D

 15 16  0  0  0  0  0  0  0  0999 V2000
    1.7390   12.9970   -2.1200 O   0  0  0  0  0  0  0  0  0  0  0  0
    0.9260   12.2650   -2.8980 C   0  0  0  0  0  0  0  0  0  0  0  0
    0.1970   12.9880   -3.9850 C   0  0  0  0  0  0  0  0  0  0  0  0
    0.7830   11.0660   -2.7330 O   0  0  0  0  0  0  0  0  0  0  0  0
   -0.5430   12.0270   -4.7280 N   0  0  0  0  0  0  0  0  0  0  0  0
   -0.0530   11.3320   -5.7550 C   0  0  0  0  0  0  0  0  0  0  0  0
   -1.8310   11.7380   -4.4280 N   0  0  0  0  0  0  0  0  0  0  0  0
   -1.0480   10.5230   -6.1810 C   0  0  0  0  0  0  0  0  0  0  0  0
   -2.1440   10.8020   -5.3300 C   0  0  0  0  0  0  0  0  0  0  0  0
   -0.8890    9.6100   -7.3070 C   0  0  2  0  0  0  0  0  0  0  0  0
   -2.0730    9.3500   -8.1800 C   0  0  0  0  0  0  0  0  0  0  0  0
   -0.3450    8.2100   -7.1180 C   0  0  0  0  0  0  0  0  0  0  0  0
   -0.3520    7.8670   -8.5170 N   0  0  0  0  0  0  0  0  0  0  0  0
   -1.1650    8.7650   -9.2060 C   0  0  0  0  0  0  0  0  0  0  0  0
   -1.1240    9.0430  -10.3860 O   0  0  0  0  0  0  0  0  0  0  0  0
  1  2  1  0
  2  3  1  0
  2  4  2  0
  3  5  1  0
  5  6  1  0
  5  7  1  0
  6  8  2  0
  7  9  2  0
  8  9  1  0
 10  8  1  1
 10 11  1  0
 10 12  1  0
 12 13  1  0
 11 14  1  0
 13 14  1  0
 14 15  2  0
M  END
