diamond-x0592_0_A-diamond-x0805_0_A
     RDKit          3D

 26 28  0  0  0  0  0  0  0  0999 V2000
   -3.0800   13.8890    1.1860 N   0  0  0  0  0  0  0  0  0  0  0  0
   -3.5260   14.7120    0.0920 C   0  0  2  0  0  0  0  0  0  0  0  0
   -3.0030   15.9360    0.3820 O   0  0  0  0  0  0  0  0  0  0  0  0
   -4.9990   14.7950   -0.0320 C   0  0  0  0  0  0  0  0  0  0  0  0
   -3.1630   14.1770   -1.2710 C   0  0  0  0  0  0  0  0  0  0  0  0
   -5.7760   15.2380   -1.1360 C   0  0  0  0  0  0  0  0  0  0  0  0
   -5.9240   14.4550    0.9100 C   0  0  0  0  0  0  0  0  0  0  0  0
   -4.1310   13.4260   -1.9460 C   0  0  0  0  0  0  0  0  0  0  0  0
   -1.9140   14.3840   -1.9020 C   0  0  0  0  0  0  0  0  0  0  0  0
   -7.0880   15.1740   -0.8940 N   0  0  0  0  0  0  0  0  0  0  0  0
   -7.1370   14.6940    0.3650 N   0  0  0  0  0  0  0  0  0  0  0  0
   -3.8900   12.8920   -3.1960 C   0  0  0  0  0  0  0  0  0  0  0  0
   -1.6590   13.8390   -3.1750 C   0  0  0  0  0  0  0  0  0  0  0  0
   -8.3920   14.4750    1.0370 C   0  0  0  0  0  0  0  0  0  0  0  0
   -2.6640   13.0970   -3.8050 C   0  0  0  0  0  0  0  0  0  0  0  0
   -0.3450   13.9960   -3.9170 C   0  0  2  0  0  0  0  0  0  0  0  0
   -8.1180   14.0980    2.4960 C   0  0  0  0  0  0  0  0  0  0  0  0
    0.8190   13.3000   -3.2270 C   0  0  1  0  0  0  0  0  0  0  0  0
    0.1330   15.4210   -4.1640 C   0  0  0  0  0  0  0  0  0  0  0  0
   -7.3050   15.0760    3.1510 O   0  0  0  0  0  0  0  0  0  0  0  0
    0.4590   12.1420   -2.3690 C   0  0  0  0  0  0  0  0  0  0  0  0
    1.8170   12.9720   -4.2790 C   0  0  0  0  0  0  0  0  0  0  0  0
    1.6310   15.4360   -4.4450 C   0  0  0  0  0  0  0  0  0  0  0  0
    0.2720   10.9660   -3.0000 O   0  0  0  0  0  0  0  0  0  0  0  0
    0.3400   12.2510   -1.1720 O   0  0  0  0  0  0  0  0  0  0  0  0
    2.2470   14.1900   -4.8500 O   0  0  0  0  0  0  0  0  0  0  0  0
  2  1  1  1
  2  3  1  0
  2  4  1  0
  2  5  1  0
  4  6  1  0
  4  7  2  0
  5  8  2  0
  5  9  1  0
  6 10  2  0
  7 11  1  0
 10 11  1  0
  8 12  1  0
  9 13  2  0
 11 14  1  0
 12 15  2  0
 13 15  1  0
 16 13  1  1
 14 17  1  0
 16 18  1  0
 16 19  1  0
 17 20  1  0
 18 21  1  6
 18 22  1  0
 19 23  1  0
 21 24  1  0
 21 25  2  0
 22 26  1  0
 23 26  1  0
M  END
