diamond-x0742_0_A-diamond-x0855_0_A
     RDKit          3D

 27 30  0  0  0  0  0  0  0  0999 V2000
   -5.2750   12.7560   -0.4140 C   0  0  0  0  0  0  0  0  0  0  0  0
   -6.0700   12.1330    0.7090 C   0  0  0  0  0  0  0  0  0  0  0  0
   -4.8020   12.0190   -1.2890 O   0  0  0  0  0  0  0  0  0  0  0  0
   -5.1120   14.3100   -0.4310 C   0  0  2  0  0  0  0  0  0  0  0  0
   -5.0200   14.9390    0.9650 C   0  0  0  0  0  0  0  0  0  0  0  0
   -6.1600   14.9030   -1.3970 C   0  0  0  0  0  0  0  0  0  0  0  0
   -3.8750   14.7270   -1.2090 C   0  0  2  0  0  0  0  0  0  0  0  0
   -4.1530   14.1000   -2.5760 C   0  0  0  0  0  0  0  0  0  0  0  0
   -2.5760   14.4950   -0.4910 C   0  0  0  0  0  0  0  0  0  0  0  0
   -3.7840   14.4510    1.7310 C   0  0  0  0  0  0  0  0  0  0  0  0
   -5.6550   14.3990   -2.7620 C   0  0  0  0  0  0  0  0  0  0  0  0
   -1.3830   14.4010   -1.1990 C   0  0  0  0  0  0  0  0  0  0  0  0
   -2.5370   14.3810    0.8980 C   0  0  0  0  0  0  0  0  0  0  0  0
   -1.3990   14.2000    1.5880 N   0  0  0  0  0  0  0  0  0  0  0  0
   -0.1860   14.2040   -0.5340 C   0  0  0  0  0  0  0  0  0  0  0  0
    1.0860   14.1120   -1.3430 C   0  0  0  0  0  0  0  0  0  0  0  0
   -0.2690   14.1130    0.8670 C   0  0  0  0  0  0  0  0  0  0  0  0
    0.7960   13.7940   -2.7260 O   0  0  0  0  0  0  0  0  0  0  0  0
    0.8180   12.5170   -3.2320 C   0  0  0  0  0  0  0  0  0  0  0  0
    0.9030   11.4710   -2.5910 O   0  0  0  0  0  0  0  0  0  0  0  0
    0.7020   12.5510   -4.7320 C   0  0  0  0  0  0  0  0  0  0  0  0
   -0.3650   11.6850   -5.1960 N   0  0  0  0  0  0  0  0  0  0  0  0
   -0.2850   10.7300   -6.1660 C   0  0  0  0  0  0  0  0  0  0  0  0
   -1.5900   11.7890   -4.6410 N   0  0  0  0  0  0  0  0  0  0  0  0
   -1.5370   10.1790   -6.2290 C   0  0  0  0  0  0  0  0  0  0  0  0
   -2.3050   10.8580   -5.2810 C   0  0  0  0  0  0  0  0  0  0  0  0
   -2.1320    8.8040   -7.3360 Br  0  0  0  0  0  0  0  0  0  0  0  0
  1  2  1  0
  1  3  2  0
  4  1  1  1
  4  5  1  0
  4  6  1  0
  4  7  1  0
  7  8  1  6
  7  9  1  0
  5 10  1  0
  6 11  1  0
  8 11  1  0
  9 12  1  0
  9 13  2  0
 10 13  1  0
 13 14  1  0
 12 15  2  0
 15 16  1  0
 14 17  2  0
 15 17  1  0
 16 18  1  0
 18 19  1  0
 19 20  2  0
 19 21  1  0
 21 22  1  0
 22 23  1  0
 22 24  1  0
 23 25  2  0
 24 26  2  0
 25 26  1  0
 25 27  1  0
M  END
