diamond-x0592_0_A-diamond-x0864_0_A
     RDKit          3D

 26 27  0  0  0  0  0  0  0  0999 V2000
   -3.1050   14.9880    1.6090 N   0  0  0  0  0  0  0  0  0  0  0  0
   -3.2940   14.8850    0.2590 C   0  0  0  0  0  0  0  0  0  0  0  0
   -2.2480   14.8150   -0.4660 N   0  0  0  0  0  0  0  0  0  0  0  0
   -4.6980   14.8840   -0.0780 C   0  0  0  0  0  0  0  0  0  0  0  0
   -0.9250   14.8510    0.1690 C   0  0  0  0  0  0  0  0  0  0  0  0
   -5.4250   15.1350   -1.2750 C   0  0  0  0  0  0  0  0  0  0  0  0
   -5.6870   14.6060    0.8330 C   0  0  0  0  0  0  0  0  0  0  0  0
   -0.1440   13.6460   -0.2860 C   0  0  0  0  0  0  0  0  0  0  0  0
   -6.7560   15.0180   -1.1090 N   0  0  0  0  0  0  0  0  0  0  0  0
   -6.8740   14.6960    0.1930 N   0  0  0  0  0  0  0  0  0  0  0  0
   -8.1630   14.4790    0.8110 C   0  0  0  0  0  0  0  0  0  0  0  0
    0.6640   13.9070   -1.5490 C   0  0  0  0  0  0  0  0  0  0  0  0
   -8.0020   14.0620    2.2740 C   0  0  0  0  0  0  0  0  0  0  0  0
    1.0100   12.5700   -1.9720 N   0  0  0  0  0  0  0  0  0  0  0  0
   -7.2340   15.0260    3.0000 O   0  0  0  0  0  0  0  0  0  0  0  0
    0.8470   12.1360   -3.1600 C   0  0  0  0  0  0  0  0  0  0  0  0
    0.2880   12.9280   -4.3330 C   0  0  0  0  0  0  0  0  0  0  0  0
    1.1830   10.8790   -3.4140 O   0  0  0  0  0  0  0  0  0  0  0  0
   -0.3900   12.0090   -5.2570 N   0  0  0  0  0  0  0  0  0  0  0  0
   -1.3930   11.1890   -4.7640 C   0  0  0  0  0  0  0  0  0  0  0  0
    0.2800   11.6780   -6.4270 C   0  0  0  0  0  0  0  0  0  0  0  0
    1.4090   12.0860   -6.6880 O   0  0  0  0  0  0  0  0  0  0  0  0
   -1.9340   10.2340   -5.5370 C   0  0  0  0  0  0  0  0  0  0  0  0
   -0.4230   10.7560   -7.3550 C   0  0  0  0  0  0  0  0  0  0  0  0
   -1.4790   10.0550   -6.8970 C   0  0  0  0  0  0  0  0  0  0  0  0
   -2.3910    8.8230   -7.9590 Br  0  0  0  0  0  0  0  0  0  0  0  0
  1  2  1  0
  2  3  2  3
  2  4  1  0
  3  5  1  0
  4  6  1  0
  4  7  2  0
  5  8  1  0
  6  9  2  0
  7 10  1  0
  9 10  1  0
 10 11  1  0
  8 12  1  0
 11 13  1  0
 12 14  1  0
 13 15  1  0
 14 16  2  3
 16 17  1  0
 16 18  1  0
 17 19  1  0
 19 20  1  0
 19 21  1  0
 21 22  2  0
 20 23  2  0
 21 24  1  0
 23 25  1  0
 24 25  2  0
 25 26  1  0
M  END
