diamond-x1012_0_A-mac-x0138
     RDKit          3D

 24 26  0  0  0  0  0  0  0  0999 V2000
   -0.3600   18.4160   -4.7690 N   0  0  0  0  0  0  0  0  0  0  0  0
   -1.1430   17.3340   -4.9120 C   0  0  0  0  0  0  0  0  0  0  0  0
   -2.3520   17.4640   -4.7480 O   0  0  0  0  0  0  0  0  0  0  0  0
   -0.5000   16.1540   -5.2230 N   0  0  0  0  0  0  0  0  0  0  0  0
   -1.1380   14.8880   -5.0140 C   0  0  0  0  0  0  0  0  0  0  0  0
    0.9340   16.1010   -4.9080 C   0  0  0  0  0  0  0  0  0  0  0  0
   -0.8930   14.5120   -3.5760 C   0  0  1  0  0  0  0  0  0  0  0  0
    1.4350   14.7260   -4.4340 C   0  0  0  0  0  0  0  0  0  0  0  0
   -1.9850   13.6670   -3.0340 C   0  0  0  0  0  0  0  0  0  0  0  0
    0.5640   14.1610   -3.3160 C   0  0  2  0  0  0  0  0  0  0  0  0
    0.8790   12.7250   -2.9470 C   0  0  0  0  0  0  0  0  0  0  0  0
   -2.7460   14.2650   -2.0100 N   0  0  0  0  0  0  0  0  0  0  0  0
    0.2270   11.7870   -3.6520 O   0  0  0  0  0  0  0  0  0  0  0  0
    1.6470   12.3910   -2.0790 O   0  0  0  0  0  0  0  0  0  0  0  0
   -3.9920   14.7960   -2.1380 C   0  0  0  0  0  0  0  0  0  0  0  0
   -2.3360   14.3940   -0.7190 C   0  0  0  0  0  0  0  0  0  0  0  0
   -4.4320   15.2480   -0.9940 N   0  0  0  0  0  0  0  0  0  0  0  0
   -3.4090   14.9940   -0.1040 C   0  0  0  0  0  0  0  0  0  0  0  0
   -1.1630   14.0150   -0.1610 N   0  0  0  0  0  0  0  0  0  0  0  0
   -3.2670   15.2180    1.2550 C   0  0  0  0  0  0  0  0  0  0  0  0
   -1.1350   14.2930    1.1560 C   0  0  0  0  0  0  0  0  0  0  0  0
   -4.2590   15.7870    2.0280 N   0  0  0  0  0  0  0  0  0  0  0  0
   -0.0110   13.9800    1.9070 N   0  0  0  0  0  0  0  0  0  0  0  0
   -2.1120   14.8580    1.8540 N   0  0  0  0  0  0  0  0  0  0  0  0
  1  2  1  0
  2  3  2  0
  2  4  1  0
  4  5  1  0
  4  6  1  0
  5  7  1  0
  6  8  1  0
  7  9  1  6
  7 10  1  0
  8 10  1  0
 10 11  1  6
  9 12  1  0
 11 13  1  0
 11 14  2  0
 12 15  1  0
 12 16  1  0
 15 17  2  0
 16 18  2  0
 17 18  1  0
 16 19  1  0
 18 20  1  0
 19 21  2  0
 20 22  1  0
 21 23  1  0
 20 24  2  0
 21 24  1  0
M  END
