diamond-x0631_0_A-mac-x0139
     RDKit          3D

 35 38  0  0  0  0  0  0  0  0999 V2000
   -2.7680    9.1040   -7.7440 C   0  0  0  0  0  0  0  0  0  0  0  0
   -1.6330    8.1490   -7.4200 C   0  0  0  0  0  0  0  0  0  0  0  0
   -0.4590    8.7640   -6.6370 C   0  0  2  0  0  0  0  0  0  0  0  0
   -0.9630    9.6550   -5.4740 C   0  0  0  0  0  0  0  0  0  0  0  0
    0.5280    9.4310   -7.5100 N   0  0  0  0  0  0  0  0  0  0  0  0
    0.0230    9.8330   -4.3290 C   0  0  0  0  0  0  0  0  0  0  0  0
    0.8170   10.7950   -7.2450 N   0  0  0  0  0  0  0  0  0  0  0  0
    0.2730    9.4270   -8.9130 N   0  0  0  0  0  0  0  0  0  0  0  0
    0.7270   11.1610   -4.3600 C   0  0  0  0  0  0  0  0  0  0  0  0
    1.7170   11.0900   -8.3340 N   0  0  0  0  0  0  0  0  0  0  0  0
    1.5170   10.0180   -9.3110 C   0  0  2  0  0  0  0  0  0  0  0  0
    1.5090   10.5590  -10.6460 N   0  0  0  0  0  0  0  0  0  0  0  0
    0.7740   11.5840   -3.0060 O   0  0  0  0  0  0  0  0  0  0  0  0
    1.9940    9.5980  -11.6380 C   0  0  2  0  0  0  0  0  0  0  0  0
    1.2970   12.8100   -2.8170 C   0  0  0  0  0  0  0  0  0  0  0  0
    2.9580    8.7670  -10.9940 O   0  0  0  0  0  0  0  0  0  0  0  0
    0.7330   13.7700   -3.8320 C   0  0  0  0  0  0  0  0  0  0  0  0
    2.1050   13.0810   -1.9560 O   0  0  0  0  0  0  0  0  0  0  0  0
    2.5110   10.0760  -13.0320 C   0  0  2  0  0  0  0  0  0  0  0  0
    0.1420   14.9850   -3.1320 C   0  0  0  0  0  0  0  0  0  0  0  0
    3.8310    9.5860  -13.2980 O   0  0  0  0  0  0  0  0  0  0  0  0
    2.6480   11.5710  -13.2250 C   0  0  0  0  0  0  0  0  0  0  0  0
   -1.1680   14.6360   -2.5290 N   0  0  0  0  0  0  0  0  0  0  0  0
    3.5540   11.6540  -14.4370 C   0  0  0  0  0  0  0  0  0  0  0  0
    4.3400   10.3520  -14.3950 C   0  0  0  0  0  0  0  0  0  0  0  0
   -2.3000   15.0100   -3.3940 C   0  0  0  0  0  0  0  0  0  0  0  0
   -1.3020   14.7530   -1.1340 C   0  0  0  0  0  0  0  0  0  0  0  0
   -2.5190   14.8950   -0.5680 C   0  0  0  0  0  0  0  0  0  0  0  0
   -0.1410   14.7400   -0.3550 N   0  0  0  0  0  0  0  0  0  0  0  0
   -2.5870   15.0310    0.8950 C   0  0  0  0  0  0  0  0  0  0  0  0
   -0.2710   14.8470    0.9240 C   0  0  0  0  0  0  0  0  0  0  0  0
   -3.8820   14.9810   -0.9750 C   0  0  0  0  0  0  0  0  0  0  0  0
   -1.4380   14.9580    1.5850 N   0  0  0  0  0  0  0  0  0  0  0  0
   -3.7970   15.2230    1.3090 N   0  0  0  0  0  0  0  0  0  0  0  0
   -4.5640   15.1820    0.1570 C   0  0  0  0  0  0  0  0  0  0  0  0
  1  2  1  0
  3  2  1  6
  3  4  1  0
  3  5  1  0
  4  6  1  0
  5  7  1  0
  5  8  1  0
  6  9  1  0
  7 10  1  0
  8 11  1  0
 10 11  1  0
 11 12  1  6
  9 13  1  0
 12 14  1  0
 13 15  1  0
 14 16  1  1
 15 17  1  0
 15 18  2  0
 14 19  1  0
 17 20  1  0
 19 21  1  0
 19 22  1  1
 20 23  1  0
 22 24  1  0
 21 25  1  0
 24 25  1  0
 23 26  1  0
 23 27  1  0
 27 28  2  0
 27 29  1  0
 28 30  1  0
 29 31  2  0
 28 32  1  0
 30 33  1  0
 31 33  1  0
 30 34  2  0
 32 35  2  0
 34 35  1  0
M  END
