diamond-x0742_0_A-mac-x0344
     RDKit          3D

 29 32  0  0  0  0  0  0  0  0999 V2000
   -5.5240   12.2470   -0.5520 C   0  0  0  0  0  0  0  0  0  0  0  0
   -6.5850   11.5790    0.2850 C   0  0  0  0  0  0  0  0  0  0  0  0
   -4.9920   11.6340   -1.4820 O   0  0  0  0  0  0  0  0  0  0  0  0
   -5.1700   13.7010   -0.1940 C   0  0  2  0  0  0  0  0  0  0  0  0
   -4.8460   13.7750    1.3130 C   0  0  0  0  0  0  0  0  0  0  0  0
   -6.4090   14.5530   -0.5590 C   0  0  0  0  0  0  0  0  0  0  0  0
   -4.0130   14.2340   -1.0970 C   0  0  1  0  0  0  0  0  0  0  0  0
   -4.4320   15.6780   -1.3240 C   0  0  0  0  0  0  0  0  0  0  0  0
   -2.6490   14.1700   -0.4610 C   0  0  0  0  0  0  0  0  0  0  0  0
   -3.7300   14.7560    1.6570 C   0  0  0  0  0  0  0  0  0  0  0  0
   -5.9350   15.6190   -1.5280 C   0  0  0  0  0  0  0  0  0  0  0  0
   -1.5120   13.8580   -1.2020 C   0  0  0  0  0  0  0  0  0  0  0  0
   -2.5190   14.4220    0.8860 C   0  0  0  0  0  0  0  0  0  0  0  0
   -1.3610   14.3820    1.5530 N   0  0  0  0  0  0  0  0  0  0  0  0
   -0.2820   13.8000   -0.5730 C   0  0  0  0  0  0  0  0  0  0  0  0
    0.9730   13.4460   -1.3430 C   0  0  0  0  0  0  0  0  0  0  0  0
   -0.2860   14.0740    0.8090 C   0  0  0  0  0  0  0  0  0  0  0  0
    1.1620   14.0050   -2.6790 N   0  0  0  0  0  0  0  0  0  0  0  0
    0.9740   13.3720   -3.7990 C   0  0  0  0  0  0  0  0  0  0  0  0
    1.2140   13.9600   -4.9770 O   0  0  0  0  0  0  0  0  0  0  0  0
    0.4830   11.9470   -4.0400 C   0  0  0  0  0  0  0  0  0  0  0  0
    0.3370   11.1800   -3.0860 O   0  0  0  0  0  0  0  0  0  0  0  0
    0.2210   11.5540   -5.3380 N   0  0  0  0  0  0  0  0  0  0  0  0
   -0.6310   10.6280   -5.9790 C   0  0  0  0  0  0  0  0  0  0  0  0
   -0.3480   10.0190   -7.1980 C   0  0  0  0  0  0  0  0  0  0  0  0
   -1.8380   10.3050   -5.3400 C   0  0  0  0  0  0  0  0  0  0  0  0
   -1.2440    9.1100   -7.7740 C   0  0  0  0  0  0  0  0  0  0  0  0
   -2.7370    9.3960   -5.9150 C   0  0  0  0  0  0  0  0  0  0  0  0
   -2.4370    8.7990   -7.1350 C   0  0  0  0  0  0  0  0  0  0  0  0
  1  2  1  0
  1  3  2  0
  4  1  1  6
  4  5  1  0
  4  6  1  0
  4  7  1  0
  7  8  1  1
  7  9  1  0
  5 10  1  0
  6 11  1  0
  8 11  1  0
  9 12  1  0
  9 13  2  0
 10 13  1  0
 13 14  1  0
 12 15  2  0
 15 16  1  0
 14 17  2  0
 15 17  1  0
 16 18  1  0
 18 19  2  3
 19 20  1  0
 19 21  1  0
 21 22  2  0
 21 23  1  0
 23 24  1  0
 24 25  2  0
 24 26  1  0
 25 27  1  0
 26 28  2  0
 27 29  2  0
 28 29  1  0
M  END
