diamond-x0852_0_B-mac-x0338
     RDKit          3D

 20 21  0  0  0  0  0  0  0  0999 V2000
   -9.7700   17.5240    7.3040 N   0  0  0  0  0  0  0  0  0  0  0  0
   -9.6240   17.0840    6.2390 C   0  0  0  0  0  0  0  0  0  0  0  0
   -9.3970   16.6200    4.9020 C   0  0  0  0  0  0  0  0  0  0  0  0
   -8.3220   15.7810    4.5960 C   0  0  0  0  0  0  0  0  0  0  0  0
  -10.2740   17.0220    3.8880 C   0  0  0  0  0  0  0  0  0  0  0  0
   -7.4500   15.3590    5.5820 O   0  0  0  0  0  0  0  0  0  0  0  0
   -8.1300   15.3660    3.2590 C   0  0  0  0  0  0  0  0  0  0  0  0
  -10.0770   16.5870    2.5780 C   0  0  0  0  0  0  0  0  0  0  0  0
  -11.2410   17.1200    1.1950 Br  0  0  0  0  0  0  0  0  0  0  0  0
   -6.9840   14.5160    2.8620 C   0  0  0  0  0  0  0  0  0  0  0  0
   -9.0150   15.7680    2.2680 C   0  0  0  0  0  0  0  0  0  0  0  0
   -6.5090   14.6000    1.4660 N   0  0  0  0  0  0  0  0  0  0  0  0
   -5.3110   15.0510    1.1850 C   0  0  0  0  0  0  0  0  0  0  0  0
   -4.3950   15.5080    2.1000 N   0  0  0  0  0  0  0  0  0  0  0  0
   -4.8550   15.0610   -0.2420 C   0  0  0  0  0  0  0  0  0  0  0  0
   -3.5150   14.9950   -0.4670 N   0  0  0  0  0  0  0  0  0  0  0  0
   -5.7730   15.1280   -1.2750 C   0  0  0  0  0  0  0  0  0  0  0  0
   -3.1440   14.9990   -1.7630 C   0  0  0  0  0  0  0  0  0  0  0  0
   -5.3950   15.1280   -2.5730 N   0  0  0  0  0  0  0  0  0  0  0  0
   -4.0640   15.0640   -2.7950 C   0  0  0  0  0  0  0  0  0  0  0  0
  1  2  3  0
  2  3  1  0
  3  4  2  0
  3  5  1  0
  4  6  1  0
  4  7  1  0
  5  8  2  0
  8  9  1  0
  7 10  1  0
  7 11  2  0
  8 11  1  0
 10 12  1  0
 12 13  2  3
 13 14  1  0
 13 15  1  0
 15 16  2  0
 15 17  1  0
 16 18  1  0
 17 19  2  0
 18 20  2  0
 19 20  1  0
M  END
