diamond-x0371_0_A-diamond-x0950_1_A
     RDKit          3D

 27 29  0  0  0  0  0  0  0  0999 V2000
   -7.9270   14.5110    2.9800 N   0  0  0  0  0  0  0  0  0  0  0  0
   -8.6890   15.4800    3.5990 C   0  0  0  0  0  0  0  0  0  0  0  0
   -9.3980   16.2450    2.9480 O   0  0  0  0  0  0  0  0  0  0  0  0
   -8.1760   14.1860    1.5970 C   0  0  0  0  0  0  0  0  0  0  0  0
   -6.9450   14.5210    0.8380 C   0  0  0  0  0  0  0  0  0  0  0  0
   -8.5900   15.5110    5.0450 C   0  0  0  0  0  0  0  0  0  0  0  0
   -5.7130   14.5280    1.4350 N   0  0  0  0  0  0  0  0  0  0  0  0
   -6.8510   14.8430   -0.4430 N   0  0  0  0  0  0  0  0  0  0  0  0
   -8.0190   14.4390    5.6680 O   0  0  0  0  0  0  0  0  0  0  0  0
   -8.9680   16.4380    5.9990 C   0  0  0  0  0  0  0  0  0  0  0  0
   -5.5080   15.0580   -0.6610 C   0  0  0  0  0  0  0  0  0  0  0  0
   -4.7770   14.8670    0.5040 C   0  0  0  0  0  0  0  0  0  0  0  0
   -8.6040   15.8930    7.2600 C   0  0  0  0  0  0  0  0  0  0  0  0
   -8.0290   14.6780    6.9990 C   0  0  0  0  0  0  0  0  0  0  0  0
   -3.3930   15.0120    0.5840 C   0  0  0  0  0  0  0  0  0  0  0  0
   -4.8310   15.4180   -1.8280 C   0  0  0  0  0  0  0  0  0  0  0  0
   -2.7110   15.3710   -0.5910 C   0  0  0  0  0  0  0  0  0  0  0  0
   -3.4330   15.5710   -1.7840 C   0  0  0  0  0  0  0  0  0  0  0  0
   -1.1980   15.5330   -0.5580 C   0  0  0  0  0  0  0  0  0  0  0  0
   -0.5040   14.7510   -1.6740 C   0  0  0  0  0  0  0  0  0  0  0  0
    0.2160   13.5120   -1.1420 C   0  0  0  0  0  0  0  0  0  0  0  0
    1.2430   13.0790   -2.0610 O   0  0  0  0  0  0  0  0  0  0  0  0
    0.8850   12.1400   -2.9750 C   0  0  0  0  0  0  0  0  0  0  0  0
    1.3410   12.5220   -4.3940 C   0  0  2  0  0  0  0  0  0  0  0  0
    0.2790   11.1000   -2.7180 O   0  0  0  0  0  0  0  0  0  0  0  0
    1.0800   13.9810   -4.7240 C   0  0  0  0  0  0  0  0  0  0  0  0
    0.6710   11.7290   -5.3790 O   0  0  0  0  0  0  0  0  0  0  0  0
  1  2  1  0
  2  3  2  0
  1  4  1  0
  4  5  1  0
  2  6  1  0
  5  7  1  0
  5  8  2  0
  6  9  1  0
  6 10  2  0
  8 11  1  0
  7 12  1  0
 11 12  2  0
 10 13  1  0
  9 14  1  0
 13 14  2  0
 12 15  1  0
 11 16  1  0
 15 17  2  0
 16 18  2  0
 17 18  1  0
 17 19  1  0
 19 20  1  0
 20 21  1  0
 21 22  1  0
 22 23  1  0
 23 24  1  0
 23 25  2  0
 24 26  1  6
 24 27  1  0
M  END
