diamond-x0681_0_A-diamond-x0864_0_A
     RDKit          3D

 26 28  0  0  0  0  0  0  0  0999 V2000
   -4.8850   15.2840   -3.0760 N   0  0  0  0  0  0  0  0  0  0  0  0
   -3.7780   14.8910   -2.4070 C   0  0  0  0  0  0  0  0  0  0  0  0
   -2.6610   14.6660   -3.0220 N   0  0  0  0  0  0  0  0  0  0  0  0
   -4.1650   14.7820   -0.9200 C   0  0  1  0  0  0  0  0  0  0  0  0
   -1.3480   14.2290   -2.5860 C   0  0  0  0  0  0  0  0  0  0  0  0
   -4.9120   13.5200   -0.6820 C   0  0  0  0  0  0  0  0  0  0  0  0
   -3.3710   15.3170    0.2660 C   0  0  0  0  0  0  0  0  0  0  0  0
   -0.4570   14.1760   -3.8470 C   0  0  0  0  0  0  0  0  0  0  0  0
   -5.5860   13.4420    0.4580 N   0  0  0  0  0  0  0  0  0  0  0  0
   -4.0480   14.9480    1.5730 C   0  0  0  0  0  0  0  0  0  0  0  0
   -5.0530   12.4350   -1.4130 N   0  0  0  0  0  0  0  0  0  0  0  0
    0.3310   12.8790   -4.1910 C   0  0  1  0  0  0  0  0  0  0  0  0
   -5.5250   14.5490    1.3550 C   0  0  0  0  0  0  0  0  0  0  0  0
   -6.2300   12.2520    0.5250 C   0  0  0  0  0  0  0  0  0  0  0  0
   -5.8850   11.6340   -0.6600 C   0  0  0  0  0  0  0  0  0  0  0  0
    0.8780   12.1550   -2.9660 C   0  0  0  0  0  0  0  0  0  0  0  0
   -0.3060   11.9210   -5.1480 N   0  0  0  0  0  0  0  0  0  0  0  0
    0.4740   10.8690   -2.8560 O   0  0  0  0  0  0  0  0  0  0  0  0
    1.6040   12.6280   -2.1160 O   0  0  0  0  0  0  0  0  0  0  0  0
   -1.4560   11.2310   -4.7990 C   0  0  0  0  0  0  0  0  0  0  0  0
    0.4550   11.5210   -6.2610 C   0  0  0  0  0  0  0  0  0  0  0  0
    1.5130   12.0340   -6.6010 O   0  0  0  0  0  0  0  0  0  0  0  0
   -1.9070   10.1930   -5.5150 C   0  0  0  0  0  0  0  0  0  0  0  0
   -0.0690   10.3820   -7.0600 C   0  0  0  0  0  0  0  0  0  0  0  0
   -1.1920    9.7600   -6.6900 C   0  0  0  0  0  0  0  0  0  0  0  0
   -1.8970    8.3190   -7.6450 Br  0  0  0  0  0  0  0  0  0  0  0  0
  1  2  1  0
  2  3  2  3
  4  2  1  6
  3  5  1  0
  4  6  1  0
  4  7  1  0
  5  8  1  0
  6  9  1  0
  7 10  1  0
  6 11  2  0
 12  8  1  1
  9 13  1  0
 10 13  1  0
  9 14  1  0
 11 15  1  0
 14 15  2  0
 12 16  1  0
 12 17  1  0
 16 18  1  0
 16 19  2  0
 17 20  1  0
 17 21  1  0
 21 22  2  0
 20 23  2  0
 21 24  1  0
 23 25  1  0
 24 25  2  0
 25 26  1  0
M  END
