diamond-x0371_0_A-diamond-x0465_0_A
     RDKit          3D

 34 37  0  0  0  0  0  0  0  0999 V2000
   -7.9600   14.6000    2.9600 N   0  0  0  0  0  0  0  0  0  0  0  0
   -8.7200   15.5360    3.6240 C   0  0  0  0  0  0  0  0  0  0  0  0
   -9.4450   16.3100    3.0010 O   0  0  0  0  0  0  0  0  0  0  0  0
   -8.2590   14.3210    1.5750 C   0  0  0  0  0  0  0  0  0  0  0  0
   -7.0040   14.5350    0.8170 C   0  0  0  0  0  0  0  0  0  0  0  0
   -8.6040   15.5290    5.0650 C   0  0  0  0  0  0  0  0  0  0  0  0
   -5.7960   14.4340    1.4380 N   0  0  0  0  0  0  0  0  0  0  0  0
   -6.8580   14.8330   -0.4680 N   0  0  0  0  0  0  0  0  0  0  0  0
   -8.0280   14.4400    5.6580 O   0  0  0  0  0  0  0  0  0  0  0  0
   -8.9690   16.4340    6.0470 C   0  0  0  0  0  0  0  0  0  0  0  0
   -5.4930   14.9140   -0.6560 C   0  0  0  0  0  0  0  0  0  0  0  0
   -4.8200   14.6660    0.5270 C   0  0  0  0  0  0  0  0  0  0  0  0
   -8.5940   15.8650    7.2890 C   0  0  0  0  0  0  0  0  0  0  0  0
   -8.0240   14.6510    6.9960 C   0  0  0  0  0  0  0  0  0  0  0  0
   -3.4370   14.6660    0.6730 C   0  0  0  0  0  0  0  0  0  0  0  0
   -4.7410   15.1920   -1.8040 C   0  0  0  0  0  0  0  0  0  0  0  0
   -2.6800   14.9350   -0.4700 C   0  0  0  0  0  0  0  0  0  0  0  0
   -3.3350   15.1970   -1.6970 C   0  0  0  0  0  0  0  0  0  0  0  0
   -1.1550   14.9410   -0.3510 C   0  0  0  0  0  0  0  0  0  0  0  0
   -0.4540   13.6150   -0.2490 C   0  0  0  0  0  0  0  0  0  0  0  0
    0.5930   13.4890   -1.3510 C   0  0  0  0  0  0  0  0  0  0  0  0
    0.4860   12.1160   -1.7650 N   0  0  0  0  0  0  0  0  0  0  0  0
    0.5580   11.7450   -2.9980 C   0  0  0  0  0  0  0  0  0  0  0  0
    0.7560   12.4430   -4.3660 C   0  0  1  0  0  0  0  0  0  0  0  0
    0.4060   10.4160   -3.1010 O   0  0  0  0  0  0  0  0  0  0  0  0
    2.1550   13.0600   -4.4570 C   0  0  0  0  0  0  0  0  0  0  0  0
    0.5810   11.5440   -5.4660 O   0  0  0  0  0  0  0  0  0  0  0  0
   -0.6090   10.8740   -5.6080 C   0  0  0  0  0  0  0  0  0  0  0  0
   -0.6480    9.8380   -6.5690 C   0  0  0  0  0  0  0  0  0  0  0  0
   -1.7630   11.1460   -4.8740 C   0  0  0  0  0  0  0  0  0  0  0  0
    0.4300    9.5350   -7.3070 F   0  0  0  0  0  0  0  0  0  0  0  0
   -1.8090    9.0950   -6.7830 C   0  0  0  0  0  0  0  0  0  0  0  0
   -2.9300   10.4020   -5.0900 C   0  0  0  0  0  0  0  0  0  0  0  0
   -2.9510    9.3770   -6.0430 C   0  0  0  0  0  0  0  0  0  0  0  0
  1  2  1  0
  2  3  2  0
  1  4  1  0
  4  5  1  0
  2  6  1  0
  5  7  1  0
  5  8  2  0
  6  9  1  0
  6 10  2  0
  8 11  1  0
  7 12  1  0
 11 12  2  0
 10 13  1  0
  9 14  1  0
 13 14  2  0
 12 15  1  0
 11 16  1  0
 15 17  2  0
 16 18  2  0
 17 18  1  0
 17 19  1  0
 19 20  1  0
 20 21  1  0
 21 22  1  0
 22 23  2  3
 23 24  1  0
 23 25  1  0
 24 26  1  1
 24 27  1  0
 27 28  1  0
 28 29  2  0
 28 30  1  0
 29 31  1  0
 29 32  1  0
 30 33  2  0
 32 34  2  0
 33 34  1  0
M  END
