diamond-x0592_0_A-mac-x0398
     RDKit          3D

 14 15  0  0  0  0  0  0  0  0999 V2000
   -2.7270   15.3080    0.9120 N   0  0  0  0  0  0  0  0  0  0  0  0
   -3.1040   14.3250   -0.0550 C   0  0  2  0  0  0  0  0  0  0  0  0
   -2.7460   14.8120   -1.3610 N   0  0  0  0  0  0  0  0  0  0  0  0
   -4.5980   14.1650   -0.1820 C   0  0  2  0  0  0  0  0  0  0  0  0
   -3.8830   15.0220   -2.1600 C   0  0  0  0  0  0  0  0  0  0  0  0
   -4.9900   15.2370   -1.1370 C   0  0  1  0  0  0  0  0  0  0  0  0
   -5.5380   14.5730    0.9320 C   0  0  0  0  0  0  0  0  0  0  0  0
   -3.9110   15.0240   -3.3860 O   0  0  0  0  0  0  0  0  0  0  0  0
   -6.3590   14.7600   -1.2780 N   0  0  0  0  0  0  0  0  0  0  0  0
   -6.7430   14.9480    0.1330 N   0  0  0  0  0  0  0  0  0  0  0  0
   -7.9240   14.1940    0.5870 C   0  0  0  0  0  0  0  0  0  0  0  0
   -6.9970   15.7330   -2.1360 O   0  0  0  0  0  0  0  0  0  0  0  0
   -7.9320   13.9460    2.1130 C   0  0  0  0  0  0  0  0  0  0  0  0
   -7.1920   14.9520    2.8160 O   0  0  0  0  0  0  0  0  0  0  0  0
  2  1  1  1
  2  3  1  0
  2  4  1  0
  3  5  1  0
  4  6  1  0
  6  5  1  6
  4  7  1  1
  5  8  2  0
  6  9  1  0
  7 10  1  0
  9 10  1  0
 10 11  1  0
  9 12  1  0
 11 13  1  0
 13 14  1  0
M  END
