diamond-x0253_0_A-diamond-x0900_1_A
     RDKit          3D

 14 14  0  0  0  0  0  0  0  0999 V2000
    0.3360   11.9520   -5.4430 N   0  0  0  0  0  0  0  0  0  0  0  0
    1.0920   11.6700   -6.5530 C   0  0  0  0  0  0  0  0  0  0  0  0
    2.2150   12.1260   -6.6510 O   0  0  0  0  0  0  0  0  0  0  0  0
    0.9150   12.8570   -4.4640 C   0  0  0  0  0  0  0  0  0  0  0  0
    0.8280   12.2940   -3.0520 C   0  0  0  0  0  0  0  0  0  0  0  0
    0.4960   10.7660   -7.5910 C   0  0  0  0  0  0  0  0  0  0  0  0
    1.0970   12.8860   -2.0230 O   0  0  0  0  0  0  0  0  0  0  0  0
    0.4100   11.0160   -3.0030 O   0  0  0  0  0  0  0  0  0  0  0  0
   -0.4800    9.8570   -7.1630 C   0  0  0  0  0  0  0  0  0  0  0  0
    0.8590   10.7820   -8.9470 C   0  0  0  0  0  0  0  0  0  0  0  0
   -1.0870    8.9770   -8.0700 C   0  0  0  0  0  0  0  0  0  0  0  0
    0.2580    9.9110   -9.8520 C   0  0  0  0  0  0  0  0  0  0  0  0
   -2.1300    8.0060   -7.5980 C   0  0  0  0  0  0  0  0  0  0  0  0
   -0.7110    9.0130   -9.4180 C   0  0  0  0  0  0  0  0  0  0  0  0
  1  2  1  0
  2  3  2  0
  1  4  1  0
  4  5  1  0
  2  6  1  0
  5  7  2  0
  5  8  1  0
  6  9  2  0
  6 10  1  0
  9 11  1  0
 10 12  2  0
 11 13  1  0
 11 14  2  0
 12 14  1  0
M  END
