diamond-x0864_0_A-diamond-x0910_0_A
     RDKit          3D

 21 22  0  0  0  0  0  0  0  0999 V2000
    1.5450   11.7260   -6.9950 O   0  0  0  0  0  0  0  0  0  0  0  0
    0.5060   11.2730   -6.5480 C   0  0  0  0  0  0  0  0  0  0  0  0
   -0.1030   11.7330   -5.3980 N   0  0  0  0  0  0  0  0  0  0  0  0
   -0.1530   10.1480   -7.2450 C   0  0  0  0  0  0  0  0  0  0  0  0
    0.7080   12.6000   -4.5550 C   0  0  0  0  0  0  0  0  0  0  0  0
   -1.2740   11.1830   -4.9120 C   0  0  0  0  0  0  0  0  0  0  0  0
   -1.2800    9.6270   -6.7540 C   0  0  0  0  0  0  0  0  0  0  0  0
    0.7370   12.1600   -3.1040 C   0  0  0  0  0  0  0  0  0  0  0  0
   -2.1460    8.2050   -7.5870 Br  0  0  0  0  0  0  0  0  0  0  0  0
   -1.8660   10.1630   -5.5450 C   0  0  0  0  0  0  0  0  0  0  0  0
    0.4020   10.8700   -2.8900 O   0  0  0  0  0  0  0  0  0  0  0  0
    1.0320   12.8310   -2.0590 N   0  0  0  0  0  0  0  0  0  0  0  0
    1.4160   14.2270   -2.2730 C   0  0  0  0  0  0  0  0  0  0  0  0
    0.2400   15.0500   -2.8390 C   0  0  0  0  0  0  0  0  0  0  0  0
   -1.1030   14.3040   -3.0080 C   0  0  0  0  0  0  0  0  0  0  0  0
   -2.0380   14.5940   -1.9220 N   0  0  0  0  0  0  0  0  0  0  0  0
   -1.5030   14.6830   -0.6970 C   0  0  0  0  0  0  0  0  0  0  0  0
   -2.2510   14.7110    0.4470 N   0  0  0  0  0  0  0  0  0  0  0  0
   -0.2390   14.7590   -0.3840 N   0  0  0  0  0  0  0  0  0  0  0  0
   -1.4650   14.8070    1.5270 N   0  0  0  0  0  0  0  0  0  0  0  0
   -0.2580   14.8350    0.9710 C   0  0  0  0  0  0  0  0  0  0  0  0
  1  2  2  0
  2  3  1  0
  2  4  1  0
  3  5  1  0
  3  6  1  0
  4  7  2  0
  5  8  1  0
  7  9  1  0
  6 10  2  0
  7 10  1  0
  8 11  1  0
  8 12  2  3
 12 13  1  0
 13 14  1  0
 14 15  1  0
 15 16  1  0
 16 17  1  0
 17 18  1  0
 17 19  2  0
 18 20  1  0
 19 21  1  0
 20 21  2  0
M  END
