diamond-x0900_0_A-diamond-x0837_0_A
     RDKit          3D

  7  7  0  0  0  0  0  0  0  0999 V2000
   -6.6770   14.9790   -0.8690 O   0  0  0  0  0  0  0  0  0  0  0  0
   -5.5640   14.9720   -0.3600 C   0  0  0  0  0  0  0  0  0  0  0  0
   -4.3200   15.2110   -0.9560 N   0  0  0  0  0  0  0  0  0  0  0  0
   -5.2990   14.6910    1.1000 C   0  0  0  0  0  0  0  0  0  0  0  0
   -3.7030   14.6280   -2.7990 I   0  0  0  0  0  0  0  0  0  0  0  0
   -4.0080   15.4490    1.3600 C   0  0  0  0  0  0  0  0  0  0  0  0
   -3.2930   15.4260    0.0260 C   0  0  0  0  0  0  0  0  0  0  0  0
  1  2  2  0
  2  3  1  0
  2  4  1  0
  3  5  1  0
  4  6  1  0
  3  7  1  0
  6  7  1  0
M  END
