diamond-x0662_0_A-mac-x0347
     RDKit          3D

 35 38  0  0  0  0  0  0  0  0999 V2000
    5.3000    9.5440  -15.1170 C   0  0  0  0  0  0  0  0  0  0  0  0
    4.2780   10.0260  -14.2190 N   0  0  0  0  0  0  0  0  0  0  0  0
    3.6300   11.2270  -14.2650 C   0  0  0  0  0  0  0  0  0  0  0  0
    3.8840    9.2390  -13.2050 N   0  0  0  0  0  0  0  0  0  0  0  0
    2.7570   11.2190  -13.2020 C   0  0  0  0  0  0  0  0  0  0  0  0
    2.9490    9.9560  -12.5620 C   0  0  0  0  0  0  0  0  0  0  0  0
    2.2480    9.4750  -11.3600 C   0  0  0  0  0  0  0  0  0  0  0  0
    2.3310    8.2880  -11.0300 O   0  0  0  0  0  0  0  0  0  0  0  0
    1.5060   10.3060  -10.5390 N   0  0  0  0  0  0  0  0  0  0  0  0
    0.6580   10.0060   -9.4650 C   0  0  0  0  0  0  0  0  0  0  0  0
   -0.2850    8.9810   -9.5150 C   0  0  0  0  0  0  0  0  0  0  0  0
    0.7630   10.7640   -8.2890 C   0  0  0  0  0  0  0  0  0  0  0  0
   -1.1100    8.7160   -8.4190 C   0  0  0  0  0  0  0  0  0  0  0  0
   -0.0630   10.5020   -7.1890 C   0  0  0  0  0  0  0  0  0  0  0  0
    0.0690   11.3270   -5.9640 C   0  0  0  0  0  0  0  0  0  0  0  0
   -0.9980    9.4730   -7.2600 C   0  0  0  0  0  0  0  0  0  0  0  0
   -0.7020   11.2560   -5.0230 O   0  0  0  0  0  0  0  0  0  0  0  0
    1.1380   12.1450   -6.0460 O   0  0  0  0  0  0  0  0  0  0  0  0
    0.9480   13.4240   -5.4350 C   0  0  0  0  0  0  0  0  0  0  0  0
    1.8790   13.6420   -4.2450 C   0  0  0  0  0  0  0  0  0  0  0  0
    1.3450   14.6410   -3.3620 O   0  0  0  0  0  0  0  0  0  0  0  0
    0.5700   14.1790   -2.3590 C   0  0  0  0  0  0  0  0  0  0  0  0
    0.9710   13.5340   -1.4050 O   0  0  0  0  0  0  0  0  0  0  0  0
   -0.8600   14.5330   -2.5510 C   0  0  0  0  0  0  0  0  0  0  0  0
   -1.7690   14.4980   -1.4950 C   0  0  0  0  0  0  0  0  0  0  0  0
   -1.3440   14.9080   -3.8030 C   0  0  0  0  0  0  0  0  0  0  0  0
   -3.1120   14.8160   -1.6880 C   0  0  0  0  0  0  0  0  0  0  0  0
   -2.6440   15.2310   -4.0400 N   0  0  0  0  0  0  0  0  0  0  0  0
   -3.4900   15.1740   -2.9820 C   0  0  0  0  0  0  0  0  0  0  0  0
   -4.0450   14.7560   -0.5640 C   0  0  0  0  0  0  0  0  0  0  0  0
   -3.7200   15.3190    0.6830 C   0  0  0  0  0  0  0  0  0  0  0  0
   -5.2930   14.1280   -0.7020 C   0  0  0  0  0  0  0  0  0  0  0  0
   -4.6130   15.2540    1.7450 C   0  0  0  0  0  0  0  0  0  0  0  0
   -6.1880   14.0620    0.3650 C   0  0  0  0  0  0  0  0  0  0  0  0
   -5.8450   14.6280    1.5870 C   0  0  0  0  0  0  0  0  0  0  0  0
  1  2  1  0
  2  3  1  0
  2  4  1  0
  3  5  2  0
  4  6  2  0
  5  6  1  0
  6  7  1  0
  7  8  2  0
  7  9  1  0
  9 10  1  0
 10 11  2  0
 10 12  1  0
 11 13  1  0
 12 14  2  0
 14 15  1  0
 13 16  2  0
 14 16  1  0
 15 17  2  0
 15 18  1  0
 18 19  1  0
 19 20  1  0
 20 21  1  0
 21 22  1  0
 22 23  2  0
 22 24  1  0
 24 25  2  0
 24 26  1  0
 25 27  1  0
 26 28  2  0
 27 29  2  0
 28 29  1  0
 27 30  1  0
 30 31  2  0
 30 32  1  0
 31 33  1  0
 32 34  2  0
 33 35  2  0
 34 35  1  0
M  END
