diamond-x1018_0_A-diamond-x0685_1_A
     RDKit          3D

 25 27  0  0  0  0  0  0  0  0999 V2000
   -8.4170   14.6450    0.8510 Cl  0  0  0  0  0  0  0  0  0  0  0  0
   -6.7330   14.6350    0.4410 C   0  0  0  0  0  0  0  0  0  0  0  0
   -5.7280   14.8430    1.5130 C   0  0  0  0  0  0  0  0  0  0  0  0
   -6.4510   14.4510   -0.8120 N   0  0  0  0  0  0  0  0  0  0  0  0
   -5.1200   14.4240   -1.1180 N   0  0  0  0  0  0  0  0  0  0  0  0
   -4.4480   14.6490    1.1970 C   0  0  0  0  0  0  0  0  0  0  0  0
   -4.6820   15.0740   -2.2590 N   0  0  0  0  0  0  0  0  0  0  0  0
   -4.0290   14.2230   -0.1610 C   0  0  2  0  0  0  0  0  0  0  0  0
   -2.9300   14.9950   -0.7260 N   0  0  0  0  0  0  0  0  0  0  0  0
   -3.2600   15.0950   -2.1380 N   0  0  0  0  0  0  0  0  0  0  0  0
   -1.6200   14.3490   -0.5040 C   0  0  0  0  0  0  0  0  0  0  0  0
   -1.3220   13.2770   -1.5450 C   0  0  0  0  0  0  0  0  0  0  0  0
   -0.0030   12.7730   -1.3770 O   0  0  0  0  0  0  0  0  0  0  0  0
    0.6480   11.9920   -2.6200 S   0  0  0  0  0  0  0  0  0  0  0  0
   -0.0620   12.6010   -4.1530 C   0  0  0  0  0  0  0  0  0  0  0  0
    2.2070   12.3250   -2.7940 O   0  0  0  0  0  0  0  0  0  0  0  0
    0.3750   10.4100   -2.5380 O   0  0  0  0  0  0  0  0  0  0  0  0
   -1.4330   11.9980   -4.4540 C   0  0  0  0  0  0  0  0  0  0  0  0
   -1.3340   10.5760   -4.8470 N   0  0  0  0  0  0  0  0  0  0  0  0
   -0.7930   10.3140   -6.1940 C   0  0  0  0  0  0  0  0  0  0  0  0
   -0.5200    8.8190   -6.4540 C   0  0  0  0  0  0  0  0  0  0  0  0
   -1.6110   10.9880   -7.3150 C   0  0  0  0  0  0  0  0  0  0  0  0
    0.1300    8.5920   -7.8090 C   0  0  0  0  0  0  0  0  0  0  0  0
   -1.0050   10.7140   -8.6900 C   0  0  0  0  0  0  0  0  0  0  0  0
   -0.7060    9.2290   -8.9190 C   0  0  0  0  0  0  0  0  0  0  0  0
  1  2  1  0
  2  3  1  0
  2  4  2  0
  4  5  1  0
  3  6  2  0
  5  7  1  0
  5  8  1  0
  8  6  1  1
  8  9  1  0
  7 10  1  0
  9 10  1  0
  9 11  1  0
 11 12  1  0
 12 13  1  0
 14 13  1  0
 14 15  1  0
 14 16  1  0
 14 17  1  0
 15 18  1  0
 18 19  1  0
 19 20  1  0
 20 21  1  0
 20 22  1  0
 21 23  1  0
 22 24  1  0
 23 25  1  0
 24 25  1  0
M  END
