diamond-x0371_0_A-diamond-x0849_0_A
     RDKit          3D

 23 26  0  0  0  0  0  0  0  0999 V2000
   -7.8580   14.4720    3.0000 N   0  0  0  0  0  0  0  0  0  0  0  0
   -8.6580   15.4320    3.5880 C   0  0  0  0  0  0  0  0  0  0  0  0
   -9.3780   16.1680    2.9110 O   0  0  0  0  0  0  0  0  0  0  0  0
   -8.0850   14.0750    1.6330 C   0  0  0  0  0  0  0  0  0  0  0  0
   -6.8790   14.5050    0.8800 C   0  0  0  0  0  0  0  0  0  0  0  0
   -8.5830   15.4880    5.0310 C   0  0  0  0  0  0  0  0  0  0  0  0
   -5.7370   14.9060    1.5480 N   0  0  0  0  0  0  0  0  0  0  0  0
   -6.7200   14.5690   -0.4380 N   0  0  0  0  0  0  0  0  0  0  0  0
   -8.0120   14.4240    5.6740 O   0  0  0  0  0  0  0  0  0  0  0  0
   -8.9760   16.4210    5.9740 C   0  0  0  0  0  0  0  0  0  0  0  0
   -5.4450   15.0210   -0.5870 C   0  0  0  0  0  0  0  0  0  0  0  0
   -4.8210   15.2530    0.6070 C   0  0  0  0  0  0  0  0  0  0  0  0
   -8.6240   15.8940    7.2420 C   0  0  0  0  0  0  0  0  0  0  0  0
   -8.0380   14.6770    7.0010 C   0  0  0  0  0  0  0  0  0  0  0  0
   -3.4340   15.7650    0.7730 C   0  0  0  0  0  0  0  0  0  0  0  0
   -4.7430   15.2460   -1.7880 C   0  0  0  0  0  0  0  0  0  0  0  0
   -2.5820   15.1690   -0.4010 C   0  0  1  0  0  0  0  0  0  0  0  0
   -3.3900   15.3050   -1.7360 C   0  0  0  0  0  0  0  0  0  0  0  0
   -1.0960   15.6770   -0.6270 C   0  0  0  0  0  0  0  0  0  0  0  0
   -2.4140   13.7780    0.2100 C   0  0  0  0  0  0  0  0  0  0  0  0
   -1.6490   13.9930    1.4390 N   0  0  0  0  0  0  0  0  0  0  0  0
   -0.0240   15.1280    0.3010 C   0  0  0  0  0  0  0  0  0  0  0  0
   -0.3580   14.3220    1.2920 C   0  0  0  0  0  0  0  0  0  0  0  0
  1  2  1  0
  2  3  2  0
  1  4  1  0
  4  5  1  0
  2  6  1  0
  5  7  1  0
  5  8  2  0
  6  9  1  0
  6 10  2  0
  8 11  1  0
  7 12  1  0
 11 12  2  0
 10 13  1  0
  9 14  1  0
 13 14  2  0
 12 15  1  0
 11 16  1  0
 17 15  1  1
 16 18  2  0
 17 18  1  0
 17 19  1  0
 17 20  1  0
 20 21  1  0
 19 22  1  0
 21 23  1  0
 22 23  2  0
M  END
