diamond-x0524_0_A-mac-x0522
     RDKit          3D

 24 26  0  0  0  0  0  0  0  0999 V2000
   -1.0710    9.3750   -8.2150 N   0  0  0  0  0  0  0  0  0  0  0  0
   -1.0280    9.8850   -6.9510 C   0  0  0  0  0  0  0  0  0  0  0  0
   -1.9750    9.1730   -6.0210 C   0  0  0  0  0  0  0  0  0  0  0  0
    0.0200    9.1300   -9.0380 C   0  0  0  0  0  0  0  0  0  0  0  0
   -0.3260   10.8070   -6.5710 O   0  0  0  0  0  0  0  0  0  0  0  0
    1.1620    8.4970   -8.5950 C   0  0  0  0  0  0  0  0  0  0  0  0
   -0.0750    9.5530  -10.3740 C   0  0  0  0  0  0  0  0  0  0  0  0
    2.1880    8.2740   -9.4760 C   0  0  0  0  0  0  0  0  0  0  0  0
    0.9690    9.3270  -11.2640 C   0  0  0  0  0  0  0  0  0  0  0  0
    2.1070    8.6730  -10.8090 C   0  0  0  0  0  0  0  0  0  0  0  0
    3.2670    8.3260  -11.6440 N   0  0  1  0  0  0  0  0  0  0  0  0
    4.2180    8.3260  -10.7400 O   0  0  0  0  0  0  0  0  0  0  0  0
    3.2670    6.8660  -11.6540 N   0  0  0  0  0  0  0  0  0  0  0  0
    3.6850    9.2630  -12.8230 C   0  0  0  0  0  0  0  0  0  0  0  0
    3.0160   10.4880  -13.0950 C   0  0  0  0  0  0  0  0  0  0  0  0
    4.7650    8.9370  -13.6770 C   0  0  0  0  0  0  0  0  0  0  0  0
    2.8880    6.3270  -10.4240 C   0  0  0  0  0  0  0  0  0  0  0  0
    3.4060   11.3250  -14.1520 C   0  0  0  0  0  0  0  0  0  0  0  0
    5.1480    9.7770  -14.7330 C   0  0  0  0  0  0  0  0  0  0  0  0
    3.7300    5.7740   -9.5660 N   0  0  0  0  0  0  0  0  0  0  0  0
    1.2520    6.3270   -9.8300 S   0  0  0  0  0  0  0  0  0  0  0  0
    4.4680   10.9710  -14.9710 C   0  0  0  0  0  0  0  0  0  0  0  0
    1.7240    5.5640   -8.3750 C   0  0  0  0  0  0  0  0  0  0  0  0
    3.0770    5.3430   -8.4160 C   0  0  0  0  0  0  0  0  0  0  0  0
  1  2  1  0
  2  3  1  0
  1  4  1  0
  2  5  2  0
  4  6  2  0
  4  7  1  0
  6  8  1  0
  7  9  2  0
  8 10  2  0
  9 10  1  0
 10 11  1  0
 11 12  1  1
 11 13  1  0
 11 14  1  0
 14 15  2  0
 14 16  1  0
 13 17  1  0
 15 18  1  0
 16 19  2  0
 17 20  2  0
 17 21  1  0
 18 22  2  0
 19 22  1  0
 21 23  1  0
 20 24  1  0
 23 24  2  0
M  CHG  2  11   1  12  -1
M  END
