diamond-x0967_0_A-diamond-x0685_1_A
     RDKit          3D

 25 27  0  0  0  0  0  0  0  0999 V2000
   -1.3540   10.6200   -4.8260 N   0  0  0  0  0  0  0  0  0  0  0  0
   -1.4770   12.0500   -4.4560 C   0  0  0  0  0  0  0  0  0  0  0  0
   -0.1290   12.6830   -4.1020 C   0  0  0  0  0  0  0  0  0  0  0  0
   -0.7190   10.3630   -6.1360 C   0  0  0  0  0  0  0  0  0  0  0  0
   -0.5230    8.8590   -6.4110 C   0  0  0  0  0  0  0  0  0  0  0  0
   -1.5920   11.0150   -7.2340 C   0  0  0  0  0  0  0  0  0  0  0  0
    0.5860   12.0860   -2.5660 S   0  0  0  0  0  0  0  0  0  0  0  0
    0.0960    8.6150   -7.7770 C   0  0  0  0  0  0  0  0  0  0  0  0
   -1.0310   10.7490   -8.6320 C   0  0  0  0  0  0  0  0  0  0  0  0
    2.1570   12.3690   -2.7480 O   0  0  0  0  0  0  0  0  0  0  0  0
    0.2710   10.5070   -2.4870 O   0  0  0  0  0  0  0  0  0  0  0  0
   -0.0600   12.8840   -1.3050 O   0  0  0  0  0  0  0  0  0  0  0  0
   -0.7660    9.2570   -8.8720 C   0  0  0  0  0  0  0  0  0  0  0  0
   -0.6110   14.2010   -1.5380 C   0  0  0  0  0  0  0  0  0  0  0  0
   -1.3190   14.8040   -0.2970 C   0  0  0  0  0  0  0  0  0  0  0  0
   -2.8400   14.8060   -0.3830 C   0  0  0  0  0  0  0  0  0  0  0  0
   -3.5170   14.8390   -1.5990 C   0  0  0  0  0  0  0  0  0  0  0  0
   -3.6470   14.7650    0.7610 C   0  0  0  0  0  0  0  0  0  0  0  0
   -5.0510   14.7450    0.6300 C   0  0  0  0  0  0  0  0  0  0  0  0
   -4.8660   14.8240   -1.7370 N   0  0  0  0  0  0  0  0  0  0  0  0
   -5.6330   14.7700   -0.6480 C   0  0  0  0  0  0  0  0  0  0  0  0
   -5.8950   14.6940    1.7420 C   0  0  0  0  0  0  0  0  0  0  0  0
   -6.9640   14.7360   -0.8000 N   0  0  0  0  0  0  0  0  0  0  0  0
   -7.2710   14.6550    1.5800 C   0  0  0  0  0  0  0  0  0  0  0  0
   -7.7540   14.6780    0.2890 C   0  0  0  0  0  0  0  0  0  0  0  0
  1  2  1  0
  2  3  1  0
  1  4  1  0
  4  5  1  0
  4  6  1  0
  3  7  1  0
  5  8  1  0
  6  9  1  0
  7 10  1  0
  7 11  1  0
  7 12  1  0
  8 13  1  0
  9 13  1  0
 12 14  1  0
 14 15  1  0
 15 16  1  0
 16 17  2  0
 16 18  1  0
 18 19  2  0
 17 20  1  0
 19 21  1  0
 20 21  2  0
 19 22  1  0
 21 23  1  0
 22 24  2  0
 23 25  2  0
 24 25  1  0
M  END
