diamond-x0895_0_A-mac-x1493
     RDKit          3D

 19 21  0  0  0  0  0  0  0  0999 V2000
   -1.5620   14.4820    2.1370 O   0  0  0  0  0  0  0  0  0  0  0  0
   -2.4940   14.9260    1.5140 C   0  0  0  0  0  0  0  0  0  0  0  0
   -3.8860   15.4430    1.9720 C   0  0  0  0  0  0  0  0  0  0  0  0
   -2.5070   15.1010    0.1610 N   0  0  0  0  0  0  0  0  0  0  0  0
   -4.1360   16.3430    0.8710 N   0  0  0  0  0  0  0  0  0  0  0  0
   -3.7340   15.5720   -0.1390 C   0  0  0  0  0  0  0  0  0  0  0  0
   -4.3670   15.2380   -1.2000 C   0  0  0  0  0  0  0  0  0  0  0  0
   -3.6660   14.3020   -1.8610 C   0  0  0  0  0  0  0  0  0  0  0  0
   -5.6390   15.6580   -1.3490 N   0  0  0  0  0  0  0  0  0  0  0  0
   -2.5620   14.4140   -2.8450 C   0  0  0  0  0  0  0  0  0  0  0  0
   -4.1770   13.2110   -1.2760 C   0  0  0  0  0  0  0  0  0  0  0  0
   -6.1770   14.6920   -0.7040 C   0  0  0  0  0  0  0  0  0  0  0  0
   -1.3460   14.3090   -2.2730 O   0  0  0  0  0  0  0  0  0  0  0  0
   -2.6630   14.6050   -4.0420 O   0  0  0  0  0  0  0  0  0  0  0  0
   -5.3470   13.4720   -0.2520 C   0  0  2  0  0  0  0  0  0  0  0  0
   -7.5560   14.6870   -0.2520 C   0  0  0  0  0  0  0  0  0  0  0  0
   -7.5780   14.4930    1.0860 C   0  0  0  0  0  0  0  0  0  0  0  0
   -5.2060   13.8010    1.2060 C   0  0  0  0  0  0  0  0  0  0  0  0
   -6.3200   14.3130    1.8290 C   0  0  0  0  0  0  0  0  0  0  0  0
  1  2  2  0
  2  3  1  0
  2  4  1  0
  3  5  1  0
  4  6  1  0
  5  6  1  0
  6  7  2  3
  7  8  1  0
  7  9  1  0
  8 10  1  0
  8 11  2  0
  9 12  2  0
 10 13  1  0
 10 14  2  0
 15 11  1  6
 12 15  1  0
 12 16  1  0
 16 17  2  0
 15 18  1  0
 17 19  1  0
 18 19  2  0
M  END
