diamond-x0574_0_A-mac-x0565
     RDKit          3D

 23 26  0  0  0  0  0  0  0  0999 V2000
    0.2480   13.9970    2.2930 N   0  0  0  0  0  0  0  0  0  0  0  0
   -0.7420   14.4330    1.5850 C   0  0  0  0  0  0  0  0  0  0  0  0
   -1.9030   14.2070    2.0070 N   0  0  0  0  0  0  0  0  0  0  0  0
   -0.5740   15.2990    0.1280 S   0  0  0  0  0  0  0  0  0  0  0  0
   -2.8020   14.6990    1.1610 C   0  0  0  0  0  0  0  0  0  0  0  0
   -2.2820   15.3510    0.0600 C   0  0  0  0  0  0  0  0  0  0  0  0
   -4.1590   14.5740    1.3390 C   0  0  0  0  0  0  0  0  0  0  0  0
   -3.1140   15.9130   -0.8860 C   0  0  0  0  0  0  0  0  0  0  0  0
   -5.0070   15.0990    0.4150 C   0  0  0  0  0  0  0  0  0  0  0  0
   -4.4810   15.7710   -0.6780 C   0  0  0  0  0  0  0  0  0  0  0  0
   -6.3870   14.9670    0.4860 N   0  0  0  0  0  0  0  0  0  0  0  0
   -6.9660   14.3730    1.7030 C   0  0  0  0  0  0  0  0  0  0  0  0
   -6.6790   14.5220   -0.8000 C   0  0  0  0  0  0  0  0  0  0  0  0
   -7.7570   14.1440   -1.2240 O   0  0  0  0  0  0  0  0  0  0  0  0
   -5.4740   14.5570   -1.7440 C   0  0  0  0  0  0  0  0  0  0  0  0
   -4.1390   14.3590   -1.2870 C   0  0  0  0  0  0  0  0  0  0  0  0
   -5.6790   14.8030   -3.1100 C   0  0  0  0  0  0  0  0  0  0  0  0
   -3.0890   14.4420   -2.2110 C   0  0  0  0  0  0  0  0  0  0  0  0
   -4.5960   14.8680   -4.0090 C   0  0  0  0  0  0  0  0  0  0  0  0
   -3.3220   14.6930   -3.5320 C   0  0  0  0  0  0  0  0  0  0  0  0
   -1.7460   14.3000   -1.9680 O   0  0  0  0  0  0  0  0  0  0  0  0
   -2.1710   14.7440   -4.2660 O   0  0  0  0  0  0  0  0  0  0  0  0
   -1.2110   14.8370   -3.1950 C   0  0  0  0  0  0  0  0  0  0  0  0
  1  2  1  0
  2  3  2  0
  2  4  1  0
  3  5  1  0
  4  6  1  0
  5  6  2  0
  5  7  1  0
  6  8  1  0
  7  9  2  0
  8 10  2  0
  9 10  1  0
  9 11  1  0
 11 12  1  0
 11 13  1  0
 13 14  2  0
 13 15  1  0
 15 16  2  0
 15 17  1  0
 16 18  1  0
 17 19  2  0
 18 20  2  0
 19 20  1  0
 18 21  1  0
 20 22  1  0
 21 23  1  0
 22 23  1  0
M  END
