diamond-x0844_0_A-mac-x0124
     RDKit          3D

 18 20  0  0  0  0  0  0  0  0999 V2000
   -7.8700   15.6060   -0.4010 O   0  0  0  0  0  0  0  0  0  0  0  0
   -6.6770   15.3490   -0.5280 C   0  0  0  0  0  0  0  0  0  0  0  0
   -6.0070   14.6820    0.4310 N   0  0  0  0  0  0  0  0  0  0  0  0
   -5.8430   15.6850   -1.7420 C   0  0  0  0  0  0  0  0  0  0  0  0
   -5.7060   13.4690    0.0020 C   0  0  0  0  0  0  0  0  0  0  0  0
   -4.9260   14.5350   -2.1790 C   0  0  2  0  0  0  0  0  0  0  0  0
   -5.2270   13.3590   -1.2530 C   0  0  0  0  0  0  0  0  0  0  0  0
   -3.5510   14.7020   -1.7140 C   0  0  0  0  0  0  0  0  0  0  0  0
   -2.1970   14.8370   -2.1380 N   0  0  0  0  0  0  0  0  0  0  0  0
   -3.5850   14.7110   -0.4110 C   0  0  0  0  0  0  0  0  0  0  0  0
   -1.5870   14.8990   -3.4580 C   0  0  0  0  0  0  0  0  0  0  0  0
   -2.3790   14.8190    0.0680 C   0  0  0  0  0  0  0  0  0  0  0  0
   -1.4760   14.9020   -0.9570 C   0  0  0  0  0  0  0  0  0  0  0  0
   -2.0330   14.8480    1.3350 C   0  0  0  0  0  0  0  0  0  0  0  0
   -0.1710   15.0270   -0.7640 N   0  0  0  0  0  0  0  0  0  0  0  0
   -3.0070   14.7680    2.3050 N   0  0  0  0  0  0  0  0  0  0  0  0
   -0.7800   14.9550    1.6120 N   0  0  0  0  0  0  0  0  0  0  0  0
    0.0710   15.0550    0.5650 C   0  0  0  0  0  0  0  0  0  0  0  0
  1  2  2  0
  2  3  1  0
  2  4  1  0
  3  5  1  0
  4  6  1  0
  5  7  2  0
  6  7  1  0
  6  8  1  1
  8  9  1  0
  8 10  2  0
  9 11  1  0
 10 12  1  0
  9 13  1  0
 12 13  2  0
 12 14  1  0
 13 15  1  0
 14 16  1  0
 14 17  2  0
 15 18  2  0
 17 18  1  0
M  END
