diamond-x0967_0_A-mac-x0231
     RDKit          3D

 26 29  0  0  0  0  0  0  0  0999 V2000
    0.8980   10.6690   -3.1850 O   0  0  0  0  0  0  0  0  0  0  0  0
    1.4320   11.9010   -3.1710 C   0  0  0  0  0  0  0  0  0  0  0  0
    1.5300   12.4920   -2.1100 O   0  0  0  0  0  0  0  0  0  0  0  0
    1.8300   12.4380   -4.5120 C   0  0  0  0  0  0  0  0  0  0  0  0
    1.3350   13.8540   -4.5250 C   0  0  0  0  0  0  0  0  0  0  0  0
   -0.0990   14.0670   -4.4410 C   0  0  0  0  0  0  0  0  0  0  0  0
    2.1770   14.8210   -4.5090 N   0  0  0  0  0  0  0  0  0  0  0  0
   -0.5590   15.3740   -4.4280 C   0  0  0  0  0  0  0  0  0  0  0  0
    1.7070   16.0980   -4.4600 N   0  0  0  0  0  0  0  0  0  0  0  0
   -0.9730   12.9890   -4.3420 C   0  0  0  0  0  0  0  0  0  0  0  0
    0.4030   16.4770   -4.5600 C   0  0  0  0  0  0  0  0  0  0  0  0
   -1.9100   15.6150   -4.2690 C   0  0  0  0  0  0  0  0  0  0  0  0
   -2.3180   13.2270   -4.1820 C   0  0  0  0  0  0  0  0  0  0  0  0
    0.0550   17.6360   -4.7460 O   0  0  0  0  0  0  0  0  0  0  0  0
   -2.7710   14.5310   -4.1230 C   0  0  0  0  0  0  0  0  0  0  0  0
   -4.1920   14.7730   -3.8660 C   0  0  0  0  0  0  0  0  0  0  0  0
   -4.4450   14.8390   -2.3470 C   0  0  0  0  0  0  0  0  0  0  0  0
   -5.7260   14.6680   -1.9960 N   0  0  0  0  0  0  0  0  0  0  0  0
   -3.4430   15.0450   -1.3730 C   0  0  0  0  0  0  0  0  0  0  0  0
   -6.0940   14.6730   -0.7260 C   0  0  0  0  0  0  0  0  0  0  0  0
   -3.8180   15.0550   -0.0230 C   0  0  0  0  0  0  0  0  0  0  0  0
   -7.3870   14.4890   -0.4770 N   0  0  0  0  0  0  0  0  0  0  0  0
   -5.1650   14.8600    0.3140 C   0  0  0  0  0  0  0  0  0  0  0  0
   -5.6320   14.8410    1.6360 C   0  0  0  0  0  0  0  0  0  0  0  0
   -7.8150   14.4720    0.7960 C   0  0  0  0  0  0  0  0  0  0  0  0
   -6.9870   14.6400    1.8840 C   0  0  0  0  0  0  0  0  0  0  0  0
  1  2  1  0
  2  3  2  0
  2  4  1  0
  4  5  1  0
  5  6  1  0
  5  7  2  0
  6  8  2  0
  7  9  1  0
  6 10  1  0
  8 11  1  0
  9 11  1  0
  8 12  1  0
 10 13  2  0
 11 14  2  0
 12 15  2  0
 13 15  1  0
 15 16  1  0
 16 17  1  0
 17 18  2  0
 17 19  1  0
 18 20  1  0
 19 21  2  0
 20 22  2  0
 20 23  1  0
 21 23  1  0
 23 24  2  0
 22 25  1  0
 24 26  1  0
 25 26  2  0
M  END
