diamond-x0631_0_A-mac-x0357
     RDKit          3D

 27 29  0  0  0  0  0  0  0  0999 V2000
   -2.4680    9.2240   -7.5600 C   0  0  0  0  0  0  0  0  0  0  0  0
   -1.3750    8.1690   -7.5030 C   0  0  0  0  0  0  0  0  0  0  0  0
   -0.0510    8.6910   -6.9280 C   0  0  0  0  0  0  0  0  0  0  0  0
    0.7840    9.4370   -7.8970 N   0  0  0  0  0  0  0  0  0  0  0  0
    0.6420   10.8680   -7.8810 N   0  0  0  0  0  0  0  0  0  0  0  0
    0.5570    9.0590   -9.2590 N   0  0  0  0  0  0  0  0  0  0  0  0
    1.4610   11.5980   -6.9270 O   0  0  0  0  0  0  0  0  0  0  0  0
    0.8370   11.3230   -9.2300 N   0  0  0  0  0  0  0  0  0  0  0  0
    1.2770   10.1230   -9.9210 C   0  0  2  0  0  0  0  0  0  0  0  0
    1.0000   10.1200  -11.3110 N   0  0  0  0  0  0  0  0  0  0  0  0
    0.5840   11.8130   -5.9210 C   0  0  0  0  0  0  0  0  0  0  0  0
    2.0070    9.3770  -12.0490 C   0  0  2  0  0  0  0  0  0  0  0  0
    0.9830   12.5330   -4.7790 C   0  0  0  0  0  0  0  0  0  0  0  0
   -0.7100   11.3020   -6.0460 C   0  0  0  0  0  0  0  0  0  0  0  0
    2.7090    8.5050  -11.1580 O   0  0  0  0  0  0  0  0  0  0  0  0
    2.3830   13.0840   -4.6490 C   0  0  0  0  0  0  0  0  0  0  0  0
    3.0740   10.1320  -12.8930 C   0  0  1  0  0  0  0  0  0  0  0  0
    0.0060   12.7070   -3.7720 C   0  0  0  0  0  0  0  0  0  0  0  0
   -1.6440   11.4800   -5.0540 C   0  0  0  0  0  0  0  0  0  0  0  0
    0.2200   13.4280   -2.5050 C   0  0  0  0  0  0  0  0  0  0  0  0
    3.3960    9.3910  -14.0740 O   0  0  0  0  0  0  0  0  0  0  0  0
    2.6910   11.5020  -13.4200 C   0  0  0  0  0  0  0  0  0  0  0  0
   -1.2880   12.1810   -3.9190 C   0  0  0  0  0  0  0  0  0  0  0  0
   -0.3490   14.4440   -2.1580 O   0  0  0  0  0  0  0  0  0  0  0  0
    1.1330   12.8400   -1.7250 O   0  0  0  0  0  0  0  0  0  0  0  0
    3.6120   11.6740  -14.6110 C   0  0  0  0  0  0  0  0  0  0  0  0
    4.2350   10.3000  -14.7910 C   0  0  0  0  0  0  0  0  0  0  0  0
  1  2  1  0
  2  3  1  0
  3  4  1  0
  4  5  1  0
  4  6  1  0
  5  7  1  0
  5  8  1  0
  6  9  1  0
  8  9  1  0
  9 10  1  6
  7 11  1  0
 10 12  1  0
 11 13  2  0
 11 14  1  0
 12 15  1  1
 13 16  1  0
 12 17  1  0
 13 18  1  0
 14 19  2  0
 18 20  1  0
 17 21  1  0
 17 22  1  6
 18 23  2  0
 19 23  1  0
 20 24  2  0
 20 25  1  0
 22 26  1  0
 21 27  1  0
 26 27  1  0
M  END
