diamond-x0950_0_A-mac-x0402
     RDKit          3D

 19 20  0  0  0  0  0  0  0  0999 V2000
    3.1150   12.4070   -4.2790 C   0  0  0  0  0  0  0  0  0  0  0  0
    1.6430   12.7780   -4.2250 C   0  0  1  0  0  0  0  0  0  0  0  0
    1.0210   12.3020   -5.4230 O   0  0  0  0  0  0  0  0  0  0  0  0
    0.9300   12.1970   -2.9920 C   0  0  0  0  0  0  0  0  0  0  0  0
    0.4830   11.0520   -2.9710 O   0  0  0  0  0  0  0  0  0  0  0  0
    0.8710   13.0760   -1.9490 O   0  0  0  0  0  0  0  0  0  0  0  0
    0.0520   14.2630   -2.1200 C   0  0  0  0  0  0  0  0  0  0  0  0
   -0.6690   14.2380   -3.4720 C   0  0  0  0  0  0  0  0  0  0  0  0
   -1.9810   15.0510   -3.6070 C   0  0  0  0  0  0  0  0  0  0  0  0
   -3.0680   15.0430   -2.5230 C   0  0  0  0  0  0  0  0  0  0  0  0
   -4.3910   15.0190   -2.9530 C   0  0  0  0  0  0  0  0  0  0  0  0
   -2.8090   15.0570   -1.1320 C   0  0  0  0  0  0  0  0  0  0  0  0
   -3.9020   15.0460   -0.2390 C   0  0  0  0  0  0  0  0  0  0  0  0
   -5.4560   15.0050   -2.0610 C   0  0  0  0  0  0  0  0  0  0  0  0
   -5.2140   15.0160   -0.6890 C   0  0  0  0  0  0  0  0  0  0  0  0
   -3.9240   15.0680    1.4710 S   0  0  0  0  0  0  0  0  0  0  0  0
   -5.6510   15.0200    1.4490 C   0  0  0  0  0  0  0  0  0  0  0  0
   -6.1890   14.9960    0.2730 N   0  0  0  0  0  0  0  0  0  0  0  0
   -6.4060   15.0140    2.5600 N   0  0  0  0  0  0  0  0  0  0  0  0
  2  1  1  6
  2  3  1  0
  2  4  1  0
  4  5  2  0
  4  6  1  0
  6  7  1  0
  7  8  1  0
  8  9  1  0
  9 10  1  0
 10 11  2  0
 10 12  1  0
 12 13  2  0
 11 14  1  0
 13 15  1  0
 14 15  2  0
 13 16  1  0
 16 17  1  0
 15 18  1  0
 17 18  2  0
 17 19  1  0
M  END
