diamond-x0626_0_A-diamond-x0895_1_A
     RDKit          3D

 11 11  0  0  0  0  0  0  0  0999 V2000
   -4.8990   14.8790    1.3990 N   0  0  0  0  0  0  0  0  0  0  0  0
   -6.0290   14.7080    0.6210 C   0  0  0  0  0  0  0  0  0  0  0  0
   -6.1320   14.8200   -0.5950 O   0  0  0  0  0  0  0  0  0  0  0  0
   -3.6380   14.8010    0.8840 C   0  0  0  0  0  0  0  0  0  0  0  0
   -7.2170   14.3450    1.5000 C   0  0  0  0  0  0  0  0  0  0  0  0
   -2.4890   14.6680    1.5160 N   0  0  0  0  0  0  0  0  0  0  0  0
   -3.5640   14.8840   -0.8210 S   0  0  0  0  0  0  0  0  0  0  0  0
   -8.5540   14.6570    0.8450 C   0  0  0  0  0  0  0  0  0  0  0  0
   -1.8600   14.7180   -0.7250 C   0  0  0  0  0  0  0  0  0  0  0  0
   -1.4720   14.6150    0.5970 C   0  0  0  0  0  0  0  0  0  0  0  0
   -0.0970   14.4550    1.0990 C   0  0  0  0  0  0  0  0  0  0  0  0
  1  2  1  0
  2  3  2  0
  1  4  1  0
  2  5  1  0
  4  6  2  0
  4  7  1  0
  5  8  1  0
  7  9  1  0
  6 10  1  0
  9 10  2  0
 10 11  1  0
M  END
