diamond-x0574_0_A-mac-x0131
     RDKit          3D

 25 28  0  0  0  0  0  0  0  0999 V2000
    0.1360   15.3400    0.7270 N   0  0  0  0  0  0  0  0  0  0  0  0
   -1.2350   15.0460    0.3740 C   0  0  2  0  0  0  0  0  0  0  0  0
   -1.5860   13.7960    1.0260 N   0  0  0  0  0  0  0  0  0  0  0  0
   -1.6610   14.6080   -1.0500 S   0  0  0  0  0  0  0  0  0  0  0  0
   -0.7290   13.7810    2.0700 N   0  0  0  0  0  0  0  0  0  0  0  0
   -2.9400   14.2510    1.2670 C   0  0  1  0  0  0  0  0  0  0  0  0
   -2.8580   15.1660    0.0860 C   0  0  2  0  0  0  0  0  0  0  0  0
   -3.4900   14.8040   -0.9130 C   0  0  0  0  0  0  0  0  0  0  0  0
   -1.9000   14.1190   -2.4670 N   0  0  0  0  0  0  0  0  0  0  0  0
   -0.7570   14.2980   -3.3280 C   0  0  0  0  0  0  0  0  0  0  0  0
   -4.0740   13.3440    1.2580 C   0  0  0  0  0  0  0  0  0  0  0  0
   -4.1930   15.3030   -0.6350 C   0  0  0  0  0  0  0  0  0  0  0  0
   -3.0680   14.3860   -3.2140 C   0  0  1  0  0  0  0  0  0  0  0  0
   -4.1210   14.3280   -2.1670 C   0  0  2  0  0  0  0  0  0  0  0  0
   -3.1430   15.5450   -4.1190 C   0  0  0  0  0  0  0  0  0  0  0  0
   -5.3600   15.0350   -2.6230 C   0  0  0  0  0  0  0  0  0  0  0  0
   -5.4210   14.0040    1.0340 C   0  0  2  0  0  0  0  0  0  0  0  0
   -5.3600   14.7890   -0.2290 C   0  0  0  0  0  0  0  0  0  0  0  0
   -0.4330   13.1060   -4.0670 C   0  0  0  0  0  0  0  0  0  0  0  0
   -5.7760   14.9550    1.9760 O   0  0  0  0  0  0  0  0  0  0  0  0
    0.5890   13.0420   -4.9930 C   0  0  0  0  0  0  0  0  0  0  0  0
   -1.0190   11.9780   -3.9820 O   0  0  0  0  0  0  0  0  0  0  0  0
   -6.8930   14.5230    2.6980 C   0  0  0  0  0  0  0  0  0  0  0  0
   -0.4650   11.1350   -4.7980 C   0  0  0  0  0  0  0  0  0  0  0  0
    0.5570   11.7560   -5.4630 C   0  0  0  0  0  0  0  0  0  0  0  0
  2  1  1  6
  2  3  1  0
  2  4  1  0
  3  5  1  0
  3  6  1  0
  4  7  1  0
  6  7  1  0
  4  8  2  0
  4  9  1  0
  9 10  1  0
  6 11  1  6
  7 12  1  6
  9 13  1  0
  8 14  1  0
 13 14  1  0
 13 15  1  1
 14 16  1  6
 11 17  1  0
 12 18  2  0
 17 18  1  0
 10 19  1  0
 17 20  1  1
 19 21  2  0
 19 22  1  0
 20 23  1  0
 22 24  1  0
 21 25  1  0
 24 25  2  0
M  END
