diamond-x0628_0_A-mac-x0159
     RDKit          3D

 30 33  0  0  0  0  0  0  0  0999 V2000
   -0.6450    9.2150   -7.5280 C   0  0  0  0  0  0  0  0  0  0  0  0
   -0.8160   10.3000   -6.5460 C   0  0  0  0  0  0  0  0  0  0  0  0
   -1.9400   10.4290   -5.7860 N   0  0  0  0  0  0  0  0  0  0  0  0
    0.1160   11.2330   -6.3260 N   0  0  0  0  0  0  0  0  0  0  0  0
   -0.4580   11.9910   -5.3590 N   0  0  0  0  0  0  0  0  0  0  0  0
   -1.7040   11.4910   -5.0460 C   0  0  0  0  0  0  0  0  0  0  0  0
   -2.6420   12.0330   -4.0430 C   0  0  0  0  0  0  0  0  0  0  0  0
    0.2670   13.1460   -4.8080 C   0  0  2  0  0  0  0  0  0  0  0  0
    1.6760   12.7980   -4.4350 C   0  0  0  0  0  0  0  0  0  0  0  0
   -0.3120   13.6140   -3.4530 C   0  0  0  0  0  0  0  0  0  0  0  0
    1.5090   12.1340   -3.1000 C   0  0  0  0  0  0  0  0  0  0  0  0
   -1.2740   14.7840   -3.5560 C   0  0  1  0  0  0  0  0  0  0  0  0
    0.8520   11.1300   -2.8720 O   0  0  0  0  0  0  0  0  0  0  0  0
    2.1400   12.7790   -2.1180 O   0  0  0  0  0  0  0  0  0  0  0  0
   -1.9660   15.0460   -2.2630 N   0  0  0  0  0  0  0  0  0  0  0  0
   -0.6350   15.9840   -4.2370 C   0  0  0  0  0  0  0  0  0  0  0  0
   -3.4210   15.0830   -2.4470 C   0  0  0  0  0  0  0  0  0  0  0  0
   -1.4510   14.3300   -1.0820 C   0  0  2  0  0  0  0  0  0  0  0  0
    0.6890   16.3960   -4.1710 C   0  0  0  0  0  0  0  0  0  0  0  0
   -1.4460   16.7900   -5.0320 N   0  0  0  0  0  0  0  0  0  0  0  0
   -4.1830   14.7900   -1.2420 N   0  0  0  0  0  0  0  0  0  0  0  0
   -2.2320   14.4850    0.2490 C   0  0  2  0  0  0  0  0  0  0  0  0
   -0.1410   14.8830   -0.7320 N   0  0  0  0  0  0  0  0  0  0  0  0
   -0.7500   17.7730   -5.5440 C   0  0  0  0  0  0  0  0  0  0  0  0
    0.9050   17.8100   -5.1160 S   0  0  0  0  0  0  0  0  0  0  0  0
   -1.3100   18.8170   -6.4450 C   0  0  0  0  0  0  0  0  0  0  0  0
   -3.5550   15.2150   -0.0270 C   0  0  2  0  0  0  0  0  0  0  0  0
   -1.3500   15.1980    1.1840 N   0  0  0  0  0  0  0  0  0  0  0  0
   -0.0360   14.8480    0.7040 C   0  0  0  0  0  0  0  0  0  0  0  0
   -4.5350   14.9780    1.0110 N   0  0  0  0  0  0  0  0  0  0  0  0
  1  2  1  0
  2  3  1  0
  2  4  2  0
  4  5  1  0
  3  6  2  0
  5  6  1  0
  6  7  1  0
  5  8  1  0
  8  9  1  1
  8 10  1  0
  9 11  1  0
 12 10  1  1
 11 13  2  0
 11 14  1  0
 12 15  1  0
 12 16  1  0
 15 17  1  0
 15 18  1  0
 16 19  2  0
 16 20  1  0
 17 21  1  0
 18 22  1  0
 18 23  1  1
 20 24  2  0
 19 25  1  0
 24 25  1  0
 24 26  1  0
 21 27  1  0
 22 27  1  0
 22 28  1  1
 23 29  1  0
 28 29  1  0
 27 30  1  1
M  END
