diamond-x0574_0_A-mac-x0321
     RDKit          3D

 15 16  0  0  0  0  0  0  0  0999 V2000
    0.1980   14.0130    2.2710 N   0  0  0  0  0  0  0  0  0  0  0  0
   -0.8410   14.2300    1.5150 C   0  0  0  0  0  0  0  0  0  0  0  0
   -1.9970   14.3570    2.0400 N   0  0  0  0  0  0  0  0  0  0  0  0
   -0.7390   14.3510   -0.1700 S   0  0  0  0  0  0  0  0  0  0  0  0
   -2.9320   14.5420    1.0860 C   0  0  0  0  0  0  0  0  0  0  0  0
   -2.4480   14.5720   -0.2090 C   0  0  0  0  0  0  0  0  0  0  0  0
   -4.2900   14.6880    1.3400 C   0  0  0  0  0  0  0  0  0  0  0  0
   -3.2880   14.7530   -1.2890 C   0  0  0  0  0  0  0  0  0  0  0  0
   -2.5990   14.7550   -2.6080 C   0  0  0  0  0  0  0  0  0  0  0  0
   -5.1730   14.8620    0.2940 C   0  0  0  0  0  0  0  0  0  0  0  0
   -4.6860   14.9020   -1.0330 C   0  0  0  0  0  0  0  0  0  0  0  0
   -6.5170   14.9880    0.5040 O   0  0  0  0  0  0  0  0  0  0  0  0
   -1.2560   14.6600   -2.4440 O   0  0  0  0  0  0  0  0  0  0  0  0
   -3.1170   14.8180   -3.7010 O   0  0  0  0  0  0  0  0  0  0  0  0
   -6.9510   14.5700    1.8100 C   0  0  0  0  0  0  0  0  0  0  0  0
  1  2  1  0
  2  3  2  0
  2  4  1  0
  3  5  1  0
  4  6  1  0
  5  6  2  0
  5  7  1  0
  6  8  1  0
  8  9  1  0
  7 10  2  0
  8 11  2  0
 10 11  1  0
 10 12  1  0
  9 13  1  0
  9 14  2  0
 12 15  1  0
M  END
