diamond-x0926_0_A-mac-x0333
     RDKit          3D

 11 12  0  0  0  0  0  0  0  0999 V2000
   -6.5300   16.1430   -1.1840 O   0  0  0  0  0  0  0  0  0  0  0  0
   -5.6130   15.1440   -0.8180 C   0  0  2  0  0  0  0  0  0  0  0  0
   -4.9850   15.4990    0.5470 C   0  0  2  0  0  0  0  0  0  0  0  0
   -4.6740   14.9310   -1.9140 N   0  0  0  0  0  0  0  0  0  0  0  0
   -6.4180   14.0170   -0.5720 O   0  0  0  0  0  0  0  0  0  0  0  0
   -3.3280   15.1900   -1.5560 N   0  0  0  0  0  0  0  0  0  0  0  0
   -3.6320   14.9440    0.7870 C   0  0  0  0  0  0  0  0  0  0  0  0
   -5.9350   15.0100    1.5060 O   0  0  0  0  0  0  0  0  0  0  0  0
   -6.9060   14.2940    0.7360 C   0  0  0  0  0  0  0  0  0  0  0  0
   -2.4400   15.0960   -2.6120 O   0  0  0  0  0  0  0  0  0  0  0  0
   -2.8790   14.8270   -0.2950 C   0  0  0  0  0  0  0  0  0  0  0  0
  2  1  1  6
  2  3  1  0
  2  4  1  0
  2  5  1  0
  4  6  1  0
  3  7  1  1
  3  8  1  0
  5  9  1  0
  8  9  1  0
  6 10  1  0
  6 11  1  0
  7 11  2  0
M  END
