diamond-x0626_0_A-diamond-x0128_0_A
     RDKit          3D

 25 27  0  0  0  0  0  0  0  0999 V2000
   -4.6970   13.1290    1.6280 N   0  0  0  0  0  0  0  0  0  0  0  0
   -5.9970   13.2850    1.2400 C   0  0  0  0  0  0  0  0  0  0  0  0
   -6.5590   12.4180    0.5790 O   0  0  0  0  0  0  0  0  0  0  0  0
   -3.5410   13.6300    1.0390 C   0  0  0  0  0  0  0  0  0  0  0  0
   -6.6580   14.5910    1.5300 C   0  0  2  0  0  0  0  0  0  0  0  0
   -2.4440   14.1460    1.5930 N   0  0  0  0  0  0  0  0  0  0  0  0
   -3.5310   13.5490   -0.6720 S   0  0  0  0  0  0  0  0  0  0  0  0
   -8.0380   14.6460    2.0480 C   0  0  0  0  0  0  0  0  0  0  0  0
   -1.9590   14.2330   -0.6930 C   0  0  0  0  0  0  0  0  0  0  0  0
   -1.5360   14.4790    0.5940 C   0  0  0  0  0  0  0  0  0  0  0  0
   -6.0640   15.0290    0.3120 C   0  0  0  0  0  0  0  0  0  0  0  0
   -0.2230   15.0420    0.9630 C   0  0  0  0  0  0  0  0  0  0  0  0
   -8.1270   14.9400    3.3440 C   0  0  0  0  0  0  0  0  0  0  0  0
   -6.5260   15.0780   -0.9870 C   0  0  0  0  0  0  0  0  0  0  0  0
   -4.8120   15.3820    0.6770 C   0  0  0  0  0  0  0  0  0  0  0  0
   -9.1490   15.0770    4.1960 N   0  0  0  0  0  0  0  0  0  0  0  0
   -5.6190   15.4950   -1.9360 C   0  0  0  0  0  0  0  0  0  0  0  0
   -3.9410   15.7820   -0.2240 C   0  0  0  0  0  0  0  0  0  0  0  0
   -9.3630   16.0380    5.1770 C   0  0  0  0  0  0  0  0  0  0  0  0
   -4.3180   15.8430   -1.5520 C   0  0  0  0  0  0  0  0  0  0  0  0
   -9.7840   17.3310    4.9170 C   0  0  0  0  0  0  0  0  0  0  0  0
   -9.1600   15.7010    6.5190 C   0  0  0  0  0  0  0  0  0  0  0  0
  -10.0220   18.2680    5.8550 N   0  0  0  0  0  0  0  0  0  0  0  0
   -9.3930   16.6430    7.5150 C   0  0  0  0  0  0  0  0  0  0  0  0
   -9.8220   17.9000    7.1330 C   0  0  0  0  0  0  0  0  0  0  0  0
  1  2  1  0
  2  3  2  0
  1  4  1  0
  2  5  1  0
  4  6  2  0
  4  7  1  0
  5  8  1  6
  7  9  1  0
  6 10  1  0
  9 10  2  0
  5 11  1  0
 10 12  1  0
  8 13  2  3
 11 14  2  0
 11 15  1  0
 13 16  1  0
 14 17  1  0
 15 18  2  0
 16 19  1  0
 17 20  2  0
 18 20  1  0
 19 21  2  0
 19 22  1  0
 21 23  1  0
 22 24  2  0
 23 25  2  0
 24 25  1  0
M  END
