diamond-x0290_0_A-mac-x0572
     RDKit          3D

 24 26  0  0  0  0  0  0  0  0999 V2000
   -6.8480   12.6720    1.5380 N   0  0  0  0  0  0  0  0  0  0  0  0
   -5.6290   13.0720    2.2820 C   0  0  0  0  0  0  0  0  0  0  0  0
   -4.4710   13.3060    1.2940 C   0  0  0  0  0  0  0  0  0  0  0  0
   -4.1760   12.4130    0.5070 O   0  0  0  0  0  0  0  0  0  0  0  0
   -3.8320   14.5490    1.1990 N   0  0  0  0  0  0  0  0  0  0  0  0
   -2.4570   14.5280    0.8840 C   0  0  0  0  0  0  0  0  0  0  0  0
   -4.4860   14.9380    0.1040 C   0  0  0  0  0  0  0  0  0  0  0  0
   -1.5110   14.4880    1.8280 N   0  0  0  0  0  0  0  0  0  0  0  0
   -2.1360   14.5530   -0.4720 C   0  0  0  0  0  0  0  0  0  0  0  0
   -5.9580   15.0390    0.2200 C   0  0  0  0  0  0  0  0  0  0  0  0
   -3.9010   15.1440   -1.0750 C   0  0  0  0  0  0  0  0  0  0  0  0
   -0.2350   14.4820    1.4060 C   0  0  0  0  0  0  0  0  0  0  0  0
   -0.8220   14.5490   -0.8910 C   0  0  0  0  0  0  0  0  0  0  0  0
   -6.7380   15.5170   -0.9700 C   0  0  2  0  0  0  0  0  0  0  0  0
   -6.5330   14.6960    1.3400 N   0  0  0  0  0  0  0  0  0  0  0  0
   -4.6290   15.3960   -2.2670 C   0  0  0  0  0  0  0  0  0  0  0  0
   -0.4820   14.5840   -2.3500 C   0  0  0  0  0  0  0  0  0  0  0  0
    0.1540   14.5140    0.0750 C   0  0  0  0  0  0  0  0  0  0  0  0
   -7.8980   14.7510    1.4300 C   0  0  0  0  0  0  0  0  0  0  0  0
   -8.0340   14.7770   -0.9670 C   0  0  0  0  0  0  0  0  0  0  0  0
   -5.9530   15.5340   -2.2340 C   0  0  0  0  0  0  0  0  0  0  0  0
   -8.4410   14.7690    2.8360 C   0  0  0  0  0  0  0  0  0  0  0  0
   -8.5310   14.2020   -1.9290 O   0  0  0  0  0  0  0  0  0  0  0  0
   -8.6960   14.7840    0.3520 C   0  0  0  0  0  0  0  0  0  0  0  0
  1  2  1  0
  2  3  1  0
  3  4  2  0
  3  5  1  0
  5  6  1  0
  5  7  1  0
  6  8  2  0
  6  9  1  0
  7 10  1  0
  7 11  2  0
  8 12  1  0
  9 13  2  0
 10 14  1  0
 10 15  2  0
 11 16  1  0
 13 17  1  0
 12 18  2  0
 13 18  1  0
 15 19  1  0
 14 20  1  0
 14 21  1  6
 16 21  2  0
 19 22  1  0
 20 23  2  0
 19 24  2  0
 20 24  1  0
M  END
