diamond-x0837_0_A-mac-x0182
     RDKit          3D

 22 24  0  0  0  0  0  0  0  0999 V2000
   -7.7080   14.8110    0.3400 O   0  0  0  0  0  0  0  0  0  0  0  0
   -6.4760   14.6890    0.3070 C   0  0  0  0  0  0  0  0  0  0  0  0
   -5.7260   14.7150    1.5260 N   0  0  0  0  0  0  0  0  0  0  0  0
   -5.7200   14.5050   -0.9480 C   0  0  0  0  0  0  0  0  0  0  0  0
   -4.3060   14.9270    1.3870 C   0  0  0  0  0  0  0  0  0  0  0  0
   -4.5850   15.4690   -0.9360 C   0  0  2  0  0  0  0  0  0  0  0  0
   -3.4040   14.9020   -2.6230 I   0  0  0  0  0  0  0  0  0  0  0  0
   -3.7570   15.2750    0.2560 C   0  0  0  0  0  0  0  0  0  0  0  0
   -1.6520   13.9870   -2.0100 C   0  0  0  0  0  0  0  0  0  0  0  0
   -0.9330   13.3510   -3.1100 C   0  0  0  0  0  0  0  0  0  0  0  0
   -1.3990   12.1720   -3.6660 N   0  0  0  0  0  0  0  0  0  0  0  0
   -0.4960   11.1590   -4.2790 S   0  0  2  0  0  0  0  0  0  0  0  0
    0.0090   10.2620   -3.1990 O   0  0  0  0  0  0  0  0  0  0  0  0
    0.7380   11.9710   -5.1190 N   0  0  0  0  0  0  0  0  0  0  0  0
   -1.0980   10.1780   -5.6000 C   0  0  0  0  0  0  0  0  0  0  0  0
    0.7460   11.4190   -6.3990 C   0  0  0  0  0  0  0  0  0  0  0  0
   -0.2860   10.4660   -6.6600 C   0  0  0  0  0  0  0  0  0  0  0  0
   -2.1180    9.2670   -5.7600 C   0  0  0  0  0  0  0  0  0  0  0  0
    1.6640   11.7660   -7.1890 O   0  0  0  0  0  0  0  0  0  0  0  0
   -2.3390    8.6360   -6.9670 C   0  0  0  0  0  0  0  0  0  0  0  0
   -0.5180    9.8170   -7.8920 C   0  0  0  0  0  0  0  0  0  0  0  0
   -1.5220    8.9220   -8.0390 C   0  0  0  0  0  0  0  0  0  0  0  0
  1  2  2  0
  2  3  1  0
  2  4  1  0
  3  5  1  0
  4  6  1  0
  6  7  1  6
  5  8  2  0
  6  8  1  0
  7  9  1  0
  9 10  1  0
 10 11  1  0
 11 12  2  0
 12 13  2  0
 12 14  1  6
 12 15  1  0
 14 16  1  0
 15 17  2  0
 16 17  1  0
 15 18  1  0
 16 19  2  0
 18 20  2  0
 17 21  1  0
 20 22  1  0
 21 22  2  0
M  END
