diamond-x0685_1_A-mac-x0224
     RDKit          3D

 23 24  0  0  0  0  0  0  0  0999 V2000
   -1.4330   10.7030   -5.0230 N   0  0  0  0  0  0  0  0  0  0  0  0
   -0.9510   12.0910   -5.0000 C   0  0  0  0  0  0  0  0  0  0  0  0
    0.5400   12.1620   -4.6610 C   0  0  0  0  0  0  0  0  0  0  0  0
   -1.4520   10.0460   -6.3370 C   0  0  0  0  0  0  0  0  0  0  0  0
   -0.1650    9.2990   -6.6750 C   0  0  0  0  0  0  0  0  0  0  0  0
   -1.7330   11.0680   -7.4600 C   0  0  0  0  0  0  0  0  0  0  0  0
    0.8140   11.9470   -2.9380 S   0  0  0  0  0  0  0  0  0  0  0  0
   -0.2360    8.4870   -7.9590 C   0  0  0  0  0  0  0  0  0  0  0  0
   -1.1250   10.7020   -8.8180 C   0  0  0  0  0  0  0  0  0  0  0  0
    2.2440   12.5110   -2.5310 O   0  0  0  0  0  0  0  0  0  0  0  0
    0.5550   10.4270   -2.4920 O   0  0  0  0  0  0  0  0  0  0  0  0
   -0.3090   12.6870   -2.2230 N   0  0  0  0  0  0  0  0  0  0  0  0
   -1.0220    9.1980   -9.0610 C   0  0  0  0  0  0  0  0  0  0  0  0
   -0.4650   13.9040   -2.5280 C   0  0  0  0  0  0  0  0  0  0  0  0
   -1.6630   14.4880   -2.0220 C   0  0  0  0  0  0  0  0  0  0  0  0
   -1.9090   14.5940   -0.6640 C   0  0  0  0  0  0  0  0  0  0  0  0
   -2.5770   14.9110   -2.9700 C   0  0  0  0  0  0  0  0  0  0  0  0
   -2.3620   14.8240   -4.3190 O   0  0  0  0  0  0  0  0  0  0  0  0
   -3.1170   15.1380   -0.2480 C   0  0  0  0  0  0  0  0  0  0  0  0
   -3.7760   15.4470   -2.5630 C   0  0  0  0  0  0  0  0  0  0  0  0
   -3.4990   15.3020    1.4710 S   0  0  0  0  0  0  0  0  0  0  0  0
   -4.0520   15.5640   -1.2020 C   0  0  0  0  0  0  0  0  0  0  0  0
   -5.2500   14.8590    1.4240 C   0  0  0  0  0  0  0  0  0  0  0  0
  1  2  1  0
  2  3  1  0
  1  4  1  0
  4  5  1  0
  4  6  1  0
  3  7  1  0
  5  8  1  0
  6  9  1  0
  7 10  1  0
  7 11  1  0
  7 12  1  0
  8 13  1  0
  9 13  1  0
 12 14  2  3
 14 15  1  0
 15 16  2  0
 15 17  1  0
 17 18  1  0
 16 19  1  0
 17 20  2  0
 19 21  1  0
 19 22  2  0
 20 22  1  0
 21 23  1  0
M  END
