diamond-x1018_0_A-diamond-x0855_0_A
     RDKit          3D

 23 25  0  0  0  0  0  0  0  0999 V2000
   -8.3280   14.6660    0.8340 Cl  0  0  0  0  0  0  0  0  0  0  0  0
   -6.6440   14.6370    0.4250 C   0  0  0  0  0  0  0  0  0  0  0  0
   -5.6340   14.8730    1.4840 C   0  0  0  0  0  0  0  0  0  0  0  0
   -6.3710   14.4070   -0.8220 N   0  0  0  0  0  0  0  0  0  0  0  0
   -5.0390   14.3620   -1.1420 N   0  0  0  0  0  0  0  0  0  0  0  0
   -4.3540   14.6350    1.1700 C   0  0  0  0  0  0  0  0  0  0  0  0
   -4.6090   15.1920   -2.1580 N   0  0  0  0  0  0  0  0  0  0  0  0
   -3.9650   14.1340   -0.1770 C   0  0  2  0  0  0  0  0  0  0  0  0
   -2.7710   14.7750   -0.7570 N   0  0  0  0  0  0  0  0  0  0  0  0
   -3.1850   15.0420   -2.1400 N   0  0  0  0  0  0  0  0  0  0  0  0
   -1.6380   13.8140   -0.7240 C   0  0  0  0  0  0  0  0  0  0  0  0
   -0.2240   14.4100   -0.8790 C   0  0  0  0  0  0  0  0  0  0  0  0
    0.3410   14.3020   -2.3020 C   0  0  0  0  0  0  0  0  0  0  0  0
    1.2670   13.2030   -2.3940 O   0  0  0  0  0  0  0  0  0  0  0  0
    0.8520   12.1550   -3.1650 C   0  0  0  0  0  0  0  0  0  0  0  0
    0.6670   11.0240   -2.7290 O   0  0  0  0  0  0  0  0  0  0  0  0
    0.6320   12.5430   -4.6050 C   0  0  0  0  0  0  0  0  0  0  0  0
   -0.4060   11.6920   -5.1440 N   0  0  0  0  0  0  0  0  0  0  0  0
   -0.2860   10.7550   -6.1320 C   0  0  0  0  0  0  0  0  0  0  0  0
   -1.6570   11.7850   -4.6470 N   0  0  0  0  0  0  0  0  0  0  0  0
   -1.5340   10.2120   -6.2610 C   0  0  0  0  0  0  0  0  0  0  0  0
   -2.3450   10.8710   -5.3370 C   0  0  0  0  0  0  0  0  0  0  0  0
   -2.0820    8.8600   -7.4210 Br  0  0  0  0  0  0  0  0  0  0  0  0
  1  2  1  0
  2  3  1  0
  2  4  2  0
  4  5  1  0
  3  6  2  0
  5  7  1  0
  5  8  1  0
  8  6  1  1
  8  9  1  0
  7 10  1  0
  9 10  1  0
  9 11  1  0
 11 12  1  0
 12 13  1  0
 13 14  1  0
 14 15  1  0
 15 16  2  0
 15 17  1  0
 17 18  1  0
 18 19  1  0
 18 20  1  0
 19 21  2  0
 20 22  2  0
 21 22  1  0
 21 23  1  0
M  END
