diamond-x0465_0_A-diamond-x0711_0_A
     RDKit          3D

 26 27  0  0  0  0  0  0  0  0999 V2000
    2.3690   12.9390   -4.8780 C   0  0  0  0  0  0  0  0  0  0  0  0
    0.9290   12.5050   -4.8320 C   0  0  1  0  0  0  0  0  0  0  0  0
    0.6690   11.3700   -5.5590 O   0  0  0  0  0  0  0  0  0  0  0  0
    0.4890   12.3410   -3.4160 C   0  0  0  0  0  0  0  0  0  0  0  0
   -0.2210   13.2230   -3.0170 N   0  0  0  0  0  0  0  0  0  0  0  0
    0.8790   11.2460   -2.6990 O   0  0  0  0  0  0  0  0  0  0  0  0
   -0.5440   10.7170   -5.6770 C   0  0  0  0  0  0  0  0  0  0  0  0
   -0.8320   14.4270   -3.4810 S   0  0  0  0  0  0  0  0  0  0  0  0
   -0.6820    9.7070   -6.6300 C   0  0  0  0  0  0  0  0  0  0  0  0
   -1.6500   10.9880   -4.9130 C   0  0  0  0  0  0  0  0  0  0  0  0
    0.4160    9.4280   -7.3990 F   0  0  0  0  0  0  0  0  0  0  0  0
   -1.2240   14.7990   -1.7380 N   0  0  0  0  0  0  0  0  0  0  0  0
   -2.1200   13.7660   -4.2810 C   0  0  0  0  0  0  0  0  0  0  0  0
    0.4390   15.0820   -4.0300 O   0  0  0  0  0  0  0  0  0  0  0  0
   -1.8330    8.9970   -6.8340 C   0  0  0  0  0  0  0  0  0  0  0  0
   -2.8490   10.2910   -5.0860 C   0  0  0  0  0  0  0  0  0  0  0  0
   -2.9350    9.2980   -6.0470 C   0  0  0  0  0  0  0  0  0  0  0  0
   -2.5740   14.7950   -1.3530 C   0  0  0  0  0  0  0  0  0  0  0  0
   -3.6740   15.1040   -2.1350 C   0  0  0  0  0  0  0  0  0  0  0  0
   -2.8330   14.4510   -0.0500 C   0  0  0  0  0  0  0  0  0  0  0  0
   -4.9790   15.0690   -1.6250 C   0  0  0  0  0  0  0  0  0  0  0  0
   -4.1010   14.4150    0.4490 C   0  0  0  0  0  0  0  0  0  0  0  0
   -5.2070   14.7170   -0.3040 C   0  0  0  0  0  0  0  0  0  0  0  0
   -6.5350   14.6460    0.3350 C   0  0  0  0  0  0  0  0  0  0  0  0
   -6.6740   14.5870    1.7470 N   0  0  0  0  0  0  0  0  0  0  0  0
   -7.5510   14.6420   -0.3750 O   0  0  0  0  0  0  0  0  0  0  0  0
  2  1  1  1
  2  3  1  0
  2  4  1  0
  4  5  2  3
  4  6  1  0
  3  7  1  0
  5  8  1  0
  7  9  2  0
  7 10  1  0
  9 11  1  0
  8 12  1  0
  8 13  1  0
  8 14  2  0
  9 15  1  0
 10 16  2  0
 15 17  2  0
 16 17  1  0
 12 18  1  0
 18 19  2  0
 18 20  1  0
 19 21  1  0
 20 22  2  0
 21 23  2  0
 22 23  1  0
 23 24  1  0
 24 25  1  0
 24 26  2  0
M  END
