diamond-x0722_0_A-mac-x0213
     RDKit          3D

 25 27  0  0  0  0  0  0  0  0999 V2000
   -4.5810   15.7470    2.2040 C   0  0  0  0  0  0  0  0  0  0  0  0
   -3.5150   15.2430    1.3800 C   0  0  0  0  0  0  0  0  0  0  0  0
   -2.4110   14.9040    1.9880 N   0  0  0  0  0  0  0  0  0  0  0  0
   -3.4600   15.0700   -0.0110 C   0  0  0  0  0  0  0  0  0  0  0  0
   -4.5490   15.3570   -1.0070 C   0  0  0  0  0  0  0  0  0  0  0  0
   -2.1620   14.5930   -0.1960 C   0  0  0  0  0  0  0  0  0  0  0  0
   -1.5960   14.5210    1.0420 N   0  0  0  0  0  0  0  0  0  0  0  0
   -0.2730   14.1070    1.4330 C   0  0  0  0  0  0  0  0  0  0  0  0
   -1.3890   14.2070   -1.3850 C   0  0  0  0  0  0  0  0  0  0  0  0
   -5.8810   14.6970   -0.6660 C   0  0  0  0  0  0  0  0  0  0  0  0
   -6.9660   15.2470   -0.8390 O   0  0  0  0  0  0  0  0  0  0  0  0
   -5.8380   13.4340   -0.1490 N   0  0  0  0  0  0  0  0  0  0  0  0
    0.0410   13.8180   -0.9560 C   0  0  0  0  0  0  0  0  0  0  0  0
    0.3840   12.6120   -1.6530 N   0  0  0  0  0  0  0  0  0  0  0  0
    0.3450   12.7270   -2.9220 C   0  0  0  0  0  0  0  0  0  0  0  0
    0.5980   11.7490   -3.7920 O   0  0  0  0  0  0  0  0  0  0  0  0
   -0.0340   14.0760   -3.4930 C   0  0  0  0  0  0  0  0  0  0  0  0
   -1.2980   14.1070   -4.3590 C   0  0  0  0  0  0  0  0  0  0  0  0
    1.0250   14.8380   -4.2970 C   0  0  0  0  0  0  0  0  0  0  0  0
   -1.2010   15.5340   -4.8070 C   0  0  0  0  0  0  0  0  0  0  0  0
    0.1350   15.9590   -4.7710 C   0  0  0  0  0  0  0  0  0  0  0  0
   -2.2180   16.3900   -5.2160 C   0  0  0  0  0  0  0  0  0  0  0  0
    0.4810   17.2460   -5.1400 C   0  0  0  0  0  0  0  0  0  0  0  0
   -1.8650   17.6900   -5.5920 C   0  0  0  0  0  0  0  0  0  0  0  0
   -0.5320   18.1130   -5.5530 C   0  0  0  0  0  0  0  0  0  0  0  0
  1  2  1  0
  2  3  2  0
  2  4  1  0
  4  5  1  0
  4  6  2  0
  3  7  1  0
  6  7  1  0
  7  8  1  0
  6  9  1  0
  5 10  1  0
 10 11  2  0
 10 12  1  0
  9 13  1  0
 13 14  1  0
 14 15  2  3
 15 16  1  0
 15 17  1  0
 17 18  1  0
 17 19  1  0
 18 20  1  0
 19 21  1  0
 20 21  2  0
 20 22  1  0
 21 23  1  0
 22 24  2  0
 23 25  2  0
 24 25  1  0
M  END
