diamond-x0591_0_A-diamond-x0962_0_A
     RDKit          3D

 21 22  0  0  0  0  0  0  0  0999 V2000
   -5.9920   13.1840    0.0600 N   0  0  0  0  0  0  0  0  0  0  0  0
   -6.3600   13.3090    1.4530 C   0  0  0  0  0  0  0  0  0  0  0  0
   -6.2650   14.0720   -0.9440 C   0  0  0  0  0  0  0  0  0  0  0  0
   -7.2540   14.7990   -0.8770 O   0  0  0  0  0  0  0  0  0  0  0  0
   -5.3730   14.1620   -2.1330 C   0  0  0  0  0  0  0  0  0  0  0  0
   -3.9650   13.9280   -2.0920 C   0  0  0  0  0  0  0  0  0  0  0  0
   -5.9910   14.5010   -3.3460 C   0  0  0  0  0  0  0  0  0  0  0  0
   -3.2090   13.5620   -0.8570 C   0  0  1  0  0  0  0  0  0  0  0  0
   -3.2410   14.0520   -3.2650 C   0  0  0  0  0  0  0  0  0  0  0  0
   -5.2340   14.6110   -4.5090 C   0  0  0  0  0  0  0  0  0  0  0  0
   -1.7630   13.5650   -1.0860 N   0  0  0  0  0  0  0  0  0  0  0  0
   -3.8650   14.3880   -4.4460 C   0  0  0  0  0  0  0  0  0  0  0  0
   -3.5790   14.5090    0.1740 C   0  0  0  0  0  0  0  0  0  0  0  0
   -2.8430   14.5190   -5.8640 S   0  0  0  0  0  0  0  0  0  0  0  0
   -3.2650   14.2950    1.4820 N   0  0  0  0  0  0  0  0  0  0  0  0
   -4.2450   15.6950    0.1390 C   0  0  0  0  0  0  0  0  0  0  0  0
   -1.4620   15.1910   -5.1630 N   0  0  0  0  0  0  0  0  0  0  0  0
   -2.4520   13.1940   -6.2790 O   0  0  0  0  0  0  0  0  0  0  0  0
   -3.4290   15.4910   -6.7480 O   0  0  0  0  0  0  0  0  0  0  0  0
   -3.7580   15.3480    2.1690 C   0  0  0  0  0  0  0  0  0  0  0  0
   -4.3410   16.2000    1.3860 N   0  0  0  0  0  0  0  0  0  0  0  0
  1  2  1  0
  1  3  1  0
  3  4  2  0
  3  5  1  0
  5  6  2  0
  5  7  1  0
  6  8  1  0
  6  9  1  0
  7 10  2  0
  8 11  1  6
  9 12  2  0
 10 12  1  0
  8 13  1  0
 12 14  1  0
 13 15  1  0
 13 16  2  0
 14 17  1  0
 14 18  2  0
 14 19  2  0
 15 20  1  0
 16 21  1  0
 20 21  2  0
M  END
