diamond-x0837_0_A-mac-x0337
     RDKit          3D

 18 19  0  0  0  0  0  0  0  0999 V2000
   -7.9650   14.6780    0.2520 O   0  0  0  0  0  0  0  0  0  0  0  0
   -6.7310   14.7500    0.2130 C   0  0  0  0  0  0  0  0  0  0  0  0
   -5.9840   14.6820    1.4180 N   0  0  0  0  0  0  0  0  0  0  0  0
   -6.0710   14.9180   -1.0940 C   0  0  0  0  0  0  0  0  0  0  0  0
   -4.7710   15.4060    1.4660 C   0  0  0  0  0  0  0  0  0  0  0  0
   -4.8430   15.7830   -1.0110 C   0  0  2  0  0  0  0  0  0  0  0  0
   -3.4790   15.1900   -2.3170 I   0  0  0  0  0  0  0  0  0  0  0  0
   -4.2710   15.8930    0.3630 C   0  0  0  0  0  0  0  0  0  0  0  0
   -3.1580   13.8380   -0.6740 S   0  0  1  0  0  0  0  0  0  0  0  0
   -1.8100   13.8480   -0.9120 O   0  0  0  0  0  0  0  0  0  0  0  0
   -3.7030   14.5490    0.7690 N   0  0  0  0  0  0  0  0  0  0  0  0
   -4.0620   12.4730   -1.0850 C   0  0  0  0  0  0  0  0  0  0  0  0
   -3.5400   11.6530   -2.0490 C   0  0  0  0  0  0  0  0  0  0  0  0
   -5.2620   12.1650   -0.5300 C   0  0  0  0  0  0  0  0  0  0  0  0
   -4.2010   10.5390   -2.4550 C   0  0  0  0  0  0  0  0  0  0  0  0
   -5.9340   11.0480   -0.9330 C   0  0  0  0  0  0  0  0  0  0  0  0
   -5.4200   10.2090   -1.9030 C   0  0  0  0  0  0  0  0  0  0  0  0
   -6.1440    8.9970   -2.3280 C   0  0  0  0  0  0  0  0  0  0  0  0
  1  2  2  0
  2  3  1  0
  2  4  1  0
  3  5  1  0
  4  6  1  0
  6  7  1  6
  5  8  2  0
  6  8  1  0
  7  9  2  0
  9 10  2  0
  9 11  1  1
  9 12  1  0
 12 13  2  0
 12 14  1  0
 13 15  1  0
 14 16  2  0
 15 17  2  0
 16 17  1  0
 17 18  1  0
M  END
