diamond-x0849_0_A-mac-x0224
     RDKit          3D

 22 24  0  0  0  0  0  0  0  0999 V2000
   -2.8370   15.9320   -3.0900 Br  0  0  0  0  0  0  0  0  0  0  0  0
   -3.1440   15.6960   -1.2470 C   0  0  0  0  0  0  0  0  0  0  0  0
   -2.1310   15.5160   -0.3690 C   0  0  0  0  0  0  0  0  0  0  0  0
   -4.5260   15.6480   -0.7020 C   0  0  0  0  0  0  0  0  0  0  0  0
   -2.5330   15.1660    1.0470 C   0  0  1  0  0  0  0  0  0  0  0  0
   -4.7110   14.8320    0.3500 C   0  0  0  0  0  0  0  0  0  0  0  0
   -0.7120   15.5490   -0.6740 C   0  0  0  0  0  0  0  0  0  0  0  0
   -3.5470   14.2030    0.6480 N   0  0  0  0  0  0  0  0  0  0  0  0
   -1.5010   14.5800    1.9080 N   0  0  0  0  0  0  0  0  0  0  0  0
    0.1930   15.0920    0.1870 C   0  0  0  0  0  0  0  0  0  0  0  0
   -5.9960   14.6110    1.0990 C   0  0  0  0  0  0  0  0  0  0  0  0
   -0.3060   14.5600    1.4710 C   0  0  0  0  0  0  0  0  0  0  0  0
   -3.0250   13.8970   -0.6400 C   0  0  0  0  0  0  0  0  0  0  0  0
   -1.6420   13.8070   -0.8790 C   0  0  0  0  0  0  0  0  0  0  0  0
   -3.9110   13.7170   -1.7160 C   0  0  0  0  0  0  0  0  0  0  0  0
   -1.1560   13.5690   -2.1760 C   0  0  0  0  0  0  0  0  0  0  0  0
   -3.4350   13.4710   -3.0020 C   0  0  0  0  0  0  0  0  0  0  0  0
    0.3000   13.4980   -2.4480 C   0  0  0  0  0  0  0  0  0  0  0  0
   -2.0630   13.4060   -3.2300 C   0  0  0  0  0  0  0  0  0  0  0  0
   -1.6840   13.1800   -4.5310 O   0  0  0  0  0  0  0  0  0  0  0  0
    1.1530   13.5190   -1.5820 O   0  0  0  0  0  0  0  0  0  0  0  0
    0.6250   13.4210   -3.7450 O   0  0  0  0  0  0  0  0  0  0  0  0
  1  2  1  0
  2  3  2  0
  2  4  1  0
  3  5  1  0
  4  6  2  0
  3  7  1  0
  5  8  1  0
  6  8  1  0
  5  9  1  1
  7 10  2  0
  6 11  1  0
  9 12  2  0
 10 12  1  0
  8 13  1  0
 13 14  2  0
 13 15  1  0
 14 16  1  0
 15 17  2  0
 16 18  1  0
 16 19  2  0
 17 19  1  0
 19 20  1  0
 18 21  2  0
 18 22  1  0
M  END
