diamond-x0864_0_A-mac-x0179
     RDKit          3D

 16 17  0  0  0  0  0  0  0  0999 V2000
    1.6240   11.5270   -7.0860 O   0  0  0  0  0  0  0  0  0  0  0  0
    0.4980   11.2970   -6.6730 C   0  0  0  0  0  0  0  0  0  0  0  0
    0.0920   11.6880   -5.4100 N   0  0  0  0  0  0  0  0  0  0  0  0
   -0.5870   10.5600   -7.4680 C   0  0  2  0  0  0  0  0  0  0  0  0
    0.9060   12.6580   -4.6800 C   0  0  0  0  0  0  0  0  0  0  0  0
   -0.7760   10.9470   -4.6680 C   0  0  0  0  0  0  0  0  0  0  0  0
   -1.4260    9.6280   -6.6050 C   0  0  1  0  0  0  0  0  0  0  0  0
   -0.1270    9.6880   -8.6060 C   0  0  0  0  0  0  0  0  0  0  0  0
    0.9290   12.3690   -3.1830 C   0  0  0  0  0  0  0  0  0  0  0  0
   -0.4970    7.8670   -6.6300 Br  0  0  0  0  0  0  0  0  0  0  0  0
   -1.5260    9.9700   -5.1770 C   0  0  0  0  0  0  0  0  0  0  0  0
   -1.0250    8.8070   -9.1170 C   0  0  0  0  0  0  0  0  0  0  0  0
   -2.6200    9.1450   -7.3170 C   0  0  0  0  0  0  0  0  0  0  0  0
    0.6890   11.0870   -2.8490 O   0  0  0  0  0  0  0  0  0  0  0  0
    1.1340   13.1820   -2.3040 O   0  0  0  0  0  0  0  0  0  0  0  0
   -2.3890    8.7280   -8.5730 C   0  0  0  0  0  0  0  0  0  0  0  0
  1  2  2  0
  2  3  1  0
  2  4  1  0
  3  5  1  0
  3  6  1  0
  4  7  1  0
  4  8  1  6
  5  9  1  0
  7 10  1  1
  6 11  2  0
  7 11  1  0
  8 12  2  0
  7 13  1  0
  9 14  1  0
  9 15  2  0
 12 16  1  0
 13 16  2  0
M  END
