diamond-x0592_0_A-diamond-x0962_0_A
     RDKit          3D

 12 12  0  0  0  0  0  0  0  0999 V2000
   -2.8690   14.3000    1.1450 N   0  0  0  0  0  0  0  0  0  0  0  0
   -3.3520   15.1290    0.0430 C   0  0  1  0  0  0  0  0  0  0  0  0
   -2.7040   14.8420   -1.2600 C   0  0  0  0  0  0  0  0  0  0  0  0
   -4.8200   14.9930   -0.0750 C   0  0  0  0  0  0  0  0  0  0  0  0
   -2.2060   14.6420   -2.2910 N   0  0  0  0  0  0  0  0  0  0  0  0
   -5.6040   15.1880   -1.2400 C   0  0  0  0  0  0  0  0  0  0  0  0
   -5.7410   14.6610    0.8950 C   0  0  0  0  0  0  0  0  0  0  0  0
   -6.9060   14.9960   -1.0160 N   0  0  0  0  0  0  0  0  0  0  0  0
   -6.9610   14.6800    0.2910 N   0  0  0  0  0  0  0  0  0  0  0  0
   -8.2300   14.4050    0.9210 C   0  0  0  0  0  0  0  0  0  0  0  0
   -8.0650   13.9640    2.3730 C   0  0  0  0  0  0  0  0  0  0  0  0
   -7.3410   14.9420    3.1160 O   0  0  0  0  0  0  0  0  0  0  0  0
  2  1  1  1
  2  3  1  0
  2  4  1  0
  3  5  3  0
  4  6  1  0
  4  7  2  0
  6  8  2  0
  7  9  1  0
  8  9  1  0
  9 10  1  0
 10 11  1  0
 11 12  1  0
M  END
