diamond-x0967_0_A-diamond-x0592_0_A
     RDKit          3D

 15 16  0  0  0  0  0  0  0  0999 V2000
   -3.5980   15.1900    2.3690 N   0  0  0  0  0  0  0  0  0  0  0  0
   -3.9760   14.3270    1.4580 C   0  0  0  0  0  0  0  0  0  0  0  0
   -3.1920   13.5050    1.0100 O   0  0  0  0  0  0  0  0  0  0  0  0
   -5.3030   14.4440    0.8650 C   0  0  0  0  0  0  0  0  0  0  0  0
   -4.9740   14.7390   -0.3900 C   0  0  0  0  0  0  0  0  0  0  0  0
   -6.6510   14.3090    1.3160 C   0  0  0  0  0  0  0  0  0  0  0  0
   -5.9480   14.9110   -1.3210 C   0  0  0  0  0  0  0  0  0  0  0  0
   -7.5670   14.5150    0.2980 C   0  0  0  0  0  0  0  0  0  0  0  0
   -3.6140   14.8570   -0.7160 C   0  0  0  0  0  0  0  0  0  0  0  0
   -7.1520   13.9800    2.6850 C   0  0  0  0  0  0  0  0  0  0  0  0
   -7.2370   14.8050   -0.9870 N   0  0  0  0  0  0  0  0  0  0  0  0
   -5.5940   15.1800   -2.5630 N   0  0  0  0  0  0  0  0  0  0  0  0
   -3.2540   15.1370   -1.9810 C   0  0  0  0  0  0  0  0  0  0  0  0
   -7.1060   15.0950    3.5590 O   0  0  0  0  0  0  0  0  0  0  0  0
   -4.2740   15.2880   -2.8730 C   0  0  0  0  0  0  0  0  0  0  0  0
  1  2  1  0
  2  3  2  0
  2  4  1  0
  4  5  2  0
  4  6  1  0
  5  7  1  0
  6  8  2  0
  5  9  1  0
  6 10  1  0
  7 11  2  0
  8 11  1  0
  7 12  1  0
  9 13  2  0
 10 14  1  0
 12 15  2  0
 13 15  1  0
M  END
