diamond-x0962_0_A-diamond-x1015_0_A
     RDKit          3D

 24 26  0  0  0  0  0  0  0  0999 V2000
   -1.6160   14.7450   -1.2040 N   0  0  0  0  0  0  0  0  0  0  0  0
   -2.9810   14.5270   -1.5920 C   0  0  2  0  0  0  0  0  0  0  0  0
   -3.2910   15.1900   -2.9470 C   0  0  0  0  0  0  0  0  0  0  0  0
   -3.9190   14.7900   -0.4670 C   0  0  0  0  0  0  0  0  0  0  0  0
   -2.1520   15.2800   -3.9850 C   0  0  0  0  0  0  0  0  0  0  0  0
   -3.4910   15.2190    0.7720 N   0  0  0  0  0  0  0  0  0  0  0  0
   -5.2860   14.6920   -0.3350 C   0  0  0  0  0  0  0  0  0  0  0  0
   -1.5330   13.9560   -4.4400 C   0  0  0  0  0  0  0  0  0  0  0  0
   -4.5870   15.3500    1.5700 C   0  0  0  0  0  0  0  0  0  0  0  0
   -5.6840   15.0320    0.9250 N   0  0  0  0  0  0  0  0  0  0  0  0
   -0.0700   13.6230   -4.0810 C   0  0  2  0  0  0  0  0  0  0  0  0
    0.0990   12.1710   -4.0230 N   0  0  0  0  0  0  0  0  0  0  0  0
    0.3290   13.9780   -2.6490 C   0  0  0  0  0  0  0  0  0  0  0  0
    0.5660   15.1010   -2.2240 O   0  0  0  0  0  0  0  0  0  0  0  0
    0.2360   11.7380   -2.6920 C   0  0  0  0  0  0  0  0  0  0  0  0
    0.4140   12.8430   -1.9110 N   0  0  0  0  0  0  0  0  0  0  0  0
   -0.3730   11.3670   -5.0890 C   0  0  0  0  0  0  0  0  0  0  0  0
    0.2200   10.5900   -2.2360 O   0  0  0  0  0  0  0  0  0  0  0  0
    0.1360   11.5510   -6.3830 C   0  0  0  0  0  0  0  0  0  0  0  0
   -1.3490   10.3800   -4.9010 C   0  0  0  0  0  0  0  0  0  0  0  0
   -0.3120   10.7760   -7.4520 C   0  0  0  0  0  0  0  0  0  0  0  0
   -1.8030    9.6000   -5.9680 C   0  0  0  0  0  0  0  0  0  0  0  0
   -1.2830    9.8010   -7.2410 C   0  0  0  0  0  0  0  0  0  0  0  0
   -1.8360    8.8450   -8.5560 Cl  0  0  0  0  0  0  0  0  0  0  0  0
  2  1  1  1
  2  3  1  0
  2  4  1  0
  3  5  1  0
  4  6  1  0
  4  7  2  0
  5  8  1  0
  6  9  1  0
  7 10  1  0
  9 10  2  0
 11  8  1  1
 11 12  1  0
 11 13  1  0
 13 14  2  0
 12 15  1  0
 13 16  1  0
 15 16  1  0
 12 17  1  0
 15 18  2  0
 17 19  2  0
 17 20  1  0
 19 21  1  0
 20 22  2  0
 21 23  2  0
 22 23  1  0
 23 24  1  0
M  END
