diamond-x0471_0_A-mac-x0345
     RDKit          3D

 18 19  0  0  0  0  0  0  0  0999 V2000
   -8.7140   14.1530    2.8740 N   0  0  0  0  0  0  0  0  0  0  0  0
   -9.1590   15.1540    3.7010 C   0  0  0  0  0  0  0  0  0  0  0  0
   -9.4910   16.2470    3.2600 O   0  0  0  0  0  0  0  0  0  0  0  0
   -8.9310   14.2540    1.4490 C   0  0  0  0  0  0  0  0  0  0  0  0
   -9.2640   14.8360    5.1910 C   0  0  0  0  0  0  0  0  0  0  0  0
   -7.6190   14.4840    0.7770 C   0  0  0  0  0  0  0  0  0  0  0  0
   -9.6350   13.3800    5.4430 C   0  0  0  0  0  0  0  0  0  0  0  0
   -8.0110   15.2690    5.9440 C   0  0  0  0  0  0  0  0  0  0  0  0
   -7.4890   14.6350   -0.5820 N   0  0  0  0  0  0  0  0  0  0  0  0
   -6.4460   14.5730    1.3600 N   0  0  0  0  0  0  0  0  0  0  0  0
   -5.5420   14.7880    0.3460 C   0  0  0  0  0  0  0  0  0  0  0  0
   -6.1600   14.8310   -0.8800 C   0  0  0  0  0  0  0  0  0  0  0  0
   -5.4650   15.0320   -2.0770 C   0  0  0  0  0  0  0  0  0  0  0  0
   -4.1700   14.9520    0.3930 C   0  0  0  0  0  0  0  0  0  0  0  0
   -6.0790   15.0540   -3.3270 N   0  0  0  0  0  0  0  0  0  0  0  0
   -3.3240   14.8780    2.0100 Br  0  0  0  0  0  0  0  0  0  0  0  0
   -4.0720   15.2040   -1.9750 C   0  0  0  0  0  0  0  0  0  0  0  0
   -3.4310   15.1620   -0.7510 C   0  0  0  0  0  0  0  0  0  0  0  0
  1  2  1  0
  2  3  2  0
  1  4  1  0
  2  5  1  0
  4  6  1  0
  5  7  1  0
  5  8  1  0
  6  9  1  0
  6 10  2  0
 10 11  1  0
  9 12  1  0
 11 12  2  0
 12 13  1  0
 11 14  1  0
 13 15  1  0
 14 16  1  0
 13 17  2  0
 14 18  2  0
 17 18  1  0
M  END
