diamond-x0844_0_A-mac-x0436
     RDKit          3D

 26 28  0  0  0  0  0  0  0  0999 V2000
   -7.7060   14.8010   -0.1050 O   0  0  0  0  0  0  0  0  0  0  0  0
   -6.4820   14.9150   -0.0380 C   0  0  0  0  0  0  0  0  0  0  0  0
   -5.8200   14.8710    1.1750 N   0  0  0  0  0  0  0  0  0  0  0  0
   -5.6020   15.1080   -1.2490 C   0  0  0  0  0  0  0  0  0  0  0  0
   -4.5150   15.2430    1.3330 C   0  0  0  0  0  0  0  0  0  0  0  0
   -4.2340   14.5300   -0.9490 C   0  0  1  0  0  0  0  0  0  0  0  0
   -3.2650   14.6810   -1.9710 O   0  0  0  0  0  0  0  0  0  0  0  0
   -3.6870   15.0950    0.3110 C   0  0  0  0  0  0  0  0  0  0  0  0
   -2.3580   13.5860   -1.8570 C   0  0  0  0  0  0  0  0  0  0  0  0
   -2.7520   12.4650   -2.8190 C   0  0  0  0  0  0  0  0  0  0  0  0
   -1.7000   12.4470   -3.7990 N   0  0  0  0  0  0  0  0  0  0  0  0
   -1.4410   11.7000   -4.8050 C   0  0  0  0  0  0  0  0  0  0  0  0
   -0.2090   11.9670   -5.6660 C   0  0  0  0  0  0  0  0  0  0  0  0
   -2.2650   10.6320   -5.1480 N   0  0  0  0  0  0  0  0  0  0  0  0
    0.6110   13.2010   -5.3800 C   0  0  0  0  0  0  0  0  0  0  0  0
   -1.8150    9.7540   -6.1740 C   0  0  0  0  0  0  0  0  0  0  0  0
    0.1510   11.1810   -6.6290 N   0  0  0  0  0  0  0  0  0  0  0  0
    1.7420   12.9790   -4.3830 C   0  0  0  0  0  0  0  0  0  0  0  0
   -0.6270   10.0430   -6.8880 C   0  0  0  0  0  0  0  0  0  0  0  0
   -2.5390    8.5960   -6.4920 C   0  0  0  0  0  0  0  0  0  0  0  0
    1.2760   12.4080   -3.0650 C   0  0  0  0  0  0  0  0  0  0  0  0
   -0.1890    9.1830   -7.8920 C   0  0  0  0  0  0  0  0  0  0  0  0
   -2.0880    7.7430   -7.5030 C   0  0  0  0  0  0  0  0  0  0  0  0
    0.5880   11.2580   -3.1740 O   0  0  0  0  0  0  0  0  0  0  0  0
    1.4760   12.8950   -1.9670 O   0  0  0  0  0  0  0  0  0  0  0  0
   -0.9160    8.0350   -8.2030 C   0  0  0  0  0  0  0  0  0  0  0  0
  1  2  2  0
  2  3  1  0
  2  4  1  0
  3  5  1  0
  4  6  1  0
  6  7  1  6
  5  8  2  0
  6  8  1  0
  7  9  1  0
  9 10  1  0
 10 11  1  0
 11 12  2  3
 12 13  1  0
 12 14  1  0
 13 15  1  0
 14 16  1  0
 13 17  2  0
 15 18  1  0
 16 19  2  0
 17 19  1  0
 16 20  1  0
 18 21  1  0
 19 22  1  0
 20 23  2  0
 21 24  1  0
 21 25  2  0
 22 26  2  0
 23 26  1  0
M  END
