diamond-x0628_0_A-diamond-x0926_0_A
     RDKit          3D

 21 22  0  0  0  0  0  0  0  0999 V2000
   -0.7380    8.9990   -7.1460 C   0  0  0  0  0  0  0  0  0  0  0  0
   -0.8590   10.2390   -6.3560 C   0  0  0  0  0  0  0  0  0  0  0  0
   -1.9640   10.5360   -5.6080 N   0  0  0  0  0  0  0  0  0  0  0  0
    0.1040   11.1600   -6.3130 N   0  0  0  0  0  0  0  0  0  0  0  0
   -0.4280   12.0850   -5.4910 N   0  0  0  0  0  0  0  0  0  0  0  0
   -1.6860   11.7070   -5.0640 C   0  0  0  0  0  0  0  0  0  0  0  0
   -2.6000   12.4790   -4.1460 C   0  0  0  0  0  0  0  0  0  0  0  0
    0.3480   13.2690   -5.1910 C   0  0  0  0  0  0  0  0  0  0  0  0
    1.5630   12.9420   -4.3410 C   0  0  0  0  0  0  0  0  0  0  0  0
   -1.9510   13.1970   -2.9550 C   0  0  0  0  0  0  0  0  0  0  0  0
    1.1370   12.2130   -3.1010 C   0  0  0  0  0  0  0  0  0  0  0  0
   -2.4760   14.6340   -2.7750 C   0  0  0  0  0  0  0  0  0  0  0  0
    0.4880   11.1840   -3.0260 O   0  0  0  0  0  0  0  0  0  0  0  0
    1.5460   12.8280   -1.9830 O   0  0  0  0  0  0  0  0  0  0  0  0
   -3.1730   14.8690   -1.4910 N   0  0  0  0  0  0  0  0  0  0  0  0
   -2.5760   14.7510   -0.2540 C   0  0  0  0  0  0  0  0  0  0  0  0
   -4.5380   15.1930   -1.5790 N   0  0  0  0  0  0  0  0  0  0  0  0
   -3.2150   14.9640    0.8990 C   0  0  0  0  0  0  0  0  0  0  0  0
   -5.3370   15.1820   -0.4580 C   0  0  0  0  0  0  0  0  0  0  0  0
   -6.5600   15.0290   -0.5560 O   0  0  0  0  0  0  0  0  0  0  0  0
   -4.6440   15.3570    0.8900 C   0  0  0  0  0  0  0  0  0  0  0  0
  1  2  1  0
  2  3  1  0
  2  4  2  0
  4  5  1  0
  3  6  2  0
  5  6  1  0
  6  7  1  0
  5  8  1  0
  8  9  1  0
  7 10  1  0
  9 11  1  0
 10 12  1  0
 11 13  2  0
 11 14  1  0
 12 15  1  0
 15 16  1  0
 15 17  1  0
 16 18  2  0
 17 19  1  0
 19 20  2  0
 18 21  1  0
 19 21  1  0
M  END
