diamond-x0967_0_A-mac-x0347
     RDKit          3D

 18 20  0  0  0  0  0  0  0  0999 V2000
    1.1790   14.3360   -3.3190 O   0  0  0  0  0  0  0  0  0  0  0  0
    0.2740   13.9650   -2.3930 C   0  0  0  0  0  0  0  0  0  0  0  0
    0.6150   13.7940   -1.2420 O   0  0  0  0  0  0  0  0  0  0  0  0
   -1.1190   13.7980   -2.9670 C   0  0  1  0  0  0  0  0  0  0  0  0
   -2.2280   13.5860   -1.8890 C   0  0  0  0  0  0  0  0  0  0  0  0
   -1.4020   14.8810   -4.0020 C   0  0  0  0  0  0  0  0  0  0  0  0
   -3.2730   14.7250   -1.6420 C   0  0  1  0  0  0  0  0  0  0  0  0
   -2.8010   15.2360   -4.0880 N   0  0  0  0  0  0  0  0  0  0  0  0
   -4.6900   14.2990   -1.6740 N   0  0  0  0  0  0  0  0  0  0  0  0
   -2.9010   15.3030   -0.2810 C   0  0  0  0  0  0  0  0  0  0  0  0
   -3.2030   15.7520   -2.7820 C   0  0  0  0  0  0  0  0  0  0  0  0
   -5.5360   14.4000   -0.5720 C   0  0  0  0  0  0  0  0  0  0  0  0
   -3.7170   15.3790    0.7760 C   0  0  0  0  0  0  0  0  0  0  0  0
   -6.8070   13.9760   -0.7490 N   0  0  0  0  0  0  0  0  0  0  0  0
   -5.0870   14.9090    0.6470 C   0  0  0  0  0  0  0  0  0  0  0  0
   -5.9730   14.9600    1.7160 C   0  0  0  0  0  0  0  0  0  0  0  0
   -7.6460   14.0490    0.3090 C   0  0  0  0  0  0  0  0  0  0  0  0
   -7.2780   14.5240    1.5510 C   0  0  0  0  0  0  0  0  0  0  0  0
  1  2  1  0
  2  3  2  0
  4  2  1  1
  4  5  1  0
  4  6  1  0
  7  5  1  6
  6  8  1  0
  7  9  1  0
  7 10  1  0
  7 11  1  0
  8 11  1  0
  9 12  1  0
 10 13  2  0
 12 14  2  0
 12 15  1  0
 13 15  1  0
 15 16  2  0
 14 17  1  0
 16 18  1  0
 17 18  2  0
M  END
