diamond-x0727_0_A-mac-x0284
     RDKit          3D

 23 24  0  0  0  0  0  0  0  0999 V2000
    0.0740   11.6300   -5.4840 N   0  0  0  0  0  0  0  0  0  0  0  0
    0.7740   12.4680   -4.4840 C   0  0  1  0  0  0  0  0  0  0  0  0
    0.1390   13.8590   -4.3010 C   0  0  0  0  0  0  0  0  0  0  0  0
    0.6960   11.2560   -6.6590 C   0  0  0  0  0  0  0  0  0  0  0  0
    1.6920   11.8310   -7.0400 O   0  0  0  0  0  0  0  0  0  0  0  0
    0.7060   11.7520   -3.1440 C   0  0  0  0  0  0  0  0  0  0  0  0
    0.0790   10.0770   -7.4210 C   0  0  0  0  0  0  0  0  0  0  0  0
    0.1420   10.6900   -2.9190 O   0  0  0  0  0  0  0  0  0  0  0  0
    1.3530   12.4220   -2.1760 O   0  0  0  0  0  0  0  0  0  0  0  0
   -0.2310   14.2450   -2.8390 C   0  0  0  0  0  0  0  0  0  0  0  0
   -1.2090   10.4580   -8.1540 C   0  0  0  0  0  0  0  0  0  0  0  0
   -0.2950    8.8950   -6.5030 C   0  0  0  0  0  0  0  0  0  0  0  0
    0.6350   14.2630   -1.9570 O   0  0  0  0  0  0  0  0  0  0  0  0
   -2.1160    9.2380   -8.0700 C   0  0  0  0  0  0  0  0  0  0  0  0
   -1.7520    8.5550   -6.7630 C   0  0  0  0  0  0  0  0  0  0  0  0
   -1.6490   14.6170   -2.4640 C   0  0  0  0  0  0  0  0  0  0  0  0
   -2.0320   14.7880   -1.1090 C   0  0  0  0  0  0  0  0  0  0  0  0
   -2.6200   14.8050   -3.4540 C   0  0  0  0  0  0  0  0  0  0  0  0
   -2.3150   14.6590   -4.7720 O   0  0  0  0  0  0  0  0  0  0  0  0
   -3.3590   15.1460   -0.7640 C   0  0  0  0  0  0  0  0  0  0  0  0
   -3.9240   15.1500   -3.1150 C   0  0  0  0  0  0  0  0  0  0  0  0
   -3.7790   15.3440    0.6690 C   0  0  0  0  0  0  0  0  0  0  0  0
   -4.2930   15.3220   -1.7870 C   0  0  0  0  0  0  0  0  0  0  0  0
  1  2  1  0
  2  3  1  1
  1  4  1  0
  4  5  2  0
  2  6  1  0
  4  7  1  0
  6  8  2  0
  6  9  1  0
  3 10  1  0
  7 11  1  0
  7 12  1  0
 10 13  2  0
 11 14  1  0
 12 15  1  0
 14 15  1  0
 10 16  1  0
 16 17  2  0
 16 18  1  0
 18 19  1  0
 17 20  1  0
 18 21  2  0
 20 22  1  0
 20 23  2  0
 21 23  1  0
M  END
