diamond-x0950_1_A-diamond-x0905_0_A
     RDKit          3D

 16 16  0  0  0  0  0  0  0  0999 V2000
    1.1210   13.9870   -4.6790 C   0  0  0  0  0  0  0  0  0  0  0  0
    1.3160   12.5220   -4.3220 C   0  0  2  0  0  0  0  0  0  0  0  0
    0.7020   11.7440   -5.3460 O   0  0  0  0  0  0  0  0  0  0  0  0
    0.8150   12.1980   -2.8970 C   0  0  0  0  0  0  0  0  0  0  0  0
    0.2770   11.1440   -2.5670 O   0  0  0  0  0  0  0  0  0  0  0  0
    1.0590   13.2490   -2.0450 O   0  0  0  0  0  0  0  0  0  0  0  0
    0.0850   13.5220   -1.0060 C   0  0  0  0  0  0  0  0  0  0  0  0
   -0.5380   14.9290   -1.0670 C   0  0  0  0  0  0  0  0  0  0  0  0
   -1.4470   15.2900    0.1310 C   0  0  0  0  0  0  0  0  0  0  0  0
   -2.9350   15.2640   -0.1480 C   0  0  0  0  0  0  0  0  0  0  0  0
   -3.8730   15.0920    0.8750 C   0  0  0  0  0  0  0  0  0  0  0  0
   -3.4390   15.4080   -1.4470 C   0  0  0  0  0  0  0  0  0  0  0  0
   -5.2160   15.0540    0.6810 N   0  0  0  0  0  0  0  0  0  0  0  0
   -4.8140   15.3710   -1.6710 C   0  0  0  0  0  0  0  0  0  0  0  0
   -5.6330   15.1930   -0.5840 C   0  0  0  0  0  0  0  0  0  0  0  0
   -6.9810   15.1460   -0.7350 O   0  0  0  0  0  0  0  0  0  0  0  0
  2  1  1  6
  2  3  1  0
  2  4  1  0
  4  5  2  0
  4  6  1  0
  6  7  1  0
  7  8  1  0
  8  9  1  0
  9 10  1  0
 10 11  2  0
 10 12  1  0
 11 13  1  0
 12 14  2  0
 13 15  2  0
 14 15  1  0
 15 16  1  0
M  END
