diamond-x0727_0_A-mac-x0385
     RDKit          3D

 24 25  0  0  0  0  0  0  0  0999 V2000
    0.1230   11.3710   -5.6470 N   0  0  0  0  0  0  0  0  0  0  0  0
    0.8690   12.3260   -4.8300 C   0  0  1  0  0  0  0  0  0  0  0  0
    0.4050   13.7400   -5.1230 C   0  0  0  0  0  0  0  0  0  0  0  0
    0.6880   11.0420   -6.8460 C   0  0  0  0  0  0  0  0  0  0  0  0
    1.6360   11.6520   -7.2630 O   0  0  0  0  0  0  0  0  0  0  0  0
    0.6870   12.0020   -3.3490 C   0  0  0  0  0  0  0  0  0  0  0  0
    0.0630    9.8640   -7.5750 C   0  0  0  0  0  0  0  0  0  0  0  0
    0.1840   10.9760   -2.8900 O   0  0  0  0  0  0  0  0  0  0  0  0
    1.1900   13.0330   -2.6310 O   0  0  0  0  0  0  0  0  0  0  0  0
   -1.2600   10.2370   -8.2460 C   0  0  0  0  0  0  0  0  0  0  0  0
   -0.2530    8.7110   -6.6040 C   0  0  0  0  0  0  0  0  0  0  0  0
    0.2490   13.8900   -1.9670 C   0  0  0  0  0  0  0  0  0  0  0  0
   -2.1600    9.0280   -8.0340 C   0  0  0  0  0  0  0  0  0  0  0  0
   -1.7580    8.5110   -6.6650 C   0  0  0  0  0  0  0  0  0  0  0  0
    0.7650   13.9220   -0.5490 C   0  0  0  0  0  0  0  0  0  0  0  0
    0.0860   14.7300    0.5540 C   0  0  0  0  0  0  0  0  0  0  0  0
   -1.3410   14.9190    0.2930 C   0  0  0  0  0  0  0  0  0  0  0  0
   -2.1340   15.2190    1.3290 N   0  0  0  0  0  0  0  0  0  0  0  0
   -1.7140   14.7810   -0.9830 N   0  0  0  0  0  0  0  0  0  0  0  0
   -3.4220   15.4080    1.0080 C   0  0  0  0  0  0  0  0  0  0  0  0
   -3.0020   14.9730   -1.2440 C   0  0  0  0  0  0  0  0  0  0  0  0
   -4.2630   15.7380    2.0640 N   0  0  0  0  0  0  0  0  0  0  0  0
   -3.9180   15.2970   -0.2830 C   0  0  0  0  0  0  0  0  0  0  0  0
   -5.3450   15.5100   -0.6400 C   0  0  0  0  0  0  0  0  0  0  0  0
  1  2  1  0
  2  3  1  1
  1  4  1  0
  4  5  2  0
  2  6  1  0
  4  7  1  0
  6  8  2  0
  6  9  1  0
  7 10  1  0
  7 11  1  0
  9 12  1  0
 10 13  1  0
 11 14  1  0
 13 14  1  0
 12 15  1  0
 15 16  1  0
 16 17  1  0
 17 18  2  0
 17 19  1  0
 18 20  1  0
 19 21  2  0
 20 22  1  0
 20 23  2  0
 21 23  1  0
 23 24  1  0
M  END
