diamond-x0587_0_A-mac-x0346
     RDKit          3D

 21 22  0  0  0  0  0  0  0  0999 V2000
   -7.1770   14.6890    1.7530 N   0  0  0  0  0  0  0  0  0  0  0  0
   -7.9460   14.4480    0.5640 C   0  0  1  0  0  0  0  0  0  0  0  0
   -9.2210   14.9800    0.8200 O   0  0  0  0  0  0  0  0  0  0  0  0
   -7.4090   15.2670   -0.4400 N   0  0  0  0  0  0  0  0  0  0  0  0
   -7.9910   12.9980    0.1270 C   0  0  2  0  0  0  0  0  0  0  0  0
   -6.1880   15.3870   -1.0080 C   0  0  0  0  0  0  0  0  0  0  0  0
   -8.0930   12.0100    1.2790 C   0  0  0  0  0  0  0  0  0  0  0  0
   -6.8560   12.3780   -0.7830 C   0  0  1  0  0  0  0  0  0  0  0  0
   -5.3530   12.8390   -0.9020 C   0  0  0  0  0  0  0  0  0  0  0  0
   -5.9370   14.8900   -2.1000 O   0  0  0  0  0  0  0  0  0  0  0  0
   -6.9810   10.9330   -0.3330 N   0  0  0  0  0  0  0  0  0  0  0  0
   -5.2030   16.1820   -0.3040 C   0  0  0  0  0  0  0  0  0  0  0  0
   -7.5140   10.8790    0.9380 C   0  0  0  0  0  0  0  0  0  0  0  0
   -4.9100   13.3540    0.2810 F   0  0  0  0  0  0  0  0  0  0  0  0
   -4.6170   11.6980   -1.0670 F   0  0  0  0  0  0  0  0  0  0  0  0
   -4.8280   13.6450   -1.9410 O   0  0  0  0  0  0  0  0  0  0  0  0
   -4.0880   15.9760    0.4280 C   0  0  0  0  0  0  0  0  0  0  0  0
   -3.4940   13.8560   -2.1150 C   0  0  0  0  0  0  0  0  0  0  0  0
   -3.2620   14.8960    0.8740 C   0  0  0  0  0  0  0  0  0  0  0  0
   -2.4810   14.0320   -1.2590 C   0  0  0  0  0  0  0  0  0  0  0  0
   -2.5480   14.0520    0.1600 C   0  0  0  0  0  0  0  0  0  0  0  0
  2  1  1  1
  2  3  1  0
  2  4  1  0
  2  5  1  0
  4  6  1  0
  5  7  1  1
  5  8  1  0
  8  9  1  0
  6 10  2  0
  8 11  1  1
  6 12  1  0
  7 13  2  0
 11 13  1  0
  9 14  1  0
  9 15  1  0
  9 16  1  0
 12 17  2  0
 16 18  1  0
 17 19  1  0
 18 20  2  0
 19 21  2  0
 20 21  1  0
M  END
