diamond-x0926_0_A-mac-x0255
     RDKit          3D

 23 25  0  0  0  0  0  0  0  0999 V2000
   -6.6700   15.0200   -0.3700 O   0  0  0  0  0  0  0  0  0  0  0  0
   -5.4580   15.1960   -0.2970 C   0  0  0  0  0  0  0  0  0  0  0  0
   -4.7610   15.2800    1.0110 C   0  0  0  0  0  0  0  0  0  0  0  0
   -4.6530   15.3250   -1.4120 N   0  0  0  0  0  0  0  0  0  0  0  0
   -3.2340   15.2660   -1.3440 N   0  0  0  0  0  0  0  0  0  0  0  0
   -3.4670   14.9670    1.0720 C   0  0  0  0  0  0  0  0  0  0  0  0
   -2.7350   14.5310   -0.1600 C   0  0  2  0  0  0  0  0  0  0  0  0
   -1.1930   14.5930   -0.0510 C   0  0  0  0  0  0  0  0  0  0  0  0
   -0.5100   14.5550   -1.4300 C   0  0  0  0  0  0  0  0  0  0  0  0
    0.8620   13.9050   -1.3660 C   0  0  0  0  0  0  0  0  0  0  0  0
    0.7440   12.4880   -1.5060 O   0  0  0  0  0  0  0  0  0  0  0  0
    0.6380   12.0100   -2.7850 C   0  0  0  0  0  0  0  0  0  0  0  0
    0.0030   11.0060   -3.0670 O   0  0  0  0  0  0  0  0  0  0  0  0
    1.4040   12.8340   -3.8100 C   0  0  0  0  0  0  0  0  0  0  0  0
    0.6800   14.0820   -4.2480 C   0  0  0  0  0  0  0  0  0  0  0  0
    1.2290   15.3260   -4.4700 C   0  0  0  0  0  0  0  0  0  0  0  0
   -1.0080   14.0970   -4.5400 S   0  0  0  0  0  0  0  0  0  0  0  0
    0.2740   16.3090   -4.8860 C   0  0  0  0  0  0  0  0  0  0  0  0
   -1.0120   15.7690   -4.9670 C   0  0  0  0  0  0  0  0  0  0  0  0
    0.4480   17.6720   -5.2070 C   0  0  0  0  0  0  0  0  0  0  0  0
   -2.1180   16.5530   -5.3590 C   0  0  0  0  0  0  0  0  0  0  0  0
   -0.6410   18.4480   -5.5970 C   0  0  0  0  0  0  0  0  0  0  0  0
   -1.9060   17.8970   -5.6730 C   0  0  0  0  0  0  0  0  0  0  0  0
  1  2  2  0
  2  3  1  0
  2  4  1  0
  4  5  1  0
  3  6  2  0
  5  7  1  0
  6  7  1  0
  7  8  1  1
  8  9  1  0
  9 10  1  0
 10 11  1  0
 11 12  1  0
 12 13  2  0
 12 14  1  0
 14 15  1  0
 15 16  2  0
 15 17  1  0
 16 18  1  0
 17 19  1  0
 18 19  2  0
 18 20  1  0
 19 21  1  0
 20 22  2  0
 21 23  2  0
 22 23  1  0
M  END
