diamond-x0689_0_A-mac-x0373
     RDKit          3D

 24 26  0  0  0  0  0  0  0  0999 V2000
   -3.8460   14.7320    1.9110 N   0  0  0  0  0  0  0  0  0  0  0  0
   -4.5450   15.7560    1.1830 C   0  0  0  0  0  0  0  0  0  0  0  0
   -3.8490   15.5690   -0.0860 C   0  0  0  0  0  0  0  0  0  0  0  0
   -2.6260   14.3920    1.3090 C   0  0  0  0  0  0  0  0  0  0  0  0
   -2.5890   13.8310    0.0840 N   0  0  0  0  0  0  0  0  0  0  0  0
   -1.5200   14.6660    1.9980 N   0  0  0  0  0  0  0  0  0  0  0  0
   -1.3710   13.5590   -0.4410 C   0  0  0  0  0  0  0  0  0  0  0  0
   -0.3360   14.3740    1.4400 C   0  0  0  0  0  0  0  0  0  0  0  0
   -4.4270   15.2370   -1.3080 C   0  0  0  0  0  0  0  0  0  0  0  0
   -2.4950   15.7110    0.0530 C   0  0  0  0  0  0  0  0  0  0  0  0
   -0.1930   13.8170    0.2060 C   0  0  0  0  0  0  0  0  0  0  0  0
   -3.5730   14.9880   -2.3870 C   0  0  0  0  0  0  0  0  0  0  0  0
   -1.6580   15.4730   -0.9930 C   0  0  0  0  0  0  0  0  0  0  0  0
   -2.1770   15.0810   -2.2140 C   0  0  0  0  0  0  0  0  0  0  0  0
   -1.2140   14.7290   -3.3180 C   0  0  1  0  0  0  0  0  0  0  0  0
    0.2040   14.5650   -2.7660 C   0  0  0  0  0  0  0  0  0  0  0  0
   -1.6110   13.3910   -3.9510 C   0  0  0  0  0  0  0  0  0  0  0  0
    0.4690   13.3410   -2.2460 O   0  0  0  0  0  0  0  0  0  0  0  0
    1.0860   15.4010   -2.7450 O   0  0  0  0  0  0  0  0  0  0  0  0
   -1.0150   12.9750   -5.1520 C   0  0  0  0  0  0  0  0  0  0  0  0
   -2.5630   12.5450   -3.3480 C   0  0  0  0  0  0  0  0  0  0  0  0
   -1.3620   11.7510   -5.7320 C   0  0  0  0  0  0  0  0  0  0  0  0
   -2.9080   11.3220   -3.9300 C   0  0  0  0  0  0  0  0  0  0  0  0
   -2.3080   10.9280   -5.1190 C   0  0  0  0  0  0  0  0  0  0  0  0
  1  2  1  0
  2  3  1  0
  1  4  1  0
  4  5  2  0
  4  6  1  0
  5  7  1  0
  6  8  2  0
  3  9  2  0
  3 10  1  0
  7 11  2  0
  8 11  1  0
  9 12  1  0
 10 13  2  0
 12 14  2  0
 13 14  1  0
 14 15  1  0
 15 16  1  1
 15 17  1  0
 16 18  1  0
 16 19  2  0
 17 20  2  0
 17 21  1  0
 20 22  1  0
 21 23  2  0
 22 24  2  0
 23 24  1  0
M  END
