diamond-x0905_0_A-mac-x0161
     RDKit          3D

 19 21  0  0  0  0  0  0  0  0999 V2000
   -6.5610   14.7030   -0.9310 O   0  0  0  0  0  0  0  0  0  0  0  0
   -5.3290   15.3980   -0.8250 C   0  0  1  0  0  0  0  0  0  0  0  0
   -4.8180   15.2600    0.5250 N   0  0  0  0  0  0  0  0  0  0  0  0
   -4.3100   14.9450   -1.8980 C   0  0  0  0  0  0  0  0  0  0  0  0
   -3.6850   14.3190    0.6180 C   0  0  0  0  0  0  0  0  0  0  0  0
   -2.8300   15.3640   -1.5820 C   0  0  2  0  0  0  0  0  0  0  0  0
   -1.7350   15.1620   -2.7380 C   0  0  0  0  0  0  0  0  0  0  0  0
   -2.4180   14.7830   -0.1900 C   0  0  1  0  0  0  0  0  0  0  0  0
   -1.2870   13.7750   -3.2040 C   0  0  0  0  0  0  0  0  0  0  0  0
   -1.6300   15.7350    0.6830 N   0  0  0  0  0  0  0  0  0  0  0  0
   -1.3730   13.7000   -0.3720 C   0  0  0  0  0  0  0  0  0  0  0  0
   -1.7200   12.8840   -4.1770 C   0  0  0  0  0  0  0  0  0  0  0  0
   -0.2040   13.2040   -2.5770 O   0  0  0  0  0  0  0  0  0  0  0  0
   -0.1260   14.4300   -0.4130 N   0  0  0  0  0  0  0  0  0  0  0  0
   -0.2780   15.1850    0.7880 C   0  0  0  0  0  0  0  0  0  0  0  0
    0.0720   11.9530   -3.1270 N   0  0  0  0  0  0  0  0  0  0  0  0
   -0.8420   11.7810   -4.0780 C   0  0  0  0  0  0  0  0  0  0  0  0
   -0.8690   10.6480   -4.8300 O   0  0  0  0  0  0  0  0  0  0  0  0
   -1.8030   10.6500   -5.9050 C   0  0  0  0  0  0  0  0  0  0  0  0
  2  1  1  1
  2  3  1  0
  2  4  1  0
  3  5  1  0
  4  6  1  0
  6  7  1  6
  8  5  1  1
  6  8  1  0
  7  9  1  0
  8 10  1  0
  8 11  1  0
  9 12  2  0
  9 13  1  0
 11 14  1  0
 10 15  1  0
 14 15  1  0
 13 16  1  0
 12 17  1  0
 16 17  2  0
 17 18  1  0
 18 19  1  0
M  END
