diamond-x1012_0_A-diamond-x0895_0_A
     RDKit          3D

 21 22  0  0  0  0  0  0  0  0999 V2000
   -0.8100   17.9490   -5.0280 N   0  0  0  0  0  0  0  0  0  0  0  0
   -1.4370   16.7670   -4.7830 C   0  0  0  0  0  0  0  0  0  0  0  0
   -2.6680   16.8010   -4.4290 N   0  0  0  0  0  0  0  0  0  0  0  0
   -0.6230   15.6820   -4.9550 N   0  0  0  0  0  0  0  0  0  0  0  0
   -3.3610   15.5120   -4.1580 C   0  0  0  0  0  0  0  0  0  0  0  0
   -1.1880   14.3570   -5.2070 C   0  0  0  0  0  0  0  0  0  0  0  0
    0.7800   15.7080   -4.5260 C   0  0  0  0  0  0  0  0  0  0  0  0
   -3.1010   14.9540   -2.7420 C   0  0  0  0  0  0  0  0  0  0  0  0
   -1.0680   13.4660   -3.9880 C   0  0  0  0  0  0  0  0  0  0  0  0
    1.0530   14.6940   -3.3980 C   0  0  0  0  0  0  0  0  0  0  0  0
   -4.2180   15.2010   -1.8080 N   0  0  0  0  0  0  0  0  0  0  0  0
    0.3960   13.3090   -3.6190 C   0  0  0  0  0  0  0  0  0  0  0  0
    0.4820   12.4120   -2.4070 C   0  0  0  0  0  0  0  0  0  0  0  0
   -3.9710   15.0560   -0.5650 C   0  0  0  0  0  0  0  0  0  0  0  0
    0.3760   11.1110   -2.7360 O   0  0  0  0  0  0  0  0  0  0  0  0
    0.6150   12.7410   -1.2410 O   0  0  0  0  0  0  0  0  0  0  0  0
   -4.7300   15.2120    0.5500 N   0  0  0  0  0  0  0  0  0  0  0  0
   -2.7360   14.6780   -0.1680 N   0  0  0  0  0  0  0  0  0  0  0  0
   -3.8240   15.7070    1.5640 C   0  0  0  0  0  0  0  0  0  0  0  0
   -2.5730   14.9240    1.1690 C   0  0  0  0  0  0  0  0  0  0  0  0
   -1.6270   14.5880    1.8680 O   0  0  0  0  0  0  0  0  0  0  0  0
  1  2  1  0
  2  3  2  3
  2  4  1  0
  3  5  1  0
  4  6  1  0
  4  7  1  0
  5  8  1  0
  6  9  1  0
  7 10  1  0
  8 11  1  0
  9 12  1  0
 10 12  1  0
 12 13  1  0
 11 14  2  3
 13 15  1  0
 13 16  2  0
 14 17  1  0
 14 18  1  0
 17 19  1  0
 18 20  1  0
 19 20  1  0
 20 21  2  0
M  END
