diamond-x0128_0_A-mac-x0415
     RDKit          3D

 33 36  0  0  0  0  0  0  0  0999 V2000
   -6.6530   14.6740    2.4840 N   0  0  0  0  0  0  0  0  0  0  0  0
   -7.8390   15.1880    2.9770 C   0  0  0  0  0  0  0  0  0  0  0  0
   -8.8130   15.5250    2.3160 O   0  0  0  0  0  0  0  0  0  0  0  0
   -6.0960   14.7750    1.1900 C   0  0  0  0  0  0  0  0  0  0  0  0
   -7.7370   15.2610    4.3530 N   0  0  0  0  0  0  0  0  0  0  0  0
   -6.8400   14.6530    0.0210 C   0  0  0  0  0  0  0  0  0  0  0  0
   -4.7140   15.0140    1.0910 C   0  0  0  0  0  0  0  0  0  0  0  0
   -6.2230   14.7590   -1.2280 C   0  0  0  0  0  0  0  0  0  0  0  0
   -4.0960   15.1210   -0.1590 C   0  0  0  0  0  0  0  0  0  0  0  0
   -8.5050   16.0710    5.2280 C   0  0  0  0  0  0  0  0  0  0  0  0
   -4.8440   14.9890   -1.3340 C   0  0  0  0  0  0  0  0  0  0  0  0
   -9.1830   17.2300    4.8560 C   0  0  0  0  0  0  0  0  0  0  0  0
   -8.6000   15.6930    6.5720 C   0  0  0  0  0  0  0  0  0  0  0  0
   -4.1890   15.0830   -2.6930 C   0  0  0  0  0  0  0  0  0  0  0  0
   -9.9200   17.9950    5.6990 N   0  0  0  0  0  0  0  0  0  0  0  0
   -9.3510   16.4650    7.4610 C   0  0  0  0  0  0  0  0  0  0  0  0
   -5.0770   14.4570   -3.7790 C   0  0  0  0  0  0  0  0  0  0  0  0
   -9.9870   17.5980    6.9810 C   0  0  0  0  0  0  0  0  0  0  0  0
   -4.4620   14.4830   -5.1850 C   0  0  0  0  0  0  0  0  0  0  0  0
   -3.8720   15.7460   -5.5200 O   0  0  0  0  0  0  0  0  0  0  0  0
   -2.5110   15.8310   -5.3080 C   0  0  0  0  0  0  0  0  0  0  0  0
   -1.8630   17.0820   -5.7320 C   0  0  0  0  0  0  0  0  0  0  0  0
   -1.8060   14.8140   -4.7500 C   0  0  0  0  0  0  0  0  0  0  0  0
   -0.3900   15.0040   -4.5780 C   0  0  0  0  0  0  0  0  0  0  0  0
   -0.6130   17.3770   -5.3190 C   0  0  0  0  0  0  0  0  0  0  0  0
    0.6330   14.1490   -4.5120 C   0  0  0  0  0  0  0  0  0  0  0  0
    0.0620   16.4110   -4.4110 C   0  0  2  0  0  0  0  0  0  0  0  0
    0.7920   12.6850   -4.5600 C   0  0  0  0  0  0  0  0  0  0  0  0
    1.7500   15.0780   -4.3820 C   0  0  0  0  0  0  0  0  0  0  0  0
    1.4940   16.3450   -4.3660 N   0  0  0  0  0  0  0  0  0  0  0  0
    0.6900   12.1700   -3.1370 C   0  0  0  0  0  0  0  0  0  0  0  0
    0.0530   10.9880   -3.0150 O   0  0  0  0  0  0  0  0  0  0  0  0
    1.1380   12.7640   -2.1670 O   0  0  0  0  0  0  0  0  0  0  0  0
  1  2  1  0
  2  3  2  0
  1  4  1  0
  2  5  1  0
  4  6  2  0
  4  7  1  0
  6  8  1  0
  7  9  2  0
  5 10  1  0
  8 11  2  0
  9 11  1  0
 10 12  2  0
 10 13  1  0
 11 14  1  0
 12 15  1  0
 13 16  2  0
 14 17  1  0
 15 18  2  0
 16 18  1  0
 17 19  1  0
 19 20  1  0
 20 21  1  0
 21 22  1  0
 21 23  2  0
 23 24  1  0
 22 25  2  0
 24 26  2  0
 24 27  1  0
 27 25  1  6
 26 28  1  0
 26 29  1  0
 27 30  1  0
 29 30  2  0
 28 31  1  0
 31 32  1  0
 31 33  2  0
M  END
