diamond-x0962_3_A-mac-x0417
     RDKit          3D

 15 16  0  0  0  0  0  0  0  0999 V2000
    1.5950   11.5120   -9.9610 N   0  0  0  0  0  0  0  0  0  0  0  0
    1.0290   10.9300   -9.1580 C   0  0  0  0  0  0  0  0  0  0  0  0
    0.2140   10.1590   -8.3430 C   0  0  0  0  0  0  0  0  0  0  0  0
   -0.3100    9.0810   -8.9710 N   0  0  0  0  0  0  0  0  0  0  0  0
   -0.0570   10.4440   -7.0170 C   0  0  0  0  0  0  0  0  0  0  0  0
   -1.1220    8.2820   -8.2960 C   0  0  0  0  0  0  0  0  0  0  0  0
   -0.9170    9.5120   -6.4880 C   0  0  0  0  0  0  0  0  0  0  0  0
    0.1950   11.3440   -5.9080 C   0  0  0  0  0  0  0  0  0  0  0  0
    0.9710   12.5550   -5.5600 C   0  0  0  0  0  0  0  0  0  0  0  0
   -1.4840    8.4350   -7.0420 N   0  0  0  0  0  0  0  0  0  0  0  0
   -0.4690   10.9490   -4.8720 N   0  0  0  0  0  0  0  0  0  0  0  0
   -1.1450    9.8320   -5.2300 O   0  0  0  0  0  0  0  0  0  0  0  0
    1.0330   12.4950   -4.0280 C   0  0  0  0  0  0  0  0  0  0  0  0
    1.2670   13.6670   -3.4230 O   0  0  0  0  0  0  0  0  0  0  0  0
    0.8850   11.5060   -3.3220 O   0  0  0  0  0  0  0  0  0  0  0  0
  1  2  3  0
  2  3  1  0
  3  4  2  0
  3  5  1  0
  4  6  1  0
  5  7  2  0
  5  8  1  0
  8  9  1  0
  6 10  2  0
  7 10  1  0
  8 11  2  0
  7 12  1  0
 11 12  1  0
  9 13  1  0
 13 14  1  0
 13 15  2  0
M  END
