diamond-x0587_0_A-diamond-x1015_0_A
     RDKit          3D

 30 32  0  0  0  0  0  0  0  0999 V2000
   -7.7000   14.9650    4.1270 N   0  0  0  0  0  0  0  0  0  0  0  0
   -8.2130   14.9200    2.8640 C   0  0  0  0  0  0  0  0  0  0  0  0
   -9.4200   14.9990    2.6690 O   0  0  0  0  0  0  0  0  0  0  0  0
   -7.2770   14.7940    1.7350 C   0  0  0  0  0  0  0  0  0  0  0  0
   -7.7430   14.4550    0.4920 C   0  0  0  0  0  0  0  0  0  0  0  0
   -5.9150   15.0070    1.8030 C   0  0  0  0  0  0  0  0  0  0  0  0
   -6.9460   14.3380   -0.5890 N   0  0  0  0  0  0  0  0  0  0  0  0
   -5.0600   14.9020    0.7570 N   0  0  0  0  0  0  0  0  0  0  0  0
   -5.6140   14.5670   -0.4300 C   0  0  0  0  0  0  0  0  0  0  0  0
   -4.7550   14.4170   -1.6990 C   0  0  0  0  0  0  0  0  0  0  0  0
   -3.4890   15.0740   -1.7670 O   0  0  0  0  0  0  0  0  0  0  0  0
   -4.5660   13.1080   -2.0280 F   0  0  0  0  0  0  0  0  0  0  0  0
   -5.4030   14.9430   -2.7750 F   0  0  0  0  0  0  0  0  0  0  0  0
   -3.2230   15.2640   -3.1580 C   0  0  0  0  0  0  0  0  0  0  0  0
   -1.7350   15.2660   -3.4780 C   0  0  0  0  0  0  0  0  0  0  0  0
   -1.2630   14.1110   -4.3520 C   0  0  0  0  0  0  0  0  0  0  0  0
    0.1190   13.5520   -4.0010 C   0  0  2  0  0  0  0  0  0  0  0  0
    0.1870   12.1100   -3.9830 N   0  0  0  0  0  0  0  0  0  0  0  0
    0.5060   13.8790   -2.5640 C   0  0  0  0  0  0  0  0  0  0  0  0
    0.7770   14.9840   -2.1170 O   0  0  0  0  0  0  0  0  0  0  0  0
    0.3040   11.6510   -2.6590 C   0  0  0  0  0  0  0  0  0  0  0  0
    0.5140   12.7310   -1.8520 N   0  0  0  0  0  0  0  0  0  0  0  0
   -0.3120   11.3440   -5.0670 C   0  0  0  0  0  0  0  0  0  0  0  0
    0.2450   10.4990   -2.2310 O   0  0  0  0  0  0  0  0  0  0  0  0
    0.1680   11.5440   -6.3650 C   0  0  0  0  0  0  0  0  0  0  0  0
   -1.3020   10.3650   -4.8740 C   0  0  0  0  0  0  0  0  0  0  0  0
   -0.3140   10.7940   -7.4410 C   0  0  0  0  0  0  0  0  0  0  0  0
   -1.7890    9.6110   -5.9480 C   0  0  0  0  0  0  0  0  0  0  0  0
   -1.2910    9.8300   -7.2260 C   0  0  0  0  0  0  0  0  0  0  0  0
   -1.8860    8.9010   -8.5470 Cl  0  0  0  0  0  0  0  0  0  0  0  0
  1  2  1  0
  2  3  2  0
  2  4  1  0
  4  5  2  0
  4  6  1  0
  5  7  1  0
  6  8  2  0
  7  9  2  0
  8  9  1  0
  9 10  1  0
 10 11  1  0
 10 12  1  0
 10 13  1  0
 11 14  1  0
 14 15  1  0
 15 16  1  0
 17 16  1  1
 17 18  1  0
 17 19  1  0
 19 20  2  0
 18 21  1  0
 19 22  1  0
 21 22  1  0
 18 23  1  0
 21 24  2  0
 23 25  2  0
 23 26  1  0
 25 27  1  0
 26 28  2  0
 27 29  2  0
 28 29  1  0
 29 30  1  0
M  END
