diamond-x0128_0_A-diamond-x0685_1_A
     RDKit          3D

 32 34  0  0  0  0  0  0  0  0999 V2000
   -6.6550   14.5640    2.4510 N   0  0  0  0  0  0  0  0  0  0  0  0
   -7.7520   15.1990    3.0270 C   0  0  0  0  0  0  0  0  0  0  0  0
   -8.7660   15.5190    2.4110 O   0  0  0  0  0  0  0  0  0  0  0  0
   -6.0670   14.7840    1.1870 C   0  0  0  0  0  0  0  0  0  0  0  0
   -7.5350   15.4220    4.3870 N   0  0  0  0  0  0  0  0  0  0  0  0
   -6.8780   14.8020    0.0500 C   0  0  0  0  0  0  0  0  0  0  0  0
   -4.6860   14.9850    1.0370 C   0  0  0  0  0  0  0  0  0  0  0  0
   -6.3170   15.0230   -1.2080 C   0  0  0  0  0  0  0  0  0  0  0  0
   -4.1080   15.2010   -0.2200 C   0  0  0  0  0  0  0  0  0  0  0  0
   -8.3870   16.1060    5.2970 C   0  0  0  0  0  0  0  0  0  0  0  0
   -2.6080   15.4050   -0.3280 C   0  0  0  0  0  0  0  0  0  0  0  0
   -4.9400   15.2210   -1.3460 C   0  0  0  0  0  0  0  0  0  0  0  0
   -9.0720   17.2440    4.8680 C   0  0  0  0  0  0  0  0  0  0  0  0
   -8.5980   15.7220    6.6200 C   0  0  0  0  0  0  0  0  0  0  0  0
   -1.9280   14.6660   -1.4980 C   0  0  0  0  0  0  0  0  0  0  0  0
   -9.9110   17.9840    5.6300 N   0  0  0  0  0  0  0  0  0  0  0  0
   -9.4570   16.4650    7.4350 C   0  0  0  0  0  0  0  0  0  0  0  0
   -1.2480   13.3310   -1.1440 C   0  0  0  0  0  0  0  0  0  0  0  0
  -10.0840   17.5780    6.9000 C   0  0  0  0  0  0  0  0  0  0  0  0
    0.1100   13.3040   -1.5990 O   0  0  0  0  0  0  0  0  0  0  0  0
    0.6140   12.2140   -2.6880 S   0  0  0  0  0  0  0  0  0  0  0  0
   -0.1270   12.6480   -4.2590 C   0  0  0  0  0  0  0  0  0  0  0  0
    2.1940   12.3030   -2.9360 O   0  0  0  0  0  0  0  0  0  0  0  0
    0.1790   10.6890   -2.3610 O   0  0  0  0  0  0  0  0  0  0  0  0
   -1.4770   11.9740   -4.4640 C   0  0  0  0  0  0  0  0  0  0  0  0
   -1.3750   10.5750   -4.9030 N   0  0  0  0  0  0  0  0  0  0  0  0
   -0.7620   10.3900   -6.2260 C   0  0  0  0  0  0  0  0  0  0  0  0
   -0.5940    8.8700   -6.4330 C   0  0  0  0  0  0  0  0  0  0  0  0
   -1.5810   11.0270   -7.3700 C   0  0  0  0  0  0  0  0  0  0  0  0
    0.0720    8.5870   -7.7710 C   0  0  0  0  0  0  0  0  0  0  0  0
   -1.0180   10.6960   -8.7490 C   0  0  0  0  0  0  0  0  0  0  0  0
   -0.7420    9.1960   -8.9160 C   0  0  0  0  0  0  0  0  0  0  0  0
  1  2  1  0
  2  3  2  0
  1  4  1  0
  2  5  1  0
  4  6  2  0
  4  7  1  0
  6  8  1  0
  7  9  2  0
  5 10  1  0
  9 11  1  0
  8 12  2  0
  9 12  1  0
 10 13  2  0
 10 14  1  0
 11 15  1  0
 13 16  1  0
 14 17  2  0
 15 18  1  0
 16 19  2  0
 17 19  1  0
 18 20  1  0
 21 20  1  0
 21 22  1  0
 21 23  1  0
 21 24  1  0
 22 25  1  0
 25 26  1  0
 26 27  1  0
 27 28  1  0
 27 29  1  0
 28 30  1  0
 29 31  1  0
 30 32  1  0
 31 32  1  0
M  END
