diamond-x0962_2_B-diamond-x1018_0_A
     RDKit          3D

 18 20  0  0  0  0  0  0  0  0999 V2000
  -10.2570   16.4350    1.2430 N   0  0  0  0  0  0  0  0  0  0  0  0
   -9.9620   15.1390    1.8520 C   0  0  1  0  0  0  0  0  0  0  0  0
   -9.1530   14.2210    0.9250 C   0  0  0  0  0  0  0  0  0  0  0  0
   -9.1850   15.2740    3.0960 C   0  0  0  0  0  0  0  0  0  0  0  0
   -8.3270   15.0030   -0.0820 C   0  0  0  0  0  0  0  0  0  0  0  0
   -9.1340   16.3530    3.9450 N   0  0  0  0  0  0  0  0  0  0  0  0
   -8.3500   14.3440    3.6610 C   0  0  0  0  0  0  0  0  0  0  0  0
   -8.2850   16.0180    4.9600 C   0  0  0  0  0  0  0  0  0  0  0  0
   -7.8040   14.8100    4.8120 N   0  0  0  0  0  0  0  0  0  0  0  0
   -6.8090   14.8540   -0.1100 C   0  0  0  0  0  0  0  0  0  0  0  0
   -6.3160   14.9040   -1.3000 N   0  0  0  0  0  0  0  0  0  0  0  0
   -5.9790   14.7140    1.1490 C   0  0  0  0  0  0  0  0  0  0  0  0
   -4.9780   14.8360   -1.3350 N   0  0  0  0  0  0  0  0  0  0  0  0
   -4.6370   14.6620    1.0030 C   0  0  0  0  0  0  0  0  0  0  0  0
   -4.3010   14.8810   -2.4860 N   0  0  0  0  0  0  0  0  0  0  0  0
   -4.0950   14.7240   -0.2900 C   0  0  0  0  0  0  0  0  0  0  0  0
   -2.8770   14.6990   -0.7780 N   0  0  0  0  0  0  0  0  0  0  0  0
   -3.0260   14.7980   -2.1440 N   0  0  0  0  0  0  0  0  0  0  0  0
  2  1  1  6
  2  3  1  0
  2  4  1  0
  3  5  1  0
  4  6  1  0
  4  7  2  0
  6  8  1  0
  7  9  1  0
  8  9  2  0
  5 10  1  0
 10 11  2  0
 10 12  1  0
 11 13  1  0
 12 14  2  0
 13 15  1  0
 13 16  1  0
 14 16  1  0
 16 17  2  0
 15 18  2  0
 17 18  1  0
M  END
