diamond-x0910_0_A-mac-x0392
     RDKit          3D

  8  8  0  0  0  0  0  0  0  0999 V2000
   -1.5190   14.6460   -2.2340 C   0  0  0  0  0  0  0  0  0  0  0  0
   -0.3190   14.6630   -2.8800 O   0  0  0  0  0  0  0  0  0  0  0  0
   -2.5450   14.6120   -2.8860 O   0  0  0  0  0  0  0  0  0  0  0  0
   -1.2700   14.6850   -0.8270 C   0  0  0  0  0  0  0  0  0  0  0  0
   -2.1780   14.7620    0.1940 N   0  0  0  0  0  0  0  0  0  0  0  0
   -0.0640   14.6570   -0.3170 N   0  0  0  0  0  0  0  0  0  0  0  0
   -1.5600   14.7850    1.3840 N   0  0  0  0  0  0  0  0  0  0  0  0
   -0.2820   14.7200    1.0210 C   0  0  0  0  0  0  0  0  0  0  0  0
  1  2  1  0
  1  3  2  0
  1  4  1  0
  4  5  1  0
  4  6  2  0
  5  7  1  0
  6  8  1  0
  7  8  2  0
M  END
