diamond-x1015_0_A-diamond-x0962_1_A
     RDKit          3D

 24 26  0  0  0  0  0  0  0  0999 V2000
   -0.9440   14.2500   -4.7260 C   0  0  0  0  0  0  0  0  0  0  0  0
    0.2380   13.5660   -4.0360 C   0  0  2  0  0  0  0  0  0  0  0  0
    0.0970   12.1110   -4.0070 N   0  0  0  0  0  0  0  0  0  0  0  0
    0.1250   13.8140   -2.5550 C   0  0  0  0  0  0  0  0  0  0  0  0
   -0.2180   14.8470   -1.9120 N   0  0  0  0  0  0  0  0  0  0  0  0
    0.2460   11.6220   -2.6920 C   0  0  0  0  0  0  0  0  0  0  0  0
    0.4450   12.6920   -1.8840 N   0  0  0  0  0  0  0  0  0  0  0  0
   -0.3800   11.3530   -5.1030 C   0  0  0  0  0  0  0  0  0  0  0  0
    0.2180   10.4630   -2.2840 O   0  0  0  0  0  0  0  0  0  0  0  0
   -0.2990   14.7990   -0.4590 C   0  0  0  0  0  0  0  0  0  0  0  0
    0.1320   11.5580   -6.3960 C   0  0  0  0  0  0  0  0  0  0  0  0
   -1.3700   10.3750   -4.9420 C   0  0  0  0  0  0  0  0  0  0  0  0
   -1.3120   15.8590   -0.0460 C   0  0  0  0  0  0  0  0  0  0  0  0
   -0.3310   10.8110   -7.4810 C   0  0  0  0  0  0  0  0  0  0  0  0
   -1.8370    9.6250   -6.0230 C   0  0  0  0  0  0  0  0  0  0  0  0
   -2.7470   15.4850   -0.1630 C   0  0  0  0  0  0  0  0  0  0  0  0
   -1.3140    9.8460   -7.2920 C   0  0  0  0  0  0  0  0  0  0  0  0
   -1.8830    8.9220   -8.6220 Cl  0  0  0  0  0  0  0  0  0  0  0  0
   -3.9190   15.2260   -0.0880 C   0  0  0  0  0  0  0  0  0  0  0  0
   -5.2780   14.9420    0.1910 C   0  0  0  0  0  0  0  0  0  0  0  0
   -5.7260   14.5850    1.4340 N   0  0  0  0  0  0  0  0  0  0  0  0
   -6.4090   14.9430   -0.5950 C   0  0  0  0  0  0  0  0  0  0  0  0
   -7.0660   14.3890    1.3650 C   0  0  0  0  0  0  0  0  0  0  0  0
   -7.5160   14.5960    0.1520 N   0  0  0  0  0  0  0  0  0  0  0  0
  2  1  1  6
  2  3  1  0
  2  4  1  0
  4  5  2  3
  3  6  1  0
  4  7  1  0
  6  7  1  0
  3  8  1  0
  6  9  2  0
  5 10  1  0
  8 11  2  0
  8 12  1  0
 10 13  1  0
 11 14  1  0
 12 15  2  0
 13 16  1  0
 14 17  2  0
 15 17  1  0
 17 18  1  0
 16 19  3  0
 19 20  1  0
 20 21  1  0
 20 22  2  0
 21 23  1  0
 22 24  1  0
 23 24  2  0
M  END
