diamond-x0371_0_A-mac-x0496
     RDKit          3D

 30 34  0  0  0  0  0  0  0  0999 V2000
   -9.0560   14.8340    0.9700 N   0  0  0  0  0  0  0  0  0  0  0  0
   -8.4940   15.4340    2.1160 C   0  0  0  0  0  0  0  0  0  0  0  0
   -7.3550   15.1320    2.4710 O   0  0  0  0  0  0  0  0  0  0  0  0
   -9.8390   13.6860    1.1750 C   0  0  1  0  0  0  0  0  0  0  0  0
   -8.1990   14.3000    0.0750 C   0  0  0  0  0  0  0  0  0  0  0  0
   -8.5990   14.0240   -1.0570 O   0  0  0  0  0  0  0  0  0  0  0  0
   -8.7710   12.8760    1.8050 C   0  0  0  0  0  0  0  0  0  0  0  0
   -9.2300   16.4290    2.8780 C   0  0  0  0  0  0  0  0  0  0  0  0
   -6.7490   14.0120    0.3470 C   0  0  0  0  0  0  0  0  0  0  0  0
  -11.0690   13.9150    2.0200 C   0  0  0  0  0  0  0  0  0  0  0  0
   -7.3400   13.0440    1.4530 C   0  0  0  0  0  0  0  0  0  0  0  0
   -8.5370   17.1800    3.7890 O   0  0  0  0  0  0  0  0  0  0  0  0
  -10.5520   16.8140    2.8900 C   0  0  0  0  0  0  0  0  0  0  0  0
   -5.3550   13.7360    0.6080 C   0  0  0  0  0  0  0  0  0  0  0  0
  -12.2630   13.9200    1.3540 O   0  0  0  0  0  0  0  0  0  0  0  0
  -11.2070   14.1190    3.3220 N   0  0  0  0  0  0  0  0  0  0  0  0
   -9.2290   11.9800    2.7700 C   0  0  0  0  0  0  0  0  0  0  0  0
   -4.3870   14.4700   -0.2150 C   0  0  0  0  0  0  0  0  0  0  0  0
   -8.4700   11.1810    3.5020 N   0  0  0  0  0  0  0  0  0  0  0  0
   -6.5780   12.1650    2.3270 C   0  0  0  0  0  0  0  0  0  0  0  0
  -10.6710   17.8450    3.8620 C   0  0  0  0  0  0  0  0  0  0  0  0
   -9.4150   18.0330    4.3830 C   0  0  0  0  0  0  0  0  0  0  0  0
   -4.6420   12.9130    1.4530 C   0  0  0  0  0  0  0  0  0  0  0  0
  -12.5640   14.2560    3.4530 C   0  0  0  0  0  0  0  0  0  0  0  0
  -13.2500   14.1430    2.3160 N   0  0  0  0  0  0  0  0  0  0  0  0
   -4.1040   15.6500   -0.1300 O   0  0  0  0  0  0  0  0  0  0  0  0
   -3.8270   13.6380   -1.1100 O   0  0  0  0  0  0  0  0  0  0  0  0
  -13.2230   14.5140    4.7500 C   0  0  0  0  0  0  0  0  0  0  0  0
   -5.2500   12.1140    2.3040 C   0  0  0  0  0  0  0  0  0  0  0  0
   -7.1670   11.3130    3.2610 C   0  0  0  0  0  0  0  0  0  0  0  0
  1  2  1  0
  2  3  2  0
  1  4  1  0
  1  5  1  0
  5  6  2  0
  4  7  1  0
  2  8  1  0
  5  9  1  0
  4 10  1  1
  7 11  1  0
  9 11  2  0
  8 12  1  0
  8 13  2  0
  9 14  1  0
 10 15  1  0
 10 16  2  0
  7 17  2  0
 14 18  1  0
 17 19  1  0
 11 20  1  0
 13 21  1  0
 12 22  1  0
 21 22  2  0
 14 23  2  0
 16 24  1  0
 15 25  1  0
 24 25  2  0
 18 26  2  0
 18 27  1  0
 24 28  1  0
 20 29  2  0
 23 29  1  0
 19 30  2  0
 20 30  1  0
M  END
