diamond-x0926_0_A-mac-x0337
     RDKit          3D

 17 18  0  0  0  0  0  0  0  0999 V2000
   -5.4740   15.0250   -0.7260 N   0  0  0  0  0  0  0  0  0  0  0  0
   -4.6420   14.6380   -2.0260 S   0  0  0  0  0  0  0  0  0  0  0  0
   -5.1440   15.1960   -3.2370 O   0  0  0  0  0  0  0  0  0  0  0  0
   -4.4560   15.3700   -0.1410 C   0  0  0  0  0  0  0  0  0  0  0  0
   -3.2310   14.7830   -1.7410 O   0  0  0  0  0  0  0  0  0  0  0  0
   -4.3590   15.7790    1.2990 C   0  0  0  0  0  0  0  0  0  0  0  0
   -3.2830   15.3570   -0.8350 N   0  0  0  0  0  0  0  0  0  0  0  0
   -4.9080   12.9070   -2.0080 C   0  0  0  0  0  0  0  0  0  0  0  0
   -2.1850   14.8200   -0.2790 N   0  0  0  0  0  0  0  0  0  0  0  0
   -3.1520   15.1160    1.8510 C   0  0  0  0  0  0  0  0  0  0  0  0
   -4.0400   12.0860   -2.7130 C   0  0  0  0  0  0  0  0  0  0  0  0
   -5.9870   12.4040   -1.2910 C   0  0  0  0  0  0  0  0  0  0  0  0
   -2.1570   14.6850    1.0670 C   0  0  0  0  0  0  0  0  0  0  0  0
   -4.2730   10.7180   -2.7190 C   0  0  0  0  0  0  0  0  0  0  0  0
   -6.2150   11.0370   -1.3000 C   0  0  0  0  0  0  0  0  0  0  0  0
   -5.3660   10.1880   -2.0230 C   0  0  0  0  0  0  0  0  0  0  0  0
   -5.6300    8.7120   -2.0580 C   0  0  0  0  0  0  0  0  0  0  0  0
  2  1  1  0
  2  3  2  0
  1  4  2  3
  2  5  2  0
  4  6  1  0
  4  7  1  0
  2  8  1  0
  7  9  1  0
  6 10  1  0
  8 11  2  0
  8 12  1  0
  9 13  1  0
 10 13  2  0
 11 14  1  0
 12 15  2  0
 14 16  2  0
 15 16  1  0
 16 17  1  0
M  END
