diamond-x0685_1_A-diamond-x0855_0_A
     RDKit          3D

 19 20  0  0  0  0  0  0  0  0999 V2000
    0.2100   11.1690   -5.8760 N   0  0  0  0  0  0  0  0  0  0  0  0
    0.4880   12.5040   -5.2900 C   0  0  0  0  0  0  0  0  0  0  0  0
   -0.3610   12.5340   -4.0570 C   0  0  2  0  0  0  0  0  0  0  0  0
    0.0070   11.1380   -7.3190 C   0  0  0  0  0  0  0  0  0  0  0  0
    0.7250    9.9300   -7.9550 C   0  0  0  0  0  0  0  0  0  0  0  0
   -1.4850   11.1360   -7.6960 C   0  0  0  0  0  0  0  0  0  0  0  0
    0.5760   11.9820   -2.5890 S   0  0  0  0  0  0  0  0  0  0  0  0
   -0.1250    8.6840   -7.9960 C   0  0  0  0  0  0  0  0  0  0  0  0
   -1.7020   10.4150   -9.0180 C   0  0  0  0  0  0  0  0  0  0  0  0
   -1.3500   11.6150   -4.5550 N   0  0  0  0  0  0  0  0  0  0  0  0
    2.1150   12.3440   -2.8680 O   0  0  0  0  0  0  0  0  0  0  0  0
    0.4050   10.3890   -2.4420 O   0  0  0  0  0  0  0  0  0  0  0  0
    0.0640   12.7140   -1.2580 O   0  0  0  0  0  0  0  0  0  0  0  0
   -1.3050    8.9350   -8.9350 C   0  0  0  0  0  0  0  0  0  0  0  0
   -1.0620   10.3870   -5.1090 C   0  0  0  0  0  0  0  0  0  0  0  0
   -2.6650   11.9100   -4.5430 N   0  0  0  0  0  0  0  0  0  0  0  0
   -2.2620    9.8750   -5.4840 C   0  0  0  0  0  0  0  0  0  0  0  0
   -3.2150   10.8310   -5.1180 C   0  0  0  0  0  0  0  0  0  0  0  0
   -2.6160    8.2460   -6.3200 Br  0  0  0  0  0  0  0  0  0  0  0  0
  1  2  1  0
  3  2  1  6
  1  4  1  0
  4  5  1  0
  4  6  1  0
  3  7  1  0
  5  8  1  0
  6  9  1  0
  3 10  1  0
  7 11  1  0
  7 12  1  0
  7 13  1  0
  8 14  1  0
  9 14  1  0
 10 15  1  0
 10 16  1  0
 15 17  2  0
 16 18  2  0
 17 18  1  0
 17 19  1  0
M  END
