diamond-x0574_0_A-mac-x0348
     RDKit          3D

 29 32  0  0  0  0  0  0  0  0999 V2000
    0.1010   14.2880    2.1090 N   0  0  0  0  0  0  0  0  0  0  0  0
   -0.5740   14.2790    0.8590 C   0  0  1  0  0  0  0  0  0  0  0  0
   -1.8600   13.6080    0.8590 N   0  0  0  0  0  0  0  0  0  0  0  0
   -0.8990   15.8720    0.0500 S   0  0  0  0  0  0  0  0  0  0  0  0
   -2.0990   13.3970   -0.6040 C   0  0  0  0  0  0  0  0  0  0  0  0
   -2.7760   14.6970    1.1280 C   0  0  1  0  0  0  0  0  0  0  0  0
   -2.5340   15.1600   -0.2740 C   0  0  1  0  0  0  0  0  0  0  0  0
   -0.8470   13.5910   -1.4790 C   0  0  0  0  0  0  0  0  0  0  0  0
   -4.2410   14.3720    1.5230 C   0  0  0  0  0  0  0  0  0  0  0  0
   -3.6230   15.8570   -0.9470 C   0  0  0  0  0  0  0  0  0  0  0  0
   -0.1290   12.3360   -1.5590 N   0  0  0  0  0  0  0  0  0  0  0  0
   -5.2610   14.5260    0.3770 C   0  0  2  0  0  0  0  0  0  0  0  0
   -4.8940   15.5700   -0.6480 C   0  0  0  0  0  0  0  0  0  0  0  0
   -6.5620   14.8730    0.8590 O   0  0  0  0  0  0  0  0  0  0  0  0
    0.3780   12.1450   -2.7000 C   0  0  0  0  0  0  0  0  0  0  0  0
   -6.7850   14.5290    2.2220 C   0  0  0  0  0  0  0  0  0  0  0  0
    0.2930   13.1450   -3.8270 C   0  0  0  0  0  0  0  0  0  0  0  0
    1.0050   11.0230   -2.9600 O   0  0  0  0  0  0  0  0  0  0  0  0
    0.6970   14.5600   -3.3890 C   0  0  0  0  0  0  0  0  0  0  0  0
    0.0990   15.6230   -4.2570 C   0  0  0  0  0  0  0  0  0  0  0  0
    0.7530   16.7310   -4.7100 C   0  0  0  0  0  0  0  0  0  0  0  0
   -1.2230   15.7030   -4.7780 C   0  0  0  0  0  0  0  0  0  0  0  0
   -0.0790   17.4700   -5.4820 N   0  0  0  0  0  0  0  0  0  0  0  0
   -1.3090   16.8730   -5.5400 C   0  0  0  0  0  0  0  0  0  0  0  0
   -2.3480   14.8720   -4.6630 C   0  0  0  0  0  0  0  0  0  0  0  0
    0.3110   18.6940   -6.1300 C   0  0  0  0  0  0  0  0  0  0  0  0
   -3.5210   15.2210   -5.3040 C   0  0  0  0  0  0  0  0  0  0  0  0
   -2.4910   17.2360   -6.1890 C   0  0  0  0  0  0  0  0  0  0  0  0
   -3.5840   16.3730   -6.0460 C   0  0  0  0  0  0  0  0  0  0  0  0
  2  1  1  1
  2  3  1  0
  2  4  1  0
  3  5  1  0
  3  6  1  0
  4  7  1  0
  6  7  1  0
  5  8  1  0
  6  9  1  6
  7 10  1  1
  8 11  1  0
  9 12  1  0
 10 13  2  0
 12 13  1  0
 12 14  1  1
 11 15  2  3
 14 16  1  0
 15 17  1  0
 15 18  1  0
 17 19  1  0
 19 20  1  0
 20 21  2  0
 20 22  1  0
 21 23  1  0
 22 24  2  0
 23 24  1  0
 22 25  1  0
 23 26  1  0
 25 27  2  0
 24 28  1  0
 27 29  1  0
 28 29  2  0
M  END
