diamond-x0587_0_A-mac-x0277
     RDKit          3D

 27 28  0  0  0  0  0  0  0  0999 V2000
   -7.7620   14.8950    4.1190 N   0  0  0  0  0  0  0  0  0  0  0  0
   -8.2980   14.9310    2.8650 C   0  0  0  0  0  0  0  0  0  0  0  0
   -9.4970   15.0980    2.6830 O   0  0  0  0  0  0  0  0  0  0  0  0
   -7.3720   14.7770    1.7390 C   0  0  0  0  0  0  0  0  0  0  0  0
   -7.7460   14.4720    0.4530 C   0  0  0  0  0  0  0  0  0  0  0  0
   -6.0230   14.9490    1.9340 C   0  0  0  0  0  0  0  0  0  0  0  0
   -6.8630   14.3470   -0.5600 N   0  0  0  0  0  0  0  0  0  0  0  0
   -5.0970   14.8350    0.9660 N   0  0  0  0  0  0  0  0  0  0  0  0
   -5.5510   14.5370   -0.2640 C   0  0  0  0  0  0  0  0  0  0  0  0
   -4.4960   14.4110   -1.3670 C   0  0  0  0  0  0  0  0  0  0  0  0
   -3.2570   14.7690   -0.9160 F   0  0  0  0  0  0  0  0  0  0  0  0
   -4.3670   13.1320   -1.8270 F   0  0  0  0  0  0  0  0  0  0  0  0
   -4.7180   15.2370   -2.5000 O   0  0  0  0  0  0  0  0  0  0  0  0
   -3.5040   15.3320   -3.2200 C   0  0  0  0  0  0  0  0  0  0  0  0
   -3.7310   14.8630   -4.6350 C   0  0  0  0  0  0  0  0  0  0  0  0
   -2.8030   15.6030   -5.5790 C   0  0  0  0  0  0  0  0  0  0  0  0
   -1.3500   15.6190   -5.1040 C   0  0  0  0  0  0  0  0  0  0  0  0
   -0.7090   14.4000   -4.7710 C   0  0  0  0  0  0  0  0  0  0  0  0
   -0.6070   16.8040   -4.9840 C   0  0  0  0  0  0  0  0  0  0  0  0
   -1.2900   18.3450   -5.3610 Cl  0  0  0  0  0  0  0  0  0  0  0  0
    0.6300   14.3620   -4.3300 C   0  0  0  0  0  0  0  0  0  0  0  0
    0.7210   16.7770   -4.5500 C   0  0  0  0  0  0  0  0  0  0  0  0
    1.3040   13.0450   -3.9730 C   0  0  0  0  0  0  0  0  0  0  0  0
    1.3350   15.5650   -4.2260 C   0  0  0  0  0  0  0  0  0  0  0  0
    0.7660   12.3390   -2.7310 C   0  0  0  0  0  0  0  0  0  0  0  0
    0.2850   11.1140   -3.0300 O   0  0  0  0  0  0  0  0  0  0  0  0
    0.7250   12.7300   -1.5640 O   0  0  0  0  0  0  0  0  0  0  0  0
  1  2  1  0
  2  3  2  0
  2  4  1  0
  4  5  2  0
  4  6  1  0
  5  7  1  0
  6  8  2  0
  7  9  2  0
  8  9  1  0
  9 10  1  0
 10 11  1  0
 10 12  1  0
 10 13  1  0
 13 14  1  0
 14 15  1  0
 15 16  1  0
 16 17  1  0
 17 18  2  0
 17 19  1  0
 19 20  1  0
 18 21  1  0
 19 22  2  0
 21 23  1  0
 21 24  2  0
 22 24  1  0
 23 25  1  0
 25 26  1  0
 25 27  2  0
M  END
