diamond-x0465_0_A-mac-x0437
     RDKit          3D

 17 18  0  0  0  0  0  0  0  0999 V2000
    1.9590   13.4710   -4.7810 C   0  0  0  0  0  0  0  0  0  0  0  0
    0.7550   12.6180   -4.3950 C   0  0  1  0  0  0  0  0  0  0  0  0
    0.5940   11.4950   -5.2360 O   0  0  0  0  0  0  0  0  0  0  0  0
    0.7680   12.2230   -2.9280 C   0  0  0  0  0  0  0  0  0  0  0  0
    0.9650   12.9320   -1.9620 O   0  0  0  0  0  0  0  0  0  0  0  0
    0.5300   10.9050   -2.7650 O   0  0  0  0  0  0  0  0  0  0  0  0
   -0.6300   11.0100   -5.6570 C   0  0  0  0  0  0  0  0  0  0  0  0
   -0.4170    9.8100   -6.5270 C   0  0  1  0  0  0  0  0  0  0  0  0
   -1.8350   11.4980   -5.3990 C   0  0  0  0  0  0  0  0  0  0  0  0
    0.0840    8.7540   -5.8500 F   0  0  0  0  0  0  0  0  0  0  0  0
   -1.6820    9.1860   -7.1830 C   0  0  1  0  0  0  0  0  0  0  0  0
   -3.0310   10.8900   -5.9240 C   0  0  0  0  0  0  0  0  0  0  0  0
    0.6360   10.3630   -7.4450 C   0  0  0  0  0  0  0  0  0  0  0  0
   -2.9840    9.8280   -6.7480 C   0  0  0  0  0  0  0  0  0  0  0  0
   -1.5230    9.0630   -8.6850 C   0  0  0  0  0  0  0  0  0  0  0  0
    0.6030   10.2450   -8.7420 C   0  0  0  0  0  0  0  0  0  0  0  0
   -0.4710    9.5510   -9.3740 C   0  0  0  0  0  0  0  0  0  0  0  0
  2  1  1  6
  2  3  1  0
  2  4  1  0
  4  5  2  0
  4  6  1  0
  3  7  1  0
  7  8  1  0
  7  9  2  0
  8 10  1  1
  8 11  1  0
  9 12  1  0
  8 13  1  0
 11 14  1  6
 12 14  2  0
 11 15  1  0
 13 16  2  0
 15 17  2  0
 16 17  1  0
M  END
