diamond-x0950_0_A-diamond-x0421_0_A
     RDKit          3D

 19 20  0  0  0  0  0  0  0  0999 V2000
    2.7680   12.9900   -4.3380 C   0  0  0  0  0  0  0  0  0  0  0  0
    1.2740   12.7400   -4.3790 C   0  0  1  0  0  0  0  0  0  0  0  0
    0.9550   11.9500   -5.5220 O   0  0  0  0  0  0  0  0  0  0  0  0
    0.8320   12.0700   -3.0750 C   0  0  0  0  0  0  0  0  0  0  0  0
    0.3900   10.9270   -3.0010 O   0  0  0  0  0  0  0  0  0  0  0  0
    1.0040   12.9220   -2.0410 O   0  0  0  0  0  0  0  0  0  0  0  0
    0.7400   14.3160   -2.2960 C   0  0  0  0  0  0  0  0  0  0  0  0
   -0.6810   14.6060   -2.8090 C   0  0  0  0  0  0  0  0  0  0  0  0
   -1.5720   14.6470   -1.6570 N   0  0  0  0  0  0  0  0  0  0  0  0
   -2.8260   14.8970   -1.7410 C   0  0  0  0  0  0  0  0  0  0  0  0
   -3.6530   15.1750   -2.7960 N   0  0  0  0  0  0  0  0  0  0  0  0
   -3.5260   14.8930   -0.4610 C   0  0  0  0  0  0  0  0  0  0  0  0
   -2.9360   15.0540    0.7780 C   0  0  0  0  0  0  0  0  0  0  0  0
   -4.8970   14.7160   -0.3190 N   0  0  0  0  0  0  0  0  0  0  0  0
   -3.9500   14.9730    1.6740 N   0  0  0  0  0  0  0  0  0  0  0  0
   -5.1020   14.7680    0.9840 C   0  0  0  0  0  0  0  0  0  0  0  0
   -6.4740   14.6140    1.6830 C   0  0  0  0  0  0  0  0  0  0  0  0
   -7.7350   14.6480    0.8630 C   0  0  0  0  0  0  0  0  0  0  0  0
   -7.2580   13.3540    1.4600 C   0  0  0  0  0  0  0  0  0  0  0  0
  2  1  1  1
  2  3  1  0
  2  4  1  0
  4  5  2  0
  4  6  1  0
  6  7  1  0
  7  8  1  0
  8  9  1  0
  9 10  2  3
 10 11  1  0
 10 12  1  0
 12 13  2  0
 12 14  1  0
 13 15  1  0
 14 16  2  0
 15 16  1  0
 16 17  1  0
 17 18  1  0
 17 19  1  0
 18 19  1  0
M  END
