diamond-x0681_0_A-mac-x0527
     RDKit          3D

 19 21  0  0  0  0  0  0  0  0999 V2000
   -3.5870   15.6580   -3.2070 N   0  0  0  0  0  0  0  0  0  0  0  0
   -3.0900   14.5410   -2.4340 C   0  0  1  0  0  0  0  0  0  0  0  0
   -3.7010   13.4650   -3.0830 O   0  0  0  0  0  0  0  0  0  0  0  0
   -1.5530   14.2930   -2.7670 C   0  0  0  0  0  0  0  0  0  0  0  0
   -3.7190   14.5800   -0.9670 C   0  0  1  0  0  0  0  0  0  0  0  0
   -4.7030   13.4710   -0.7070 C   0  0  0  0  0  0  0  0  0  0  0  0
   -2.8630   14.6560    0.3120 C   0  0  0  0  0  0  0  0  0  0  0  0
   -1.2360   13.2340   -3.8570 C   0  0  0  0  0  0  0  0  0  0  0  0
   -5.3700   13.4620    0.4630 N   0  0  0  0  0  0  0  0  0  0  0  0
   -3.7380   15.0300    1.5290 C   0  0  0  0  0  0  0  0  0  0  0  0
   -5.0530   12.4460   -1.4560 N   0  0  0  0  0  0  0  0  0  0  0  0
   -1.9560   12.0260   -3.8710 C   0  0  0  0  0  0  0  0  0  0  0  0
   -0.2450   13.4070   -4.8590 C   0  0  0  0  0  0  0  0  0  0  0  0
   -5.1780   14.4730    1.4660 C   0  0  0  0  0  0  0  0  0  0  0  0
   -6.2020   12.3860    0.4950 C   0  0  0  0  0  0  0  0  0  0  0  0
   -5.9880   11.7640   -0.7140 C   0  0  0  0  0  0  0  0  0  0  0  0
   -1.7110   11.0320   -4.8260 C   0  0  0  0  0  0  0  0  0  0  0  0
   -0.0010   12.4040   -5.8180 C   0  0  0  0  0  0  0  0  0  0  0  0
   -0.7340   11.2200   -5.7990 C   0  0  0  0  0  0  0  0  0  0  0  0
  2  1  1  6
  2  3  1  0
  2  4  1  0
  2  5  1  0
  5  6  1  0
  5  7  1  1
  4  8  1  0
  6  9  1  0
  7 10  1  0
  6 11  2  0
  8 12  2  0
  8 13  1  0
  9 14  1  0
 10 14  1  0
  9 15  1  0
 11 16  1  0
 15 16  2  0
 12 17  1  0
 13 18  2  0
 17 19  2  0
 18 19  1  0
M  END
