diamond-x0711_0_A-mac-x0398
     RDKit          3D

 16 16  0  0  0  0  0  0  0  0999 V2000
   -1.5460   15.0960   -2.6540 N   0  0  0  0  0  0  0  0  0  0  0  0
   -0.5370   13.7900   -3.0090 S   0  0  0  0  0  0  0  0  0  0  0  0
   -1.6300   12.7250   -3.9160 C   0  0  0  0  0  0  0  0  0  0  0  0
   -2.7730   14.9430   -1.8990 C   0  0  0  0  0  0  0  0  0  0  0  0
    0.4190   14.3750   -3.9310 O   0  0  0  0  0  0  0  0  0  0  0  0
   -0.1100   13.1420   -1.7930 O   0  0  0  0  0  0  0  0  0  0  0  0
   -4.0000   15.0780   -2.5410 C   0  0  0  0  0  0  0  0  0  0  0  0
   -2.7420   14.6770   -0.5260 C   0  0  0  0  0  0  0  0  0  0  0  0
   -5.1970   14.9600   -1.8340 C   0  0  0  0  0  0  0  0  0  0  0  0
   -3.9490   14.5550    0.1850 C   0  0  0  0  0  0  0  0  0  0  0  0
   -4.0970   15.3370   -3.8850 O   0  0  0  0  0  0  0  0  0  0  0  0
   -6.3580   15.1120   -2.5500 O   0  0  0  0  0  0  0  0  0  0  0  0
   -5.1940   14.7000   -0.4650 C   0  0  0  0  0  0  0  0  0  0  0  0
   -6.4390   14.5640    0.3500 C   0  0  0  0  0  0  0  0  0  0  0  0
   -6.3130   14.3940    1.6940 N   0  0  0  0  0  0  0  0  0  0  0  0
   -7.5510   14.6060   -0.1660 O   0  0  0  0  0  0  0  0  0  0  0  0
  2  1  1  0
  2  3  1  0
  1  4  1  0
  2  5  2  0
  2  6  2  0
  4  7  2  0
  4  8  1  0
  7  9  1  0
  8 10  2  0
  7 11  1  0
  9 12  1  0
  9 13  2  0
 10 13  1  0
 13 14  1  0
 14 15  1  0
 14 16  2  0
M  END
