diamond-x0969_0_A-diamond-x0855_0_A
     RDKit          3D

 23 25  0  0  0  0  0  0  0  0999 V2000
   -6.7480   14.9060    2.4070 N   0  0  0  0  0  0  0  0  0  0  0  0
   -6.4860   14.8010    1.0810 C   0  0  0  0  0  0  0  0  0  0  0  0
   -7.3360   14.6540    0.0890 N   0  0  0  0  0  0  0  0  0  0  0  0
   -5.2080   14.8450    0.5830 N   0  0  0  0  0  0  0  0  0  0  0  0
   -6.6100   14.5850   -1.0900 N   0  0  0  0  0  0  0  0  0  0  0  0
   -5.3290   14.6880   -0.7830 C   0  0  0  0  0  0  0  0  0  0  0  0
   -3.9990   14.9970    1.2390 C   0  0  0  0  0  0  0  0  0  0  0  0
   -4.1140   14.6430   -1.5510 C   0  0  0  0  0  0  0  0  0  0  0  0
   -2.8730   14.9370    0.5430 C   0  0  0  0  0  0  0  0  0  0  0  0
   -2.9150   14.7260   -0.8930 C   0  0  0  0  0  0  0  0  0  0  0  0
   -1.5220   14.6000   -1.4800 C   0  0  0  0  0  0  0  0  0  0  0  0
   -1.3000   14.6510   -2.9930 C   0  0  0  0  0  0  0  0  0  0  0  0
    0.1980   14.6760   -3.3580 C   0  0  0  0  0  0  0  0  0  0  0  0
    0.9460   13.5690   -2.7840 O   0  0  0  0  0  0  0  0  0  0  0  0
    0.8300   12.3580   -3.3860 C   0  0  0  0  0  0  0  0  0  0  0  0
    0.8350   11.2810   -2.7930 O   0  0  0  0  0  0  0  0  0  0  0  0
    0.6700   12.4650   -4.8730 C   0  0  0  0  0  0  0  0  0  0  0  0
   -0.4150   11.6220   -5.3070 N   0  0  0  0  0  0  0  0  0  0  0  0
   -0.3560   10.6350   -6.2430 C   0  0  0  0  0  0  0  0  0  0  0  0
   -1.6490   11.7730   -4.7560 N   0  0  0  0  0  0  0  0  0  0  0  0
   -1.6130   10.1120   -6.2960 C   0  0  0  0  0  0  0  0  0  0  0  0
   -2.3760   10.8370   -5.3730 C   0  0  0  0  0  0  0  0  0  0  0  0
   -2.2240    8.7160   -7.3630 Br  0  0  0  0  0  0  0  0  0  0  0  0
  1  2  1  0
  2  3  2  0
  2  4  1  0
  3  5  1  0
  4  6  1  0
  5  6  2  0
  4  7  1  0
  6  8  1  0
  7  9  2  0
  8 10  2  0
  9 10  1  0
 10 11  1  0
 11 12  1  0
 12 13  1  0
 13 14  1  0
 14 15  1  0
 15 16  2  0
 15 17  1  0
 17 18  1  0
 18 19  1  0
 18 20  1  0
 19 21  2  0
 20 22  2  0
 21 22  1  0
 21 23  1  0
M  END
