diamond-x0855_0_A-mac-x0380
     RDKit          3D

 26 28  0  0  0  0  0  0  0  0999 V2000
    1.6270   12.8990   -2.4030 O   0  0  0  0  0  0  0  0  0  0  0  0
    0.9720   12.0410   -3.2010 C   0  0  0  0  0  0  0  0  0  0  0  0
    0.6620   12.5760   -4.5740 C   0  0  2  0  0  0  0  0  0  0  0  0
    0.6760   10.9330   -2.7870 O   0  0  0  0  0  0  0  0  0  0  0  0
    0.3030   14.0760   -4.5170 C   0  0  0  0  0  0  0  0  0  0  0  0
   -0.3880   11.7130   -5.1240 N   0  0  0  0  0  0  0  0  0  0  0  0
   -1.1840   14.3950   -4.3720 C   0  0  0  0  0  0  0  0  0  0  0  0
   -0.2840   10.8120   -6.1550 C   0  0  0  0  0  0  0  0  0  0  0  0
   -1.6310   11.7520   -4.5890 N   0  0  0  0  0  0  0  0  0  0  0  0
   -1.6250   14.5850   -3.0020 O   0  0  0  0  0  0  0  0  0  0  0  0
   -1.5250   10.2430   -6.2680 C   0  0  0  0  0  0  0  0  0  0  0  0
   -2.3190   10.8500   -5.2940 C   0  0  0  0  0  0  0  0  0  0  0  0
   -2.0850    8.9240   -7.4590 Br  0  0  0  0  0  0  0  0  0  0  0  0
   -2.8430   15.1800   -2.9740 C   0  0  0  0  0  0  0  0  0  0  0  0
   -3.3090   15.7410   -3.9480 O   0  0  0  0  0  0  0  0  0  0  0  0
   -3.5980   15.1050   -1.6840 C   0  0  0  0  0  0  0  0  0  0  0  0
   -4.9950   15.1400   -1.7180 C   0  0  0  0  0  0  0  0  0  0  0  0
   -2.9510   15.0060   -0.4380 C   0  0  0  0  0  0  0  0  0  0  0  0
   -5.7450   15.0790   -0.5470 C   0  0  0  0  0  0  0  0  0  0  0  0
   -3.7030   14.9480    0.7470 C   0  0  0  0  0  0  0  0  0  0  0  0
   -5.1070   14.9840    0.6940 C   0  0  0  0  0  0  0  0  0  0  0  0
   -7.5180   15.1170   -0.6880 S   0  0  0  0  0  0  0  0  0  0  0  0
   -5.8390   14.9190    1.8970 N   0  0  0  0  0  0  0  0  0  0  0  0
   -7.8780   14.1120    0.7620 C   0  0  0  0  0  0  0  0  0  0  0  0
   -7.1760   14.6170    1.9920 C   0  0  0  0  0  0  0  0  0  0  0  0
   -7.7810   14.7670    3.0570 O   0  0  0  0  0  0  0  0  0  0  0  0
  1  2  1  0
  2  3  1  0
  2  4  2  0
  3  5  1  1
  3  6  1  0
  5  7  1  0
  6  8  1  0
  6  9  1  0
  7 10  1  0
  8 11  2  0
  9 12  2  0
 11 12  1  0
 11 13  1  0
 10 14  1  0
 14 15  2  0
 14 16  1  0
 16 17  2  0
 16 18  1  0
 17 19  1  0
 18 20  2  0
 19 21  2  0
 20 21  1  0
 19 22  1  0
 21 23  1  0
 22 24  1  0
 23 25  1  0
 24 25  1  0
 25 26  2  0
M  END
