diamond-x0592_0_A-diamond-x0926_0_A
     RDKit          3D

 11 11  0  0  0  0  0  0  0  0999 V2000
   -2.7140   14.9140    1.0750 N   0  0  0  0  0  0  0  0  0  0  0  0
   -3.2620   14.9140   -0.1750 C   0  0  0  0  0  0  0  0  0  0  0  0
   -2.5470   14.9230   -1.1690 O   0  0  0  0  0  0  0  0  0  0  0  0
   -4.7070   14.8950   -0.2340 C   0  0  0  0  0  0  0  0  0  0  0  0
   -5.5230   15.1940   -1.3500 C   0  0  0  0  0  0  0  0  0  0  0  0
   -5.6090   14.5880    0.7610 C   0  0  0  0  0  0  0  0  0  0  0  0
   -6.8320   15.0830   -1.0810 N   0  0  0  0  0  0  0  0  0  0  0  0
   -6.8530   14.7130    0.2160 N   0  0  0  0  0  0  0  0  0  0  0  0
   -8.1170   14.4910    0.8970 C   0  0  0  0  0  0  0  0  0  0  0  0
   -7.9000   14.0680    2.3500 C   0  0  0  0  0  0  0  0  0  0  0  0
   -7.1970   15.0630    3.0920 O   0  0  0  0  0  0  0  0  0  0  0  0
  1  2  1  0
  2  3  2  0
  2  4  1  0
  4  5  1  0
  4  6  2  0
  5  7  2  0
  6  8  1  0
  7  8  1  0
  8  9  1  0
  9 10  1  0
 10 11  1  0
M  END
