diamond-x0421_0_A-mac-x0576
     RDKit          3D

 16 18  0  0  0  0  0  0  0  0999 V2000
   -3.6390   14.3360   -2.8890 N   0  0  0  0  0  0  0  0  0  0  0  0
   -3.4190   13.7840   -1.5390 C   0  0  0  0  0  0  0  0  0  0  0  0
   -3.4000   14.8210   -0.4440 C   0  0  2  0  0  0  0  0  0  0  0  0
   -2.9990   14.3450    0.9140 C   0  0  0  0  0  0  0  0  0  0  0  0
   -4.8080   15.0720   -0.0750 N   0  0  0  0  0  0  0  0  0  0  0  0
   -2.3900   15.8230   -0.8040 C   0  0  0  0  0  0  0  0  0  0  0  0
   -5.7080   15.5470   -0.8100 O   0  0  0  0  0  0  0  0  0  0  0  0
   -3.9260   14.2300    1.7820 N   0  0  0  0  0  0  0  0  0  0  0  0
   -5.0380   14.6790    1.1490 C   0  0  0  0  0  0  0  0  0  0  0  0
   -1.1810   15.7590   -0.3130 N   0  0  0  0  0  0  0  0  0  0  0  0
   -1.7270   14.0650    1.2070 N   0  0  0  0  0  0  0  0  0  0  0  0
   -6.3350   14.6990    1.8360 C   0  0  0  0  0  0  0  0  0  0  0  0
   -0.8680   14.7830    0.5920 C   0  0  0  0  0  0  0  0  0  0  0  0
    0.4190   14.5870    0.8480 N   0  0  0  0  0  0  0  0  0  0  0  0
   -7.6400   14.6900    1.0710 C   0  0  0  0  0  0  0  0  0  0  0  0
   -7.1810   13.4490    1.7750 C   0  0  0  0  0  0  0  0  0  0  0  0
  1  2  1  0
  3  2  1  6
  3  4  1  0
  3  5  1  0
  3  6  1  0
  5  7  1  0
  4  8  2  0
  5  9  2  0
  8  9  1  0
  6 10  2  0
  4 11  1  0
  9 12  1  0
 10 13  1  0
 11 13  2  0
 13 14  1  0
 12 15  1  0
 12 16  1  0
 15 16  1  0
M  CHG  2   5   1   7  -1
M  END
