diamond-x0436_0_B-diamond-x0918_0_B
     RDKit          3D

 14 14  0  0  0  0  0  0  0  0999 V2000
  -10.4150   28.2540  -15.9940 N   0  0  0  0  0  0  0  0  0  0  0  0
  -10.1660   29.5930  -15.8540 C   0  0  0  0  0  0  0  0  0  0  0  0
  -10.3750   30.1260  -14.4280 C   0  0  1  0  0  0  0  0  0  0  0  0
   -9.8040   30.2730  -16.8040 O   0  0  0  0  0  0  0  0  0  0  0  0
  -11.7900   30.6320  -14.1560 C   0  0  0  0  0  0  0  0  0  0  0  0
   -9.8900   29.2900  -13.3870 O   0  0  0  0  0  0  0  0  0  0  0  0
   -8.5620   29.2620  -13.1220 C   0  0  0  0  0  0  0  0  0  0  0  0
   -8.2670   29.1800  -11.7590 C   0  0  0  0  0  0  0  0  0  0  0  0
   -7.5250   29.3110  -14.0650 C   0  0  0  0  0  0  0  0  0  0  0  0
   -6.9480   29.1470  -11.3420 C   0  0  0  0  0  0  0  0  0  0  0  0
   -6.1890   29.2810  -13.6520 C   0  0  0  0  0  0  0  0  0  0  0  0
   -5.1080   29.3370  -14.5780 N   0  0  0  0  0  0  0  0  0  0  0  0
   -5.9480   29.1960  -12.2950 C   0  0  0  0  0  0  0  0  0  0  0  0
   -4.3440   29.1570  -11.8040 Cl  0  0  0  0  0  0  0  0  0  0  0  0
  1  2  1  0
  2  3  1  0
  2  4  2  0
  3  5  1  1
  3  6  1  0
  6  7  1  0
  7  8  2  0
  7  9  1  0
  8 10  1  0
  9 11  2  0
 11 12  1  0
 10 13  2  0
 11 13  1  0
 13 14  1  0
M  END
