diamond-x0253_0_A-mac-x0572
     RDKit          3D

 30 32  0  0  0  0  0  0  0  0999 V2000
    0.4130   12.0780   -5.3520 N   0  0  0  0  0  0  0  0  0  0  0  0
    1.0900   11.7160   -6.4810 C   0  0  0  0  0  0  0  0  0  0  0  0
    2.2120   12.1450   -6.6360 O   0  0  0  0  0  0  0  0  0  0  0  0
    0.9690   12.7080   -4.1530 C   0  0  0  0  0  0  0  0  0  0  0  0
    0.0560   12.3980   -2.9650 C   0  0  0  0  0  0  0  0  0  0  0  0
    0.4720   10.7830   -7.4710 C   0  0  0  0  0  0  0  0  0  0  0  0
   -0.6260   13.3160   -2.3270 N   0  0  0  0  0  0  0  0  0  0  0  0
   -0.0080   11.0840   -2.6500 O   0  0  0  0  0  0  0  0  0  0  0  0
   -0.5090    9.8700   -7.0560 C   0  0  0  0  0  0  0  0  0  0  0  0
    0.8640   10.8060   -8.8210 C   0  0  0  0  0  0  0  0  0  0  0  0
   -1.5320   12.8530   -1.2470 C   0  0  0  0  0  0  0  0  0  0  0  0
   -1.0940    8.9920   -7.9810 C   0  0  0  0  0  0  0  0  0  0  0  0
    0.2870    9.9350   -9.7400 C   0  0  0  0  0  0  0  0  0  0  0  0
   -2.1460    8.0190   -7.5350 C   0  0  0  0  0  0  0  0  0  0  0  0
   -2.0580   13.8480   -0.1550 C   0  0  0  0  0  0  0  0  0  0  0  0
   -0.6880    9.0330   -9.3250 C   0  0  0  0  0  0  0  0  0  0  0  0
   -3.5760   14.3450   -0.1670 C   0  0  0  0  0  0  0  0  0  0  0  0
   -3.5100   15.5340   -1.0500 C   0  0  0  0  0  0  0  0  0  0  0  0
   -2.6500   15.2180    0.0240 C   0  0  0  0  0  0  0  0  0  0  0  0
   -4.7310   15.2580   -1.4480 C   0  0  0  0  0  0  0  0  0  0  0  0
   -5.4440   14.3110   -0.5490 C   0  0  2  0  0  0  0  0  0  0  0  0
   -3.3780   14.7640    1.0800 C   0  0  0  0  0  0  0  0  0  0  0  0
   -6.9470   14.4870   -0.6290 C   0  0  0  0  0  0  0  0  0  0  0  0
   -4.9040   14.6530    0.8650 C   0  0  0  0  0  0  0  0  0  0  0  0
   -7.5720   14.5960   -1.6800 O   0  0  0  0  0  0  0  0  0  0  0  0
   -7.7330   14.5350    0.6300 C   0  0  0  0  0  0  0  0  0  0  0  0
   -5.7060   14.8380    1.8760 N   0  0  0  0  0  0  0  0  0  0  0  0
   -9.1080   14.4020    0.5410 O   0  0  0  0  0  0  0  0  0  0  0  0
   -7.0720   14.7060    1.7770 C   0  0  0  0  0  0  0  0  0  0  0  0
   -7.7910   14.7660    3.1010 C   0  0  0  0  0  0  0  0  0  0  0  0
  1  2  1  0
  2  3  2  0
  1  4  1  0
  4  5  1  0
  2  6  1  0
  5  7  2  3
  5  8  1  0
  6  9  2  0
  6 10  1  0
  7 11  1  0
  9 12  1  0
 10 13  2  0
 12 14  1  0
 11 15  1  0
 12 16  2  0
 13 16  1  0
 15 17  1  0
 17 18  1  0
 18 19  1  0
 18 20  2  0
 21 20  1  6
 19 22  2  0
 21 23  1  0
 21 24  1  0
 22 24  1  0
 23 25  2  0
 23 26  1  0
 24 27  2  0
 26 28  1  0
 26 29  2  0
 27 29  1  0
 29 30  1  0
M  END
