diamond-x1012_0_A-diamond-x0128_0_A
     RDKit          3D

 31 33  0  0  0  0  0  0  0  0999 V2000
   -0.5270   18.0880   -4.8600 N   0  0  0  0  0  0  0  0  0  0  0  0
   -1.2690   16.9570   -4.7900 C   0  0  0  0  0  0  0  0  0  0  0  0
   -2.5310   17.0610   -4.6480 N   0  0  0  0  0  0  0  0  0  0  0  0
   -0.5370   15.8020   -4.8690 N   0  0  0  0  0  0  0  0  0  0  0  0
   -3.2010   15.7590   -4.5640 C   0  0  0  0  0  0  0  0  0  0  0  0
   -1.1740   14.5180   -5.1860 C   0  0  0  0  0  0  0  0  0  0  0  0
    0.8740   15.7780   -4.5200 C   0  0  0  0  0  0  0  0  0  0  0  0
   -3.4480   15.3990   -3.0930 C   0  0  0  0  0  0  0  0  0  0  0  0
   -1.1690   13.5610   -4.0100 C   0  0  0  0  0  0  0  0  0  0  0  0
    1.2050   14.4900   -3.7640 C   0  0  0  0  0  0  0  0  0  0  0  0
   -4.7820   14.7070   -2.8510 C   0  0  0  0  0  0  0  0  0  0  0  0
   -0.0200   13.8810   -3.0590 C   0  0  0  0  0  0  0  0  0  0  0  0
    0.3350   12.6560   -2.2400 C   0  0  0  0  0  0  0  0  0  0  0  0
   -5.2240   14.7690   -1.4140 C   0  0  0  0  0  0  0  0  0  0  0  0
    0.3740   11.4850   -2.9120 O   0  0  0  0  0  0  0  0  0  0  0  0
    0.5530   12.7140   -1.0490 O   0  0  0  0  0  0  0  0  0  0  0  0
   -6.5650   14.5250   -1.1220 C   0  0  0  0  0  0  0  0  0  0  0  0
   -4.3350   15.0570   -0.3630 C   0  0  0  0  0  0  0  0  0  0  0  0
   -7.0340   14.5530    0.1810 C   0  0  0  0  0  0  0  0  0  0  0  0
   -4.8070   15.0840    0.9530 C   0  0  0  0  0  0  0  0  0  0  0  0
   -6.1610   14.8280    1.2290 C   0  0  0  0  0  0  0  0  0  0  0  0
   -6.5900   14.8640    2.5690 N   0  0  0  0  0  0  0  0  0  0  0  0
   -7.8400   15.2110    3.0730 C   0  0  0  0  0  0  0  0  0  0  0  0
   -8.8240   15.4430    2.3730 O   0  0  0  0  0  0  0  0  0  0  0  0
   -7.7930   15.2600    4.4600 N   0  0  0  0  0  0  0  0  0  0  0  0
   -8.5520   16.0590    5.3450 C   0  0  0  0  0  0  0  0  0  0  0  0
   -9.1710   17.2210    4.8730 C   0  0  0  0  0  0  0  0  0  0  0  0
   -8.7360   15.7670    6.6910 C   0  0  0  0  0  0  0  0  0  0  0  0
   -9.9240   18.0600    5.6210 N   0  0  0  0  0  0  0  0  0  0  0  0
   -9.5060   16.6130    7.4940 C   0  0  0  0  0  0  0  0  0  0  0  0
  -10.0740   17.7370    6.9190 C   0  0  0  0  0  0  0  0  0  0  0  0
  1  2  1  0
  2  3  2  3
  2  4  1  0
  3  5  1  0
  4  6  1  0
  4  7  1  0
  5  8  1  0
  6  9  1  0
  7 10  1  0
  8 11  1  0
  9 12  1  0
 10 12  1  0
 12 13  1  0
 11 14  1  0
 13 15  1  0
 13 16  2  0
 14 17  2  0
 14 18  1  0
 17 19  1  0
 18 20  2  0
 19 21  2  0
 20 21  1  0
 21 22  1  0
 22 23  1  0
 23 24  2  0
 23 25  1  0
 25 26  1  0
 26 27  2  0
 26 28  1  0
 27 29  1  0
 28 30  2  0
 29 31  2  0
 30 31  1  0
M  END
