diamond-x0423_0_B-diamond-x0091_0_B
     RDKit          3D

 26 28  0  0  0  0  0  0  0  0999 V2000
   13.6980   26.6600   14.4300 N   0  0  0  0  0  0  0  0  0  0  0  0
   12.3350   26.9460   13.9950 C   0  0  0  0  0  0  0  0  0  0  0  0
   14.1650   25.3520   13.9380 C   0  0  2  0  0  0  0  0  0  0  0  0
   13.9570   24.2260   14.9790 C   0  0  0  0  0  0  0  0  0  0  0  0
   15.6470   25.3800   13.5450 C   0  0  0  0  0  0  0  0  0  0  0  0
   14.8160   23.0520   14.6790 N   0  0  0  0  0  0  0  0  0  0  0  0
   16.0430   24.1130   12.7930 C   0  0  0  0  0  0  0  0  0  0  0  0
   15.3070   22.8730   13.3140 C   0  0  2  0  0  0  0  0  0  0  0  0
   14.3570   21.8630   15.2730 C   0  0  0  0  0  0  0  0  0  0  0  0
   14.1010   22.5870   12.5970 N   0  0  0  0  0  0  0  0  0  0  0  0
   13.1860   21.8210   16.0260 C   0  0  0  0  0  0  0  0  0  0  0  0
   15.0600   20.7240   15.1110 N   0  0  0  0  0  0  0  0  0  0  0  0
   13.6270   21.3080   12.4510 C   0  0  0  0  0  0  0  0  0  0  0  0
   14.6470   19.5340   15.6650 N   0  0  0  0  0  0  0  0  0  0  0  0
   12.7540   20.6210   16.5920 C   0  0  0  0  0  0  0  0  0  0  0  0
   12.7070   20.8870   13.3950 N   0  0  0  0  0  0  0  0  0  0  0  0
   14.0000   20.5920   11.5410 O   0  0  0  0  0  0  0  0  0  0  0  0
   13.5170   19.4980   16.3840 C   0  0  0  0  0  0  0  0  0  0  0  0
   11.9330   21.9310   14.0230 C   0  0  0  0  0  0  0  0  0  0  0  0
   12.0710   19.5560   13.3820 C   0  0  0  0  0  0  0  0  0  0  0  0
   13.0020   18.4680   13.8330 C   0  0  0  0  0  0  0  0  0  0  0  0
   12.5440   17.4400   14.5730 N   0  0  0  0  0  0  0  0  0  0  0  0
   14.3930   18.3250   13.5930 C   0  0  0  0  0  0  0  0  0  0  0  0
   13.6360   16.6270   14.8220 O   0  0  0  0  0  0  0  0  0  0  0  0
   14.7390   17.1620   14.2360 C   0  0  0  0  0  0  0  0  0  0  0  0
   15.9980   16.4180   14.4070 C   0  0  0  0  0  0  0  0  0  0  0  0
  1  2  1  0
  3  1  1  1
  3  4  1  0
  3  5  1  0
  4  6  1  0
  5  7  1  0
  6  8  1  0
  7  8  1  0
  6  9  1  0
  8 10  1  6
  9 11  2  0
  9 12  1  0
 10 13  1  0
 12 14  2  0
 11 15  1  0
 13 16  1  0
 13 17  2  0
 14 18  1  0
 15 18  2  0
 16 19  1  0
 16 20  1  0
 20 21  1  0
 21 22  2  0
 21 23  1  0
 22 24  1  0
 23 25  2  0
 24 25  1  0
 25 26  1  0
M  END
