diamond-x0587_0_A-mac-x0131
     RDKit          3D

 30 33  0  0  0  0  0  0  0  0999 V2000
   -7.9480   14.9010    4.4290 N   0  0  0  0  0  0  0  0  0  0  0  0
   -8.4000   14.8710    3.1020 C   0  0  0  0  0  0  0  0  0  0  0  0
   -9.6200   14.9550    2.8660 O   0  0  0  0  0  0  0  0  0  0  0  0
   -7.4860   14.7700    2.0130 C   0  0  0  0  0  0  0  0  0  0  0  0
   -7.9440   14.5340    0.7890 C   0  0  0  0  0  0  0  0  0  0  0  0
   -6.1730   14.9310    2.2620 C   0  0  0  0  0  0  0  0  0  0  0  0
   -7.0250   14.4860   -0.1660 N   0  0  0  0  0  0  0  0  0  0  0  0
   -5.3510   14.8570    1.2210 N   0  0  0  0  0  0  0  0  0  0  0  0
   -5.6940   14.6430   -0.0410 C   0  0  0  0  0  0  0  0  0  0  0  0
   -4.5810   14.6070   -1.3860 S   0  0  0  0  0  0  0  0  0  0  0  0
   -5.7400   15.5520   -2.8850 F   0  0  0  0  0  0  0  0  0  0  0  0
   -4.9940   13.4500   -3.1840 F   0  0  0  0  0  0  0  0  0  0  0  0
   -6.2950   13.4330   -2.0610 F   0  0  0  0  0  0  0  0  0  0  0  0
   -3.1600   13.9320   -1.6710 C   0  0  1  0  0  0  0  0  0  0  0  0
   -2.5780   14.9420   -2.6770 C   0  0  2  0  0  0  0  0  0  0  0  0
   -2.1630   14.1610   -0.5810 C   0  0  1  0  0  0  0  0  0  0  0  0
   -3.1000   14.7080   -4.0910 C   0  0  0  0  0  0  0  0  0  0  0  0
   -0.8870   14.4050   -1.2780 C   0  0  1  0  0  0  0  0  0  0  0  0
   -1.1860   15.0220   -2.5350 N   0  0  0  0  0  0  0  0  0  0  0  0
   -2.5500   15.0050    0.6070 C   0  0  1  0  0  0  0  0  0  0  0  0
   -3.4740   14.2750    1.4630 N   0  0  0  0  0  0  0  0  0  0  0  0
   -0.3970   14.6290   -3.6410 C   0  0  0  0  0  0  0  0  0  0  0  0
   -1.3420   15.0760    1.4670 N   0  0  0  0  0  0  0  0  0  0  0  0
    0.0370   15.0910   -0.5110 N   0  0  0  0  0  0  0  0  0  0  0  0
   -0.0940   14.8420    0.8380 C   0  0  0  0  0  0  0  0  0  0  0  0
   -0.4170   13.1610   -3.7390 C   0  0  0  0  0  0  0  0  0  0  0  0
    0.5420   12.2530   -3.3790 C   0  0  0  0  0  0  0  0  0  0  0  0
   -1.4510   12.5060   -4.2180 O   0  0  0  0  0  0  0  0  0  0  0  0
   -1.2180   11.2200   -4.1840 C   0  0  0  0  0  0  0  0  0  0  0  0
    0.0190   11.0150   -3.6620 C   0  0  0  0  0  0  0  0  0  0  0  0
  1  2  1  0
  2  3  2  0
  2  4  1  0
  4  5  2  0
  4  6  1  0
  5  7  1  0
  6  8  2  0
  7  9  2  0
  8  9  1  0
  9 10  1  0
 10 11  1  0
 10 12  1  0
 10 13  1  0
 14 10  1  1
 14 15  1  0
 14 16  1  0
 15 17  1  6
 16 18  1  0
 15 19  1  0
 18 19  1  0
 16 20  1  6
 20 21  1  1
 19 22  1  0
 20 23  1  0
 18 24  1  1
 23 25  1  0
 24 25  1  0
 22 26  1  0
 26 27  2  0
 26 28  1  0
 28 29  1  0
 27 30  1  0
 29 30  2  0
M  END
