diamond-x0253_0_A-mac-x0387
     RDKit          3D

 26 28  0  0  0  0  0  0  0  0999 V2000
    0.4520   11.7400   -5.6280 N   0  0  0  0  0  0  0  0  0  0  0  0
    1.0620   11.4700   -6.7700 C   0  0  0  0  0  0  0  0  0  0  0  0
    2.1460   11.9670   -6.8850 O   0  0  0  0  0  0  0  0  0  0  0  0
    1.3360   12.5670   -4.8910 C   0  0  0  0  0  0  0  0  0  0  0  0
    0.9030   12.7220   -3.5110 C   0  0  0  0  0  0  0  0  0  0  0  0
    0.4260   10.5930   -7.7520 C   0  0  0  0  0  0  0  0  0  0  0  0
    1.0450   13.8840   -3.0960 N   0  0  0  0  0  0  0  0  0  0  0  0
    0.3900   11.6490   -2.8510 O   0  0  0  0  0  0  0  0  0  0  0  0
   -0.5450    9.6810   -7.3460 C   0  0  0  0  0  0  0  0  0  0  0  0
    0.8000   10.6790   -9.0940 C   0  0  0  0  0  0  0  0  0  0  0  0
    0.5830   14.0910   -1.8010 C   0  0  0  0  0  0  0  0  0  0  0  0
   -1.1550    8.8460   -8.2800 C   0  0  0  0  0  0  0  0  0  0  0  0
    0.1990    9.8500  -10.0310 C   0  0  0  0  0  0  0  0  0  0  0  0
   -2.2040    7.8680   -7.8420 C   0  0  0  0  0  0  0  0  0  0  0  0
   -0.7750    8.9360   -9.6270 C   0  0  0  0  0  0  0  0  0  0  0  0
   -0.8710   14.4780   -1.7620 C   0  0  0  0  0  0  0  0  0  0  0  0
   -1.2660   14.5690   -0.4800 C   0  0  0  0  0  0  0  0  0  0  0  0
   -1.7790   14.7320   -2.8180 C   0  0  0  0  0  0  0  0  0  0  0  0
   -2.5620   14.9240   -0.1320 C   0  0  0  0  0  0  0  0  0  0  0  0
   -0.3040   14.2910    0.4720 C   0  0  0  0  0  0  0  0  0  0  0  0
   -3.1000   15.0890   -2.5110 C   0  0  0  0  0  0  0  0  0  0  0  0
   -2.8120   14.9880    1.2350 C   0  0  0  0  0  0  0  0  0  0  0  0
   -0.6390   14.3650    1.7540 C   0  0  0  0  0  0  0  0  0  0  0  0
   -3.4930   15.1870   -1.1690 C   0  0  0  0  0  0  0  0  0  0  0  0
   -4.0550   15.3480    1.7520 N   0  0  0  0  0  0  0  0  0  0  0  0
   -1.8690   14.7090    2.1560 N   0  0  0  0  0  0  0  0  0  0  0  0
  1  2  1  0
  2  3  2  0
  1  4  1  0
  4  5  1  0
  2  6  1  0
  5  7  2  3
  5  8  1  0
  6  9  2  0
  6 10  1  0
  7 11  1  0
  9 12  1  0
 10 13  2  0
 12 14  1  0
 12 15  2  0
 13 15  1  0
 11 16  1  0
 16 17  1  0
 16 18  2  0
 17 19  2  0
 17 20  1  0
 18 21  1  0
 19 22  1  0
 20 23  2  0
 19 24  1  0
 21 24  2  0
 22 25  1  0
 22 26  2  0
 23 26  1  0
M  END
