diamond-x0969_0_A-mac-x0132
     RDKit          3D

 11 12  0  0  0  0  0  0  0  0999 V2000
   -6.9350   14.9890    2.5600 N   0  0  0  0  0  0  0  0  0  0  0  0
   -5.9970   14.5550    1.5520 C   0  0  1  0  0  0  0  0  0  0  0  0
   -6.6380   13.6860    0.5330 N   0  0  0  0  0  0  0  0  0  0  0  0
   -5.0750   15.4370    0.8650 N   0  0  0  0  0  0  0  0  0  0  0  0
   -5.5590   12.7860    0.2370 N   0  0  0  0  0  0  0  0  0  0  0  0
   -6.7840   14.5690   -0.6440 N   0  0  0  0  0  0  0  0  0  0  0  0
   -5.6060   15.4530   -0.5120 C   0  0  2  0  0  0  0  0  0  0  0  0
   -3.7340   15.2780    1.1150 C   0  0  0  0  0  0  0  0  0  0  0  0
   -4.5390   15.1950   -1.5450 C   0  0  0  0  0  0  0  0  0  0  0  0
   -2.8290   15.0760    0.1540 C   0  0  0  0  0  0  0  0  0  0  0  0
   -3.2480   15.0230   -1.2280 C   0  0  0  0  0  0  0  0  0  0  0  0
  2  1  1  6
  2  3  1  0
  2  4  1  0
  3  5  1  0
  3  6  1  0
  4  7  1  0
  6  7  1  0
  4  8  1  0
  7  9  1  6
  8 10  2  0
  9 11  2  0
 10 11  1  0
M  END
