diamond-x0574_0_A-mac-x0379
     RDKit          3D

 20 22  0  0  0  0  0  0  0  0999 V2000
    0.2170   14.0100    2.4990 N   0  0  0  0  0  0  0  0  0  0  0  0
   -0.6500   14.2170    1.5580 C   0  0  0  0  0  0  0  0  0  0  0  0
   -1.9280   14.2420    1.7640 N   0  0  0  0  0  0  0  0  0  0  0  0
   -0.0640   14.4610   -0.0070 S   0  0  0  0  0  0  0  0  0  0  0  0
   -2.5630   14.4480    0.5580 C   0  0  0  0  0  0  0  0  0  0  0  0
   -1.6740   14.5920   -0.5110 C   0  0  0  0  0  0  0  0  0  0  0  0
   -3.9590   14.5170    0.3080 C   0  0  0  0  0  0  0  0  0  0  0  0
   -2.0870   14.8090   -1.7900 C   0  0  0  0  0  0  0  0  0  0  0  0
   -4.3960   14.7250   -1.0150 C   0  0  0  0  0  0  0  0  0  0  0  0
   -3.4330   14.8720   -2.0020 C   0  0  0  0  0  0  0  0  0  0  0  0
   -5.7000   14.7950   -1.5250 N   0  0  0  0  0  0  0  0  0  0  0  0
   -6.5220   15.8930   -1.0810 C   0  0  0  0  0  0  0  0  0  0  0  0
   -5.5640   14.5920   -2.8710 C   0  0  0  0  0  0  0  0  0  0  0  0
   -6.4640   14.3270   -3.7920 N   0  0  0  0  0  0  0  0  0  0  0  0
   -3.9570   14.6790   -3.5240 S   0  0  0  0  0  0  0  0  0  0  0  0
   -5.8710   14.1870   -5.0410 C   0  0  0  0  0  0  0  0  0  0  0  0
   -4.4960   14.3430   -5.0790 C   0  0  0  0  0  0  0  0  0  0  0  0
   -3.4930   14.2770   -6.1080 C   0  0  0  0  0  0  0  0  0  0  0  0
   -3.6430   13.8590   -7.2410 O   0  0  0  0  0  0  0  0  0  0  0  0
   -2.2820   14.7450   -5.6850 O   0  0  0  0  0  0  0  0  0  0  0  0
  1  2  1  0
  2  3  2  0
  2  4  1  0
  3  5  1  0
  4  6  1  0
  5  6  2  0
  5  7  1  0
  6  8  1  0
  7  9  2  0
  8 10  2  0
  9 10  1  0
  9 11  1  0
 11 12  1  0
 11 13  1  0
 13 14  2  0
 13 15  1  0
 14 16  1  0
 15 17  1  0
 16 17  2  0
 17 18  1  0
 18 19  2  0
 18 20  1  0
M  END
