diamond-x0421_0_A-mac-x0453
     RDKit          3D

 14 15  0  0  0  0  0  0  0  0999 V2000
   -3.5770   15.3060   -3.4050 N   0  0  0  0  0  0  0  0  0  0  0  0
   -2.8380   15.0350   -2.2980 C   0  0  0  0  0  0  0  0  0  0  0  0
   -1.6190   14.9390   -2.3150 O   0  0  0  0  0  0  0  0  0  0  0  0
   -3.6480   14.8550   -1.1170 C   0  0  0  0  0  0  0  0  0  0  0  0
   -3.1730   14.4830    0.1090 C   0  0  0  0  0  0  0  0  0  0  0  0
   -5.0380   15.0270   -1.0810 N   0  0  0  0  0  0  0  0  0  0  0  0
   -4.2900   14.4250    0.8440 N   0  0  0  0  0  0  0  0  0  0  0  0
   -5.3560   14.7460    0.1510 C   0  0  0  0  0  0  0  0  0  0  0  0
   -4.4540   14.0790    2.1530 C   0  0  0  0  0  0  0  0  0  0  0  0
   -6.7480   14.7380    0.8440 C   0  0  0  0  0  0  0  0  0  0  0  0
   -5.5310   12.9890    2.2470 C   0  0  0  0  0  0  0  0  0  0  0  0
   -8.0120   14.8780    0.0530 C   0  0  0  0  0  0  0  0  0  0  0  0
   -7.6570   13.5560    0.6680 C   0  0  0  0  0  0  0  0  0  0  0  0
   -6.7310   13.4150    2.9680 N   0  0  0  0  0  0  0  0  0  0  0  0
  1  2  1  0
  2  3  2  0
  2  4  1  0
  4  5  2  0
  4  6  1  0
  5  7  1  0
  6  8  2  0
  7  8  1  0
  7  9  1  0
  8 10  1  0
  9 11  1  0
 10 12  1  0
 10 13  1  0
 12 13  1  0
 11 14  1  0
M  END
