diamond-x0933_0_A-mac-x0385
     RDKit          3D

  8  8  0  0  0  0  0  0  0  0999 V2000
   -5.8030   15.0120    1.8940 N   0  0  0  0  0  0  0  0  0  0  0  0
   -4.8080   14.5180    1.0150 C   0  0  2  0  0  0  0  0  0  0  0  0
   -3.5380   15.1110    1.3000 N   0  0  0  0  0  0  0  0  0  0  0  0
   -5.2140   14.7130   -0.3300 N   0  0  0  0  0  0  0  0  0  0  0  0
   -4.1540   15.1900   -1.2170 C   0  0  0  0  0  0  0  0  0  0  0  0
   -2.4580   14.4980    0.5360 C   0  0  2  0  0  0  0  0  0  0  0  0
   -1.0280   14.9760    0.9070 C   0  0  0  0  0  0  0  0  0  0  0  0
   -2.7620   14.5960   -0.9580 C   0  0  0  0  0  0  0  0  0  0  0  0
  2  1  1  1
  2  3  1  0
  2  4  1  0
  4  5  1  0
  3  6  1  0
  6  7  1  6
  5  8  1  0
  6  8  1  0
M  END
