diamond-x0104_0_A-mac-x0161
     RDKit          3D

 34 38  0  0  0  0  0  0  0  0999 V2000
   -6.3290   15.0150    2.5340 N   0  0  0  0  0  0  0  0  0  0  0  0
   -7.6270   15.1120    3.1080 C   0  0  0  0  0  0  0  0  0  0  0  0
   -7.6130   15.1230    4.5090 N   0  0  0  0  0  0  0  0  0  0  0  0
   -6.0500   14.7180    1.1550 C   0  0  0  0  0  0  0  0  0  0  0  0
   -8.6600   15.1900    2.4470 O   0  0  0  0  0  0  0  0  0  0  0  0
   -4.8880   15.0510    0.3210 C   0  0  0  0  0  0  0  0  0  0  0  0
   -7.0530   14.0110    0.4720 C   0  0  0  0  0  0  0  0  0  0  0  0
   -4.8330   14.6940   -0.9550 N   0  0  0  0  0  0  0  0  0  0  0  0
   -6.9290   13.6730   -0.8750 C   0  0  0  0  0  0  0  0  0  0  0  0
   -8.7630   15.1190    5.3070 C   0  0  0  0  0  0  0  0  0  0  0  0
   -3.5470   15.8070    0.4260 C   0  0  2  0  0  0  0  0  0  0  0  0
   -5.7980   14.0420   -1.5300 C   0  0  0  0  0  0  0  0  0  0  0  0
   -8.9690   15.2160    6.6680 C   0  0  0  0  0  0  0  0  0  0  0  0
  -10.2420   14.9590    4.4610 S   0  0  0  0  0  0  0  0  0  0  0  0
   -3.3930   16.1730   -0.9950 N   0  0  0  0  0  0  0  0  0  0  0  0
   -2.0740   15.3910    0.7770 C   0  0  2  0  0  0  0  0  0  0  0  0
   -5.6490   13.7270   -2.8550 O   0  0  0  0  0  0  0  0  0  0  0  0
  -11.1660   15.0190    5.9050 C   0  0  0  0  0  0  0  0  0  0  0  0
  -10.3600   15.1590    7.0140 C   0  0  0  0  0  0  0  0  0  0  0  0
   -2.9300   15.1600   -1.9230 C   0  0  0  0  0  0  0  0  0  0  0  0
   -1.1170   15.4260   -0.4360 C   0  0  2  0  0  0  0  0  0  0  0  0
   -1.7040   14.1610    1.4250 N   0  0  0  0  0  0  0  0  0  0  0  0
   -4.6950   14.5510   -3.5180 C   0  0  0  0  0  0  0  0  0  0  0  0
   -1.5870   14.8060   -1.6370 N   0  0  0  0  0  0  0  0  0  0  0  0
    0.1280   14.8780    0.0790 N   0  0  0  0  0  0  0  0  0  0  0  0
   -0.2520   14.1360    1.2800 C   0  0  0  0  0  0  0  0  0  0  0  0
   -0.7400   14.8840   -2.8410 C   0  0  0  0  0  0  0  0  0  0  0  0
   -0.5370   13.5300   -3.4240 C   0  0  0  0  0  0  0  0  0  0  0  0
   -0.9570   12.8810   -4.5690 C   0  0  0  0  0  0  0  0  0  0  0  0
    0.2300   12.6850   -2.6870 O   0  0  0  0  0  0  0  0  0  0  0  0
    0.3270   11.4650   -3.3300 N   0  0  0  0  0  0  0  0  0  0  0  0
   -0.3890   11.6010   -4.4440 C   0  0  0  0  0  0  0  0  0  0  0  0
   -0.5240   10.5820   -5.3240 O   0  0  0  0  0  0  0  0  0  0  0  0
   -1.8620   10.3200   -5.7280 C   0  0  0  0  0  0  0  0  0  0  0  0
  1  2  1  0
  2  3  1  0
  1  4  1  0
  2  5  2  0
  4  6  1  0
  4  7  2  0
  6  8  2  0
  7  9  1  0
  3 10  1  0
 11  6  1  6
  8 12  1  0
  9 12  2  0
 10 13  2  0
 10 14  1  0
 11 15  1  0
 11 16  1  0
 12 17  1  0
 14 18  1  0
 13 19  1  0
 18 19  2  0
 15 20  1  0
 16 21  1  0
 16 22  1  6
 17 23  1  0
 20 24  1  0
 21 24  1  0
 21 25  1  1
 22 26  1  0
 25 26  1  0
 24 27  1  0
 27 28  1  0
 28 29  2  0
 28 30  1  0
 30 31  1  0
 29 32  1  0
 31 32  2  0
 32 33  1  0
 33 34  1  0
M  END
