diamond-x0962_0_A-diamond-x0962_1_A
     RDKit          3D

  8  8  0  0  0  0  0  0  0  0999 V2000
   -1.9970   14.8120   -1.5690 N   0  0  0  0  0  0  0  0  0  0  0  0
   -3.4190   14.5030   -1.5420 C   0  0  2  0  0  0  0  0  0  0  0  0
   -4.1720   15.3560   -2.5270 C   0  0  0  0  0  0  0  0  0  0  0  0
   -4.0400   14.7510   -0.2370 C   0  0  0  0  0  0  0  0  0  0  0  0
   -3.3690   15.0580    0.9170 N   0  0  0  0  0  0  0  0  0  0  0  0
   -5.3680   14.7340    0.1050 C   0  0  0  0  0  0  0  0  0  0  0  0
   -4.3170   15.2100    1.8930 C   0  0  0  0  0  0  0  0  0  0  0  0
   -5.5300   15.0110    1.4240 N   0  0  0  0  0  0  0  0  0  0  0  0
  1  2  1  0
  2  3  1  6
  2  4  1  0
  4  5  1  0
  4  6  2  0
  5  7  1  0
  6  8  1  0
  7  8  2  0
M  END
