diamond-x0685_1_A-mac-x0404
     RDKit          3D

 23 25  0  0  0  0  0  0  0  0999 V2000
   -0.8070   10.3720   -4.8670 N   0  0  0  0  0  0  0  0  0  0  0  0
   -1.7380   11.4720   -4.5900 C   0  0  0  0  0  0  0  0  0  0  0  0
   -1.1960   12.5050   -3.5950 C   0  0  1  0  0  0  0  0  0  0  0  0
   -0.4990   10.2420   -6.3040 C   0  0  0  0  0  0  0  0  0  0  0  0
   -0.4310    8.7450   -6.6510 C   0  0  0  0  0  0  0  0  0  0  0  0
   -1.4950   10.9100   -7.2650 C   0  0  0  0  0  0  0  0  0  0  0  0
    0.3410   12.0300   -2.7110 S   0  0  0  0  0  0  0  0  0  0  0  0
    0.0400    8.4980   -8.0760 C   0  0  0  0  0  0  0  0  0  0  0  0
   -1.1280   10.6710   -8.7350 C   0  0  0  0  0  0  0  0  0  0  0  0
   -1.1970   13.9020   -4.1750 C   0  0  0  0  0  0  0  0  0  0  0  0
    1.6710   12.4920   -3.4840 O   0  0  0  0  0  0  0  0  0  0  0  0
    0.3410   10.4330   -2.5220 O   0  0  0  0  0  0  0  0  0  0  0  0
    0.2550   12.7040   -1.2560 O   0  0  0  0  0  0  0  0  0  0  0  0
   -0.8530    9.2010   -9.0930 C   0  0  0  0  0  0  0  0  0  0  0  0
   -0.0890   14.7400   -4.2350 C   0  0  0  0  0  0  0  0  0  0  0  0
   -2.4200   14.3760   -4.6830 C   0  0  0  0  0  0  0  0  0  0  0  0
   -0.1970   16.0260   -4.7760 C   0  0  0  0  0  0  0  0  0  0  0  0
   -2.5390   15.6550   -5.2260 C   0  0  0  0  0  0  0  0  0  0  0  0
   -1.4280   16.4950   -5.2760 C   0  0  0  0  0  0  0  0  0  0  0  0
    0.9130   16.8470   -4.8190 C   0  0  0  0  0  0  0  0  0  0  0  0
   -1.5050   17.7850   -5.8070 C   0  0  0  0  0  0  0  0  0  0  0  0
    0.8380   18.1280   -5.3490 C   0  0  0  0  0  0  0  0  0  0  0  0
   -0.3760   18.5980   -5.8440 C   0  0  0  0  0  0  0  0  0  0  0  0
  1  2  1  0
  3  2  1  6
  1  4  1  0
  4  5  1  0
  4  6  1  0
  3  7  1  0
  5  8  1  0
  6  9  1  0
  3 10  1  0
  7 11  1  0
  7 12  1  0
  7 13  1  0
  8 14  1  0
  9 14  1  0
 10 15  2  0
 10 16  1  0
 15 17  1  0
 16 18  2  0
 17 19  2  0
 18 19  1  0
 17 20  1  0
 19 21  1  0
 20 22  2  0
 21 23  2  0
 22 23  1  0
M  END
