diamond-x0905_0_A-mac-x0472
     RDKit          3D

 21 23  0  0  0  0  0  0  0  0999 V2000
   -8.0500   15.1240   -0.1190 O   0  0  0  0  0  0  0  0  0  0  0  0
   -6.7900   15.1600   -0.5890 C   0  0  0  0  0  0  0  0  0  0  0  0
   -5.8520   14.9350    0.3330 N   0  0  0  0  0  0  0  0  0  0  0  0
   -6.5760   15.4100   -1.9250 C   0  0  0  0  0  0  0  0  0  0  0  0
   -4.6540   14.9850   -0.2220 C   0  0  0  0  0  0  0  0  0  0  0  0
   -5.2820   15.4380   -2.3730 C   0  0  0  0  0  0  0  0  0  0  0  0
   -4.3190   15.2280   -1.4890 C   0  0  0  0  0  0  0  0  0  0  0  0
   -3.2140   14.7210    0.4950 S   0  0  0  0  0  0  0  0  0  0  0  0
   -1.8420   14.2710   -0.2890 C   0  0  0  0  0  0  0  0  0  0  0  0
   -2.5710   14.7560    1.9730 C   0  0  0  0  0  0  0  0  0  0  0  0
   -1.6340   14.0390   -1.5910 N   0  0  0  0  0  0  0  0  0  0  0  0
   -0.9260   14.1660    0.6150 N   0  0  0  0  0  0  0  0  0  0  0  0
   -1.2950   14.4290    1.9060 N   0  0  0  0  0  0  0  0  0  0  0  0
   -2.9350   14.2780   -2.6860 S   0  0  0  0  0  0  0  0  0  0  0  0
   -2.4240   14.2200   -4.0950 O   0  0  0  0  0  0  0  0  0  0  0  0
   -3.8420   12.7070   -2.4200 C   0  0  0  0  0  0  0  0  0  0  0  0
   -3.2710   11.4970   -2.8150 C   0  0  0  0  0  0  0  0  0  0  0  0
   -5.1260   12.6790   -1.8290 C   0  0  0  0  0  0  0  0  0  0  0  0
   -3.9560   10.2930   -2.6380 C   0  0  0  0  0  0  0  0  0  0  0  0
   -5.8080   11.4750   -1.6510 C   0  0  0  0  0  0  0  0  0  0  0  0
   -5.2260   10.2860   -2.0600 C   0  0  0  0  0  0  0  0  0  0  0  0
  1  2  1  0
  2  3  2  0
  2  4  1  0
  3  5  1  0
  4  6  2  0
  5  7  2  0
  6  7  1  0
  5  8  1  0
  8  9  2  0
  8 10  1  0
  9 11  1  0
  9 12  1  0
 10 13  2  0
 12 13  1  0
 14 11  1  1
 14 15  2  0
 14 16  1  0
 16 17  2  0
 16 18  1  0
 17 19  1  0
 18 20  2  0
 19 21  2  0
 20 21  1  0
M  END
