diamond-x0465_0_A-mac-x0357
     RDKit          3D

 19 21  0  0  0  0  0  0  0  0999 V2000
    2.1700   13.0790   -4.3510 C   0  0  0  0  0  0  0  0  0  0  0  0
    1.8890   12.9060   -2.9140 C   0  0  0  0  0  0  0  0  0  0  0  0
    0.3270   12.2340   -2.5770 S   0  0  0  0  0  0  0  0  0  0  0  0
    1.0470   12.4100   -5.0300 C   0  0  0  0  0  0  0  0  0  0  0  0
    0.0380   11.9280   -4.2740 C   0  0  0  0  0  0  0  0  0  0  0  0
    0.8300   12.1830   -6.3470 C   0  0  0  0  0  0  0  0  0  0  0  0
    0.5770   12.0410   -1.2900 O   0  0  0  0  0  0  0  0  0  0  0  0
    0.4940   10.3900   -2.4570 O   0  0  0  0  0  0  0  0  0  0  0  0
   -0.9390   12.8950   -2.4020 O   0  0  0  0  0  0  0  0  0  0  0  0
   -0.3830   11.5870   -5.7280 C   0  0  0  0  0  0  0  0  0  0  0  0
   -0.9940   11.3020   -5.1090 C   0  0  0  0  0  0  0  0  0  0  0  0
    0.0160   11.6740   -7.2060 C   0  0  0  0  0  0  0  0  0  0  0  0
   -0.7090   10.2230   -5.9330 C   0  0  0  0  0  0  0  0  0  0  0  0
   -1.2050   12.4070   -4.9440 C   0  0  0  0  0  0  0  0  0  0  0  0
   -1.0510   11.1600   -6.5260 C   0  0  0  0  0  0  0  0  0  0  0  0
    0.0850    9.4480   -6.7070 F   0  0  0  0  0  0  0  0  0  0  0  0
   -1.8540    9.7280   -5.3250 C   0  0  0  0  0  0  0  0  0  0  0  0
   -2.3550   11.8570   -4.3560 C   0  0  0  0  0  0  0  0  0  0  0  0
   -2.6890   10.5070   -4.5390 C   0  0  0  0  0  0  0  0  0  0  0  0
  1  2  1  0
  2  3  1  0
  1  4  1  0
  3  5  1  0
  4  5  2  0
  4  6  1  0
  3  7  2  0
  3  8  1  0
  3  9  1  0
  6 10  1  0
  5 11  1  0
  6 12  2  0
 10 13  2  0
 10 14  1  0
 11 15  2  0
 12 15  1  0
 13 16  1  0
 13 17  1  0
 14 18  2  0
 17 19  2  0
 18 19  1  0
M  END
