diamond-x0290_0_A-diamond-x0933_0_A
     RDKit          3D

 19 20  0  0  0  0  0  0  0  0999 V2000
   -7.4750   13.4740    1.1340 N   0  0  0  0  0  0  0  0  0  0  0  0
   -8.3560   14.6350    0.9570 C   0  0  0  0  0  0  0  0  0  0  0  0
   -6.1220   13.8760    1.6780 C   0  0  1  0  0  0  0  0  0  0  0  0
   -4.9290   13.0400    1.2530 C   0  0  0  0  0  0  0  0  0  0  0  0
   -5.4670   14.9510    0.8650 C   0  0  0  0  0  0  0  0  0  0  0  0
   -5.0940   12.1210    0.4720 O   0  0  0  0  0  0  0  0  0  0  0  0
   -3.7470   13.5640    1.7890 N   0  0  0  0  0  0  0  0  0  0  0  0
   -6.0320   15.4680   -0.3250 N   0  0  0  0  0  0  0  0  0  0  0  0
   -4.6210   15.8290    1.6070 N   0  0  0  0  0  0  0  0  0  0  0  0
   -2.5570   13.9450    1.1180 C   0  0  0  0  0  0  0  0  0  0  0  0
   -4.9640   15.4580   -1.2960 C   0  0  0  0  0  0  0  0  0  0  0  0
   -3.4510   15.9620    0.7740 C   0  0  0  0  0  0  0  0  0  0  0  0
   -1.4700   14.2940    1.8280 N   0  0  0  0  0  0  0  0  0  0  0  0
   -2.5250   13.9500   -0.2840 C   0  0  0  0  0  0  0  0  0  0  0  0
   -3.5960   15.3090   -0.6440 C   0  0  0  0  0  0  0  0  0  0  0  0
   -0.3540   14.6440    1.1690 C   0  0  0  0  0  0  0  0  0  0  0  0
   -1.3470   14.3290   -0.9570 C   0  0  0  0  0  0  0  0  0  0  0  0
   -1.2750   14.3590   -2.4520 C   0  0  0  0  0  0  0  0  0  0  0  0
   -0.2370   14.6810   -0.1990 C   0  0  0  0  0  0  0  0  0  0  0  0
  1  2  1  0
  3  1  1  6
  3  4  1  0
  3  5  1  0
  4  6  2  0
  4  7  1  0
  5  8  1  0
  5  9  1  0
  7 10  1  0
  8 11  1  0
  9 12  1  0
 10 13  2  0
 10 14  1  0
 11 15  1  0
 12 15  1  0
 13 16  1  0
 14 17  2  0
 17 18  1  0
 16 19  2  0
 17 19  1  0
M  END
