diamond-x0253_0_A-mac-x0455
     RDKit          3D

 25 26  0  0  0  0  0  0  0  0999 V2000
    0.5690   11.6160   -5.2440 N   0  0  0  0  0  0  0  0  0  0  0  0
    1.1930   11.5640   -6.4830 C   0  0  0  0  0  0  0  0  0  0  0  0
    2.2130   12.1980   -6.6790 O   0  0  0  0  0  0  0  0  0  0  0  0
    1.1670   12.3630   -4.1460 C   0  0  0  0  0  0  0  0  0  0  0  0
    0.6320   11.9050   -2.7790 C   0  0  0  0  0  0  0  0  0  0  0  0
    0.5730   10.6710   -7.5200 C   0  0  0  0  0  0  0  0  0  0  0  0
    0.2140   12.7790   -1.9310 N   0  0  0  0  0  0  0  0  0  0  0  0
    0.6040   10.5690   -2.5160 O   0  0  0  0  0  0  0  0  0  0  0  0
   -0.3490    9.6930   -7.1290 C   0  0  0  0  0  0  0  0  0  0  0  0
    0.8880   10.7890   -8.8820 C   0  0  0  0  0  0  0  0  0  0  0  0
    0.2420   14.0770   -2.3830 C   0  0  0  0  0  0  0  0  0  0  0  0
   -0.9530    8.8580   -8.0680 C   0  0  0  0  0  0  0  0  0  0  0  0
    0.2950    9.9590   -9.8200 C   0  0  0  0  0  0  0  0  0  0  0  0
   -1.9460    7.8260   -7.6250 C   0  0  0  0  0  0  0  0  0  0  0  0
   -1.0080   14.4010   -3.3050 C   0  0  1  0  0  0  0  0  0  0  0  0
    1.1240   14.8860   -2.1010 O   0  0  0  0  0  0  0  0  0  0  0  0
   -0.6240    8.9960   -9.4190 C   0  0  0  0  0  0  0  0  0  0  0  0
   -2.2400   14.5810   -2.4110 C   0  0  0  0  0  0  0  0  0  0  0  0
   -0.8710   15.6570   -3.9920 O   0  0  0  0  0  0  0  0  0  0  0  0
   -1.2460   13.2670   -4.3230 C   0  0  0  0  0  0  0  0  0  0  0  0
   -2.0650   12.1650   -3.9990 C   0  0  0  0  0  0  0  0  0  0  0  0
   -0.6700   13.2830   -5.6030 C   0  0  0  0  0  0  0  0  0  0  0  0
   -2.2970   11.1350   -4.9080 C   0  0  0  0  0  0  0  0  0  0  0  0
   -0.9030   12.2540   -6.5110 C   0  0  0  0  0  0  0  0  0  0  0  0
   -1.7180   11.1790   -6.1660 C   0  0  0  0  0  0  0  0  0  0  0  0
  1  2  1  0
  2  3  2  0
  1  4  1  0
  4  5  1  0
  2  6  1  0
  5  7  2  3
  5  8  1  0
  6  9  2  0
  6 10  1  0
  7 11  1  0
  9 12  1  0
 10 13  2  0
 12 14  1  0
 11 15  1  0
 11 16  2  0
 12 17  2  0
 13 17  1  0
 15 18  1  1
 15 19  1  0
 15 20  1  0
 20 21  2  0
 20 22  1  0
 21 23  1  0
 22 24  2  0
 23 25  2  0
 24 25  1  0
M  END
