diamond-x0905_0_A-mac-x0451
     RDKit          3D

 12 13  0  0  0  0  0  0  0  0999 V2000
   -7.1780   13.4490   -0.6880 O   0  0  0  0  0  0  0  0  0  0  0  0
   -6.1590   14.3890   -0.7190 C   0  0  2  0  0  0  0  0  0  0  0  0
   -4.8340   13.8940   -0.9220 N   0  0  0  0  0  0  0  0  0  0  0  0
   -6.2970   15.1250    0.4950 N   0  0  0  0  0  0  0  0  0  0  0  0
   -3.9470   14.5810    0.0010 C   0  0  2  0  0  0  0  0  0  0  0  0
   -4.3020   14.2520   -2.2610 C   0  0  0  0  0  0  0  0  0  0  0  0
   -5.7310   14.7240    1.7630 C   0  0  1  0  0  0  0  0  0  0  0  0
   -6.7170   13.8290    2.2770 N   0  0  0  0  0  0  0  0  0  0  0  0
   -2.5940   14.5730   -0.6270 C   0  0  0  0  0  0  0  0  0  0  0  0
   -3.0580   15.0820   -1.9740 C   0  0  1  0  0  0  0  0  0  0  0  0
   -4.1290   13.9540    1.6280 S   0  0  0  0  0  0  0  0  0  0  0  0
   -2.0880   14.8440   -2.9030 F   0  0  0  0  0  0  0  0  0  0  0  0
  2  1  1  1
  2  3  1  0
  2  4  1  0
  3  5  1  0
  3  6  1  0
  4  7  1  0
  7  8  1  6
  5  9  1  6
  6 10  1  0
  9 10  1  0
  5 11  1  0
  7 11  1  0
 10 12  1  6
M  END
