diamond-x0104_0_A-diamond-x0895_0_A
     RDKit          3D

 23 25  0  0  0  0  0  0  0  0999 V2000
   -7.5360   14.3520    2.6050 N   0  0  0  0  0  0  0  0  0  0  0  0
   -8.4310   15.2200    3.1630 C   0  0  0  0  0  0  0  0  0  0  0  0
   -8.2340   15.2620    4.5290 N   0  0  0  0  0  0  0  0  0  0  0  0
   -6.8720   14.5170    1.3880 C   0  0  0  0  0  0  0  0  0  0  0  0
   -9.2690   15.8460    2.5360 O   0  0  0  0  0  0  0  0  0  0  0  0
   -5.5320   14.4880    1.3910 C   0  0  0  0  0  0  0  0  0  0  0  0
   -7.5160   14.7120    0.1340 C   0  0  0  0  0  0  0  0  0  0  0  0
   -4.8150   14.6260    0.3060 N   0  0  0  0  0  0  0  0  0  0  0  0
   -6.7430   14.8670   -1.0590 C   0  0  0  0  0  0  0  0  0  0  0  0
   -9.2720   15.1830    5.4170 C   0  0  0  0  0  0  0  0  0  0  0  0
   -5.3690   14.8080   -0.8810 C   0  0  0  0  0  0  0  0  0  0  0  0
   -9.3460   15.2430    6.7850 C   0  0  0  0  0  0  0  0  0  0  0  0
  -10.7920   14.9660    4.6810 S   0  0  0  0  0  0  0  0  0  0  0  0
   -4.1570   14.8890   -1.6590 C   0  0  0  0  0  0  0  0  0  0  0  0
  -11.5840   14.9500    6.1990 C   0  0  0  0  0  0  0  0  0  0  0  0
  -10.6930   15.1080    7.2400 C   0  0  0  0  0  0  0  0  0  0  0  0
   -4.0350   15.0660   -3.1370 C   0  0  0  0  0  0  0  0  0  0  0  0
   -3.3160   14.7510   -0.6370 C   0  0  0  0  0  0  0  0  0  0  0  0
   -3.8820   14.6040    0.5960 N   0  0  0  0  0  0  0  0  0  0  0  0
   -1.9610   14.7110   -0.4400 N   0  0  0  0  0  0  0  0  0  0  0  0
   -3.0770   15.3590    1.4910 C   0  0  0  0  0  0  0  0  0  0  0  0
   -1.7760   14.8050    0.9690 C   0  0  0  0  0  0  0  0  0  0  0  0
   -0.8380   14.5030    1.6670 O   0  0  0  0  0  0  0  0  0  0  0  0
  1  2  1  0
  2  3  1  0
  1  4  1  0
  2  5  2  0
  4  6  2  0
  4  7  1  0
  6  8  1  0
  7  9  2  0
  3 10  1  0
  8 11  2  0
  9 11  1  0
 10 12  2  0
 10 13  1  0
 11 14  1  0
 13 15  1  0
 12 16  1  0
 15 16  2  0
 14 17  1  0
 14 18  2  3
 18 19  1  0
 18 20  1  0
 19 21  1  0
 20 22  1  0
 21 22  1  0
 22 23  2  0
M  END
