diamond-x0711_0_A-diamond-x0626_0_A
     RDKit          3D

 17 17  0  0  0  0  0  0  0  0999 V2000
   -1.4390   15.0570   -2.6180 N   0  0  0  0  0  0  0  0  0  0  0  0
   -0.4380   13.7830   -3.0680 S   0  0  0  0  0  0  0  0  0  0  0  0
   -1.5820   12.7540   -3.9510 C   0  0  0  0  0  0  0  0  0  0  0  0
   -2.5850   14.8930   -1.7780 C   0  0  0  0  0  0  0  0  0  0  0  0
    0.4480   14.3840   -4.0430 O   0  0  0  0  0  0  0  0  0  0  0  0
    0.0670   13.0770   -1.9120 O   0  0  0  0  0  0  0  0  0  0  0  0
   -3.8360   15.0090   -2.4000 C   0  0  0  0  0  0  0  0  0  0  0  0
   -2.4830   14.6460   -0.3880 C   0  0  0  0  0  0  0  0  0  0  0  0
   -1.1600   14.5160    0.3600 C   0  0  0  0  0  0  0  0  0  0  0  0
   -5.0080   14.8890   -1.6590 C   0  0  0  0  0  0  0  0  0  0  0  0
   -3.6830   14.5290    0.3340 C   0  0  0  0  0  0  0  0  0  0  0  0
   -4.9500   14.6500   -0.2810 C   0  0  0  0  0  0  0  0  0  0  0  0
   -6.2080   14.5360    0.5630 C   0  0  2  0  0  0  0  0  0  0  0  0
   -6.6900   13.2420    0.8290 N   0  0  0  0  0  0  0  0  0  0  0  0
   -7.2630   15.2240   -0.0420 O   0  0  0  0  0  0  0  0  0  0  0  0
   -5.9200   15.1130    1.8280 N   0  0  0  0  0  0  0  0  0  0  0  0
   -8.1420   13.2660    1.0180 C   0  0  0  0  0  0  0  0  0  0  0  0
  2  1  1  0
  2  3  1  0
  1  4  1  0
  2  5  2  0
  2  6  2  0
  4  7  2  0
  4  8  1  0
  8  9  1  0
  7 10  1  0
  8 11  2  0
 10 12  2  0
 11 12  1  0
 12 13  1  0
 13 14  1  0
 13 15  1  0
 13 16  1  1
 14 17  1  0
M  END
