diamond-x0662_0_A-mac-x0188
     RDKit          3D

 32 35  0  0  0  0  0  0  0  0999 V2000
    5.2610    9.5460  -14.9560 C   0  0  0  0  0  0  0  0  0  0  0  0
    4.2200   10.0220  -14.0740 N   0  0  0  0  0  0  0  0  0  0  0  0
    3.5480   11.2090  -14.1430 C   0  0  0  0  0  0  0  0  0  0  0  0
    3.8300    9.2440  -13.0450 N   0  0  0  0  0  0  0  0  0  0  0  0
    2.6630   11.2060  -13.0880 C   0  0  0  0  0  0  0  0  0  0  0  0
    2.8690    9.9670  -12.4240 C   0  0  0  0  0  0  0  0  0  0  0  0
    2.1900    9.4450  -11.2110 C   0  0  0  0  0  0  0  0  0  0  0  0
    2.2080    8.2460  -10.9680 O   0  0  0  0  0  0  0  0  0  0  0  0
    1.5890   10.4240  -10.4180 N   0  0  0  0  0  0  0  0  0  0  0  0
    0.7830   10.2260   -9.2700 C   0  0  0  0  0  0  0  0  0  0  0  0
   -0.1670    9.2100   -9.4050 C   0  0  0  0  0  0  0  0  0  0  0  0
    0.8510   10.9410   -8.0380 C   0  0  0  0  0  0  0  0  0  0  0  0
   -1.0300    8.9030   -8.3600 C   0  0  0  0  0  0  0  0  0  0  0  0
   -0.0240   10.6390   -6.9730 C   0  0  0  0  0  0  0  0  0  0  0  0
   -0.0930   11.2990   -5.6020 C   0  0  0  0  0  0  0  0  0  0  0  0
   -0.9550    9.6120   -7.1610 C   0  0  0  0  0  0  0  0  0  0  0  0
   -0.8690   10.8530   -4.7790 O   0  0  0  0  0  0  0  0  0  0  0  0
    0.7190   12.3740   -5.3330 O   0  0  0  0  0  0  0  0  0  0  0  0
   -0.0220   13.6190   -5.1660 C   0  0  1  0  0  0  0  0  0  0  0  0
   -1.3660   13.4220   -5.6780 O   0  0  0  0  0  0  0  0  0  0  0  0
   -0.2800   14.2850   -3.7680 C   0  0  2  0  0  0  0  0  0  0  0  0
    0.5910   13.9250   -2.5800 C   0  0  0  0  0  0  0  0  0  0  0  0
   -2.3070   13.3860   -4.5550 N   0  0  0  0  0  0  0  0  0  0  0  0
   -1.8030   14.4780   -3.7450 C   0  0  1  0  0  0  0  0  0  0  0  0
    1.3220   14.7640   -2.0610 O   0  0  0  0  0  0  0  0  0  0  0  0
    0.5580   12.6710   -2.0880 O   0  0  0  0  0  0  0  0  0  0  0  0
   -2.6640   14.7550   -2.5170 C   0  0  0  0  0  0  0  0  0  0  0  0
   -3.9720   15.2240   -2.7450 C   0  0  0  0  0  0  0  0  0  0  0  0
   -2.2550   14.5870   -1.1840 C   0  0  0  0  0  0  0  0  0  0  0  0
   -4.8370   15.5200   -1.6890 C   0  0  0  0  0  0  0  0  0  0  0  0
   -3.1270   14.8850   -0.1250 C   0  0  0  0  0  0  0  0  0  0  0  0
   -4.4150   15.3520   -0.3800 C   0  0  0  0  0  0  0  0  0  0  0  0
  1  2  1  0
  2  3  1  0
  2  4  1  0
  3  5  2  0
  4  6  2  0
  5  6  1  0
  6  7  1  0
  7  8  2  0
  7  9  1  0
  9 10  1  0
 10 11  2  0
 10 12  1  0
 11 13  1  0
 12 14  2  0
 14 15  1  0
 13 16  2  0
 14 16  1  0
 15 17  2  0
 15 18  1  0
 19 18  1  1
 19 20  1  0
 19 21  1  0
 21 22  1  1
 20 23  1  0
 21 24  1  0
 23 24  1  0
 22 25  2  0
 22 26  1  0
 24 27  1  1
 27 28  2  0
 27 29  1  0
 28 30  1  0
 29 31  2  0
 30 32  2  0
 31 32  1  0
M  END
