diamond-x0253_0_A-diamond-x0282_0_A
     RDKit          3D

 29 31  0  0  0  0  0  0  0  0999 V2000
    0.4540   12.4890   -6.0250 N   0  0  0  0  0  0  0  0  0  0  0  0
    1.1750   11.6880   -6.8000 C   0  0  0  0  0  0  0  0  0  0  0  0
    2.3600   11.7630   -6.6920 O   0  0  0  0  0  0  0  0  0  0  0  0
    1.2370   13.0880   -4.9890 C   0  0  0  0  0  0  0  0  0  0  0  0
    0.6580   12.5380   -3.7470 C   0  0  0  0  0  0  0  0  0  0  0  0
    0.4990   10.7380   -7.7200 C   0  0  0  0  0  0  0  0  0  0  0  0
    0.3550   13.2820   -2.8180 N   0  0  0  0  0  0  0  0  0  0  0  0
    0.4580   11.2080   -3.7360 O   0  0  0  0  0  0  0  0  0  0  0  0
   -0.4660    9.8380   -7.2590 C   0  0  0  0  0  0  0  0  0  0  0  0
    0.8400   10.7470   -9.0780 C   0  0  0  0  0  0  0  0  0  0  0  0
   -0.2490   12.5590   -1.7800 C   0  0  0  0  0  0  0  0  0  0  0  0
   -1.0920    8.9540   -8.1460 C   0  0  0  0  0  0  0  0  0  0  0  0
    0.2230    9.8690   -9.9650 C   0  0  0  0  0  0  0  0  0  0  0  0
   -2.1290    7.9930   -7.6490 C   0  0  0  0  0  0  0  0  0  0  0  0
   -0.7390    8.9770   -9.5000 C   0  0  0  0  0  0  0  0  0  0  0  0
   -0.6470   13.4660   -0.7010 C   0  0  0  0  0  0  0  0  0  0  0  0
   -1.9210   13.7530   -0.5800 N   0  0  0  0  0  0  0  0  0  0  0  0
    0.2940   13.9320    0.0950 C   0  0  0  0  0  0  0  0  0  0  0  0
   -0.1090   14.7210    1.1130 C   0  0  0  0  0  0  0  0  0  0  0  0
   -2.2590   14.5340    0.4210 C   0  0  0  0  0  0  0  0  0  0  0  0
   -3.5700   14.7970    0.5020 N   0  0  0  0  0  0  0  0  0  0  0  0
   -1.3900   15.0380    1.3170 N   0  0  0  0  0  0  0  0  0  0  0  0
   -4.1240   14.1950    1.6700 C   0  0  0  0  0  0  0  0  0  0  0  0
   -4.3090   14.8400   -0.7720 C   0  0  0  0  0  0  0  0  0  0  0  0
   -5.4820   14.7950    1.8420 C   0  0  0  0  0  0  0  0  0  0  0  0
   -5.8170   15.0730   -0.6000 C   0  0  0  0  0  0  0  0  0  0  0  0
   -6.3200   14.3630    0.6640 C   0  0  0  0  0  0  0  0  0  0  0  0
   -7.8180   14.4660    0.9680 C   0  0  0  0  0  0  0  0  0  0  0  0
   -8.5880   14.5920   -0.2130 O   0  0  0  0  0  0  0  0  0  0  0  0
  1  2  1  0
  2  3  2  0
  1  4  1  0
  4  5  1  0
  2  6  1  0
  5  7  2  3
  5  8  1  0
  6  9  2  0
  6 10  1  0
  7 11  1  0
  9 12  1  0
 10 13  2  0
 12 14  1  0
 12 15  2  0
 13 15  1  0
 11 16  1  0
 16 17  2  0
 16 18  1  0
 18 19  2  0
 17 20  1  0
 20 21  1  0
 19 22  1  0
 20 22  2  0
 21 23  1  0
 21 24  1  0
 23 25  1  0
 24 26  1  0
 25 27  1  0
 26 27  1  0
 27 28  1  0
 28 29  1  0
M  END
