diamond-x0104_0_A-mac-x0567
     RDKit          3D

 26 29  0  0  0  0  0  0  0  0999 V2000
   -7.2090   13.9280    2.8610 N   0  0  0  0  0  0  0  0  0  0  0  0
   -8.2420   14.6380    3.4340 C   0  0  0  0  0  0  0  0  0  0  0  0
   -8.2240   14.6150    4.8000 N   0  0  0  0  0  0  0  0  0  0  0  0
   -6.7570   14.6520    1.7410 C   0  0  1  0  0  0  0  0  0  0  0  0
   -9.0530   15.2200    2.7260 O   0  0  0  0  0  0  0  0  0  0  0  0
   -5.3390   14.4380    1.1930 C   0  0  0  0  0  0  0  0  0  0  0  0
   -7.8190   14.5880    0.6700 C   0  0  0  0  0  0  0  0  0  0  0  0
   -5.2280   15.1530   -0.0890 N   0  0  0  0  0  0  0  0  0  0  0  0
   -7.4900   14.5680   -0.6280 C   0  0  0  0  0  0  0  0  0  0  0  0
   -9.3410   14.8430    5.5590 C   0  0  0  0  0  0  0  0  0  0  0  0
   -6.0960   14.5940   -1.0900 C   0  0  1  0  0  0  0  0  0  0  0  0
   -9.3640   15.0700    6.9150 C   0  0  0  0  0  0  0  0  0  0  0  0
  -10.8920   14.8720    4.8690 S   0  0  0  0  0  0  0  0  0  0  0  0
   -3.9980   15.0110   -0.5430 C   0  0  0  0  0  0  0  0  0  0  0  0
   -5.9870   15.4220   -2.2270 O   0  0  0  0  0  0  0  0  0  0  0  0
  -11.6240   15.1840    6.3790 C   0  0  0  0  0  0  0  0  0  0  0  0
  -10.6940   15.2680    7.3910 C   0  0  0  0  0  0  0  0  0  0  0  0
   -2.8120   14.7820    0.1540 C   0  0  0  0  0  0  0  0  0  0  0  0
   -3.8620   15.0780   -1.9430 C   0  0  0  0  0  0  0  0  0  0  0  0
   -2.5190   14.6610    1.4750 N   0  0  0  0  0  0  0  0  0  0  0  0
   -1.6340   14.6270   -0.6130 C   0  0  0  0  0  0  0  0  0  0  0  0
   -2.6620   14.9220   -2.6410 C   0  0  0  0  0  0  0  0  0  0  0  0
   -0.6380   14.4020    0.2280 C   0  0  0  0  0  0  0  0  0  0  0  0
   -1.1880   14.4290    1.4810 N   0  0  0  0  0  0  0  0  0  0  0  0
   -1.4640   14.6790   -1.9900 C   0  0  0  0  0  0  0  0  0  0  0  0
    0.6270   14.1910   -0.0740 N   0  0  0  0  0  0  0  0  0  0  0  0
  1  2  1  0
  2  3  1  0
  4  1  1  1
  2  5  2  0
  4  6  1  0
  4  7  1  0
  6  8  1  0
  7  9  2  0
  3 10  1  0
  8 11  1  0
  9 11  1  0
 10 12  2  0
 10 13  1  0
  8 14  1  0
 11 15  1  6
 13 16  1  0
 12 17  1  0
 16 17  2  0
 14 18  1  0
 14 19  2  0
 18 20  2  0
 18 21  1  0
 19 22  1  0
 21 23  2  0
 20 24  1  0
 23 24  1  0
 21 25  1  0
 22 25  2  0
 23 26  1  0
M  END
