diamond-x0591_0_A-mac-x0131
     RDKit          3D

 25 27  0  0  0  0  0  0  0  0999 V2000
   -5.7230   14.8540    1.0760 N   0  0  0  0  0  0  0  0  0  0  0  0
   -6.7270   14.4610    2.0340 C   0  0  0  0  0  0  0  0  0  0  0  0
   -6.0320   14.9380   -0.2530 C   0  0  0  0  0  0  0  0  0  0  0  0
   -7.1690   15.2350   -0.6380 O   0  0  0  0  0  0  0  0  0  0  0  0
   -4.9120   14.6080   -1.2620 C   0  0  2  0  0  0  0  0  0  0  0  0
   -3.3410   14.6090   -1.0270 C   0  0  2  0  0  0  0  0  0  0  0  0
   -5.3130   15.1490   -2.5910 C   0  0  0  0  0  0  0  0  0  0  0  0
   -2.7390   13.7070   -2.1720 C   0  0  0  0  0  0  0  0  0  0  0  0
   -4.6110   14.8200   -3.6640 C   0  0  0  0  0  0  0  0  0  0  0  0
   -2.8700   14.5430    0.4730 C   0  0  1  0  0  0  0  0  0  0  0  0
   -2.5010   15.8890   -1.2760 C   0  0  0  0  0  0  0  0  0  0  0  0
   -3.6580   13.7750    1.3820 N   0  0  0  0  0  0  0  0  0  0  0  0
   -3.4100   13.9130   -3.6000 C   0  0  1  0  0  0  0  0  0  0  0  0
   -1.5000   14.1690    0.6760 N   0  0  0  0  0  0  0  0  0  0  0  0
   -1.0410   15.6440   -1.0950 N   0  0  0  0  0  0  0  0  0  0  0  0
   -2.3570   14.4340   -5.0130 S   0  0  0  0  0  0  0  0  0  0  0  0
   -0.6610   15.2740    0.2570 C   0  0  0  0  0  0  0  0  0  0  0  0
   -0.8370   14.6030   -4.3070 N   0  0  0  0  0  0  0  0  0  0  0  0
   -2.1910   13.2850   -5.8690 O   0  0  0  0  0  0  0  0  0  0  0  0
   -2.8470   15.6850   -5.5560 O   0  0  0  0  0  0  0  0  0  0  0  0
   -0.4890   13.2510   -3.9120 C   0  0  0  0  0  0  0  0  0  0  0  0
    0.6440   12.7550   -3.3090 C   0  0  0  0  0  0  0  0  0  0  0  0
   -1.3800   12.2480   -4.1350 O   0  0  0  0  0  0  0  0  0  0  0  0
   -0.8320   11.1030   -3.6760 C   0  0  0  0  0  0  0  0  0  0  0  0
    0.4060   11.3640   -3.1560 C   0  0  0  0  0  0  0  0  0  0  0  0
  1  2  1  0
  1  3  1  0
  3  4  2  0
  5  3  1  1
  5  6  1  0
  5  7  1  0
  6  8  1  6
  7  9  2  0
  6 10  1  0
  6 11  1  0
 10 12  1  1
  8 13  1  0
  9 13  1  0
 10 14  1  0
 11 15  1  0
 13 16  1  6
 14 17  1  0
 15 17  1  0
 16 18  1  0
 16 19  2  0
 16 20  2  0
 18 21  1  0
 21 22  2  0
 21 23  1  0
 23 24  1  0
 22 25  1  0
 24 25  2  0
M  END
