diamond-x0104_0_A-diamond-x0852_0_B
     RDKit          3D

 25 27  0  0  0  0  0  0  0  0999 V2000
   -6.5760   13.8080    1.9830 N   0  0  0  0  0  0  0  0  0  0  0  0
   -7.6990   14.4010    2.3050 C   0  0  0  0  0  0  0  0  0  0  0  0
   -8.8560   14.3840    1.7600 N   0  0  0  0  0  0  0  0  0  0  0  0
   -5.9420   14.2520    0.8660 C   0  0  0  0  0  0  0  0  0  0  0  0
   -4.5790   14.3380    0.6850 C   0  0  0  0  0  0  0  0  0  0  0  0
   -6.7650   14.6550   -0.1830 C   0  0  0  0  0  0  0  0  0  0  0  0
   -3.9980   14.7790   -0.4500 N   0  0  0  0  0  0  0  0  0  0  0  0
   -6.2100   15.1140   -1.3540 C   0  0  0  0  0  0  0  0  0  0  0  0
   -9.3590   15.2570    2.6080 C   0  0  0  0  0  0  0  0  0  0  0  0
   -4.8390   15.1520   -1.4360 C   0  0  0  0  0  0  0  0  0  0  0  0
   -9.2300   14.8250    3.8800 C   0  0  0  0  0  0  0  0  0  0  0  0
   -9.9300   16.4730    2.3050 C   0  0  0  0  0  0  0  0  0  0  0  0
   -4.3320   15.6040   -2.6220 O   0  0  0  0  0  0  0  0  0  0  0  0
  -10.1850   17.0210    0.5020 Br  0  0  0  0  0  0  0  0  0  0  0  0
   -9.6470   15.6250    4.8740 C   0  0  0  0  0  0  0  0  0  0  0  0
  -10.3150   17.3050    3.3470 C   0  0  0  0  0  0  0  0  0  0  0  0
   -3.1030   14.9810   -2.9380 C   0  0  0  0  0  0  0  0  0  0  0  0
   -9.6300   15.1800    6.1800 C   0  0  0  0  0  0  0  0  0  0  0  0
  -10.1490   16.8660    4.6560 C   0  0  0  0  0  0  0  0  0  0  0  0
  -10.4880   17.6360    5.8150 C   0  0  0  0  0  0  0  0  0  0  0  0
   -8.7940   15.1550    7.2360 C   0  0  0  0  0  0  0  0  0  0  0  0
  -11.1600   14.4850    6.4400 S   0  0  0  0  0  0  0  0  0  0  0  0
  -10.6560   18.2180    6.8040 N   0  0  0  0  0  0  0  0  0  0  0  0
  -10.7490   14.1290    8.0280 C   0  0  0  0  0  0  0  0  0  0  0  0
   -9.4620   14.5340    8.3300 C   0  0  0  0  0  0  0  0  0  0  0  0
  1  2  1  0
  2  3  2  3
  1  4  1  0
  4  5  2  0
  4  6  1  0
  5  7  1  0
  6  8  2  0
  3  9  1  0
  7 10  2  0
  8 10  1  0
  9 11  2  0
  9 12  1  0
 10 13  1  0
 12 14  1  0
 11 15  1  0
 12 16  2  0
 13 17  1  0
 15 18  1  0
 15 19  2  0
 16 19  1  0
 19 20  1  0
 18 21  2  0
 18 22  1  0
 20 23  3  0
 22 24  1  0
 21 25  1  0
 24 25  2  0
M  END
