diamond-x0626_0_A-mac-x0590
     RDKit          3D

 23 25  0  0  0  0  0  0  0  0999 V2000
   -4.7880   14.8090    1.2560 N   0  0  0  0  0  0  0  0  0  0  0  0
   -6.0110   14.7380    0.6340 C   0  0  0  0  0  0  0  0  0  0  0  0
   -6.1760   14.9370   -0.5630 O   0  0  0  0  0  0  0  0  0  0  0  0
   -3.6050   14.4140    0.5500 C   0  0  2  0  0  0  0  0  0  0  0  0
   -7.1410   14.3860    1.5870 C   0  0  0  0  0  0  0  0  0  0  0  0
   -2.4530   14.9220    1.2540 N   0  0  0  0  0  0  0  0  0  0  0  0
   -3.7050   15.0720   -1.1160 S   0  0  0  0  0  0  0  0  0  0  0  0
   -8.5100   14.6160    0.9650 C   0  0  0  0  0  0  0  0  0  0  0  0
   -2.3420   14.0440   -1.7500 C   0  0  1  0  0  0  0  0  0  0  0  0
   -1.1830   14.4700    0.6320 C   0  0  1  0  0  0  0  0  0  0  0  0
   -0.2800   13.8180    1.6470 C   0  0  0  0  0  0  0  0  0  0  0  0
   -1.7640   14.5300   -3.0990 C   0  0  0  0  0  0  0  0  0  0  0  0
   -1.2950   13.6250   -0.6960 C   0  0  2  0  0  0  0  0  0  0  0  0
   -0.1970   15.5010    0.2000 C   0  0  0  0  0  0  0  0  0  0  0  0
   -1.7810   13.4890   -4.2190 C   0  0  0  0  0  0  0  0  0  0  0  0
    0.0710   13.7830   -1.2170 N   0  0  0  0  0  0  0  0  0  0  0  0
    0.4840   15.0220   -0.8580 C   0  0  0  0  0  0  0  0  0  0  0  0
   -0.5340   13.5680   -5.1050 C   0  0  0  0  0  0  0  0  0  0  0  0
    0.3860   12.3420   -5.0010 C   0  0  2  0  0  0  0  0  0  0  0  0
    0.7070   11.9840   -3.5470 C   0  0  0  0  0  0  0  0  0  0  0  0
    1.7370   12.6590   -5.6080 C   0  0  0  0  0  0  0  0  0  0  0  0
    2.6280   12.9600   -4.4240 C   0  0  0  0  0  0  0  0  0  0  0  0
    2.0960   12.2480   -3.3070 O   0  0  0  0  0  0  0  0  0  0  0  0
  1  2  1  0
  2  3  2  0
  4  1  1  1
  2  5  1  0
  4  6  1  0
  4  7  1  0
  5  8  1  0
  7  9  1  0
  6 10  1  0
 10 11  1  1
  9 12  1  6
  9 13  1  0
 10 13  1  0
 10 14  1  0
 12 15  1  0
 13 16  1  6
 14 17  2  0
 16 17  1  0
 15 18  1  0
 19 18  1  1
 19 20  1  0
 19 21  1  0
 21 22  1  0
 20 23  1  0
 22 23  1  0
M  END
