diamond-x0524_0_A-mac-x0527
     RDKit          3D

 33 36  0  0  0  0  0  0  0  0999 V2000
   -0.5110    8.3060   -8.1950 N   0  0  0  0  0  0  0  0  0  0  0  0
   -0.8780    9.2600   -7.2800 C   0  0  0  0  0  0  0  0  0  0  0  0
   -2.0040    9.0490   -6.2790 C   0  0  0  0  0  0  0  0  0  0  0  0
    0.5550    8.3790   -9.1120 C   0  0  0  0  0  0  0  0  0  0  0  0
   -0.2740   10.3880   -7.2330 N   0  0  0  0  0  0  0  0  0  0  0  0
    1.7150    7.6230   -8.9850 C   0  0  0  0  0  0  0  0  0  0  0  0
    0.4630    9.2460  -10.2100 C   0  0  0  0  0  0  0  0  0  0  0  0
    2.7520    7.7190   -9.9180 C   0  0  0  0  0  0  0  0  0  0  0  0
    1.5020    9.3440  -11.1500 C   0  0  0  0  0  0  0  0  0  0  0  0
   -0.5420   11.4370   -6.3730 C   0  0  0  0  0  0  0  0  0  0  0  0
    2.6650    8.5760  -11.0150 C   0  0  0  0  0  0  0  0  0  0  0  0
   -1.7970   11.7190   -5.8270 C   0  0  0  0  0  0  0  0  0  0  0  0
    0.5380   12.2420   -6.0780 C   0  0  0  0  0  0  0  0  0  0  0  0
    3.6980    8.6770  -11.9670 N   0  0  0  0  0  0  0  0  0  0  0  0
   -1.9390   12.8330   -4.9940 C   0  0  0  0  0  0  0  0  0  0  0  0
    0.4020   13.3350   -5.2520 C   0  0  0  0  0  0  0  0  0  0  0  0
    3.9600    9.5450  -13.0410 C   0  0  0  0  0  0  0  0  0  0  0  0
   -0.8360   13.6500   -4.7000 C   0  0  0  0  0  0  0  0  0  0  0  0
   -0.9340   14.8630   -3.8130 C   0  0  0  0  0  0  0  0  0  0  0  0
    3.1780   10.6970  -13.2440 C   0  0  0  0  0  0  0  0  0  0  0  0
    5.0080    9.2900  -13.9330 C   0  0  0  0  0  0  0  0  0  0  0  0
   -1.7680   14.6530   -2.6620 N   0  0  0  0  0  0  0  0  0  0  0  0
    3.4490   11.5570  -14.3120 C   0  0  0  0  0  0  0  0  0  0  0  0
    5.2780   10.1490  -14.9990 C   0  0  0  0  0  0  0  0  0  0  0  0
   -3.1010   14.9650   -2.5750 C   0  0  0  0  0  0  0  0  0  0  0  0
    4.4960   11.2860  -15.1880 C   0  0  0  0  0  0  0  0  0  0  0  0
   -3.7300   15.2360   -3.6000 O   0  0  0  0  0  0  0  0  0  0  0  0
   -3.7710   14.9750   -1.2600 C   0  0  0  0  0  0  0  0  0  0  0  0
   -5.1510   15.0670   -1.2200 C   0  0  0  0  0  0  0  0  0  0  0  0
   -3.0000   14.8900   -0.1410 N   0  0  0  0  0  0  0  0  0  0  0  0
   -5.8360   15.0750   -0.0450 N   0  0  0  0  0  0  0  0  0  0  0  0
   -3.6870   14.8990    1.0260 C   0  0  0  0  0  0  0  0  0  0  0  0
   -5.0690   14.9890    1.0730 C   0  0  0  0  0  0  0  0  0  0  0  0
  1  2  1  0
  2  3  1  0
  1  4  1  0
  2  5  2  3
  4  6  2  0
  4  7  1  0
  6  8  1  0
  7  9  2  0
  5 10  1  0
  8 11  2  0
  9 11  1  0
 10 12  2  0
 10 13  1  0
 11 14  1  0
 12 15  1  0
 13 16  2  0
 14 17  1  0
 15 18  2  0
 16 18  1  0
 18 19  1  0
 17 20  2  0
 17 21  1  0
 19 22  1  0
 20 23  1  0
 21 24  2  0
 22 25  1  0
 23 26  2  0
 24 26  1  0
 25 27  2  0
 25 28  1  0
 28 29  2  0
 28 30  1  0
 29 31  1  0
 30 32  2  0
 31 33  2  0
 32 33  1  0
M  END
