diamond-x0933_4_B-diamond-x0729_1_B
     RDKit          3D

 20 21  0  0  0  0  0  0  0  0999 V2000
   17.5110   33.3320    7.4340 N   0  0  0  0  0  0  0  0  0  0  0  0
   16.7170   32.2100    7.7760 C   0  0  1  0  0  0  0  0  0  0  0  0
   16.4900   31.5400    6.5180 N   0  0  0  0  0  0  0  0  0  0  0  0
   17.5900   31.5070    8.6820 N   0  0  0  0  0  0  0  0  0  0  0  0
   17.2240   30.1050    8.7980 C   0  0  0  0  0  0  0  0  0  0  0  0
   16.2960   30.0930    6.6240 C   0  0  0  0  0  0  0  0  0  0  0  0
   17.4590   29.5270    7.4300 C   0  0  2  0  0  0  0  0  0  0  0  0
   17.6040   28.0210    7.3380 C   0  0  0  0  0  0  0  0  0  0  0  0
   18.8180   27.2400    8.4120 S   0  0  0  0  0  0  0  0  0  0  0  0
   19.1580   28.1650    9.4750 O   0  0  0  0  0  0  0  0  0  0  0  0
   18.3410   25.9200    8.7510 O   0  0  0  0  0  0  0  0  0  0  0  0
   20.2460   27.1430    7.4610 N   0  0  0  0  0  0  0  0  0  0  0  0
   21.4520   27.8070    8.0130 C   0  0  0  0  0  0  0  0  0  0  0  0
   20.5990   26.0850    6.4340 C   0  0  1  0  0  0  0  0  0  0  0  0
   19.5640   25.0040    6.1660 C   0  0  0  0  0  0  0  0  0  0  0  0
   22.4200   28.1380    6.8860 C   0  0  0  0  0  0  0  0  0  0  0  0
   21.1400   26.7330    5.1410 C   0  0  1  0  0  0  0  0  0  0  0  0
   20.1880   26.8930    4.0170 C   0  0  0  0  0  0  0  0  0  0  0  0
   21.8020   28.0740    5.4820 C   0  0  0  0  0  0  0  0  0  0  0  0
   19.4850   27.0230    3.1070 N   0  0  0  0  0  0  0  0  0  0  0  0
  2  1  1  6
  2  3  1  0
  2  4  1  0
  4  5  1  0
  3  6  1  0
  5  7  1  0
  6  7  1  0
  7  8  1  1
  9  8  1  0
  9 10  2  0
  9 11  2  0
  9 12  1  0
 12 13  1  0
 12 14  1  0
 14 15  1  6
 13 16  1  0
 14 17  1  0
 17 18  1  6
 16 19  1  0
 17 19  1  0
 18 20  3  0
M  END
