diamond-x0587_0_A-mac-x0564
     RDKit          3D

 26 29  0  0  0  0  0  0  0  0999 V2000
   -7.8260   15.2820    4.2520 N   0  0  0  0  0  0  0  0  0  0  0  0
   -8.3230   15.1750    2.9810 C   0  0  0  0  0  0  0  0  0  0  0  0
   -9.4930   15.4280    2.7220 O   0  0  0  0  0  0  0  0  0  0  0  0
   -7.3930   14.7340    1.9400 C   0  0  0  0  0  0  0  0  0  0  0  0
   -7.8360   14.3390    0.6990 C   0  0  0  0  0  0  0  0  0  0  0  0
   -6.0420   14.6890    2.1290 C   0  0  0  0  0  0  0  0  0  0  0  0
   -7.0120   13.9170   -0.2850 N   0  0  0  0  0  0  0  0  0  0  0  0
   -5.1720   14.2810    1.1980 N   0  0  0  0  0  0  0  0  0  0  0  0
   -5.6940   13.8990    0.0170 C   0  0  0  0  0  0  0  0  0  0  0  0
   -4.7140   13.4210   -1.0270 C   0  0  1  0  0  0  0  0  0  0  0  0
   -3.4170   13.7080   -0.5610 O   0  0  0  0  0  0  0  0  0  0  0  0
   -4.8240   12.1210   -1.3760 F   0  0  0  0  0  0  0  0  0  0  0  0
   -3.0740   14.8860   -1.1500 C   0  0  2  0  0  0  0  0  0  0  0  0
   -4.1390   15.7330   -0.5090 C   0  0  0  0  0  0  0  0  0  0  0  0
   -3.2320   14.6810   -2.6610 C   0  0  2  0  0  0  0  0  0  0  0  0
   -1.7790   15.3780   -0.8420 O   0  0  0  0  0  0  0  0  0  0  0  0
   -1.0560   15.4670   -2.0840 C   0  0  2  0  0  0  0  0  0  0  0  0
   -2.0820   15.4890   -3.2450 C   0  0  1  0  0  0  0  0  0  0  0  0
   -4.6400   14.9250   -3.1750 C   0  0  0  0  0  0  0  0  0  0  0  0
   -5.2980   15.9970   -1.1120 C   0  0  0  0  0  0  0  0  0  0  0  0
   -0.0210   14.3540   -2.2080 C   0  0  0  0  0  0  0  0  0  0  0  0
   -1.6230   14.8310   -4.5020 N   0  0  0  0  0  0  0  0  0  0  0  0
   -5.5870   15.5160   -2.4280 C   0  0  0  0  0  0  0  0  0  0  0  0
    0.5470   13.8360   -1.2480 O   0  0  0  0  0  0  0  0  0  0  0  0
   -0.1800   14.7140   -4.5920 C   0  0  0  0  0  0  0  0  0  0  0  0
    0.2630   13.9490   -3.4780 N   0  0  0  0  0  0  0  0  0  0  0  0
  1  2  1  0
  2  3  2  0
  2  4  1  0
  4  5  2  0
  4  6  1  0
  5  7  1  0
  6  8  2  0
  7  9  2  0
  8  9  1  0
  9 10  1  0
 10 11  1  0
 10 12  1  1
 13 11  1  1
 13 14  1  0
 13 15  1  0
 13 16  1  0
 17 16  1  1
 15 18  1  0
 17 18  1  0
 15 19  1  6
 14 20  2  0
 17 21  1  0
 18 22  1  6
 19 23  2  0
 20 23  1  0
 21 24  2  0
 22 25  1  0
 21 26  1  0
 25 26  1  0
M  END
