diamond-x0905_0_A-mac-x0346
     RDKit          3D

 10 10  0  0  0  0  0  0  0  0999 V2000
   -7.1340   14.9880   -0.9410 C   0  0  0  0  0  0  0  0  0  0  0  0
   -8.0240   14.9960    0.1200 N   0  0  0  0  0  0  0  0  0  0  0  0
   -7.6970   14.1330    1.2000 O   0  0  0  0  0  0  0  0  0  0  0  0
   -7.5290   14.9280   -2.0940 O   0  0  0  0  0  0  0  0  0  0  0  0
   -5.6790   15.0450   -0.6150 C   0  0  0  0  0  0  0  0  0  0  0  0
   -5.3450   14.9960    0.6950 N   0  0  0  0  0  0  0  0  0  0  0  0
   -4.7520   15.1400   -1.6400 C   0  0  0  0  0  0  0  0  0  0  0  0
   -4.0310   15.0400    0.9910 C   0  0  0  0  0  0  0  0  0  0  0  0
   -3.4040   15.1800   -1.2990 C   0  0  0  0  0  0  0  0  0  0  0  0
   -3.0340   15.1280    0.0410 C   0  0  0  0  0  0  0  0  0  0  0  0
  1  2  1  0
  2  3  1  0
  1  4  2  0
  1  5  1  0
  5  6  2  0
  5  7  1  0
  6  8  1  0
  7  9  2  0
  8 10  2  0
  9 10  1  0
M  END
