diamond-x0864_0_A-mac-x0326
     RDKit          3D

 23 25  0  0  0  0  0  0  0  0999 V2000
    1.6440   11.8640   -6.8850 O   0  0  0  0  0  0  0  0  0  0  0  0
    0.5840   11.4490   -6.4590 C   0  0  0  0  0  0  0  0  0  0  0  0
   -0.0450   11.9530   -5.3240 N   0  0  0  0  0  0  0  0  0  0  0  0
   -0.0720   10.3210   -7.1660 C   0  0  0  0  0  0  0  0  0  0  0  0
    0.8530   12.7230   -4.4040 C   0  0  2  0  0  0  0  0  0  0  0  0
   -1.2140   11.3610   -4.8460 C   0  0  0  0  0  0  0  0  0  0  0  0
   -1.2000    9.7930   -6.6850 C   0  0  0  0  0  0  0  0  0  0  0  0
    0.8750   12.0940   -3.0100 C   0  0  0  0  0  0  0  0  0  0  0  0
   -2.0560    8.3660   -7.5330 Br  0  0  0  0  0  0  0  0  0  0  0  0
    0.5490   14.2330   -4.3330 C   0  0  0  0  0  0  0  0  0  0  0  0
   -1.7880   10.3240   -5.4800 C   0  0  0  0  0  0  0  0  0  0  0  0
    0.4050   10.8320   -2.9050 O   0  0  0  0  0  0  0  0  0  0  0  0
    1.2830   12.6530   -2.0070 O   0  0  0  0  0  0  0  0  0  0  0  0
   -0.5520   14.4880   -3.3380 C   0  0  0  0  0  0  0  0  0  0  0  0
   -1.7950   14.7220   -3.6740 N   0  0  0  0  0  0  0  0  0  0  0  0
   -0.2370   14.4660   -1.6410 S   0  0  0  0  0  0  0  0  0  0  0  0
   -2.5770   14.8840   -2.5500 C   0  0  0  0  0  0  0  0  0  0  0  0
   -1.9050   14.7750   -1.3270 C   0  0  0  0  0  0  0  0  0  0  0  0
   -3.9560   15.1390   -2.5540 C   0  0  0  0  0  0  0  0  0  0  0  0
   -2.5760   14.9130   -0.0970 C   0  0  0  0  0  0  0  0  0  0  0  0
   -4.6230   15.2750   -1.3420 C   0  0  0  0  0  0  0  0  0  0  0  0
   -3.9510   15.1670   -0.1270 C   0  0  0  0  0  0  0  0  0  0  0  0
   -6.3150   15.5750   -1.3500 Cl  0  0  0  0  0  0  0  0  0  0  0  0
  1  2  2  0
  2  3  1  0
  2  4  1  0
  3  5  1  0
  3  6  1  0
  4  7  2  0
  5  8  1  0
  7  9  1  0
  5 10  1  1
  6 11  2  0
  7 11  1  0
  8 12  1  0
  8 13  2  0
 10 14  1  0
 14 15  2  0
 14 16  1  0
 15 17  1  0
 16 18  1  0
 17 18  2  0
 17 19  1  0
 18 20  1  0
 19 21  2  0
 20 22  2  0
 21 22  1  0
 21 23  1  0
M  END
