diamond-x0524_0_A-mac-x0565
     RDKit          3D

 32 35  0  0  0  0  0  0  0  0999 V2000
   -0.2060    8.6130   -7.8160 N   0  0  0  0  0  0  0  0  0  0  0  0
   -0.9740    9.6230   -7.2570 C   0  0  0  0  0  0  0  0  0  0  0  0
   -2.3460    9.1690   -6.7980 C   0  0  0  0  0  0  0  0  0  0  0  0
    0.7240    8.6530   -8.8850 C   0  0  0  0  0  0  0  0  0  0  0  0
   -0.6090   10.8500   -7.1030 N   0  0  0  0  0  0  0  0  0  0  0  0
    1.7680    7.7350   -8.9150 C   0  0  0  0  0  0  0  0  0  0  0  0
    0.6470    9.5820   -9.9340 C   0  0  0  0  0  0  0  0  0  0  0  0
   -1.5220   11.8270   -6.5070 C   0  0  0  0  0  0  0  0  0  0  0  0
    2.7170    7.7200   -9.9360 C   0  0  0  0  0  0  0  0  0  0  0  0
    1.6020    9.5710  -10.9740 C   0  0  0  0  0  0  0  0  0  0  0  0
   -0.8120   12.7000   -5.4600 C   0  0  0  0  0  0  0  0  0  0  0  0
    2.6510    8.6320  -10.9800 C   0  0  0  0  0  0  0  0  0  0  0  0
    3.6240    8.6100  -12.0300 N   0  0  0  0  0  0  0  0  0  0  0  0
   -1.3830   14.1300   -5.3200 C   0  0  0  0  0  0  0  0  0  0  0  0
    3.8890    9.5470  -13.0560 C   0  0  0  0  0  0  0  0  0  0  0  0
   -1.6820   14.6610   -4.0050 N   0  0  0  0  0  0  0  0  0  0  0  0
    3.1330   10.7110  -13.2490 C   0  0  0  0  0  0  0  0  0  0  0  0
    4.9640    9.2850  -13.9130 C   0  0  0  0  0  0  0  0  0  0  0  0
   -2.8820   14.7530   -3.3130 C   0  0  0  0  0  0  0  0  0  0  0  0
   -0.6790   14.7970   -2.9720 C   0  0  0  0  0  0  0  0  0  0  0  0
    3.4490   11.5900  -14.2810 C   0  0  0  0  0  0  0  0  0  0  0  0
    5.2810   10.1620  -14.9460 C   0  0  0  0  0  0  0  0  0  0  0  0
   -2.6330   14.7380   -1.9480 C   0  0  0  0  0  0  0  0  0  0  0  0
   -4.1930   14.8510   -3.7520 C   0  0  0  0  0  0  0  0  0  0  0  0
   -1.2930   14.6400   -1.6690 O   0  0  0  0  0  0  0  0  0  0  0  0
    4.5220   11.3170  -15.1300 C   0  0  0  0  0  0  0  0  0  0  0  0
   -3.6180   14.8110   -0.9840 C   0  0  0  0  0  0  0  0  0  0  0  0
   -5.2270   14.9280   -2.7980 C   0  0  0  0  0  0  0  0  0  0  0  0
   -4.9380   14.9060   -1.4210 C   0  0  0  0  0  0  0  0  0  0  0  0
   -6.0420   14.9820   -0.4330 C   0  0  0  0  0  0  0  0  0  0  0  0
   -5.5840   15.1310    0.8290 O   0  0  0  0  0  0  0  0  0  0  0  0
   -7.2270   14.9120   -0.7110 O   0  0  0  0  0  0  0  0  0  0  0  0
  1  2  1  0
  2  3  1  0
  1  4  1  0
  2  5  2  3
  4  6  2  0
  4  7  1  0
  5  8  1  0
  6  9  1  0
  7 10  2  0
  8 11  1  0
  9 12  2  0
 10 12  1  0
 12 13  1  0
 11 14  1  0
 13 15  1  0
 14 16  1  0
 15 17  2  0
 15 18  1  0
 16 19  1  0
 16 20  1  0
 17 21  1  0
 18 22  2  0
 19 23  2  0
 19 24  1  0
 20 25  1  0
 23 25  1  0
 21 26  2  0
 22 26  1  0
 23 27  1  0
 24 28  2  0
 27 29  2  0
 28 29  1  0
 29 30  1  0
 30 31  1  0
 30 32  2  0
M  END
