diamond-x0766_0_A-mac-x0565
     RDKit          3D

 20 22  0  0  0  0  0  0  0  0999 V2000
    0.5620   12.2140   -2.4870 C   0  0  0  0  0  0  0  0  0  0  0  0
    0.3500   11.1380   -3.2650 O   0  0  0  0  0  0  0  0  0  0  0  0
    0.5360   12.1330   -1.2830 O   0  0  0  0  0  0  0  0  0  0  0  0
    0.8060   13.5090   -3.1990 C   0  0  1  0  0  0  0  0  0  0  0  0
    1.5980   13.6000   -4.4850 C   0  0  0  0  0  0  0  0  0  0  0  0
   -0.4800   14.1870   -3.6200 C   0  0  2  0  0  0  0  0  0  0  0  0
    1.4220   15.1100   -4.7270 C   0  0  0  0  0  0  0  0  0  0  0  0
    0.1800   15.5310   -3.9140 C   0  0  0  0  0  0  0  0  0  0  0  0
   -1.5800   14.0290   -2.5270 C   0  0  1  0  0  0  0  0  0  0  0  0
   -1.2850   14.5940   -1.1340 C   0  0  0  0  0  0  0  0  0  0  0  0
   -2.8830   14.7910   -2.8010 C   0  0  1  0  0  0  0  0  0  0  0  0
   -3.7560   14.4440   -3.9460 C   0  0  0  0  0  0  0  0  0  0  0  0
   -2.3940   14.8040   -0.3770 C   0  0  0  0  0  0  0  0  0  0  0  0
   -3.7160   14.3060   -1.3480 S   0  0  1  0  0  0  0  0  0  0  0  0
   -5.1900   15.2410   -1.4140 C   0  0  2  0  0  0  0  0  0  0  0  0
   -5.0890   14.5040   -3.9100 C   0  0  0  0  0  0  0  0  0  0  0  0
   -6.0930   14.9970   -0.2350 C   0  0  0  0  0  0  0  0  0  0  0  0
   -5.9350   14.9160   -2.7170 C   0  0  0  0  0  0  0  0  0  0  0  0
   -5.4270   15.0760    0.9370 O   0  0  0  0  0  0  0  0  0  0  0  0
   -7.2900   14.7580   -0.2460 O   0  0  0  0  0  0  0  0  0  0  0  0
  1  2  1  0
  1  3  2  0
  4  1  1  6
  4  5  1  0
  4  6  1  0
  5  7  1  0
  6  8  1  1
  7  8  1  0
  6  9  1  0
  9 10  1  1
  9 11  1  0
 11 12  1  6
 10 13  2  0
 11 14  1  0
 14 13  1  1
 14 15  1  0
 12 16  2  0
 15 17  1  1
 15 18  1  0
 16 18  1  0
 17 19  1  0
 17 20  2  0
M  END
