diamond-x0910_0_A-diamond-x0253_0_A
     RDKit          3D

 21 22  0  0  0  0  0  0  0  0999 V2000
   -2.6380   14.3840   -1.7440 N   0  0  0  0  0  0  0  0  0  0  0  0
   -2.0170   14.5370   -0.5610 C   0  0  0  0  0  0  0  0  0  0  0  0
   -2.4440   15.1890    0.4900 N   0  0  0  0  0  0  0  0  0  0  0  0
   -0.7950   14.0010   -0.2610 N   0  0  0  0  0  0  0  0  0  0  0  0
    0.0890   13.1810   -1.0400 C   0  0  0  0  0  0  0  0  0  0  0  0
   -1.4930   15.0920    1.4710 N   0  0  0  0  0  0  0  0  0  0  0  0
   -0.5130   14.3810    1.0080 C   0  0  0  0  0  0  0  0  0  0  0  0
    0.4790   13.6420   -2.3490 N   0  0  0  0  0  0  0  0  0  0  0  0
    0.6980   12.7320   -3.2130 C   0  0  0  0  0  0  0  0  0  0  0  0
    0.5310   11.4440   -2.8270 O   0  0  0  0  0  0  0  0  0  0  0  0
    1.1240   12.8950   -4.6390 C   0  0  0  0  0  0  0  0  0  0  0  0
    0.4080   11.9960   -5.5040 N   0  0  0  0  0  0  0  0  0  0  0  0
    1.0930   11.6380   -6.6130 C   0  0  0  0  0  0  0  0  0  0  0  0
    2.2110   12.0680   -6.7410 O   0  0  0  0  0  0  0  0  0  0  0  0
    0.4600   10.7160   -7.5950 C   0  0  0  0  0  0  0  0  0  0  0  0
   -0.5140    9.8020   -7.1840 C   0  0  0  0  0  0  0  0  0  0  0  0
    0.8380   10.7580   -8.9420 C   0  0  0  0  0  0  0  0  0  0  0  0
   -1.1080    8.9380   -8.1110 C   0  0  0  0  0  0  0  0  0  0  0  0
    0.2550    9.9030   -9.8690 C   0  0  0  0  0  0  0  0  0  0  0  0
   -2.1530    7.9640   -7.6550 C   0  0  0  0  0  0  0  0  0  0  0  0
   -0.7170    8.9940   -9.4540 C   0  0  0  0  0  0  0  0  0  0  0  0
  1  2  1  0
  2  3  2  0
  2  4  1  0
  4  5  1  0
  3  6  1  0
  4  7  1  0
  6  7  2  0
  5  8  1  0
  8  9  2  3
  9 10  1  0
  9 11  1  0
 11 12  1  0
 12 13  1  0
 13 14  2  0
 13 15  1  0
 15 16  2  0
 15 17  1  0
 16 18  1  0
 17 19  2  0
 18 20  1  0
 18 21  2  0
 19 21  1  0
M  END
