diamond-x0742_0_A-mac-x0398
     RDKit          3D

 21 23  0  0  0  0  0  0  0  0999 V2000
   -5.6090   12.0250   -0.5150 C   0  0  0  0  0  0  0  0  0  0  0  0
   -6.7690   11.5670    0.3360 C   0  0  0  0  0  0  0  0  0  0  0  0
   -5.2560   11.3660   -1.4960 O   0  0  0  0  0  0  0  0  0  0  0  0
   -4.9090   13.3190   -0.1110 C   0  0  2  0  0  0  0  0  0  0  0  0
   -4.5100   13.2540    1.3540 C   0  0  0  0  0  0  0  0  0  0  0  0
   -5.8940   14.5170   -0.2270 C   0  0  1  0  0  0  0  0  0  0  0  0
   -3.7490   13.6740   -1.1020 C   0  0  1  0  0  0  0  0  0  0  0  0
   -6.4800   14.8740    1.0730 N   0  0  0  0  0  0  0  0  0  0  0  0
   -4.4420   14.7570   -1.9770 C   0  0  1  0  0  0  0  0  0  0  0  0
   -2.4250   14.0140   -0.3990 C   0  0  0  0  0  0  0  0  0  0  0  0
   -3.6510   14.4400    1.7210 C   0  0  0  0  0  0  0  0  0  0  0  0
   -5.0630   15.6250   -0.8910 C   0  0  0  0  0  0  0  0  0  0  0  0
   -3.4290   15.3530   -2.9600 C   0  0  0  0  0  0  0  0  0  0  0  0
   -5.5770   14.3070   -2.7210 O   0  0  0  0  0  0  0  0  0  0  0  0
   -1.1840   13.9760   -1.0480 C   0  0  0  0  0  0  0  0  0  0  0  0
   -2.4020   14.3760    0.9520 C   0  0  0  0  0  0  0  0  0  0  0  0
   -3.6810   15.8440   -4.0400 O   0  0  0  0  0  0  0  0  0  0  0  0
   -2.1500   15.2530   -2.5530 O   0  0  0  0  0  0  0  0  0  0  0  0
   -1.3060   14.6820    1.6460 N   0  0  0  0  0  0  0  0  0  0  0  0
   -0.0260   14.2960   -0.3410 C   0  0  0  0  0  0  0  0  0  0  0  0
   -0.1500   14.6410    0.9910 C   0  0  0  0  0  0  0  0  0  0  0  0
  1  2  1  0
  1  3  2  0
  4  1  1  6
  4  5  1  0
  4  6  1  0
  4  7  1  0
  6  8  1  1
  7  9  1  0
  7 10  1  1
  5 11  1  0
  6 12  1  0
  9 12  1  0
  9 13  1  0
  9 14  1  6
 10 15  1  0
 10 16  2  0
 11 16  1  0
 13 17  2  0
 13 18  1  0
 16 19  1  0
 15 20  2  0
 19 21  2  0
 20 21  1  0
M  END
