diamond-x0855_0_A-mac-x0392
     RDKit          3D

 21 22  0  0  0  0  0  0  0  0999 V2000
    2.2100   12.4000   -2.9110 O   0  0  0  0  0  0  0  0  0  0  0  0
    0.8400   12.1330   -3.1640 C   0  0  0  0  0  0  0  0  0  0  0  0
    0.5760   12.4880   -4.6420 C   0  0  0  0  0  0  0  0  0  0  0  0
    0.6320   10.7570   -2.8850 O   0  0  0  0  0  0  0  0  0  0  0  0
    0.0120   12.9300   -2.1630 C   0  0  0  0  0  0  0  0  0  0  0  0
    0.0260   14.3160   -2.5120 O   0  0  0  0  0  0  0  0  0  0  0  0
   -0.4510   11.6290   -5.1790 N   0  0  0  0  0  0  0  0  0  0  0  0
   -1.2240   14.7960   -2.5830 C   0  0  0  0  0  0  0  0  0  0  0  0
   -0.3300   10.7000   -6.1640 C   0  0  0  0  0  0  0  0  0  0  0  0
   -1.6950   11.7190   -4.6610 N   0  0  0  0  0  0  0  0  0  0  0  0
   -1.7920   15.1780   -3.5950 O   0  0  0  0  0  0  0  0  0  0  0  0
   -1.5750   10.1470   -6.2850 C   0  0  0  0  0  0  0  0  0  0  0  0
   -2.3820   10.8020   -5.3480 C   0  0  0  0  0  0  0  0  0  0  0  0
   -1.8360   14.7860   -1.2350 C   0  0  0  0  0  0  0  0  0  0  0  0
   -2.1290    8.7970   -7.4390 Br  0  0  0  0  0  0  0  0  0  0  0  0
   -1.0190   14.6540   -0.0920 C   0  0  0  0  0  0  0  0  0  0  0  0
   -3.2240   14.9170   -1.1140 C   0  0  0  0  0  0  0  0  0  0  0  0
    0.3850   14.5330   -0.1680 N   0  0  0  0  0  0  0  0  0  0  0  0
   -3.7670   14.9120    0.1490 C   0  0  0  0  0  0  0  0  0  0  0  0
   -1.6880   14.6580    1.1200 C   0  0  0  0  0  0  0  0  0  0  0  0
   -3.0300   14.7850    1.2690 N   0  0  0  0  0  0  0  0  0  0  0  0
  2  1  1  0
  2  3  1  0
  2  4  1  0
  2  5  1  0
  5  6  1  0
  3  7  1  0
  6  8  1  0
  7  9  1  0
  7 10  1  0
  8 11  2  0
  9 12  2  0
 10 13  2  0
 12 13  1  0
  8 14  1  0
 12 15  1  0
 14 16  2  0
 14 17  1  0
 16 18  1  0
 17 19  2  0
 16 20  1  0
 19 21  1  0
 20 21  2  0
M  END
