diamond-x1018_0_A-mac-x0455
     RDKit          3D

 22 24  0  0  0  0  0  0  0  0999 V2000
   -8.4340   14.5730    0.7980 Cl  0  0  0  0  0  0  0  0  0  0  0  0
   -6.7390   14.6280    0.4610 C   0  0  0  0  0  0  0  0  0  0  0  0
   -5.7740   14.4410    1.5800 C   0  0  0  0  0  0  0  0  0  0  0  0
   -6.3990   14.8370   -0.7740 N   0  0  0  0  0  0  0  0  0  0  0  0
   -5.0520   14.8790   -0.9550 N   0  0  0  0  0  0  0  0  0  0  0  0
   -4.4980   14.7940    1.3490 C   0  0  0  0  0  0  0  0  0  0  0  0
   -4.5080   14.9920   -2.2220 N   0  0  0  0  0  0  0  0  0  0  0  0
   -4.1220   15.3450    0.0290 C   0  0  1  0  0  0  0  0  0  0  0  0
   -2.8570   14.9140   -0.5520 N   0  0  0  0  0  0  0  0  0  0  0  0
   -3.0710   15.0150   -2.0080 N   0  0  0  0  0  0  0  0  0  0  0  0
   -2.4220   13.8310   -2.6080 C   0  0  0  0  0  0  0  0  0  0  0  0
   -1.1160   14.0980   -3.4120 C   0  0  1  0  0  0  0  0  0  0  0  0
   -1.1870   15.3640   -4.1260 O   0  0  0  0  0  0  0  0  0  0  0  0
    0.1200   14.2040   -2.4910 C   0  0  0  0  0  0  0  0  0  0  0  0
   -0.9600   12.9390   -4.3990 C   0  0  0  0  0  0  0  0  0  0  0  0
    0.6860   15.2380   -2.1740 O   0  0  0  0  0  0  0  0  0  0  0  0
    0.5420   12.9900   -2.0560 O   0  0  0  0  0  0  0  0  0  0  0  0
   -1.9370   11.9240   -4.4490 C   0  0  0  0  0  0  0  0  0  0  0  0
    0.1450   12.8360   -5.2680 C   0  0  0  0  0  0  0  0  0  0  0  0
   -1.8210   10.8530   -5.3320 C   0  0  0  0  0  0  0  0  0  0  0  0
    0.2540   11.7600   -6.1530 C   0  0  0  0  0  0  0  0  0  0  0  0
   -0.7260   10.7700   -6.1840 C   0  0  0  0  0  0  0  0  0  0  0  0
  1  2  1  0
  2  3  1  0
  2  4  2  0
  4  5  1  0
  3  6  2  0
  5  7  1  0
  5  8  1  0
  8  6  1  1
  8  9  1  0
  7 10  1  0
  9 10  1  0
 10 11  1  0
 11 12  1  0
 12 13  1  6
 12 14  1  0
 12 15  1  0
 14 16  2  0
 14 17  1  0
 15 18  2  0
 15 19  1  0
 18 20  1  0
 19 21  2  0
 20 22  2  0
 21 22  1  0
M  END
