diamond-x0962_0_A-mac-x0341
     RDKit          3D

 14 15  0  0  0  0  0  0  0  0999 V2000
   -2.8150   12.9370   -1.5750 N   0  0  0  0  0  0  0  0  0  0  0  0
   -3.7350   13.6100   -1.3960 C   0  0  0  0  0  0  0  0  0  0  0  0
   -4.7690   14.6180   -1.2550 C   0  0  1  0  0  0  0  0  0  0  0  0
   -5.8970   14.4320   -0.3090 C   0  0  0  0  0  0  0  0  0  0  0  0
   -4.0550   15.7870   -0.8300 C   0  0  1  0  0  0  0  0  0  0  0  0
   -6.9820   14.0490   -0.7560 O   0  0  0  0  0  0  0  0  0  0  0  0
   -3.4630   15.5570    0.5130 N   0  0  0  0  0  0  0  0  0  0  0  0
   -5.6840   14.7610    1.0320 N   0  0  0  0  0  0  0  0  0  0  0  0
   -3.0150   15.9380   -1.9100 C   0  0  0  0  0  0  0  0  0  0  0  0
   -6.7100   14.4820    2.0050 N   0  0  0  0  0  0  0  0  0  0  0  0
   -4.3900   15.1750    1.5670 C   0  0  0  0  0  0  0  0  0  0  0  0
   -2.1320   15.2100    0.6140 C   0  0  0  0  0  0  0  0  0  0  0  0
   -1.7230   15.6850   -1.7070 C   0  0  0  0  0  0  0  0  0  0  0  0
   -1.2740   15.2550   -0.4120 C   0  0  0  0  0  0  0  0  0  0  0  0
  1  2  3  0
  3  2  1  1
  3  4  1  0
  3  5  1  0
  4  6  2  0
  5  7  1  0
  4  8  1  0
  5  9  1  6
  8 10  1  0
  7 11  1  0
  8 11  1  0
  7 12  1  0
  9 13  2  0
 12 14  2  0
 13 14  1  0
M  END
