diamond-x0962_1_A-mac-x0381
     RDKit          3D

 21 23  0  0  0  0  0  0  0  0999 V2000
   -3.3290   15.3790   -1.2460 N   0  0  0  0  0  0  0  0  0  0  0  0
   -4.3050   15.1580   -0.6730 C   0  0  0  0  0  0  0  0  0  0  0  0
   -5.5170   14.8240   -0.0400 C   0  0  0  0  0  0  0  0  0  0  0  0
   -5.6860   14.3110    1.2190 N   0  0  0  0  0  0  0  0  0  0  0  0
   -6.7860   14.9300   -0.5510 C   0  0  0  0  0  0  0  0  0  0  0  0
   -7.0320   14.1120    1.4070 C   0  0  0  0  0  0  0  0  0  0  0  0
   -7.7150   14.4890    0.3480 N   0  0  0  0  0  0  0  0  0  0  0  0
   -7.6110   13.5200    2.6560 C   0  0  0  0  0  0  0  0  0  0  0  0
   -8.1730   14.4350    3.7850 C   0  0  0  0  0  0  0  0  0  0  0  0
   -8.3780   13.6280    4.9660 N   0  0  0  0  0  0  0  0  0  0  0  0
   -7.1720   15.3450    4.2710 N   0  0  0  0  0  0  0  0  0  0  0  0
   -9.4900   15.0870    3.3490 C   0  0  0  0  0  0  0  0  0  0  0  0
   -9.6120   15.8790    2.1920 C   0  0  0  0  0  0  0  0  0  0  0  0
  -10.6500   14.8970    4.1230 C   0  0  0  0  0  0  0  0  0  0  0  0
  -10.8340   16.4560    1.8080 C   0  0  0  0  0  0  0  0  0  0  0  0
  -11.8740   15.4620    3.7570 C   0  0  0  0  0  0  0  0  0  0  0  0
  -11.9800   16.2410    2.5990 C   0  0  0  0  0  0  0  0  0  0  0  0
  -10.9380   17.2420    0.6490 C   0  0  0  0  0  0  0  0  0  0  0  0
  -13.2040   16.8070    2.2140 C   0  0  0  0  0  0  0  0  0  0  0  0
  -12.1630   17.8020    0.2780 C   0  0  0  0  0  0  0  0  0  0  0  0
  -13.2940   17.5830    1.0590 C   0  0  0  0  0  0  0  0  0  0  0  0
  1  2  3  0
  2  3  1  0
  3  4  1  0
  3  5  2  0
  4  6  1  0
  5  7  1  0
  6  7  2  0
  6  8  1  0
  8  9  1  0
  9 10  1  0
  9 11  1  0
  9 12  1  0
 12 13  2  0
 12 14  1  0
 13 15  1  0
 14 16  2  0
 15 17  2  0
 16 17  1  0
 15 18  1  0
 17 19  1  0
 18 20  2  0
 19 21  2  0
 20 21  1  0
M  END
