diamond-x0852_0_B-diamond-x0128_0_A
     RDKit          3D

 25 27  0  0  0  0  0  0  0  0999 V2000
  -11.2070   16.6280    6.3500 N   0  0  0  0  0  0  0  0  0  0  0  0
  -10.8270   16.3680    5.2790 C   0  0  0  0  0  0  0  0  0  0  0  0
  -10.3960   16.1160    3.9180 C   0  0  0  0  0  0  0  0  0  0  0  0
   -9.2170   15.4250    3.5640 C   0  0  0  0  0  0  0  0  0  0  0  0
  -11.2070   16.6070    2.9100 C   0  0  0  0  0  0  0  0  0  0  0  0
   -8.3310   14.9500    4.5320 N   0  0  0  0  0  0  0  0  0  0  0  0
   -8.9030   15.2350    2.2230 C   0  0  0  0  0  0  0  0  0  0  0  0
  -10.8590   16.4120    1.5800 C   0  0  0  0  0  0  0  0  0  0  0  0
  -11.9620   17.1010    0.2240 Br  0  0  0  0  0  0  0  0  0  0  0  0
   -7.1230   15.0570    3.8400 C   0  0  0  0  0  0  0  0  0  0  0  0
   -9.7160   15.7250    1.2310 C   0  0  0  0  0  0  0  0  0  0  0  0
   -8.7290   15.8750    5.5590 C   0  0  0  0  0  0  0  0  0  0  0  0
   -6.8020   14.3030    2.7130 N   0  0  0  0  0  0  0  0  0  0  0  0
   -6.3160   15.8740    4.1750 O   0  0  0  0  0  0  0  0  0  0  0  0
   -9.0180   17.1660    5.1160 C   0  0  0  0  0  0  0  0  0  0  0  0
   -8.8790   15.5960    6.9200 C   0  0  0  0  0  0  0  0  0  0  0  0
   -6.2670   14.6620    1.4270 C   0  0  0  0  0  0  0  0  0  0  0  0
   -9.4580   18.1030    6.0070 C   0  0  0  0  0  0  0  0  0  0  0  0
   -9.3270   16.6180    7.7500 C   0  0  0  0  0  0  0  0  0  0  0  0
   -6.9680   14.5300    0.2190 C   0  0  0  0  0  0  0  0  0  0  0  0
   -4.9560   15.1840    1.3670 C   0  0  0  0  0  0  0  0  0  0  0  0
   -9.6320   17.8620    7.3250 N   0  0  0  0  0  0  0  0  0  0  0  0
   -6.3840   14.9030   -1.0010 C   0  0  0  0  0  0  0  0  0  0  0  0
   -4.3780   15.5520    0.1460 C   0  0  0  0  0  0  0  0  0  0  0  0
   -5.0910   15.4120   -1.0370 C   0  0  0  0  0  0  0  0  0  0  0  0
  1  2  3  0
  2  3  1  0
  3  4  2  0
  3  5  1  0
  4  6  1  0
  4  7  1  0
  5  8  2  0
  8  9  1  0
  6 10  1  0
  7 11  2  0
  8 11  1  0
  6 12  1  0
 10 13  1  0
 10 14  2  0
 12 15  2  0
 12 16  1  0
 13 17  1  0
 15 18  1  0
 16 19  2  0
 17 20  2  0
 17 21  1  0
 18 22  2  0
 19 22  1  0
 20 23  1  0
 21 24  2  0
 23 25  2  0
 24 25  1  0
M  END
