diamond-x0926_0_A-mac-x0344
     RDKit          3D

 22 23  0  0  0  0  0  0  0  0999 V2000
   -6.5890   15.0440   -0.4610 O   0  0  0  0  0  0  0  0  0  0  0  0
   -5.3660   15.1380   -0.3950 C   0  0  0  0  0  0  0  0  0  0  0  0
   -4.6540   15.1000    0.9070 C   0  0  0  0  0  0  0  0  0  0  0  0
   -4.5660   15.2710   -1.5110 N   0  0  0  0  0  0  0  0  0  0  0  0
   -3.1800   14.9680   -1.4470 N   0  0  0  0  0  0  0  0  0  0  0  0
   -3.3280   15.3170    0.9470 C   0  0  0  0  0  0  0  0  0  0  0  0
   -2.5200   15.6140   -0.2890 C   0  0  1  0  0  0  0  0  0  0  0  0
   -0.9930   15.3020   -0.2310 C   0  0  0  0  0  0  0  0  0  0  0  0
   -0.2210   15.4080   -1.5720 C   0  0  0  0  0  0  0  0  0  0  0  0
    1.0590   14.5580   -1.7460 C   0  0  0  0  0  0  0  0  0  0  0  0
    0.6570   13.2620   -2.2740 N   0  0  0  0  0  0  0  0  0  0  0  0
    0.8550   12.8940   -3.4930 C   0  0  0  0  0  0  0  0  0  0  0  0
    1.4940   13.6740   -4.3830 O   0  0  0  0  0  0  0  0  0  0  0  0
    0.3940   11.5650   -4.0780 C   0  0  0  0  0  0  0  0  0  0  0  0
    0.2660   10.6570   -3.2740 O   0  0  0  0  0  0  0  0  0  0  0  0
    0.1630   11.5660   -5.4410 N   0  0  0  0  0  0  0  0  0  0  0  0
   -0.6960   10.6610   -6.0940 C   0  0  0  0  0  0  0  0  0  0  0  0
   -0.2300    9.9840   -7.2260 C   0  0  0  0  0  0  0  0  0  0  0  0
   -1.9850   10.4160   -5.6530 C   0  0  0  0  0  0  0  0  0  0  0  0
   -1.0600    9.0730   -7.8910 C   0  0  0  0  0  0  0  0  0  0  0  0
   -2.8170    9.5080   -6.3080 C   0  0  0  0  0  0  0  0  0  0  0  0
   -2.3520    8.8340   -7.4300 C   0  0  0  0  0  0  0  0  0  0  0  0
  1  2  2  0
  2  3  1  0
  2  4  1  0
  4  5  1  0
  3  6  2  0
  5  7  1  0
  6  7  1  0
  7  8  1  1
  8  9  1  0
  9 10  1  0
 10 11  1  0
 11 12  2  3
 12 13  1  0
 12 14  1  0
 14 15  2  0
 14 16  1  0
 16 17  1  0
 17 18  2  0
 17 19  1  0
 18 20  1  0
 19 21  2  0
 20 22  2  0
 21 22  1  0
M  END
