diamond-x1015_0_A-mac-x1493
     RDKit          3D

 26 30  0  0  0  0  0  0  0  0999 V2000
   -1.8820   14.2220   -3.6750 C   0  0  0  0  0  0  0  0  0  0  0  0
   -2.1150   14.3620   -2.3440 C   0  0  0  0  0  0  0  0  0  0  0  0
   -0.9780   14.1590   -1.5760 N   0  0  0  0  0  0  0  0  0  0  0  0
   -0.4610   13.8430   -3.9170 C   0  0  2  0  0  0  0  0  0  0  0  0
   -0.0040   12.4710   -4.0840 N   0  0  0  0  0  0  0  0  0  0  0  0
   -0.1460   13.7860   -2.4620 C   0  0  0  0  0  0  0  0  0  0  0  0
   -3.4390   14.5540   -1.7040 C   0  0  0  0  0  0  0  0  0  0  0  0
    0.6140   12.0840   -2.8610 C   0  0  0  0  0  0  0  0  0  0  0  0
    1.0360   13.2640   -2.2870 N   0  0  0  0  0  0  0  0  0  0  0  0
   -0.4010   11.5990   -5.1360 C   0  0  0  0  0  0  0  0  0  0  0  0
   -3.5630   14.6580   -0.3110 C   0  0  0  0  0  0  0  0  0  0  0  0
   -4.6300   14.5830   -2.4190 C   0  0  0  0  0  0  0  0  0  0  0  0
    0.7300   10.9700   -2.3760 O   0  0  0  0  0  0  0  0  0  0  0  0
   -0.1520   11.9130   -6.4750 C   0  0  0  0  0  0  0  0  0  0  0  0
   -1.0570   10.3840   -4.8710 C   0  0  0  0  0  0  0  0  0  0  0  0
   -4.8340   14.7420    0.2910 C   0  0  0  0  0  0  0  0  0  0  0  0
   -5.8700   14.6710   -1.8740 N   0  0  0  0  0  0  0  0  0  0  0  0
   -0.5490   11.0550   -7.5080 C   0  0  0  0  0  0  0  0  0  0  0  0
   -1.4600    9.5240   -5.8950 C   0  0  0  0  0  0  0  0  0  0  0  0
   -5.9690   14.7320   -0.5420 C   0  0  0  0  0  0  0  0  0  0  0  0
   -4.9900   14.8160    1.6790 C   0  0  0  0  0  0  0  0  0  0  0  0
   -1.2040    9.8660   -7.2150 C   0  0  0  0  0  0  0  0  0  0  0  0
   -7.2300   14.7760    0.0460 C   0  0  0  0  0  0  0  0  0  0  0  0
   -6.2690   14.8610    2.2460 C   0  0  0  0  0  0  0  0  0  0  0  0
   -1.6920    8.8200   -8.4890 Cl  0  0  0  0  0  0  0  0  0  0  0  0
   -7.3900   14.8330    1.4320 C   0  0  0  0  0  0  0  0  0  0  0  0
  1  2  2  0
  2  3  1  0
  4  1  1  1
  4  5  1  0
  3  6  2  0
  4  6  1  0
  2  7  1  0
  5  8  1  0
  6  9  1  0
  8  9  1  0
  5 10  1  0
  7 11  2  0
  7 12  1  0
  8 13  2  0
 10 14  2  0
 10 15  1  0
 11 16  1  0
 12 17  2  0
 14 18  1  0
 15 19  2  0
 16 20  2  0
 17 20  1  0
 16 21  1  0
 18 22  2  0
 19 22  1  0
 20 23  1  0
 21 24  2  0
 22 25  1  0
 23 26  2  0
 24 26  1  0
M  END
