diamond-x0421_0_A-mac-x0588
     RDKit          3D

 26 30  0  0  0  0  0  0  0  0999 V2000
   -4.7170   14.5190   -3.2310 N   0  0  0  0  0  0  0  0  0  0  0  0
   -3.8980   13.8410   -2.2080 C   0  0  2  0  0  0  0  0  0  0  0  0
   -4.4960   13.8450   -0.8650 C   0  0  0  0  0  0  0  0  0  0  0  0
   -2.7810   14.7100   -1.6740 C   0  0  2  0  0  0  0  0  0  0  0  0
   -3.8530   13.3960    0.2610 C   0  0  0  0  0  0  0  0  0  0  0  0
   -5.7450   14.3300   -0.5600 N   0  0  0  0  0  0  0  0  0  0  0  0
   -3.3680   15.9450   -1.1790 N   0  0  0  0  0  0  0  0  0  0  0  0
   -1.4490   14.9420   -2.0980 N   0  0  0  0  0  0  0  0  0  0  0  0
   -4.7140   13.6050    1.2630 N   0  0  0  0  0  0  0  0  0  0  0  0
   -5.8240   14.1630    0.7450 C   0  0  0  0  0  0  0  0  0  0  0  0
   -3.0040   16.0290    0.1950 C   0  0  1  0  0  0  0  0  0  0  0  0
   -0.7210   15.5070   -0.9560 C   0  0  1  0  0  0  0  0  0  0  0  0
   -1.3720   15.5020   -3.4590 C   0  0  0  0  0  0  0  0  0  0  0  0
   -7.0120   14.5410    1.6270 C   0  0  0  0  0  0  0  0  0  0  0  0
   -3.9030   15.1800    0.9290 N   0  0  0  0  0  0  0  0  0  0  0  0
   -1.5030   15.7430    0.3810 C   0  0  2  0  0  0  0  0  0  0  0  0
    0.2340   14.4880   -0.5110 N   0  0  0  0  0  0  0  0  0  0  0  0
   -0.5240   16.7430   -3.7110 C   0  0  2  0  0  0  0  0  0  0  0  0
   -8.3330   14.8290    0.9810 C   0  0  0  0  0  0  0  0  0  0  0  0
   -8.1240   13.5480    1.7370 C   0  0  0  0  0  0  0  0  0  0  0  0
   -1.3220   14.5480    1.1890 N   0  0  0  0  0  0  0  0  0  0  0  0
    0.0440   14.3370    0.9270 C   0  0  0  0  0  0  0  0  0  0  0  0
   -1.3940   17.7560   -4.3000 O   0  0  0  0  0  0  0  0  0  0  0  0
    0.6140   16.4990   -4.7010 C   0  0  0  0  0  0  0  0  0  0  0  0
    0.6860   17.8180   -5.4190 C   0  0  0  0  0  0  0  0  0  0  0  0
   -0.7780   18.1990   -5.5110 C   0  0  0  0  0  0  0  0  0  0  0  0
  2  1  1  6
  2  3  1  0
  2  4  1  0
  3  5  2  0
  3  6  1  0
  4  7  1  6
  4  8  1  0
  5  9  1  0
  6 10  2  0
  9 10  1  0
  7 11  1  0
  8 12  1  0
  8 13  1  0
 10 14  1  0
 11 15  1  1
 11 16  1  0
 12 16  1  0
 12 17  1  1
 18 13  1  6
 14 19  1  0
 14 20  1  0
 19 20  1  0
 16 21  1  1
 17 22  1  0
 21 22  1  0
 18 23  1  0
 18 24  1  0
 24 25  1  0
 23 26  1  0
 25 26  1  0
M  END
