diamond-x0900_0_A-mac-x0584
     RDKit          3D

 20 23  0  0  0  0  0  0  0  0999 V2000
   -6.6300   15.1630   -0.7940 O   0  0  0  0  0  0  0  0  0  0  0  0
   -5.4840   15.0460   -0.3770 C   0  0  0  0  0  0  0  0  0  0  0  0
   -4.3140   15.3420   -1.0710 N   0  0  0  0  0  0  0  0  0  0  0  0
   -5.0760   14.5370    0.9740 C   0  0  0  0  0  0  0  0  0  0  0  0
   -3.7560   13.8500    0.6150 C   0  0  0  0  0  0  0  0  0  0  0  0
   -3.1100   14.8330   -0.3740 C   0  0  2  0  0  0  0  0  0  0  0  0
   -2.4610   15.8830    0.5190 C   0  0  0  0  0  0  0  0  0  0  0  0
   -1.8590   14.4500   -1.3140 C   0  0  1  0  0  0  0  0  0  0  0  0
   -1.6460   14.9970   -2.6640 N   0  0  0  0  0  0  0  0  0  0  0  0
   -0.5670   14.7670   -0.6770 N   0  0  0  0  0  0  0  0  0  0  0  0
   -1.6000   15.1850    1.4510 N   0  0  0  0  0  0  0  0  0  0  0  0
   -0.3450   14.7460   -3.3260 C   0  0  1  0  0  0  0  0  0  0  0  0
   -2.7220   14.9630   -3.6460 C   0  0  0  0  0  0  0  0  0  0  0  0
   -0.4880   14.5750    0.7610 C   0  0  0  0  0  0  0  0  0  0  0  0
    0.1070   13.2930   -3.0680 C   0  0  0  0  0  0  0  0  0  0  0  0
   -0.6310   14.9420   -4.8260 C   0  0  0  0  0  0  0  0  0  0  0  0
   -2.0590   15.4680   -4.9130 C   0  0  0  0  0  0  0  0  0  0  0  0
    1.1780   12.6730   -4.0240 C   0  0  0  0  0  0  0  0  0  0  0  0
   -0.8400   12.1670   -3.5810 C   0  0  0  0  0  0  0  0  0  0  0  0
    0.4050   11.3460   -3.8800 C   0  0  0  0  0  0  0  0  0  0  0  0
  1  2  2  0
  2  3  1  0
  2  4  1  0
  4  5  1  0
  6  3  1  0
  6  5  1  1
  6  7  1  0
  6  8  1  0
  8  9  1  6
  8 10  1  0
  7 11  1  0
  9 12  1  0
  9 13  1  0
 10 14  1  0
 11 14  1  0
 12 15  1  6
 12 16  1  0
 13 17  1  0
 16 17  1  0
 15 18  1  0
 15 19  1  0
 18 20  1  0
 19 20  1  0
M  END
