diamond-x1018_0_A-mac-x0576
     RDKit          3D

 17 19  0  0  0  0  0  0  0  0999 V2000
   -7.8420   14.6040    1.3970 Cl  0  0  0  0  0  0  0  0  0  0  0  0
   -6.2770   14.2110    0.6320 C   0  0  2  0  0  0  0  0  0  0  0  0
   -4.9910   14.5590    1.4430 C   0  0  0  0  0  0  0  0  0  0  0  0
   -6.2470   14.8020   -0.6810 N   0  0  0  0  0  0  0  0  0  0  0  0
   -5.1620   14.4780   -1.3830 C   0  0  0  0  0  0  0  0  0  0  0  0
   -3.6250   14.6060    0.6080 C   0  0  1  0  0  0  0  0  0  0  0  0
   -5.0670   14.2200   -2.7000 N   0  0  0  0  0  0  0  0  0  0  0  0
   -3.9500   14.3730   -0.7880 C   0  0  0  0  0  0  0  0  0  0  0  0
   -3.1130   15.9730    0.3070 C   0  0  0  0  0  0  0  0  0  0  0  0
   -2.4580   13.8260    1.0900 N   0  0  0  0  0  0  0  0  0  0  0  0
   -3.1150   14.0360   -1.7910 N   0  0  0  0  0  0  0  0  0  0  0  0
   -3.7830   13.9460   -2.9480 N   0  0  0  0  0  0  0  0  0  0  0  0
   -1.2310   14.5770    1.2110 C   0  0  1  0  0  0  0  0  0  0  0  0
   -1.9390   15.7330   -0.6460 C   0  0  0  0  0  0  0  0  0  0  0  0
   -0.1250   13.7460    1.5260 N   0  0  0  0  0  0  0  0  0  0  0  0
   -1.9080   16.0190   -1.8410 O   0  0  0  0  0  0  0  0  0  0  0  0
   -0.9010   15.1200   -0.0290 N   0  0  0  0  0  0  0  0  0  0  0  0
  2  1  1  1
  2  3  1  0
  2  4  1  0
  4  5  1  0
  6  3  1  1
  5  7  1  0
  5  8  2  0
  6  8  1  0
  6  9  1  0
  6 10  1  0
  8 11  1  0
  7 12  2  0
 11 12  1  0
 10 13  1  0
  9 14  1  0
 13 15  1  6
 14 16  2  0
 13 17  1  0
 14 17  1  0
M  END
