diamond-x0962_0_A-mac-x0255
     RDKit          3D

 23 25  0  0  0  0  0  0  0  0999 V2000
   -3.1330   13.8690   -2.1580 N   0  0  0  0  0  0  0  0  0  0  0  0
   -2.9160   14.8990   -1.1610 C   0  0  2  0  0  0  0  0  0  0  0  0
   -1.6010   14.6510   -0.4130 C   0  0  0  0  0  0  0  0  0  0  0  0
   -4.0090   14.9270   -0.1820 C   0  0  0  0  0  0  0  0  0  0  0  0
   -0.3710   14.5800   -1.3130 C   0  0  0  0  0  0  0  0  0  0  0  0
   -3.7930   15.1150    1.1540 N   0  0  0  0  0  0  0  0  0  0  0  0
   -5.3670   14.7900   -0.3160 C   0  0  0  0  0  0  0  0  0  0  0  0
    0.3350   13.2980   -0.9520 C   0  0  0  0  0  0  0  0  0  0  0  0
   -5.0030   15.0810    1.7630 C   0  0  0  0  0  0  0  0  0  0  0  0
   -5.9730   14.8840    0.9000 N   0  0  0  0  0  0  0  0  0  0  0  0
    1.3450   13.0130   -1.9090 O   0  0  0  0  0  0  0  0  0  0  0  0
    0.9510   12.1860   -2.9020 C   0  0  0  0  0  0  0  0  0  0  0  0
    0.3770   11.1150   -2.7270 O   0  0  0  0  0  0  0  0  0  0  0  0
    1.3000   12.7470   -4.2540 C   0  0  0  0  0  0  0  0  0  0  0  0
    0.6200   14.0500   -4.5580 C   0  0  0  0  0  0  0  0  0  0  0  0
    1.1990   15.2890   -4.7030 C   0  0  0  0  0  0  0  0  0  0  0  0
   -1.0730   14.1300   -4.7720 S   0  0  0  0  0  0  0  0  0  0  0  0
    0.2550   16.3220   -5.0100 C   0  0  0  0  0  0  0  0  0  0  0  0
   -1.0460   15.8220   -5.0780 C   0  0  0  0  0  0  0  0  0  0  0  0
    0.4560   17.6960   -5.2420 C   0  0  0  0  0  0  0  0  0  0  0  0
   -2.1470   16.6540   -5.3710 C   0  0  0  0  0  0  0  0  0  0  0  0
   -0.6330   18.5170   -5.5400 C   0  0  0  0  0  0  0  0  0  0  0  0
   -1.9100   18.0050   -5.6030 C   0  0  0  0  0  0  0  0  0  0  0  0
  2  1  1  6
  2  3  1  0
  2  4  1  0
  3  5  1  0
  4  6  1  0
  4  7  2  0
  5  8  1  0
  6  9  1  0
  7 10  1  0
  9 10  2  0
  8 11  1  0
 11 12  1  0
 12 13  2  0
 12 14  1  0
 14 15  1  0
 15 16  2  0
 15 17  1  0
 16 18  1  0
 17 19  1  0
 18 19  2  0
 18 20  1  0
 19 21  1  0
 20 22  2  0
 21 23  2  0
 22 23  1  0
M  END
