diamond-x0766_0_A-diamond-x0465_0_A
     RDKit          3D

 23 25  0  0  0  0  0  0  0  0999 V2000
    0.6510   12.3340   -3.5600 C   0  0  0  0  0  0  0  0  0  0  0  0
    1.5780   12.5660   -2.5040 O   0  0  0  0  0  0  0  0  0  0  0  0
   -0.0180   11.1090   -3.2860 O   0  0  0  0  0  0  0  0  0  0  0  0
    1.2540   12.4530   -4.9810 C   0  0  1  0  0  0  0  0  0  0  0  0
   -0.2860   13.4850   -3.7930 C   0  0  2  0  0  0  0  0  0  0  0  0
    2.7350   12.8150   -4.8850 C   0  0  0  0  0  0  0  0  0  0  0  0
    0.9470   11.3530   -5.8490 O   0  0  0  0  0  0  0  0  0  0  0  0
    0.1800   14.1720   -5.1110 C   0  0  0  0  0  0  0  0  0  0  0  0
   -0.2440   14.6010   -2.7690 C   0  0  1  0  0  0  0  0  0  0  0  0
    1.0770   15.2920   -4.6280 C   0  0  0  0  0  0  0  0  0  0  0  0
    0.1480   15.8520   -3.5830 C   0  0  0  0  0  0  0  0  0  0  0  0
   -1.5400   14.7110   -2.0270 C   0  0  0  0  0  0  0  0  0  0  0  0
   -0.2940   10.7530   -6.0080 C   0  0  0  0  0  0  0  0  0  0  0  0
   -2.8130   14.8170   -2.5580 C   0  0  0  0  0  0  0  0  0  0  0  0
   -1.5850   14.7120   -0.5970 C   0  0  0  0  0  0  0  0  0  0  0  0
   -0.5350    9.5570   -6.6900 C   0  0  0  0  0  0  0  0  0  0  0  0
   -1.3980   11.4030   -5.4390 C   0  0  0  0  0  0  0  0  0  0  0  0
    0.4510    8.8680   -7.2790 F   0  0  0  0  0  0  0  0  0  0  0  0
   -2.8610   14.8190   -0.1040 C   0  0  0  0  0  0  0  0  0  0  0  0
   -4.0150   14.9190   -1.3530 S   0  0  0  0  0  0  0  0  0  0  0  0
   -1.8130    9.0140   -6.8010 C   0  0  0  0  0  0  0  0  0  0  0  0
   -2.6900   10.8610   -5.5530 C   0  0  0  0  0  0  0  0  0  0  0  0
   -2.8970    9.6650   -6.2300 C   0  0  0  0  0  0  0  0  0  0  0  0
  1  2  1  0
  1  3  1  0
  1  4  1  0
  5  1  1  1
  4  6  1  1
  4  7  1  0
  5  8  1  0
  5  9  1  0
  8 10  1  0
  9 11  1  0
 10 11  1  0
  9 12  1  6
  7 13  1  0
 12 14  2  0
 12 15  1  0
 13 16  2  0
 13 17  1  0
 16 18  1  0
 15 19  2  0
 14 20  1  0
 19 20  1  0
 16 21  1  0
 17 22  2  0
 21 23  2  0
 22 23  1  0
M  END
