diamond-x0910_0_A-diamond-x0926_0_A
     RDKit          3D

 12 13  0  0  0  0  0  0  0  0999 V2000
   -2.4120   13.2580   -1.7600 N   0  0  0  0  0  0  0  0  0  0  0  0
   -1.8420   13.9830   -0.7640 C   0  0  0  0  0  0  0  0  0  0  0  0
   -2.6540   14.8570    0.1700 C   0  0  1  0  0  0  0  0  0  0  0  0
   -0.5730   14.0310   -0.5190 N   0  0  0  0  0  0  0  0  0  0  0  0
   -1.5630   15.4250    0.9890 N   0  0  0  0  0  0  0  0  0  0  0  0
   -0.4710   14.8940    0.5360 C   0  0  0  0  0  0  0  0  0  0  0  0
   -3.3770   15.7040   -0.7850 N   0  0  0  0  0  0  0  0  0  0  0  0
   -3.6090   14.2120    1.0850 C   0  0  0  0  0  0  0  0  0  0  0  0
   -4.9360   14.2640    0.8590 C   0  0  0  0  0  0  0  0  0  0  0  0
   -4.5050   15.4070   -1.2160 N   0  0  0  0  0  0  0  0  0  0  0  0
   -5.4530   14.9640   -0.3390 C   0  0  0  0  0  0  0  0  0  0  0  0
   -6.6670   15.0970   -0.4850 O   0  0  0  0  0  0  0  0  0  0  0  0
  1  2  1  0
  2  3  1  0
  2  4  2  0
  3  5  1  0
  4  6  1  0
  5  6  2  0
  3  7  1  0
  3  8  1  1
  8  9  2  0
  7 10  2  0
  9 11  1  0
 10 11  1  0
 11 12  2  0
M  END
