diamond-x0587_0_A-mac-x0139
     RDKit          3D

 28 30  0  0  0  0  0  0  0  0999 V2000
   -7.9680   14.8180    4.0110 N   0  0  0  0  0  0  0  0  0  0  0  0
   -8.5450   14.8390    2.7700 C   0  0  0  0  0  0  0  0  0  0  0  0
   -9.7520   14.9670    2.6260 O   0  0  0  0  0  0  0  0  0  0  0  0
   -7.6530   14.7210    1.6160 C   0  0  0  0  0  0  0  0  0  0  0  0
   -8.1070   14.6990    0.3040 C   0  0  0  0  0  0  0  0  0  0  0  0
   -6.3090   14.6310    1.7650 C   0  0  0  0  0  0  0  0  0  0  0  0
   -7.2950   14.6100   -0.7950 N   0  0  0  0  0  0  0  0  0  0  0  0
   -5.4760   14.5430    0.7340 N   0  0  0  0  0  0  0  0  0  0  0  0
   -5.9730   14.5450   -0.5290 C   0  0  0  0  0  0  0  0  0  0  0  0
   -4.8380   14.4880   -1.5560 C   0  0  0  0  0  0  0  0  0  0  0  0
   -4.6090   13.2730   -2.1520 F   0  0  0  0  0  0  0  0  0  0  0  0
   -4.9570   15.4300   -2.5450 F   0  0  0  0  0  0  0  0  0  0  0  0
   -3.8240   14.8350   -0.5570 C   0  0  0  0  0  0  0  0  0  0  0  0
   -2.4050   14.8360   -0.4190 C   0  0  0  0  0  0  0  0  0  0  0  0
   -4.2660   15.2990    0.6110 C   0  0  0  0  0  0  0  0  0  0  0  0
   -1.2420   14.7050   -1.1190 C   0  0  0  0  0  0  0  0  0  0  0  0
   -2.2640   15.1330    1.0270 C   0  0  0  0  0  0  0  0  0  0  0  0
   -3.3520   15.5080    1.5740 N   0  0  0  0  0  0  0  0  0  0  0  0
   -1.2060   14.4560   -2.5000 N   0  0  0  0  0  0  0  0  0  0  0  0
   -1.0760   15.0090    1.5780 N   0  0  0  0  0  0  0  0  0  0  0  0
   -0.0090   14.8750   -0.4880 N   0  0  0  0  0  0  0  0  0  0  0  0
   -2.3560   15.0030   -3.2520 C   0  0  0  0  0  0  0  0  0  0  0  0
    0.0710   14.8360   -3.1810 C   0  0  0  0  0  0  0  0  0  0  0  0
   -0.0030   15.0480    0.7910 C   0  0  0  0  0  0  0  0  0  0  0  0
    0.6350   13.7080   -4.0400 C   0  0  0  0  0  0  0  0  0  0  0  0
    0.9690   12.5260   -3.1800 C   0  0  0  0  0  0  0  0  0  0  0  0
    1.5900   12.5240   -2.1380 O   0  0  0  0  0  0  0  0  0  0  0  0
    0.4980   11.3740   -3.6890 O   0  0  0  0  0  0  0  0  0  0  0  0
  1  2  1  0
  2  3  2  0
  2  4  1  0
  4  5  2  0
  4  6  1  0
  5  7  1  0
  6  8  2  0
  7  9  2  0
  8  9  1  0
  9 10  1  0
 10 11  1  0
 10 12  1  0
 10 13  1  0
 13 14  1  0
 13 15  2  0
 14 16  2  0
 14 17  1  0
 15 18  1  0
 17 18  2  0
 16 19  1  0
 17 20  1  0
 16 21  1  0
 19 22  1  0
 19 23  1  0
 20 24  1  0
 21 24  2  0
 23 25  1  0
 25 26  1  0
 26 27  2  0
 26 28  1  0
M  END
