diamond-x0724_0_A-mac-x0590
     RDKit          3D

 27 30  0  0  0  0  0  0  0  0999 V2000
   -8.2550   13.9030    4.4880 N   0  0  0  0  0  0  0  0  0  0  0  0
   -8.7380   14.0950    5.8480 C   0  0  0  0  0  0  0  0  0  0  0  0
   -8.4450   15.0680    3.6400 C   0  0  0  0  0  0  0  0  0  0  0  0
   -7.7680   14.8420    2.3310 C   0  0  0  0  0  0  0  0  0  0  0  0
   -6.4220   14.7190    2.0440 C   0  0  0  0  0  0  0  0  0  0  0  0
   -8.3970   14.7050    1.0690 C   0  0  0  0  0  0  0  0  0  0  0  0
   -7.5230   14.5150    0.0790 N   0  0  0  0  0  0  0  0  0  0  0  0
   -6.3140   14.5260    0.6880 N   0  0  0  0  0  0  0  0  0  0  0  0
   -5.0770   14.3440   -0.0900 C   0  0  2  0  0  0  0  0  0  0  0  0
   -3.7390   14.6400    0.6920 C   0  0  2  0  0  0  0  0  0  0  0  0
   -5.1790   15.1100   -1.3830 C   0  0  0  0  0  0  0  0  0  0  0  0
   -3.9670   15.7030    1.6990 N   0  0  0  0  0  0  0  0  0  0  0  0
   -2.4280   14.8050   -0.2220 C   0  0  1  0  0  0  0  0  0  0  0  0
   -4.1150   15.2910   -2.1560 C   0  0  0  0  0  0  0  0  0  0  0  0
   -2.7850   14.7380   -1.7680 C   0  0  1  0  0  0  0  0  0  0  0  0
   -1.5320   15.8720    0.2580 N   0  0  0  0  0  0  0  0  0  0  0  0
   -1.4270   13.6490   -0.0660 C   0  0  0  0  0  0  0  0  0  0  0  0
   -1.6780   14.8220   -2.8760 C   0  0  0  0  0  0  0  0  0  0  0  0
   -0.1350   14.2750   -0.2870 N   0  0  0  0  0  0  0  0  0  0  0  0
   -0.3130   15.2620    0.7280 C   0  0  0  0  0  0  0  0  0  0  0  0
   -1.6540   13.6730   -3.9230 C   0  0  0  0  0  0  0  0  0  0  0  0
   -0.5400   13.6290   -4.9750 C   0  0  0  0  0  0  0  0  0  0  0  0
    0.3700   12.3880   -4.9170 C   0  0  2  0  0  0  0  0  0  0  0  0
    0.7460   12.0320   -3.4740 C   0  0  0  0  0  0  0  0  0  0  0  0
    1.7000   12.6850   -5.5780 C   0  0  0  0  0  0  0  0  0  0  0  0
    2.6380   12.9790   -4.4280 C   0  0  0  0  0  0  0  0  0  0  0  0
    2.1510   12.2640   -3.2950 O   0  0  0  0  0  0  0  0  0  0  0  0
  1  2  1  0
  1  3  1  0
  3  4  1  0
  4  5  2  0
  4  6  1  0
  6  7  2  0
  5  8  1  0
  7  8  1  0
  9  8  1  1
  9 10  1  0
  9 11  1  0
 10 12  1  6
 10 13  1  0
 11 14  2  0
 13 15  1  0
 14 15  1  0
 13 16  1  0
 13 17  1  1
 15 18  1  6
 17 19  1  0
 16 20  1  0
 19 20  1  0
 18 21  1  0
 21 22  1  0
 23 22  1  1
 23 24  1  0
 23 25  1  0
 25 26  1  0
 24 27  1  0
 26 27  1  0
M  END
