diamond-x0711_0_A-mac-x0223
     RDKit          3D

 23 24  0  0  0  0  0  0  0  0999 V2000
   -1.3930   14.5030   -2.0080 N   0  0  0  0  0  0  0  0  0  0  0  0
   -0.7310   13.0960   -2.6660 S   0  0  0  0  0  0  0  0  0  0  0  0
   -1.4220   13.1930   -4.3100 C   0  0  0  0  0  0  0  0  0  0  0  0
   -2.7040   14.5880   -1.4800 C   0  0  0  0  0  0  0  0  0  0  0  0
    0.7040   13.2220   -2.6980 O   0  0  0  0  0  0  0  0  0  0  0  0
   -1.3030   11.9240   -2.0420 O   0  0  0  0  0  0  0  0  0  0  0  0
   -3.8430   14.9130   -2.2280 C   0  0  0  0  0  0  0  0  0  0  0  0
   -2.8230   14.3190   -0.1230 C   0  0  0  0  0  0  0  0  0  0  0  0
   -5.0970   14.9550   -1.6030 C   0  0  0  0  0  0  0  0  0  0  0  0
   -4.0630   14.3600    0.4990 C   0  0  0  0  0  0  0  0  0  0  0  0
   -1.0810   14.5920   -4.6070 C   0  0  0  0  0  0  0  0  0  0  0  0
   -5.2060   14.6710   -0.2340 C   0  0  0  0  0  0  0  0  0  0  0  0
   -2.0250   15.6350   -4.6150 C   0  0  0  0  0  0  0  0  0  0  0  0
    0.2540   14.8620   -4.8570 C   0  0  0  0  0  0  0  0  0  0  0  0
   -6.5420   14.7030    0.4100 C   0  0  0  0  0  0  0  0  0  0  0  0
   -1.5730   16.9290   -4.8680 C   0  0  0  0  0  0  0  0  0  0  0  0
    0.6760   16.1460   -5.1080 C   0  0  0  0  0  0  0  0  0  0  0  0
   -6.6040   14.6660    1.7800 N   0  0  0  0  0  0  0  0  0  0  0  0
   -7.5720   14.7560   -0.2540 O   0  0  0  0  0  0  0  0  0  0  0  0
   -2.4060   18.0070   -4.8800 O   0  0  0  0  0  0  0  0  0  0  0  0
   -0.2410   17.1800   -5.1090 C   0  0  0  0  0  0  0  0  0  0  0  0
    0.0680   18.4700   -5.3360 O   0  0  0  0  0  0  0  0  0  0  0  0
    1.3650   18.6460   -5.8270 C   0  0  0  0  0  0  0  0  0  0  0  0
  2  1  1  0
  2  3  1  0
  1  4  1  0
  2  5  2  0
  2  6  2  0
  4  7  2  0
  4  8  1  0
  7  9  1  0
  8 10  2  0
  3 11  1  0
  9 12  2  0
 10 12  1  0
 11 13  2  0
 11 14  1  0
 12 15  1  0
 13 16  1  0
 14 17  2  0
 15 18  1  0
 15 19  2  0
 16 20  1  0
 16 21  2  0
 17 21  1  0
 21 22  1  0
 22 23  1  0
M  END
