diamond-x0962_2_B-mac-x0385
     RDKit          3D

 18 19  0  0  0  0  0  0  0  0999 V2000
  -11.8080   16.0990    1.4750 N   0  0  0  0  0  0  0  0  0  0  0  0
  -10.8470   15.9020    2.0690 C   0  0  0  0  0  0  0  0  0  0  0  0
   -9.6210   15.6430    2.6950 C   0  0  0  0  0  0  0  0  0  0  0  0
   -9.3040   16.0140    3.9830 N   0  0  0  0  0  0  0  0  0  0  0  0
   -8.6140   14.9970    2.0750 C   0  0  0  0  0  0  0  0  0  0  0  0
   -8.0720   15.5820    4.1290 C   0  0  0  0  0  0  0  0  0  0  0  0
   -7.6470   14.9740    2.9780 N   0  0  0  0  0  0  0  0  0  0  0  0
   -6.3670   14.4140    2.7710 C   0  0  0  0  0  0  0  0  0  0  0  0
   -5.6900   14.6620    1.4460 C   0  0  0  0  0  0  0  0  0  0  0  0
   -4.4760   15.4450    1.7130 N   0  0  0  0  0  0  0  0  0  0  0  0
   -3.4290   15.1990    0.8330 C   0  0  0  0  0  0  0  0  0  0  0  0
   -3.7070   15.2120   -0.5280 C   0  0  0  0  0  0  0  0  0  0  0  0
   -2.1990   14.9590    1.3140 N   0  0  0  0  0  0  0  0  0  0  0  0
   -5.0620   15.4850   -1.0930 C   0  0  0  0  0  0  0  0  0  0  0  0
   -1.2480   14.7330    0.4080 C   0  0  0  0  0  0  0  0  0  0  0  0
   -2.6460   14.9550   -1.3630 C   0  0  0  0  0  0  0  0  0  0  0  0
    0.0970   14.4860    0.9260 C   0  0  0  0  0  0  0  0  0  0  0  0
   -1.4060   14.7120   -0.9230 N   0  0  0  0  0  0  0  0  0  0  0  0
  1  2  3  0
  2  3  1  0
  3  4  1  0
  3  5  2  0
  4  6  2  0
  5  7  1  0
  6  7  1  0
  7  8  1  0
  8  9  1  0
  9 10  1  0
 10 11  1  0
 11 12  2  0
 11 13  1  0
 12 14  1  0
 13 15  2  0
 12 16  1  0
 15 17  1  0
 15 18  1  0
 16 18  2  0
M  END
