diamond-x0950_1_A-diamond-x0766_0_A
     RDKit          3D

 16 17  0  0  0  0  0  0  0  0999 V2000
    0.5000   13.3250   -5.7570 C   0  0  0  0  0  0  0  0  0  0  0  0
    0.7230   12.0940   -4.9000 C   0  0  2  0  0  0  0  0  0  0  0  0
    0.0590   11.0000   -5.5000 O   0  0  0  0  0  0  0  0  0  0  0  0
    0.4350   12.2870   -3.3850 C   0  0  0  0  0  0  0  0  0  0  0  0
    0.8060   11.1270   -2.6610 O   0  0  0  0  0  0  0  0  0  0  0  0
   -0.9300   12.3820   -3.1080 O   0  0  0  0  0  0  0  0  0  0  0  0
    1.0370   13.5520   -2.8360 C   0  0  1  0  0  0  0  0  0  0  0  0
    2.1680   14.1120   -3.6890 C   0  0  0  0  0  0  0  0  0  0  0  0
    0.1500   14.7900   -2.5480 C   0  0  1  0  0  0  0  0  0  0  0  0
    1.6170   15.4120   -4.2780 C   0  0  0  0  0  0  0  0  0  0  0  0
    0.1640   15.5000   -3.8820 C   0  0  0  0  0  0  0  0  0  0  0  0
   -1.2240   14.6980   -1.9330 C   0  0  0  0  0  0  0  0  0  0  0  0
   -2.4300   14.7070   -2.6270 C   0  0  0  0  0  0  0  0  0  0  0  0
   -1.4620   14.6060   -0.5270 C   0  0  0  0  0  0  0  0  0  0  0  0
   -2.7940   14.5560   -0.2060 C   0  0  0  0  0  0  0  0  0  0  0  0
   -3.7870   14.6160   -1.5920 S   0  0  0  0  0  0  0  0  0  0  0  0
  2  1  1  6
  2  3  1  0
  2  4  1  0
  4  5  1  0
  4  6  1  0
  7  4  1  6
  7  8  1  0
  7  9  1  0
  8 10  1  0
  9 11  1  0
 10 11  1  0
  9 12  1  6
 12 13  2  0
 12 14  1  0
 14 15  2  0
 13 16  1  0
 15 16  1  0
M  END
