diamond-x0805_0_A-mac-x0179
     RDKit          3D

 29 32  0  0  0  0  0  0  0  0999 V2000
   -4.2460   15.6140    0.6680 C   0  0  0  0  0  0  0  0  0  0  0  0
   -3.0110   15.2090    0.0960 O   0  0  0  0  0  0  0  0  0  0  0  0
   -3.0650   14.5940   -1.1250 C   0  0  0  0  0  0  0  0  0  0  0  0
   -4.1230   13.8540   -1.6380 C   0  0  0  0  0  0  0  0  0  0  0  0
   -1.9140   14.7560   -1.8930 C   0  0  0  0  0  0  0  0  0  0  0  0
   -4.0180   13.2910   -2.9100 C   0  0  0  0  0  0  0  0  0  0  0  0
   -1.7880   14.2080   -3.1720 C   0  0  0  0  0  0  0  0  0  0  0  0
   -2.8620   13.4680   -3.6720 C   0  0  0  0  0  0  0  0  0  0  0  0
   -0.5020   14.4470   -3.9370 C   0  0  2  0  0  0  0  0  0  0  0  0
    0.3500   13.1780   -4.1760 C   0  0  2  0  0  0  0  0  0  0  0  0
    0.3200   15.6400   -3.4590 C   0  0  0  0  0  0  0  0  0  0  0  0
    0.5830   12.1800   -3.0220 C   0  0  0  0  0  0  0  0  0  0  0  0
    1.7020   13.5130   -4.8320 C   0  0  0  0  0  0  0  0  0  0  0  0
    1.6690   15.6740   -4.1350 C   0  0  0  0  0  0  0  0  0  0  0  0
    1.9650   11.9650   -2.9560 O   0  0  0  0  0  0  0  0  0  0  0  0
    0.1480   12.5560   -1.7080 O   0  0  0  0  0  0  0  0  0  0  0  0
   -0.0740   10.9450   -3.5840 C   0  0  0  0  0  0  0  0  0  0  0  0
    2.3710   14.4510   -4.0170 O   0  0  0  0  0  0  0  0  0  0  0  0
   -0.4300   11.1940   -4.9840 N   0  0  0  0  0  0  0  0  0  0  0  0
    0.3530   11.1840   -6.1290 C   0  0  0  0  0  0  0  0  0  0  0  0
   -1.6780   10.8850   -5.3350 C   0  0  0  0  0  0  0  0  0  0  0  0
    1.3450   11.8300   -6.4320 O   0  0  0  0  0  0  0  0  0  0  0  0
   -2.7250   11.2300   -4.8440 O   0  0  0  0  0  0  0  0  0  0  0  0
   -0.2670   10.1760   -6.9720 C   0  0  0  0  0  0  0  0  0  0  0  0
   -1.5380    9.9900   -6.4630 C   0  0  0  0  0  0  0  0  0  0  0  0
    0.1900    9.4720   -8.0670 C   0  0  0  0  0  0  0  0  0  0  0  0
   -2.4260    9.0980   -6.9960 C   0  0  0  0  0  0  0  0  0  0  0  0
   -0.6980    8.5530   -8.6350 C   0  0  0  0  0  0  0  0  0  0  0  0
   -1.9950    8.3660   -8.1020 C   0  0  0  0  0  0  0  0  0  0  0  0
  1  2  1  0
  2  3  1  0
  3  4  2  0
  3  5  1  0
  4  6  1  0
  5  7  2  0
  6  8  2  0
  7  8  1  0
  9  7  1  1
  9 10  1  0
  9 11  1  0
 10 12  1  1
 10 13  1  0
 11 14  1  0
 12 15  1  0
 12 16  1  0
 12 17  1  0
 13 18  1  0
 14 18  1  0
 17 19  1  0
 19 20  1  0
 19 21  1  0
 20 22  2  0
 21 23  2  0
 20 24  1  0
 21 25  1  0
 24 25  2  0
 24 26  1  0
 25 27  1  0
 26 28  2  0
 27 29  2  0
 28 29  1  0
M  END
