diamond-x0895_0_A-mac-x0204
     RDKit          3D

 18 19  0  0  0  0  0  0  0  0999 V2000
   -1.5210   14.7200    1.7730 O   0  0  0  0  0  0  0  0  0  0  0  0
   -2.4800   14.7470    1.0110 C   0  0  0  0  0  0  0  0  0  0  0  0
   -3.9400   14.5820    1.3680 C   0  0  0  0  0  0  0  0  0  0  0  0
   -2.4570   14.9310   -0.3410 N   0  0  0  0  0  0  0  0  0  0  0  0
   -4.6150   14.8530    0.1200 N   0  0  0  0  0  0  0  0  0  0  0  0
   -3.7010   15.0060   -0.8750 C   0  0  0  0  0  0  0  0  0  0  0  0
   -3.8270   15.1950   -2.1400 N   0  0  0  0  0  0  0  0  0  0  0  0
   -2.6010   15.4050   -2.9440 C   0  0  0  0  0  0  0  0  0  0  0  0
   -2.2280   14.4770   -4.0230 C   0  0  0  0  0  0  0  0  0  0  0  0
   -1.0900   13.6620   -3.9320 C   0  0  0  0  0  0  0  0  0  0  0  0
   -3.0150   14.4160   -5.1640 C   0  0  0  0  0  0  0  0  0  0  0  0
   -0.1240   13.6730   -2.8020 C   0  0  0  0  0  0  0  0  0  0  0  0
   -4.0950   15.2410   -5.2930 O   0  0  0  0  0  0  0  0  0  0  0  0
   -2.6900   13.5200   -6.1540 C   0  0  0  0  0  0  0  0  0  0  0  0
   -0.8480   12.7920   -4.9780 C   0  0  0  0  0  0  0  0  0  0  0  0
    0.1060   12.4460   -2.3120 O   0  0  0  0  0  0  0  0  0  0  0  0
    0.4490   14.6540   -2.3480 O   0  0  0  0  0  0  0  0  0  0  0  0
   -1.6320   12.6980   -6.0800 N   0  0  0  0  0  0  0  0  0  0  0  0
  1  2  2  0
  2  3  1  0
  2  4  1  0
  3  5  1  0
  4  6  1  0
  5  6  1  0
  6  7  2  3
  7  8  1  0
  8  9  1  0
  9 10  2  0
  9 11  1  0
 10 12  1  0
 11 13  1  0
 11 14  2  0
 10 15  1  0
 12 16  1  0
 12 17  2  0
 14 18  1  0
 15 18  2  0
M  END
