diamond-x0574_0_A-mac-x0567
     RDKit          3D

 12 13  0  0  0  0  0  0  0  0999 V2000
    0.1450   14.0420    2.1080 N   0  0  0  0  0  0  0  0  0  0  0  0
   -0.9280   14.2990    1.3920 C   0  0  0  0  0  0  0  0  0  0  0  0
   -2.0630   14.3070    1.9670 N   0  0  0  0  0  0  0  0  0  0  0  0
   -0.9280   14.6270   -0.2900 S   0  0  0  0  0  0  0  0  0  0  0  0
   -3.0550   14.5620    1.0790 C   0  0  0  0  0  0  0  0  0  0  0  0
   -2.6550   14.7750   -0.2280 C   0  0  0  0  0  0  0  0  0  0  0  0
   -4.3990   14.6110    1.4180 C   0  0  0  0  0  0  0  0  0  0  0  0
   -3.6020   15.0530   -1.2290 C   0  0  0  0  0  0  0  0  0  0  0  0
   -5.3490   14.8700    0.4630 C   0  0  0  0  0  0  0  0  0  0  0  0
   -4.9570   15.0950   -0.8570 C   0  0  0  0  0  0  0  0  0  0  0  0
   -6.6850   14.9140    0.7470 O   0  0  0  0  0  0  0  0  0  0  0  0
   -7.0130   14.5790    2.1010 C   0  0  0  0  0  0  0  0  0  0  0  0
  1  2  1  0
  2  3  2  0
  2  4  1  0
  3  5  1  0
  4  6  1  0
  5  6  2  0
  5  7  1  0
  6  8  1  0
  7  9  2  0
  8 10  2  0
  9 10  1  0
  9 11  1  0
 11 12  1  0
M  END
