diamond-x1012_0_A-diamond-x0711_0_A
     RDKit          3D

 25 26  0  0  0  0  0  0  0  0999 V2000
   -0.4860   18.4390   -4.9420 N   0  0  0  0  0  0  0  0  0  0  0  0
   -1.1890   17.2290   -4.8470 C   0  0  0  0  0  0  0  0  0  0  0  0
   -2.4410   17.3330   -4.6720 O   0  0  0  0  0  0  0  0  0  0  0  0
   -0.5680   15.9670   -4.9140 N   0  0  0  0  0  0  0  0  0  0  0  0
   -1.3090   14.7190   -4.8830 C   0  0  0  0  0  0  0  0  0  0  0  0
    0.8530   15.9070   -4.7590 C   0  0  0  0  0  0  0  0  0  0  0  0
   -0.3010   13.5720   -5.0100 C   0  0  0  0  0  0  0  0  0  0  0  0
    1.3020   14.9400   -3.6600 C   0  0  0  0  0  0  0  0  0  0  0  0
    0.8180   13.5530   -4.0030 C   0  0  0  0  0  0  0  0  0  0  0  0
    0.3780   12.7540   -2.7560 C   0  0  0  0  0  0  0  0  0  0  0  0
    0.8290   11.4560   -2.9570 O   0  0  0  0  0  0  0  0  0  0  0  0
    1.1890   13.2360   -1.6830 O   0  0  0  0  0  0  0  0  0  0  0  0
   -1.1440   13.1260   -2.5620 S   0  0  0  0  0  0  0  0  0  0  0  0
   -1.5350   14.8030   -1.9840 N   0  0  0  0  0  0  0  0  0  0  0  0
   -2.3840   12.5350   -3.4820 C   0  0  0  0  0  0  0  0  0  0  0  0
   -0.7670   14.2510   -3.8520 O   0  0  0  0  0  0  0  0  0  0  0  0
   -2.8130   14.8350   -1.5090 C   0  0  0  0  0  0  0  0  0  0  0  0
   -3.9510   15.1760   -2.1930 C   0  0  0  0  0  0  0  0  0  0  0  0
   -2.9640   14.4660   -0.1880 C   0  0  0  0  0  0  0  0  0  0  0  0
   -5.1800   15.1380   -1.5760 C   0  0  0  0  0  0  0  0  0  0  0  0
   -4.1780   14.4240    0.4340 C   0  0  0  0  0  0  0  0  0  0  0  0
   -5.3160   14.7590   -0.2580 C   0  0  0  0  0  0  0  0  0  0  0  0
   -6.6180   14.6980    0.4210 C   0  0  0  0  0  0  0  0  0  0  0  0
   -6.6400   14.6650    1.8640 N   0  0  0  0  0  0  0  0  0  0  0  0
   -7.6790   14.6750   -0.2270 O   0  0  0  0  0  0  0  0  0  0  0  0
  1  2  1  0
  2  3  2  0
  2  4  1  0
  4  5  1  0
  4  6  1  0
  5  7  1  0
  6  8  1  0
  7  9  1  0
  8  9  1  0
  9 10  1  0
 10 11  1  0
 10 12  1  0
 10 13  1  0
 13 14  1  0
 13 15  1  0
 13 16  2  0
 14 17  1  0
 17 18  2  0
 17 19  1  0
 18 20  1  0
 19 21  2  0
 20 22  2  0
 21 22  1  0
 22 23  1  0
 23 24  1  0
 23 25  2  0
M  END
