diamond-x0128_0_A-diamond-x1012_0_A
     RDKit          3D

 31 33  0  0  0  0  0  0  0  0999 V2000
   -6.5990   14.8540    2.5500 N   0  0  0  0  0  0  0  0  0  0  0  0
   -7.8360   15.2150    3.0780 C   0  0  0  0  0  0  0  0  0  0  0  0
   -8.8310   15.4740    2.4150 O   0  0  0  0  0  0  0  0  0  0  0  0
   -6.1840   14.8180    1.2030 C   0  0  0  0  0  0  0  0  0  0  0  0
   -7.7810   15.2490    4.4640 N   0  0  0  0  0  0  0  0  0  0  0  0
   -7.0490   14.5490    0.1560 C   0  0  0  0  0  0  0  0  0  0  0  0
   -4.8280   15.0750    0.9230 C   0  0  0  0  0  0  0  0  0  0  0  0
   -6.5850   14.5240   -1.1550 C   0  0  0  0  0  0  0  0  0  0  0  0
   -4.3600   15.0490   -0.4000 C   0  0  0  0  0  0  0  0  0  0  0  0
   -8.5460   16.0520    5.3470 C   0  0  0  0  0  0  0  0  0  0  0  0
   -5.2490   14.7660   -1.4480 C   0  0  0  0  0  0  0  0  0  0  0  0
   -9.1710   17.2080    4.8710 C   0  0  0  0  0  0  0  0  0  0  0  0
   -8.7230   15.7610    6.6940 C   0  0  0  0  0  0  0  0  0  0  0  0
   -4.8170   14.7040   -2.8930 C   0  0  0  0  0  0  0  0  0  0  0  0
   -9.9260   18.0450    5.6240 N   0  0  0  0  0  0  0  0  0  0  0  0
   -9.4930   16.6050    7.4980 C   0  0  0  0  0  0  0  0  0  0  0  0
   -3.4880   15.3980   -3.1060 C   0  0  0  0  0  0  0  0  0  0  0  0
  -10.0680   17.7240    6.9220 C   0  0  0  0  0  0  0  0  0  0  0  0
   -3.2170   15.7600   -4.5720 C   0  0  0  0  0  0  0  0  0  0  0  0
   -2.5190   17.0450   -4.6300 N   0  0  0  0  0  0  0  0  0  0  0  0
   -1.2500   17.0440   -4.7720 C   0  0  0  0  0  0  0  0  0  0  0  0
   -0.4660   18.1490   -4.8290 N   0  0  0  0  0  0  0  0  0  0  0  0
   -0.5480   15.8520   -4.8710 N   0  0  0  0  0  0  0  0  0  0  0  0
   -1.2590   14.5750   -5.0750 C   0  0  0  0  0  0  0  0  0  0  0  0
    0.8810   15.7160   -4.5170 C   0  0  0  0  0  0  0  0  0  0  0  0
   -1.1460   13.7110   -3.8310 C   0  0  0  0  0  0  0  0  0  0  0  0
    1.0920   14.7050   -3.3730 C   0  0  0  0  0  0  0  0  0  0  0  0
    0.3100   13.3920   -3.5520 C   0  0  0  0  0  0  0  0  0  0  0  0
    0.4170   12.4380   -2.3730 C   0  0  0  0  0  0  0  0  0  0  0  0
    0.3670   11.1410   -2.7480 O   0  0  0  0  0  0  0  0  0  0  0  0
    0.5270   12.7630   -1.2040 O   0  0  0  0  0  0  0  0  0  0  0  0
  1  2  1  0
  2  3  2  0
  1  4  1  0
  2  5  1  0
  4  6  2  0
  4  7  1  0
  6  8  1  0
  7  9  2  0
  5 10  1  0
  8 11  2  0
  9 11  1  0
 10 12  2  0
 10 13  1  0
 11 14  1  0
 12 15  1  0
 13 16  2  0
 14 17  1  0
 15 18  2  0
 16 18  1  0
 17 19  1  0
 19 20  1  0
 20 21  2  3
 21 22  1  0
 21 23  1  0
 23 24  1  0
 23 25  1  0
 24 26  1  0
 25 27  1  0
 26 28  1  0
 27 28  1  0
 28 29  1  0
 29 30  1  0
 29 31  2  0
M  END
