diamond-x0371_0_A-diamond-x0722_0_A
     RDKit          3D

 30 33  0  0  0  0  0  0  0  0999 V2000
   -8.9350   14.0950    3.1740 N   0  0  0  0  0  0  0  0  0  0  0  0
   -9.1570   15.3610    3.6750 C   0  0  0  0  0  0  0  0  0  0  0  0
   -9.5580   16.2800    2.9620 O   0  0  0  0  0  0  0  0  0  0  0  0
   -8.8970   13.8440    1.7590 C   0  0  0  0  0  0  0  0  0  0  0  0
   -7.5580   14.2930    1.3460 C   0  0  0  0  0  0  0  0  0  0  0  0
   -8.8780   15.4800    5.0940 C   0  0  0  0  0  0  0  0  0  0  0  0
   -6.7290   14.9300    2.2180 N   0  0  0  0  0  0  0  0  0  0  0  0
   -7.0010   14.1560    0.1640 N   0  0  0  0  0  0  0  0  0  0  0  0
   -8.3530   14.3880    5.7280 O   0  0  0  0  0  0  0  0  0  0  0  0
   -9.0320   16.4990    6.0160 C   0  0  0  0  0  0  0  0  0  0  0  0
   -5.7720   14.7450    0.3110 C   0  0  0  0  0  0  0  0  0  0  0  0
   -5.5750   15.2390    1.5710 C   0  0  0  0  0  0  0  0  0  0  0  0
   -8.5750   15.9890    7.2610 C   0  0  0  0  0  0  0  0  0  0  0  0
   -8.1700   14.7030    7.0290 C   0  0  0  0  0  0  0  0  0  0  0  0
   -4.4110   15.8940    1.9820 C   0  0  0  0  0  0  0  0  0  0  0  0
   -4.7340   14.8990   -0.5650 C   0  0  0  0  0  0  0  0  0  0  0  0
   -4.6440   14.3960   -1.8740 C   0  0  2  0  0  0  0  0  0  0  0  0
   -3.4160   16.0420    1.0390 C   0  0  0  0  0  0  0  0  0  0  0  0
   -3.5960   15.5440   -0.1960 C   0  0  0  0  0  0  0  0  0  0  0  0
   -5.7860   13.4030   -1.9930 C   0  0  0  0  0  0  0  0  0  0  0  0
   -3.3000   14.2030   -1.1460 C   0  0  0  0  0  0  0  0  0  0  0  0
   -6.8650   13.6220   -2.5320 O   0  0  0  0  0  0  0  0  0  0  0  0
   -5.5690   12.1820   -1.3960 N   0  0  0  0  0  0  0  0  0  0  0  0
   -3.2190   13.8210    0.2700 C   0  0  0  0  0  0  0  0  0  0  0  0
   -1.9520   14.3410   -1.4880 C   0  0  0  0  0  0  0  0  0  0  0  0
   -4.2800   13.5030    1.2790 C   0  0  0  0  0  0  0  0  0  0  0  0
   -1.2850   14.7100   -2.7540 C   0  0  0  0  0  0  0  0  0  0  0  0
   -1.9750   13.7630    0.7120 N   0  0  0  0  0  0  0  0  0  0  0  0
   -1.2340   14.0710   -0.3370 N   0  0  0  0  0  0  0  0  0  0  0  0
    0.1870   14.0870   -0.1280 C   0  0  0  0  0  0  0  0  0  0  0  0
  1  2  1  0
  2  3  2  0
  1  4  1  0
  4  5  1  0
  2  6  1  0
  5  7  1  0
  5  8  2  0
  6  9  1  0
  6 10  2  0
  8 11  1  0
  7 12  1  0
 11 12  2  0
 10 13  1  0
  9 14  1  0
 13 14  2  0
 12 15  1  0
 11 16  1  0
 16 17  1  0
 15 18  2  0
 16 19  2  0
 18 19  1  0
 17 20  1  1
 17 21  1  0
 20 22  2  0
 20 23  1  0
 21 24  1  0
 21 25  2  0
 24 26  1  0
 25 27  1  0
 24 28  2  0
 25 29  1  0
 28 29  1  0
 29 30  1  0
M  END
