diamond-x0290_0_A-mac-x0371
     RDKit          3D

 24 25  0  0  0  0  0  0  0  0999 V2000
   -7.8560   13.7690    1.1000 N   0  0  0  0  0  0  0  0  0  0  0  0
   -8.6010   14.9620    0.7090 C   0  0  0  0  0  0  0  0  0  0  0  0
   -6.6020   14.1090    1.8160 C   0  0  0  0  0  0  0  0  0  0  0  0
   -5.4760   14.5360    0.8630 C   0  0  0  0  0  0  0  0  0  0  0  0
   -5.6940   14.6250   -0.3420 O   0  0  0  0  0  0  0  0  0  0  0  0
   -4.2750   14.7740    1.4900 N   0  0  0  0  0  0  0  0  0  0  0  0
   -3.0460   14.7090    0.8640 C   0  0  0  0  0  0  0  0  0  0  0  0
   -1.9220   14.6790    1.6330 N   0  0  0  0  0  0  0  0  0  0  0  0
   -3.0230   14.6690   -0.5080 C   0  0  0  0  0  0  0  0  0  0  0  0
   -0.7440   14.6180    0.9510 C   0  0  0  0  0  0  0  0  0  0  0  0
   -1.8350   14.5960   -1.2010 C   0  0  0  0  0  0  0  0  0  0  0  0
   -1.9100   14.5380   -2.7250 C   0  0  0  0  0  0  0  0  0  0  0  0
   -0.6450   14.5740   -0.4450 C   0  0  0  0  0  0  0  0  0  0  0  0
   -0.5620   14.7010   -3.3420 C   0  0  0  0  0  0  0  0  0  0  0  0
    0.2640   13.6380   -3.7990 C   0  0  0  0  0  0  0  0  0  0  0  0
   -0.1400   16.0350   -3.4300 C   0  0  0  0  0  0  0  0  0  0  0  0
   -0.1230   12.1670   -3.7900 C   0  0  0  0  0  0  0  0  0  0  0  0
    1.0940   16.3430   -3.9360 C   0  0  0  0  0  0  0  0  0  0  0  0
    1.5170   14.0040   -4.2830 C   0  0  0  0  0  0  0  0  0  0  0  0
    2.6810   12.8760   -4.8420 Cl  0  0  0  0  0  0  0  0  0  0  0  0
    0.0610   11.4070   -2.5020 C   0  0  0  0  0  0  0  0  0  0  0  0
    1.8980   15.3130   -4.3360 C   0  0  0  0  0  0  0  0  0  0  0  0
    0.2450   12.1940   -1.4160 O   0  0  0  0  0  0  0  0  0  0  0  0
    0.0440   10.1920   -2.4160 O   0  0  0  0  0  0  0  0  0  0  0  0
  1  2  1  0
  1  3  1  0
  3  4  1  0
  4  5  2  0
  4  6  1  0
  6  7  1  0
  7  8  2  0
  7  9  1  0
  8 10  1  0
  9 11  2  0
 11 12  1  0
 10 13  2  0
 11 13  1  0
 12 14  1  0
 14 15  2  0
 14 16  1  0
 15 17  1  0
 16 18  2  0
 15 19  1  0
 19 20  1  0
 17 21  1  0
 18 22  1  0
 19 22  2  0
 21 23  1  0
 21 24  2  0
M  END
