diamond-x0864_0_A-mac-x0584
     RDKit          3D

 30 34  0  0  0  0  0  0  0  0999 V2000
    1.5980   11.8390   -7.0640 O   0  0  0  0  0  0  0  0  0  0  0  0
    0.6330   11.2460   -6.6370 C   0  0  0  0  0  0  0  0  0  0  0  0
    0.1170   11.4520   -5.3810 N   0  0  0  0  0  0  0  0  0  0  0  0
   -0.0300   10.2070   -7.4640 C   0  0  0  0  0  0  0  0  0  0  0  0
    0.9900   12.0530   -4.3580 C   0  0  0  0  0  0  0  0  0  0  0  0
   -1.0620   10.8260   -4.9720 C   0  0  0  0  0  0  0  0  0  0  0  0
   -1.1340    9.5910   -7.0090 C   0  0  0  0  0  0  0  0  0  0  0  0
    0.6320   11.5320   -2.9450 C   0  0  0  0  0  0  0  0  0  0  0  0
   -2.0100    8.2710   -7.9870 Br  0  0  0  0  0  0  0  0  0  0  0  0
   -1.6820    9.9320   -5.7330 C   0  0  0  0  0  0  0  0  0  0  0  0
    0.7770   10.1680   -2.5960 O   0  0  0  0  0  0  0  0  0  0  0  0
    1.1960   12.3670   -1.9440 O   0  0  0  0  0  0  0  0  0  0  0  0
   -0.8110   11.6230   -3.0020 C   0  0  2  0  0  0  0  0  0  0  0  0
   -1.2760   12.3840   -4.2600 C   0  0  0  0  0  0  0  0  0  0  0  0
   -1.4590   12.6860   -2.1370 C   0  0  0  0  0  0  0  0  0  0  0  0
   -1.4750   13.5890   -3.3770 C   0  0  1  0  0  0  0  0  0  0  0  0
   -0.4430   14.6730   -3.4580 C   0  0  1  0  0  0  0  0  0  0  0  0
   -0.4110   15.2430   -4.8670 C   0  0  0  0  0  0  0  0  0  0  0  0
   -1.0750   15.6970   -2.6710 N   0  0  0  0  0  0  0  0  0  0  0  0
   -2.1060   16.2510   -3.5750 C   0  0  0  0  0  0  0  0  0  0  0  0
   -1.8580   15.6680   -4.9660 C   0  0  0  0  0  0  0  0  0  0  0  0
   -1.3180   15.4820   -1.3130 C   0  0  0  0  0  0  0  0  0  0  0  0
   -0.2350   15.2570   -0.4800 N   0  0  0  0  0  0  0  0  0  0  0  0
   -2.5090   15.4540   -0.6880 C   0  0  0  0  0  0  0  0  0  0  0  0
   -0.3670   15.0180    0.8550 C   0  0  0  0  0  0  0  0  0  0  0  0
   -2.5690   15.2040    0.7750 C   0  0  0  0  0  0  0  0  0  0  0  0
   -3.8910   15.6060   -1.0290 C   0  0  0  0  0  0  0  0  0  0  0  0
   -1.4610   14.9690    1.5290 N   0  0  0  0  0  0  0  0  0  0  0  0
   -3.7830   15.2450    1.2400 N   0  0  0  0  0  0  0  0  0  0  0  0
   -4.5600   15.4820    0.1260 C   0  0  0  0  0  0  0  0  0  0  0  0
  1  2  2  0
  2  3  1  0
  2  4  1  0
  3  5  1  0
  3  6  1  0
  4  7  2  0
  5  8  1  0
  7  9  1  0
  6 10  2  0
  7 10  1  0
  8 11  1  0
  8 12  1  0
 13  8  1  6
 13 14  1  0
 13 15  1  0
 16 14  1  6
 15 16  1  0
 16 17  1  0
 17 18  1  6
 17 19  1  0
 19 20  1  0
 18 21  1  0
 20 21  1  0
 19 22  1  0
 22 23  1  0
 22 24  2  0
 23 25  1  0
 24 26  1  0
 24 27  1  0
 25 28  2  0
 26 28  1  0
 26 29  2  0
 27 30  2  0
 29 30  1  0
M  END
