diamond-x0711_0_A-diamond-x0128_0_A
     RDKit          3D

 23 24  0  0  0  0  0  0  0  0999 V2000
   -1.8060   15.0790   -2.6260 N   0  0  0  0  0  0  0  0  0  0  0  0
   -0.6680   13.8720   -2.9760 S   0  0  0  0  0  0  0  0  0  0  0  0
   -1.6410   12.7000   -3.8890 C   0  0  0  0  0  0  0  0  0  0  0  0
   -2.9480   14.9250   -1.7600 C   0  0  0  0  0  0  0  0  0  0  0  0
    0.3260   14.4290   -3.8670 O   0  0  0  0  0  0  0  0  0  0  0  0
   -0.2870   13.2760   -1.7150 O   0  0  0  0  0  0  0  0  0  0  0  0
   -4.2000   15.1730   -2.3040 C   0  0  0  0  0  0  0  0  0  0  0  0
   -2.8370   14.5570   -0.4120 C   0  0  0  0  0  0  0  0  0  0  0  0
   -5.3560   15.0660   -1.5260 C   0  0  0  0  0  0  0  0  0  0  0  0
   -4.0020   14.4430    0.3850 C   0  0  0  0  0  0  0  0  0  0  0  0
   -5.2740   14.6990   -0.1670 C   0  0  0  0  0  0  0  0  0  0  0  0
   -6.5420   14.5840    0.6530 C   0  0  0  0  0  0  0  0  0  0  0  0
   -6.5370   14.7360    2.0590 N   0  0  0  0  0  0  0  0  0  0  0  0
   -7.5850   14.3730    0.0370 O   0  0  0  0  0  0  0  0  0  0  0  0
   -7.6280   15.1340    2.8660 C   0  0  0  0  0  0  0  0  0  0  0  0
   -8.7040   15.2790    2.2890 O   0  0  0  0  0  0  0  0  0  0  0  0
   -7.4340   15.3620    4.2280 N   0  0  0  0  0  0  0  0  0  0  0  0
   -8.3060   16.0780    5.1090 C   0  0  0  0  0  0  0  0  0  0  0  0
   -9.0570   17.2020    4.7640 C   0  0  0  0  0  0  0  0  0  0  0  0
   -8.4290   15.6330    6.4300 C   0  0  0  0  0  0  0  0  0  0  0  0
   -9.8800   17.8800    5.6100 N   0  0  0  0  0  0  0  0  0  0  0  0
   -9.2690   16.3110    7.3240 C   0  0  0  0  0  0  0  0  0  0  0  0
   -9.9650   17.4190    6.8700 C   0  0  0  0  0  0  0  0  0  0  0  0
  2  1  1  0
  2  3  1  0
  1  4  1  0
  2  5  2  0
  2  6  2  0
  4  7  2  0
  4  8  1  0
  7  9  1  0
  8 10  2  0
  9 11  2  0
 10 11  1  0
 11 12  1  0
 12 13  1  0
 12 14  2  0
 13 15  1  0
 15 16  2  0
 15 17  1  0
 17 18  1  0
 18 19  2  0
 18 20  1  0
 19 21  1  0
 20 22  2  0
 21 23  2  0
 22 23  1  0
M  END
