diamond-x0421_0_A-mac-x0303
     RDKit          3D

 15 16  0  0  0  0  0  0  0  0999 V2000
   -3.7110   15.1730   -2.8670 N   0  0  0  0  0  0  0  0  0  0  0  0
   -2.8030   14.9460   -1.8760 C   0  0  0  0  0  0  0  0  0  0  0  0
   -1.6120   14.7920   -2.1080 O   0  0  0  0  0  0  0  0  0  0  0  0
   -3.3880   14.9000   -0.5410 C   0  0  0  0  0  0  0  0  0  0  0  0
   -2.7280   15.0430    0.6680 C   0  0  0  0  0  0  0  0  0  0  0  0
   -4.7380   14.6890   -0.3240 N   0  0  0  0  0  0  0  0  0  0  0  0
   -3.6920   14.9090    1.6160 N   0  0  0  0  0  0  0  0  0  0  0  0
   -4.8700   14.6970    0.9810 C   0  0  0  0  0  0  0  0  0  0  0  0
   -6.2220   14.4720    1.6660 C   0  0  1  0  0  0  0  0  0  0  0  0
   -7.5900   14.4770    1.0750 C   0  0  1  0  0  0  0  0  0  0  0  0
   -6.9060   13.1710    1.3560 C   0  0  0  0  0  0  0  0  0  0  0  0
   -8.9570   14.7120    2.1820 S   0  0  0  0  0  0  0  0  0  0  0  0
   -9.0300   13.2470    3.0060 N   0  0  0  0  0  0  0  0  0  0  0  0
   -8.6190   15.7010    3.1770 O   0  0  0  0  0  0  0  0  0  0  0  0
  -10.1530   14.7720    1.3870 O   0  0  0  0  0  0  0  0  0  0  0  0
  1  2  1  0
  2  3  2  0
  2  4  1  0
  4  5  2  0
  4  6  1  0
  5  7  1  0
  6  8  2  0
  7  8  1  0
  9  8  1  6
  9 10  1  0
  9 11  1  0
 10 11  1  0
 10 12  1  1
 12 13  1  0
 12 14  2  0
 12 15  2  0
M  END
