diamond-x0962_0_A-mac-x0326
     RDKit          3D

 22 24  0  0  0  0  0  0  0  0999 V2000
   -1.4750   14.5100    0.7600 N   0  0  0  0  0  0  0  0  0  0  0  0
   -2.5460   15.3950    0.3430 C   0  0  2  0  0  0  0  0  0  0  0  0
   -3.8370   15.0550    0.9350 C   0  0  0  0  0  0  0  0  0  0  0  0
   -2.8250   15.2520   -1.0810 C   0  0  0  0  0  0  0  0  0  0  0  0
   -4.3370   15.6250    2.0470 N   0  0  0  0  0  0  0  0  0  0  0  0
   -4.8010   14.1470    0.5370 C   0  0  0  0  0  0  0  0  0  0  0  0
   -1.9100   15.1420   -2.1210 C   0  0  0  0  0  0  0  0  0  0  0  0
   -4.1880   15.2040   -1.3850 C   0  0  0  0  0  0  0  0  0  0  0  0
   -5.5510   15.0610    2.2830 C   0  0  0  0  0  0  0  0  0  0  0  0
   -5.8660   14.1660    1.3830 N   0  0  0  0  0  0  0  0  0  0  0  0
   -2.3440   14.9860   -3.4320 C   0  0  0  0  0  0  0  0  0  0  0  0
   -0.1820   15.1570   -2.0850 S   0  0  0  0  0  0  0  0  0  0  0  0
   -4.6420   15.0460   -2.6540 C   0  0  0  0  0  0  0  0  0  0  0  0
   -6.3480   14.9740   -2.8710 Cl  0  0  0  0  0  0  0  0  0  0  0  0
   -0.1510   14.9480   -3.7800 C   0  0  0  0  0  0  0  0  0  0  0  0
   -1.3300   14.8810   -4.3690 N   0  0  0  0  0  0  0  0  0  0  0  0
   -3.7370   14.9390   -3.7090 C   0  0  0  0  0  0  0  0  0  0  0  0
    1.1600   14.8490   -4.5090 C   0  0  0  0  0  0  0  0  0  0  0  0
    1.5390   13.3990   -4.8280 C   0  0  0  0  0  0  0  0  0  0  0  0
    1.1720   12.4200   -3.7450 C   0  0  0  0  0  0  0  0  0  0  0  0
    0.1920   11.5720   -4.1110 O   0  0  0  0  0  0  0  0  0  0  0  0
    1.6730   12.3440   -2.6360 O   0  0  0  0  0  0  0  0  0  0  0  0
  2  1  1  1
  2  3  1  0
  2  4  1  0
  3  5  1  0
  3  6  2  0
  4  7  1  0
  4  8  2  0
  5  9  1  0
  6 10  1  0
  9 10  2  0
  7 11  2  0
  7 12  1  0
  8 13  1  0
 13 14  1  0
 12 15  1  0
 11 16  1  0
 15 16  2  0
 11 17  1  0
 13 17  2  0
 15 18  1  0
 18 19  1  0
 19 20  1  0
 20 21  1  0
 20 22  2  0
M  END
