diamond-x0685_1_A-diamond-x0253_0_A
     RDKit          3D

 17 18  0  0  0  0  0  0  0  0999 V2000
   -1.9460   10.5250   -5.3110 N   0  0  0  0  0  0  0  0  0  0  0  0
   -1.5960   11.5610   -4.3020 C   0  0  0  0  0  0  0  0  0  0  0  0
   -0.0950   11.8430   -4.2830 C   0  0  2  0  0  0  0  0  0  0  0  0
   -0.6830    9.8990   -5.7830 C   0  0  1  0  0  0  0  0  0  0  0  0
   -0.8500    8.4660   -6.3150 C   0  0  0  0  0  0  0  0  0  0  0  0
    0.0420   10.6730   -6.8880 C   0  0  2  0  0  0  0  0  0  0  0  0
    0.6070   12.2320   -2.6420 S   0  0  0  0  0  0  0  0  0  0  0  0
    0.3970   12.6350   -5.3930 N   0  0  0  0  0  0  0  0  0  0  0  0
    0.8590   11.8700   -6.4090 C   0  0  0  0  0  0  0  0  0  0  0  0
   -0.3350    8.3440   -7.7530 C   0  0  0  0  0  0  0  0  0  0  0  0
   -0.7910   10.7830   -8.1760 C   0  0  0  0  0  0  0  0  0  0  0  0
    2.1860   12.4110   -2.8670 O   0  0  0  0  0  0  0  0  0  0  0  0
    0.2750   10.9980   -1.6720 O   0  0  0  0  0  0  0  0  0  0  0  0
   -0.0270   13.5850   -2.0760 O   0  0  0  0  0  0  0  0  0  0  0  0
    1.9690   12.1500   -6.8260 O   0  0  0  0  0  0  0  0  0  0  0  0
   -1.0930    9.3380   -8.6350 C   0  0  2  0  0  0  0  0  0  0  0  0
   -2.5770    8.9970   -8.5090 C   0  0  0  0  0  0  0  0  0  0  0  0
  1  2  1  0
  2  3  1  0
  1  4  1  0
  4  5  1  6
  4  6  1  0
  3  7  1  1
  3  8  1  0
  6  9  1  0
  8  9  1  0
  5 10  1  0
  6 11  1  6
  7 12  1  0
  7 13  1  0
  7 14  1  0
  9 15  2  0
 10 16  1  0
 11 16  1  0
 16 17  1  1
M  END
