diamond-x0895_0_A-diamond-x0685_0_A
     RDKit          3D

 11 11  0  0  0  0  0  0  0  0999 V2000
   -1.9740   14.4150    2.0380 O   0  0  0  0  0  0  0  0  0  0  0  0
   -2.9340   14.6020    1.3090 C   0  0  0  0  0  0  0  0  0  0  0  0
   -4.4180   15.0290    1.5750 C   0  0  2  0  0  0  0  0  0  0  0  0
   -2.8500   14.4730   -0.0510 N   0  0  0  0  0  0  0  0  0  0  0  0
   -5.3490   14.0500    2.1250 N   0  0  0  0  0  0  0  0  0  0  0  0
   -4.9780   15.1000    0.2210 N   0  0  0  0  0  0  0  0  0  0  0  0
   -3.8160   15.3290   -0.6190 C   0  0  2  0  0  0  0  0  0  0  0  0
   -3.9520   15.1140   -2.0760 C   0  0  0  0  0  0  0  0  0  0  0  0
   -6.6780   14.5820    2.4940 C   0  0  0  0  0  0  0  0  0  0  0  0
   -7.5730   13.4540    2.9860 C   0  0  0  0  0  0  0  0  0  0  0  0
   -3.9720   14.9630   -3.2290 N   0  0  0  0  0  0  0  0  0  0  0  0
  1  2  2  0
  2  3  1  0
  2  4  1  0
  3  5  1  1
  3  6  1  0
  4  7  1  0
  6  7  1  0
  7  8  1  6
  5  9  1  0
  9 10  1  0
  8 11  3  0
M  END
