diamond-x0334_0_A-diamond-x0516_0_A
     RDKit          3D

 18 19  0  0  0  0  0  0  0  0999 V2000
    4.3500   26.1150   17.2600 N   0  0  0  0  0  0  0  0  0  0  0  0
    5.7320   25.9960   16.8040 C   0  0  2  0  0  0  0  0  0  0  0  0
    5.7940   24.7670   15.9530 C   0  0  0  0  0  0  0  0  0  0  0  0
    3.3820   25.5880   16.3150 C   0  0  0  0  0  0  0  0  0  0  0  0
    6.7440   25.8670   17.9390 C   0  0  0  0  0  0  0  0  0  0  0  0
    2.0290   26.3060   16.0950 C   0  0  2  0  0  0  0  0  0  0  0  0
    8.0450   25.2440   17.4530 C   0  0  0  0  0  0  0  0  0  0  0  0
    1.2040   26.2800   17.3580 C   0  0  0  0  0  0  0  0  0  0  0  0
    1.2600   25.7340   14.8980 C   0  0  0  0  0  0  0  0  0  0  0  0
   -0.1340   26.1420   17.3750 C   0  0  0  0  0  0  0  0  0  0  0  0
   -0.2180   26.1070   14.8330 C   0  0  2  0  0  0  0  0  0  0  0  0
   -1.0210   25.9890   16.1450 C   0  0  2  0  0  0  0  0  0  0  0  0
   -0.9480   25.2800   13.9170 O   0  0  0  0  0  0  0  0  0  0  0  0
   -2.1940   26.8670   16.2030 N   0  0  0  0  0  0  0  0  0  0  0  0
   -1.5120   24.6630   16.0900 O   0  0  0  0  0  0  0  0  0  0  0  0
   -1.7950   24.4620   14.7100 C   0  0  0  0  0  0  0  0  0  0  0  0
   -3.1040   26.4690   17.2820 C   0  0  0  0  0  0  0  0  0  0  0  0
   -2.9540   26.7940   14.9500 C   0  0  0  0  0  0  0  0  0  0  0  0
  1  2  1  0
  2  3  1  6
  1  4  1  0
  2  5  1  0
  6  4  1  1
  5  7  1  0
  6  8  1  0
  6  9  1  0
  8 10  2  0
 11  9  1  1
 10 12  1  0
 11 12  1  0
 11 13  1  0
 12 14  1  6
 12 15  1  0
 13 16  1  0
 15 16  1  0
 14 17  1  0
 14 18  1  0
M  END
