diamond-x0900_1_A-mac-x0546
     RDKit          3D

 23 25  0  0  0  0  0  0  0  0999 V2000
   -0.9020    9.7530   -9.9380 O   0  0  0  0  0  0  0  0  0  0  0  0
   -1.0200    9.3850   -8.7840 C   0  0  0  0  0  0  0  0  0  0  0  0
   -0.0030    8.9190   -7.9880 N   0  0  0  0  0  0  0  0  0  0  0  0
   -2.2770    9.3580   -7.9550 C   0  0  0  0  0  0  0  0  0  0  0  0
   -1.7460    9.1180   -6.5450 C   0  0  0  0  0  0  0  0  0  0  0  0
   -0.2510    9.4120   -6.6670 C   0  0  2  0  0  0  0  0  0  0  0  0
    0.0890   10.9270   -6.5210 C   0  0  0  0  0  0  0  0  0  0  0  0
   -0.4100   11.7070   -5.2730 C   0  0  0  0  0  0  0  0  0  0  0  0
    0.6700   12.4120   -4.4020 C   0  0  2  0  0  0  0  0  0  0  0  0
    0.5090   11.9530   -2.9520 C   0  0  0  0  0  0  0  0  0  0  0  0
    0.8050   13.9180   -4.4320 C   0  0  0  0  0  0  0  0  0  0  0  0
    0.9300   12.6120   -2.0110 O   0  0  0  0  0  0  0  0  0  0  0  0
   -0.1250   10.7790   -2.7640 O   0  0  0  0  0  0  0  0  0  0  0  0
   -0.0780   14.7960   -5.2430 C   0  0  1  0  0  0  0  0  0  0  0  0
    1.6900   14.6990   -3.8030 C   0  0  0  0  0  0  0  0  0  0  0  0
   -1.5570   14.8770   -5.0850 C   0  0  0  0  0  0  0  0  0  0  0  0
    0.5180   16.1190   -4.8150 C   0  0  0  0  0  0  0  0  0  0  0  0
    1.5230   16.0370   -4.0270 N   0  0  0  0  0  0  0  0  0  0  0  0
   -2.1790   16.0630   -5.2240 C   0  0  0  0  0  0  0  0  0  0  0  0
   -0.0860   17.3640   -5.3160 C   0  0  0  0  0  0  0  0  0  0  0  0
   -3.5180   16.2610   -5.1430 O   0  0  0  0  0  0  0  0  0  0  0  0
   -1.4180   17.2860   -5.4980 C   0  0  0  0  0  0  0  0  0  0  0  0
   -4.3410   15.3060   -5.8200 C   0  0  0  0  0  0  0  0  0  0  0  0
  1  2  2  0
  2  3  1  0
  2  4  1  0
  4  5  1  0
  3  6  1  0
  5  6  1  0
  6  7  1  6
  7  8  1  0
  9  8  1  6
  9 10  1  0
  9 11  1  0
 10 12  2  0
 10 13  1  0
 11 14  1  0
 11 15  2  0
 14 16  1  1
 14 17  1  0
 15 18  1  0
 17 18  2  0
 16 19  2  0
 17 20  1  0
 19 21  1  0
 19 22  1  0
 20 22  2  0
 21 23  1  0
M  END
