diamond-x0933_0_A-diamond-x0689_0_A
     RDKit          3D

 14 15  0  0  0  0  0  0  0  0999 V2000
   -4.9630   14.8020    1.6250 N   0  0  0  0  0  0  0  0  0  0  0  0
   -3.7240   15.5230    1.5360 N   0  0  0  0  0  0  0  0  0  0  0  0
   -2.4840   14.9620    1.1260 C   0  0  0  0  0  0  0  0  0  0  0  0
   -5.2260   14.0170    0.4450 C   0  0  0  0  0  0  0  0  0  0  0  0
   -6.1880   14.8360   -0.2680 N   0  0  0  0  0  0  0  0  0  0  0  0
   -3.9890   13.9280   -0.2730 N   0  0  0  0  0  0  0  0  0  0  0  0
   -6.1230   14.9000   -1.7360 C   0  0  0  0  0  0  0  0  0  0  0  0
   -3.7820   15.0900   -1.1210 C   0  0  0  0  0  0  0  0  0  0  0  0
   -2.2470   14.8800   -0.1870 N   0  0  0  0  0  0  0  0  0  0  0  0
   -1.5930   14.5490    2.0360 N   0  0  0  0  0  0  0  0  0  0  0  0
   -4.7200   15.0340   -2.2890 C   0  0  0  0  0  0  0  0  0  0  0  0
   -1.0680   14.3730   -0.5880 C   0  0  0  0  0  0  0  0  0  0  0  0
   -0.4260   14.0520    1.5930 C   0  0  0  0  0  0  0  0  0  0  0  0
   -0.1050   13.9410    0.2690 C   0  0  0  0  0  0  0  0  0  0  0  0
  1  2  1  0
  2  3  1  0
  1  4  1  0
  4  5  1  0
  4  6  1  0
  5  7  1  0
  6  8  1  0
  3  9  2  0
  3 10  1  0
  7 11  1  0
  8 11  1  0
  9 12  1  0
 10 13  2  0
 12 14  2  0
 13 14  1  0
M  END
