diamond-x0592_0_A-mac-x0255
     RDKit          3D

 26 28  0  0  0  0  0  0  0  0999 V2000
   -2.9880   14.7190    1.4220 N   0  0  0  0  0  0  0  0  0  0  0  0
   -3.3870   14.7290    0.1120 C   0  0  0  0  0  0  0  0  0  0  0  0
   -2.5740   14.6230   -0.8550 N   0  0  0  0  0  0  0  0  0  0  0  0
   -4.8020   14.8380   -0.0760 C   0  0  0  0  0  0  0  0  0  0  0  0
   -1.1370   14.4290   -0.7590 C   0  0  0  0  0  0  0  0  0  0  0  0
   -5.5450   15.2660   -1.2010 C   0  0  0  0  0  0  0  0  0  0  0  0
   -5.7550   14.5180    0.8500 C   0  0  0  0  0  0  0  0  0  0  0  0
   -0.8620   13.1620   -1.5570 C   0  0  0  0  0  0  0  0  0  0  0  0
   -6.8670   15.2140   -0.9930 N   0  0  0  0  0  0  0  0  0  0  0  0
   -6.9570   14.7530    0.2680 N   0  0  0  0  0  0  0  0  0  0  0  0
   -8.2420   14.5450    0.9030 C   0  0  0  0  0  0  0  0  0  0  0  0
    0.4730   12.6820   -1.5400 O   0  0  0  0  0  0  0  0  0  0  0  0
   -8.0450   14.1110    2.3540 C   0  0  0  0  0  0  0  0  0  0  0  0
    0.7330   12.0170   -2.7070 C   0  0  0  0  0  0  0  0  0  0  0  0
   -7.2310   15.0440    3.0720 O   0  0  0  0  0  0  0  0  0  0  0  0
    0.4030   10.8540   -2.8880 O   0  0  0  0  0  0  0  0  0  0  0  0
    1.4590   12.8610   -3.7540 C   0  0  0  0  0  0  0  0  0  0  0  0
    0.7100   14.0960   -4.2130 C   0  0  0  0  0  0  0  0  0  0  0  0
    1.2430   15.3560   -4.4210 C   0  0  0  0  0  0  0  0  0  0  0  0
   -0.9680   14.0830   -4.5530 S   0  0  0  0  0  0  0  0  0  0  0  0
    0.2770   16.3190   -4.8590 C   0  0  0  0  0  0  0  0  0  0  0  0
   -0.9960   15.7550   -4.9730 C   0  0  0  0  0  0  0  0  0  0  0  0
    0.4370   17.6890   -5.1740 C   0  0  0  0  0  0  0  0  0  0  0  0
   -2.1080   16.5190   -5.3880 C   0  0  0  0  0  0  0  0  0  0  0  0
   -0.6550   18.4430   -5.5890 C   0  0  0  0  0  0  0  0  0  0  0  0
   -1.9070   17.8700   -5.6950 C   0  0  0  0  0  0  0  0  0  0  0  0
  1  2  1  0
  2  3  2  3
  2  4  1  0
  3  5  1  0
  4  6  1  0
  4  7  2  0
  5  8  1  0
  6  9  2  0
  7 10  1  0
  9 10  1  0
 10 11  1  0
  8 12  1  0
 11 13  1  0
 12 14  1  0
 13 15  1  0
 14 16  2  0
 14 17  1  0
 17 18  1  0
 18 19  2  0
 18 20  1  0
 19 21  1  0
 20 22  1  0
 21 22  2  0
 21 23  1  0
 22 24  1  0
 23 25  2  0
 24 26  2  0
 25 26  1  0
M  END
