diamond-x0685_1_A-mac-x0411
     RDKit          3D

 15 16  0  0  0  0  0  0  0  0999 V2000
   -2.4230   11.6740   -5.5260 N   0  0  0  0  0  0  0  0  0  0  0  0
   -1.6060   11.9980   -4.3490 C   0  0  0  0  0  0  0  0  0  0  0  0
   -0.0860   11.9270   -4.5800 C   0  0  1  0  0  0  0  0  0  0  0  0
   -1.5670   11.2110   -6.6090 C   0  0  1  0  0  0  0  0  0  0  0  0
   -0.6990   10.0770   -6.0930 C   0  0  2  0  0  0  0  0  0  0  0  0
   -2.4300   10.9060   -7.8290 C   0  0  0  0  0  0  0  0  0  0  0  0
    0.7150   11.9950   -2.9360 S   0  0  0  0  0  0  0  0  0  0  0  0
    0.3440   10.7300   -5.3290 O   0  0  0  0  0  0  0  0  0  0  0  0
   -0.2620    9.0210   -7.1810 C   0  0  2  0  0  0  0  0  0  0  0  0
   -1.6810   10.1530   -8.9090 C   0  0  0  0  0  0  0  0  0  0  0  0
    2.2800   12.2700   -3.1430 O   0  0  0  0  0  0  0  0  0  0  0  0
    0.4380   10.5460   -2.2910 O   0  0  0  0  0  0  0  0  0  0  0  0
    0.0630   13.1280   -2.0100 O   0  0  0  0  0  0  0  0  0  0  0  0
    1.2640    9.3900   -8.0080 Cl  0  0  0  0  0  0  0  0  0  0  0  0
   -1.2420    8.8240   -8.3460 C   0  0  0  0  0  0  0  0  0  0  0  0
  1  2  1  0
  2  3  1  0
  1  4  1  0
  4  5  1  0
  4  6  1  6
  3  7  1  1
  3  8  1  0
  5  8  1  6
  5  9  1  0
  6 10  1  0
  7 11  1  0
  7 12  1  0
  7 13  1  0
  9 14  1  6
  9 15  1  0
 10 15  1  0
M  END
