diamond-x1012_0_A-mac-x0142
     RDKit          3D

 22 25  0  0  0  0  0  0  0  0999 V2000
   -0.3230   18.4120   -5.0580 N   0  0  0  0  0  0  0  0  0  0  0  0
   -1.2380   17.3740   -4.8200 C   0  0  0  0  0  0  0  0  0  0  0  0
   -2.4480   17.6560   -4.8500 O   0  0  0  0  0  0  0  0  0  0  0  0
   -0.8180   16.1100   -4.5410 N   0  0  0  0  0  0  0  0  0  0  0  0
   -1.4720   15.2310   -3.6760 C   0  0  0  0  0  0  0  0  0  0  0  0
    0.5500   15.7410   -4.6690 C   0  0  0  0  0  0  0  0  0  0  0  0
   -0.7610   14.5470   -2.5670 C   0  0  1  0  0  0  0  0  0  0  0  0
    1.0010   15.2810   -3.2810 C   0  0  0  0  0  0  0  0  0  0  0  0
    0.5490   13.5110   -3.2870 S   0  0  0  0  0  0  0  0  0  0  0  0
   -0.0760   15.3390   -1.5550 N   0  0  0  0  0  0  0  0  0  0  0  0
   -2.0480   14.1850   -1.6770 C   0  0  1  0  0  0  0  0  0  0  0  0
    0.4050   12.1040   -1.9470 C   0  0  0  0  0  0  0  0  0  0  0  0
    1.3940   12.9060   -4.8590 C   0  0  0  0  0  0  0  0  0  0  0  0
    0.0500   12.7200   -4.8740 C   0  0  0  0  0  0  0  0  0  0  0  0
    0.2030   14.8880   -0.2420 C   0  0  0  0  0  0  0  0  0  0  0  0
   -2.0260   14.2910   -0.1700 C   0  0  1  0  0  0  0  0  0  0  0  0
   -3.2570   14.9900   -1.9580 C   0  0  0  0  0  0  0  0  0  0  0  0
    0.3900   10.7990   -2.2240 O   0  0  0  0  0  0  0  0  0  0  0  0
    0.2990   12.2760   -0.8180 O   0  0  0  0  0  0  0  0  0  0  0  0
   -0.9630   14.8640    0.5130 N   0  0  0  0  0  0  0  0  0  0  0  0
   -3.2550   14.9340    0.3220 N   0  0  0  0  0  0  0  0  0  0  0  0
   -3.8920   15.3830   -0.8530 C   0  0  0  0  0  0  0  0  0  0  0  0
  1  2  1  0
  2  3  2  0
  2  4  1  0
  4  5  1  0
  4  6  1  0
  7  5  1  6
  6  8  1  0
  7  9  1  0
  8  9  1  0
  7 10  1  0
  7 11  1  0
  9 12  1  0
  9 13  1  0
  9 14  1  0
 13 14  1  0
 10 15  1  0
 11 16  1  0
 11 17  1  6
 12 18  1  0
 12 19  2  0
 15 20  1  0
 16 20  1  6
 16 21  1  0
 17 22  2  0
 21 22  1  0
M  END
