diamond-x0290_0_A-diamond-x0689_0_A
     RDKit          3D

 13 13  0  0  0  0  0  0  0  0999 V2000
   -7.7570   13.8140    0.9320 N   0  0  0  0  0  0  0  0  0  0  0  0
   -8.6020   14.9760    0.6920 C   0  0  0  0  0  0  0  0  0  0  0  0
   -6.5570   14.1540    1.7310 C   0  0  0  0  0  0  0  0  0  0  0  0
   -5.3430   14.4520    0.8440 C   0  0  0  0  0  0  0  0  0  0  0  0
   -5.4520   14.4830   -0.3880 O   0  0  0  0  0  0  0  0  0  0  0  0
   -4.1130   14.6750    1.3780 N   0  0  0  0  0  0  0  0  0  0  0  0
   -2.8370   14.6400    0.8220 C   0  0  0  0  0  0  0  0  0  0  0  0
   -1.8240   14.5690    1.7240 N   0  0  0  0  0  0  0  0  0  0  0  0
   -2.5970   14.6680   -0.5380 C   0  0  0  0  0  0  0  0  0  0  0  0
   -0.5600   14.5260    1.2480 C   0  0  0  0  0  0  0  0  0  0  0  0
   -1.2830   14.6210   -1.0130 C   0  0  0  0  0  0  0  0  0  0  0  0
   -1.0150   14.6460   -2.4890 C   0  0  0  0  0  0  0  0  0  0  0  0
   -0.2410   14.5500   -0.0940 C   0  0  0  0  0  0  0  0  0  0  0  0
  1  2  1  0
  1  3  1  0
  3  4  1  0
  4  5  2  0
  4  6  1  0
  6  7  1  0
  7  8  2  0
  7  9  1  0
  8 10  1  0
  9 11  2  0
 11 12  1  0
 10 13  2  0
 11 13  1  0
M  END
