diamond-x0950_1_A-mac-x0333
     RDKit          3D

 19 20  0  0  0  0  0  0  0  0999 V2000
    1.0700   13.9490   -4.9430 C   0  0  0  0  0  0  0  0  0  0  0  0
    1.3790   12.5160   -4.5420 C   0  0  2  0  0  0  0  0  0  0  0  0
    0.7130   11.6730   -5.4840 O   0  0  0  0  0  0  0  0  0  0  0  0
    0.9690   12.1370   -3.1060 C   0  0  0  0  0  0  0  0  0  0  0  0
    0.1110   11.2940   -2.8550 O   0  0  0  0  0  0  0  0  0  0  0  0
    1.6760   12.8130   -2.1590 O   0  0  0  0  0  0  0  0  0  0  0  0
    1.4500   14.2320   -2.0600 C   0  0  0  0  0  0  0  0  0  0  0  0
    0.1180   14.6070   -2.7020 C   0  0  0  0  0  0  0  0  0  0  0  0
   -1.0490   14.5430   -1.7290 C   0  0  0  0  0  0  0  0  0  0  0  0
   -2.2250   15.0890   -2.3430 O   0  0  0  0  0  0  0  0  0  0  0  0
   -3.3310   15.0570   -1.5440 C   0  0  0  0  0  0  0  0  0  0  0  0
   -4.6690   15.0550   -1.9500 C   0  0  0  0  0  0  0  0  0  0  0  0
   -3.0150   15.0210   -0.1690 C   0  0  0  0  0  0  0  0  0  0  0  0
   -5.6290   15.0070   -0.9620 C   0  0  0  0  0  0  0  0  0  0  0  0
   -4.0000   14.9770    0.8040 C   0  0  0  0  0  0  0  0  0  0  0  0
   -5.3020   14.9680    0.3740 C   0  0  0  0  0  0  0  0  0  0  0  0
   -6.9760   14.9900   -1.1490 O   0  0  0  0  0  0  0  0  0  0  0  0
   -6.4040   14.9180    1.1660 O   0  0  0  0  0  0  0  0  0  0  0  0
   -7.4090   14.6430    0.1780 C   0  0  0  0  0  0  0  0  0  0  0  0
  2  1  1  6
  2  3  1  0
  2  4  1  0
  4  5  2  0
  4  6  1  0
  6  7  1  0
  7  8  1  0
  8  9  1  0
  9 10  1  0
 10 11  1  0
 11 12  2  0
 11 13  1  0
 12 14  1  0
 13 15  2  0
 14 16  2  0
 15 16  1  0
 14 17  1  0
 16 18  1  0
 17 19  1  0
 18 19  1  0
M  END
