diamond-x0962_2_B-mac-x0228
     RDKit          3D

 21 23  0  0  0  0  0  0  0  0999 V2000
  -10.6240   16.6820    1.5420 N   0  0  0  0  0  0  0  0  0  0  0  0
  -10.4000   15.3220    2.0060 C   0  0  1  0  0  0  0  0  0  0  0  0
   -9.7230   14.5140    0.9170 C   0  0  0  0  0  0  0  0  0  0  0  0
   -9.4560   15.3150    3.1510 C   0  0  0  0  0  0  0  0  0  0  0  0
   -8.2950   15.0330    0.8490 C   0  0  0  0  0  0  0  0  0  0  0  0
   -9.2120   16.3740    3.9920 N   0  0  0  0  0  0  0  0  0  0  0  0
   -8.6410   14.3090    3.6170 C   0  0  0  0  0  0  0  0  0  0  0  0
   -8.2820   15.9560    4.9030 C   0  0  0  0  0  0  0  0  0  0  0  0
   -7.9250   14.7120    4.7000 N   0  0  0  0  0  0  0  0  0  0  0  0
   -7.1870   14.2180    0.2200 C   0  0  1  0  0  0  0  0  0  0  0  0
   -7.2270   14.7720   -1.1060 O   0  0  0  0  0  0  0  0  0  0  0  0
   -5.7510   14.4040    0.7820 C   0  0  0  0  0  0  0  0  0  0  0  0
   -5.0190   14.5730   -0.5020 C   0  0  0  0  0  0  0  0  0  0  0  0
   -5.9430   14.7800   -1.5080 C   0  0  0  0  0  0  0  0  0  0  0  0
   -3.6610   14.5460   -0.8000 C   0  0  0  0  0  0  0  0  0  0  0  0
   -5.6010   14.9720   -2.8100 C   0  0  0  0  0  0  0  0  0  0  0  0
   -3.2910   14.7360   -2.1490 C   0  0  0  0  0  0  0  0  0  0  0  0
   -4.2620   14.9510   -3.1400 C   0  0  0  0  0  0  0  0  0  0  0  0
   -1.8740   14.7070   -2.5630 C   0  0  0  0  0  0  0  0  0  0  0  0
   -1.0050   14.5660   -1.5440 O   0  0  0  0  0  0  0  0  0  0  0  0
   -1.5360   14.7980   -3.7300 O   0  0  0  0  0  0  0  0  0  0  0  0
  2  1  1  6
  2  3  1  0
  2  4  1  0
  3  5  1  0
  4  6  1  0
  4  7  2  0
  6  8  1  0
  7  9  1  0
  8  9  2  0
 10  5  1  1
 10 11  1  0
 10 12  1  0
 12 13  1  0
 11 14  1  0
 13 14  2  0
 13 15  1  0
 14 16  1  0
 15 17  2  0
 16 18  2  0
 17 18  1  0
 17 19  1  0
 19 20  1  0
 19 21  2  0
M  END
