diamond-x0465_0_A-diamond-x0962_3_A
     RDKit          3D

 19 20  0  0  0  0  0  0  0  0999 V2000
    2.3300   13.1310   -4.7950 C   0  0  0  0  0  0  0  0  0  0  0  0
    0.9320   12.5720   -4.5680 C   0  0  1  0  0  0  0  0  0  0  0  0
    0.4830   11.5580   -5.5710 N   0  0  0  0  0  0  0  0  0  0  0  0
    0.8220   12.1370   -3.0940 C   0  0  0  0  0  0  0  0  0  0  0  0
    1.0800   12.8240   -2.1180 O   0  0  0  0  0  0  0  0  0  0  0  0
    0.4030   10.8660   -2.9130 O   0  0  0  0  0  0  0  0  0  0  0  0
   -0.7610   10.9220   -5.4610 C   0  0  0  0  0  0  0  0  0  0  0  0
    1.2280   11.4280   -6.8180 C   0  0  0  0  0  0  0  0  0  0  0  0
   -1.2660    9.9180   -6.3190 C   0  0  0  0  0  0  0  0  0  0  0  0
   -1.6170   11.2970   -4.4080 C   0  0  0  0  0  0  0  0  0  0  0  0
    0.5690   11.5180   -8.1010 N   0  0  0  0  0  0  0  0  0  0  0  0
   -2.5320    9.3590   -6.0920 C   0  0  0  0  0  0  0  0  0  0  0  0
   -2.8780   10.7240   -4.2080 C   0  0  0  0  0  0  0  0  0  0  0  0
   -0.7550    9.2460   -7.5190 C   0  0  2  0  0  0  0  0  0  0  0  0
   -3.3350    9.7470   -5.0570 C   0  0  0  0  0  0  0  0  0  0  0  0
    0.6100    8.8960   -7.7600 N   0  0  0  0  0  0  0  0  0  0  0  0
   -1.1710    9.6600   -8.8730 C   0  0  0  0  0  0  0  0  0  0  0  0
    0.3170    7.8820   -8.7590 C   0  0  0  0  0  0  0  0  0  0  0  0
   -0.8840    8.3580   -9.4760 N   0  0  0  0  0  0  0  0  0  0  0  0
  2  1  1  6
  2  3  1  0
  2  4  1  0
  4  5  2  0
  4  6  1  0
  3  7  1  0
  3  8  1  0
  7  9  2  0
  7 10  1  0
  8 11  1  0
  9 12  1  0
 10 13  2  0
 14  9  1  1
 12 15  2  0
 13 15  1  0
 14 16  1  0
 14 17  1  0
 16 18  1  0
 17 19  1  0
 18 19  1  0
M  END
