diamond-x0574_0_A-mac-x0319
     RDKit          3D

 25 27  0  0  0  0  0  0  0  0999 V2000
   -0.1140   14.1470    1.9510 N   0  0  0  0  0  0  0  0  0  0  0  0
   -0.5190   14.2410    0.5690 C   0  0  1  0  0  0  0  0  0  0  0  0
   -1.4880   13.2870    0.0940 N   0  0  0  0  0  0  0  0  0  0  0  0
   -1.2940   15.8320    0.2240 S   0  0  0  0  0  0  0  0  0  0  0  0
   -1.3400   13.0920   -1.3610 C   0  0  0  0  0  0  0  0  0  0  0  0
   -2.8430   13.8050    0.1730 C   0  0  2  0  0  0  0  0  0  0  0  0
   -2.6070   15.0010   -0.7050 C   0  0  1  0  0  0  0  0  0  0  0  0
   -0.7530   11.8160   -1.9790 C   0  0  0  0  0  0  0  0  0  0  0  0
   -3.6870   14.1610    1.4070 C   0  0  0  0  0  0  0  0  0  0  0  0
   -3.8610   15.7100   -0.9980 C   0  0  0  0  0  0  0  0  0  0  0  0
    0.6770   11.8180   -1.8690 N   0  0  0  0  0  0  0  0  0  0  0  0
   -5.0840   14.5410    0.8500 C   0  0  2  0  0  0  0  0  0  0  0  0
   -4.9820   15.5030   -0.3060 C   0  0  0  0  0  0  0  0  0  0  0  0
   -5.9010   15.1920    1.8080 O   0  0  0  0  0  0  0  0  0  0  0  0
    1.3480   12.1110   -2.9210 C   0  0  0  0  0  0  0  0  0  0  0  0
   -6.9690   14.4110    2.3170 C   0  0  0  0  0  0  0  0  0  0  0  0
    2.6580   12.1010   -2.7940 O   0  0  0  0  0  0  0  0  0  0  0  0
    0.9550   12.4800   -4.3130 C   0  0  0  0  0  0  0  0  0  0  0  0
    0.3420   13.8500   -4.3940 C   0  0  0  0  0  0  0  0  0  0  0  0
    1.1540   14.9930   -4.2420 C   0  0  0  0  0  0  0  0  0  0  0  0
   -1.0300   14.0160   -4.6130 C   0  0  0  0  0  0  0  0  0  0  0  0
    0.5730   16.2620   -4.3080 C   0  0  0  0  0  0  0  0  0  0  0  0
   -1.5930   15.2870   -4.6780 C   0  0  0  0  0  0  0  0  0  0  0  0
    1.2910   17.4070   -4.1630 O   0  0  0  0  0  0  0  0  0  0  0  0
   -0.7900   16.4110   -4.5250 C   0  0  0  0  0  0  0  0  0  0  0  0
  2  1  1  1
  2  3  1  0
  2  4  1  0
  3  5  1  0
  3  6  1  0
  4  7  1  0
  6  7  1  0
  5  8  1  0
  6  9  1  1
  7 10  1  1
  8 11  1  0
  9 12  1  0
 10 13  2  0
 12 13  1  0
 12 14  1  1
 11 15  2  3
 14 16  1  0
 15 17  1  0
 15 18  1  0
 18 19  1  0
 19 20  2  0
 19 21  1  0
 20 22  1  0
 21 23  2  0
 22 24  1  0
 22 25  2  0
 23 25  1  0
M  END
