diamond-x0465_0_A-mac-x0392
     RDKit          3D

 24 25  0  0  0  0  0  0  0  0999 V2000
    2.1450   13.0880   -4.9090 C   0  0  0  0  0  0  0  0  0  0  0  0
    0.7800   12.4740   -4.6120 C   0  0  1  0  0  0  0  0  0  0  0  0
    0.6000   11.4160   -5.5550 O   0  0  0  0  0  0  0  0  0  0  0  0
    0.7380   12.0150   -3.1430 C   0  0  0  0  0  0  0  0  0  0  0  0
    0.9830   12.7900   -2.1510 N   0  0  0  0  0  0  0  0  0  0  0  0
    0.4220   10.7060   -2.9950 O   0  0  0  0  0  0  0  0  0  0  0  0
   -0.6130   10.7910   -5.6550 C   0  0  0  0  0  0  0  0  0  0  0  0
    1.3280   14.1960   -2.3300 C   0  0  0  0  0  0  0  0  0  0  0  0
   -0.6930    9.7490   -6.5890 C   0  0  0  0  0  0  0  0  0  0  0  0
   -1.7510   11.1070   -4.9110 C   0  0  0  0  0  0  0  0  0  0  0  0
    0.3730    9.4110   -7.3310 F   0  0  0  0  0  0  0  0  0  0  0  0
    0.2330   15.1270   -2.3440 O   0  0  0  0  0  0  0  0  0  0  0  0
   -1.8710    9.0340   -6.7790 C   0  0  0  0  0  0  0  0  0  0  0  0
   -2.9390   10.3910   -5.1020 C   0  0  0  0  0  0  0  0  0  0  0  0
   -1.0330   14.6630   -2.5180 C   0  0  0  0  0  0  0  0  0  0  0  0
   -3.0000    9.3550   -6.0340 C   0  0  0  0  0  0  0  0  0  0  0  0
   -1.5310   14.3000   -3.5670 O   0  0  0  0  0  0  0  0  0  0  0  0
   -1.7540   14.6830   -1.2200 C   0  0  0  0  0  0  0  0  0  0  0  0
   -1.1530   14.3670    0.0090 C   0  0  0  0  0  0  0  0  0  0  0  0
   -3.1080   15.0500   -1.2770 C   0  0  0  0  0  0  0  0  0  0  0  0
    0.1900   13.9870    0.1490 N   0  0  0  0  0  0  0  0  0  0  0  0
   -3.8220   15.0980   -0.0980 C   0  0  0  0  0  0  0  0  0  0  0  0
   -1.9800   14.4500    1.1190 C   0  0  0  0  0  0  0  0  0  0  0  0
   -3.2850   14.8070    1.1010 N   0  0  0  0  0  0  0  0  0  0  0  0
  2  1  1  6
  2  3  1  0
  2  4  1  0
  4  5  2  3
  4  6  1  0
  3  7  1  0
  5  8  1  0
  7  9  2  0
  7 10  1  0
  9 11  1  0
  8 12  1  0
  9 13  1  0
 10 14  2  0
 12 15  1  0
 13 16  2  0
 14 16  1  0
 15 17  2  0
 15 18  1  0
 18 19  2  0
 18 20  1  0
 19 21  1  0
 20 22  2  0
 19 23  1  0
 22 24  1  0
 23 24  2  0
M  END
