diamond-x0950_0_A-mac-x0357
     RDKit          3D

 14 15  0  0  0  0  0  0  0  0999 V2000
    2.2410   12.7000   -4.5150 C   0  0  0  0  0  0  0  0  0  0  0  0
    1.5750   13.8350   -3.8590 C   0  0  1  0  0  0  0  0  0  0  0  0
    0.9960   14.4510   -4.9400 O   0  0  0  0  0  0  0  0  0  0  0  0
    0.9340   12.1930   -5.0420 C   0  0  0  0  0  0  0  0  0  0  0  0
    0.6360   13.1420   -2.7010 S   0  0  0  0  0  0  0  0  0  0  0  0
   -0.0970   12.3640   -4.0880 C   0  0  0  0  0  0  0  0  0  0  0  0
    0.6990   11.6370   -6.2600 C   0  0  0  0  0  0  0  0  0  0  0  0
    0.9200   11.2150   -2.6180 O   0  0  0  0  0  0  0  0  0  0  0  0
    1.5330   13.0290   -1.7020 O   0  0  0  0  0  0  0  0  0  0  0  0
   -0.5480   13.5670   -2.0030 O   0  0  0  0  0  0  0  0  0  0  0  0
    1.7030   11.5050   -7.1670 O   0  0  0  0  0  0  0  0  0  0  0  0
   -1.3250   11.9090   -4.4720 C   0  0  0  0  0  0  0  0  0  0  0  0
   -0.5490   11.2090   -6.5710 C   0  0  0  0  0  0  0  0  0  0  0  0
   -1.5640   11.3410   -5.6760 C   0  0  0  0  0  0  0  0  0  0  0  0
  1  2  1  0
  2  3  1  6
  1  4  1  0
  2  5  1  0
  4  6  2  0
  5  6  1  0
  4  7  1  0
  5  8  2  0
  5  9  1  0
  5 10  1  0
  7 11  1  0
  6 12  1  0
  7 13  2  0
 12 14  2  0
 13 14  1  0
M  END
