diamond-x0626_0_A-mac-x0357
     RDKit          3D

 24 25  0  0  0  0  0  0  0  0999 V2000
   -5.0560   14.9330    1.4730 N   0  0  0  0  0  0  0  0  0  0  0  0
   -6.2140   14.6970    0.8040 C   0  0  0  0  0  0  0  0  0  0  0  0
   -6.2260   14.8020   -0.4280 O   0  0  0  0  0  0  0  0  0  0  0  0
   -3.8220   14.8030    0.9460 C   0  0  0  0  0  0  0  0  0  0  0  0
   -7.4530   14.3200    1.5900 C   0  0  0  0  0  0  0  0  0  0  0  0
   -2.6850   14.6080    1.5700 N   0  0  0  0  0  0  0  0  0  0  0  0
   -3.7830   14.9060   -0.7570 S   0  0  0  0  0  0  0  0  0  0  0  0
   -8.7260   14.6120    0.8130 C   0  0  0  0  0  0  0  0  0  0  0  0
   -2.1000   14.6530   -0.6820 C   0  0  0  0  0  0  0  0  0  0  0  0
   -1.7040   14.5180    0.6320 C   0  0  0  0  0  0  0  0  0  0  0  0
   -0.3290   14.2980    1.0780 C   0  0  0  0  0  0  0  0  0  0  0  0
    0.4880   15.2030    0.2170 C   0  0  0  0  0  0  0  0  0  0  0  0
    1.1090   14.4660   -0.9510 C   0  0  0  0  0  0  0  0  0  0  0  0
    0.3090   14.3390   -2.1730 N   0  0  0  0  0  0  0  0  0  0  0  0
    0.5840   13.2480   -2.7660 C   0  0  0  0  0  0  0  0  0  0  0  0
    1.4800   12.4870   -2.1360 O   0  0  0  0  0  0  0  0  0  0  0  0
    0.2080   12.5650   -4.0000 C   0  0  0  0  0  0  0  0  0  0  0  0
    1.2060   12.4550   -4.9740 C   0  0  0  0  0  0  0  0  0  0  0  0
   -1.0750   12.0400   -4.1980 C   0  0  0  0  0  0  0  0  0  0  0  0
    2.5640   13.0360   -4.7100 C   0  0  0  0  0  0  0  0  0  0  0  0
   -1.3640   11.3880   -5.4010 C   0  0  0  0  0  0  0  0  0  0  0  0
    0.8980   11.7970   -6.1640 C   0  0  0  0  0  0  0  0  0  0  0  0
    1.8710   11.6720   -7.1150 O   0  0  0  0  0  0  0  0  0  0  0  0
   -0.3750   11.2660   -6.3840 C   0  0  0  0  0  0  0  0  0  0  0  0
  1  2  1  0
  2  3  2  0
  1  4  1  0
  2  5  1  0
  4  6  2  0
  4  7  1  0
  5  8  1  0
  7  9  1  0
  6 10  1  0
  9 10  2  0
 10 11  1  0
 11 12  1  0
 12 13  1  0
 13 14  1  0
 14 15  2  3
 15 16  1  0
 15 17  1  0
 17 18  2  0
 17 19  1  0
 18 20  1  0
 19 21  2  0
 18 22  1  0
 22 23  1  0
 21 24  1  0
 22 24  2  0
M  END
