diamond-x0628_0_A-diamond-x0290_0_A
     RDKit          3D

 26 27  0  0  0  0  0  0  0  0999 V2000
   -1.0240    9.1600   -7.2780 C   0  0  0  0  0  0  0  0  0  0  0  0
   -0.9540   10.3170   -6.3670 C   0  0  0  0  0  0  0  0  0  0  0  0
   -1.8380   10.5140   -5.3390 N   0  0  0  0  0  0  0  0  0  0  0  0
   -0.0190   11.2600   -6.4730 N   0  0  0  0  0  0  0  0  0  0  0  0
   -0.3300   12.0890   -5.4550 N   0  0  0  0  0  0  0  0  0  0  0  0
   -1.4360   11.6390   -4.7610 C   0  0  0  0  0  0  0  0  0  0  0  0
   -2.0780   12.2900   -3.5540 C   0  0  0  0  0  0  0  0  0  0  0  0
    0.5000   13.2580   -5.2560 C   0  0  0  0  0  0  0  0  0  0  0  0
    1.6810   13.0000   -4.3300 C   0  0  0  0  0  0  0  0  0  0  0  0
   -2.0660   13.8390   -3.5140 C   0  0  0  0  0  0  0  0  0  0  0  0
    1.2700   12.2680   -3.0790 C   0  0  0  0  0  0  0  0  0  0  0  0
   -1.0020   14.4700   -2.5820 C   0  0  0  0  0  0  0  0  0  0  0  0
    0.5850   11.2570   -2.9970 O   0  0  0  0  0  0  0  0  0  0  0  0
    1.7640   12.8820   -1.9930 O   0  0  0  0  0  0  0  0  0  0  0  0
   -1.3180   14.5090   -1.0870 C   0  0  0  0  0  0  0  0  0  0  0  0
   -0.2800   14.4850   -0.1490 C   0  0  0  0  0  0  0  0  0  0  0  0
   -2.6320   14.5710   -0.6020 C   0  0  0  0  0  0  0  0  0  0  0  0
   -0.5910   14.5170    1.1990 C   0  0  0  0  0  0  0  0  0  0  0  0
   -2.8650   14.6010    0.7730 C   0  0  0  0  0  0  0  0  0  0  0  0
   -4.1340   14.6580    1.3350 N   0  0  0  0  0  0  0  0  0  0  0  0
   -1.8530   14.5720    1.6780 N   0  0  0  0  0  0  0  0  0  0  0  0
   -5.3780   14.4440    0.8190 C   0  0  0  0  0  0  0  0  0  0  0  0
   -5.5010   14.5650   -0.4050 O   0  0  0  0  0  0  0  0  0  0  0  0
   -6.5610   14.0550    1.7070 C   0  0  0  0  0  0  0  0  0  0  0  0
   -7.8450   13.7820    0.9980 N   0  0  0  0  0  0  0  0  0  0  0  0
   -8.5970   14.9930    0.6740 C   0  0  0  0  0  0  0  0  0  0  0  0
  1  2  1  0
  2  3  1  0
  2  4  2  0
  4  5  1  0
  3  6  2  0
  5  6  1  0
  6  7  1  0
  5  8  1  0
  8  9  1  0
  7 10  1  0
  9 11  1  0
 10 12  1  0
 11 13  2  0
 11 14  1  0
 12 15  1  0
 15 16  2  0
 15 17  1  0
 16 18  1  0
 17 19  2  0
 19 20  1  0
 18 21  2  0
 19 21  1  0
 20 22  1  0
 22 23  2  0
 22 24  1  0
 24 25  1  0
 25 26  1  0
M  END
