diamond-x0524_0_A-diamond-x0159_0_B
     RDKit          3D

 29 32  0  0  0  0  0  0  0  0999 V2000
   -1.5830    8.3120   -9.1650 N   0  0  0  0  0  0  0  0  0  0  0  0
   -1.3410    8.9340   -7.9350 C   0  0  0  0  0  0  0  0  0  0  0  0
   -1.3400    7.9710   -6.7680 C   0  0  0  0  0  0  0  0  0  0  0  0
   -0.7120    8.2580  -10.2860 C   0  0  0  0  0  0  0  0  0  0  0  0
   -1.1390   10.1290   -7.7330 O   0  0  0  0  0  0  0  0  0  0  0  0
   -0.0250    7.1230  -10.7200 C   0  0  0  0  0  0  0  0  0  0  0  0
   -0.5230    9.4360  -11.0140 C   0  0  0  0  0  0  0  0  0  0  0  0
    0.8430    7.1700  -11.8410 C   0  0  0  0  0  0  0  0  0  0  0  0
    0.3350    9.4780  -12.1260 C   0  0  0  0  0  0  0  0  0  0  0  0
    1.0560    8.3510  -12.5690 C   0  0  0  0  0  0  0  0  0  0  0  0
    1.9460    8.4970  -13.6680 N   0  0  0  0  0  0  0  0  0  0  0  0
    3.0990    9.1390  -13.0580 C   0  0  2  0  0  0  0  0  0  0  0  0
    2.6570   10.5430  -12.7850 C   0  0  0  0  0  0  0  0  0  0  0  0
    4.3670    9.1330  -13.8690 C   0  0  0  0  0  0  0  0  0  0  0  0
    3.0540    8.5080  -11.7720 N   0  0  0  0  0  0  0  0  0  0  0  0
    2.8190   11.6000  -13.7990 C   0  0  0  0  0  0  0  0  0  0  0  0
    4.6960   10.2040  -14.6200 C   0  0  0  0  0  0  0  0  0  0  0  0
    2.1150   10.6190  -11.6220 N   0  0  0  0  0  0  0  0  0  0  0  0
    2.3680    9.3640  -11.0810 C   0  0  0  0  0  0  0  0  0  0  0  0
    1.9310    9.0960   -9.8390 N   0  0  0  0  0  0  0  0  0  0  0  0
    3.8340   11.3850  -14.6680 C   0  0  0  0  0  0  0  0  0  0  0  0
    2.3230    7.8950   -9.1360 C   0  0  0  0  0  0  0  0  0  0  0  0
    1.9590    6.5820   -9.8050 C   0  0  0  0  0  0  0  0  0  0  0  0
    1.5570    5.4850   -8.8560 C   0  0  0  0  0  0  0  0  0  0  0  0
    1.5100    4.1710   -9.3210 C   0  0  0  0  0  0  0  0  0  0  0  0
    1.2260    5.7470   -7.5170 C   0  0  0  0  0  0  0  0  0  0  0  0
    1.1360    3.1380   -8.4740 C   0  0  0  0  0  0  0  0  0  0  0  0
    0.8540    4.7080   -6.6710 C   0  0  0  0  0  0  0  0  0  0  0  0
    0.8080    3.4080   -7.1580 C   0  0  0  0  0  0  0  0  0  0  0  0
  1  2  1  0
  2  3  1  0
  1  4  1  0
  2  5  2  0
  4  6  2  0
  4  7  1  0
  6  8  1  0
  7  9  2  0
  8 10  2  0
  9 10  1  0
 10 11  1  0
 12 11  1  6
 12 13  1  0
 12 14  1  0
 12 15  1  0
 13 16  1  0
 14 17  2  0
 13 18  2  0
 15 19  2  0
 18 19  1  0
 19 20  1  0
 16 21  2  0
 17 21  1  0
 20 22  1  0
 22 23  1  0
 23 24  1  0
 24 25  2  0
 24 26  1  0
 25 27  1  0
 26 28  2  0
 27 29  2  0
 28 29  1  0
M  END
