diamond-x1012_0_A-mac-x0271
     RDKit          3D

 25 27  0  0  0  0  0  0  0  0999 V2000
   -0.8550   17.9580   -5.2280 N   0  0  0  0  0  0  0  0  0  0  0  0
   -1.4960   16.8210   -4.8590 C   0  0  0  0  0  0  0  0  0  0  0  0
   -2.7100   16.9000   -4.4710 N   0  0  0  0  0  0  0  0  0  0  0  0
   -0.7060   15.7180   -4.9520 N   0  0  0  0  0  0  0  0  0  0  0  0
   -3.3580   15.6360   -4.0510 C   0  0  0  0  0  0  0  0  0  0  0  0
   -1.3040   14.4010   -5.1950 C   0  0  0  0  0  0  0  0  0  0  0  0
    0.7270   15.7680   -4.6310 C   0  0  0  0  0  0  0  0  0  0  0  0
   -3.1380   15.2570   -2.6850 O   0  0  0  0  0  0  0  0  0  0  0  0
   -1.2380   13.5270   -3.9580 C   0  0  0  0  0  0  0  0  0  0  0  0
    1.1650   14.4570   -3.9930 C   0  0  0  0  0  0  0  0  0  0  0  0
    0.0260   13.8280   -3.1580 C   0  0  0  0  0  0  0  0  0  0  0  0
   -4.1050   15.1600   -1.7050 C   0  0  0  0  0  0  0  0  0  0  0  0
    0.5020   12.5800   -2.4610 C   0  0  0  0  0  0  0  0  0  0  0  0
   -5.5100   15.1390   -1.7930 C   0  0  0  0  0  0  0  0  0  0  0  0
   -3.5070   15.0660   -0.4440 C   0  0  0  0  0  0  0  0  0  0  0  0
    0.0960   11.4070   -3.0020 O   0  0  0  0  0  0  0  0  0  0  0  0
    1.1920   12.6120   -1.4860 O   0  0  0  0  0  0  0  0  0  0  0  0
   -6.2580   15.0150   -0.6000 C   0  0  0  0  0  0  0  0  0  0  0  0
   -4.2530   14.9470    0.7220 C   0  0  0  0  0  0  0  0  0  0  0  0
   -5.6360   14.9170    0.6460 C   0  0  0  0  0  0  0  0  0  0  0  0
   -7.6750   14.9860   -0.6790 O   0  0  0  0  0  0  0  0  0  0  0  0
   -6.4450   14.7830    1.8460 C   0  0  0  0  0  0  0  0  0  0  0  0
   -8.4710   14.8920    0.4670 C   0  0  0  0  0  0  0  0  0  0  0  0
   -9.6970   14.9190    0.4350 O   0  0  0  0  0  0  0  0  0  0  0  0
   -7.7750   14.7670    1.7570 C   0  0  0  0  0  0  0  0  0  0  0  0
  1  2  1  0
  2  3  2  3
  2  4  1  0
  3  5  1  0
  4  6  1  0
  4  7  1  0
  5  8  1  0
  6  9  1  0
  7 10  1  0
  9 11  1  0
 10 11  1  0
  8 12  1  0
 11 13  1  0
 12 14  2  0
 12 15  1  0
 13 16  1  0
 13 17  2  0
 14 18  1  0
 15 19  2  0
 18 20  2  0
 19 20  1  0
 18 21  1  0
 20 22  1  0
 21 23  1  0
 23 24  2  0
 22 25  2  0
 23 25  1  0
M  END
