diamond-x0631_0_A-diamond-x0685_1_A
     RDKit          3D

 28 30  0  0  0  0  0  0  0  0999 V2000
   -2.3700    7.5010   -6.1240 C   0  0  0  0  0  0  0  0  0  0  0  0
   -0.8970    7.8580   -6.2510 C   0  0  0  0  0  0  0  0  0  0  0  0
   -0.6760    9.0760   -7.1570 C   0  0  2  0  0  0  0  0  0  0  0  0
    0.6930    9.5740   -7.4090 N   0  0  0  0  0  0  0  0  0  0  0  0
   -1.5260   10.2640   -6.4840 C   0  0  1  0  0  0  0  0  0  0  0  0
   -1.2470    8.7090   -8.5410 C   0  0  0  0  0  0  0  0  0  0  0  0
   -0.9460   10.6470   -5.1640 N   0  0  0  0  0  0  0  0  0  0  0  0
    0.7550   10.9860   -7.3160 N   0  0  0  0  0  0  0  0  0  0  0  0
    1.1540    9.2230   -8.7220 N   0  0  0  0  0  0  0  0  0  0  0  0
   -1.3970    9.8690   -9.4920 C   0  0  0  0  0  0  0  0  0  0  0  0
   -1.7100   11.4570   -7.4440 C   0  0  0  0  0  0  0  0  0  0  0  0
   -1.4510   11.8660   -4.5310 C   0  0  0  0  0  0  0  0  0  0  0  0
    0.6170   11.4010   -8.6880 N   0  0  0  0  0  0  0  0  0  0  0  0
    1.5500   10.4900   -9.2810 C   0  0  2  0  0  0  0  0  0  0  0  0
   -2.0810   11.0950   -8.8880 C   0  0  0  0  0  0  0  0  0  0  0  0
    1.3860   10.5570  -10.7110 N   0  0  0  0  0  0  0  0  0  0  0  0
   -0.2910   12.7260   -4.0360 C   0  0  0  0  0  0  0  0  0  0  0  0
    2.2420    9.6670  -11.4880 C   0  0  1  0  0  0  0  0  0  0  0  0
    0.5980   12.0300   -2.6340 S   0  0  0  0  0  0  0  0  0  0  0  0
    1.7790    8.3340  -11.4370 O   0  0  0  0  0  0  0  0  0  0  0  0
    2.1500   12.3250   -2.8870 O   0  0  0  0  0  0  0  0  0  0  0  0
    0.2850   10.4560   -2.5440 O   0  0  0  0  0  0  0  0  0  0  0  0
    0.1090   12.7450   -1.2890 O   0  0  0  0  0  0  0  0  0  0  0  0
    2.5860   10.0540  -12.9450 C   0  0  2  0  0  0  0  0  0  0  0  0
    3.9020    9.5560  -13.2700 O   0  0  0  0  0  0  0  0  0  0  0  0
    2.6530   11.5350  -13.2350 C   0  0  0  0  0  0  0  0  0  0  0  0
    3.5620   11.6050  -14.4460 C   0  0  0  0  0  0  0  0  0  0  0  0
    4.3430   10.3010  -14.4090 C   0  0  0  0  0  0  0  0  0  0  0  0
  1  2  1  0
  3  2  1  1
  3  4  1  0
  3  5  1  0
  3  6  1  0
  5  7  1  1
  4  8  1  0
  4  9  1  0
  6 10  1  0
  5 11  1  0
  7 12  1  0
  8 13  1  0
  9 14  1  0
 13 14  1  0
 10 15  1  0
 11 15  1  0
 14 16  1  6
 12 17  1  0
 16 18  1  0
 17 19  1  0
 18 20  1  6
 19 21  1  0
 19 22  1  0
 19 23  1  0
 18 24  1  0
 24 25  1  0
 24 26  1  1
 26 27  1  0
 25 28  1  0
 27 28  1  0
M  END
