diamond-x0465_0_A-diamond-x0837_0_A
     RDKit          3D

 24 25  0  0  0  0  0  0  0  0999 V2000
    2.2290   13.0500   -4.8290 C   0  0  0  0  0  0  0  0  0  0  0  0
    0.8400   12.4710   -4.5360 C   0  0  1  0  0  0  0  0  0  0  0  0
    0.6050   11.5030   -5.4970 O   0  0  0  0  0  0  0  0  0  0  0  0
    0.7780   11.9610   -3.1230 C   0  0  0  0  0  0  0  0  0  0  0  0
    0.9440   12.6950   -2.1050 N   0  0  0  0  0  0  0  0  0  0  0  0
    0.5110   10.6140   -2.9130 O   0  0  0  0  0  0  0  0  0  0  0  0
   -0.5830   10.8320   -5.6440 C   0  0  0  0  0  0  0  0  0  0  0  0
    1.2010   14.0820   -2.0120 C   0  0  0  0  0  0  0  0  0  0  0  0
   -0.6950    9.7770   -6.5810 C   0  0  0  0  0  0  0  0  0  0  0  0
   -1.7330   11.0950   -4.9360 C   0  0  0  0  0  0  0  0  0  0  0  0
    0.4030    9.4700   -7.3150 F   0  0  0  0  0  0  0  0  0  0  0  0
   -0.0560   14.8720   -2.0900 C   0  0  0  0  0  0  0  0  0  0  0  0
   -1.8300    9.0650   -6.7800 C   0  0  0  0  0  0  0  0  0  0  0  0
   -2.9250   10.3840   -5.1140 C   0  0  0  0  0  0  0  0  0  0  0  0
   -1.1720   13.9250   -2.4790 C   0  0  0  0  0  0  0  0  0  0  0  0
   -2.9430    9.3770   -6.0390 C   0  0  0  0  0  0  0  0  0  0  0  0
   -3.0610   14.8500   -2.6740 I   0  0  0  0  0  0  0  0  0  0  0  0
   -4.2450   14.5280   -0.9480 C   0  0  1  0  0  0  0  0  0  0  0  0
   -3.6050   15.0650    0.2540 C   0  0  0  0  0  0  0  0  0  0  0  0
   -5.6290   15.1020   -1.0880 C   0  0  0  0  0  0  0  0  0  0  0  0
   -4.2830   15.2190    1.3510 C   0  0  0  0  0  0  0  0  0  0  0  0
   -6.3890   14.8490    0.1650 C   0  0  0  0  0  0  0  0  0  0  0  0
   -7.6410   14.6400    0.1420 O   0  0  0  0  0  0  0  0  0  0  0  0
   -5.6520   14.8590    1.3830 N   0  0  0  0  0  0  0  0  0  0  0  0
  2  1  1  6
  2  3  1  0
  2  4  1  0
  4  5  2  3
  4  6  1  0
  3  7  1  0
  5  8  1  0
  7  9  2  0
  7 10  1  0
  9 11  1  0
  8 12  1  0
  9 13  1  0
 10 14  2  0
 12 15  1  0
 13 16  2  0
 14 16  1  0
 15 17  1  0
 18 17  1  6
 18 19  1  0
 18 20  1  0
 19 21  2  0
 20 22  1  0
 22 23  2  0
 21 24  1  0
 22 24  1  0
M  END
