diamond-x0722_0_A-mac-x0116
     RDKit          3D

 21 23  0  0  0  0  0  0  0  0999 V2000
   -4.6990   15.2980    2.1370 C   0  0  0  0  0  0  0  0  0  0  0  0
   -6.1140   14.7670    1.8660 C   0  0  0  0  0  0  0  0  0  0  0  0
   -6.3460   13.3040    1.9190 C   0  0  0  0  0  0  0  0  0  0  0  0
   -3.5460   14.5510    1.4900 C   0  0  2  0  0  0  0  0  0  0  0  0
   -2.3050   15.2720    1.7180 N   0  0  0  0  0  0  0  0  0  0  0  0
   -3.6270   14.4000   -0.0500 C   0  0  1  0  0  0  0  0  0  0  0  0
   -4.6000   15.4070   -0.7260 C   0  0  0  0  0  0  0  0  0  0  0  0
   -2.1150   14.4380   -0.4920 C   0  0  1  0  0  0  0  0  0  0  0  0
   -1.3070   14.7410    0.8070 C   0  0  2  0  0  0  0  0  0  0  0  0
   -6.3910   12.6460    0.7290 O   0  0  0  0  0  0  0  0  0  0  0  0
   -6.5510   12.4170    2.9490 C   0  0  0  0  0  0  0  0  0  0  0  0
   -0.4020   13.7480    1.4910 C   0  0  0  0  0  0  0  0  0  0  0  0
   -1.7470   13.1840   -1.2850 C   0  0  0  0  0  0  0  0  0  0  0  0
   -5.9870   14.8390   -0.9650 C   0  0  0  0  0  0  0  0  0  0  0  0
   -6.7370   11.1560    2.3550 C   0  0  0  0  0  0  0  0  0  0  0  0
   -6.6300   11.3470    1.0020 C   0  0  0  0  0  0  0  0  0  0  0  0
   -1.7050   15.5870   -1.3740 C   0  0  0  0  0  0  0  0  0  0  0  0
   -0.2570   15.7500    0.3630 C   0  0  0  0  0  0  0  0  0  0  0  0
   -6.9930   15.4940   -1.2100 O   0  0  0  0  0  0  0  0  0  0  0  0
   -6.0710   13.4840   -0.8940 N   0  0  0  0  0  0  0  0  0  0  0  0
   -0.2970   15.6950   -1.0860 N   0  0  0  0  0  0  0  0  0  0  0  0
  1  2  1  0
  2  3  1  0
  4  1  1  6
  4  5  1  0
  4  6  1  0
  6  7  1  6
  6  8  1  0
  5  9  1  0
  8  9  1  0
  3 10  1  0
  3 11  2  0
  9 12  1  1
  8 13  1  6
  7 14  1  0
 11 15  1  0
 10 16  1  0
 15 16  2  0
  8 17  1  0
  9 18  1  0
 14 19  2  0
 14 20  1  0
 17 21  1  0
 18 21  1  0
M  END
