diamond-x0895_0_A-diamond-x0592_0_A
     RDKit          3D

 17 19  0  0  0  0  0  0  0  0999 V2000
   -2.7560   14.7010    1.0250 N   0  0  0  0  0  0  0  0  0  0  0  0
   -3.4470   14.9110   -0.1550 C   0  0  0  0  0  0  0  0  0  0  0  0
   -3.0050   15.1630   -1.3090 N   0  0  0  0  0  0  0  0  0  0  0  0
   -1.4900   14.8470    0.9420 C   0  0  0  0  0  0  0  0  0  0  0  0
   -0.8290   15.1820   -0.1760 N   0  0  0  0  0  0  0  0  0  0  0  0
   -4.8720   14.8390   -0.1200 C   0  0  0  0  0  0  0  0  0  0  0  0
    0.4360   14.5400   -0.5020 C   0  0  0  0  0  0  0  0  0  0  0  0
   -1.5950   15.2510   -1.3880 C   0  0  1  0  0  0  0  0  0  0  0  0
   -5.7520   15.0920   -1.1980 C   0  0  0  0  0  0  0  0  0  0  0  0
   -5.6940   14.5200    0.9240 C   0  0  0  0  0  0  0  0  0  0  0  0
   -1.0710   14.2710   -2.3370 N   0  0  0  0  0  0  0  0  0  0  0  0
   -7.0330   14.9470   -0.8670 N   0  0  0  0  0  0  0  0  0  0  0  0
   -6.9610   14.5990    0.4350 N   0  0  0  0  0  0  0  0  0  0  0  0
    0.3670   14.3060   -2.0220 C   0  0  0  0  0  0  0  0  0  0  0  0
   -8.1570   14.3480    1.1960 C   0  0  0  0  0  0  0  0  0  0  0  0
   -7.9590   14.9110    2.5940 C   0  0  0  0  0  0  0  0  0  0  0  0
   -7.9970   13.9220    3.5990 O   0  0  0  0  0  0  0  0  0  0  0  0
  1  2  1  0
  2  3  2  0
  1  4  2  0
  4  5  1  0
  2  6  1  0
  5  7  1  0
  8  3  1  1
  5  8  1  0
  6  9  1  0
  6 10  2  0
  8 11  1  0
  9 12  2  0
 10 13  1  0
 12 13  1  0
  7 14  1  0
 11 14  1  0
 13 15  1  0
 15 16  1  0
 16 17  1  0
M  END
