diamond-x1015_0_A-mac-x0379
     RDKit          3D

 22 25  0  0  0  0  0  0  0  0999 V2000
   -1.1720   14.2550   -4.0530 C   0  0  0  0  0  0  0  0  0  0  0  0
   -1.4800   14.4200   -2.7680 C   0  0  0  0  0  0  0  0  0  0  0  0
   -0.5290   14.0660   -1.8540 N   0  0  0  0  0  0  0  0  0  0  0  0
    0.1650   13.6340   -4.1080 C   0  0  2  0  0  0  0  0  0  0  0  0
    0.3300   12.1990   -4.1570 N   0  0  0  0  0  0  0  0  0  0  0  0
    0.3120   13.5620   -2.6290 C   0  0  0  0  0  0  0  0  0  0  0  0
   -2.6910   14.8040   -2.2310 C   0  0  0  0  0  0  0  0  0  0  0  0
    0.7550   11.7610   -2.8560 C   0  0  0  0  0  0  0  0  0  0  0  0
    1.3600   12.8710   -2.3140 N   0  0  0  0  0  0  0  0  0  0  0  0
   -0.2300   11.4030   -5.1790 C   0  0  0  0  0  0  0  0  0  0  0  0
   -3.8470   15.2560   -2.8180 C   0  0  0  0  0  0  0  0  0  0  0  0
   -2.9150   14.6740   -0.5370 S   0  0  0  0  0  0  0  0  0  0  0  0
    0.6060   10.6680   -2.2850 O   0  0  0  0  0  0  0  0  0  0  0  0
    0.2020   11.5400   -6.5010 C   0  0  0  0  0  0  0  0  0  0  0  0
   -1.2320   10.4560   -4.9020 C   0  0  0  0  0  0  0  0  0  0  0  0
   -4.5150   15.1800   -0.7400 C   0  0  0  0  0  0  0  0  0  0  0  0
   -4.9040   15.4660   -1.9600 N   0  0  0  0  0  0  0  0  0  0  0  0
   -5.3520   15.2420    0.4610 C   0  0  0  0  0  0  0  0  0  0  0  0
   -0.3400   10.7570   -7.5200 C   0  0  0  0  0  0  0  0  0  0  0  0
   -1.7770    9.6690   -5.9210 C   0  0  0  0  0  0  0  0  0  0  0  0
   -1.3250    9.8250   -7.2290 C   0  0  0  0  0  0  0  0  0  0  0  0
   -1.9880    8.8600   -8.4860 Cl  0  0  0  0  0  0  0  0  0  0  0  0
  1  2  2  0
  2  3  1  0
  4  1  1  1
  4  5  1  0
  3  6  2  0
  4  6  1  0
  2  7  1  0
  5  8  1  0
  6  9  1  0
  8  9  1  0
  5 10  1  0
  7 11  2  0
  7 12  1  0
  8 13  2  0
 10 14  2  0
 10 15  1  0
 12 16  1  0
 11 17  1  0
 16 17  2  0
 16 18  1  0
 14 19  1  0
 15 20  2  0
 19 21  2  0
 20 21  1  0
 21 22  1  0
M  END
