diamond-x0910_1_A-mac-x0142
     RDKit          3D

 22 26  0  0  0  0  0  0  0  0999 V2000
   -7.7530   13.5010    0.6280 N   0  0  0  0  0  0  0  0  0  0  0  0
   -6.7180   14.4760    0.5910 C   0  0  2  0  0  0  0  0  0  0  0  0
   -6.8710   15.2990   -0.5550 N   0  0  0  0  0  0  0  0  0  0  0  0
   -5.4810   13.8540    0.2970 N   0  0  0  0  0  0  0  0  0  0  0  0
   -5.5660   15.9900   -0.5290 N   0  0  0  0  0  0  0  0  0  0  0  0
   -4.5990   14.9920   -0.0230 C   0  0  1  0  0  0  0  0  0  0  0  0
   -3.7380   15.2750    1.1170 N   0  0  0  0  0  0  0  0  0  0  0  0
   -3.6590   14.7750   -1.2730 C   0  0  0  0  0  0  0  0  0  0  0  0
   -2.4070   15.0450    0.6750 C   0  0  0  0  0  0  0  0  0  0  0  0
   -2.3030   14.7840   -0.6840 C   0  0  0  0  0  0  0  0  0  0  0  0
   -1.3690   15.0940    1.4880 N   0  0  0  0  0  0  0  0  0  0  0  0
   -1.0470   14.5930   -1.2320 C   0  0  0  0  0  0  0  0  0  0  0  0
   -0.8340   14.3370   -2.6150 N   0  0  0  0  0  0  0  0  0  0  0  0
    0.0210   14.6520   -0.4220 N   0  0  0  0  0  0  0  0  0  0  0  0
   -0.1990   14.8950    0.8870 C   0  0  0  0  0  0  0  0  0  0  0  0
   -1.9590   14.2990   -3.5550 C   0  0  0  0  0  0  0  0  0  0  0  0
    0.4260   14.7980   -3.2100 C   0  0  0  0  0  0  0  0  0  0  0  0
    0.8270   13.6760   -4.1480 C   0  0  0  0  0  0  0  0  0  0  0  0
   -1.6160   13.3180   -4.6990 C   0  0  0  0  0  0  0  0  0  0  0  0
    2.2800   13.3250   -4.3900 C   0  0  0  0  0  0  0  0  0  0  0  0
    1.4520   12.4760   -3.4770 C   0  0  0  0  0  0  0  0  0  0  0  0
   -0.1780   13.4220   -5.2440 C   0  0  0  0  0  0  0  0  0  0  0  0
  2  1  1  6
  2  3  1  0
  2  4  1  0
  3  5  1  0
  6  4  1  0
  5  6  1  0
  6  7  1  0
  6  8  1  6
  7  9  1  0
  8 10  1  0
  9 10  2  0
  9 11  1  0
 10 12  1  0
 12 13  1  0
 12 14  2  0
 11 15  2  0
 14 15  1  0
 13 16  1  0
 13 17  1  0
 18 17  1  0
 16 19  1  0
 18 20  1  0
 18 21  1  0
 20 21  1  0
 18 22  1  0
 19 22  1  0
M  END
