diamond-x0626_0_A-mac-x0212
     RDKit          3D

 15 15  0  0  0  0  0  0  0  0999 V2000
   -4.8810   14.8980    1.2040 N   0  0  0  0  0  0  0  0  0  0  0  0
   -6.1440   14.7100    0.7740 C   0  0  0  0  0  0  0  0  0  0  0  0
   -6.3700   15.0310   -0.4020 O   0  0  0  0  0  0  0  0  0  0  0  0
   -3.7200   14.7790    0.5190 C   0  0  0  0  0  0  0  0  0  0  0  0
   -7.2480   14.1190    1.6190 C   0  0  0  0  0  0  0  0  0  0  0  0
   -2.5630   14.6540    1.1180 N   0  0  0  0  0  0  0  0  0  0  0  0
   -3.6800   14.7680   -1.1660 S   0  0  0  0  0  0  0  0  0  0  0  0
   -8.6110   14.4570    1.0170 C   0  0  0  0  0  0  0  0  0  0  0  0
   -7.0570   12.5960    1.6710 C   0  0  0  0  0  0  0  0  0  0  0  0
   -1.9890   14.5670   -1.1640 C   0  0  0  0  0  0  0  0  0  0  0  0
   -1.5460   14.5360    0.1790 C   0  0  0  0  0  0  0  0  0  0  0  0
   -0.1650   14.3900    0.7130 C   0  0  0  0  0  0  0  0  0  0  0  0
   -1.2780   14.4570   -2.4300 C   0  0  0  0  0  0  0  0  0  0  0  0
   -0.1570   14.0230   -2.6190 O   0  0  0  0  0  0  0  0  0  0  0  0
   -1.9920   14.8840   -3.5080 O   0  0  0  0  0  0  0  0  0  0  0  0
  1  2  1  0
  2  3  2  0
  1  4  1  0
  2  5  1  0
  4  6  2  0
  4  7  1  0
  5  8  1  0
  5  9  1  0
  7 10  1  0
  6 11  1  0
 10 11  2  0
 11 12  1  0
 10 13  1  0
 13 14  2  0
 13 15  1  0
M  END
