diamond-x0681_0_A-mac-x0159
     RDKit          3D

 28 32  0  0  0  0  0  0  0  0999 V2000
   -5.0260   14.7420   -2.1080 N   0  0  0  0  0  0  0  0  0  0  0  0
   -3.7960   14.1700   -1.4990 C   0  0  0  0  0  0  0  0  0  0  0  0
   -4.0250   13.6560   -0.0680 C   0  0  2  0  0  0  0  0  0  0  0  0
   -5.2170   12.8030   -0.1640 C   0  0  0  0  0  0  0  0  0  0  0  0
   -4.1230   14.7220    1.0940 C   0  0  2  0  0  0  0  0  0  0  0  0
   -6.3680   13.0760    0.5170 N   0  0  0  0  0  0  0  0  0  0  0  0
   -5.2510   14.4990    2.0750 C   0  0  0  0  0  0  0  0  0  0  0  0
   -5.3390   11.7200   -0.8890 N   0  0  0  0  0  0  0  0  0  0  0  0
   -3.8990   16.0270    0.5570 N   0  0  0  0  0  0  0  0  0  0  0  0
   -6.5500   14.2190    1.3930 C   0  0  0  0  0  0  0  0  0  0  0  0
   -7.2650   12.1170    0.2240 C   0  0  0  0  0  0  0  0  0  0  0  0
   -6.6060   11.2860   -0.6540 C   0  0  0  0  0  0  0  0  0  0  0  0
   -3.0540   15.5280   -0.4810 C   0  0  1  0  0  0  0  0  0  0  0  0
   -3.2860   16.1630   -1.7320 N   0  0  0  0  0  0  0  0  0  0  0  0
   -1.5880   15.6000   -0.1400 C   0  0  2  0  0  0  0  0  0  0  0  0
   -2.6030   15.4660   -2.8320 C   0  0  0  0  0  0  0  0  0  0  0  0
   -1.0460   14.5350   -1.0450 C   0  0  1  0  0  0  0  0  0  0  0  0
   -1.2040   15.1030    1.1750 N   0  0  0  0  0  0  0  0  0  0  0  0
   -1.3400   14.8320   -2.4360 N   0  0  0  0  0  0  0  0  0  0  0  0
    0.2980   14.5800   -0.5560 N   0  0  0  0  0  0  0  0  0  0  0  0
    0.1390   14.6740    0.8870 C   0  0  0  0  0  0  0  0  0  0  0  0
   -0.3020   14.7600   -3.4450 C   0  0  0  0  0  0  0  0  0  0  0  0
   -0.1080   16.0110   -4.2420 C   0  0  0  0  0  0  0  0  0  0  0  0
    1.0880   16.6700   -4.3210 C   0  0  0  0  0  0  0  0  0  0  0  0
   -1.1350   16.6140   -4.9700 N   0  0  0  0  0  0  0  0  0  0  0  0
   -0.6940   17.6980   -5.5660 C   0  0  0  0  0  0  0  0  0  0  0  0
    0.9560   18.0610   -5.3040 S   0  0  0  0  0  0  0  0  0  0  0  0
   -1.5220   18.5880   -6.4200 C   0  0  0  0  0  0  0  0  0  0  0  0
  1  2  1  0
  3  2  1  6
  3  4  1  0
  3  5  1  0
  4  6  1  0
  5  7  1  0
  4  8  2  0
  5  9  1  6
  6 10  1  0
  7 10  1  0
  6 11  1  0
  8 12  1  0
 11 12  2  0
 13  9  1  1
 13 14  1  0
 13 15  1  0
 14 16  1  0
 15 17  1  0
 15 18  1  1
 16 19  1  0
 17 19  1  0
 17 20  1  6
 18 21  1  0
 20 21  1  0
 19 22  1  0
 22 23  1  0
 23 24  2  0
 23 25  1  0
 25 26  2  0
 24 27  1  0
 26 27  1  0
 26 28  1  0
M  END
