diamond-x0628_0_A-mac-x0228
     RDKit          3D

 25 27  0  0  0  0  0  0  0  0999 V2000
   -0.6590    8.8930   -7.2720 C   0  0  0  0  0  0  0  0  0  0  0  0
   -0.8060   10.1430   -6.5090 C   0  0  0  0  0  0  0  0  0  0  0  0
   -1.9480   10.4560   -5.8350 N   0  0  0  0  0  0  0  0  0  0  0  0
    0.1640   11.0530   -6.4260 N   0  0  0  0  0  0  0  0  0  0  0  0
   -0.4010   11.9960   -5.6470 N   0  0  0  0  0  0  0  0  0  0  0  0
   -1.6870   11.6290   -5.2930 C   0  0  0  0  0  0  0  0  0  0  0  0
   -2.6590   12.3890   -4.4490 C   0  0  0  0  0  0  0  0  0  0  0  0
    0.3860   13.1730   -5.3290 C   0  0  0  0  0  0  0  0  0  0  0  0
    1.5820   12.8870   -4.4240 C   0  0  0  0  0  0  0  0  0  0  0  0
   -2.5550   13.9130   -4.5270 C   0  0  0  0  0  0  0  0  0  0  0  0
    1.1710   12.2110   -3.1450 C   0  0  0  0  0  0  0  0  0  0  0  0
   -1.5950   14.3500   -3.5330 N   0  0  0  0  0  0  0  0  0  0  0  0
    0.5140   11.1890   -3.0070 O   0  0  0  0  0  0  0  0  0  0  0  0
    1.6200   12.8750   -2.0670 O   0  0  0  0  0  0  0  0  0  0  0  0
   -1.9900   14.7260   -2.3780 C   0  0  0  0  0  0  0  0  0  0  0  0
   -1.1010   15.0730   -1.4360 O   0  0  0  0  0  0  0  0  0  0  0  0
   -3.3890   14.8190   -1.9130 C   0  0  0  0  0  0  0  0  0  0  0  0
   -3.6880   14.5690   -0.5690 C   0  0  0  0  0  0  0  0  0  0  0  0
   -4.4120   15.1600   -2.8200 C   0  0  0  0  0  0  0  0  0  0  0  0
   -5.0070   14.6680   -0.1680 C   0  0  0  0  0  0  0  0  0  0  0  0
   -5.7390   15.2540   -2.3870 C   0  0  0  0  0  0  0  0  0  0  0  0
   -6.0080   15.0050   -1.0630 C   0  0  0  0  0  0  0  0  0  0  0  0
   -5.6020   14.4550    1.1660 C   0  0  0  0  0  0  0  0  0  0  0  0
   -7.2570   15.0610   -0.5010 O   0  0  0  0  0  0  0  0  0  0  0  0
   -7.0820   14.4230    0.7840 C   0  0  0  0  0  0  0  0  0  0  0  0
  1  2  1  0
  2  3  1  0
  2  4  2  0
  4  5  1  0
  3  6  2  0
  5  6  1  0
  6  7  1  0
  5  8  1  0
  8  9  1  0
  7 10  1  0
  9 11  1  0
 10 12  1  0
 11 13  2  0
 11 14  1  0
 12 15  2  3
 15 16  1  0
 15 17  1  0
 17 18  2  0
 17 19  1  0
 18 20  1  0
 19 21  2  0
 20 22  2  0
 21 22  1  0
 20 23  1  0
 22 24  1  0
 23 25  1  0
 24 25  1  0
M  END
