diamond-x0591_0_A-mac-x0263
     RDKit          3D

 28 30  0  0  0  0  0  0  0  0999 V2000
   -7.9950   15.6170   -1.2120 N   0  0  0  0  0  0  0  0  0  0  0  0
   -8.7600   15.6880    0.0310 C   0  0  0  0  0  0  0  0  0  0  0  0
   -7.1990   14.4450   -1.2130 C   0  0  1  0  0  0  0  0  0  0  0  0
   -8.0680   13.3370   -1.2270 O   0  0  0  0  0  0  0  0  0  0  0  0
   -5.9450   14.3740   -2.1310 C   0  0  0  0  0  0  0  0  0  0  0  0
   -6.6340   14.5870    0.0500 N   0  0  0  0  0  0  0  0  0  0  0  0
   -4.6590   13.8970   -1.6850 C   0  0  0  0  0  0  0  0  0  0  0  0
   -6.0320   14.7870   -3.4490 C   0  0  0  0  0  0  0  0  0  0  0  0
   -7.0390   14.4090    1.3590 C   0  0  0  0  0  0  0  0  0  0  0  0
   -5.3700   15.0240   -0.0140 C   0  0  0  0  0  0  0  0  0  0  0  0
   -8.3980   13.9820    1.8990 C   0  0  0  0  0  0  0  0  0  0  0  0
   -3.5380   13.8730   -2.5510 C   0  0  0  0  0  0  0  0  0  0  0  0
   -4.9310   14.7620   -4.3050 C   0  0  0  0  0  0  0  0  0  0  0  0
   -4.9780   15.0660    1.2730 C   0  0  0  0  0  0  0  0  0  0  0  0
   -6.0010   14.6940    2.1170 N   0  0  0  0  0  0  0  0  0  0  0  0
   -4.5660   15.3760   -1.1040 C   0  0  0  0  0  0  0  0  0  0  0  0
   -9.1020   15.1590    2.6300 C   0  0  0  0  0  0  0  0  0  0  0  0
   -3.6980   14.3190   -3.8640 C   0  0  0  0  0  0  0  0  0  0  0  0
   -3.2730   15.7730   -0.8370 C   0  0  0  0  0  0  0  0  0  0  0  0
   -3.6760   15.4570    1.5330 C   0  0  0  0  0  0  0  0  0  0  0  0
   -2.3900   14.3570   -5.0650 S   0  0  0  0  0  0  0  0  0  0  0  0
  -10.6110   15.0520    2.8310 C   0  0  0  0  0  0  0  0  0  0  0  0
   -2.8280   15.8090    0.4730 C   0  0  0  0  0  0  0  0  0  0  0  0
   -1.2730   15.4500   -4.4310 N   0  0  0  0  0  0  0  0  0  0  0  0
   -1.7360   13.0710   -5.0650 O   0  0  0  0  0  0  0  0  0  0  0  0
   -2.9500   14.9510   -6.2560 O   0  0  0  0  0  0  0  0  0  0  0  0
  -11.2150   13.9890    2.2760 O   0  0  0  0  0  0  0  0  0  0  0  0
  -11.2650   15.8740    3.4690 O   0  0  0  0  0  0  0  0  0  0  0  0
  1  2  1  0
  1  3  1  0
  3  4  1  1
  3  5  1  0
  3  6  1  0
  5  7  2  0
  5  8  1  0
  6  9  1  0
  6 10  1  0
  9 11  1  0
  7 12  1  0
  8 13  2  0
 10 14  2  0
  9 15  2  0
 14 15  1  0
 10 16  1  0
 11 17  1  0
 12 18  2  0
 13 18  1  0
 16 19  2  0
 14 20  1  0
 18 21  1  0
 17 22  1  0
 19 23  1  0
 20 23  2  0
 21 24  1  0
 21 25  2  0
 21 26  2  0
 22 27  1  0
 22 28  2  0
M  END
