diamond-x0855_0_A-mac-x0148
     RDKit          3D

 28 32  0  0  0  0  0  0  0  0999 V2000
    1.8140   12.4100   -2.8130 O   0  0  0  0  0  0  0  0  0  0  0  0
    0.8560   11.6320   -3.3640 C   0  0  0  0  0  0  0  0  0  0  0  0
    0.4820   12.0150   -4.7780 C   0  0  1  0  0  0  0  0  0  0  0  0
    0.4040   10.7130   -2.7070 O   0  0  0  0  0  0  0  0  0  0  0  0
   -0.5950   11.2210   -5.2890 N   0  0  0  0  0  0  0  0  0  0  0  0
    0.3210   13.5200   -4.9240 C   0  0  1  0  0  0  0  0  0  0  0  0
   -0.5720   10.3230   -6.2980 C   0  0  0  0  0  0  0  0  0  0  0  0
   -1.8070   11.3550   -4.7050 N   0  0  0  0  0  0  0  0  0  0  0  0
   -1.0540   14.2370   -4.9660 C   0  0  1  0  0  0  0  0  0  0  0  0
    1.0910   14.0210   -3.7000 C   0  0  0  0  0  0  0  0  0  0  0  0
   -1.8400    9.8410   -6.3710 C   0  0  0  0  0  0  0  0  0  0  0  0
   -2.5700   10.4990   -5.3810 C   0  0  0  0  0  0  0  0  0  0  0  0
   -2.2450   13.7140   -5.7410 C   0  0  0  0  0  0  0  0  0  0  0  0
   -1.7450   14.2050   -3.6100 C   0  0  2  0  0  0  0  0  0  0  0  0
    0.4210   15.1220   -2.9180 C   0  0  0  0  0  0  0  0  0  0  0  0
   -2.4890    8.5590   -7.5460 Br  0  0  0  0  0  0  0  0  0  0  0  0
   -3.2560   14.6630   -5.3790 O   0  0  0  0  0  0  0  0  0  0  0  0
   -2.9830   15.0210   -4.0010 C   0  0  0  0  0  0  0  0  0  0  0  0
   -0.9110   14.7280   -2.5140 N   0  0  0  0  0  0  0  0  0  0  0  0
   -1.2300   14.7110   -1.1620 C   0  0  0  0  0  0  0  0  0  0  0  0
   -0.2150   14.4870   -0.2420 N   0  0  0  0  0  0  0  0  0  0  0  0
   -2.4420   14.9130   -0.6310 C   0  0  0  0  0  0  0  0  0  0  0  0
   -0.4470   14.4520    1.1050 C   0  0  0  0  0  0  0  0  0  0  0  0
   -2.6060   14.8900    0.8390 C   0  0  0  0  0  0  0  0  0  0  0  0
   -3.7630   15.1930   -1.0940 C   0  0  0  0  0  0  0  0  0  0  0  0
   -1.5740   14.6320    1.6860 N   0  0  0  0  0  0  0  0  0  0  0  0
   -3.8210   15.1520    1.2040 N   0  0  0  0  0  0  0  0  0  0  0  0
   -4.5030   15.3270    0.0130 C   0  0  0  0  0  0  0  0  0  0  0  0
  1  2  1  0
  3  2  1  1
  2  4  2  0
  3  5  1  0
  3  6  1  0
  5  7  1  0
  5  8  1  0
  6  9  1  0
  6 10  1  1
  7 11  2  0
  8 12  2  0
 11 12  1  0
  9 13  1  6
  9 14  1  0
 10 15  1  0
 11 16  1  0
 13 17  1  0
 14 18  1  6
 17 18  1  0
 14 19  1  0
 15 19  1  0
 19 20  1  0
 20 21  1  0
 20 22  2  0
 21 23  1  0
 22 24  1  0
 22 25  1  0
 23 26  2  0
 24 26  1  0
 24 27  2  0
 25 28  2  0
 27 28  1  0
M  END
