diamond-x0895_1_A-diamond-x0805_0_A
     RDKit          3D

 23 25  0  0  0  0  0  0  0  0999 V2000
   -1.3360   14.4680    2.0990 O   0  0  0  0  0  0  0  0  0  0  0  0
   -2.2200   14.5030    1.2910 C   0  0  0  0  0  0  0  0  0  0  0  0
   -2.0150   14.4010   -0.2010 C   0  0  0  0  0  0  0  0  0  0  0  0
   -3.5720   14.6500    1.5010 N   0  0  0  0  0  0  0  0  0  0  0  0
   -3.1330   15.1970   -0.5690 N   0  0  0  0  0  0  0  0  0  0  0  0
   -4.1040   14.9970    0.3150 C   0  0  0  0  0  0  0  0  0  0  0  0
   -5.2800   15.1280    0.0000 N   0  0  0  0  0  0  0  0  0  0  0  0
   -4.9300   15.5000   -1.3300 O   0  0  0  0  0  0  0  0  0  0  0  0
   -4.0440   14.6020   -1.9680 C   0  0  0  0  0  0  0  0  0  0  0  0
   -4.4960   13.2950   -1.9350 C   0  0  0  0  0  0  0  0  0  0  0  0
   -2.7960   14.8690   -2.6220 C   0  0  0  0  0  0  0  0  0  0  0  0
   -3.7580   12.2770   -2.5230 C   0  0  0  0  0  0  0  0  0  0  0  0
   -2.0180   13.8370   -3.2300 C   0  0  0  0  0  0  0  0  0  0  0  0
   -2.5440   12.5420   -3.1580 C   0  0  0  0  0  0  0  0  0  0  0  0
   -0.6610   14.0670   -3.9490 C   0  0  2  0  0  0  0  0  0  0  0  0
    0.2910   12.8310   -3.9820 C   0  0  2  0  0  0  0  0  0  0  0  0
    0.0940   15.3450   -3.4940 C   0  0  0  0  0  0  0  0  0  0  0  0
    0.3500   12.0640   -2.6770 C   0  0  0  0  0  0  0  0  0  0  0  0
    1.6630   13.1340   -4.5910 C   0  0  0  0  0  0  0  0  0  0  0  0
    1.4540   15.4640   -4.1740 C   0  0  0  0  0  0  0  0  0  0  0  0
    0.0290   10.7680   -2.8000 O   0  0  0  0  0  0  0  0  0  0  0  0
    0.6430   12.5210   -1.5750 O   0  0  0  0  0  0  0  0  0  0  0  0
    2.2550   14.2970   -4.0240 O   0  0  0  0  0  0  0  0  0  0  0  0
  1  2  2  0
  2  3  1  0
  2  4  1  0
  3  5  1  0
  4  6  1  0
  5  6  1  0
  6  7  2  3
  7  8  1  0
  8  9  1  0
  9 10  2  0
  9 11  1  0
 10 12  1  0
 11 13  2  0
 12 14  2  0
 13 14  1  0
 15 13  1  1
 15 16  1  0
 15 17  1  0
 16 18  1  1
 16 19  1  0
 17 20  1  0
 18 21  1  0
 18 22  2  0
 19 23  1  0
 20 23  1  0
M  END
