diamond-x0837_0_A-diamond-x0471_0_A
     RDKit          3D

 19 21  0  0  0  0  0  0  0  0999 V2000
   -2.8570   14.5710   -2.5350 I   0  0  0  0  0  0  0  0  0  0  0  0
   -4.4100   14.7860   -1.0260 C   0  0  2  0  0  0  0  0  0  0  0  0
   -3.7860   15.2880    0.2500 C   0  0  0  0  0  0  0  0  0  0  0  0
   -5.1810   13.4510   -0.8930 C   0  0  1  0  0  0  0  0  0  0  0  0
   -4.2940   14.9350    1.4100 C   0  0  0  0  0  0  0  0  0  0  0  0
   -5.3150   12.9230    0.5450 C   0  0  1  0  0  0  0  0  0  0  0  0
   -6.6480   13.5370   -1.3560 C   0  0  0  0  0  0  0  0  0  0  0  0
   -5.3600   14.0990    1.4400 N   0  0  0  0  0  0  0  0  0  0  0  0
   -7.4910   13.2380   -0.1730 N   0  0  0  0  0  0  0  0  0  0  0  0
   -6.6800   12.2340    0.5540 C   0  0  0  0  0  0  0  0  0  0  0  0
   -7.6370   14.4700    0.6770 C   0  0  2  0  0  0  0  0  0  0  0  0
   -6.6120   14.6760    1.7410 N   0  0  0  0  0  0  0  0  0  0  0  0
   -9.0400   14.5280    1.3630 C   0  0  0  0  0  0  0  0  0  0  0  0
   -8.9990   14.0970    2.7530 N   0  0  0  0  0  0  0  0  0  0  0  0
   -9.0420   15.0330    3.7660 C   0  0  0  0  0  0  0  0  0  0  0  0
   -9.3160   16.2180    3.5830 O   0  0  0  0  0  0  0  0  0  0  0  0
   -8.7430   14.4840    5.1550 C   0  0  0  0  0  0  0  0  0  0  0  0
   -9.9240   13.6850    5.6950 C   0  0  0  0  0  0  0  0  0  0  0  0
   -8.3180   15.5870    6.1200 C   0  0  0  0  0  0  0  0  0  0  0  0
  2  1  1  6
  2  3  1  0
  2  4  1  0
  3  5  2  0
  4  6  1  0
  4  7  1  1
  5  8  1  0
  6  8  1  0
  7  9  1  0
  6 10  1  6
  9 10  1  0
  9 11  1  0
  8 12  1  0
 11 12  1  0
 11 13  1  1
 13 14  1  0
 14 15  1  0
 15 16  2  0
 15 17  1  0
 17 18  1  0
 17 19  1  0
M  END
