diamond-x0962_0_A-diamond-x0969_0_A
     RDKit          3D

 11 12  0  0  0  0  0  0  0  0999 V2000
   -2.5420   14.5540   -2.5690 N   0  0  0  0  0  0  0  0  0  0  0  0
   -3.2060   14.8900   -1.6830 C   0  0  0  0  0  0  0  0  0  0  0  0
   -3.9940   15.3840   -0.5430 C   0  0  2  0  0  0  0  0  0  0  0  0
   -3.2360   15.3170    0.7450 N   0  0  0  0  0  0  0  0  0  0  0  0
   -5.2320   14.5440   -0.2200 C   0  0  1  0  0  0  0  0  0  0  0  0
   -4.2400   15.0220    1.7720 C   0  0  0  0  0  0  0  0  0  0  0  0
   -5.4880   15.0320    1.0860 N   0  0  0  0  0  0  0  0  0  0  0  0
   -6.5570   14.8120   -0.8360 N   0  0  0  0  0  0  0  0  0  0  0  0
   -6.6220   14.2890    1.4550 C   0  0  2  0  0  0  0  0  0  0  0  0
   -7.4800   14.5620    0.3040 N   0  0  0  0  0  0  0  0  0  0  0  0
   -7.2300   14.7340    2.6640 N   0  0  0  0  0  0  0  0  0  0  0  0
  1  2  3  0
  3  2  1  6
  3  4  1  0
  3  5  1  0
  4  6  1  0
  5  7  1  0
  6  7  1  0
  5  8  1  6
  7  9  1  0
  8 10  1  0
  9 10  1  0
  9 11  1  1
M  END
