diamond-x0837_0_A-mac-x0411
     RDKit          3D

 23 24  0  0  0  0  0  0  0  0999 V2000
   -7.6250   14.5960    0.4350 O   0  0  0  0  0  0  0  0  0  0  0  0
   -6.3850   14.8360    0.3140 C   0  0  0  0  0  0  0  0  0  0  0  0
   -5.5970   14.8960    1.5100 N   0  0  0  0  0  0  0  0  0  0  0  0
   -5.7610   15.0640   -1.0090 C   0  0  0  0  0  0  0  0  0  0  0  0
   -4.2410   15.2780    1.3810 C   0  0  0  0  0  0  0  0  0  0  0  0
   -4.3390   14.6200   -0.9620 C   0  0  1  0  0  0  0  0  0  0  0  0
   -3.2640   14.9390   -2.7180 I   0  0  0  0  0  0  0  0  0  0  0  0
   -3.6520   15.1450    0.2280 C   0  0  0  0  0  0  0  0  0  0  0  0
   -1.4130   13.8990   -2.6360 C   0  0  0  0  0  0  0  0  0  0  0  0
   -1.5850   12.5680   -3.2100 C   0  0  0  0  0  0  0  0  0  0  0  0
   -1.6800   12.3610   -4.6280 C   0  0  0  0  0  0  0  0  0  0  0  0
   -1.5750   11.1640   -5.4060 C   0  0  0  0  0  0  0  0  0  0  0  0
   -0.5310   10.7010   -6.1630 C   0  0  0  0  0  0  0  0  0  0  0  0
   -2.7180   10.3030   -5.4120 C   0  0  0  0  0  0  0  0  0  0  0  0
    0.6750   11.4210   -6.2700 O   0  0  0  0  0  0  0  0  0  0  0  0
   -2.7680    9.1460   -6.0940 C   0  0  0  0  0  0  0  0  0  0  0  0
   -0.5760    9.5090   -6.8740 C   0  0  0  0  0  0  0  0  0  0  0  0
    0.7440    8.9190   -7.8480 Cl  0  0  0  0  0  0  0  0  0  0  0  0
    1.0670   12.3810   -5.2770 C   0  0  0  0  0  0  0  0  0  0  0  0
   -1.7030    8.7370   -6.8290 C   0  0  0  0  0  0  0  0  0  0  0  0
    0.9300   11.9500   -3.8770 C   0  0  0  0  0  0  0  0  0  0  0  0
    1.3820   12.8300   -2.8850 O   0  0  0  0  0  0  0  0  0  0  0  0
    0.4580   10.8530   -3.4810 O   0  0  0  0  0  0  0  0  0  0  0  0
  1  2  2  0
  2  3  1  0
  2  4  1  0
  3  5  1  0
  4  6  1  0
  6  7  1  6
  5  8  2  0
  6  8  1  0
  7  9  1  0
  9 10  1  0
 10 11  1  0
 11 12  1  0
 12 13  2  0
 12 14  1  0
 13 15  1  0
 14 16  2  0
 13 17  1  0
 17 18  1  0
 15 19  1  0
 16 20  1  0
 17 20  2  0
 19 21  1  0
 21 22  1  0
 21 23  2  0
M  END
