diamond-x0905_0_A-mac-x0348
     RDKit          3D

 25 27  0  0  0  0  0  0  0  0999 V2000
   -7.0750   15.0220   -0.8720 O   0  0  0  0  0  0  0  0  0  0  0  0
   -5.7580   15.1290   -0.5690 C   0  0  0  0  0  0  0  0  0  0  0  0
   -5.5050   15.1140    0.7480 N   0  0  0  0  0  0  0  0  0  0  0  0
   -4.8130   15.2390   -1.5630 C   0  0  0  0  0  0  0  0  0  0  0  0
   -4.2070   15.2260    1.1040 C   0  0  0  0  0  0  0  0  0  0  0  0
   -3.4800   15.3430   -1.1640 C   0  0  0  0  0  0  0  0  0  0  0  0
   -2.3700   15.4530   -2.1490 C   0  0  0  0  0  0  0  0  0  0  0  0
   -3.1740   15.3410    0.1960 C   0  0  0  0  0  0  0  0  0  0  0  0
   -1.3130   14.3930   -1.8290 C   0  0  0  0  0  0  0  0  0  0  0  0
    0.1260   14.9020   -1.9540 C   0  0  0  0  0  0  0  0  0  0  0  0
    0.7230   14.7860   -3.3770 C   0  0  1  0  0  0  0  0  0  0  0  0
    0.5680   13.3530   -3.9260 C   0  0  0  0  0  0  0  0  0  0  0  0
    0.0950   15.8050   -4.2900 C   0  0  0  0  0  0  0  0  0  0  0  0
    0.8030   12.3620   -2.8230 C   0  0  0  0  0  0  0  0  0  0  0  0
    0.6980   16.9290   -4.7820 C   0  0  0  0  0  0  0  0  0  0  0  0
   -1.2320   15.7960   -4.8060 C   0  0  0  0  0  0  0  0  0  0  0  0
    1.4250   12.5570   -1.8060 O   0  0  0  0  0  0  0  0  0  0  0  0
    0.2430   11.1610   -3.0480 O   0  0  0  0  0  0  0  0  0  0  0  0
   -0.1760   17.5950   -5.5700 N   0  0  0  0  0  0  0  0  0  0  0  0
   -1.3770   16.9390   -5.6000 C   0  0  0  0  0  0  0  0  0  0  0  0
   -2.3180   14.9180   -4.6680 C   0  0  0  0  0  0  0  0  0  0  0  0
    0.1500   18.8140   -6.2570 C   0  0  0  0  0  0  0  0  0  0  0  0
   -3.5120   15.1940   -5.3070 C   0  0  0  0  0  0  0  0  0  0  0  0
   -2.5780   17.2270   -6.2470 C   0  0  0  0  0  0  0  0  0  0  0  0
   -3.6310   16.3230   -6.0750 C   0  0  0  0  0  0  0  0  0  0  0  0
  1  2  1  0
  2  3  2  0
  2  4  1  0
  3  5  1  0
  4  6  2  0
  6  7  1  0
  5  8  2  0
  6  8  1  0
  7  9  1  0
  9 10  1  0
 11 10  1  1
 11 12  1  0
 11 13  1  0
 12 14  1  0
 13 15  2  0
 13 16  1  0
 14 17  2  0
 14 18  1  0
 15 19  1  0
 16 20  2  0
 19 20  1  0
 16 21  1  0
 19 22  1  0
 21 23  2  0
 20 24  1  0
 23 25  1  0
 24 25  2  0
M  END
