diamond-x0685_0_A-diamond-x0950_1_A
     RDKit          3D

 20 20  0  0  0  0  0  0  0  0999 V2000
   -5.9640   15.0400    2.6230 N   0  0  0  0  0  0  0  0  0  0  0  0
   -7.3270   14.5580    2.8260 C   0  0  0  0  0  0  0  0  0  0  0  0
   -7.4250   13.0410    2.8220 C   0  0  0  0  0  0  0  0  0  0  0  0
   -5.3230   15.0380    1.3950 C   0  0  0  0  0  0  0  0  0  0  0  0
   -3.9410   15.0860    1.3000 C   0  0  0  0  0  0  0  0  0  0  0  0
   -6.1270   15.0040    0.3170 N   0  0  0  0  0  0  0  0  0  0  0  0
   -3.3520   15.1200    0.0440 C   0  0  0  0  0  0  0  0  0  0  0  0
   -5.5310   15.0470   -0.8970 C   0  0  0  0  0  0  0  0  0  0  0  0
   -4.1640   15.1110   -1.0790 C   0  0  0  0  0  0  0  0  0  0  0  0
   -3.6120   15.1730   -2.3900 C   0  0  0  0  0  0  0  0  0  0  0  0
   -3.1610   15.3300   -3.4860 C   0  0  0  0  0  0  0  0  0  0  0  0
   -2.5950   15.6270   -4.8080 C   0  0  0  0  0  0  0  0  0  0  0  0
   -1.0670   15.5620   -4.7780 C   0  0  0  0  0  0  0  0  0  0  0  0
   -0.5640   14.1380   -5.0210 C   0  0  0  0  0  0  0  0  0  0  0  0
    0.9400   13.9670   -4.8310 C   0  0  0  0  0  0  0  0  0  0  0  0
    1.3700   12.5410   -4.5070 C   0  0  2  0  0  0  0  0  0  0  0  0
    0.7520   11.6790   -5.4710 O   0  0  0  0  0  0  0  0  0  0  0  0
    0.9630   12.1190   -3.0930 C   0  0  0  0  0  0  0  0  0  0  0  0
    0.2530   11.1750   -2.7850 O   0  0  0  0  0  0  0  0  0  0  0  0
    1.4920   12.9260   -2.1470 O   0  0  0  0  0  0  0  0  0  0  0  0
  1  2  1  0
  2  3  1  0
  1  4  1  0
  4  5  2  0
  4  6  1  0
  5  7  1  0
  6  8  2  0
  7  9  2  0
  8  9  1  0
  9 10  1  0
 10 11  3  0
 11 12  1  0
 12 13  1  0
 13 14  1  0
 14 15  1  0
 15 16  1  0
 16 17  1  6
 16 18  1  0
 18 19  2  0
 18 20  1  0
M  END
