diamond-x0436_0_B-diamond-x0228_0_B
     RDKit          3D

 33 35  0  0  0  0  0  0  0  0999 V2000
  -10.6760   28.6840  -16.1990 N   0  0  0  0  0  0  0  0  0  0  0  0
  -10.1080   29.8740  -15.8460 C   0  0  0  0  0  0  0  0  0  0  0  0
  -10.3060   30.2860  -14.3640 C   0  0  1  0  0  0  0  0  0  0  0  0
   -9.5040   30.5360  -16.6810 O   0  0  0  0  0  0  0  0  0  0  0  0
  -11.7340   30.7630  -14.1120 C   0  0  0  0  0  0  0  0  0  0  0  0
   -9.9190   29.1740  -13.4170 N   0  0  0  0  0  0  0  0  0  0  0  0
  -10.1120   27.8200  -13.9540 C   0  0  0  0  0  0  0  0  0  0  0  0
   -8.5980   29.2760  -13.0270 C   0  0  0  0  0  0  0  0  0  0  0  0
   -8.7970   27.3350  -14.6370 C   0  0  0  0  0  0  0  0  0  0  0  0
   -8.2620   29.2250  -11.6670 C   0  0  0  0  0  0  0  0  0  0  0  0
   -7.5770   29.4100  -13.9680 C   0  0  0  0  0  0  0  0  0  0  0  0
   -8.6690   25.8830  -14.7040 N   0  0  0  0  0  0  0  0  0  0  0  0
   -6.9380   29.2980  -11.2730 C   0  0  0  0  0  0  0  0  0  0  0  0
   -6.2620   29.4790  -13.5760 C   0  0  0  0  0  0  0  0  0  0  0  0
   -7.7280   25.1220  -14.0240 C   0  0  0  0  0  0  0  0  0  0  0  0
   -5.9660   29.4180  -12.2400 C   0  0  0  0  0  0  0  0  0  0  0  0
   -9.8230   25.2530  -15.0390 N   0  0  0  0  0  0  0  0  0  0  0  0
   -4.3580   29.4910  -11.8080 Cl  0  0  0  0  0  0  0  0  0  0  0  0
   -6.4240   25.4790  -14.2680 N   0  0  0  0  0  0  0  0  0  0  0  0
   -8.0650   24.2150  -13.2620 O   0  0  0  0  0  0  0  0  0  0  0  0
   -9.9760   24.2590  -15.9350 C   0  0  0  0  0  0  0  0  0  0  0  0
  -11.0360   25.5390  -14.5160 C   0  0  0  0  0  0  0  0  0  0  0  0
   -5.3760   25.3450  -13.3520 C   0  0  0  0  0  0  0  0  0  0  0  0
  -11.2530   23.9380  -15.9710 N   0  0  0  0  0  0  0  0  0  0  0  0
  -11.9210   24.7520  -15.0710 N   0  0  0  0  0  0  0  0  0  0  0  0
   -4.1000   25.8170  -13.7330 C   0  0  0  0  0  0  0  0  0  0  0  0
   -5.5710   24.7680  -12.1010 C   0  0  0  0  0  0  0  0  0  0  0  0
   -3.9640   26.3770  -14.9800 O   0  0  0  0  0  0  0  0  0  0  0  0
   -3.0530   25.6990  -12.8540 C   0  0  0  0  0  0  0  0  0  0  0  0
   -4.5280   24.6440  -11.2170 C   0  0  0  0  0  0  0  0  0  0  0  0
   -2.6480   26.8310  -15.3060 C   0  0  0  0  0  0  0  0  0  0  0  0
   -4.8080   24.0090   -9.8690 C   0  0  0  0  0  0  0  0  0  0  0  0
   -3.2740   25.1210  -11.6290 C   0  0  0  0  0  0  0  0  0  0  0  0
  1  2  1  0
  2  3  1  0
  2  4  2  0
  3  5  1  6
  3  6  1  0
  6  7  1  0
  6  8  1  0
  7  9  1  0
  8 10  2  0
  8 11  1  0
  9 12  1  0
 10 13  1  0
 11 14  2  0
 12 15  1  0
 13 16  2  0
 14 16  1  0
 12 17  1  0
 16 18  1  0
 15 19  1  0
 15 20  2  0
 17 21  1  0
 17 22  1  0
 19 23  1  0
 21 24  2  0
 22 25  2  0
 24 25  1  0
 23 26  2  0
 23 27  1  0
 26 28  1  0
 26 29  1  0
 27 30  2  0
 28 31  1  0
 30 32  1  0
 29 33  2  0
 30 33  1  0
M  END
