diamond-x0962_0_A-mac-x0584
     RDKit          3D

 21 24  0  0  0  0  0  0  0  0999 V2000
   -2.7550   12.7610   -1.7990 N   0  0  0  0  0  0  0  0  0  0  0  0
   -3.2240   13.3630   -0.9430 C   0  0  0  0  0  0  0  0  0  0  0  0
   -3.7580   14.2280   -0.0030 C   0  0  0  0  0  0  0  0  0  0  0  0
   -2.9120   15.2850    0.5540 C   0  0  1  0  0  0  0  0  0  0  0  0
   -5.0140   14.2540    0.4170 C   0  0  0  0  0  0  0  0  0  0  0  0
   -4.0920   15.8910    1.3230 C   0  0  0  0  0  0  0  0  0  0  0  0
   -5.2480   15.2760    1.2620 N   0  0  0  0  0  0  0  0  0  0  0  0
   -1.8270   14.8120    1.4590 N   0  0  0  0  0  0  0  0  0  0  0  0
   -2.5350   15.6900   -0.8290 C   0  0  0  0  0  0  0  0  0  0  0  0
   -0.7470   14.4880    0.8200 C   0  0  0  0  0  0  0  0  0  0  0  0
   -1.3740   15.2540   -1.3800 C   0  0  0  0  0  0  0  0  0  0  0  0
   -1.0700   15.4920   -2.7170 N   0  0  0  0  0  0  0  0  0  0  0  0
   -0.5560   14.5330   -0.5360 N   0  0  0  0  0  0  0  0  0  0  0  0
    0.1070   15.0110   -3.4990 C   0  0  1  0  0  0  0  0  0  0  0  0
   -2.2060   15.5330   -3.6530 C   0  0  0  0  0  0  0  0  0  0  0  0
    0.1350   13.5080   -3.8630 C   0  0  0  0  0  0  0  0  0  0  0  0
   -0.1330   15.7560   -4.8140 C   0  0  0  0  0  0  0  0  0  0  0  0
   -1.6200   15.5390   -5.0550 C   0  0  0  0  0  0  0  0  0  0  0  0
    1.4420   12.7100   -3.5810 C   0  0  0  0  0  0  0  0  0  0  0  0
   -0.5770   12.4510   -2.9770 C   0  0  0  0  0  0  0  0  0  0  0  0
    0.5320   11.4760   -3.3980 C   0  0  0  0  0  0  0  0  0  0  0  0
  1  2  3  0
  2  3  1  0
  3  4  1  0
  3  5  2  0
  4  6  1  1
  5  7  1  0
  6  7  2  0
  4  8  1  0
  4  9  1  0
  8 10  2  0
  9 11  2  0
 11 12  1  0
 10 13  1  0
 11 13  1  0
 12 14  1  0
 12 15  1  0
 14 16  1  6
 14 17  1  0
 15 18  1  0
 17 18  1  0
 16 19  1  0
 16 20  1  0
 19 21  1  0
 20 21  1  0
M  END
