diamond-x0967_0_A-mac-x0124
     RDKit          3D

 20 23  0  0  0  0  0  0  0  0999 V2000
    0.9670   14.9180   -2.9070 C   0  0  0  0  0  0  0  0  0  0  0  0
   -0.3570   14.9220   -2.3540 N   0  0  0  0  0  0  0  0  0  0  0  0
   -1.5020   14.9880   -3.1010 C   0  0  0  0  0  0  0  0  0  0  0  0
   -0.6600   14.8580   -1.0060 C   0  0  0  0  0  0  0  0  0  0  0  0
   -2.5460   14.9710   -2.2250 C   0  0  0  0  0  0  0  0  0  0  0  0
   -2.0060   14.8880   -0.9100 C   0  0  0  0  0  0  0  0  0  0  0  0
    0.1600   14.7790    0.0380 N   0  0  0  0  0  0  0  0  0  0  0  0
   -2.5920   14.8400    0.3240 C   0  0  0  0  0  0  0  0  0  0  0  0
   -0.5070   14.7350    1.2300 C   0  0  0  0  0  0  0  0  0  0  0  0
   -3.9760   14.8830   -0.0560 C   0  0  0  0  0  0  0  0  0  0  0  0
   -1.8580   14.7640    1.4740 N   0  0  0  0  0  0  0  0  0  0  0  0
   -5.2790   14.7800    0.4910 C   0  0  0  0  0  0  0  0  0  0  0  0
   -3.8680   15.0810   -1.4120 C   0  0  0  0  0  0  0  0  0  0  0  0
   -6.3470   14.8760   -0.4470 C   0  0  0  0  0  0  0  0  0  0  0  0
   -5.6420   14.5920    1.8160 C   0  0  0  0  0  0  0  0  0  0  0  0
   -4.9490   15.1620   -2.2020 C   0  0  0  0  0  0  0  0  0  0  0  0
   -7.6210   14.7860   -0.1000 N   0  0  0  0  0  0  0  0  0  0  0  0
   -6.9840   14.5000    2.1790 C   0  0  0  0  0  0  0  0  0  0  0  0
   -6.1680   15.0600   -1.7410 N   0  0  0  0  0  0  0  0  0  0  0  0
   -7.9270   14.6020    1.1840 C   0  0  0  0  0  0  0  0  0  0  0  0
  1  2  1  0
  2  3  1  0
  2  4  1  0
  3  5  2  0
  4  6  2  0
  5  6  1  0
  4  7  1  0
  6  8  1  0
  7  9  2  0
  8 10  1  0
  8 11  2  0
  9 11  1  0
 10 12  1  0
 10 13  2  0
 12 14  2  0
 12 15  1  0
 13 16  1  0
 14 17  1  0
 15 18  2  0
 14 19  1  0
 16 19  2  0
 17 20  2  0
 18 20  1  0
M  END
