diamond-x0727_0_A-diamond-x0524_0_A
     RDKit          3D

 29 31  0  0  0  0  0  0  0  0999 V2000
   -0.1990   11.2620   -5.6640 N   0  0  0  0  0  0  0  0  0  0  0  0
    0.7780   12.1540   -4.9590 C   0  0  1  0  0  0  0  0  0  0  0  0
    0.4110   13.6080   -5.2290 C   0  0  0  0  0  0  0  0  0  0  0  0
    0.1820   10.7090   -6.9980 C   0  0  2  0  0  0  0  0  0  0  0  0
    1.4510   11.2260   -7.4290 O   0  0  0  0  0  0  0  0  0  0  0  0
    0.7030   11.8980   -3.4410 C   0  0  0  0  0  0  0  0  0  0  0  0
   -0.9200   10.8570   -8.0850 C   0  0  1  0  0  0  0  0  0  0  0  0
    0.1960    9.1550   -6.9740 C   0  0  0  0  0  0  0  0  0  0  0  0
    0.1920   10.9250   -2.8990 O   0  0  0  0  0  0  0  0  0  0  0  0
    1.2630   12.8690   -2.6950 O   0  0  0  0  0  0  0  0  0  0  0  0
   -0.8240    9.6180   -8.9040 N   0  0  0  0  0  0  0  0  0  0  0  0
   -2.3470   10.9390   -7.5080 C   0  0  0  0  0  0  0  0  0  0  0  0
   -0.6970    8.4520   -8.0080 C   0  0  0  0  0  0  0  0  0  0  0  0
   -0.2920    8.4420   -5.7230 C   0  0  0  0  0  0  0  0  0  0  0  0
   -2.0830    8.4050   -7.3710 C   0  0  0  0  0  0  0  0  0  0  0  0
   -1.8090    8.4020   -5.8760 C   0  0  0  0  0  0  0  0  0  0  0  0
    0.3630    9.2520   -9.5590 C   0  0  0  0  0  0  0  0  0  0  0  0
    1.3720    8.3420   -9.1430 C   0  0  0  0  0  0  0  0  0  0  0  0
    0.5410    9.8810  -10.7680 C   0  0  0  0  0  0  0  0  0  0  0  0
    2.5040    8.1080   -9.9430 C   0  0  0  0  0  0  0  0  0  0  0  0
    1.6490    9.6510  -11.5490 C   0  0  0  0  0  0  0  0  0  0  0  0
    2.6520    8.7710  -11.1640 C   0  0  0  0  0  0  0  0  0  0  0  0
    3.7200    8.6450  -12.0520 N   0  0  0  0  0  0  0  0  0  0  0  0
    4.0730    9.4800  -13.1320 C   0  0  0  0  0  0  0  0  0  0  0  0
    3.3410   10.6660  -13.3420 C   0  0  0  0  0  0  0  0  0  0  0  0
    5.1150    9.1920  -14.0090 C   0  0  0  0  0  0  0  0  0  0  0  0
    3.6450   11.5290  -14.3940 C   0  0  0  0  0  0  0  0  0  0  0  0
    5.4220   10.0560  -15.0650 C   0  0  0  0  0  0  0  0  0  0  0  0
    4.6870   11.2220  -15.2560 C   0  0  0  0  0  0  0  0  0  0  0  0
  1  2  1  0
  2  3  1  1
  1  4  1  0
  4  5  1  6
  2  6  1  0
  4  7  1  0
  4  8  1  0
  6  9  2  0
  6 10  1  0
  7 11  1  0
  7 12  1  1
  8 13  1  0
  8 14  1  0
 13 15  1  0
 14 16  1  0
 15 16  1  0
 11 17  1  0
 17 18  2  0
 17 19  1  0
 18 20  1  0
 19 21  2  0
 20 22  2  0
 21 22  1  0
 22 23  1  0
 23 24  1  0
 24 25  2  0
 24 26  1  0
 25 27  1  0
 26 28  2  0
 27 29  2  0
 28 29  1  0
M  END
