diamond-x0844_0_A-mac-x0394
     RDKit          3D

 21 22  0  0  0  0  0  0  0  0999 V2000
   -7.5770   14.7280   -0.0660 O   0  0  0  0  0  0  0  0  0  0  0  0
   -6.3580   14.8970   -0.0960 C   0  0  0  0  0  0  0  0  0  0  0  0
   -5.6000   14.8270    1.0470 N   0  0  0  0  0  0  0  0  0  0  0  0
   -5.6070   15.1990   -1.3720 C   0  0  0  0  0  0  0  0  0  0  0  0
   -4.2680   15.1210    1.1030 C   0  0  0  0  0  0  0  0  0  0  0  0
   -4.1590   14.7250   -1.3270 C   0  0  1  0  0  0  0  0  0  0  0  0
   -3.4340   15.2680   -2.4530 O   0  0  0  0  0  0  0  0  0  0  0  0
   -3.5300   15.0860   -0.0110 C   0  0  0  0  0  0  0  0  0  0  0  0
   -3.8410   14.6740   -3.7020 C   0  0  0  0  0  0  0  0  0  0  0  0
   -3.2280   15.3810   -4.9260 C   0  0  0  0  0  0  0  0  0  0  0  0
   -1.7260   15.4680   -4.8620 C   0  0  0  0  0  0  0  0  0  0  0  0
   -0.9480   14.3320   -4.6100 C   0  0  0  0  0  0  0  0  0  0  0  0
   -1.0970   16.6950   -5.0590 C   0  0  0  0  0  0  0  0  0  0  0  0
    0.4500   14.4140   -4.5510 C   0  0  0  0  0  0  0  0  0  0  0  0
    0.2800   16.7800   -5.0030 C   0  0  0  0  0  0  0  0  0  0  0  0
    1.0030   18.3030   -5.2580 Cl  0  0  0  0  0  0  0  0  0  0  0  0
    1.2700   13.1770   -4.2750 C   0  0  0  0  0  0  0  0  0  0  0  0
    1.0630   15.6550   -4.7490 C   0  0  0  0  0  0  0  0  0  0  0  0
    0.8610   12.4850   -2.9960 C   0  0  0  0  0  0  0  0  0  0  0  0
    0.2310   11.3150   -3.2320 O   0  0  0  0  0  0  0  0  0  0  0  0
    1.0280   12.8610   -1.8500 O   0  0  0  0  0  0  0  0  0  0  0  0
  1  2  2  0
  2  3  1  0
  2  4  1  0
  3  5  1  0
  4  6  1  0
  6  7  1  6
  5  8  2  0
  6  8  1  0
  7  9  1  0
  9 10  1  0
 10 11  1  0
 11 12  2  0
 11 13  1  0
 12 14  1  0
 13 15  2  0
 15 16  1  0
 14 17  1  0
 14 18  2  0
 15 18  1  0
 17 19  1  0
 19 20  1  0
 19 21  2  0
M  END
