diamond-x0662_0_A-diamond-x0282_0_A
     RDKit          3D

 35 38  0  0  0  0  0  0  0  0999 V2000
    5.2940    9.5780  -14.9960 C   0  0  0  0  0  0  0  0  0  0  0  0
    4.2460   10.0310  -14.1110 N   0  0  0  0  0  0  0  0  0  0  0  0
    3.5740   11.2180  -14.1690 C   0  0  0  0  0  0  0  0  0  0  0  0
    3.8560    9.2370  -13.1030 N   0  0  0  0  0  0  0  0  0  0  0  0
    2.6800   11.1920  -13.1180 C   0  0  0  0  0  0  0  0  0  0  0  0
    2.8860    9.9400  -12.4740 C   0  0  0  0  0  0  0  0  0  0  0  0
    2.2020    9.3810  -11.2730 C   0  0  0  0  0  0  0  0  0  0  0  0
    2.2740    8.1790  -11.0450 O   0  0  0  0  0  0  0  0  0  0  0  0
    1.5390   10.3160  -10.4910 N   0  0  0  0  0  0  0  0  0  0  0  0
    0.7030   10.0610   -9.3740 C   0  0  0  0  0  0  0  0  0  0  0  0
   -0.2540    9.0530   -9.3710 C   0  0  0  0  0  0  0  0  0  0  0  0
    0.8380   10.8530   -8.2150 C   0  0  0  0  0  0  0  0  0  0  0  0
   -1.0510    8.8450   -8.2450 C   0  0  0  0  0  0  0  0  0  0  0  0
    0.0480   10.6700   -7.0650 C   0  0  0  0  0  0  0  0  0  0  0  0
    0.1470   11.5100   -5.7790 C   0  0  0  0  0  0  0  0  0  0  0  0
   -0.9040    9.6420   -7.1050 C   0  0  0  0  0  0  0  0  0  0  0  0
   -0.7810   11.3040   -4.8910 N   0  0  0  0  0  0  0  0  0  0  0  0
    1.1350   12.2700   -5.8230 O   0  0  0  0  0  0  0  0  0  0  0  0
   -0.8990   12.0050   -3.5870 C   0  0  0  0  0  0  0  0  0  0  0  0
    0.3680   12.7700   -3.1510 C   0  0  0  0  0  0  0  0  0  0  0  0
    0.0700   14.2090   -2.6440 C   0  0  0  0  0  0  0  0  0  0  0  0
   -0.4280   14.3260   -1.2110 C   0  0  0  0  0  0  0  0  0  0  0  0
   -1.7370   14.4560   -1.0150 N   0  0  0  0  0  0  0  0  0  0  0  0
    0.4280   14.3050   -0.1570 C   0  0  0  0  0  0  0  0  0  0  0  0
   -0.1340   14.4120    1.1120 C   0  0  0  0  0  0  0  0  0  0  0  0
   -2.2150   14.5600    0.2350 C   0  0  0  0  0  0  0  0  0  0  0  0
   -3.5840   14.7060    0.3770 N   0  0  0  0  0  0  0  0  0  0  0  0
   -1.4420   14.5340    1.3430 N   0  0  0  0  0  0  0  0  0  0  0  0
   -4.1560   14.0700    1.5530 C   0  0  0  0  0  0  0  0  0  0  0  0
   -4.3330   14.5360   -0.8670 C   0  0  0  0  0  0  0  0  0  0  0  0
   -5.4980   14.7430    1.8100 C   0  0  0  0  0  0  0  0  0  0  0  0
   -5.7260   15.1440   -0.7210 C   0  0  0  0  0  0  0  0  0  0  0  0
   -6.4220   14.6790    0.5780 C   0  0  0  0  0  0  0  0  0  0  0  0
   -7.1600   13.3580    0.4330 C   0  0  0  0  0  0  0  0  0  0  0  0
   -8.5220   13.6240    0.1300 O   0  0  0  0  0  0  0  0  0  0  0  0
  1  2  1  0
  2  3  1  0
  2  4  1  0
  3  5  2  0
  4  6  2  0
  5  6  1  0
  6  7  1  0
  7  8  2  0
  7  9  1  0
  9 10  1  0
 10 11  2  0
 10 12  1  0
 11 13  1  0
 12 14  2  0
 14 15  1  0
 13 16  2  0
 14 16  1  0
 15 17  2  3
 15 18  1  0
 17 19  1  0
 19 20  1  0
 20 21  1  0
 21 22  1  0
 22 23  2  0
 22 24  1  0
 24 25  2  0
 23 26  1  0
 26 27  1  0
 25 28  1  0
 26 28  2  0
 27 29  1  0
 27 30  1  0
 29 31  1  0
 30 32  1  0
 31 33  1  0
 32 33  1  0
 33 34  1  0
 34 35  1  0
M  CHG  1  18  -1
M  END
