diamond-x0727_0_A-diamond-x0967_0_A
     RDKit          3D

 26 28  0  0  0  0  0  0  0  0999 V2000
    0.1320   11.4480   -5.5340 N   0  0  0  0  0  0  0  0  0  0  0  0
    0.8880   12.3560   -4.6650 C   0  0  1  0  0  0  0  0  0  0  0  0
    0.4900   13.7960   -4.9380 C   0  0  0  0  0  0  0  0  0  0  0  0
    0.6940   11.1170   -6.7420 C   0  0  0  0  0  0  0  0  0  0  0  0
    1.6430   11.7240   -7.1730 O   0  0  0  0  0  0  0  0  0  0  0  0
    0.6270   11.9880   -3.1960 C   0  0  0  0  0  0  0  0  0  0  0  0
    0.1000    9.9370   -7.5040 C   0  0  0  0  0  0  0  0  0  0  0  0
    0.2250   10.8930   -2.8100 O   0  0  0  0  0  0  0  0  0  0  0  0
    0.9140   13.0480   -2.3820 O   0  0  0  0  0  0  0  0  0  0  0  0
   -1.1840   10.3000   -8.2510 C   0  0  0  0  0  0  0  0  0  0  0  0
   -0.2400    8.7350   -6.6050 C   0  0  0  0  0  0  0  0  0  0  0  0
    0.0770   13.2240   -1.2240 C   0  0  0  0  0  0  0  0  0  0  0  0
   -2.1220    9.1170   -8.0420 C   0  0  0  0  0  0  0  0  0  0  0  0
   -1.7500    8.5800   -6.6710 C   0  0  0  0  0  0  0  0  0  0  0  0
   -0.5870   14.5930   -1.1710 C   0  0  0  0  0  0  0  0  0  0  0  0
   -1.4090   14.7550    0.1160 C   0  0  0  0  0  0  0  0  0  0  0  0
   -2.9030   14.7760   -0.1280 C   0  0  0  0  0  0  0  0  0  0  0  0
   -3.4800   14.8320   -1.3970 C   0  0  0  0  0  0  0  0  0  0  0  0
   -3.7810   14.7330    0.9440 C   0  0  0  0  0  0  0  0  0  0  0  0
   -5.1610   14.7320    0.7180 C   0  0  0  0  0  0  0  0  0  0  0  0
   -4.8180   14.8340   -1.6320 N   0  0  0  0  0  0  0  0  0  0  0  0
   -5.6570   14.7800   -0.5960 C   0  0  0  0  0  0  0  0  0  0  0  0
   -6.0700   14.6800    1.7770 C   0  0  0  0  0  0  0  0  0  0  0  0
   -6.9710   14.7680   -0.8290 N   0  0  0  0  0  0  0  0  0  0  0  0
   -7.4280   14.6660    1.5320 C   0  0  0  0  0  0  0  0  0  0  0  0
   -7.8300   14.7120    0.2140 C   0  0  0  0  0  0  0  0  0  0  0  0
  1  2  1  0
  2  3  1  1
  1  4  1  0
  4  5  2  0
  2  6  1  0
  4  7  1  0
  6  8  2  0
  6  9  1  0
  7 10  1  0
  7 11  1  0
  9 12  1  0
 10 13  1  0
 11 14  1  0
 13 14  1  0
 12 15  1  0
 15 16  1  0
 16 17  1  0
 17 18  2  0
 17 19  1  0
 19 20  2  0
 18 21  1  0
 20 22  1  0
 21 22  2  0
 20 23  1  0
 22 24  1  0
 23 25  2  0
 24 26  2  0
 25 26  1  0
M  END
