diamond-x0628_0_A-mac-x0522
     RDKit          3D

 29 31  0  0  0  0  0  0  0  0999 V2000
   -1.5930    9.0450   -7.5630 C   0  0  0  0  0  0  0  0  0  0  0  0
   -0.9400    9.9440   -6.5220 C   0  0  2  0  0  0  0  0  0  0  0  0
   -1.8660   10.4500   -5.5290 N   0  0  0  0  0  0  0  0  0  0  0  0
   -0.2310   11.1460   -6.9460 N   0  0  0  0  0  0  0  0  0  0  0  0
    0.9530   10.8640   -7.7730 C   0  0  0  0  0  0  0  0  0  0  0  0
    0.1910   11.5860   -5.5940 N   0  0  0  0  0  0  0  0  0  0  0  0
   -1.0800   11.5130   -4.8930 C   0  0  1  0  0  0  0  0  0  0  0  0
   -1.8260   12.8460   -4.9850 C   0  0  0  0  0  0  0  0  0  0  0  0
    0.8090   12.9310   -5.5240 C   0  0  0  0  0  0  0  0  0  0  0  0
    0.5920   10.8450   -9.2640 C   0  0  0  0  0  0  0  0  0  0  0  0
    1.7410   13.0360   -4.3190 C   0  0  0  0  0  0  0  0  0  0  0  0
    0.8380    9.4700   -9.8860 C   0  0  0  0  0  0  0  0  0  0  0  0
    1.1820   12.3480   -3.0890 C   0  0  0  0  0  0  0  0  0  0  0  0
    1.6900    9.6850  -11.0270 N   0  0  0  0  0  0  0  0  0  0  0  0
    0.7470   11.2090   -3.0760 O   0  0  0  0  0  0  0  0  0  0  0  0
    1.1950   13.0950   -1.9660 O   0  0  0  0  0  0  0  0  0  0  0  0
    2.7070    8.9530  -11.3680 C   0  0  0  0  0  0  0  0  0  0  0  0
    3.1940    7.8050  -10.7320 N   0  0  0  0  0  0  0  0  0  0  0  0
    3.3540    9.5620  -12.5890 C   0  0  0  0  0  0  0  0  0  0  0  0
    2.6900    7.0330   -9.7050 C   0  0  0  0  0  0  0  0  0  0  0  0
    4.4510    8.9650  -13.2150 C   0  0  0  0  0  0  0  0  0  0  0  0
    2.8340   10.7660  -13.0910 C   0  0  0  0  0  0  0  0  0  0  0  0
    3.1710    5.8970   -9.2320 N   0  0  0  0  0  0  0  0  0  0  0  0
    1.2490    7.5380   -8.8810 S   0  0  0  0  0  0  0  0  0  0  0  0
    5.0230    9.5740  -14.3390 C   0  0  0  0  0  0  0  0  0  0  0  0
    3.4080   11.3700  -14.2110 C   0  0  0  0  0  0  0  0  0  0  0  0
    1.2950    6.1710   -7.8590 C   0  0  0  0  0  0  0  0  0  0  0  0
    2.3800    5.4130   -8.1920 C   0  0  0  0  0  0  0  0  0  0  0  0
    4.5040   10.7710  -14.8330 C   0  0  0  0  0  0  0  0  0  0  0  0
  2  1  1  6
  2  3  1  0
  2  4  1  0
  4  5  1  0
  4  6  1  0
  3  7  1  0
  6  7  1  0
  7  8  1  6
  6  9  1  0
  5 10  1  0
  9 11  1  0
 10 12  1  0
 11 13  1  0
 12 14  1  0
 13 15  2  0
 13 16  1  0
 14 17  2  3
 17 18  1  0
 17 19  1  0
 18 20  1  0
 19 21  2  0
 19 22  1  0
 20 23  2  0
 20 24  1  0
 21 25  1  0
 22 26  2  0
 24 27  1  0
 23 28  1  0
 27 28  2  0
 25 29  2  0
 26 29  1  0
M  END
