diamond-x0591_0_A-mac-x0568
     RDKit          3D

 22 23  0  0  0  0  0  0  0  0999 V2000
   -6.0260   15.0970   -2.2700 N   0  0  0  0  0  0  0  0  0  0  0  0
   -5.4720   13.8590   -2.0630 C   0  0  0  0  0  0  0  0  0  0  0  0
   -5.9470   13.1560   -1.0840 N   0  0  0  0  0  0  0  0  0  0  0  0
   -4.3840   13.5040   -2.9690 C   0  0  0  0  0  0  0  0  0  0  0  0
   -3.4150   12.5840   -2.5790 C   0  0  0  0  0  0  0  0  0  0  0  0
   -4.3550   14.1310   -4.2150 C   0  0  0  0  0  0  0  0  0  0  0  0
   -6.8690   13.8730   -0.4410 N   0  0  0  0  0  0  0  0  0  0  0  0
   -2.3840   12.2810   -3.4580 C   0  0  0  0  0  0  0  0  0  0  0  0
   -3.3290   13.8330   -5.0940 C   0  0  0  0  0  0  0  0  0  0  0  0
   -6.9950   13.5980    0.8980 C   0  0  0  0  0  0  0  0  0  0  0  0
   -6.4760   15.2690   -0.7090 C   0  0  0  0  0  0  0  0  0  0  0  0
   -2.3530   12.9080   -4.7020 C   0  0  0  0  0  0  0  0  0  0  0  0
   -5.1140   15.5810   -0.0180 C   0  0  2  0  0  0  0  0  0  0  0  0
   -6.1250   14.0550    1.7940 C   0  0  0  0  0  0  0  0  0  0  0  0
   -1.0500   12.5320   -5.8260 S   0  0  0  0  0  0  0  0  0  0  0  0
   -3.8820   15.3710   -0.9000 C   0  0  0  0  0  0  0  0  0  0  0  0
   -4.9550   14.8990    1.3620 C   0  0  0  0  0  0  0  0  0  0  0  0
   -0.0300   13.8530   -5.6100 N   0  0  0  0  0  0  0  0  0  0  0  0
   -0.3780   11.3510   -5.3440 O   0  0  0  0  0  0  0  0  0  0  0  0
   -1.6080   12.6330   -7.1490 O   0  0  0  0  0  0  0  0  0  0  0  0
   -3.8680   15.6540   -2.0920 O   0  0  0  0  0  0  0  0  0  0  0  0
   -2.7680   14.8540   -0.3130 N   0  0  0  0  0  0  0  0  0  0  0  0
  1  2  1  0
  2  3  2  3
  2  4  1  0
  4  5  2  0
  4  6  1  0
  3  7  1  0
  5  8  1  0
  6  9  2  0
  7 10  1  0
  7 11  1  0
  8 12  2  0
  9 12  1  0
 11 13  1  0
 10 14  2  0
 12 15  1  0
 13 16  1  6
 13 17  1  0
 14 17  1  0
 15 18  1  0
 15 19  2  0
 15 20  2  0
 16 21  2  0
 16 22  1  0
M  END
