diamond-x0282_0_A-mac-x0333
     RDKit          3D

 18 20  0  0  0  0  0  0  0  0999 V2000
   -6.5860   13.0600    0.0910 C   0  0  0  0  0  0  0  0  0  0  0  0
   -7.9800   12.7970   -0.0460 O   0  0  0  0  0  0  0  0  0  0  0  0
   -6.4340   14.5470    0.3800 C   0  0  1  0  0  0  0  0  0  0  0  0
   -5.7070   14.6510    1.7290 C   0  0  0  0  0  0  0  0  0  0  0  0
   -5.7310   15.3090   -0.7390 C   0  0  1  0  0  0  0  0  0  0  0  0
   -7.8840   14.9820    0.1050 C   0  0  0  0  0  0  0  0  0  0  0  0
   -4.2010   14.9640    1.6040 C   0  0  0  0  0  0  0  0  0  0  0  0
   -4.1830   15.1550   -0.8450 C   0  0  2  0  0  0  0  0  0  0  0  0
   -6.4920   14.8730   -1.8760 O   0  0  0  0  0  0  0  0  0  0  0  0
   -7.8630   15.0500   -1.4380 C   0  0  0  0  0  0  0  0  0  0  0  0
   -3.7300   14.5450   -2.0660 O   0  0  0  0  0  0  0  0  0  0  0  0
   -3.6540   14.4840    0.3350 N   0  0  0  0  0  0  0  0  0  0  0  0
   -2.2710   14.5180    0.2820 C   0  0  0  0  0  0  0  0  0  0  0  0
   -1.7540   14.5480   -0.9530 N   0  0  0  0  0  0  0  0  0  0  0  0
   -1.5070   14.5280    1.4040 N   0  0  0  0  0  0  0  0  0  0  0  0
   -0.4340   14.5990   -1.0910 C   0  0  0  0  0  0  0  0  0  0  0  0
   -0.1790   14.5770    1.2080 C   0  0  0  0  0  0  0  0  0  0  0  0
    0.4110   14.6190   -0.0400 C   0  0  0  0  0  0  0  0  0  0  0  0
  1  2  1  0
  3  1  1  6
  3  4  1  0
  3  5  1  0
  3  6  1  0
  4  7  1  0
  5  8  1  0
  5  9  1  6
  6 10  1  0
  9 10  1  0
  8 11  1  6
  7 12  1  0
  8 12  1  0
 12 13  1  0
 13 14  2  0
 13 15  1  0
 14 16  1  0
 15 17  2  0
 16 18  2  0
 17 18  1  0
M  END
