diamond-x0471_0_A-mac-x0190
     RDKit          3D

 16 17  0  0  0  0  0  0  0  0999 V2000
   -8.8080   14.1080    2.8440 N   0  0  0  0  0  0  0  0  0  0  0  0
   -9.1770   15.1310    3.6810 C   0  0  0  0  0  0  0  0  0  0  0  0
   -9.4580   16.2430    3.2450 O   0  0  0  0  0  0  0  0  0  0  0  0
   -8.8890   14.2850    1.4090 C   0  0  0  0  0  0  0  0  0  0  0  0
   -9.2610   14.8320    5.1780 C   0  0  0  0  0  0  0  0  0  0  0  0
   -7.5140   14.5290    0.8860 C   0  0  0  0  0  0  0  0  0  0  0  0
   -9.6320   13.3820    5.4580 C   0  0  0  0  0  0  0  0  0  0  0  0
   -8.0010   15.2750    5.9110 C   0  0  0  0  0  0  0  0  0  0  0  0
   -7.2430   14.8160   -0.4320 N   0  0  0  0  0  0  0  0  0  0  0  0
   -6.4040   14.5040    1.5930 N   0  0  0  0  0  0  0  0  0  0  0  0
   -5.3870   14.7810    0.7200 C   0  0  0  0  0  0  0  0  0  0  0  0
   -5.8830   14.9840   -0.5620 C   0  0  0  0  0  0  0  0  0  0  0  0
   -5.0720   15.2830   -1.6510 C   0  0  0  0  0  0  0  0  0  0  0  0
   -4.0100   14.8750    0.9530 C   0  0  0  0  0  0  0  0  0  0  0  0
   -3.7000   15.3690   -1.4020 C   0  0  0  0  0  0  0  0  0  0  0  0
   -3.1750   15.1680   -0.1210 C   0  0  0  0  0  0  0  0  0  0  0  0
  1  2  1  0
  2  3  2  0
  1  4  1  0
  2  5  1  0
  4  6  1  0
  5  7  1  0
  5  8  1  0
  6  9  1  0
  6 10  2  0
 10 11  1  0
  9 12  1  0
 11 12  2  0
 12 13  1  0
 11 14  1  0
 13 15  2  0
 14 16  2  0
 15 16  1  0
M  END
