diamond-x0626_0_A-diamond-x0905_0_A
     RDKit          3D

 11 11  0  0  0  0  0  0  0  0999 V2000
   -4.8960   14.9180    1.4320 N   0  0  0  0  0  0  0  0  0  0  0  0
   -6.0210   14.7310    0.6590 C   0  0  0  0  0  0  0  0  0  0  0  0
   -6.1270   14.8480   -0.5570 O   0  0  0  0  0  0  0  0  0  0  0  0
   -3.6360   14.8190    0.9210 C   0  0  0  0  0  0  0  0  0  0  0  0
   -7.2070   14.3490    1.5330 C   0  0  0  0  0  0  0  0  0  0  0  0
   -2.4940   14.6760    1.5520 N   0  0  0  0  0  0  0  0  0  0  0  0
   -3.5610   14.8860   -0.7870 S   0  0  0  0  0  0  0  0  0  0  0  0
   -8.5400   14.6560    0.8750 C   0  0  0  0  0  0  0  0  0  0  0  0
   -1.8600   14.6980   -0.6880 C   0  0  0  0  0  0  0  0  0  0  0  0
   -1.4720   14.6040    0.6370 C   0  0  0  0  0  0  0  0  0  0  0  0
   -0.1080   14.4380    1.1480 C   0  0  0  0  0  0  0  0  0  0  0  0
  1  2  1  0
  2  3  2  0
  1  4  1  0
  2  5  1  0
  4  6  2  0
  4  7  1  0
  5  8  1  0
  7  9  1  0
  6 10  1  0
  9 10  2  0
 10 11  1  0
M  END
