diamond-x0104_0_A-mac-x0348
     RDKit          3D

 33 36  0  0  0  0  0  0  0  0999 V2000
   -6.8210   14.6470    2.6340 N   0  0  0  0  0  0  0  0  0  0  0  0
   -8.0410   15.0680    3.1430 C   0  0  0  0  0  0  0  0  0  0  0  0
   -8.0000   15.1330    4.5330 N   0  0  0  0  0  0  0  0  0  0  0  0
   -6.3050   14.7570    1.3220 C   0  0  0  0  0  0  0  0  0  0  0  0
   -9.0220   15.3460    2.4610 O   0  0  0  0  0  0  0  0  0  0  0  0
   -4.9290   14.9500    1.1870 C   0  0  0  0  0  0  0  0  0  0  0  0
   -7.0460   14.6940    0.1470 C   0  0  0  0  0  0  0  0  0  0  0  0
   -4.2700   15.0800    0.0150 N   0  0  0  0  0  0  0  0  0  0  0  0
   -6.3920   14.8290   -1.0860 C   0  0  0  0  0  0  0  0  0  0  0  0
   -9.1060   15.1150    5.3590 C   0  0  0  0  0  0  0  0  0  0  0  0
   -5.0160   15.0170   -1.0960 C   0  0  0  0  0  0  0  0  0  0  0  0
   -9.2550   15.2120    6.7250 C   0  0  0  0  0  0  0  0  0  0  0  0
  -10.5980   14.9380    4.5550 S   0  0  0  0  0  0  0  0  0  0  0  0
   -4.4000   15.1410   -2.3240 O   0  0  0  0  0  0  0  0  0  0  0  0
  -11.4680   14.9870    6.0320 C   0  0  0  0  0  0  0  0  0  0  0  0
  -10.6290   15.1370    7.1150 C   0  0  0  0  0  0  0  0  0  0  0  0
   -4.0210   13.8850   -2.8990 C   0  0  0  0  0  0  0  0  0  0  0  0
   -2.6450   13.9040   -3.5830 C   0  0  0  0  0  0  0  0  0  0  0  0
   -2.4580   15.0870   -4.4950 C   0  0  0  0  0  0  0  0  0  0  0  0
   -1.2700   15.8410   -4.6340 C   0  0  0  0  0  0  0  0  0  0  0  0
   -3.5600   15.4640   -5.2570 C   0  0  0  0  0  0  0  0  0  0  0  0
    0.0330   15.7620   -4.0500 C   0  0  0  0  0  0  0  0  0  0  0  0
   -1.2490   16.9360   -5.5120 C   0  0  0  0  0  0  0  0  0  0  0  0
   -3.5090   16.5320   -6.1040 C   0  0  0  0  0  0  0  0  0  0  0  0
    0.5820   14.7920   -3.0550 C   0  0  0  0  0  0  0  0  0  0  0  0
    0.0070   17.4850   -5.4540 N   0  0  0  0  0  0  0  0  0  0  0  0
    0.7630   16.7880   -4.5770 C   0  0  0  0  0  0  0  0  0  0  0  0
   -2.3670   17.3030   -6.2590 C   0  0  0  0  0  0  0  0  0  0  0  0
    0.4860   18.6280   -6.1930 C   0  0  0  0  0  0  0  0  0  0  0  0
    0.7060   13.3740   -3.6210 C   0  0  0  0  0  0  0  0  0  0  0  0
    0.5370   12.3500   -2.5240 C   0  0  0  0  0  0  0  0  0  0  0  0
    0.6410   12.5820   -1.3270 O   0  0  0  0  0  0  0  0  0  0  0  0
    0.2400   11.1140   -2.9840 O   0  0  0  0  0  0  0  0  0  0  0  0
  1  2  1  0
  2  3  1  0
  1  4  1  0
  2  5  2  0
  4  6  2  0
  4  7  1  0
  6  8  1  0
  7  9  2  0
  3 10  1  0
  8 11  2  0
  9 11  1  0
 10 12  2  0
 10 13  1  0
 11 14  1  0
 13 15  1  0
 12 16  1  0
 15 16  2  0
 14 17  1  0
 17 18  1  0
 18 19  1  0
 19 20  1  0
 19 21  2  0
 20 22  1  0
 20 23  2  0
 21 24  1  0
 22 25  1  0
 23 26  1  0
 22 27  2  0
 26 27  1  0
 23 28  1  0
 24 28  2  0
 26 29  1  0
 25 30  1  0
 30 31  1  0
 31 32  2  0
 31 33  1  0
M  END
