diamond-x0587_0_A-mac-x0415
     RDKit          3D

 29 31  0  0  0  0  0  0  0  0999 V2000
   -7.8330   14.8600    4.1700 N   0  0  0  0  0  0  0  0  0  0  0  0
   -8.3160   14.9280    2.8980 C   0  0  0  0  0  0  0  0  0  0  0  0
   -9.5100   15.1110    2.6750 O   0  0  0  0  0  0  0  0  0  0  0  0
   -7.3460   14.7900    1.8070 C   0  0  0  0  0  0  0  0  0  0  0  0
   -7.7560   14.5710    0.5110 C   0  0  0  0  0  0  0  0  0  0  0  0
   -5.9850   14.8770    1.9880 C   0  0  0  0  0  0  0  0  0  0  0  0
   -6.8970   14.4520   -0.5280 N   0  0  0  0  0  0  0  0  0  0  0  0
   -5.0850   14.7660    0.9950 N   0  0  0  0  0  0  0  0  0  0  0  0
   -5.5750   14.5580   -0.2430 C   0  0  0  0  0  0  0  0  0  0  0  0
   -4.5660   14.4360   -1.3870 C   0  0  0  0  0  0  0  0  0  0  0  0
   -3.3450   14.9560   -1.0440 F   0  0  0  0  0  0  0  0  0  0  0  0
   -4.3090   13.1460   -1.7480 F   0  0  0  0  0  0  0  0  0  0  0  0
   -4.9550   15.1290   -2.5650 O   0  0  0  0  0  0  0  0  0  0  0  0
   -3.9440   14.9770   -3.5360 C   0  0  0  0  0  0  0  0  0  0  0  0
   -4.5520   14.8110   -4.9280 C   0  0  0  0  0  0  0  0  0  0  0  0
   -3.8250   15.6560   -5.8090 O   0  0  0  0  0  0  0  0  0  0  0  0
   -2.4970   15.7610   -5.4970 C   0  0  0  0  0  0  0  0  0  0  0  0
   -1.9130   17.0730   -5.8270 C   0  0  0  0  0  0  0  0  0  0  0  0
   -1.7400   14.7730   -4.9400 C   0  0  0  0  0  0  0  0  0  0  0  0
   -0.3580   15.0420   -4.6760 C   0  0  0  0  0  0  0  0  0  0  0  0
   -0.7030   17.4300   -5.3480 C   0  0  0  0  0  0  0  0  0  0  0  0
    0.7010   14.2420   -4.5530 C   0  0  0  0  0  0  0  0  0  0  0  0
   -0.0010   16.4660   -4.4560 C   0  0  2  0  0  0  0  0  0  0  0  0
    0.9220   12.7820   -4.6040 C   0  0  0  0  0  0  0  0  0  0  0  0
    1.7530   15.2350   -4.3540 C   0  0  0  0  0  0  0  0  0  0  0  0
    1.4290   16.4890   -4.3420 N   0  0  0  0  0  0  0  0  0  0  0  0
    0.7490   12.2260   -3.2020 C   0  0  0  0  0  0  0  0  0  0  0  0
   -0.0280   11.1250   -3.1390 O   0  0  0  0  0  0  0  0  0  0  0  0
    1.2390   12.6940   -2.1840 O   0  0  0  0  0  0  0  0  0  0  0  0
  1  2  1  0
  2  3  2  0
  2  4  1  0
  4  5  2  0
  4  6  1  0
  5  7  1  0
  6  8  2  0
  7  9  2  0
  8  9  1  0
  9 10  1  0
 10 11  1  0
 10 12  1  0
 10 13  1  0
 13 14  1  0
 14 15  1  0
 15 16  1  0
 16 17  1  0
 17 18  1  0
 17 19  2  0
 19 20  1  0
 18 21  2  0
 20 22  2  0
 20 23  1  0
 23 21  1  6
 22 24  1  0
 22 25  1  0
 23 26  1  0
 25 26  2  0
 24 27  1  0
 27 28  1  0
 27 29  2  0
M  END
