diamond-x0950_0_A-diamond-x0844_0_A
     RDKit          3D

 17 17  0  0  0  0  0  0  0  0999 V2000
    2.8250   12.9300   -3.8700 C   0  0  0  0  0  0  0  0  0  0  0  0
    1.3120   12.8120   -3.9380 C   0  0  1  0  0  0  0  0  0  0  0  0
    0.9740   12.2670   -5.2220 O   0  0  0  0  0  0  0  0  0  0  0  0
    0.7270   11.9440   -2.8050 C   0  0  0  0  0  0  0  0  0  0  0  0
    0.2900   10.8150   -3.0130 O   0  0  0  0  0  0  0  0  0  0  0  0
    0.7460   12.5320   -1.5630 O   0  0  0  0  0  0  0  0  0  0  0  0
    0.2570   13.8770   -1.4410 C   0  0  0  0  0  0  0  0  0  0  0  0
   -1.2590   13.9430   -1.2170 C   0  0  0  0  0  0  0  0  0  0  0  0
   -2.0430   14.4320   -2.4390 C   0  0  0  0  0  0  0  0  0  0  0  0
   -3.1260   15.2870   -2.0560 O   0  0  0  0  0  0  0  0  0  0  0  0
   -4.0090   14.7180   -1.0780 C   0  0  1  0  0  0  0  0  0  0  0  0
   -3.5580   15.1570    0.2750 C   0  0  0  0  0  0  0  0  0  0  0  0
   -5.4730   15.0830   -1.3270 C   0  0  0  0  0  0  0  0  0  0  0  0
   -4.4100   15.1940    1.2940 C   0  0  0  0  0  0  0  0  0  0  0  0
   -6.3460   14.8720   -0.1110 C   0  0  0  0  0  0  0  0  0  0  0  0
   -7.5700   14.7580   -0.1870 O   0  0  0  0  0  0  0  0  0  0  0  0
   -5.7080   14.8190    1.1010 N   0  0  0  0  0  0  0  0  0  0  0  0
  2  1  1  1
  2  3  1  0
  2  4  1  0
  4  5  2  0
  4  6  1  0
  6  7  1  0
  7  8  1  0
  8  9  1  0
  9 10  1  0
 11 10  1  6
 11 12  1  0
 11 13  1  0
 12 14  2  0
 13 15  1  0
 15 16  2  0
 14 17  1  0
 15 17  1  0
M  END
