diamond-x0290_0_A-mac-x0337
     RDKit          3D

 23 24  0  0  0  0  0  0  0  0999 V2000
   -7.6540   13.8910    1.4670 N   0  0  0  0  0  0  0  0  0  0  0  0
   -8.4020   14.8950    0.7180 C   0  0  0  0  0  0  0  0  0  0  0  0
   -6.4280   14.3940    2.1210 C   0  0  0  0  0  0  0  0  0  0  0  0
   -5.2620   14.5020    1.1240 C   0  0  0  0  0  0  0  0  0  0  0  0
   -5.3720   14.9470   -0.0940 N   0  0  0  0  0  0  0  0  0  0  0  0
   -4.0000   14.0570    1.5800 N   0  0  0  0  0  0  0  0  0  0  0  0
   -4.1380   14.9350   -1.1100 S   0  0  0  0  0  0  0  0  0  0  0  0
   -2.7200   14.2280    0.9650 C   0  0  0  0  0  0  0  0  0  0  0  0
   -4.3920   15.6880   -2.3180 O   0  0  0  0  0  0  0  0  0  0  0  0
   -2.8980   15.1540   -0.3920 O   0  0  0  0  0  0  0  0  0  0  0  0
   -1.6860   14.3970    1.8280 N   0  0  0  0  0  0  0  0  0  0  0  0
   -2.4790   14.2240   -0.4100 C   0  0  0  0  0  0  0  0  0  0  0  0
   -4.4250   13.2130   -1.5230 C   0  0  0  0  0  0  0  0  0  0  0  0
   -0.4420   14.5560    1.3220 C   0  0  0  0  0  0  0  0  0  0  0  0
   -1.1860   14.4010   -0.9230 C   0  0  0  0  0  0  0  0  0  0  0  0
   -3.5540   12.4360   -2.2980 C   0  0  0  0  0  0  0  0  0  0  0  0
   -5.6110   12.6600   -1.0160 C   0  0  0  0  0  0  0  0  0  0  0  0
   -0.9680   14.4060   -2.4060 C   0  0  0  0  0  0  0  0  0  0  0  0
   -0.1420   14.5700   -0.0250 C   0  0  0  0  0  0  0  0  0  0  0  0
   -3.8980   11.1010   -2.5610 C   0  0  0  0  0  0  0  0  0  0  0  0
   -5.9430   11.3410   -1.2810 C   0  0  0  0  0  0  0  0  0  0  0  0
   -5.0930   10.5470   -2.0600 C   0  0  0  0  0  0  0  0  0  0  0  0
   -5.4620    9.1180   -2.3490 C   0  0  0  0  0  0  0  0  0  0  0  0
  1  2  1  0
  1  3  1  0
  3  4  1  0
  4  5  2  3
  4  6  1  0
  7  5  1  0
  6  8  1  0
  7  9  2  0
  7 10  2  0
  8 11  2  0
  8 12  1  0
  7 13  1  0
 11 14  1  0
 12 15  2  0
 13 16  2  0
 13 17  1  0
 15 18  1  0
 14 19  2  0
 15 19  1  0
 16 20  1  0
 17 21  2  0
 20 22  2  0
 21 22  1  0
 22 23  1  0
M  END
