diamond-x0724_0_A-mac-x0204
     RDKit          3D

 26 28  0  0  0  0  0  0  0  0999 V2000
   -8.3240   13.7800    4.4250 N   0  0  0  0  0  0  0  0  0  0  0  0
   -8.7290   14.0070    5.8050 C   0  0  0  0  0  0  0  0  0  0  0  0
   -8.6530   14.9250    3.5840 C   0  0  0  0  0  0  0  0  0  0  0  0
   -7.9040   14.7980    2.3060 C   0  0  0  0  0  0  0  0  0  0  0  0
   -6.5490   14.8220    2.1320 C   0  0  0  0  0  0  0  0  0  0  0  0
   -8.4030   14.6330    0.9970 C   0  0  0  0  0  0  0  0  0  0  0  0
   -7.4340   14.5640    0.0710 N   0  0  0  0  0  0  0  0  0  0  0  0
   -6.2880   14.6890    0.7900 N   0  0  0  0  0  0  0  0  0  0  0  0
   -4.9900   14.6910    0.2360 C   0  0  0  0  0  0  0  0  0  0  0  0
   -3.9370   14.8390    1.1290 C   0  0  0  0  0  0  0  0  0  0  0  0
   -4.7310   14.5590   -1.1400 C   0  0  0  0  0  0  0  0  0  0  0  0
   -2.6380   14.8590    0.6810 C   0  0  0  0  0  0  0  0  0  0  0  0
   -3.4000   14.5810   -1.5910 C   0  0  0  0  0  0  0  0  0  0  0  0
   -2.3470   14.7340   -0.6590 C   0  0  0  0  0  0  0  0  0  0  0  0
   -0.8850   14.7840   -1.0030 C   0  0  0  0  0  0  0  0  0  0  0  0
   -0.2420   13.4950   -1.4230 C   0  0  0  0  0  0  0  0  0  0  0  0
    0.2750   13.6860   -2.8370 C   0  0  0  0  0  0  0  0  0  0  0  0
    1.1800   12.6490   -3.1230 O   0  0  0  0  0  0  0  0  0  0  0  0
    1.0540   14.8790   -2.8500 O   0  0  0  0  0  0  0  0  0  0  0  0
   -0.8520   13.8490   -3.8360 C   0  0  0  0  0  0  0  0  0  0  0  0
   -1.2530   15.1080   -4.3400 C   0  0  0  0  0  0  0  0  0  0  0  0
   -1.5580   12.7410   -4.3000 C   0  0  0  0  0  0  0  0  0  0  0  0
   -2.3060   15.1790   -5.2510 C   0  0  0  0  0  0  0  0  0  0  0  0
   -2.5830   12.7850   -5.1850 N   0  0  0  0  0  0  0  0  0  0  0  0
   -2.7470   16.3570   -5.7810 O   0  0  0  0  0  0  0  0  0  0  0  0
   -2.9320   14.0090   -5.6390 C   0  0  0  0  0  0  0  0  0  0  0  0
  1  2  1  0
  1  3  1  0
  3  4  1  0
  4  5  2  0
  4  6  1  0
  6  7  2  0
  5  8  1  0
  7  8  1  0
  8  9  1  0
  9 10  2  0
  9 11  1  0
 10 12  1  0
 11 13  2  0
 12 14  2  0
 13 14  1  0
 14 15  1  0
 15 16  1  0
 16 17  1  0
 17 18  1  0
 17 19  1  0
 17 20  1  0
 20 21  2  0
 20 22  1  0
 21 23  1  0
 22 24  2  0
 23 25  1  0
 23 26  2  0
 24 26  1  0
M  END
