diamond-x0471_0_A-mac-x0341
     RDKit          3D

 17 18  0  0  0  0  0  0  0  0999 V2000
   -8.8200   13.9810    2.7210 N   0  0  0  0  0  0  0  0  0  0  0  0
   -8.9530   14.9370    3.7020 C   0  0  0  0  0  0  0  0  0  0  0  0
   -9.2700   16.0990    3.4630 O   0  0  0  0  0  0  0  0  0  0  0  0
   -8.8520   14.3280    1.3140 C   0  0  0  0  0  0  0  0  0  0  0  0
   -8.6960   14.4370    5.1190 C   0  0  0  0  0  0  0  0  0  0  0  0
   -7.4540   14.5280    0.8020 C   0  0  0  0  0  0  0  0  0  0  0  0
   -9.9050   13.6730    5.6520 C   0  0  0  0  0  0  0  0  0  0  0  0
   -8.2980   15.5850    6.0470 C   0  0  0  0  0  0  0  0  0  0  0  0
   -7.1280   14.5990   -0.6700 N   0  0  1  0  0  0  0  0  0  0  0  0
   -6.4210   14.6510    1.5860 N   0  0  0  0  0  0  0  0  0  0  0  0
   -7.7320   15.6110   -1.3240 O   0  0  0  0  0  0  0  0  0  0  0  0
   -5.3230   14.8460    0.7430 C   0  0  0  0  0  0  0  0  0  0  0  0
   -5.6990   14.8340   -0.5930 C   0  0  0  0  0  0  0  0  0  0  0  0
   -4.8000   15.0190   -1.6190 C   0  0  0  0  0  0  0  0  0  0  0  0
   -4.0110   15.0380    1.1030 C   0  0  0  0  0  0  0  0  0  0  0  0
   -3.4710   15.2140   -1.2640 C   0  0  0  0  0  0  0  0  0  0  0  0
   -3.0800   15.2190    0.0900 C   0  0  0  0  0  0  0  0  0  0  0  0
  1  2  1  0
  2  3  2  0
  1  4  1  0
  2  5  1  0
  4  6  1  0
  5  7  1  0
  5  8  1  0
  6  9  1  0
  6 10  2  0
  9 11  1  1
 10 12  1  0
  9 13  1  0
 12 13  2  0
 13 14  1  0
 12 15  1  0
 14 16  2  0
 15 17  2  0
 16 17  1  0
M  CHG  2   9   1  11  -1
M  END
