diamond-x0837_0_A-diamond-x0852_0_B
     RDKit          3D

 19 20  0  0  0  0  0  0  0  0999 V2000
   -7.8210   15.3960   -0.8530 O   0  0  0  0  0  0  0  0  0  0  0  0
   -6.7410   15.0320   -0.4270 C   0  0  0  0  0  0  0  0  0  0  0  0
   -6.5300   14.6840    0.8800 N   0  0  0  0  0  0  0  0  0  0  0  0
   -5.5860   14.9240   -1.3360 C   0  0  0  0  0  0  0  0  0  0  0  0
   -7.7390   14.1310    1.5550 C   0  0  0  0  0  0  0  0  0  0  0  0
   -5.2350   14.6960    1.4150 C   0  0  0  0  0  0  0  0  0  0  0  0
   -4.3530   14.7790   -0.8460 C   0  0  0  0  0  0  0  0  0  0  0  0
   -2.7880   14.5820   -2.1800 I   0  0  0  0  0  0  0  0  0  0  0  0
   -4.1550   14.7450    0.5970 C   0  0  0  0  0  0  0  0  0  0  0  0
   -8.3240   15.0390    2.6270 C   0  0  0  0  0  0  0  0  0  0  0  0
   -7.8100   14.7780    3.8760 C   0  0  0  0  0  0  0  0  0  0  0  0
   -9.2780   16.0750    2.5260 C   0  0  0  0  0  0  0  0  0  0  0  0
  -10.1520   16.5960    0.9140 Br  0  0  0  0  0  0  0  0  0  0  0  0
   -8.1640   15.4780    5.0140 C   0  0  0  0  0  0  0  0  0  0  0  0
   -9.6240   16.7930    3.6910 C   0  0  0  0  0  0  0  0  0  0  0  0
   -7.5500   15.0760    6.1550 O   0  0  0  0  0  0  0  0  0  0  0  0
   -9.0760   16.5030    4.9380 C   0  0  0  0  0  0  0  0  0  0  0  0
   -9.4620   17.2500    6.0970 C   0  0  0  0  0  0  0  0  0  0  0  0
   -9.7720   17.8090    7.0690 N   0  0  0  0  0  0  0  0  0  0  0  0
  1  2  2  0
  2  3  1  0
  2  4  1  0
  3  5  1  0
  3  6  1  0
  4  7  2  0
  7  8  1  0
  6  9  2  0
  7  9  1  0
  5 10  1  0
 10 11  2  0
 10 12  1  0
 12 13  1  0
 11 14  1  0
 12 15  2  0
 14 16  1  0
 14 17  2  0
 15 17  1  0
 17 18  1  0
 18 19  3  0
M  END
