diamond-x1092_0_B-diamond-x0933_3_B
     RDKit          3D

 28 32  0  0  0  0  0  0  0  0999 V2000
   -9.8280   34.4900    7.3750 C   0  0  0  0  0  0  0  0  0  0  0  0
   -8.8160   35.5230    7.2190 N   0  0  0  0  0  0  0  0  0  0  0  0
   -7.6800   35.7370    7.9990 C   0  0  0  0  0  0  0  0  0  0  0  0
   -8.8610   36.4830    6.2310 C   0  0  0  0  0  0  0  0  0  0  0  0
   -7.0100   36.8050    7.4630 C   0  0  0  0  0  0  0  0  0  0  0  0
   -7.7360   37.2870    6.3770 C   0  0  0  0  0  0  0  0  0  0  0  0
   -7.2100   34.9990    9.2320 C   0  0  2  0  0  0  0  0  0  0  0  0
   -9.7920   36.7170    5.2290 C   0  0  0  0  0  0  0  0  0  0  0  0
   -8.4610   34.9310   10.1420 C   0  0  1  0  0  0  0  0  0  0  0  0
   -6.1800   35.8800   10.1130 C   0  0  2  0  0  0  0  0  0  0  0  0
   -5.7430   37.2930    8.0330 C   0  0  0  0  0  0  0  0  0  0  0  0
   -7.5310   38.3520    5.5060 C   0  0  0  0  0  0  0  0  0  0  0  0
   -9.5770   37.7950    4.3680 C   0  0  0  0  0  0  0  0  0  0  0  0
   -8.6270   33.6510   10.7490 O   0  0  0  0  0  0  0  0  0  0  0  0
   -4.7470   35.2800   10.2970 C   0  0  0  0  0  0  0  0  0  0  0  0
   -6.7910   35.9450   11.4560 N   0  0  0  0  0  0  0  0  0  0  0  0
   -8.2280   35.9860   11.2190 C   0  0  0  0  0  0  0  0  0  0  0  0
   -5.9320   37.3050    9.5400 C   0  0  0  0  0  0  0  0  0  0  0  0
   -8.4610   38.5920    4.5190 C   0  0  0  0  0  0  0  0  0  0  0  0
   -3.4810   36.1800   10.0630 C   0  0  0  0  0  0  0  0  0  0  0  0
   -2.1700   35.6160   10.7050 C   0  0  0  0  0  0  0  0  0  0  0  0
   -0.8190   35.9960   10.1420 N   0  0  0  0  0  0  0  0  0  0  0  0
    0.0490   34.8470    9.9830 C   0  0  2  0  0  0  0  0  0  0  0  0
   -0.8360   36.8690    8.9430 C   0  0  0  0  0  0  0  0  0  0  0  0
    0.6070   34.5420   11.2550 N   0  0  0  0  0  0  0  0  0  0  0  0
    1.2100   35.0230    9.1490 N   0  0  0  0  0  0  0  0  0  0  0  0
   -0.3560   36.1750    7.6610 C   0  0  0  0  0  0  0  0  0  0  0  0
    1.0050   35.5090    7.7960 C   0  0  0  0  0  0  0  0  0  0  0  0
  1  2  1  0
  2  3  1  0
  2  4  1  0
  3  5  2  0
  4  6  2  0
  5  6  1  0
  7  3  1  6
  4  8  1  0
  7  9  1  0
  7 10  1  0
  5 11  1  0
  6 12  1  0
  8 13  2  0
  9 14  1  1
 10 15  1  1
 10 16  1  0
  9 17  1  0
 16 17  1  0
 10 18  1  0
 11 18  1  0
 12 19  2  0
 13 19  1  0
 15 20  1  0
 20 21  1  0
 21 22  1  0
 22 23  1  0
 22 24  1  0
 23 25  1  1
 23 26  1  0
 24 27  1  0
 26 28  1  0
 27 28  1  0
M  END
