diamond-x0910_0_A-mac-x0411
     RDKit          3D

 21 22  0  0  0  0  0  0  0  0999 V2000
   -2.7820   14.4590   -1.6520 N   0  0  0  0  0  0  0  0  0  0  0  0
   -1.9640   14.6660   -0.6060 C   0  0  0  0  0  0  0  0  0  0  0  0
   -2.2980   14.8310    0.6500 N   0  0  0  0  0  0  0  0  0  0  0  0
   -0.6050   14.7400   -0.7180 N   0  0  0  0  0  0  0  0  0  0  0  0
    0.2070   14.6090   -1.9080 C   0  0  0  0  0  0  0  0  0  0  0  0
   -1.1470   15.0190    1.3730 N   0  0  0  0  0  0  0  0  0  0  0  0
   -0.1430   14.9680    0.5420 C   0  0  0  0  0  0  0  0  0  0  0  0
    1.1790   13.4290   -1.8030 C   0  0  0  0  0  0  0  0  0  0  0  0
    1.6960   12.9440   -3.0530 O   0  0  0  0  0  0  0  0  0  0  0  0
    0.9680   12.0120   -3.7380 C   0  0  0  0  0  0  0  0  0  0  0  0
    0.4470   11.0320   -3.2130 O   0  0  0  0  0  0  0  0  0  0  0  0
    0.9490   12.3940   -5.2330 C   0  0  0  0  0  0  0  0  0  0  0  0
    0.6430   11.4530   -6.2650 O   0  0  0  0  0  0  0  0  0  0  0  0
   -0.5280   10.7360   -6.1710 C   0  0  0  0  0  0  0  0  0  0  0  0
   -1.6560   11.1530   -5.4430 C   0  0  0  0  0  0  0  0  0  0  0  0
   -0.5920    9.5010   -6.8590 C   0  0  0  0  0  0  0  0  0  0  0  0
    0.7220    8.8900   -7.8030 Cl  0  0  0  0  0  0  0  0  0  0  0  0
   -1.7300   12.6370   -4.5650 Cl  0  0  0  0  0  0  0  0  0  0  0  0
   -2.8050   10.3560   -5.4000 C   0  0  0  0  0  0  0  0  0  0  0  0
   -1.7450    8.7170   -6.8050 C   0  0  0  0  0  0  0  0  0  0  0  0
   -2.8500    9.1400   -6.0780 C   0  0  0  0  0  0  0  0  0  0  0  0
  1  2  1  0
  2  3  2  0
  2  4  1  0
  4  5  1  0
  3  6  1  0
  4  7  1  0
  6  7  2  0
  5  8  1  0
  8  9  1  0
  9 10  1  0
 10 11  2  0
 10 12  1  0
 12 13  1  0
 13 14  1  0
 14 15  2  0
 14 16  1  0
 16 17  1  0
 15 18  1  0
 15 19  1  0
 16 20  2  0
 19 21  2  0
 20 21  1  0
M  END
