diamond-x0676_0_B-mac-x0441
     RDKit          3D

 31 34  0  0  0  0  0  0  0  0999 V2000
    5.8990    6.6940   -9.2390 C   0  0  0  0  0  0  0  0  0  0  0  0
    4.8810    7.2060  -10.1950 C   0  0  0  0  0  0  0  0  0  0  0  0
    5.1380    7.6280  -11.3990 N   0  0  0  0  0  0  0  0  0  0  0  0
    3.4400    7.2740   -9.8220 C   0  0  0  0  0  0  0  0  0  0  0  0
    2.8880    7.9600  -11.0420 C   0  0  0  0  0  0  0  0  0  0  0  0
    3.9190    8.0420  -11.9510 N   0  0  0  0  0  0  0  0  0  0  0  0
    1.6990    8.3700  -11.1330 N   0  0  0  0  0  0  0  0  0  0  0  0
    3.9810    9.1280  -12.8730 C   0  0  0  0  0  0  0  0  0  0  0  0
    0.9400    8.1910   -9.9400 C   0  0  0  0  0  0  0  0  0  0  0  0
    3.0640   10.1990  -12.8460 C   0  0  0  0  0  0  0  0  0  0  0  0
    4.9730    9.1820  -13.8610 C   0  0  0  0  0  0  0  0  0  0  0  0
    1.4890    9.1040   -9.0150 O   0  0  0  0  0  0  0  0  0  0  0  0
    3.1320   11.2650  -13.7510 C   0  0  0  0  0  0  0  0  0  0  0  0
    5.0470   10.2420  -14.7710 C   0  0  0  0  0  0  0  0  0  0  0  0
    0.9190   10.3910   -9.1720 C   0  0  0  0  0  0  0  0  0  0  0  0
    4.1280   11.2850  -14.7170 C   0  0  0  0  0  0  0  0  0  0  0  0
   -0.1160   10.3010  -10.0430 F   0  0  0  0  0  0  0  0  0  0  0  0
    1.7510   11.2230   -9.8220 F   0  0  0  0  0  0  0  0  0  0  0  0
    0.4500   10.8530   -7.8390 C   0  0  0  0  0  0  0  0  0  0  0  0
    0.9370   11.8320   -7.0330 N   0  0  0  0  0  0  0  0  0  0  0  0
   -0.6460   10.2250   -7.2860 C   0  0  0  0  0  0  0  0  0  0  0  0
    0.0940   11.7980   -5.9620 N   0  0  0  0  0  0  0  0  0  0  0  0
   -0.8660   10.8330   -6.1050 C   0  0  0  0  0  0  0  0  0  0  0  0
   -1.4590    9.1090   -7.8360 C   0  0  0  0  0  0  0  0  0  0  0  0
    0.3160   12.7520   -4.8830 C   0  0  0  0  0  0  0  0  0  0  0  0
   -2.2540    8.4370   -6.7190 C   0  0  0  0  0  0  0  0  0  0  0  0
   -1.9590   10.4770   -5.2030 C   0  0  0  0  0  0  0  0  0  0  0  0
    0.6690   12.1160   -3.5540 C   0  0  0  0  0  0  0  0  0  0  0  0
   -2.9460    9.4830   -5.8430 C   0  0  0  0  0  0  0  0  0  0  0  0
    0.4190   10.7890   -3.4550 O   0  0  0  0  0  0  0  0  0  0  0  0
    1.1480   12.7450   -2.6080 O   0  0  0  0  0  0  0  0  0  0  0  0
  1  2  1  0
  2  3  2  0
  2  4  1  0
  4  5  1  0
  3  6  1  0
  5  6  1  0
  5  7  2  3
  6  8  1  0
  7  9  1  0
  8 10  2  0
  8 11  1  0
  9 12  1  0
 10 13  1  0
 11 14  2  0
 12 15  1  0
 13 16  2  0
 14 16  1  0
 15 17  1  0
 15 18  1  0
 15 19  1  0
 19 20  2  0
 19 21  1  0
 20 22  1  0
 21 23  2  0
 22 23  1  0
 21 24  1  0
 22 25  1  0
 24 26  1  0
 23 27  1  0
 25 28  1  0
 26 29  1  0
 27 29  1  0
 28 30  1  0
 28 31  2  0
M  END
