diamond-x0962_0_A-mac-x0437
     RDKit          3D

 24 26  0  0  0  0  0  0  0  0999 V2000
   -2.7450   15.0820   -2.3800 N   0  0  0  0  0  0  0  0  0  0  0  0
   -2.5270   14.4370   -1.0960 C   0  0  1  0  0  0  0  0  0  0  0  0
   -1.1450   14.8140   -0.5210 C   0  0  0  0  0  0  0  0  0  0  0  0
   -3.6450   14.7430   -0.1770 C   0  0  0  0  0  0  0  0  0  0  0  0
   -0.2360   13.6260   -0.3040 C   0  0  0  0  0  0  0  0  0  0  0  0
   -3.4670   15.1960    1.1000 N   0  0  0  0  0  0  0  0  0  0  0  0
   -5.0130   14.6630   -0.3300 C   0  0  0  0  0  0  0  0  0  0  0  0
   -0.1960   12.7920   -1.5690 C   0  0  0  0  0  0  0  0  0  0  0  0
   -4.6960   15.3610    1.6530 C   0  0  0  0  0  0  0  0  0  0  0  0
   -5.6520   15.0430    0.8100 N   0  0  0  0  0  0  0  0  0  0  0  0
    1.1120   12.8310   -2.1410 O   0  0  0  0  0  0  0  0  0  0  0  0
    1.0970   12.0990   -3.2700 C   0  0  0  0  0  0  0  0  0  0  0  0
    0.7230   10.9410   -3.2960 O   0  0  0  0  0  0  0  0  0  0  0  0
    1.5620   12.8960   -4.4650 C   0  0  0  0  0  0  0  0  0  0  0  0
    0.4250   13.1560   -5.4460 C   0  0  0  0  0  0  0  0  0  0  0  0
   -0.4290   12.0020   -5.6530 N   0  0  0  0  0  0  0  0  0  0  0  0
   -1.5700   11.7150   -4.9530 C   0  0  0  0  0  0  0  0  0  0  0  0
   -0.2380   11.0120   -6.5750 C   0  0  0  0  0  0  0  0  0  0  0  0
   -2.1250   10.5970   -5.3660 N   0  0  0  0  0  0  0  0  0  0  0  0
   -1.3080   10.1450   -6.3730 C   0  0  0  0  0  0  0  0  0  0  0  0
    0.7400   10.7900   -7.5430 C   0  0  0  0  0  0  0  0  0  0  0  0
   -1.4160    8.9930   -7.1650 C   0  0  0  0  0  0  0  0  0  0  0  0
    0.6200    9.6400   -8.3250 C   0  0  0  0  0  0  0  0  0  0  0  0
   -0.4400    8.7520   -8.1400 C   0  0  0  0  0  0  0  0  0  0  0  0
  2  1  1  6
  2  3  1  0
  2  4  1  0
  3  5  1  0
  4  6  1  0
  4  7  2  0
  5  8  1  0
  6  9  1  0
  7 10  1  0
  9 10  2  0
  8 11  1  0
 11 12  1  0
 12 13  2  0
 12 14  1  0
 14 15  1  0
 15 16  1  0
 16 17  1  0
 16 18  1  0
 17 19  2  0
 18 20  2  0
 19 20  1  0
 18 21  1  0
 20 22  1  0
 21 23  2  0
 22 24  2  0
 23 24  1  0
M  END
