diamond-x0905_0_A-mac-x0206
     RDKit          3D

 15 16  0  0  0  0  0  0  0  0999 V2000
   -3.5780   14.7160    1.6770 N   0  0  0  0  0  0  0  0  0  0  0  0
   -4.3710   13.9550    0.8580 C   0  0  0  0  0  0  0  0  0  0  0  0
   -3.8800   13.1040    0.1280 O   0  0  0  0  0  0  0  0  0  0  0  0
   -5.8240   14.2580    0.8030 C   0  0  0  0  0  0  0  0  0  0  0  0
   -6.2050   14.9740   -0.2810 C   0  0  0  0  0  0  0  0  0  0  0  0
   -6.7300   13.8510    1.7640 C   0  0  0  0  0  0  0  0  0  0  0  0
   -5.0530   15.2630   -1.0830 C   0  0  0  0  0  0  0  0  0  0  0  0
   -7.5550   15.3160   -0.4590 C   0  0  0  0  0  0  0  0  0  0  0  0
   -8.0710   14.1850    1.6200 C   0  0  0  0  0  0  0  0  0  0  0  0
   -4.0500   15.5540   -0.2230 N   0  0  0  0  0  0  0  0  0  0  0  0
   -4.8840   15.2480   -2.4460 C   0  0  0  0  0  0  0  0  0  0  0  0
   -8.4900   14.9180    0.5070 C   0  0  0  0  0  0  0  0  0  0  0  0
   -2.8450   15.8270   -0.6990 C   0  0  0  0  0  0  0  0  0  0  0  0
   -3.6060   15.5400   -2.9280 C   0  0  0  0  0  0  0  0  0  0  0  0
   -2.5710   15.8310   -2.0410 C   0  0  0  0  0  0  0  0  0  0  0  0
  1  2  1  0
  2  3  2  0
  2  4  1  0
  4  5  2  0
  4  6  1  0
  5  7  1  0
  5  8  1  0
  6  9  2  0
  7 10  2  0
  7 11  1  0
  8 12  2  0
  9 12  1  0
 10 13  1  0
 11 14  2  0
 13 15  2  0
 14 15  1  0
M  END
