diamond-x0421_0_A-diamond-x0128_0_A
     RDKit          3D

 21 23  0  0  0  0  0  0  0  0999 V2000
   -3.5390   15.4230   -2.6350 N   0  0  0  0  0  0  0  0  0  0  0  0
   -2.9950   15.1730   -1.4030 C   0  0  0  0  0  0  0  0  0  0  0  0
   -1.7820   15.0740   -1.2470 O   0  0  0  0  0  0  0  0  0  0  0  0
   -3.9960   15.0100   -0.3600 C   0  0  0  0  0  0  0  0  0  0  0  0
   -4.0480   15.4630    0.9680 C   0  0  0  0  0  0  0  0  0  0  0  0
   -5.1250   14.2940   -0.6510 N   0  0  0  0  0  0  0  0  0  0  0  0
   -5.2640   14.9830    1.4370 N   0  0  0  0  0  0  0  0  0  0  0  0
   -5.8380   14.2950    0.4330 C   0  0  0  0  0  0  0  0  0  0  0  0
   -5.8190   15.1540    2.7140 N   0  0  0  0  0  0  0  0  0  0  0  0
   -7.1810   13.5690    0.4840 C   0  0  0  0  0  0  0  0  0  0  0  0
   -7.2160   15.2500    3.0590 C   0  0  0  0  0  0  0  0  0  0  0  0
   -8.4050   14.3290    0.8750 C   0  0  0  0  0  0  0  0  0  0  0  0
   -7.8260   13.2850    1.8000 C   0  0  0  0  0  0  0  0  0  0  0  0
   -8.1380   15.3600    2.2650 O   0  0  0  0  0  0  0  0  0  0  0  0
   -7.4180   15.2520    4.4330 N   0  0  0  0  0  0  0  0  0  0  0  0
   -8.3100   16.0480    5.2120 C   0  0  0  0  0  0  0  0  0  0  0  0
   -9.0170   17.1750    4.7790 C   0  0  0  0  0  0  0  0  0  0  0  0
   -8.5070   15.6760    6.5470 C   0  0  0  0  0  0  0  0  0  0  0  0
   -9.8560   17.9070    5.5590 N   0  0  0  0  0  0  0  0  0  0  0  0
   -9.3640   16.4130    7.3690 C   0  0  0  0  0  0  0  0  0  0  0  0
  -10.0110   17.5130    6.8340 C   0  0  0  0  0  0  0  0  0  0  0  0
  1  2  1  0
  2  3  2  0
  2  4  1  0
  4  5  2  0
  4  6  1  0
  5  7  1  0
  6  8  2  0
  7  8  1  0
  7  9  1  0
  8 10  1  0
  9 11  1  0
 10 12  1  0
 10 13  1  0
 12 13  1  0
 11 14  2  0
 11 15  1  0
 15 16  1  0
 16 17  2  0
 16 18  1  0
 17 19  1  0
 18 20  2  0
 19 21  2  0
 20 21  1  0
M  END
