diamond-x0282_0_A-diamond-x0910_1_A
     RDKit          3D

 14 15  0  0  0  0  0  0  0  0999 V2000
   -7.0670   13.3440    0.5680 C   0  0  0  0  0  0  0  0  0  0  0  0
   -8.4430   13.5990    0.2960 O   0  0  0  0  0  0  0  0  0  0  0  0
   -6.3520   14.6840    0.6040 C   0  0  0  0  0  0  0  0  0  0  0  0
   -5.4090   14.8320    1.8040 C   0  0  0  0  0  0  0  0  0  0  0  0
   -5.6380   15.0590   -0.7040 C   0  0  0  0  0  0  0  0  0  0  0  0
   -4.1320   14.0230    1.6260 C   0  0  0  0  0  0  0  0  0  0  0  0
   -4.3260   14.2960   -0.8840 C   0  0  0  0  0  0  0  0  0  0  0  0
   -3.5440   14.3400    0.3460 N   0  0  0  0  0  0  0  0  0  0  0  0
   -2.1910   14.4720    0.2690 C   0  0  0  0  0  0  0  0  0  0  0  0
   -1.6820   14.5500   -0.9690 N   0  0  0  0  0  0  0  0  0  0  0  0
   -1.4410   14.5180    1.3920 N   0  0  0  0  0  0  0  0  0  0  0  0
   -0.3710   14.6860   -1.1010 C   0  0  0  0  0  0  0  0  0  0  0  0
   -0.1240   14.6530    1.1980 C   0  0  0  0  0  0  0  0  0  0  0  0
    0.4670   14.7470   -0.0450 C   0  0  0  0  0  0  0  0  0  0  0  0
  1  2  1  0
  1  3  1  0
  3  4  1  0
  3  5  1  0
  4  6  1  0
  5  7  1  0
  6  8  1  0
  7  8  1  0
  8  9  1  0
  9 10  2  0
  9 11  1  0
 10 12  1  0
 11 13  2  0
 12 14  2  0
 13 14  1  0
M  END
