diamond-x0962_2_B-mac-x0142
     RDKit          3D

 26 30  0  0  0  0  0  0  0  0999 V2000
  -10.2030   16.1220    0.9060 N   0  0  0  0  0  0  0  0  0  0  0  0
   -9.4630   15.8170    1.7510 C   0  0  0  0  0  0  0  0  0  0  0  0
   -8.6050   15.5060    2.8430 C   0  0  0  0  0  0  0  0  0  0  0  0
   -8.9800   15.7540    4.1350 N   0  0  0  0  0  0  0  0  0  0  0  0
   -7.3120   14.9480    2.9340 C   0  0  0  0  0  0  0  0  0  0  0  0
   -6.3040   14.4630    1.8920 C   0  0  0  0  0  0  0  0  0  0  0  0
   -7.9660   15.3570    4.9470 C   0  0  0  0  0  0  0  0  0  0  0  0
   -6.9640   14.8690    4.2630 N   0  0  0  0  0  0  0  0  0  0  0  0
   -4.8200   14.9520    2.0750 C   0  0  0  0  0  0  0  0  0  0  0  0
   -4.0610   14.9790    0.7940 N   0  0  0  0  0  0  0  0  0  0  0  0
   -2.6750   14.8600    0.5750 C   0  0  0  0  0  0  0  0  0  0  0  0
   -4.6810   15.1290   -0.4170 C   0  0  0  0  0  0  0  0  0  0  0  0
   -1.7030   14.7050    1.5080 N   0  0  0  0  0  0  0  0  0  0  0  0
   -2.4560   14.9260   -0.8170 C   0  0  0  0  0  0  0  0  0  0  0  0
   -3.7360   15.0980   -1.4120 C   0  0  0  0  0  0  0  0  0  0  0  0
   -0.4760   14.6310    0.9340 C   0  0  0  0  0  0  0  0  0  0  0  0
   -1.1230   14.8170   -1.3170 C   0  0  0  0  0  0  0  0  0  0  0  0
   -0.7950   14.8530   -2.7180 N   0  0  0  0  0  0  0  0  0  0  0  0
   -0.1400   14.6740   -0.3840 N   0  0  0  0  0  0  0  0  0  0  0  0
   -1.8410   14.7660   -3.7640 C   0  0  0  0  0  0  0  0  0  0  0  0
    0.6150   14.9290   -3.1080 C   0  0  0  0  0  0  0  0  0  0  0  0
    0.8950   13.7420   -4.0090 C   0  0  0  0  0  0  0  0  0  0  0  0
   -1.4600   13.8330   -4.9490 C   0  0  0  0  0  0  0  0  0  0  0  0
    2.3200   13.2420   -4.1450 C   0  0  0  0  0  0  0  0  0  0  0  0
    1.3130   12.4350   -3.3730 C   0  0  0  0  0  0  0  0  0  0  0  0
    0.0380   13.7220   -5.2490 C   0  0  0  0  0  0  0  0  0  0  0  0
  1  2  3  0
  2  3  1  0
  3  4  1  0
  3  5  2  0
  5  6  1  0
  4  7  1  0
  5  8  1  0
  7  8  2  0
  6  9  1  0
  9 10  1  0
 10 11  1  0
 10 12  1  0
 11 13  2  0
 11 14  1  0
 12 15  2  0
 14 15  1  0
 13 16  1  0
 14 17  2  0
 17 18  1  0
 16 19  2  0
 17 19  1  0
 18 20  1  0
 18 21  1  0
 22 21  1  0
 20 23  1  0
 22 24  1  0
 22 25  1  0
 24 25  1  0
 22 26  1  0
 23 26  1  0
M  END
