diamond-x0574_0_A-diamond-x0962_2_B
     RDKit          3D

 19 21  0  0  0  0  0  0  0  0999 V2000
    0.1250   14.0110    2.0740 N   0  0  0  0  0  0  0  0  0  0  0  0
   -0.9630   14.2720    1.3740 C   0  0  0  0  0  0  0  0  0  0  0  0
   -2.0920   14.2960    1.9670 N   0  0  0  0  0  0  0  0  0  0  0  0
   -0.9980   14.5850   -0.3090 S   0  0  0  0  0  0  0  0  0  0  0  0
   -3.1040   14.5530    1.0950 C   0  0  0  0  0  0  0  0  0  0  0  0
   -2.7190   14.7510   -0.2220 C   0  0  0  0  0  0  0  0  0  0  0  0
   -4.4480   14.6190    1.4490 C   0  0  0  0  0  0  0  0  0  0  0  0
   -3.6780   15.0300   -1.2130 C   0  0  0  0  0  0  0  0  0  0  0  0
   -5.4170   14.8740    0.5040 C   0  0  0  0  0  0  0  0  0  0  0  0
   -5.0280   15.0850   -0.8260 C   0  0  0  0  0  0  0  0  0  0  0  0
   -6.7650   14.9360    0.7670 O   0  0  0  0  0  0  0  0  0  0  0  0
   -7.2940   14.1620    1.8700 C   0  0  0  0  0  0  0  0  0  0  0  0
   -8.0120   14.9630    2.9130 C   0  0  0  0  0  0  0  0  0  0  0  0
   -9.1200   15.7820    2.8270 C   0  0  0  0  0  0  0  0  0  0  0  0
   -7.5620   14.9520    4.2120 N   0  0  0  0  0  0  0  0  0  0  0  0
   -9.9360   16.1150    1.7210 C   0  0  0  0  0  0  0  0  0  0  0  0
   -9.3110   16.2660    4.0930 N   0  0  0  0  0  0  0  0  0  0  0  0
   -8.3450   15.7350    4.8900 C   0  0  0  0  0  0  0  0  0  0  0  0
  -10.6480   16.4210    0.8610 N   0  0  0  0  0  0  0  0  0  0  0  0
  1  2  1  0
  2  3  2  0
  2  4  1  0
  3  5  1  0
  4  6  1  0
  5  6  2  0
  5  7  1  0
  6  8  1  0
  7  9  2  0
  8 10  2  0
  9 10  1  0
  9 11  1  0
 11 12  1  0
 12 13  1  0
 13 14  2  0
 13 15  1  0
 14 16  1  0
 14 17  1  0
 15 18  2  0
 17 18  1  0
 16 19  3  0
M  END
