diamond-x0104_0_A-mac-x1493
     RDKit          3D

 23 26  0  0  0  0  0  0  0  0999 V2000
   -6.6310   14.8950    2.5720 N   0  0  0  0  0  0  0  0  0  0  0  0
   -7.9360   15.0580    3.0530 C   0  0  0  0  0  0  0  0  0  0  0  0
   -7.9760   15.0460    4.4360 N   0  0  0  0  0  0  0  0  0  0  0  0
   -6.3590   14.3310    1.2520 C   0  0  2  0  0  0  0  0  0  0  0  0
   -8.8880   15.1970    2.2960 O   0  0  0  0  0  0  0  0  0  0  0  0
   -4.8540   14.3480    0.8270 C   0  0  0  0  0  0  0  0  0  0  0  0
   -7.1880   15.0830    0.2200 C   0  0  0  0  0  0  0  0  0  0  0  0
   -4.9160   14.0120   -0.6640 C   0  0  1  0  0  0  0  0  0  0  0  0
   -6.7250   15.5110   -0.9920 C   0  0  0  0  0  0  0  0  0  0  0  0
   -9.1150   15.0570    5.2350 C   0  0  0  0  0  0  0  0  0  0  0  0
   -5.3280   15.1960   -1.4310 C   0  0  1  0  0  0  0  0  0  0  0  0
   -9.1490   15.1830    6.6100 C   0  0  0  0  0  0  0  0  0  0  0  0
  -10.6820   14.9100    4.5850 S   0  0  0  0  0  0  0  0  0  0  0  0
   -3.7900   13.6530   -1.6020 C   0  0  2  0  0  0  0  0  0  0  0  0
   -5.8940   12.8970   -0.9320 C   0  0  0  0  0  0  0  0  0  0  0  0
   -3.1400   15.0220   -1.8020 C   0  0  0  0  0  0  0  0  0  0  0  0
   -4.1510   15.9870   -1.3540 O   0  0  0  0  0  0  0  0  0  0  0  0
  -11.4170   15.0100    6.1250 C   0  0  0  0  0  0  0  0  0  0  0  0
  -10.4830   15.1550    7.1280 C   0  0  0  0  0  0  0  0  0  0  0  0
   -5.9830   13.0650   -2.3730 N   0  0  0  0  0  0  0  0  0  0  0  0
   -4.5790   13.1830   -2.8120 C   0  0  0  0  0  0  0  0  0  0  0  0
   -1.9370   15.1180   -1.0910 O   0  0  0  0  0  0  0  0  0  0  0  0
   -2.8220   15.2060   -3.1650 O   0  0  0  0  0  0  0  0  0  0  0  0
  1  2  1  0
  2  3  1  0
  4  1  1  1
  2  5  2  0
  4  6  1  0
  4  7  1  0
  8  6  1  1
  7  9  2  0
  3 10  1  0
  8 11  1  0
 11  9  1  1
 10 12  2  0
 10 13  1  0
  8 14  1  0
  8 15  1  0
 14 16  1  0
 11 17  1  0
 16 17  1  0
 13 18  1  0
 12 19  1  0
 18 19  2  0
 15 20  1  0
 14 21  1  6
 20 21  1  0
 16 22  1  0
 16 23  1  0
M  END
