diamond-x0626_0_A-mac-x0360
     RDKit          3D

 21 22  0  0  0  0  0  0  0  0999 V2000
   -4.5180   14.6470    0.1280 C   0  0  0  0  0  0  0  0  0  0  0  0
   -5.9280   14.9900    0.5010 C   0  0  0  0  0  0  0  0  0  0  0  0
   -6.5250   15.5860   -0.3780 O   0  0  0  0  0  0  0  0  0  0  0  0
   -3.9840   13.1750   -0.5700 S   0  0  0  0  0  0  0  0  0  0  0  0
   -3.2450   15.1200    0.0440 C   0  0  0  0  0  0  0  0  0  0  0  0
   -6.5940   14.5400    1.7800 C   0  0  0  0  0  0  0  0  0  0  0  0
   -2.3840   13.0500   -1.0280 N   0  0  0  0  0  0  0  0  0  0  0  0
   -2.3680   14.7160    0.9140 N   0  0  0  0  0  0  0  0  0  0  0  0
   -2.7200   16.0580   -1.2350 S   0  0  0  0  0  0  0  0  0  0  0  0
   -5.1180   11.9430   -0.7420 C   0  0  0  0  0  0  0  0  0  0  0  0
   -8.1060   14.5680    1.5930 C   0  0  0  0  0  0  0  0  0  0  0  0
   -1.1390   15.9220   -0.6260 C   0  0  0  0  0  0  0  0  0  0  0  0
   -1.1460   15.1580    0.5120 C   0  0  0  0  0  0  0  0  0  0  0  0
   -5.0810   11.0300   -1.7330 C   0  0  0  0  0  0  0  0  0  0  0  0
   -6.0720   11.9740    0.2480 C   0  0  0  0  0  0  0  0  0  0  0  0
    0.0160   14.7620    1.2910 C   0  0  0  0  0  0  0  0  0  0  0  0
   -6.0540   10.0800   -1.7390 C   0  0  0  0  0  0  0  0  0  0  0  0
   -7.0500   11.0330    0.2490 C   0  0  0  0  0  0  0  0  0  0  0  0
   -8.2410   11.0660    1.4880 Cl  0  0  0  0  0  0  0  0  0  0  0  0
   -5.9890    8.9200   -2.9890 Cl  0  0  0  0  0  0  0  0  0  0  0  0
   -7.0530   10.0650   -0.7540 C   0  0  0  0  0  0  0  0  0  0  0  0
  1  2  1  0
  2  3  2  0
  1  4  2  3
  1  5  1  0
  2  6  1  0
  4  7  1  0
  5  8  2  0
  5  9  1  0
  4 10  1  0
  6 11  1  0
  9 12  1  0
  8 13  1  0
 12 13  2  0
 10 14  2  0
 10 15  1  0
 13 16  1  0
 14 17  1  0
 15 18  2  0
 18 19  1  0
 17 20  1  0
 17 21  2  0
 18 21  1  0
M  END
