diamond-x0950_0_A-mac-x0179
     RDKit          3D

 16 17  0  0  0  0  0  0  0  0999 V2000
    3.0540   12.9990   -4.2170 C   0  0  0  0  0  0  0  0  0  0  0  0
    1.5910   12.9380   -4.5560 C   0  0  1  0  0  0  0  0  0  0  0  0
    1.4320   12.0630   -5.7370 N   0  0  0  0  0  0  0  0  0  0  0  0
    0.9290   12.3360   -3.3070 C   0  0  0  0  0  0  0  0  0  0  0  0
    0.4580   11.2210   -3.1550 O   0  0  0  0  0  0  0  0  0  0  0  0
    0.9180   13.2050   -2.2630 O   0  0  0  0  0  0  0  0  0  0  0  0
    0.2890   11.5630   -5.8680 C   0  0  0  0  0  0  0  0  0  0  0  0
   -0.7330   11.8680   -5.0650 N   0  0  0  0  0  0  0  0  0  0  0  0
   -0.2200   10.5550   -6.8210 C   0  0  0  0  0  0  0  0  0  0  0  0
   -1.4140   10.1140   -6.2530 C   0  0  0  0  0  0  0  0  0  0  0  0
   -1.6030   10.8580   -5.0090 C   0  0  0  0  0  0  0  0  0  0  0  0
    0.2380   10.0360   -8.0180 C   0  0  0  0  0  0  0  0  0  0  0  0
   -2.3830   10.6140   -4.1260 O   0  0  0  0  0  0  0  0  0  0  0  0
   -0.5590    9.0430   -8.6250 C   0  0  0  0  0  0  0  0  0  0  0  0
   -2.2080    9.1500   -6.8270 C   0  0  0  0  0  0  0  0  0  0  0  0
   -1.7690    8.6070   -8.0320 C   0  0  0  0  0  0  0  0  0  0  0  0
  2  1  1  1
  2  3  1  0
  2  4  1  0
  4  5  2  0
  4  6  1  0
  3  7  2  3
  7  8  1  0
  7  9  1  0
  9 10  2  0
  8 11  1  0
 10 11  1  0
  9 12  1  0
 11 13  2  0
 12 14  2  0
 10 15  1  0
 14 16  1  0
 15 16  2  0
M  END
