diamond-x0591_0_A-mac-x0455
     RDKit          3D

 25 26  0  0  0  0  0  0  0  0999 V2000
   -5.8980   14.6220    0.8820 N   0  0  0  0  0  0  0  0  0  0  0  0
   -6.7710   14.5370    2.0270 C   0  0  0  0  0  0  0  0  0  0  0  0
   -6.4140   14.8300   -0.3800 C   0  0  0  0  0  0  0  0  0  0  0  0
   -7.6070   14.9760   -0.6040 O   0  0  0  0  0  0  0  0  0  0  0  0
   -5.4360   14.8650   -1.4970 C   0  0  0  0  0  0  0  0  0  0  0  0
   -4.0650   14.9500   -1.2740 C   0  0  0  0  0  0  0  0  0  0  0  0
   -5.9180   14.8050   -2.8090 C   0  0  0  0  0  0  0  0  0  0  0  0
   -3.1900   14.9770   -2.3570 C   0  0  0  0  0  0  0  0  0  0  0  0
   -5.0410   14.8260   -3.8930 C   0  0  0  0  0  0  0  0  0  0  0  0
   -3.6800   14.9100   -3.6610 C   0  0  0  0  0  0  0  0  0  0  0  0
   -2.5420   14.9390   -5.0200 S   0  0  0  0  0  0  0  0  0  0  0  0
   -1.1620   15.1320   -4.1340 N   0  0  0  0  0  0  0  0  0  0  0  0
   -2.5150   13.6170   -5.6000 O   0  0  0  0  0  0  0  0  0  0  0  0
   -2.8040   16.1170   -5.8090 O   0  0  0  0  0  0  0  0  0  0  0  0
   -0.8120   13.9380   -3.3180 C   0  0  2  0  0  0  0  0  0  0  0  0
   -1.7750   13.7800   -2.1300 C   0  0  0  0  0  0  0  0  0  0  0  0
    0.5810   14.1630   -2.6700 C   0  0  0  0  0  0  0  0  0  0  0  0
   -0.7790   12.7620   -4.2850 C   0  0  0  0  0  0  0  0  0  0  0  0
    1.1330   15.2370   -2.4990 O   0  0  0  0  0  0  0  0  0  0  0  0
    1.1870   13.0290   -2.2600 O   0  0  0  0  0  0  0  0  0  0  0  0
   -1.8120   11.8030   -4.2380 C   0  0  0  0  0  0  0  0  0  0  0  0
    0.2350   12.5970   -5.2420 C   0  0  0  0  0  0  0  0  0  0  0  0
   -1.8260   10.7180   -5.1120 C   0  0  0  0  0  0  0  0  0  0  0  0
    0.2200   11.5090   -6.1150 C   0  0  0  0  0  0  0  0  0  0  0  0
   -0.8100   10.5720   -6.0520 C   0  0  0  0  0  0  0  0  0  0  0  0
  1  2  1  0
  1  3  1  0
  3  4  2  0
  3  5  1  0
  5  6  2  0
  5  7  1  0
  6  8  1  0
  7  9  2  0
  8 10  2  0
  9 10  1  0
 10 11  1  0
 11 12  1  0
 11 13  2  0
 11 14  2  0
 12 15  1  0
 15 16  1  1
 15 17  1  0
 15 18  1  0
 17 19  2  0
 17 20  1  0
 18 21  2  0
 18 22  1  0
 21 23  1  0
 22 24  2  0
 23 25  2  0
 24 25  1  0
M  END
