diamond-x0844_0_A-mac-x0213
     RDKit          3D

 21 23  0  0  0  0  0  0  0  0999 V2000
   -7.4460   14.8880   -0.3120 O   0  0  0  0  0  0  0  0  0  0  0  0
   -6.2170   14.8490   -0.2260 C   0  0  0  0  0  0  0  0  0  0  0  0
   -5.6180   14.8700    1.0020 N   0  0  0  0  0  0  0  0  0  0  0  0
   -5.3190   14.7730   -1.4490 C   0  0  0  0  0  0  0  0  0  0  0  0
   -4.2990   15.1150    1.2140 C   0  0  0  0  0  0  0  0  0  0  0  0
   -3.8730   15.2420   -1.2300 C   0  0  2  0  0  0  0  0  0  0  0  0
   -2.8770   14.4320   -1.8910 O   0  0  0  0  0  0  0  0  0  0  0  0
   -3.4560   15.2870    0.2060 C   0  0  0  0  0  0  0  0  0  0  0  0
   -2.9530   14.3580   -3.3200 C   0  0  0  0  0  0  0  0  0  0  0  0
   -1.5700   14.3820   -4.0310 C   0  0  2  0  0  0  0  0  0  0  0  0
   -0.2900   14.2940   -3.1400 C   0  0  1  0  0  0  0  0  0  0  0  0
   -1.3490   15.7350   -4.6510 C   0  0  0  0  0  0  0  0  0  0  0  0
    0.1750   12.8800   -2.8580 C   0  0  0  0  0  0  0  0  0  0  0  0
   -0.0140   16.1320   -4.5640 C   0  0  0  0  0  0  0  0  0  0  0  0
    0.8070   15.0860   -3.8830 C   0  0  0  0  0  0  0  0  0  0  0  0
   -2.2990   16.5500   -5.2470 C   0  0  0  0  0  0  0  0  0  0  0  0
   -0.4230   11.9470   -3.6250 O   0  0  0  0  0  0  0  0  0  0  0  0
    0.9970   12.5290   -2.0370 O   0  0  0  0  0  0  0  0  0  0  0  0
   -1.8860   17.7800   -5.7590 C   0  0  0  0  0  0  0  0  0  0  0  0
    0.4020   17.3500   -5.0690 C   0  0  0  0  0  0  0  0  0  0  0  0
   -0.5480   18.1750   -5.6700 C   0  0  0  0  0  0  0  0  0  0  0  0
  1  2  2  0
  2  3  1  0
  2  4  1  0
  3  5  1  0
  4  6  1  0
  6  7  1  6
  5  8  2  0
  6  8  1  0
  7  9  1  0
 10  9  1  1
 10 11  1  0
 10 12  1  0
 11 13  1  6
 12 14  2  0
 11 15  1  0
 14 15  1  0
 12 16  1  0
 13 17  1  0
 13 18  2  0
 16 19  2  0
 14 20  1  0
 19 21  1  0
 20 21  2  0
M  END
