diamond-x1015_0_A-mac-x0159
     RDKit          3D

 31 35  0  0  0  0  0  0  0  0999 V2000
   -1.0490   14.6190   -3.6860 C   0  0  1  0  0  0  0  0  0  0  0  0
    0.1160   13.6040   -3.8270 C   0  0  2  0  0  0  0  0  0  0  0  0
   -0.2400   12.1690   -3.7950 N   0  0  0  0  0  0  0  0  0  0  0  0
   -1.7640   14.6220   -2.3390 N   0  0  0  0  0  0  0  0  0  0  0  0
   -0.5930   15.9500   -4.2610 C   0  0  0  0  0  0  0  0  0  0  0  0
    1.0310   13.6830   -2.6260 C   0  0  0  0  0  0  0  0  0  0  0  0
   -3.1640   15.0240   -2.4560 C   0  0  0  0  0  0  0  0  0  0  0  0
   -1.1320   15.3220   -1.1890 C   0  0  1  0  0  0  0  0  0  0  0  0
    0.6960   16.4600   -4.1690 C   0  0  0  0  0  0  0  0  0  0  0  0
   -1.4670   16.7620   -4.9640 N   0  0  0  0  0  0  0  0  0  0  0  0
    1.5250   14.7020   -2.1620 O   0  0  0  0  0  0  0  0  0  0  0  0
    0.3510   11.5690   -2.6790 C   0  0  0  0  0  0  0  0  0  0  0  0
    1.2220   12.4470   -2.1270 N   0  0  0  0  0  0  0  0  0  0  0  0
   -0.5810   11.4270   -4.9610 C   0  0  0  0  0  0  0  0  0  0  0  0
   -3.8640   14.5700   -1.2680 N   0  0  0  0  0  0  0  0  0  0  0  0
   -2.0180   15.4040    0.1020 C   0  0  1  0  0  0  0  0  0  0  0  0
    0.0760   14.6630   -0.6640 N   0  0  0  0  0  0  0  0  0  0  0  0
   -0.8500   17.8440   -5.3850 C   0  0  0  0  0  0  0  0  0  0  0  0
    0.8060   17.9640   -4.9700 S   0  0  0  0  0  0  0  0  0  0  0  0
    0.1670   10.4440   -2.2290 O   0  0  0  0  0  0  0  0  0  0  0  0
   -1.4940   18.9240   -6.1770 C   0  0  0  0  0  0  0  0  0  0  0  0
    0.0220   11.6730   -6.2080 C   0  0  0  0  0  0  0  0  0  0  0  0
   -1.5410   10.4090   -4.8910 C   0  0  0  0  0  0  0  0  0  0  0  0
   -3.5180   15.4690   -0.2150 C   0  0  2  0  0  0  0  0  0  0  0  0
   -1.5270   14.3600    0.9760 N   0  0  0  0  0  0  0  0  0  0  0  0
   -0.1120   14.4690    0.7720 C   0  0  0  0  0  0  0  0  0  0  0  0
   -4.3680   15.1090    0.8940 N   0  0  0  0  0  0  0  0  0  0  0  0
   -0.3240   10.9240   -7.3400 C   0  0  0  0  0  0  0  0  0  0  0  0
   -1.8890    9.6590   -6.0170 C   0  0  0  0  0  0  0  0  0  0  0  0
   -1.2830    9.9170   -7.2370 C   0  0  0  0  0  0  0  0  0  0  0  0
   -1.7180    8.9880   -8.6160 Cl  0  0  0  0  0  0  0  0  0  0  0  0
  1  2  1  0
  2  3  1  0
  1  4  1  0
  1  5  1  1
  2  6  1  1
  4  7  1  0
  4  8  1  0
  5  9  2  0
  5 10  1  0
  6 11  2  0
  3 12  1  0
  6 13  1  0
 12 13  1  0
  3 14  1  0
  7 15  1  0
  8 16  1  0
  8 17  1  1
 10 18  2  0
  9 19  1  0
 18 19  1  0
 12 20  2  0
 18 21  1  0
 14 22  2  0
 14 23  1  0
 15 24  1  0
 16 24  1  0
 16 25  1  1
 17 26  1  0
 25 26  1  0
 24 27  1  1
 22 28  1  0
 23 29  2  0
 28 30  2  0
 29 30  1  0
 30 31  1  0
M  END
