diamond-x0962_0_A-mac-x0510
     RDKit          3D

 11 12  0  0  0  0  0  0  0  0999 V2000
   -2.7490   13.9180   -2.6770 N   0  0  0  0  0  0  0  0  0  0  0  0
   -3.2520   14.1630   -1.6650 C   0  0  0  0  0  0  0  0  0  0  0  0
   -3.8030   14.5680   -0.4520 C   0  0  0  0  0  0  0  0  0  0  0  0
   -2.9800   15.0210    0.6610 C   0  0  2  0  0  0  0  0  0  0  0  0
   -5.0990   14.6490   -0.1460 C   0  0  0  0  0  0  0  0  0  0  0  0
   -4.1310   15.3900    1.5710 C   0  0  0  0  0  0  0  0  0  0  0  0
   -5.3250   15.1400    1.1040 N   0  0  0  0  0  0  0  0  0  0  0  0
   -2.0490   15.9660    0.0500 C   0  0  0  0  0  0  0  0  0  0  0  0
   -2.0360   14.1050    1.3260 N   0  0  0  0  0  0  0  0  0  0  0  0
   -0.8110   15.6910    0.2640 N   0  0  0  0  0  0  0  0  0  0  0  0
   -0.8550   14.5740    1.0400 C   0  0  0  0  0  0  0  0  0  0  0  0
  1  2  3  0
  2  3  1  0
  3  4  1  0
  3  5  2  0
  4  6  1  1
  5  7  1  0
  6  7  2  0
  4  8  1  0
  4  9  1  0
  8 10  2  0
  9 11  2  0
 10 11  1  0
M  END
