diamond-x0910_1_A-diamond-x0626_0_A
     RDKit          3D

 16 17  0  0  0  0  0  0  0  0999 V2000
   -7.1210   14.2500    1.0960 N   0  0  0  0  0  0  0  0  0  0  0  0
   -8.4630   13.6900    1.0340 C   0  0  0  0  0  0  0  0  0  0  0  0
   -5.9740   13.5140    1.0650 C   0  0  0  0  0  0  0  0  0  0  0  0
   -6.6460   14.9700    0.1000 C   0  0  0  0  0  0  0  0  0  0  0  0
   -4.8290   14.0310    1.6270 N   0  0  0  0  0  0  0  0  0  0  0  0
   -5.8770   12.4580    0.4680 O   0  0  0  0  0  0  0  0  0  0  0  0
   -7.2610   15.3220   -1.0480 N   0  0  0  0  0  0  0  0  0  0  0  0
   -5.4360   15.4190    0.1180 N   0  0  0  0  0  0  0  0  0  0  0  0
   -6.4170   16.0150   -1.8100 N   0  0  0  0  0  0  0  0  0  0  0  0
   -5.3240   16.0370   -1.0510 C   0  0  0  0  0  0  0  0  0  0  0  0
   -3.5830   14.2430    1.0520 C   0  0  0  0  0  0  0  0  0  0  0  0
   -2.4100   14.4340    1.6350 N   0  0  0  0  0  0  0  0  0  0  0  0
   -3.5600   14.2510   -0.6660 S   0  0  0  0  0  0  0  0  0  0  0  0
   -1.8770   14.5230   -0.6420 C   0  0  0  0  0  0  0  0  0  0  0  0
   -1.4410   14.5890    0.6580 C   0  0  0  0  0  0  0  0  0  0  0  0
   -0.0470   14.8030    1.0540 C   0  0  0  0  0  0  0  0  0  0  0  0
  1  2  1  0
  1  3  1  0
  1  4  1  0
  3  5  1  0
  3  6  2  0
  4  7  1  0
  4  8  2  0
  7  9  1  0
  8 10  1  0
  9 10  2  0
  5 11  1  0
 11 12  2  0
 11 13  1  0
 13 14  1  0
 12 15  1  0
 14 15  2  0
 15 16  1  0
M  END
