diamond-x0587_0_A-mac-x0137
     RDKit          3D

 28 31  0  0  0  0  0  0  0  0999 V2000
   -7.8020   14.8490    3.9270 N   0  0  0  0  0  0  0  0  0  0  0  0
   -8.4200   14.8360    2.7060 C   0  0  0  0  0  0  0  0  0  0  0  0
   -9.6350   14.9360    2.5980 O   0  0  0  0  0  0  0  0  0  0  0  0
   -7.5550   14.7170    1.5280 C   0  0  0  0  0  0  0  0  0  0  0  0
   -8.0350   14.5910    0.2290 C   0  0  0  0  0  0  0  0  0  0  0  0
   -6.2040   14.7350    1.6400 C   0  0  0  0  0  0  0  0  0  0  0  0
   -7.2410   14.5010   -0.8850 N   0  0  0  0  0  0  0  0  0  0  0  0
   -5.3870   14.6490    0.5950 N   0  0  0  0  0  0  0  0  0  0  0  0
   -5.9050   14.5440   -0.6560 C   0  0  0  0  0  0  0  0  0  0  0  0
   -4.7860   14.5040   -1.7250 C   0  0  0  0  0  0  0  0  0  0  0  0
   -4.5300   13.2780   -2.2810 F   0  0  0  0  0  0  0  0  0  0  0  0
   -4.9470   15.4140   -2.7320 F   0  0  0  0  0  0  0  0  0  0  0  0
   -3.7750   14.9150   -0.7580 C   0  0  0  0  0  0  0  0  0  0  0  0
   -2.3900   14.6740   -0.4820 C   0  0  0  0  0  0  0  0  0  0  0  0
   -4.2010   15.6900    0.2330 C   0  0  0  0  0  0  0  0  0  0  0  0
   -2.3200   15.2090    0.8970 C   0  0  0  0  0  0  0  0  0  0  0  0
   -1.2390   14.1980   -1.0210 C   0  0  0  0  0  0  0  0  0  0  0  0
   -3.3360   15.9110    1.2410 N   0  0  0  0  0  0  0  0  0  0  0  0
   -1.0580   13.6850   -2.3000 N   0  0  0  0  0  0  0  0  0  0  0  0
   -0.1380   14.2480   -0.1950 N   0  0  0  0  0  0  0  0  0  0  0  0
   -1.2880   14.9980    1.6960 N   0  0  0  0  0  0  0  0  0  0  0  0
   -1.5480   14.4330   -3.4820 C   0  0  0  0  0  0  0  0  0  0  0  0
    0.2510   13.0410   -2.5560 C   0  0  0  0  0  0  0  0  0  0  0  0
   -0.2750   14.5290    1.1310 C   0  0  0  0  0  0  0  0  0  0  0  0
   -1.8000   13.4380   -4.6110 C   0  0  2  0  0  0  0  0  0  0  0  0
    0.1180   11.9930   -3.6460 C   0  0  0  0  0  0  0  0  0  0  0  0
   -2.8350   12.6360   -4.2150 F   0  0  0  0  0  0  0  0  0  0  0  0
   -0.5790   12.5490   -4.8990 C   0  0  0  0  0  0  0  0  0  0  0  0
  1  2  1  0
  2  3  2  0
  2  4  1  0
  4  5  2  0
  4  6  1  0
  5  7  1  0
  6  8  2  0
  7  9  2  0
  8  9  1  0
  9 10  1  0
 10 11  1  0
 10 12  1  0
 10 13  1  0
 13 14  1  0
 13 15  2  0
 14 16  1  0
 14 17  2  0
 15 18  1  0
 16 18  2  0
 17 19  1  0
 17 20  1  0
 16 21  1  0
 19 22  1  0
 19 23  1  0
 20 24  1  0
 21 24  2  0
 22 25  1  0
 23 26  1  0
 25 27  1  1
 25 28  1  0
 26 28  1  0
M  END
