diamond-x0933_0_A-mac-x0303
     RDKit          3D

 14 15  0  0  0  0  0  0  0  0999 V2000
   -5.0750   13.2860    1.4440 N   0  0  0  0  0  0  0  0  0  0  0  0
   -5.5910   14.4540    0.8160 C   0  0  1  0  0  0  0  0  0  0  0  0
   -4.8350   15.5490    1.3720 N   0  0  0  0  0  0  0  0  0  0  0  0
   -5.3290   14.4340   -0.6180 N   0  0  0  0  0  0  0  0  0  0  0  0
   -7.1640   14.4020    0.6770 C   0  0  1  0  0  0  0  0  0  0  0  0
   -8.2350   14.5650    2.1530 S   0  0  0  0  0  0  0  0  0  0  0  0
   -3.9750   14.7270   -1.0550 C   0  0  0  0  0  0  0  0  0  0  0  0
   -3.3750   15.4450    1.2380 C   0  0  0  0  0  0  0  0  0  0  0  0
   -7.5160   15.2340   -0.5160 N   0  0  0  0  0  0  0  0  0  0  0  0
   -6.2440   15.3870   -1.1950 C   0  0  0  0  0  0  0  0  0  0  0  0
   -7.9860   13.0860    2.9230 N   0  0  0  0  0  0  0  0  0  0  0  0
   -7.7880   15.5340    3.1150 O   0  0  0  0  0  0  0  0  0  0  0  0
   -9.6190   14.5080    1.7240 O   0  0  0  0  0  0  0  0  0  0  0  0
   -2.9560   14.5910    0.0520 C   0  0  0  0  0  0  0  0  0  0  0  0
  2  1  1  1
  2  3  1  0
  2  4  1  0
  2  5  1  0
  5  6  1  1
  4  7  1  0
  3  8  1  0
  5  9  1  0
  4 10  1  0
  9 10  1  0
  6 11  1  0
  6 12  2  0
  6 13  2  0
  7 14  1  0
  8 14  1  0
M  END
