diamond-x0626_0_A-mac-x0213
     RDKit          3D

 25 27  0  0  0  0  0  0  0  0999 V2000
   -4.9860   14.9060    1.3440 N   0  0  0  0  0  0  0  0  0  0  0  0
   -6.1810   14.6640    0.7460 C   0  0  0  0  0  0  0  0  0  0  0  0
   -6.2540   14.7250   -0.4860 O   0  0  0  0  0  0  0  0  0  0  0  0
   -3.8030   15.0770    0.7010 C   0  0  0  0  0  0  0  0  0  0  0  0
   -7.3830   14.3280    1.6050 C   0  0  0  0  0  0  0  0  0  0  0  0
   -2.5930   14.9080    1.1450 N   0  0  0  0  0  0  0  0  0  0  0  0
   -3.9470   15.5800   -0.9220 S   0  0  0  0  0  0  0  0  0  0  0  0
   -8.6920   14.6430    0.8950 C   0  0  0  0  0  0  0  0  0  0  0  0
   -2.2460   15.5750   -1.0600 C   0  0  0  0  0  0  0  0  0  0  0  0
   -1.6930   15.1890    0.1340 C   0  0  0  0  0  0  0  0  0  0  0  0
   -0.2670   15.0240    0.4260 C   0  0  0  0  0  0  0  0  0  0  0  0
   -0.1650   13.5400    0.5360 C   0  0  0  0  0  0  0  0  0  0  0  0
   -0.0230   12.8700   -0.8300 C   0  0  0  0  0  0  0  0  0  0  0  0
   -0.1280   13.8280   -1.7860 N   0  0  0  0  0  0  0  0  0  0  0  0
   -0.0180   13.5390   -2.9680 C   0  0  0  0  0  0  0  0  0  0  0  0
    0.2280   12.2540   -3.3240 O   0  0  0  0  0  0  0  0  0  0  0  0
   -0.1820   14.5220   -3.9980 C   0  0  0  0  0  0  0  0  0  0  0  0
   -1.4000   14.4390   -4.8600 C   0  0  0  0  0  0  0  0  0  0  0  0
    0.9540   15.0980   -4.7960 C   0  0  0  0  0  0  0  0  0  0  0  0
   -1.2750   15.8760   -5.2000 C   0  0  0  0  0  0  0  0  0  0  0  0
    0.0910   16.2650   -5.1680 C   0  0  0  0  0  0  0  0  0  0  0  0
   -2.2770   16.7670   -5.5090 C   0  0  0  0  0  0  0  0  0  0  0  0
    0.4560   17.5610   -5.4530 C   0  0  0  0  0  0  0  0  0  0  0  0
   -1.9040   18.0740   -5.7980 C   0  0  0  0  0  0  0  0  0  0  0  0
   -0.5570   18.4640   -5.7700 C   0  0  0  0  0  0  0  0  0  0  0  0
  1  2  1  0
  2  3  2  0
  1  4  1  0
  2  5  1  0
  4  6  2  0
  4  7  1  0
  5  8  1  0
  7  9  1  0
  6 10  1  0
  9 10  2  0
 10 11  1  0
 11 12  1  0
 12 13  1  0
 13 14  1  0
 14 15  2  3
 15 16  1  0
 15 17  1  0
 17 18  1  0
 17 19  1  0
 18 20  1  0
 19 21  1  0
 20 21  2  0
 20 22  1  0
 21 23  1  0
 22 24  2  0
 23 25  2  0
 24 25  1  0
M  END
