diamond-x0685_1_A-mac-x0346
     RDKit          3D

 27 28  0  0  0  0  0  0  0  0999 V2000
   -1.5120   10.6280   -4.7760 N   0  0  0  0  0  0  0  0  0  0  0  0
   -1.6070   12.0380   -4.2980 C   0  0  1  0  0  0  0  0  0  0  0  0
   -0.1980   12.6350   -4.0970 C   0  0  0  0  0  0  0  0  0  0  0  0
   -1.3750   10.2030   -6.1940 C   0  0  0  0  0  0  0  0  0  0  0  0
   -2.4170   12.9330   -5.2810 C   0  0  0  0  0  0  0  0  0  0  0  0
   -0.6700    8.8440   -6.3990 C   0  0  0  0  0  0  0  0  0  0  0  0
   -0.9110   11.2770   -7.2010 C   0  0  0  0  0  0  0  0  0  0  0  0
    0.6620   12.0090   -2.6570 S   0  0  0  0  0  0  0  0  0  0  0  0
   -3.5210   13.8020   -4.6270 C   0  0  0  0  0  0  0  0  0  0  0  0
    0.0880    8.7650   -7.7220 C   0  0  0  0  0  0  0  0  0  0  0  0
   -1.1240   10.8250   -8.6500 C   0  0  0  0  0  0  0  0  0  0  0  0
    2.2060   12.3270   -2.9320 O   0  0  0  0  0  0  0  0  0  0  0  0
    0.4040   10.4280   -2.5480 O   0  0  0  0  0  0  0  0  0  0  0  0
    0.1770   12.7520   -1.3290 O   0  0  0  0  0  0  0  0  0  0  0  0
   -3.1120   14.3880   -3.2650 C   0  0  0  0  0  0  0  0  0  0  0  0
   -0.7450    9.3550   -8.8600 C   0  0  0  0  0  0  0  0  0  0  0  0
   -4.2930   14.8940   -2.6090 O   0  0  0  0  0  0  0  0  0  0  0  0
   -4.1300   14.9920   -1.2410 C   0  0  0  0  0  0  0  0  0  0  0  0
   -5.2190   15.0520   -0.3680 C   0  0  0  0  0  0  0  0  0  0  0  0
   -2.8280   15.0290   -0.7390 C   0  0  0  0  0  0  0  0  0  0  0  0
   -6.6310   15.0050   -0.8360 C   0  0  0  0  0  0  0  0  0  0  0  0
   -2.5970   15.1330    0.6300 C   0  0  0  0  0  0  0  0  0  0  0  0
   -4.9740   15.1560    1.0090 C   0  0  0  0  0  0  0  0  0  0  0  0
   -7.6800   14.9660    0.0580 N   0  0  0  0  0  0  0  0  0  0  0  0
   -6.8520   14.9880   -2.0410 O   0  0  0  0  0  0  0  0  0  0  0  0
   -3.6690   15.1990    1.4990 C   0  0  0  0  0  0  0  0  0  0  0  0
   -7.6180   14.1370    1.2020 O   0  0  0  0  0  0  0  0  0  0  0  0
  1  2  1  0
  2  3  1  6
  1  4  1  0
  2  5  1  0
  4  6  1  0
  4  7  1  0
  3  8  1  0
  5  9  1  0
  6 10  1  0
  7 11  1  0
  8 12  1  0
  8 13  1  0
  8 14  1  0
  9 15  1  0
 10 16  1  0
 11 16  1  0
 15 17  1  0
 17 18  1  0
 18 19  2  0
 18 20  1  0
 19 21  1  0
 20 22  2  0
 19 23  1  0
 21 24  1  0
 21 25  2  0
 22 26  1  0
 23 26  2  0
 24 27  1  0
M  END
