diamond-x1015_0_A-mac-x0344
     RDKit          3D

 19 20  0  0  0  0  0  0  0  0999 V2000
   -1.7570   14.7960   -4.5880 C   0  0  0  0  0  0  0  0  0  0  0  0
   -0.4450   14.0910   -4.2630 C   0  0  2  0  0  0  0  0  0  0  0  0
   -0.5770   12.6180   -4.2680 N   0  0  0  0  0  0  0  0  0  0  0  0
   -0.0860   14.3340   -2.8000 C   0  0  0  0  0  0  0  0  0  0  0  0
   -0.2700   15.3330   -2.1390 O   0  0  0  0  0  0  0  0  0  0  0  0
    0.2690   12.0890   -3.2050 C   0  0  2  0  0  0  0  0  0  0  0  0
    0.4960   13.1840   -2.3410 N   0  0  0  0  0  0  0  0  0  0  0  0
   -0.7050   11.8890   -5.4540 C   0  0  0  0  0  0  0  0  0  0  0  0
    1.5280   11.4610   -3.5680 N   0  0  0  0  0  0  0  0  0  0  0  0
    0.2320   11.9680   -6.5020 C   0  0  0  0  0  0  0  0  0  0  0  0
   -1.7920   11.0210   -5.6680 C   0  0  0  0  0  0  0  0  0  0  0  0
    2.6420   12.1260   -3.6150 C   0  0  0  0  0  0  0  0  0  0  0  0
    0.0980   11.2310   -7.6850 C   0  0  0  0  0  0  0  0  0  0  0  0
   -1.9380   10.2780   -6.8450 C   0  0  0  0  0  0  0  0  0  0  0  0
    2.7580   13.5940   -3.2910 C   0  0  0  0  0  0  0  0  0  0  0  0
   -0.9910   10.3840   -7.8540 C   0  0  0  0  0  0  0  0  0  0  0  0
   -1.1660    9.4700   -9.2950 Cl  0  0  0  0  0  0  0  0  0  0  0  0
    2.2980   14.3440   -4.2900 O   0  0  0  0  0  0  0  0  0  0  0  0
    3.2370   14.0540   -2.2680 O   0  0  0  0  0  0  0  0  0  0  0  0
  2  1  1  1
  2  3  1  0
  2  4  1  0
  4  5  2  0
  3  6  1  0
  4  7  1  0
  6  7  1  0
  3  8  1  0
  6  9  1  6
  8 10  2  0
  8 11  1  0
  9 12  2  3
 10 13  1  0
 11 14  2  0
 12 15  1  0
 13 16  2  0
 14 16  1  0
 16 17  1  0
 15 18  1  0
 15 19  2  0
M  END
