diamond-x0905_0_A-diamond-x0626_0_A
     RDKit          3D

 11 11  0  0  0  0  0  0  0  0999 V2000
   -6.6450   15.1810   -0.9290 N   0  0  0  0  0  0  0  0  0  0  0  0
   -7.5800   14.8590   -0.1220 C   0  0  0  0  0  0  0  0  0  0  0  0
   -7.3330   14.3710    1.2750 C   0  0  0  0  0  0  0  0  0  0  0  0
   -5.3160   15.0930   -0.5350 C   0  0  0  0  0  0  0  0  0  0  0  0
   -5.0240   14.9660    0.7710 N   0  0  0  0  0  0  0  0  0  0  0  0
   -4.3470   15.1370   -1.5130 C   0  0  0  0  0  0  0  0  0  0  0  0
   -8.6910   14.2350    1.9180 C   0  0  0  0  0  0  0  0  0  0  0  0
   -3.7190   14.8810    1.1140 C   0  0  0  0  0  0  0  0  0  0  0  0
   -3.0050   15.0420   -1.1390 C   0  0  0  0  0  0  0  0  0  0  0  0
   -2.6630   14.9090    0.2160 C   0  0  0  0  0  0  0  0  0  0  0  0
   -1.2290   14.7990    0.7050 C   0  0  0  0  0  0  0  0  0  0  0  0
  1  2  2  3
  2  3  1  0
  1  4  1  0
  4  5  2  0
  4  6  1  0
  3  7  1  0
  5  8  1  0
  6  9  2  0
  8 10  2  0
  9 10  1  0
 10 11  1  0
M  END
