diamond-x0933_0_A-mac-x0358
     RDKit          3D

 21 22  0  0  0  0  0  0  0  0999 V2000
   -6.0390   14.3420    1.8600 N   0  0  0  0  0  0  0  0  0  0  0  0
   -5.0730   14.9520    1.0250 C   0  0  1  0  0  0  0  0  0  0  0  0
   -3.8320   14.5150    1.5300 N   0  0  0  0  0  0  0  0  0  0  0  0
   -5.2780   14.4120   -0.2790 N   0  0  0  0  0  0  0  0  0  0  0  0
   -4.2650   14.9350   -1.2090 C   0  0  0  0  0  0  0  0  0  0  0  0
   -2.8040   15.2280    0.8050 C   0  0  0  0  0  0  0  0  0  0  0  0
   -2.8330   14.7580   -0.6650 C   0  0  1  0  0  0  0  0  0  0  0  0
   -2.2860   13.3240   -0.7310 C   0  0  0  0  0  0  0  0  0  0  0  0
   -1.1820   13.1270   -1.7710 C   0  0  0  0  0  0  0  0  0  0  0  0
    0.1830   13.6250   -1.2790 C   0  0  0  0  0  0  0  0  0  0  0  0
    1.2330   12.9660   -2.0150 O   0  0  0  0  0  0  0  0  0  0  0  0
    0.8180   12.1790   -3.0520 C   0  0  0  0  0  0  0  0  0  0  0  0
    0.4480   11.0210   -2.9190 O   0  0  0  0  0  0  0  0  0  0  0  0
    0.8820   12.9600   -4.3550 C   0  0  0  0  0  0  0  0  0  0  0  0
   -0.4660   13.4920   -4.7800 C   0  0  0  0  0  0  0  0  0  0  0  0
   -1.4870   12.6170   -5.1800 C   0  0  0  0  0  0  0  0  0  0  0  0
   -0.7290   14.8690   -4.7810 C   0  0  0  0  0  0  0  0  0  0  0  0
   -1.2350   11.2720   -5.1780 O   0  0  0  0  0  0  0  0  0  0  0  0
   -2.7350   13.0990   -5.5700 C   0  0  0  0  0  0  0  0  0  0  0  0
   -1.9790   15.3570   -5.1690 C   0  0  0  0  0  0  0  0  0  0  0  0
   -2.9850   14.4710   -5.5660 C   0  0  0  0  0  0  0  0  0  0  0  0
  2  1  1  1
  2  3  1  0
  2  4  1  0
  4  5  1  0
  3  6  1  0
  5  7  1  0
  6  7  1  0
  7  8  1  1
  8  9  1  0
  9 10  1  0
 10 11  1  0
 11 12  1  0
 12 13  2  0
 12 14  1  0
 14 15  1  0
 15 16  2  0
 15 17  1  0
 16 18  1  0
 16 19  1  0
 17 20  2  0
 19 21  2  0
 20 21  1  0
M  END
