diamond-x0814_0_B-diamond-x0091_0_B
     RDKit          3D

 31 33  0  0  0  0  0  0  0  0999 V2000
   15.2000   12.7790   14.0980 C   0  0  0  0  0  0  0  0  0  0  0  0
   14.2400   13.1200   12.9520 C   0  0  2  0  0  0  0  0  0  0  0  0
   13.2260   11.9880   12.8330 N   0  0  0  0  0  0  0  0  0  0  0  0
   14.9420   13.4730   11.6360 C   0  0  1  0  0  0  0  0  0  0  0  0
   16.2210   14.3240   11.8500 C   0  0  0  0  0  0  0  0  0  0  0  0
   11.6640   12.4030   13.2130 S   0  0  0  0  0  0  0  0  0  0  0  0
   13.3640   10.8960   11.8490 C   0  0  0  0  0  0  0  0  0  0  0  0
   15.1660   12.1870   10.8500 C   0  0  0  0  0  0  0  0  0  0  0  0
   11.6030   13.8240   12.9540 O   0  0  0  0  0  0  0  0  0  0  0  0
   17.2820   14.0600   11.0410 N   0  0  0  0  0  0  0  0  0  0  0  0
   10.7160   11.4540   12.6290 O   0  0  0  0  0  0  0  0  0  0  0  0
   16.3050   15.2300   12.7440 N   0  0  0  0  0  0  0  0  0  0  0  0
   11.7330   12.1000   14.9810 C   0  0  0  0  0  0  0  0  0  0  0  0
   13.8530   11.4780   10.5630 C   0  0  0  0  0  0  0  0  0  0  0  0
   15.2810   15.5790   13.6870 C   0  0  0  0  0  0  0  0  0  0  0  0
   16.0070   15.6610   15.0400 C   0  0  0  0  0  0  0  0  0  0  0  0
   15.9910   17.0840   15.5780 C   0  0  0  0  0  0  0  0  0  0  0  0
   14.7410   17.7200   15.1500 C   0  0  0  0  0  0  0  0  0  0  0  0
   13.6160   17.1840   15.6880 O   0  0  0  0  0  0  0  0  0  0  0  0
   14.4050   18.7470   14.3080 C   0  0  0  0  0  0  0  0  0  0  0  0
   12.5110   17.8560   15.2010 N   0  0  0  0  0  0  0  0  0  0  0  0
   12.9870   18.7940   14.3680 C   0  0  0  0  0  0  0  0  0  0  0  0
   12.0800   19.7370   13.6260 C   0  0  0  0  0  0  0  0  0  0  0  0
   12.5720   21.1120   13.5970 N   0  0  0  0  0  0  0  0  0  0  0  0
   12.1730   21.9740   14.7050 C   0  0  0  0  0  0  0  0  0  0  0  0
   13.5850   21.4010   12.7090 C   0  0  0  0  0  0  0  0  0  0  0  0
   13.8310   20.7000   11.7290 O   0  0  0  0  0  0  0  0  0  0  0  0
   14.3130   22.5200   12.9820 N   0  0  0  0  0  0  0  0  0  0  0  0
   15.5880   22.6610   12.3560 C   0  0  0  0  0  0  0  0  0  0  0  0
   16.6980   21.7340   12.7590 C   0  0  0  0  0  0  0  0  0  0  0  0
   16.7980   23.1770   13.0870 C   0  0  0  0  0  0  0  0  0  0  0  0
  2  1  1  1
  2  3  1  0
  2  4  1  0
  4  5  1  1
  3  6  1  0
  3  7  1  0
  4  8  1  0
  6  9  2  0
  5 10  1  0
  6 11  2  0
  5 12  2  3
  6 13  1  0
  7 14  1  0
  8 14  1  0
 12 15  1  0
 15 16  1  0
 16 17  1  0
 17 18  1  0
 18 19  1  0
 18 20  2  0
 19 21  1  0
 20 22  1  0
 21 22  2  0
 22 23  1  0
 23 24  1  0
 24 25  1  0
 24 26  1  0
 26 27  2  0
 26 28  1  0
 28 29  1  0
 29 30  1  0
 29 31  1  0
 30 31  1  0
M  END
