diamond-x0962_1_A-mac-x0161
     RDKit          3D

 26 29  0  0  0  0  0  0  0  0999 V2000
   -4.8070   14.2510   -1.6080 N   0  0  0  0  0  0  0  0  0  0  0  0
   -5.0900   13.5680   -0.3470 C   0  0  1  0  0  0  0  0  0  0  0  0
   -4.0490   13.8060    0.7440 C   0  0  0  0  0  0  0  0  0  0  0  0
   -6.3150   14.1110    0.2320 C   0  0  0  0  0  0  0  0  0  0  0  0
   -3.9170   15.2310    1.0380 N   0  0  0  0  0  0  0  0  0  0  0  0
   -6.4170   14.3160    1.5880 N   0  0  0  0  0  0  0  0  0  0  0  0
   -7.5180   14.5070   -0.2820 C   0  0  0  0  0  0  0  0  0  0  0  0
   -7.6510   14.8070    1.8340 C   0  0  0  0  0  0  0  0  0  0  0  0
   -8.3450   14.9340    0.7250 N   0  0  0  0  0  0  0  0  0  0  0  0
   -2.9360   15.6820    0.1130 C   0  0  2  0  0  0  0  0  0  0  0  0
   -3.5220   15.9640   -1.1790 N   0  0  0  0  0  0  0  0  0  0  0  0
   -1.9890   14.4970    0.0860 C   0  0  1  0  0  0  0  0  0  0  0  0
   -2.8290   15.3180   -2.2850 C   0  0  0  0  0  0  0  0  0  0  0  0
   -0.9150   14.6930   -0.9670 C   0  0  1  0  0  0  0  0  0  0  0  0
   -1.3220   14.4520    1.4000 N   0  0  0  0  0  0  0  0  0  0  0  0
   -1.3950   15.3990   -2.1280 N   0  0  0  0  0  0  0  0  0  0  0  0
    0.0900   15.3430   -0.1810 N   0  0  0  0  0  0  0  0  0  0  0  0
    0.0500   14.5520    1.0200 C   0  0  0  0  0  0  0  0  0  0  0  0
   -0.6810   15.0610   -3.3570 C   0  0  0  0  0  0  0  0  0  0  0  0
   -0.5710   13.6040   -3.6680 C   0  0  0  0  0  0  0  0  0  0  0  0
   -1.0260   12.7810   -4.6720 C   0  0  0  0  0  0  0  0  0  0  0  0
    0.1410   12.8590   -2.7760 O   0  0  0  0  0  0  0  0  0  0  0  0
    0.1630   11.5340   -3.1750 N   0  0  0  0  0  0  0  0  0  0  0  0
   -0.5380   11.5100   -4.3100 C   0  0  0  0  0  0  0  0  0  0  0  0
   -0.7310   10.3660   -5.0000 O   0  0  0  0  0  0  0  0  0  0  0  0
   -1.7660   10.4280   -5.9720 C   0  0  0  0  0  0  0  0  0  0  0  0
  2  1  1  6
  2  3  1  0
  2  4  1  0
  3  5  1  0
  4  6  1  0
  4  7  2  0
  6  8  1  0
  7  9  1  0
  8  9  2  0
 10  5  1  1
 10 11  1  0
 10 12  1  0
 11 13  1  0
 12 14  1  0
 12 15  1  1
 13 16  1  0
 14 16  1  0
 14 17  1  1
 15 18  1  0
 17 18  1  0
 16 19  1  0
 19 20  1  0
 20 21  2  0
 20 22  1  0
 22 23  1  0
 21 24  1  0
 23 24  2  0
 24 25  1  0
 25 26  1  0
M  END
