diamond-x0282_0_A-mac-x0472
     RDKit          3D

 24 26  0  0  0  0  0  0  0  0999 V2000
   -7.5960   14.4980    1.1680 C   0  0  0  0  0  0  0  0  0  0  0  0
   -8.3870   14.6630    0.0020 O   0  0  0  0  0  0  0  0  0  0  0  0
   -6.0900   14.3990    0.8620 C   0  0  2  0  0  0  0  0  0  0  0  0
   -5.2070   15.1180    1.8710 C   0  0  0  0  0  0  0  0  0  0  0  0
   -5.5590   14.8560   -0.4990 C   0  0  0  0  0  0  0  0  0  0  0  0
   -3.8870   14.4020    1.8970 C   0  0  0  0  0  0  0  0  0  0  0  0
   -4.1210   14.2840   -0.5880 C   0  0  1  0  0  0  0  0  0  0  0  0
   -3.3230   14.8490   -1.6530 N   0  0  0  0  0  0  0  0  0  0  0  0
   -3.3580   14.5810    0.5880 N   0  0  0  0  0  0  0  0  0  0  0  0
   -3.7890   14.3200   -3.1350 S   0  0  0  0  0  0  0  0  0  0  0  0
   -2.0330   14.6230    0.4180 C   0  0  0  0  0  0  0  0  0  0  0  0
   -4.9660   15.0860   -3.4180 O   0  0  0  0  0  0  0  0  0  0  0  0
   -2.6590   14.2550   -4.0330 O   0  0  0  0  0  0  0  0  0  0  0  0
   -1.6080   14.6540   -0.8500 N   0  0  0  0  0  0  0  0  0  0  0  0
   -1.2510   14.6350    1.4860 N   0  0  0  0  0  0  0  0  0  0  0  0
   -4.3290   12.6850   -2.6870 C   0  0  0  0  0  0  0  0  0  0  0  0
   -0.3110   14.7150   -1.0680 C   0  0  0  0  0  0  0  0  0  0  0  0
    0.0410   14.7010    1.2150 C   0  0  0  0  0  0  0  0  0  0  0  0
   -3.5060   11.5770   -2.8970 C   0  0  0  0  0  0  0  0  0  0  0  0
   -5.6000   12.5350   -2.1180 C   0  0  0  0  0  0  0  0  0  0  0  0
    0.5740   14.7480   -0.0620 C   0  0  0  0  0  0  0  0  0  0  0  0
   -3.9670   10.3140   -2.5400 C   0  0  0  0  0  0  0  0  0  0  0  0
   -6.0500   11.2700   -1.7620 C   0  0  0  0  0  0  0  0  0  0  0  0
   -5.2380   10.1610   -1.9750 C   0  0  0  0  0  0  0  0  0  0  0  0
  1  2  1  0
  3  1  1  1
  3  4  1  0
  3  5  1  0
  4  6  1  0
  5  7  1  0
  7  8  1  6
  6  9  1  0
  7  9  1  0
 10  8  1  0
  9 11  1  0
 10 12  2  0
 10 13  2  0
 11 14  2  0
 11 15  1  0
 10 16  1  0
 14 17  1  0
 15 18  2  0
 16 19  2  0
 16 20  1  0
 17 21  2  0
 18 21  1  0
 19 22  1  0
 20 23  2  0
 22 24  2  0
 23 24  1  0
M  END
