diamond-x0837_0_A-mac-x0385
     RDKit          3D

 16 17  0  0  0  0  0  0  0  0999 V2000
   -7.4440   15.2690    0.0370 O   0  0  0  0  0  0  0  0  0  0  0  0
   -6.2540   14.9810    0.1190 C   0  0  0  0  0  0  0  0  0  0  0  0
   -5.7650   14.1540    1.0790 N   0  0  0  0  0  0  0  0  0  0  0  0
   -5.0860   15.3600   -0.7750 C   0  0  2  0  0  0  0  0  0  0  0  0
   -4.7560   13.3060    0.7050 C   0  0  0  0  0  0  0  0  0  0  0  0
   -5.0390   14.1700   -1.6560 C   0  0  1  0  0  0  0  0  0  0  0  0
   -3.7010   15.2640   -0.2200 C   0  0  0  0  0  0  0  0  0  0  0  0
   -3.7000   14.3200   -3.3950 I   0  0  0  0  0  0  0  0  0  0  0  0
   -4.3630   13.2620   -0.6130 C   0  0  0  0  0  0  0  0  0  0  0  0
   -3.3490   15.4350    1.1010 C   0  0  0  0  0  0  0  0  0  0  0  0
   -2.6560   14.9370   -1.0540 C   0  0  0  0  0  0  0  0  0  0  0  0
   -4.2840   15.7770    2.0720 N   0  0  0  0  0  0  0  0  0  0  0  0
   -2.0900   15.2730    1.5350 N   0  0  0  0  0  0  0  0  0  0  0  0
   -1.4000   14.7730   -0.6790 N   0  0  0  0  0  0  0  0  0  0  0  0
   -1.1860   14.9480    0.6130 C   0  0  0  0  0  0  0  0  0  0  0  0
    0.1830   14.7540    1.0340 C   0  0  0  0  0  0  0  0  0  0  0  0
  1  2  2  0
  2  3  1  0
  2  4  1  0
  3  5  1  0
  4  6  1  0
  4  7  1  1
  6  8  1  6
  5  9  2  0
  6  9  1  0
  7 10  2  0
  7 11  1  0
 10 12  1  0
 10 13  1  0
 11 14  2  0
 13 15  2  0
 14 15  1  0
 15 16  1  0
M  END
