diamond-x0253_0_A-mac-x0576
     RDKit          3D

 29 31  0  0  0  0  0  0  0  0999 V2000
    0.3860   11.9130   -5.4190 N   0  0  0  0  0  0  0  0  0  0  0  0
    1.0840   11.6360   -6.5530 C   0  0  0  0  0  0  0  0  0  0  0  0
    2.1930   12.1030   -6.6980 O   0  0  0  0  0  0  0  0  0  0  0  0
    1.0650   12.7180   -4.4240 C   0  0  0  0  0  0  0  0  0  0  0  0
    0.8010   12.2290   -3.0120 C   0  0  0  0  0  0  0  0  0  0  0  0
    0.4580   10.7220   -7.5550 C   0  0  0  0  0  0  0  0  0  0  0  0
    0.8650   13.0170   -2.0100 N   0  0  0  0  0  0  0  0  0  0  0  0
    0.4930   10.9160   -2.9100 O   0  0  0  0  0  0  0  0  0  0  0  0
   -0.5240    9.8050   -7.1640 C   0  0  0  0  0  0  0  0  0  0  0  0
    0.8430   10.7680   -8.9010 C   0  0  0  0  0  0  0  0  0  0  0  0
    1.1760   14.4420   -2.1650 C   0  0  0  0  0  0  0  0  0  0  0  0
   -1.1130    8.9480   -8.1000 C   0  0  0  0  0  0  0  0  0  0  0  0
    0.2640    9.9200   -9.8360 C   0  0  0  0  0  0  0  0  0  0  0  0
   -2.1630    7.9760   -7.6640 C   0  0  0  0  0  0  0  0  0  0  0  0
    0.1980   15.2250   -3.0750 C   0  0  0  0  0  0  0  0  0  0  0  0
   -0.7160    9.0080   -9.4390 C   0  0  0  0  0  0  0  0  0  0  0  0
   -1.1660   15.4200   -2.5100 N   0  0  0  0  0  0  0  0  0  0  0  0
   -1.5500   15.1690   -1.2950 C   0  0  0  0  0  0  0  0  0  0  0  0
   -0.6100   14.6500   -0.4450 N   0  0  0  0  0  0  0  0  0  0  0  0
   -2.9530   15.3970   -0.6880 C   0  0  2  0  0  0  0  0  0  0  0  0
   -0.7570   14.9000    0.9430 C   0  0  2  0  0  0  0  0  0  0  0  0
   -3.0900   14.5930    0.6250 C   0  0  1  0  0  0  0  0  0  0  0  0
   -4.0740   14.9950   -1.5640 N   0  0  0  0  0  0  0  0  0  0  0  0
    0.0690   14.1410    1.8110 N   0  0  0  0  0  0  0  0  0  0  0  0
   -2.0370   14.7470    1.5870 N   0  0  0  0  0  0  0  0  0  0  0  0
   -4.3010   14.9210    1.3130 N   0  0  0  0  0  0  0  0  0  0  0  0
   -5.3360   15.4040   -0.9010 C   0  0  0  0  0  0  0  0  0  0  0  0
   -5.4560   15.0030    0.5810 C   0  0  0  0  0  0  0  0  0  0  0  0
   -6.5410   14.7650    1.1130 O   0  0  0  0  0  0  0  0  0  0  0  0
  1  2  1  0
  2  3  2  0
  1  4  1  0
  4  5  1  0
  2  6  1  0
  5  7  2  3
  5  8  1  0
  6  9  2  0
  6 10  1  0
  7 11  1  0
  9 12  1  0
 10 13  2  0
 12 14  1  0
 11 15  1  0
 12 16  2  0
 13 16  1  0
 15 17  1  0
 17 18  2  3
 18 19  1  0
 18 20  1  0
 19 21  1  0
 20 22  1  0
 20 23  1  6
 21 24  1  1
 21 25  1  0
 22 25  1  1
 22 26  1  0
 23 27  1  0
 26 28  1  0
 27 28  1  0
 28 29  2  0
M  END
