diamond-x0591_0_A-mac-x0584
     RDKit          3D

 31 35  0  0  0  0  0  0  0  0999 V2000
   -6.7310   14.4890    0.6630 N   0  0  0  0  0  0  0  0  0  0  0  0
   -6.6280   14.5110    2.0230 C   0  0  0  0  0  0  0  0  0  0  0  0
   -6.9330   14.5020   -0.6630 C   0  0  0  0  0  0  0  0  0  0  0  0
   -8.0660   14.6150   -1.2320 O   0  0  0  0  0  0  0  0  0  0  0  0
   -5.8860   14.3970   -1.7280 C   0  0  0  0  0  0  0  0  0  0  0  0
   -4.6010   13.9690   -1.5570 C   0  0  0  0  0  0  0  0  0  0  0  0
   -6.3210   14.7740   -2.9550 C   0  0  0  0  0  0  0  0  0  0  0  0
   -3.7390   13.9410   -2.6700 C   0  0  0  0  0  0  0  0  0  0  0  0
   -5.4810   14.7380   -4.0280 C   0  0  0  0  0  0  0  0  0  0  0  0
   -4.2100   14.3470   -3.9230 C   0  0  0  0  0  0  0  0  0  0  0  0
   -3.1020   14.3380   -5.2790 S   0  0  0  0  0  0  0  0  0  0  0  0
   -2.9110   12.9610   -5.8310 O   0  0  0  0  0  0  0  0  0  0  0  0
   -3.4240   15.3450   -6.3510 O   0  0  0  0  0  0  0  0  0  0  0  0
   -1.7490   14.7030   -4.3520 C   0  0  1  0  0  0  0  0  0  0  0  0
   -0.4930   15.3080   -4.8640 C   0  0  0  0  0  0  0  0  0  0  0  0
   -1.9900   15.6980   -3.2990 C   0  0  0  0  0  0  0  0  0  0  0  0
   -0.0640   14.7490   -3.5380 C   0  0  2  0  0  0  0  0  0  0  0  0
   -0.7760   15.4800   -2.5000 N   0  0  0  0  0  0  0  0  0  0  0  0
    1.1740   14.1030   -3.5560 C   0  0  0  0  0  0  0  0  0  0  0  0
   -1.0030   15.2570   -1.1270 C   0  0  0  0  0  0  0  0  0  0  0  0
    1.4180   13.2570   -2.3290 C   0  0  0  0  0  0  0  0  0  0  0  0
    1.1670   12.8340   -4.3430 C   0  0  0  0  0  0  0  0  0  0  0  0
   -0.0190   14.8590   -0.3190 N   0  0  0  0  0  0  0  0  0  0  0  0
   -2.2390   15.4320   -0.5560 C   0  0  0  0  0  0  0  0  0  0  0  0
    1.6890   12.0620   -3.1830 C   0  0  0  0  0  0  0  0  0  0  0  0
   -0.2510   14.6320    1.0120 C   0  0  0  0  0  0  0  0  0  0  0  0
   -2.4670   15.2050    0.8740 C   0  0  0  0  0  0  0  0  0  0  0  0
   -3.4630   15.8090   -1.0230 C   0  0  0  0  0  0  0  0  0  0  0  0
   -1.4320   14.7990    1.5830 N   0  0  0  0  0  0  0  0  0  0  0  0
   -3.7340   15.4730    1.1840 N   0  0  0  0  0  0  0  0  0  0  0  0
   -4.3630   15.8360    0.0460 C   0  0  0  0  0  0  0  0  0  0  0  0
  1  2  1  0
  1  3  1  0
  3  4  2  0
  3  5  1  0
  5  6  2  0
  5  7  1  0
  6  8  1  0
  7  9  2  0
  8 10  2  0
  9 10  1  0
 11 10  1  0
 11 12  2  0
 11 13  2  0
 14 11  1  6
 14 15  1  0
 14 16  1  0
 15 17  1  0
 16 18  1  0
 17 18  1  0
 17 19  1  1
 18 20  1  0
 19 21  1  0
 19 22  1  0
 20 23  1  0
 20 24  2  0
 21 25  1  0
 22 25  1  0
 23 26  1  0
 24 27  1  0
 24 28  1  0
 26 29  2  0
 27 29  1  0
 27 30  2  0
 28 31  2  0
 30 31  1  0
M  END
