diamond-x0423_0_B-diamond-x0792_0_A
     RDKit          3D

 25 27  0  0  0  0  0  0  0  0999 V2000
   14.2150   25.7920   15.6470 N   0  0  0  0  0  0  0  0  0  0  0  0
   13.1360   26.7670   15.6310 C   0  0  0  0  0  0  0  0  0  0  0  0
   14.4900   25.1880   14.3400 C   0  0  2  0  0  0  0  0  0  0  0  0
   13.3540   24.3730   13.6850 C   0  0  0  0  0  0  0  0  0  0  0  0
   15.8250   24.4530   14.2490 C   0  0  0  0  0  0  0  0  0  0  0  0
   13.8690   23.1620   13.0330 N   0  0  0  0  0  0  0  0  0  0  0  0
   16.1260   24.0960   12.7950 C   0  0  0  0  0  0  0  0  0  0  0  0
   15.0450   23.2150   12.1700 C   0  0  0  0  0  0  0  0  0  0  0  0
   13.3220   21.9230   13.3370 C   0  0  0  0  0  0  0  0  0  0  0  0
   12.6950   21.7610   14.5550 C   0  0  0  0  0  0  0  0  0  0  0  0
   13.3850   20.8780   12.4810 N   0  0  0  0  0  0  0  0  0  0  0  0
   12.8260   19.6640   12.8110 N   0  0  0  0  0  0  0  0  0  0  0  0
   12.1240   20.5630   14.9410 C   0  0  0  0  0  0  0  0  0  0  0  0
   11.4710   20.4960   16.3340 C   0  0  0  0  0  0  0  0  0  0  0  0
   12.2110   19.5180   14.0120 C   0  0  0  0  0  0  0  0  0  0  0  0
   11.1920   21.8660   17.0210 C   0  0  0  0  0  0  0  0  0  0  0  0
    9.8400   22.1280   17.4960 O   0  0  0  0  0  0  0  0  0  0  0  0
    9.5670   23.5610   17.5420 C   0  0  0  0  0  0  0  0  0  0  0  0
    8.1000   23.9710   17.8170 C   0  0  1  0  0  0  0  0  0  0  0  0
    7.9270   25.1440   18.7420 C   0  0  0  0  0  0  0  0  0  0  0  0
    7.2110   24.4320   16.6310 C   0  0  0  0  0  0  0  0  0  0  0  0
    5.7680   24.5850   16.7800 N   0  0  0  0  0  0  0  0  0  0  0  0
    6.9930   26.2010   18.0680 C   0  0  1  0  0  0  0  0  0  0  0  0
    7.7620   26.8210   16.9030 C   0  0  0  0  0  0  0  0  0  0  0  0
    5.5940   25.7540   17.5650 C   0  0  0  0  0  0  0  0  0  0  0  0
  1  2  1  0
  3  1  1  1
  3  4  1  0
  3  5  1  0
  4  6  1  0
  5  7  1  0
  6  8  1  0
  7  8  1  0
  6  9  1  0
  9 10  2  0
  9 11  1  0
 11 12  2  0
 10 13  1  0
 13 14  1  0
 12 15  1  0
 13 15  2  0
 14 16  1  0
 16 17  1  0
 17 18  1  0
 19 18  1  6
 19 20  1  0
 19 21  1  0
 21 22  1  0
 20 23  1  0
 23 24  1  6
 22 25  1  0
 23 25  1  0
M  END
