diamond-x0421_0_A-diamond-x0685_1_A
     RDKit          3D

 25 27  0  0  0  0  0  0  0  0999 V2000
   -3.6650   15.3750   -2.9430 N   0  0  0  0  0  0  0  0  0  0  0  0
   -2.8420   14.8430   -1.9880 C   0  0  0  0  0  0  0  0  0  0  0  0
   -1.6480   14.3590   -2.1420 N   0  0  0  0  0  0  0  0  0  0  0  0
   -3.4540   14.8490   -0.6470 C   0  0  0  0  0  0  0  0  0  0  0  0
   -0.9130   13.8210   -1.0040 C   0  0  0  0  0  0  0  0  0  0  0  0
   -2.8230   14.9690    0.5790 C   0  0  0  0  0  0  0  0  0  0  0  0
   -4.8310   14.7280   -0.4520 N   0  0  0  0  0  0  0  0  0  0  0  0
    0.1180   12.8290   -1.1870 O   0  0  0  0  0  0  0  0  0  0  0  0
   -3.8220   14.9120    1.5000 N   0  0  0  0  0  0  0  0  0  0  0  0
   -5.0020   14.7660    0.8490 C   0  0  0  0  0  0  0  0  0  0  0  0
    0.5420   12.0930   -2.5700 S   0  0  0  0  0  0  0  0  0  0  0  0
   -6.3620   14.6590    1.5900 C   0  0  0  0  0  0  0  0  0  0  0  0
   -0.2360   12.7310   -4.0630 C   0  0  0  0  0  0  0  0  0  0  0  0
    2.1050   12.3330   -2.8540 O   0  0  0  0  0  0  0  0  0  0  0  0
    0.2880   10.4970   -2.5080 O   0  0  0  0  0  0  0  0  0  0  0  0
   -7.6490   14.6480    0.8030 C   0  0  0  0  0  0  0  0  0  0  0  0
   -7.1600   13.3890    1.4570 C   0  0  0  0  0  0  0  0  0  0  0  0
   -1.5310   12.0470   -4.5100 C   0  0  0  0  0  0  0  0  0  0  0  0
   -1.3810   10.6200   -4.8740 N   0  0  0  0  0  0  0  0  0  0  0  0
   -0.7370   10.3710   -6.1740 C   0  0  0  0  0  0  0  0  0  0  0  0
   -0.5740    8.8620   -6.4550 C   0  0  0  0  0  0  0  0  0  0  0  0
   -1.5740   11.0130   -7.2890 C   0  0  0  0  0  0  0  0  0  0  0  0
    0.0730    8.5900   -7.8100 C   0  0  0  0  0  0  0  0  0  0  0  0
   -1.0150   10.7000   -8.6820 C   0  0  0  0  0  0  0  0  0  0  0  0
   -0.7470    9.2080   -8.9340 C   0  0  0  0  0  0  0  0  0  0  0  0
  1  2  1  0
  2  3  2  3
  2  4  1  0
  3  5  1  0
  4  6  2  0
  4  7  1  0
  5  8  1  0
  6  9  1  0
  7 10  2  0
  9 10  1  0
 11  8  1  0
 10 12  1  0
 11 13  1  0
 11 14  1  0
 11 15  1  0
 12 16  1  0
 12 17  1  0
 16 17  1  0
 13 18  1  0
 18 19  1  0
 19 20  1  0
 20 21  1  0
 20 22  1  0
 21 23  1  0
 22 24  1  0
 23 25  1  0
 24 25  1  0
M  END
