diamond-x0905_0_A-mac-x0223
     RDKit          3D

 23 24  0  0  0  0  0  0  0  0999 V2000
   -7.1500   14.9010   -0.4780 O   0  0  0  0  0  0  0  0  0  0  0  0
   -5.8110   15.0790   -0.5470 C   0  0  0  0  0  0  0  0  0  0  0  0
   -5.2110   15.1250    0.6500 N   0  0  0  0  0  0  0  0  0  0  0  0
   -5.1900   15.1930   -1.7670 C   0  0  0  0  0  0  0  0  0  0  0  0
   -3.8730   15.3040    0.6230 C   0  0  0  0  0  0  0  0  0  0  0  0
   -3.8090   15.3730   -1.7850 C   0  0  0  0  0  0  0  0  0  0  0  0
   -3.0810   15.4960   -3.1080 C   0  0  0  0  0  0  0  0  0  0  0  0
   -3.1340   15.4310   -0.5500 C   0  0  0  0  0  0  0  0  0  0  0  0
   -3.9030   15.1240   -4.3770 C   0  0  0  0  0  0  0  0  0  0  0  0
   -3.6410   16.0010   -5.6440 C   0  0  0  0  0  0  0  0  0  0  0  0
   -2.6490   17.0100   -5.3900 O   0  0  0  0  0  0  0  0  0  0  0  0
   -1.5850   16.2580   -5.0800 C   0  0  0  0  0  0  0  0  0  0  0  0
   -0.2930   16.7550   -4.8620 C   0  0  0  0  0  0  0  0  0  0  0  0
   -1.8480   14.9050   -4.9930 C   0  0  0  0  0  0  0  0  0  0  0  0
   -0.0920   18.0980   -4.9700 O   0  0  0  0  0  0  0  0  0  0  0  0
   -0.8690   14.0130   -4.6900 C   0  0  0  0  0  0  0  0  0  0  0  0
    0.7130   15.8250   -4.5510 C   0  0  0  0  0  0  0  0  0  0  0  0
    1.1490   18.4380   -5.5570 C   0  0  0  0  0  0  0  0  0  0  0  0
    0.4140   14.4510   -4.4670 C   0  0  0  0  0  0  0  0  0  0  0  0
    1.4320   13.4060   -4.1350 C   0  0  0  0  0  0  0  0  0  0  0  0
    0.9070   12.5090   -3.0390 C   0  0  0  0  0  0  0  0  0  0  0  0
    0.3060   11.4520   -3.1250 O   0  0  0  0  0  0  0  0  0  0  0  0
    1.1740   13.0360   -1.8310 O   0  0  0  0  0  0  0  0  0  0  0  0
  1  2  1  0
  2  3  2  0
  2  4  1  0
  3  5  1  0
  4  6  2  0
  6  7  1  0
  5  8  2  0
  6  8  1  0
  7  9  1  0
  9 10  1  0
 10 11  1  0
 11 12  1  0
 12 13  2  0
 12 14  1  0
 13 15  1  0
 14 16  2  0
 13 17  1  0
 15 18  1  0
 16 19  1  0
 17 19  2  0
 19 20  1  0
 20 21  1  0
 21 22  2  0
 21 23  1  0
M  END
