diamond-x0969_0_A-diamond-x0967_0_A
     RDKit          3D

 10 11  0  0  0  0  0  0  0  0999 V2000
   -6.8010   14.7030    2.5650 N   0  0  0  0  0  0  0  0  0  0  0  0
   -6.6040   14.7340    1.2280 C   0  0  0  0  0  0  0  0  0  0  0  0
   -7.5360   14.6390    0.3070 N   0  0  0  0  0  0  0  0  0  0  0  0
   -5.3680   14.8870    0.6160 N   0  0  0  0  0  0  0  0  0  0  0  0
   -6.9410   14.7320   -0.9310 N   0  0  0  0  0  0  0  0  0  0  0  0
   -5.6500   14.8800   -0.7470 C   0  0  0  0  0  0  0  0  0  0  0  0
   -4.0820   15.0270    1.1300 C   0  0  0  0  0  0  0  0  0  0  0  0
   -4.5630   15.0220   -1.6470 C   0  0  0  0  0  0  0  0  0  0  0  0
   -3.0530   15.1520    0.2760 C   0  0  0  0  0  0  0  0  0  0  0  0
   -3.3190   15.1490   -1.1570 C   0  0  0  0  0  0  0  0  0  0  0  0
  1  2  1  0
  2  3  2  0
  2  4  1  0
  3  5  1  0
  4  6  1  0
  5  6  2  0
  4  7  1  0
  6  8  1  0
  7  9  2  0
  8 10  2  0
  9 10  1  0
M  END
