diamond-x0465_0_A-mac-x0527
     RDKit          3D

 28 30  0  0  0  0  0  0  0  0999 V2000
    1.9140   13.3880   -4.8970 C   0  0  0  0  0  0  0  0  0  0  0  0
    0.8980   12.3640   -4.3830 C   0  0  1  0  0  0  0  0  0  0  0  0
    0.9360   11.9770   -2.9090 C   0  0  0  0  0  0  0  0  0  0  0  0
   -0.5140   12.6710   -4.8380 C   0  0  0  0  0  0  0  0  0  0  0  0
    1.3410   12.7240   -2.0340 O   0  0  0  0  0  0  0  0  0  0  0  0
    0.4840   10.7410   -2.6070 O   0  0  0  0  0  0  0  0  0  0  0  0
   -1.2860   11.7260   -5.5460 C   0  0  0  0  0  0  0  0  0  0  0  0
   -1.1990   13.8820   -4.5660 C   0  0  0  0  0  0  0  0  0  0  0  0
   -0.7270   15.0510   -3.7820 C   0  0  0  0  0  0  0  0  0  0  0  0
   -1.1540   10.4020   -5.9720 C   0  0  0  0  0  0  0  0  0  0  0  0
   -2.5000   14.0760   -5.0300 C   0  0  0  0  0  0  0  0  0  0  0  0
   -2.5620   11.9780   -5.9760 C   0  0  0  0  0  0  0  0  0  0  0  0
   -1.5340   15.0670   -2.5700 N   0  0  0  0  0  0  0  0  0  0  0  0
   -0.3370    9.7020   -6.8320 C   0  0  0  0  0  0  0  0  0  0  0  0
   -2.1850    9.7690   -5.2920 C   0  0  0  0  0  0  0  0  0  0  0  0
   -3.1750   13.1350   -5.7370 C   0  0  0  0  0  0  0  0  0  0  0  0
    0.6720   10.2560   -7.5140 F   0  0  0  0  0  0  0  0  0  0  0  0
   -2.9270   15.1900   -2.5830 C   0  0  0  0  0  0  0  0  0  0  0  0
   -0.5970    8.3460   -6.9950 C   0  0  0  0  0  0  0  0  0  0  0  0
   -2.4440    8.4540   -5.4440 C   0  0  0  0  0  0  0  0  0  0  0  0
   -3.5700   15.3850   -3.6050 O   0  0  0  0  0  0  0  0  0  0  0  0
   -1.6500    7.7310   -6.3020 C   0  0  0  0  0  0  0  0  0  0  0  0
   -3.6450   15.1030   -1.2720 C   0  0  0  0  0  0  0  0  0  0  0  0
   -5.0310   15.2030   -1.2540 C   0  0  0  0  0  0  0  0  0  0  0  0
   -2.9140   14.9290   -0.1300 N   0  0  0  0  0  0  0  0  0  0  0  0
   -5.7440   15.1320   -0.1020 N   0  0  0  0  0  0  0  0  0  0  0  0
   -3.6370   14.8620    1.0140 C   0  0  0  0  0  0  0  0  0  0  0  0
   -5.0160   14.9600    1.0300 C   0  0  0  0  0  0  0  0  0  0  0  0
  2  1  1  1
  2  3  1  0
  2  4  1  0
  3  5  2  0
  3  6  1  0
  4  7  2  0
  4  8  1  0
  8  9  1  0
  7 10  1  0
  8 11  2  0
  7 12  1  0
  9 13  1  0
 10 14  2  0
 10 15  1  0
 11 16  1  0
 12 16  2  0
 14 17  1  0
 13 18  1  0
 14 19  1  0
 15 20  2  0
 18 21  2  0
 19 22  2  0
 20 22  1  0
 18 23  1  0
 23 24  2  0
 23 25  1  0
 24 26  1  0
 25 27  2  0
 26 28  2  0
 27 28  1  0
M  END
