diamond-x0905_0_A-mac-x0263
     RDKit          3D

 15 16  0  0  0  0  0  0  0  0999 V2000
   -6.7220   16.2570   -0.9520 O   0  0  0  0  0  0  0  0  0  0  0  0
   -6.0660   15.0630   -0.7030 C   0  0  2  0  0  0  0  0  0  0  0  0
   -5.4760   15.0250    0.6320 N   0  0  0  0  0  0  0  0  0  0  0  0
   -5.0380   14.8440   -1.7620 C   0  0  0  0  0  0  0  0  0  0  0  0
   -7.1310   14.1460   -0.4870 N   0  0  0  0  0  0  0  0  0  0  0  0
   -4.1240   15.1310    0.8800 C   0  0  0  0  0  0  0  0  0  0  0  0
   -3.7110   14.8470   -1.4790 C   0  0  0  0  0  0  0  0  0  0  0  0
   -7.4440   14.3330    0.8620 C   0  0  0  0  0  0  0  0  0  0  0  0
   -6.4590   14.8190    1.5840 N   0  0  0  0  0  0  0  0  0  0  0  0
   -8.7810   14.0380    1.4900 C   0  0  0  0  0  0  0  0  0  0  0  0
   -3.2330   15.0520   -0.1160 C   0  0  0  0  0  0  0  0  0  0  0  0
   -9.3850   15.3330    2.0660 C   0  0  0  0  0  0  0  0  0  0  0  0
  -10.7770   15.1790    2.6520 C   0  0  0  0  0  0  0  0  0  0  0  0
  -11.4430   14.1010    2.1980 O   0  0  0  0  0  0  0  0  0  0  0  0
  -11.2870   15.9340    3.4720 O   0  0  0  0  0  0  0  0  0  0  0  0
  2  1  1  6
  2  3  1  0
  2  4  1  0
  2  5  1  0
  3  6  1  0
  4  7  2  0
  5  8  1  0
  3  9  1  0
  8  9  2  0
  8 10  1  0
  6 11  2  0
  7 11  1  0
 10 12  1  0
 12 13  1  0
 13 14  1  0
 13 15  2  0
M  END
