diamond-x0805_0_A-mac-x0373
     RDKit          3D

 32 35  0  0  0  0  0  0  0  0999 V2000
   -5.0730   13.7160   -0.5410 C   0  0  0  0  0  0  0  0  0  0  0  0
   -4.3080   14.6110   -1.3550 O   0  0  0  0  0  0  0  0  0  0  0  0
   -3.8280   14.1440   -2.5540 C   0  0  0  0  0  0  0  0  0  0  0  0
   -4.5420   13.3270   -3.4100 C   0  0  0  0  0  0  0  0  0  0  0  0
   -2.5100   14.5380   -2.9200 C   0  0  0  0  0  0  0  0  0  0  0  0
   -3.9740   12.9020   -4.6060 C   0  0  0  0  0  0  0  0  0  0  0  0
   -1.9210   14.1130   -4.1250 C   0  0  0  0  0  0  0  0  0  0  0  0
   -2.6830   13.2880   -4.9600 C   0  0  0  0  0  0  0  0  0  0  0  0
   -0.5070   14.5060   -4.5710 C   0  0  2  0  0  0  0  0  0  0  0  0
    0.6780   14.1740   -3.6330 C   0  0  1  0  0  0  0  0  0  0  0  0
   -0.4530   16.0320   -4.8170 C   0  0  0  0  0  0  0  0  0  0  0  0
    1.0030   12.7810   -3.1910 C   0  0  0  0  0  0  0  0  0  0  0  0
    1.8920   14.6040   -4.3490 C   0  0  0  0  0  0  0  0  0  0  0  0
    0.9570   16.6060   -5.0310 C   0  0  0  0  0  0  0  0  0  0  0  0
    1.5110   11.9710   -4.1220 O   0  0  0  0  0  0  0  0  0  0  0  0
    0.8140   12.4930   -1.9840 N   0  0  0  0  0  0  0  0  0  0  0  0
    1.9460   15.9950   -4.2150 O   0  0  0  0  0  0  0  0  0  0  0  0
    0.2480   13.5030   -1.2850 C   0  0  0  0  0  0  0  0  0  0  0  0
    0.8250   14.5010   -0.8540 O   0  0  0  0  0  0  0  0  0  0  0  0
   -1.2180   13.1430   -1.1510 C   0  0  0  0  0  0  0  0  0  0  0  0
   -1.7460   12.2200   -2.2800 C   0  0  0  0  0  0  0  0  0  0  0  0
   -2.1990   14.1300   -0.5550 C   0  0  0  0  0  0  0  0  0  0  0  0
   -1.0300   11.9600   -3.4710 C   0  0  0  0  0  0  0  0  0  0  0  0
   -2.9920   11.5900   -2.1340 C   0  0  0  0  0  0  0  0  0  0  0  0
   -3.0080   14.9360   -1.3710 C   0  0  0  0  0  0  0  0  0  0  0  0
   -2.3250   14.2410    0.8250 C   0  0  0  0  0  0  0  0  0  0  0  0
   -1.5340   11.1130   -4.4590 C   0  0  0  0  0  0  0  0  0  0  0  0
   -3.4970   10.7410   -3.1220 C   0  0  0  0  0  0  0  0  0  0  0  0
   -3.9230   15.8110   -0.8000 C   0  0  0  0  0  0  0  0  0  0  0  0
   -3.2330   15.1110    1.3840 C   0  0  0  0  0  0  0  0  0  0  0  0
   -2.7660   10.5020   -4.2840 C   0  0  0  0  0  0  0  0  0  0  0  0
   -4.0280   15.8900    0.5740 C   0  0  0  0  0  0  0  0  0  0  0  0
  1  2  1  0
  2  3  1  0
  3  4  2  0
  3  5  1  0
  4  6  1  0
  5  7  2  0
  6  8  2  0
  7  8  1  0
  9  7  1  1
  9 10  1  0
  9 11  1  0
 10 12  1  6
 10 13  1  0
 11 14  1  0
 12 15  1  0
 12 16  2  3
 13 17  1  0
 14 17  1  0
 16 18  1  0
 18 19  2  0
 18 20  1  0
 20 21  1  0
 20 22  1  0
 21 23  2  0
 21 24  1  0
 22 25  2  0
 22 26  1  0
 23 27  1  0
 24 28  2  0
 25 29  1  0
 26 30  2  0
 27 31  2  0
 28 31  1  0
 29 32  2  0
 30 32  1  0
M  END
