diamond-x0933_0_A-diamond-x0905_0_A
     RDKit          3D

  8  8  0  0  0  0  0  0  0  0999 V2000
   -6.2900   14.3530    1.9280 N   0  0  0  0  0  0  0  0  0  0  0  0
   -5.2250   14.8520    1.1080 C   0  0  1  0  0  0  0  0  0  0  0  0
   -3.9570   14.4430    1.6200 N   0  0  0  0  0  0  0  0  0  0  0  0
   -5.4380   14.5010   -0.2780 N   0  0  0  0  0  0  0  0  0  0  0  0
   -6.7220   15.0800   -0.6970 O   0  0  0  0  0  0  0  0  0  0  0  0
   -4.3760   15.0660   -1.1250 C   0  0  0  0  0  0  0  0  0  0  0  0
   -2.8540   15.0320    0.8600 C   0  0  0  0  0  0  0  0  0  0  0  0
   -2.9700   14.7260   -0.6270 C   0  0  0  0  0  0  0  0  0  0  0  0
  2  1  1  1
  2  3  1  0
  2  4  1  0
  4  5  1  0
  4  6  1  0
  3  7  1  0
  6  8  1  0
  7  8  1  0
M  END
