diamond-x0465_0_A-mac-x0568
     RDKit          3D

 26 27  0  0  0  0  0  0  0  0999 V2000
    2.1950   13.1330   -4.7050 C   0  0  0  0  0  0  0  0  0  0  0  0
    0.8110   12.5210   -4.5270 C   0  0  1  0  0  0  0  0  0  0  0  0
    0.6130   11.4660   -5.4760 O   0  0  0  0  0  0  0  0  0  0  0  0
    0.7150   11.9520   -3.0950 C   0  0  0  0  0  0  0  0  0  0  0  0
    0.9040   12.6350   -2.0300 N   0  0  0  0  0  0  0  0  0  0  0  0
    0.4020   10.6400   -3.0480 O   0  0  0  0  0  0  0  0  0  0  0  0
   -0.5970   10.8400   -5.6000 C   0  0  0  0  0  0  0  0  0  0  0  0
    1.2430   14.0330   -1.8860 C   0  0  0  0  0  0  0  0  0  0  0  0
   -0.6680    9.8200   -6.5630 C   0  0  0  0  0  0  0  0  0  0  0  0
   -1.7420   11.1280   -4.8600 C   0  0  0  0  0  0  0  0  0  0  0  0
    0.4000    9.4980   -7.3120 F   0  0  0  0  0  0  0  0  0  0  0  0
    0.1710   14.7590   -1.0660 C   0  0  0  0  0  0  0  0  0  0  0  0
   -1.8430    9.1060   -6.7810 C   0  0  0  0  0  0  0  0  0  0  0  0
   -2.9270   10.4130   -5.0760 C   0  0  0  0  0  0  0  0  0  0  0  0
   -1.1630   14.0050   -0.9150 C   0  0  0  0  0  0  0  0  0  0  0  0
   -2.9760    9.4020   -6.0350 C   0  0  0  0  0  0  0  0  0  0  0  0
   -2.2690   14.8150   -0.4150 N   0  0  0  0  0  0  0  0  0  0  0  0
   -3.4120   15.0600   -1.1680 C   0  0  0  0  0  0  0  0  0  0  0  0
   -3.3870   15.3700   -2.3550 O   0  0  0  0  0  0  0  0  0  0  0  0
   -4.7300   14.9190   -0.4950 C   0  0  0  0  0  0  0  0  0  0  0  0
   -5.9140   14.8880   -1.2220 C   0  0  0  0  0  0  0  0  0  0  0  0
   -4.8270   14.8100    0.8930 C   0  0  0  0  0  0  0  0  0  0  0  0
   -7.1490   14.7540   -0.6770 N   0  0  0  0  0  0  0  0  0  0  0  0
   -6.0910   14.6720    1.4770 C   0  0  0  0  0  0  0  0  0  0  0  0
   -7.2190   14.6470    0.6670 C   0  0  0  0  0  0  0  0  0  0  0  0
   -8.5750   14.5020    1.2830 C   0  0  0  0  0  0  0  0  0  0  0  0
  2  1  1  6
  2  3  1  0
  2  4  1  0
  4  5  2  3
  4  6  1  0
  3  7  1  0
  5  8  1  0
  7  9  2  0
  7 10  1  0
  9 11  1  0
  8 12  1  0
  9 13  1  0
 10 14  2  0
 12 15  1  0
 13 16  2  0
 14 16  1  0
 15 17  1  0
 17 18  1  0
 18 19  2  0
 18 20  1  0
 20 21  2  0
 20 22  1  0
 21 23  1  0
 22 24  2  0
 23 25  2  0
 24 25  1  0
 25 26  1  0
M  END
