diamond-x0253_0_A-mac-x0212
     RDKit          3D

 29 30  0  0  0  0  0  0  0  0999 V2000
    0.3750   11.9060   -5.4100 N   0  0  0  0  0  0  0  0  0  0  0  0
    1.1010   11.6470   -6.5450 C   0  0  0  0  0  0  0  0  0  0  0  0
    2.2110   12.1120   -6.6720 O   0  0  0  0  0  0  0  0  0  0  0  0
    1.0470   12.7210   -4.3910 C   0  0  0  0  0  0  0  0  0  0  0  0
    0.7700   12.3090   -2.9160 C   0  0  0  0  0  0  0  0  0  0  0  0
    0.4920   10.7470   -7.5710 C   0  0  0  0  0  0  0  0  0  0  0  0
    1.9500   12.4920   -2.1670 O   0  0  0  0  0  0  0  0  0  0  0  0
    0.4270   10.9320   -2.8020 O   0  0  0  0  0  0  0  0  0  0  0  0
   -0.3200   13.1860   -2.2840 C   0  0  0  0  0  0  0  0  0  0  0  0
   -0.4850    9.8370   -7.1440 C   0  0  0  0  0  0  0  0  0  0  0  0
    0.8520   10.7720   -8.9290 C   0  0  0  0  0  0  0  0  0  0  0  0
   -0.8890   14.0380   -3.3150 N   0  0  0  0  0  0  0  0  0  0  0  0
   -1.0970    8.9660   -8.0550 C   0  0  0  0  0  0  0  0  0  0  0  0
    0.2470    9.9060   -9.8360 C   0  0  0  0  0  0  0  0  0  0  0  0
   -2.1430    7.9980   -7.5900 C   0  0  0  0  0  0  0  0  0  0  0  0
   -1.9520   14.6830   -3.1150 C   0  0  0  0  0  0  0  0  0  0  0  0
   -0.7240    9.0080   -9.4020 C   0  0  0  0  0  0  0  0  0  0  0  0
   -2.4050   15.4210   -4.1330 O   0  0  0  0  0  0  0  0  0  0  0  0
   -2.8420   14.7970   -1.9680 C   0  0  0  0  0  0  0  0  0  0  0  0
   -2.4230   14.3780   -0.6980 C   0  0  0  0  0  0  0  0  0  0  0  0
   -4.1080   15.3260   -2.1640 C   0  0  0  0  0  0  0  0  0  0  0  0
   -3.3040   14.4910    0.3810 C   0  0  0  0  0  0  0  0  0  0  0  0
   -4.9830   15.4390   -1.0850 C   0  0  0  0  0  0  0  0  0  0  0  0
   -4.5810   15.0150    0.1880 C   0  0  0  0  0  0  0  0  0  0  0  0
   -5.4520   15.0920    1.3130 N   0  0  0  0  0  0  0  0  0  0  0  0
   -6.9750   14.4020    1.1200 S   0  0  0  0  0  0  0  0  0  0  0  0
   -6.6000   12.6930    1.4680 C   0  0  0  0  0  0  0  0  0  0  0  0
   -7.7890   14.9160    2.2000 O   0  0  0  0  0  0  0  0  0  0  0  0
   -7.4170   14.5250   -0.2530 O   0  0  0  0  0  0  0  0  0  0  0  0
  1  2  1  0
  2  3  2  0
  1  4  1  0
  4  5  1  0
  2  6  1  0
  5  7  1  0
  5  8  1  0
  5  9  1  0
  6 10  2  0
  6 11  1  0
  9 12  1  0
 10 13  1  0
 11 14  2  0
 13 15  1  0
 12 16  2  3
 13 17  2  0
 14 17  1  0
 16 18  1  0
 16 19  1  0
 19 20  2  0
 19 21  1  0
 20 22  1  0
 21 23  2  0
 22 24  2  0
 23 24  1  0
 24 25  1  0
 26 25  1  0
 26 27  1  0
 26 28  2  0
 26 29  2  0
M  END
