diamond-x0849_0_A-diamond-x0900_0_A
     RDKit          3D

 12 13  0  0  0  0  0  0  0  0999 V2000
   -3.6120   14.6130   -2.8210 Br  0  0  0  0  0  0  0  0  0  0  0  0
   -3.6020   15.4870   -1.0910 C   0  0  2  0  0  0  0  0  0  0  0  0
   -2.3150   15.3440   -0.2820 C   0  0  1  0  0  0  0  0  0  0  0  0
   -4.8790   15.0880   -0.3340 C   0  0  0  0  0  0  0  0  0  0  0  0
   -5.9620   14.9270   -0.9240 O   0  0  0  0  0  0  0  0  0  0  0  0
   -2.5440   14.5310    0.9860 C   0  0  2  0  0  0  0  0  0  0  0  0
   -4.8190   14.8860    1.1780 C   0  0  0  0  0  0  0  0  0  0  0  0
   -1.0250   14.9510   -1.0360 C   0  0  0  0  0  0  0  0  0  0  0  0
   -3.5290   15.2330    1.7220 N   0  0  0  0  0  0  0  0  0  0  0  0
   -1.3280   14.3460    1.7070 N   0  0  0  0  0  0  0  0  0  0  0  0
    0.1170   14.9190   -0.0700 C   0  0  0  0  0  0  0  0  0  0  0  0
   -0.1170   14.6330    1.2100 C   0  0  0  0  0  0  0  0  0  0  0  0
  2  1  1  6
  2  3  1  0
  2  4  1  0
  4  5  2  0
  3  6  1  0
  4  7  1  0
  3  8  1  6
  6  9  1  1
  7  9  1  0
  6 10  1  0
  8 11  1  0
 10 12  1  0
 11 12  2  0
M  END
