diamond-x0967_0_A-mac-x0132
     RDKit          3D

 11 12  0  0  0  0  0  0  0  0999 V2000
   -4.8910   14.6960    3.0230 N   0  0  0  0  0  0  0  0  0  0  0  0
   -5.6300   14.6960    1.8250 C   0  0  0  0  0  0  0  0  0  0  0  0
   -4.9760   14.8100    0.5940 C   0  0  0  0  0  0  0  0  0  0  0  0
   -7.0190   14.5770    1.8520 C   0  0  0  0  0  0  0  0  0  0  0  0
   -5.7400   14.8040   -0.5870 C   0  0  0  0  0  0  0  0  0  0  0  0
   -7.6860   14.5800    0.6440 C   0  0  0  0  0  0  0  0  0  0  0  0
   -3.5810   14.9270    0.4910 C   0  0  0  0  0  0  0  0  0  0  0  0
   -7.0700   14.6910   -0.5550 N   0  0  0  0  0  0  0  0  0  0  0  0
   -5.1570   14.9080   -1.7820 N   0  0  0  0  0  0  0  0  0  0  0  0
   -2.9930   15.0310   -0.7500 C   0  0  0  0  0  0  0  0  0  0  0  0
   -3.8180   15.0180   -1.8510 C   0  0  0  0  0  0  0  0  0  0  0  0
  1  2  1  0
  2  3  2  0
  2  4  1  0
  3  5  1  0
  4  6  2  0
  3  7  1  0
  5  8  2  0
  6  8  1  0
  5  9  1  0
  7 10  2  0
  9 11  2  0
 10 11  1  0
M  END
