diamond-x0722_0_A-mac-x0510
     RDKit          3D

 16 17  0  0  0  0  0  0  0  0999 V2000
   -4.5040   15.8080    2.2010 C   0  0  0  0  0  0  0  0  0  0  0  0
   -3.4920   15.3470    1.2290 C   0  0  0  0  0  0  0  0  0  0  0  0
   -2.4800   14.7840    1.7780 N   0  0  0  0  0  0  0  0  0  0  0  0
   -3.6780   15.5800   -0.2740 C   0  0  0  0  0  0  0  0  0  0  0  0
   -5.0390   15.7370   -0.9040 C   0  0  0  0  0  0  0  0  0  0  0  0
   -2.5430   15.6240   -0.9890 C   0  0  0  0  0  0  0  0  0  0  0  0
   -1.4870   14.4060    0.8290 C   0  0  1  0  0  0  0  0  0  0  0  0
   -1.7660   13.2960   -0.0850 C   0  0  0  0  0  0  0  0  0  0  0  0
   -2.2990   15.7770   -2.4410 C   0  0  0  0  0  0  0  0  0  0  0  0
   -6.0730   14.7060   -0.4830 C   0  0  0  0  0  0  0  0  0  0  0  0
   -1.3600   15.4670   -0.1680 C   0  0  0  0  0  0  0  0  0  0  0  0
   -0.1550   14.4910    1.3950 C   0  0  0  0  0  0  0  0  0  0  0  0
   -7.2770   14.9090   -0.5580 O   0  0  0  0  0  0  0  0  0  0  0  0
   -5.6030   13.5170   -0.0130 N   0  0  0  0  0  0  0  0  0  0  0  0
   -0.2620   16.0700   -0.2260 N   0  0  0  0  0  0  0  0  0  0  0  0
    0.4620   15.4690    0.7640 C   0  0  0  0  0  0  0  0  0  0  0  0
  1  2  1  0
  2  3  2  0
  2  4  1  0
  4  5  1  0
  4  6  2  0
  3  7  1  0
  7  8  1  6
  6  9  1  0
  5 10  1  0
  6 11  1  0
  7 11  1  0
  7 12  1  0
 10 13  2  0
 10 14  1  0
 11 15  2  0
 12 16  2  0
 15 16  1  0
M  END
