diamond-x0722_0_A-mac-x0138
     RDKit          3D

 16 17  0  0  0  0  0  0  0  0999 V2000
   -4.3640   15.8230    2.2500 C   0  0  0  0  0  0  0  0  0  0  0  0
   -3.4640   15.5230    1.0830 C   0  0  1  0  0  0  0  0  0  0  0  0
   -2.3680   14.7810    1.6960 N   0  0  0  0  0  0  0  0  0  0  0  0
   -4.1560   14.7180   -0.0490 C   0  0  1  0  0  0  0  0  0  0  0  0
   -5.2650   15.5310   -0.7390 C   0  0  0  0  0  0  0  0  0  0  0  0
   -1.5380   14.0990    0.7460 N   0  0  0  0  0  0  0  0  0  0  0  0
   -3.2290   14.2910   -1.1250 N   0  0  0  0  0  0  0  0  0  0  0  0
   -0.1460   14.1760    1.1450 C   0  0  0  0  0  0  0  0  0  0  0  0
   -6.5910   14.8350   -0.6380 C   0  0  0  0  0  0  0  0  0  0  0  0
   -1.8170   14.3500   -0.6850 C   0  0  2  0  0  0  0  0  0  0  0  0
   -3.2980   15.2140   -2.2850 C   0  0  0  0  0  0  0  0  0  0  0  0
   -7.6670   15.3260   -0.9090 O   0  0  0  0  0  0  0  0  0  0  0  0
   -6.5060   13.5420   -0.1970 N   0  0  0  0  0  0  0  0  0  0  0  0
   -1.0240   13.3440   -1.5470 C   0  0  0  0  0  0  0  0  0  0  0  0
   -1.9590   15.7300   -2.5300 N   0  0  0  0  0  0  0  0  0  0  0  0
   -1.4050   15.7300   -1.1700 C   0  0  0  0  0  0  0  0  0  0  0  0
  2  1  1  1
  2  3  1  0
  2  4  1  0
  4  5  1  6
  3  6  1  0
  4  7  1  0
  6  8  1  0
  5  9  1  0
  6 10  1  0
  7 10  1  0
  7 11  1  0
  9 12  2  0
  9 13  1  0
 10 14  1  6
 11 15  1  0
 10 16  1  0
 15 16  1  0
M  END
