diamond-x0962_1_A-mac-x0277
     RDKit          3D

 22 23  0  0  0  0  0  0  0  0999 V2000
   -3.2010   15.1370   -0.6360 N   0  0  0  0  0  0  0  0  0  0  0  0
   -4.5000   14.9920   -1.2560 C   0  0  1  0  0  0  0  0  0  0  0  0
   -4.4440   13.8880   -2.3300 C   0  0  0  0  0  0  0  0  0  0  0  0
   -5.5780   14.8090   -0.2490 C   0  0  0  0  0  0  0  0  0  0  0  0
   -3.4260   14.0650   -3.4660 C   0  0  0  0  0  0  0  0  0  0  0  0
   -5.3520   14.7990    1.1090 N   0  0  0  0  0  0  0  0  0  0  0  0
   -6.9380   14.6150   -0.3620 C   0  0  0  0  0  0  0  0  0  0  0  0
   -3.7100   15.2860   -4.3380 C   0  0  0  0  0  0  0  0  0  0  0  0
   -6.5560   14.6040    1.7310 C   0  0  0  0  0  0  0  0  0  0  0  0
   -7.5340   14.4890    0.8630 N   0  0  0  0  0  0  0  0  0  0  0  0
   -2.7470   15.5570   -5.4920 C   0  0  0  0  0  0  0  0  0  0  0  0
   -1.2930   15.6220   -5.0920 C   0  0  0  0  0  0  0  0  0  0  0  0
   -0.6260   14.4120   -4.8500 C   0  0  0  0  0  0  0  0  0  0  0  0
   -0.5760   16.8210   -4.9570 C   0  0  0  0  0  0  0  0  0  0  0  0
   -1.3010   18.3620   -5.2420 Cl  0  0  0  0  0  0  0  0  0  0  0  0
    0.7210   14.3800   -4.4790 C   0  0  0  0  0  0  0  0  0  0  0  0
    0.7680   16.7980   -4.5850 C   0  0  0  0  0  0  0  0  0  0  0  0
    1.3990   13.0560   -4.2270 C   0  0  0  0  0  0  0  0  0  0  0  0
    1.4140   15.5830   -4.3460 C   0  0  0  0  0  0  0  0  0  0  0  0
    0.9480   12.4070   -2.9420 C   0  0  0  0  0  0  0  0  0  0  0  0
    0.2630   11.2630   -3.1600 O   0  0  0  0  0  0  0  0  0  0  0  0
    1.1280   12.7970   -1.8050 O   0  0  0  0  0  0  0  0  0  0  0  0
  2  1  1  1
  2  3  1  0
  2  4  1  0
  3  5  1  0
  4  6  1  0
  4  7  2  0
  5  8  1  0
  6  9  1  0
  7 10  1  0
  9 10  2  0
  8 11  1  0
 11 12  1  0
 12 13  2  0
 12 14  1  0
 14 15  1  0
 13 16  1  0
 14 17  2  0
 16 18  1  0
 16 19  2  0
 17 19  1  0
 18 20  1  0
 20 21  1  0
 20 22  2  0
M  END
