diamond-x0837_0_A-mac-x1493
     RDKit          3D

 14 15  0  0  0  0  0  0  0  0999 V2000
   -7.6580   13.5080   -0.8920 O   0  0  0  0  0  0  0  0  0  0  0  0
   -7.2520   14.4230    0.0740 C   0  0  1  0  0  0  0  0  0  0  0  0
   -8.1980   15.4450    0.0730 N   0  0  0  0  0  0  0  0  0  0  0  0
   -7.3200   13.8400    1.4570 C   0  0  0  0  0  0  0  0  0  0  0  0
   -5.8790   14.8770   -0.2260 C   0  0  1  0  0  0  0  0  0  0  0  0
   -4.8480   14.5650    0.7740 C   0  0  1  0  0  0  0  0  0  0  0  0
   -5.2380   14.5190   -1.5130 C   0  0  0  0  0  0  0  0  0  0  0  0
   -6.5830   14.7370    2.3810 C   0  0  0  0  0  0  0  0  0  0  0  0
   -3.5970   15.1310    0.1590 C   0  0  0  0  0  0  0  0  0  0  0  0
   -3.9620   15.2610   -1.3260 C   0  0  1  0  0  0  0  0  0  0  0  0
   -5.3590   15.0810    2.0410 C   0  0  0  0  0  0  0  0  0  0  0  0
   -2.4610   14.6290   -2.6560 I   0  0  2  0  0  0  0  0  0  0  0  0
   -0.7550   14.4870   -1.6600 O   0  0  0  0  0  0  0  0  0  0  0  0
   -2.3250   15.8310   -3.9540 O   0  0  0  0  0  0  0  0  0  0  0  0
  2  1  1  0
  2  3  1  1
  2  4  1  0
  2  5  1  0
  5  6  1  0
  5  7  1  6
  4  8  1  0
  6  9  1  6
 10  7  1  1
  9 10  1  0
  6 11  1  0
  8 11  2  0
 10 12  1  0
 12 13  1  1
 12 14  2  0
M  END
