diamond-x0253_0_A-mac-x0115
     RDKit          3D

 30 32  0  0  0  0  0  0  0  0999 V2000
    0.4020   11.6890   -5.2110 N   0  0  0  0  0  0  0  0  0  0  0  0
    1.0560   11.6240   -6.4410 C   0  0  0  0  0  0  0  0  0  0  0  0
    2.0920   12.2260   -6.6350 O   0  0  0  0  0  0  0  0  0  0  0  0
    1.0840   12.3120   -4.0700 C   0  0  0  0  0  0  0  0  0  0  0  0
    0.6380   11.8020   -2.6820 C   0  0  0  0  0  0  0  0  0  0  0  0
    0.4620   10.7440   -7.5010 C   0  0  0  0  0  0  0  0  0  0  0  0
    0.4930   12.4660   -1.5830 N   0  0  0  0  0  0  0  0  0  0  0  0
    0.3610   10.4790   -2.5930 O   0  0  0  0  0  0  0  0  0  0  0  0
   -0.5230    9.8290   -7.1030 C   0  0  0  0  0  0  0  0  0  0  0  0
    0.8370   10.7830   -8.8570 C   0  0  0  0  0  0  0  0  0  0  0  0
   -1.1250    8.9700   -8.0310 C   0  0  0  0  0  0  0  0  0  0  0  0
    0.2420    9.9300   -9.7820 C   0  0  0  0  0  0  0  0  0  0  0  0
    0.7590   13.8870   -1.5980 C   0  0  1  0  0  0  0  0  0  0  0  0
   -2.1790    7.9980   -7.5830 C   0  0  0  0  0  0  0  0  0  0  0  0
   -0.7370    9.0250   -9.3750 C   0  0  0  0  0  0  0  0  0  0  0  0
   -0.1780   14.5120   -2.5240 N   0  0  0  0  0  0  0  0  0  0  0  0
    0.6030   14.3710   -0.2650 N   0  0  0  0  0  0  0  0  0  0  0  0
    0.3090   14.6370   -3.9120 C   0  0  0  0  0  0  0  0  0  0  0  0
   -0.5740   14.7280    0.3250 C   0  0  0  0  0  0  0  0  0  0  0  0
   -1.0510   15.5930   -2.0280 C   0  0  2  0  0  0  0  0  0  0  0  0
    0.5660   16.0280   -4.5060 C   0  0  0  0  0  0  0  0  0  0  0  0
   -0.8760   14.4030    1.4750 O   0  0  0  0  0  0  0  0  0  0  0  0
   -1.4870   15.5790   -0.5270 C   0  0  1  0  0  0  0  0  0  0  0  0
   -2.4190   15.6020   -2.6910 C   0  0  0  0  0  0  0  0  0  0  0  0
   -0.5580   16.4540   -5.2740 O   0  0  0  0  0  0  0  0  0  0  0  0
   -2.8750   15.0740   -0.5510 N   0  0  0  0  0  0  0  0  0  0  0  0
   -3.3810   15.3100   -1.8050 C   0  0  0  0  0  0  0  0  0  0  0  0
   -0.4330   17.7440   -5.8730 C   0  0  0  0  0  0  0  0  0  0  0  0
   -1.4620   18.6770   -5.2690 C   0  0  0  0  0  0  0  0  0  0  0  0
    0.9890   18.2320   -5.6320 C   0  0  0  0  0  0  0  0  0  0  0  0
  1  2  1  0
  2  3  2  0
  1  4  1  0
  4  5  1  0
  2  6  1  0
  5  7  2  3
  5  8  1  0
  6  9  2  0
  6 10  1  0
  9 11  1  0
 10 12  2  0
 13  7  1  1
 11 14  1  0
 11 15  2  0
 12 15  1  0
 13 16  1  0
 13 17  1  0
 16 18  1  0
 17 19  1  0
 16 20  1  0
 18 21  1  0
 19 22  2  0
 19 23  1  0
 20 23  1  0
 20 24  1  6
 21 25  1  0
 23 26  1  6
 24 27  2  0
 26 27  1  0
 25 28  1  0
 28 29  1  0
 28 30  1  0
M  END
