diamond-x1015_0_A-mac-x0302
     RDKit          3D

 27 29  0  0  0  0  0  0  0  0999 V2000
   -1.5390   14.1600   -3.9970 C   0  0  0  0  0  0  0  0  0  0  0  0
   -2.0490   14.6610   -2.7250 N   0  0  0  0  0  0  0  0  0  0  0  0
   -3.2990   15.2040   -2.6620 C   0  0  0  0  0  0  0  0  0  0  0  0
   -0.1830   13.4500   -3.8130 C   0  0  2  0  0  0  0  0  0  0  0  0
   -0.1880   11.9950   -3.9630 N   0  0  0  0  0  0  0  0  0  0  0  0
    0.1680   13.5970   -2.3370 C   0  0  2  0  0  0  0  0  0  0  0  0
    1.1980   14.6330   -2.1170 C   0  0  0  0  0  0  0  0  0  0  0  0
   -3.8280   15.7240   -3.6240 O   0  0  0  0  0  0  0  0  0  0  0  0
    0.2250   11.3790   -2.7700 C   0  0  0  0  0  0  0  0  0  0  0  0
    0.7390   12.3510   -1.9560 N   0  0  0  0  0  0  0  0  0  0  0  0
   -0.5640   11.2900   -5.1190 C   0  0  0  0  0  0  0  0  0  0  0  0
   -4.0030   15.1260   -1.3540 C   0  0  0  0  0  0  0  0  0  0  0  0
    0.1910   10.2160   -2.4150 O   0  0  0  0  0  0  0  0  0  0  0  0
    1.9290   14.9090   -3.2170 O   0  0  0  0  0  0  0  0  0  0  0  0
    1.3800   15.1590   -1.0630 O   0  0  0  0  0  0  0  0  0  0  0  0
    0.0170   11.5490   -6.3660 C   0  0  0  0  0  0  0  0  0  0  0  0
   -1.5390   10.2920   -5.0340 C   0  0  0  0  0  0  0  0  0  0  0  0
   -5.3960   15.0830   -1.3870 C   0  0  0  0  0  0  0  0  0  0  0  0
   -3.3200   15.0900   -0.1300 C   0  0  0  0  0  0  0  0  0  0  0  0
   -0.3680   10.8230   -7.4970 C   0  0  0  0  0  0  0  0  0  0  0  0
   -1.9270    9.5660   -6.1560 C   0  0  0  0  0  0  0  0  0  0  0  0
   -6.0980   15.0000   -0.1940 C   0  0  0  0  0  0  0  0  0  0  0  0
   -4.0380   15.0100    1.0630 C   0  0  0  0  0  0  0  0  0  0  0  0
   -7.4600   14.9530   -0.1930 O   0  0  0  0  0  0  0  0  0  0  0  0
   -1.3400    9.8330   -7.3830 C   0  0  0  0  0  0  0  0  0  0  0  0
   -5.4300   14.9620    1.0270 C   0  0  0  0  0  0  0  0  0  0  0  0
   -1.8230    8.9310   -8.7610 Cl  0  0  0  0  0  0  0  0  0  0  0  0
  1  2  1  0
  2  3  1  0
  4  1  1  1
  4  5  1  0
  4  6  1  0
  6  7  1  6
  3  8  2  0
  5  9  1  0
  6 10  1  0
  9 10  1  0
  5 11  1  0
  3 12  1  0
  9 13  2  0
  7 14  1  0
  7 15  2  0
 11 16  2  0
 11 17  1  0
 12 18  2  0
 12 19  1  0
 16 20  1  0
 17 21  2  0
 18 22  1  0
 19 23  2  0
 22 24  1  0
 20 25  2  0
 21 25  1  0
 22 26  2  0
 23 26  1  0
 25 27  1  0
M  END
