diamond-x0962_3_A-diamond-x0950_1_A
     RDKit          3D

 14 14  0  0  0  0  0  0  0  0999 V2000
    1.1960   11.1410   -9.0690 N   0  0  0  0  0  0  0  0  0  0  0  0
    0.4050   11.2910   -7.8620 C   0  0  2  0  0  0  0  0  0  0  0  0
    1.2110   11.8750   -6.6670 C   0  0  0  0  0  0  0  0  0  0  0  0
   -0.2520    9.9990   -7.6260 C   0  0  0  0  0  0  0  0  0  0  0  0
    0.7090   11.6590   -5.3560 O   0  0  0  0  0  0  0  0  0  0  0  0
    0.1400    8.8290   -8.2380 N   0  0  0  0  0  0  0  0  0  0  0  0
   -1.3120    9.6460   -6.8360 C   0  0  0  0  0  0  0  0  0  0  0  0
    1.3040   12.4450   -4.3380 C   0  0  1  0  0  0  0  0  0  0  0  0
   -0.6900    7.8460   -7.7980 C   0  0  0  0  0  0  0  0  0  0  0  0
   -1.5790    8.3140   -6.9480 N   0  0  0  0  0  0  0  0  0  0  0  0
    0.9370   13.9020   -4.6270 C   0  0  0  0  0  0  0  0  0  0  0  0
    0.9280   12.0750   -2.8950 C   0  0  0  0  0  0  0  0  0  0  0  0
    0.3110   11.0740   -2.5950 O   0  0  0  0  0  0  0  0  0  0  0  0
    1.3470   12.9570   -1.9640 O   0  0  0  0  0  0  0  0  0  0  0  0
  2  1  1  6
  2  3  1  0
  2  4  1  0
  3  5  1  0
  4  6  1  0
  4  7  2  0
  5  8  1  0
  6  9  1  0
  7 10  1  0
  9 10  2  0
  8 11  1  6
  8 12  1  0
 12 13  2  0
 12 14  1  0
M  END
