diamond-x0722_0_A-mac-x0584
     RDKit          3D

 25 28  0  0  0  0  0  0  0  0999 V2000
   -4.3450   15.8480    2.5480 C   0  0  0  0  0  0  0  0  0  0  0  0
   -3.2980   15.3280    1.6610 C   0  0  0  0  0  0  0  0  0  0  0  0
   -2.0870   14.9670    2.0810 N   0  0  0  0  0  0  0  0  0  0  0  0
   -3.5880   15.2340    0.2510 C   0  0  0  0  0  0  0  0  0  0  0  0
   -4.8320   15.5920   -0.4970 C   0  0  0  0  0  0  0  0  0  0  0  0
   -1.3910   14.6170    0.8520 C   0  0  2  0  0  0  0  0  0  0  0  0
   -2.4450   14.7790   -0.1540 C   0  0  0  0  0  0  0  0  0  0  0  0
   -0.5760   13.4210    0.9490 C   0  0  0  0  0  0  0  0  0  0  0  0
   -5.9870   14.6270   -0.3360 C   0  0  0  0  0  0  0  0  0  0  0  0
   -2.1280   14.5090   -1.4360 C   0  0  0  0  0  0  0  0  0  0  0  0
   -0.2270   15.3960    0.3380 C   0  0  0  0  0  0  0  0  0  0  0  0
   -7.1420   14.9310   -0.6260 O   0  0  0  0  0  0  0  0  0  0  0  0
   -5.6950   13.3850    0.1450 N   0  0  0  0  0  0  0  0  0  0  0  0
   -3.1770   13.8800   -2.2650 C   0  0  0  0  0  0  0  0  0  0  0  0
   -0.0030   15.4710   -0.9480 N   0  0  0  0  0  0  0  0  0  0  0  0
   -0.9360   14.8850   -1.8030 C   0  0  0  0  0  0  0  0  0  0  0  0
   -0.7910   14.6960   -3.1070 N   0  0  0  0  0  0  0  0  0  0  0  0
    0.4130   14.6120   -3.8810 C   0  0  1  0  0  0  0  0  0  0  0  0
   -1.9760   14.9480   -3.9200 C   0  0  0  0  0  0  0  0  0  0  0  0
    0.5980   13.1600   -4.2330 C   0  0  0  0  0  0  0  0  0  0  0  0
    0.0500   15.4380   -5.1140 C   0  0  0  0  0  0  0  0  0  0  0  0
   -1.4590   15.2950   -5.2760 C   0  0  0  0  0  0  0  0  0  0  0  0
    1.4850   12.2940   -3.3210 C   0  0  0  0  0  0  0  0  0  0  0  0
   -0.6020   12.2900   -3.7480 C   0  0  0  0  0  0  0  0  0  0  0  0
    0.3950   11.1930   -3.4220 C   0  0  0  0  0  0  0  0  0  0  0  0
  1  2  1  0
  2  3  2  0
  2  4  1  0
  4  5  1  0
  3  6  1  0
  4  7  2  0
  6  7  1  0
  6  8  1  1
  5  9  1  0
  7 10  1  0
  6 11  1  0
  9 12  2  0
  9 13  1  0
 10 14  1  0
 11 15  2  0
 10 16  2  0
 15 16  1  0
 16 17  1  0
 17 18  1  0
 17 19  1  0
 18 20  1  6
 18 21  1  0
 19 22  1  0
 21 22  1  0
 20 23  1  0
 20 24  1  0
 23 25  1  0
 24 25  1  0
M  END
