diamond-x0900_1_A-mac-x0231
     RDKit          3D

 23 25  0  0  0  0  0  0  0  0999 V2000
   -0.8970    9.6890   -9.8580 O   0  0  0  0  0  0  0  0  0  0  0  0
   -1.0060    9.3410   -8.6960 C   0  0  0  0  0  0  0  0  0  0  0  0
    0.0010    9.3380   -7.7580 N   0  0  0  0  0  0  0  0  0  0  0  0
   -2.2530    8.8500   -7.9920 C   0  0  0  0  0  0  0  0  0  0  0  0
   -1.7720    8.6650   -6.5500 C   0  0  0  0  0  0  0  0  0  0  0  0
   -0.6280    9.6560   -6.5110 C   0  0  1  0  0  0  0  0  0  0  0  0
    0.2780    9.6030   -5.2930 C   0  0  0  0  0  0  0  0  0  0  0  0
   -0.2280   10.3420   -4.0750 C   0  0  0  0  0  0  0  0  0  0  0  0
    0.8730   10.5650   -3.1900 O   0  0  0  0  0  0  0  0  0  0  0  0
    1.2390   11.8670   -3.0800 C   0  0  0  0  0  0  0  0  0  0  0  0
    1.2520   12.4850   -2.0230 O   0  0  0  0  0  0  0  0  0  0  0  0
    1.6250   12.4720   -4.4020 C   0  0  0  0  0  0  0  0  0  0  0  0
    1.1500   13.9040   -4.4980 C   0  0  0  0  0  0  0  0  0  0  0  0
   -0.2630   14.2090   -4.8310 C   0  0  0  0  0  0  0  0  0  0  0  0
    2.0270   14.8260   -4.2490 N   0  0  0  0  0  0  0  0  0  0  0  0
   -0.6430   15.5480   -4.8360 C   0  0  0  0  0  0  0  0  0  0  0  0
    1.6400   16.1250   -4.3070 N   0  0  0  0  0  0  0  0  0  0  0  0
   -1.2190   13.2280   -5.1290 C   0  0  0  0  0  0  0  0  0  0  0  0
    0.3670   16.5800   -4.5370 C   0  0  0  0  0  0  0  0  0  0  0  0
   -1.9640   15.9200   -5.1240 C   0  0  0  0  0  0  0  0  0  0  0  0
   -2.5350   13.5950   -5.4200 C   0  0  0  0  0  0  0  0  0  0  0  0
    0.0750   17.7690   -4.5070 O   0  0  0  0  0  0  0  0  0  0  0  0
   -2.9110   14.9350   -5.4150 C   0  0  0  0  0  0  0  0  0  0  0  0
  1  2  2  0
  2  3  1  0
  2  4  1  0
  4  5  1  0
  3  6  1  0
  5  6  1  0
  6  7  1  1
  7  8  1  0
  8  9  1  0
  9 10  1  0
 10 11  2  0
 10 12  1  0
 12 13  1  0
 13 14  1  0
 13 15  2  0
 14 16  2  0
 15 17  1  0
 14 18  1  0
 16 19  1  0
 17 19  1  0
 16 20  1  0
 18 21  2  0
 19 22  2  0
 20 23  2  0
 21 23  1  0
M  END
