diamond-x0662_0_A-mac-x0228
     RDKit          3D

 32 35  0  0  0  0  0  0  0  0999 V2000
    5.3390    9.5870  -15.0420 C   0  0  0  0  0  0  0  0  0  0  0  0
    4.2910   10.0300  -14.1530 N   0  0  0  0  0  0  0  0  0  0  0  0
    3.6230   11.2210  -14.1890 C   0  0  0  0  0  0  0  0  0  0  0  0
    3.8940    9.2150  -13.1640 N   0  0  0  0  0  0  0  0  0  0  0  0
    2.7280   11.1780  -13.1430 C   0  0  0  0  0  0  0  0  0  0  0  0
    2.9280    9.9090  -12.5240 C   0  0  0  0  0  0  0  0  0  0  0  0
    2.2410    9.3340  -11.3410 C   0  0  0  0  0  0  0  0  0  0  0  0
    2.4900    8.1870  -10.9890 O   0  0  0  0  0  0  0  0  0  0  0  0
    1.3620   10.1960  -10.7190 N   0  0  0  0  0  0  0  0  0  0  0  0
    0.5990    9.9660   -9.5520 C   0  0  0  0  0  0  0  0  0  0  0  0
   -0.3640    8.9690   -9.4340 C   0  0  0  0  0  0  0  0  0  0  0  0
    0.8330   10.7920   -8.4550 C   0  0  0  0  0  0  0  0  0  0  0  0
   -1.0690    8.8170   -8.2340 C   0  0  0  0  0  0  0  0  0  0  0  0
    0.1490   10.6710   -7.2380 C   0  0  0  0  0  0  0  0  0  0  0  0
    0.4220   11.5850   -6.0520 C   0  0  0  0  0  0  0  0  0  0  0  0
   -0.8180    9.6590   -7.1440 C   0  0  0  0  0  0  0  0  0  0  0  0
   -0.4480   11.7180   -5.1190 N   0  0  0  0  0  0  0  0  0  0  0  0
    1.5420   12.1210   -6.1600 O   0  0  0  0  0  0  0  0  0  0  0  0
   -0.0270   12.6360   -4.0540 C   0  0  0  0  0  0  0  0  0  0  0  0
   -0.5330   14.0680   -4.2820 C   0  0  0  0  0  0  0  0  0  0  0  0
   -1.8930   14.3160   -3.8140 N   0  0  0  0  0  0  0  0  0  0  0  0
   -2.1210   14.5700   -2.5820 C   0  0  0  0  0  0  0  0  0  0  0  0
   -1.1870   14.6700   -1.6260 O   0  0  0  0  0  0  0  0  0  0  0  0
   -3.4910   14.7570   -2.0570 C   0  0  0  0  0  0  0  0  0  0  0  0
   -3.7300   14.5350   -0.6950 C   0  0  0  0  0  0  0  0  0  0  0  0
   -4.5480   15.1350   -2.9010 C   0  0  0  0  0  0  0  0  0  0  0  0
   -5.0210   14.6930   -0.2240 C   0  0  0  0  0  0  0  0  0  0  0  0
   -5.8450   15.2920   -2.4000 C   0  0  0  0  0  0  0  0  0  0  0  0
   -6.0530   15.0650   -1.0640 C   0  0  0  0  0  0  0  0  0  0  0  0
   -5.5460   14.5120    1.1370 C   0  0  0  0  0  0  0  0  0  0  0  0
   -7.2670   15.1710   -0.4330 O   0  0  0  0  0  0  0  0  0  0  0  0
   -7.0400   14.4770    0.8150 C   0  0  0  0  0  0  0  0  0  0  0  0
  1  2  1  0
  2  3  1  0
  2  4  1  0
  3  5  2  0
  4  6  2  0
  5  6  1  0
  6  7  1  0
  7  8  2  0
  7  9  1  0
  9 10  1  0
 10 11  2  0
 10 12  1  0
 11 13  1  0
 12 14  2  0
 14 15  1  0
 13 16  2  0
 14 16  1  0
 15 17  2  3
 15 18  1  0
 17 19  1  0
 19 20  1  0
 20 21  1  0
 21 22  2  3
 22 23  1  0
 22 24  1  0
 24 25  2  0
 24 26  1  0
 25 27  1  0
 26 28  2  0
 27 29  2  0
 28 29  1  0
 27 30  1  0
 29 31  1  0
 30 32  1  0
 31 32  1  0
M  CHG  1  18  -1
M  END
