diamond-x0766_0_A-mac-x0277
     RDKit          3D

 15 16  0  0  0  0  0  0  0  0999 V2000
    0.3080   12.3910   -2.6440 C   0  0  0  0  0  0  0  0  0  0  0  0
   -0.1090   11.3200   -3.3520 O   0  0  0  0  0  0  0  0  0  0  0  0
    0.5310   12.3080   -1.4480 O   0  0  0  0  0  0  0  0  0  0  0  0
    0.4380   13.7010   -3.4030 C   0  0  1  0  0  0  0  0  0  0  0  0
    1.4080   13.8830   -4.5560 C   0  0  0  0  0  0  0  0  0  0  0  0
   -0.8050   14.5530   -3.7950 C   0  0  2  0  0  0  0  0  0  0  0  0
   -1.9480   13.8100   -4.9790 Cl  0  0  0  0  0  0  0  0  0  0  0  0
    1.3850   15.4140   -4.5600 C   0  0  0  0  0  0  0  0  0  0  0  0
   -0.1180   15.7450   -4.5700 C   0  0  2  0  0  0  0  0  0  0  0  0
   -1.7210   14.9510   -2.6190 C   0  0  0  0  0  0  0  0  0  0  0  0
   -0.4620   17.4540   -4.1060 Cl  0  0  0  0  0  0  0  0  0  0  0  0
   -3.1060   14.9960   -2.6340 C   0  0  0  0  0  0  0  0  0  0  0  0
   -1.2490   15.3250   -1.3000 C   0  0  0  0  0  0  0  0  0  0  0  0
   -2.2660   15.6190   -0.4190 C   0  0  0  0  0  0  0  0  0  0  0  0
   -3.7980   15.4590   -1.1400 S   0  0  0  0  0  0  0  0  0  0  0  0
  1  2  1  0
  1  3  2  0
  4  1  1  6
  4  5  1  0
  4  6  1  0
  6  7  1  6
  5  8  1  0
  6  9  1  0
  8  9  1  0
  6 10  1  0
  9 11  1  1
 10 12  2  0
 10 13  1  0
 13 14  2  0
 12 15  1  0
 14 15  1  0
M  END
