diamond-x0421_0_A-mac-x0282
     RDKit          3D

 16 18  0  0  0  0  0  0  0  0999 V2000
   -3.9640   14.7340   -2.8390 N   0  0  0  0  0  0  0  0  0  0  0  0
   -2.9870   14.3990   -1.9540 C   0  0  0  0  0  0  0  0  0  0  0  0
   -1.8080   14.4450   -2.3190 O   0  0  0  0  0  0  0  0  0  0  0  0
   -3.3600   13.9980   -0.5150 C   0  0  1  0  0  0  0  0  0  0  0  0
   -2.7170   14.8900    0.5500 C   0  0  1  0  0  0  0  0  0  0  0  0
   -4.8340   14.0970   -0.3310 N   0  0  0  0  0  0  0  0  0  0  0  0
   -3.8320   15.4530    1.3050 N   0  0  0  0  0  0  0  0  0  0  0  0
   -5.0710   15.1410    0.6320 C   0  0  2  0  0  0  0  0  0  0  0  0
   -1.6830   14.2660    1.4010 N   0  0  0  0  0  0  0  0  0  0  0  0
   -2.0400   15.8820   -0.3510 C   0  0  0  0  0  0  0  0  0  0  0  0
   -6.1630   14.6940    1.5610 C   0  0  0  0  0  0  0  0  0  0  0  0
   -0.7240   15.8860   -0.6000 C   0  0  0  0  0  0  0  0  0  0  0  0
   -0.3690   14.1640    1.0040 C   0  0  0  0  0  0  0  0  0  0  0  0
   -7.6160   14.6440    1.1350 C   0  0  0  0  0  0  0  0  0  0  0  0
   -6.8840   13.3690    1.4510 C   0  0  0  0  0  0  0  0  0  0  0  0
    0.1370   14.9230    0.0320 C   0  0  0  0  0  0  0  0  0  0  0  0
  1  2  1  0
  2  3  2  0
  4  2  1  6
  4  5  1  0
  4  6  1  0
  5  7  1  0
  6  8  1  0
  7  8  1  0
  5  9  1  0
  5 10  1  6
  8 11  1  1
 10 12  2  0
  9 13  1  0
 11 14  1  0
 11 15  1  0
 14 15  1  0
 12 16  1  0
 13 16  2  0
M  END
