diamond-x0299_0_A-diamond-x0142_0_A
     RDKit          3D

 28 31  0  0  0  0  0  0  0  0999 V2000
   14.5850    7.4160   12.0870 C   0  0  2  0  0  0  0  0  0  0  0  0
   15.1810    6.9700   13.4480 C   0  0  0  0  0  0  0  0  0  0  0  0
   16.3890    6.7910   13.5740 O   0  0  0  0  0  0  0  0  0  0  0  0
   13.1570    6.8470   11.9470 C   0  0  0  0  0  0  0  0  0  0  0  0
   15.4200    6.8970   10.9460 C   0  0  0  0  0  0  0  0  0  0  0  0
   14.8280    8.8450   12.5100 C   0  0  0  0  0  0  0  0  0  0  0  0
   14.2730    6.8540   14.6770 C   0  0  0  0  0  0  0  0  0  0  0  0
   15.7490    5.5940   10.8620 N   0  0  0  0  0  0  0  0  0  0  0  0
   15.7830    7.6300   10.0200 O   0  0  0  0  0  0  0  0  0  0  0  0
   12.7600    5.7270   10.9420 C   0  0  0  0  0  0  0  0  0  0  0  0
   14.3270    9.2050   13.7640 C   0  0  0  0  0  0  0  0  0  0  0  0
   15.5290    9.7950   11.7710 C   0  0  0  0  0  0  0  0  0  0  0  0
   15.0460    7.0970   15.9790 C   0  0  0  0  0  0  0  0  0  0  0  0
   13.5970    4.8080   10.1730 C   0  0  0  0  0  0  0  0  0  0  0  0
   14.9960    4.7220   10.1360 C   0  0  0  0  0  0  0  0  0  0  0  0
   14.5210   10.4630   14.2800 C   0  0  0  0  0  0  0  0  0  0  0  0
   15.7260   11.0770   12.2930 C   0  0  0  0  0  0  0  0  0  0  0  0
   11.3710    5.5940   10.7750 C   0  0  0  0  0  0  0  0  0  0  0  0
   15.6450    8.4920   16.0850 C   0  0  0  0  0  0  0  0  0  0  0  0
   10.7520    4.7020    9.9800 N   0  0  0  0  0  0  0  0  0  0  0  0
   12.9350    3.8700    9.3390 C   0  0  0  0  0  0  0  0  0  0  0  0
   15.6990    3.7800    9.3550 C   0  0  0  0  0  0  0  0  0  0  0  0
   15.2240   11.4070   13.5540 C   0  0  0  0  0  0  0  0  0  0  0  0
   15.3460   12.5980   14.1940 O   0  0  0  0  0  0  0  0  0  0  0  0
   15.0270    2.8860    8.5610 C   0  0  0  0  0  0  0  0  0  0  0  0
   13.6530    2.9370    8.5550 C   0  0  0  0  0  0  0  0  0  0  0  0
   11.5450    3.8690    9.2890 C   0  0  0  0  0  0  0  0  0  0  0  0
   15.4000   12.5390   15.6150 C   0  0  0  0  0  0  0  0  0  0  0  0
  1  2  1  1
  2  3  2  0
  1  4  1  0
  1  5  1  0
  1  6  1  0
  2  7  1  0
  5  8  1  0
  5  9  2  0
  4 10  1  0
  6 11  2  0
  6 12  1  0
  7 13  1  0
 10 14  1  0
  8 15  1  0
 14 15  2  0
 11 16  1  0
 12 17  2  0
 10 18  2  0
 13 19  1  0
 18 20  1  0
 14 21  1  0
 15 22  1  0
 16 23  2  0
 17 23  1  0
 23 24  1  0
 22 25  2  0
 21 26  2  0
 25 26  1  0
 20 27  2  0
 21 27  1  0
 24 28  1  0
M  END
