diamond-x0910_1_A-mac-x0148
     RDKit          3D

 23 27  0  0  0  0  0  0  0  0999 V2000
   -7.4580   14.4200    1.2470 N   0  0  0  0  0  0  0  0  0  0  0  0
   -6.8230   14.1410    0.0070 C   0  0  1  0  0  0  0  0  0  0  0  0
   -6.8090   15.3480   -0.7600 N   0  0  0  0  0  0  0  0  0  0  0  0
   -5.4620   13.8260    0.2800 N   0  0  0  0  0  0  0  0  0  0  0  0
   -5.5260   15.9970   -0.4590 N   0  0  0  0  0  0  0  0  0  0  0  0
   -4.6040   14.9690    0.0000 C   0  0  1  0  0  0  0  0  0  0  0  0
   -3.7580   15.2370    1.1490 N   0  0  0  0  0  0  0  0  0  0  0  0
   -3.6460   14.8050   -1.2560 C   0  0  0  0  0  0  0  0  0  0  0  0
   -2.4280   14.9740    0.7220 C   0  0  0  0  0  0  0  0  0  0  0  0
   -2.3030   14.7420   -0.6430 C   0  0  0  0  0  0  0  0  0  0  0  0
   -1.4190   14.9700    1.5670 N   0  0  0  0  0  0  0  0  0  0  0  0
   -1.0250   14.5140   -1.1500 C   0  0  0  0  0  0  0  0  0  0  0  0
   -0.6920   14.2710   -2.5280 N   0  0  0  0  0  0  0  0  0  0  0  0
    0.0130   14.5180   -0.3020 N   0  0  0  0  0  0  0  0  0  0  0  0
   -0.2390   14.7400    1.0030 C   0  0  0  0  0  0  0  0  0  0  0  0
   -1.8170   14.1140   -3.4960 C   0  0  1  0  0  0  0  0  0  0  0  0
    0.2640   13.1280   -2.5720 C   0  0  0  0  0  0  0  0  0  0  0  0
   -2.5470   15.3570   -3.9940 C   0  0  0  0  0  0  0  0  0  0  0  0
   -1.2810   13.6640   -4.8580 C   0  0  2  0  0  0  0  0  0  0  0  0
   -0.2790   11.9370   -3.3630 C   0  0  0  0  0  0  0  0  0  0  0  0
   -2.5500   13.7290   -5.6600 C   0  0  0  0  0  0  0  0  0  0  0  0
   -3.1160   14.9980   -5.2830 O   0  0  0  0  0  0  0  0  0  0  0  0
   -0.5530   12.3290   -4.8160 C   0  0  0  0  0  0  0  0  0  0  0  0
  2  1  1  1
  2  3  1  0
  2  4  1  0
  3  5  1  0
  6  4  1  0
  5  6  1  0
  6  7  1  0
  6  8  1  6
  7  9  1  0
  8 10  1  0
  9 10  2  0
  9 11  1  0
 10 12  1  0
 12 13  1  0
 12 14  2  0
 11 15  2  0
 14 15  1  0
 13 16  1  0
 13 17  1  0
 16 18  1  6
 16 19  1  0
 17 20  1  0
 19 21  1  6
 18 22  1  0
 21 22  1  0
 19 23  1  0
 20 23  1  0
M  END
