diamond-x0900_0_A-mac-x0163
     RDKit          3D

 22 25  0  0  0  0  0  0  0  0999 V2000
   -7.2400   14.1800   -0.3740 O   0  0  0  0  0  0  0  0  0  0  0  0
   -6.0930   14.5010   -0.1320 C   0  0  0  0  0  0  0  0  0  0  0  0
   -5.4960   15.5900   -0.6630 N   0  0  0  0  0  0  0  0  0  0  0  0
   -5.1060   13.8000    0.7740 C   0  0  0  0  0  0  0  0  0  0  0  0
   -4.0190   14.8700    1.0210 C   0  0  2  0  0  0  0  0  0  0  0  0
   -4.3890   16.0020    0.1220 C   0  0  0  0  0  0  0  0  0  0  0  0
   -2.6070   14.6770    0.6330 C   0  0  0  0  0  0  0  0  0  0  0  0
   -2.3250   14.6530   -0.7110 C   0  0  0  0  0  0  0  0  0  0  0  0
   -1.6550   14.5600    1.5970 N   0  0  0  0  0  0  0  0  0  0  0  0
   -3.5840   14.7980   -1.8950 Cl  0  0  0  0  0  0  0  0  0  0  0  0
   -1.0030   14.5170   -1.0860 C   0  0  0  0  0  0  0  0  0  0  0  0
   -0.4020   14.4300    1.1350 C   0  0  0  0  0  0  0  0  0  0  0  0
   -0.0320   14.4050   -0.1600 N   0  0  0  0  0  0  0  0  0  0  0  0
   -0.6600   14.4930   -2.4510 N   0  0  0  0  0  0  0  0  0  0  0  0
    0.7030   14.7300   -2.8770 C   0  0  0  0  0  0  0  0  0  0  0  0
   -1.7000   14.6750   -3.4670 C   0  0  0  0  0  0  0  0  0  0  0  0
    1.0350   13.6710   -3.9170 C   0  0  0  0  0  0  0  0  0  0  0  0
   -1.0700   14.7190   -4.8550 C   0  0  0  0  0  0  0  0  0  0  0  0
    2.4970   13.6340   -4.3770 C   0  0  0  0  0  0  0  0  0  0  0  0
    1.3340   12.3150   -3.2230 C   0  0  0  0  0  0  0  0  0  0  0  0
    0.0170   13.6600   -5.0680 C   0  0  0  0  0  0  0  0  0  0  0  0
    2.8000   12.7920   -3.1310 C   0  0  0  0  0  0  0  0  0  0  0  0
  1  2  2  0
  2  3  1  0
  2  4  1  0
  4  5  1  0
  3  6  1  0
  5  6  1  0
  5  7  1  6
  7  8  2  0
  7  9  1  0
  8 10  1  0
  8 11  1  0
  9 12  2  0
 11 13  2  0
 12 13  1  0
 11 14  1  0
 14 15  1  0
 14 16  1  0
 17 15  1  0
 16 18  1  0
 17 19  1  0
 17 20  1  0
 17 21  1  0
 18 21  1  0
 19 22  1  0
 20 22  1  0
M  END
