diamond-x0895_0_A-mac-x0396
     RDKit          3D

 15 17  0  0  0  0  0  0  0  0999 V2000
   -2.9810   14.7570    1.1390 N   0  0  0  0  0  0  0  0  0  0  0  0
   -3.7930   14.9570    0.0120 C   0  0  0  0  0  0  0  0  0  0  0  0
   -3.3950   15.2530   -1.1620 N   0  0  0  0  0  0  0  0  0  0  0  0
   -1.7350   14.5490    0.8840 C   0  0  0  0  0  0  0  0  0  0  0  0
   -1.2660   14.5390   -0.3720 N   0  0  0  0  0  0  0  0  0  0  0  0
   -5.2550   14.8090    0.1450 C   0  0  0  0  0  0  0  0  0  0  0  0
    0.1180   14.7190   -0.7620 C   0  0  0  0  0  0  0  0  0  0  0  0
   -1.9910   15.3980   -1.2220 C   0  0  1  0  0  0  0  0  0  0  0  0
   -6.0620   14.9420   -0.9790 C   0  0  0  0  0  0  0  0  0  0  0  0
   -5.8650   14.5350    1.3590 C   0  0  0  0  0  0  0  0  0  0  0  0
   -1.4570   15.2550   -2.5610 N   0  0  0  0  0  0  0  0  0  0  0  0
   -7.4100   14.8160   -0.9580 N   0  0  0  0  0  0  0  0  0  0  0  0
   -7.2530   14.4000    1.4110 C   0  0  0  0  0  0  0  0  0  0  0  0
   -0.0180   15.3050   -2.1960 C   0  0  0  0  0  0  0  0  0  0  0  0
   -7.9720   14.5480    0.2370 C   0  0  0  0  0  0  0  0  0  0  0  0
  1  2  1  0
  2  3  2  0
  1  4  2  0
  4  5  1  0
  2  6  1  0
  5  7  1  0
  8  3  1  6
  5  8  1  0
  6  9  2  0
  6 10  1  0
  8 11  1  0
  9 12  1  0
 10 13  2  0
  7 14  1  0
 11 14  1  0
 12 15  2  0
 13 15  1  0
M  END
