diamond-x0681_0_A-mac-x0131
     RDKit          3D

 29 33  0  0  0  0  0  0  0  0999 V2000
   -4.1900   15.3560   -2.0310 N   0  0  0  0  0  0  0  0  0  0  0  0
   -4.3370   14.0360   -1.8600 C   0  0  0  0  0  0  0  0  0  0  0  0
   -4.3310   13.2320   -2.7820 O   0  0  0  0  0  0  0  0  0  0  0  0
   -2.8360   15.7680   -2.1780 C   0  0  2  0  0  0  0  0  0  0  0  0
   -4.4800   13.7020   -0.4030 C   0  0  2  0  0  0  0  0  0  0  0  0
   -2.1400   14.9670   -3.2830 C   0  0  1  0  0  0  0  0  0  0  0  0
   -1.9140   15.5590   -0.9670 C   0  0  2  0  0  0  0  0  0  0  0  0
   -2.5640   15.4010   -4.6860 C   0  0  0  0  0  0  0  0  0  0  0  0
   -5.5010   12.6770   -0.2600 C   0  0  0  0  0  0  0  0  0  0  0  0
   -4.9150   14.9410    0.3820 C   0  0  0  0  0  0  0  0  0  0  0  0
   -0.7550   14.7870   -1.5440 C   0  0  1  0  0  0  0  0  0  0  0  0
   -0.7170   15.1990   -2.9540 N   0  0  0  0  0  0  0  0  0  0  0  0
   -2.2900   14.8900    0.3420 C   0  0  2  0  0  0  0  0  0  0  0  0
   -3.0990   15.7400    1.1650 N   0  0  0  0  0  0  0  0  0  0  0  0
    0.1830   14.4390   -3.8290 C   0  0  0  0  0  0  0  0  0  0  0  0
   -6.2130   12.5810    0.8950 N   0  0  0  0  0  0  0  0  0  0  0  0
   -5.0160   14.5540    1.8520 C   0  0  0  0  0  0  0  0  0  0  0  0
   -5.8630   11.7770   -1.1400 N   0  0  0  0  0  0  0  0  0  0  0  0
   -1.1000   14.6350    1.1100 N   0  0  0  0  0  0  0  0  0  0  0  0
    0.4050   14.9900   -0.7110 N   0  0  0  0  0  0  0  0  0  0  0  0
   -6.0400   13.4350    2.0540 C   0  0  0  0  0  0  0  0  0  0  0  0
   -7.0880   11.5570    0.7520 C   0  0  0  0  0  0  0  0  0  0  0  0
   -6.8550   11.0720   -0.5170 C   0  0  0  0  0  0  0  0  0  0  0  0
   -0.0040   15.4270    0.6150 C   0  0  0  0  0  0  0  0  0  0  0  0
    0.0140   12.9700   -3.6850 C   0  0  0  0  0  0  0  0  0  0  0  0
    0.7560   12.0100   -3.0420 C   0  0  0  0  0  0  0  0  0  0  0  0
   -1.0730   12.3980   -4.2810 O   0  0  0  0  0  0  0  0  0  0  0  0
   -1.0170   11.0710   -4.0130 C   0  0  0  0  0  0  0  0  0  0  0  0
    0.0880   10.7870   -3.2540 C   0  0  0  0  0  0  0  0  0  0  0  0
  1  2  1  0
  2  3  2  0
  4  1  1  1
  5  2  1  6
  4  6  1  0
  4  7  1  0
  6  8  1  6
  5  9  1  0
  5 10  1  0
  7 11  1  0
  6 12  1  0
 11 12  1  0
  7 13  1  1
 13 14  1  1
 12 15  1  0
  9 16  1  0
 10 17  1  0
  9 18  2  0
 13 19  1  0
 11 20  1  1
 16 21  1  0
 17 21  1  0
 16 22  1  0
 18 23  1  0
 22 23  2  0
 19 24  1  0
 20 24  1  0
 15 25  1  0
 25 26  2  0
 25 27  1  0
 27 28  1  0
 26 29  1  0
 28 29  2  0
M  END
