diamond-x0591_0_A-diamond-x0290_0_A
     RDKit          3D

 23 25  0  0  0  0  0  0  0  0999 V2000
   -5.4850   14.9130    0.9760 N   0  0  0  0  0  0  0  0  0  0  0  0
   -6.6250   14.4480    1.7780 C   0  0  0  0  0  0  0  0  0  0  0  0
   -7.7530   14.4300    0.8500 N   0  0  0  0  0  0  0  0  0  0  0  0
   -5.9150   14.5390   -0.3130 C   0  0  0  0  0  0  0  0  0  0  0  0
   -4.2140   14.7390    1.5580 N   0  0  0  0  0  0  0  0  0  0  0  0
   -7.2150   14.2740   -0.4140 N   0  0  0  0  0  0  0  0  0  0  0  0
   -5.0370   14.4400   -1.5020 C   0  0  0  0  0  0  0  0  0  0  0  0
   -2.9000   14.6670    0.9960 C   0  0  0  0  0  0  0  0  0  0  0  0
   -3.8330   13.7340   -1.4370 C   0  0  0  0  0  0  0  0  0  0  0  0
   -5.4060   15.0500   -2.7010 C   0  0  0  0  0  0  0  0  0  0  0  0
   -1.8850   14.4680    1.8750 N   0  0  0  0  0  0  0  0  0  0  0  0
   -2.6320   14.7870   -0.3670 C   0  0  0  0  0  0  0  0  0  0  0  0
   -2.9950   13.6490   -2.5510 C   0  0  0  0  0  0  0  0  0  0  0  0
   -4.5620   14.9550   -3.8130 C   0  0  0  0  0  0  0  0  0  0  0  0
   -0.6220   14.3800    1.4070 C   0  0  0  0  0  0  0  0  0  0  0  0
   -1.3030   14.6890   -0.8350 C   0  0  0  0  0  0  0  0  0  0  0  0
   -0.9640   14.8060   -2.2890 C   0  0  0  0  0  0  0  0  0  0  0  0
   -3.3720   14.2770   -3.7360 C   0  0  0  0  0  0  0  0  0  0  0  0
   -0.2840   14.4820    0.0780 C   0  0  0  0  0  0  0  0  0  0  0  0
   -2.3650   14.2430   -5.1930 S   0  0  0  0  0  0  0  0  0  0  0  0
   -1.1220   15.3240   -4.8220 N   0  0  0  0  0  0  0  0  0  0  0  0
   -1.7400   12.9490   -5.2930 O   0  0  0  0  0  0  0  0  0  0  0  0
   -3.1290   14.8330   -6.2660 O   0  0  0  0  0  0  0  0  0  0  0  0
  1  2  1  0
  2  3  1  0
  1  4  1  0
  1  5  1  0
  3  6  1  0
  4  6  2  0
  4  7  1  0
  5  8  1  0
  7  9  2  0
  7 10  1  0
  8 11  2  0
  8 12  1  0
  9 13  1  0
 10 14  2  0
 11 15  1  0
 12 16  2  0
 16 17  1  0
 13 18  2  0
 14 18  1  0
 15 19  2  0
 16 19  1  0
 18 20  1  0
 20 21  1  0
 20 22  2  0
 20 23  2  0
M  END
