diamond-x0926_0_A-mac-x0139
     RDKit          3D

 19 20  0  0  0  0  0  0  0  0999 V2000
   -6.8460   14.7920   -0.3100 O   0  0  0  0  0  0  0  0  0  0  0  0
   -5.6470   15.0370   -0.3700 C   0  0  0  0  0  0  0  0  0  0  0  0
   -4.8710   15.5150    0.7870 C   0  0  0  0  0  0  0  0  0  0  0  0
   -4.9080   14.8930   -1.5040 N   0  0  0  0  0  0  0  0  0  0  0  0
   -3.6250   14.3230   -1.4370 N   0  0  0  0  0  0  0  0  0  0  0  0
   -3.5530   15.4780    0.7680 C   0  0  0  0  0  0  0  0  0  0  0  0
   -2.7590   14.8860   -0.3680 C   0  0  2  0  0  0  0  0  0  0  0  0
   -1.5400   15.5860   -1.0860 C   0  0  2  0  0  0  0  0  0  0  0  0
   -2.0490   13.8250    0.4660 C   0  0  0  0  0  0  0  0  0  0  0  0
   -1.1940   15.0430   -2.4320 N   0  0  0  0  0  0  0  0  0  0  0  0
   -1.1030   14.4130    1.4140 N   0  0  0  0  0  0  0  0  0  0  0  0
   -0.3650   15.8760   -0.2790 N   0  0  0  0  0  0  0  0  0  0  0  0
   -2.1000   15.5780   -3.4570 C   0  0  0  0  0  0  0  0  0  0  0  0
    0.2180   15.0000   -2.8670 C   0  0  0  0  0  0  0  0  0  0  0  0
    0.0350   14.8840    0.6890 C   0  0  0  0  0  0  0  0  0  0  0  0
    0.5450   13.8070   -3.7910 C   0  0  0  0  0  0  0  0  0  0  0  0
    0.9440   12.5710   -3.0300 C   0  0  0  0  0  0  0  0  0  0  0  0
    1.7050   12.5010   -2.0940 O   0  0  0  0  0  0  0  0  0  0  0  0
    0.3480   11.4540   -3.4900 O   0  0  0  0  0  0  0  0  0  0  0  0
  1  2  2  0
  2  3  1  0
  2  4  1  0
  4  5  1  0
  3  6  2  0
  5  7  1  0
  7  6  1  1
  7  8  1  0
  7  9  1  0
  8 10  1  6
  9 11  1  0
  8 12  1  0
 10 13  1  0
 10 14  1  0
 11 15  1  0
 12 15  1  0
 14 16  1  0
 16 17  1  0
 17 18  2  0
 17 19  1  0
M  END
