diamond-x0855_0_A-mac-x0397
     RDKit          3D

 24 26  0  0  0  0  0  0  0  0999 V2000
    2.1560   12.5060   -2.7490 O   0  0  0  0  0  0  0  0  0  0  0  0
    0.7800   12.2860   -2.9610 C   0  0  0  0  0  0  0  0  0  0  0  0
    0.4900   12.6470   -4.4390 C   0  0  0  0  0  0  0  0  0  0  0  0
    0.5600   10.9110   -2.6960 O   0  0  0  0  0  0  0  0  0  0  0  0
   -0.0030   13.1080   -1.9190 C   0  0  0  0  0  0  0  0  0  0  0  0
   -0.2140   14.5770   -2.2970 C   0  0  0  0  0  0  0  0  0  0  0  0
   -0.4820   11.7470   -5.0220 N   0  0  0  0  0  0  0  0  0  0  0  0
   -1.5720   14.7830   -2.9740 C   0  0  0  0  0  0  0  0  0  0  0  0
   -0.2950   10.8370   -6.0200 C   0  0  0  0  0  0  0  0  0  0  0  0
   -1.7460   11.7760   -4.5450 N   0  0  0  0  0  0  0  0  0  0  0  0
   -1.5150   10.2340   -6.1860 C   0  0  0  0  0  0  0  0  0  0  0  0
   -2.3740   10.8420   -5.2650 C   0  0  0  0  0  0  0  0  0  0  0  0
   -2.7420   14.8380   -2.0170 C   0  0  0  0  0  0  0  0  0  0  0  0
   -1.9840    8.8790   -7.3770 Br  0  0  0  0  0  0  0  0  0  0  0  0
   -4.0200   15.0460   -2.5260 C   0  0  0  0  0  0  0  0  0  0  0  0
   -2.5610   14.6810   -0.6240 C   0  0  0  0  0  0  0  0  0  0  0  0
   -3.6930   14.7360    0.2140 C   0  0  0  0  0  0  0  0  0  0  0  0
   -5.1110   15.0910   -1.6670 C   0  0  0  0  0  0  0  0  0  0  0  0
   -6.7060   15.3310   -2.2140 Cl  0  0  0  0  0  0  0  0  0  0  0  0
   -4.9710   14.9370   -0.2880 C   0  0  0  0  0  0  0  0  0  0  0  0
   -3.8020   14.5830    1.9200 S   0  0  0  0  0  0  0  0  0  0  0  0
   -5.5060   14.7930    1.8490 C   0  0  0  0  0  0  0  0  0  0  0  0
   -5.9820   14.9610    0.6540 N   0  0  0  0  0  0  0  0  0  0  0  0
   -6.3210   14.7920    2.9250 N   0  0  0  0  0  0  0  0  0  0  0  0
  2  1  1  0
  2  3  1  0
  2  4  1  0
  2  5  1  0
  5  6  1  0
  3  7  1  0
  6  8  1  0
  7  9  1  0
  7 10  1  0
  9 11  2  0
 10 12  2  0
 11 12  1  0
  8 13  1  0
 11 14  1  0
 13 15  2  0
 13 16  1  0
 16 17  2  0
 15 18  1  0
 18 19  1  0
 17 20  1  0
 18 20  2  0
 17 21  1  0
 21 22  1  0
 20 23  1  0
 22 23  2  0
 22 24  1  0
M  END
