diamond-x0933_0_A-mac-x0178
     RDKit          3D

 23 24  0  0  0  0  0  0  0  0999 V2000
   -6.2200   14.6070    1.7940 N   0  0  0  0  0  0  0  0  0  0  0  0
   -5.1960   15.0760    0.9390 C   0  0  1  0  0  0  0  0  0  0  0  0
   -4.0880   14.2880    1.2520 N   0  0  0  0  0  0  0  0  0  0  0  0
   -5.6230   14.7760   -0.3810 N   0  0  0  0  0  0  0  0  0  0  0  0
   -4.5150   14.3760   -1.2560 C   0  0  0  0  0  0  0  0  0  0  0  0
   -2.9300   14.9000    0.6530 C   0  0  0  0  0  0  0  0  0  0  0  0
   -3.1630   14.9900   -0.8660 C   0  0  1  0  0  0  0  0  0  0  0  0
   -1.9890   14.4290   -1.6680 C   0  0  0  0  0  0  0  0  0  0  0  0
   -1.9990   12.9050   -1.8200 C   0  0  0  0  0  0  0  0  0  0  0  0
   -0.5990   12.3200   -1.5920 C   0  0  0  0  0  0  0  0  0  0  0  0
    0.4180   12.7010   -2.6660 C   0  0  0  0  0  0  0  0  0  0  0  0
    1.6720   12.9180   -2.0560 O   0  0  0  0  0  0  0  0  0  0  0  0
    0.5840   11.5890   -3.5210 O   0  0  0  0  0  0  0  0  0  0  0  0
   -0.0680   13.9130   -3.4340 C   0  0  0  0  0  0  0  0  0  0  0  0
    0.6010   15.1460   -3.3760 C   0  0  0  0  0  0  0  0  0  0  0  0
   -1.2330   13.8140   -4.2220 C   0  0  0  0  0  0  0  0  0  0  0  0
    0.1160   16.2540   -4.0720 C   0  0  0  0  0  0  0  0  0  0  0  0
   -1.7240   14.9170   -4.9170 C   0  0  0  0  0  0  0  0  0  0  0  0
   -1.0510   16.1340   -4.8340 C   0  0  0  0  0  0  0  0  0  0  0  0
   -1.6820   17.5420   -5.7000 S   0  0  0  0  0  0  0  0  0  0  0  0
   -0.3100   18.1680   -6.4190 N   0  0  0  0  0  0  0  0  0  0  0  0
   -2.5540   17.1100   -6.7650 O   0  0  0  0  0  0  0  0  0  0  0  0
   -2.1110   18.5390   -4.7570 O   0  0  0  0  0  0  0  0  0  0  0  0
  2  1  1  1
  2  3  1  0
  2  4  1  0
  4  5  1  0
  3  6  1  0
  5  7  1  0
  6  7  1  0
  7  8  1  6
  8  9  1  0
  9 10  1  0
 10 11  1  0
 11 12  1  0
 11 13  1  0
 11 14  1  0
 14 15  2  0
 14 16  1  0
 15 17  1  0
 16 18  2  0
 17 19  2  0
 18 19  1  0
 19 20  1  0
 20 21  1  0
 20 22  2  0
 20 23  2  0
M  END
