diamond-x1018_0_A-mac-x0301
     RDKit          3D

 17 19  0  0  0  0  0  0  0  0999 V2000
   -8.1110   14.7600    0.5810 Cl  0  0  0  0  0  0  0  0  0  0  0  0
   -6.4240   14.2590    0.2800 C   0  0  2  0  0  0  0  0  0  0  0  0
   -5.5350   14.6800    1.4250 C   0  0  0  0  0  0  0  0  0  0  0  0
   -6.0230   14.8400   -1.0260 N   0  0  0  0  0  0  0  0  0  0  0  0
   -4.5950   15.1850   -1.0540 N   0  0  0  0  0  0  0  0  0  0  0  0
   -4.2090   14.7250    1.2310 C   0  0  0  0  0  0  0  0  0  0  0  0
   -3.9310   15.0250   -2.3090 N   0  0  0  0  0  0  0  0  0  0  0  0
   -3.7560   14.3480   -0.1440 C   0  0  2  0  0  0  0  0  0  0  0  0
   -2.2860   14.5060   -0.6770 C   0  0  1  0  0  0  0  0  0  0  0  0
   -2.5250   15.0430   -2.0290 N   0  0  0  0  0  0  0  0  0  0  0  0
   -1.5990   14.8250   -3.0610 C   0  0  0  0  0  0  0  0  0  0  0  0
   -1.4960   15.2690    0.2710 O   0  0  0  0  0  0  0  0  0  0  0  0
   -1.4660   13.2700   -0.9070 C   0  0  0  0  0  0  0  0  0  0  0  0
   -0.2960   14.9540   -2.6940 O   0  0  0  0  0  0  0  0  0  0  0  0
   -1.8280   14.5340   -4.2250 O   0  0  0  0  0  0  0  0  0  0  0  0
   -0.2320   13.3550   -0.1770 O   0  0  0  0  0  0  0  0  0  0  0  0
   -0.3840   14.4740    0.6910 C   0  0  0  0  0  0  0  0  0  0  0  0
  2  1  1  1
  2  3  1  0
  2  4  1  0
  4  5  1  0
  3  6  2  0
  5  7  1  0
  5  8  1  0
  8  6  1  1
  8  9  1  0
  7 10  1  0
  9 10  1  0
 10 11  1  0
  9 12  1  0
  9 13  1  6
 11 14  1  0
 11 15  2  0
 13 16  1  0
 12 17  1  0
 16 17  1  0
M  END
