diamond-x0742_0_A-diamond-x0962_0_A
     RDKit          3D

 18 20  0  0  0  0  0  0  0  0999 V2000
   -5.3960   12.4480   -0.8640 C   0  0  0  0  0  0  0  0  0  0  0  0
   -6.3460   11.9870    0.2170 C   0  0  0  0  0  0  0  0  0  0  0  0
   -5.4150   11.8430   -1.9370 O   0  0  0  0  0  0  0  0  0  0  0  0
   -4.3840   13.6190   -0.6440 C   0  0  2  0  0  0  0  0  0  0  0  0
   -4.4300   14.3820    0.6600 C   0  0  1  0  0  0  0  0  0  0  0  0
   -4.6700   14.9690   -1.2350 C   0  0  1  0  0  0  0  0  0  0  0  0
   -3.0200   13.1380   -1.1080 C   0  0  0  0  0  0  0  0  0  0  0  0
   -4.1350   15.1600   -2.5670 C   0  0  0  0  0  0  0  0  0  0  0  0
   -5.9250   14.6470    0.7320 C   0  0  0  0  0  0  0  0  0  0  0  0
   -1.9440   13.7040   -0.2710 C   0  0  0  0  0  0  0  0  0  0  0  0
   -3.4910   13.9230    1.7240 C   0  0  0  0  0  0  0  0  0  0  0  0
   -6.1150   15.1700   -0.7460 C   0  0  0  0  0  0  0  0  0  0  0  0
   -3.5750   15.2920   -3.5670 N   0  0  0  0  0  0  0  0  0  0  0  0
   -0.7060   13.8680   -0.8580 C   0  0  0  0  0  0  0  0  0  0  0  0
   -2.1440   14.0690    1.0640 C   0  0  0  0  0  0  0  0  0  0  0  0
   -1.1680   14.5720    1.8080 N   0  0  0  0  0  0  0  0  0  0  0  0
    0.3040   14.3880   -0.1070 C   0  0  0  0  0  0  0  0  0  0  0  0
    0.0180   14.7140    1.2000 C   0  0  0  0  0  0  0  0  0  0  0  0
  1  2  1  0
  1  3  2  0
  4  1  1  1
  4  5  1  0
  4  6  1  0
  4  7  1  0
  6  8  1  6
  5  9  1  1
  7 10  1  0
  5 11  1  0
  6 12  1  0
  9 12  1  0
  8 13  3  0
 10 14  2  0
 10 15  1  0
 11 15  1  0
 15 16  2  0
 14 17  1  0
 16 18  1  0
 17 18  2  0
M  END
