diamond-x0969_0_A-diamond-x0905_0_A
     RDKit          3D

 11 12  0  0  0  0  0  0  0  0999 V2000
   -6.3800   14.7420    2.8990 N   0  0  0  0  0  0  0  0  0  0  0  0
   -6.4610   14.7630    1.5600 C   0  0  0  0  0  0  0  0  0  0  0  0
   -7.5470   14.6610    0.8240 N   0  0  0  0  0  0  0  0  0  0  0  0
   -5.3570   14.9100    0.7550 N   0  0  0  0  0  0  0  0  0  0  0  0
   -7.1740   14.7520   -0.4940 N   0  0  0  0  0  0  0  0  0  0  0  0
   -5.8720   14.9050   -0.5230 C   0  0  0  0  0  0  0  0  0  0  0  0
   -4.0010   15.0430    1.0510 C   0  0  0  0  0  0  0  0  0  0  0  0
   -4.9660   15.0530   -1.5710 C   0  0  0  0  0  0  0  0  0  0  0  0
   -3.1320   15.1670    0.0380 C   0  0  0  0  0  0  0  0  0  0  0  0
   -5.5940   15.0490   -2.7750 O   0  0  0  0  0  0  0  0  0  0  0  0
   -3.6410   15.1780   -1.3310 C   0  0  0  0  0  0  0  0  0  0  0  0
  1  2  1  0
  2  3  2  0
  2  4  1  0
  3  5  1  0
  4  6  1  0
  5  6  2  0
  4  7  1  0
  6  8  1  0
  7  9  2  0
  8 10  1  0
  8 11  2  0
  9 11  1  0
M  END
