diamond-x0104_0_A-mac-x0379
     RDKit          3D

 26 28  0  0  0  0  0  0  0  0999 V2000
   -6.9440   14.8280    2.6340 N   0  0  0  0  0  0  0  0  0  0  0  0
   -8.1630   15.1200    3.2060 C   0  0  0  0  0  0  0  0  0  0  0  0
   -8.0820   15.0690    4.5780 N   0  0  0  0  0  0  0  0  0  0  0  0
   -6.8950   13.8650    1.5440 C   0  0  2  0  0  0  0  0  0  0  0  0
   -9.1510   15.3860    2.5330 O   0  0  0  0  0  0  0  0  0  0  0  0
   -5.4470   13.7950    1.0400 C   0  0  0  0  0  0  0  0  0  0  0  0
   -7.7770   14.3300    0.4010 C   0  0  0  0  0  0  0  0  0  0  0  0
   -5.2340   15.1050    0.4650 N   0  0  0  0  0  0  0  0  0  0  0  0
   -7.2590   14.9060   -0.7120 C   0  0  0  0  0  0  0  0  0  0  0  0
   -9.1760   15.0790    5.4110 C   0  0  0  0  0  0  0  0  0  0  0  0
   -3.8900   15.4810    0.5580 C   0  0  0  0  0  0  0  0  0  0  0  0
   -5.7860   15.1440   -0.8760 C   0  0  2  0  0  0  0  0  0  0  0  0
   -9.3010   15.2020    6.7760 C   0  0  0  0  0  0  0  0  0  0  0  0
  -10.6760   14.9070    4.6260 S   0  0  0  0  0  0  0  0  0  0  0  0
   -5.2290   14.0870   -1.6640 O   0  0  0  0  0  0  0  0  0  0  0  0
  -11.5250   14.9940    6.1130 C   0  0  0  0  0  0  0  0  0  0  0  0
  -10.6720   15.1520    7.1820 C   0  0  0  0  0  0  0  0  0  0  0  0
   -3.3100   15.2940   -0.7940 C   0  0  0  0  0  0  0  0  0  0  0  0
   -5.1750   14.3330   -3.0570 C   0  0  0  0  0  0  0  0  0  0  0  0
   -3.9260   15.5920   -1.9120 N   0  0  0  0  0  0  0  0  0  0  0  0
   -1.7310   14.6670   -0.9340 S   0  0  0  0  0  0  0  0  0  0  0  0
   -3.0960   15.3390   -2.9670 C   0  0  0  0  0  0  0  0  0  0  0  0
   -1.8630   14.8490   -2.6270 C   0  0  0  0  0  0  0  0  0  0  0  0
   -0.8070   14.5330   -3.5160 C   0  0  0  0  0  0  0  0  0  0  0  0
   -0.8880   14.2640   -4.6980 O   0  0  0  0  0  0  0  0  0  0  0  0
    0.3950   14.5830   -2.9090 O   0  0  0  0  0  0  0  0  0  0  0  0
  1  2  1  0
  2  3  1  0
  4  1  1  1
  2  5  2  0
  4  6  1  0
  4  7  1  0
  6  8  1  0
  7  9  2  0
  3 10  1  0
  8 11  1  0
  8 12  1  0
  9 12  1  0
 10 13  2  0
 10 14  1  0
 12 15  1  6
 14 16  1  0
 13 17  1  0
 16 17  2  0
 11 18  1  0
 15 19  1  0
 18 20  2  0
 18 21  1  0
 20 22  1  0
 21 23  1  0
 22 23  2  0
 23 24  1  0
 24 25  2  0
 24 26  1  0
M  END
