diamond-x0591_0_A-mac-x0137
     RDKit          3D

 28 31  0  0  0  0  0  0  0  0999 V2000
   -6.2640   13.7660    0.5800 N   0  0  0  0  0  0  0  0  0  0  0  0
   -6.7710   14.3720    1.7920 C   0  0  0  0  0  0  0  0  0  0  0  0
   -6.6920   14.0120   -0.6970 C   0  0  0  0  0  0  0  0  0  0  0  0
   -7.8910   14.1060   -0.9280 O   0  0  0  0  0  0  0  0  0  0  0  0
   -5.7220   14.1840   -1.8040 C   0  0  0  0  0  0  0  0  0  0  0  0
   -4.3540   13.9690   -1.6440 C   0  0  0  0  0  0  0  0  0  0  0  0
   -6.2140   14.5770   -3.0430 C   0  0  0  0  0  0  0  0  0  0  0  0
   -3.4820   14.1800   -2.7260 C   0  0  0  0  0  0  0  0  0  0  0  0
   -5.3440   14.7740   -4.1130 C   0  0  0  0  0  0  0  0  0  0  0  0
   -3.9740   14.5990   -3.9740 C   0  0  0  0  0  0  0  0  0  0  0  0
   -2.9290   14.9450   -5.4310 S   0  0  0  0  0  0  0  0  0  0  0  0
   -1.4930   14.8750   -4.6030 N   0  0  0  0  0  0  0  0  0  0  0  0
   -3.0910   13.8010   -6.3750 O   0  0  0  0  0  0  0  0  0  0  0  0
   -1.5000   14.0690   -3.3970 C   0  0  1  0  0  0  0  0  0  0  0  0
   -1.5580   12.5820   -3.8200 C   0  0  0  0  0  0  0  0  0  0  0  0
   -0.5040   14.2480   -2.3210 N   0  0  0  0  0  0  0  0  0  0  0  0
    0.8400   13.7300   -2.6430 C   0  0  0  0  0  0  0  0  0  0  0  0
   -0.1920   12.0000   -4.1570 C   0  0  0  0  0  0  0  0  0  0  0  0
   -0.9420   14.3760   -0.9910 C   0  0  0  0  0  0  0  0  0  0  0  0
    0.7680   12.2470   -3.0000 C   0  0  0  0  0  0  0  0  0  0  0  0
   -0.0710   13.9800    0.0050 N   0  0  0  0  0  0  0  0  0  0  0  0
   -2.1370   14.8580   -0.5430 C   0  0  0  0  0  0  0  0  0  0  0  0
   -0.4080   14.0380    1.3300 C   0  0  0  0  0  0  0  0  0  0  0  0
   -2.4040   14.9140    0.9130 C   0  0  0  0  0  0  0  0  0  0  0  0
   -3.3540   15.4040   -1.0870 C   0  0  0  0  0  0  0  0  0  0  0  0
   -1.5080   14.4740    1.8220 N   0  0  0  0  0  0  0  0  0  0  0  0
   -3.5620   15.4290    1.2050 N   0  0  0  0  0  0  0  0  0  0  0  0
   -4.1190   15.7120   -0.0250 C   0  0  0  0  0  0  0  0  0  0  0  0
  1  2  1  0
  1  3  1  0
  3  4  2  0
  3  5  1  0
  5  6  2  0
  5  7  1  0
  6  8  1  0
  7  9  2  0
  8 10  2  0
  9 10  1  0
 10 11  1  0
 11 12  1  1
 11 13  2  0
 14 12  1  6
 14 15  1  0
 14 16  1  0
 16 17  1  0
 15 18  1  0
 16 19  1  0
 17 20  1  0
 18 20  1  0
 19 21  1  0
 19 22  2  0
 21 23  1  0
 22 24  1  0
 22 25  1  0
 23 26  2  0
 24 26  1  0
 24 27  2  0
 25 28  2  0
 27 28  1  0
M  END
