diamond-x0128_0_A-mac-x0326
     RDKit          3D

 30 33  0  0  0  0  0  0  0  0999 V2000
   -6.9300   14.4890    2.5160 N   0  0  0  0  0  0  0  0  0  0  0  0
   -7.9280   15.1280    3.2050 C   0  0  0  0  0  0  0  0  0  0  0  0
   -8.9850   15.4610    2.6830 O   0  0  0  0  0  0  0  0  0  0  0  0
   -6.6960   14.7340    1.1650 C   0  0  0  0  0  0  0  0  0  0  0  0
   -7.6230   15.3800    4.5330 N   0  0  0  0  0  0  0  0  0  0  0  0
   -5.4220   14.8020    0.7310 C   0  0  0  0  0  0  0  0  0  0  0  0
   -7.6720   14.9300    0.2270 C   0  0  0  0  0  0  0  0  0  0  0  0
   -5.1230   15.0650   -0.6000 C   0  0  0  0  0  0  0  0  0  0  0  0
   -7.3620   15.1940   -1.1080 C   0  0  0  0  0  0  0  0  0  0  0  0
   -8.4470   16.1480    5.3760 C   0  0  0  0  0  0  0  0  0  0  0  0
   -6.0790   15.2640   -1.5290 C   0  0  0  0  0  0  0  0  0  0  0  0
   -9.1440   17.2860    4.9700 C   0  0  0  0  0  0  0  0  0  0  0  0
   -8.5970   15.7580    6.7080 C   0  0  0  0  0  0  0  0  0  0  0  0
   -3.7710   15.1040   -0.9220 C   0  0  0  0  0  0  0  0  0  0  0  0
   -9.9470   18.0210    5.7760 N   0  0  0  0  0  0  0  0  0  0  0  0
   -9.4150   16.5010    7.5600 C   0  0  0  0  0  0  0  0  0  0  0  0
   -3.3100   14.9680   -2.2230 C   0  0  0  0  0  0  0  0  0  0  0  0
   -2.9230   15.2650    0.1480 C   0  0  0  0  0  0  0  0  0  0  0  0
  -10.0630   17.6160    7.0510 C   0  0  0  0  0  0  0  0  0  0  0  0
   -1.9340   14.9680   -2.4280 C   0  0  0  0  0  0  0  0  0  0  0  0
   -1.5680   15.2790   -0.0190 C   0  0  0  0  0  0  0  0  0  0  0  0
   -1.2950   14.8170   -3.6430 N   0  0  0  0  0  0  0  0  0  0  0  0
   -1.1000   15.1170   -1.3170 C   0  0  0  0  0  0  0  0  0  0  0  0
    0.0050   14.8330   -3.4450 C   0  0  0  0  0  0  0  0  0  0  0  0
    0.5210   15.0540   -1.8260 S   0  0  0  0  0  0  0  0  0  0  0  0
    1.0230   14.6610   -4.5270 C   0  0  0  0  0  0  0  0  0  0  0  0
    1.3220   13.1780   -4.7640 C   0  0  0  0  0  0  0  0  0  0  0  0
    1.1560   12.3510   -3.5140 C   0  0  0  0  0  0  0  0  0  0  0  0
    0.3090   11.3200   -3.6960 O   0  0  0  0  0  0  0  0  0  0  0  0
    1.6910   12.5280   -2.4320 O   0  0  0  0  0  0  0  0  0  0  0  0
  1  2  1  0
  2  3  2  0
  1  4  1  0
  2  5  1  0
  4  6  2  0
  4  7  1  0
  6  8  1  0
  7  9  2  0
  5 10  1  0
  8 11  2  0
  9 11  1  0
 10 12  2  0
 10 13  1  0
  8 14  1  0
 12 15  1  0
 13 16  2  0
 14 17  2  0
 14 18  1  0
 15 19  2  0
 16 19  1  0
 17 20  1  0
 18 21  2  0
 20 22  1  0
 20 23  2  0
 21 23  1  0
 22 24  2  0
 23 25  1  0
 24 25  1  0
 24 26  1  0
 26 27  1  0
 27 28  1  0
 28 29  1  0
 28 30  2  0
M  END
