diamond-x0933_0_A-diamond-x0626_0_A
     RDKit          3D

 12 12  0  0  0  0  0  0  0  0999 V2000
   -5.6150   14.8950    1.6430 N   0  0  0  0  0  0  0  0  0  0  0  0
   -6.7030   14.5240    0.9270 C   0  0  0  0  0  0  0  0  0  0  0  0
   -6.7090   14.4390   -0.2990 O   0  0  0  0  0  0  0  0  0  0  0  0
   -4.5220   15.3500    0.9290 C   0  0  2  0  0  0  0  0  0  0  0  0
   -7.8900   14.2520    1.7920 C   0  0  0  0  0  0  0  0  0  0  0  0
   -4.8180   14.8490   -0.3710 N   0  0  0  0  0  0  0  0  0  0  0  0
   -3.3850   14.6660    1.4730 N   0  0  0  0  0  0  0  0  0  0  0  0
   -9.1670   14.6220    1.0680 C   0  0  0  0  0  0  0  0  0  0  0  0
   -3.7440   15.1100   -1.3010 C   0  0  0  0  0  0  0  0  0  0  0  0
   -2.1860   14.9440    0.6850 C   0  0  1  0  0  0  0  0  0  0  0  0
   -0.8930   14.2940    1.2170 C   0  0  0  0  0  0  0  0  0  0  0  0
   -2.4010   14.5850   -0.7910 C   0  0  0  0  0  0  0  0  0  0  0  0
  1  2  1  0
  2  3  2  0
  4  1  1  1
  2  5  1  0
  4  6  1  0
  4  7  1  0
  5  8  1  0
  6  9  1  0
  7 10  1  0
 10 11  1  1
  9 12  1  0
 10 12  1  0
M  END
