diamond-x0662_0_A-diamond-x0805_0_A
     RDKit          3D

 35 38  0  0  0  0  0  0  0  0999 V2000
    5.3480    9.5330  -15.0380 C   0  0  0  0  0  0  0  0  0  0  0  0
    4.3010   10.0170  -14.1690 N   0  0  0  0  0  0  0  0  0  0  0  0
    3.6510   11.2140  -14.2460 C   0  0  0  0  0  0  0  0  0  0  0  0
    3.8870    9.2470  -13.1550 N   0  0  0  0  0  0  0  0  0  0  0  0
    2.7520   11.2160  -13.2040 C   0  0  0  0  0  0  0  0  0  0  0  0
    2.9290    9.9640  -12.5360 C   0  0  0  0  0  0  0  0  0  0  0  0
    2.2360    9.4190  -11.3310 C   0  0  0  0  0  0  0  0  0  0  0  0
    2.2870    8.2270  -11.0580 O   0  0  0  0  0  0  0  0  0  0  0  0
    1.5640   10.3650  -10.5590 N   0  0  0  0  0  0  0  0  0  0  0  0
    0.7850   10.1240   -9.3960 C   0  0  0  0  0  0  0  0  0  0  0  0
   -0.1300    9.0740   -9.4980 C   0  0  0  0  0  0  0  0  0  0  0  0
    0.8590   10.8400   -8.1880 C   0  0  0  0  0  0  0  0  0  0  0  0
   -0.9550    8.7380   -8.4260 C   0  0  0  0  0  0  0  0  0  0  0  0
    0.0290   10.5100   -7.1080 C   0  0  0  0  0  0  0  0  0  0  0  0
    0.0840   11.2700   -5.8200 C   0  0  0  0  0  0  0  0  0  0  0  0
   -0.8730    9.4540   -7.2400 C   0  0  0  0  0  0  0  0  0  0  0  0
   -0.8890   11.3440   -5.0930 O   0  0  0  0  0  0  0  0  0  0  0  0
    1.2860   11.8560   -5.5410 O   0  0  0  0  0  0  0  0  0  0  0  0
    1.0790   13.1530   -4.9800 C   0  0  2  0  0  0  0  0  0  0  0  0
    2.1450   14.0750   -4.9000 O   0  0  0  0  0  0  0  0  0  0  0  0
    0.5520   13.2340   -3.5830 C   0  0  2  0  0  0  0  0  0  0  0  0
    0.2960   12.0360   -2.7100 C   0  0  0  0  0  0  0  0  0  0  0  0
   -0.5610   14.1730   -3.8690 C   0  0  1  0  0  0  0  0  0  0  0  0
    1.6680   15.3890   -4.4570 C   0  0  0  0  0  0  0  0  0  0  0  0
    0.0530   10.8700   -3.3240 O   0  0  0  0  0  0  0  0  0  0  0  0
    0.3200   12.1230   -1.4880 O   0  0  0  0  0  0  0  0  0  0  0  0
   -1.8020   14.0980   -3.0110 C   0  0  0  0  0  0  0  0  0  0  0  0
    0.2010   15.5100   -3.9220 C   0  0  0  0  0  0  0  0  0  0  0  0
   -2.9230   13.3600   -3.4200 C   0  0  0  0  0  0  0  0  0  0  0  0
   -1.8470   14.7680   -1.7950 C   0  0  0  0  0  0  0  0  0  0  0  0
   -2.9770   14.7250   -0.9920 C   0  0  0  0  0  0  0  0  0  0  0  0
   -4.0610   13.3050   -2.6240 C   0  0  0  0  0  0  0  0  0  0  0  0
   -3.0900   15.3660    0.2100 O   0  0  0  0  0  0  0  0  0  0  0  0
   -4.0910   13.9880   -1.4090 C   0  0  0  0  0  0  0  0  0  0  0  0
   -4.3740   15.4620    0.8030 C   0  0  0  0  0  0  0  0  0  0  0  0
  1  2  1  0
  2  3  1  0
  2  4  1  0
  3  5  2  0
  4  6  2  0
  5  6  1  0
  6  7  1  0
  7  8  2  0
  7  9  1  0
  9 10  1  0
 10 11  2  0
 10 12  1  0
 11 13  1  0
 12 14  2  0
 14 15  1  0
 13 16  2  0
 14 16  1  0
 15 17  2  0
 15 18  1  0
 19 18  1  1
 19 20  1  0
 19 21  1  0
 21 22  1  6
 21 23  1  0
 20 24  1  0
 22 25  1  0
 22 26  2  0
 23 27  1  1
 23 28  1  0
 24 28  1  0
 27 29  2  0
 27 30  1  0
 30 31  2  0
 29 32  1  0
 31 33  1  0
 31 34  1  0
 32 34  2  0
 33 35  1  0
M  END
