diamond-x0967_0_A-mac-x0206
     RDKit          3D

 14 15  0  0  0  0  0  0  0  0999 V2000
   -4.2010   13.6900   -1.0660 N   0  0  0  0  0  0  0  0  0  0  0  0
   -5.2800   14.0850   -1.8110 C   0  0  0  0  0  0  0  0  0  0  0  0
   -5.3830   13.6820   -2.9520 O   0  0  0  0  0  0  0  0  0  0  0  0
   -6.1280   14.9720   -1.2070 N   0  0  0  0  0  0  0  0  0  0  0  0
   -5.1910   15.8100   -0.5730 C   0  0  1  0  0  0  0  0  0  0  0  0
   -7.2250   14.6140   -0.4270 C   0  0  0  0  0  0  0  0  0  0  0  0
   -8.4270   14.4580   -1.0530 O   0  0  0  0  0  0  0  0  0  0  0  0
   -4.8840   15.2400    0.7960 C   0  0  0  0  0  0  0  0  0  0  0  0
   -7.1090   14.4380    0.8970 C   0  0  0  0  0  0  0  0  0  0  0  0
   -4.0510   15.7650   -1.5170 N   0  0  0  0  0  0  0  0  0  0  0  0
   -5.8220   14.5950    1.4990 C   0  0  0  0  0  0  0  0  0  0  0  0
   -2.8880   15.6730   -1.0170 C   0  0  0  0  0  0  0  0  0  0  0  0
   -3.5420   15.4080    1.2750 C   0  0  0  0  0  0  0  0  0  0  0  0
   -2.5420   15.6160    0.4120 C   0  0  0  0  0  0  0  0  0  0  0  0
  1  2  1  0
  2  3  2  0
  2  4  1  0
  4  5  1  0
  4  6  1  0
  6  7  1  0
  5  8  1  0
  6  9  2  0
  5 10  1  6
  8 11  2  0
  9 11  1  0
 10 12  2  0
  8 13  1  0
 12 14  1  0
 13 14  2  0
M  END
