diamond-x0895_1_A-mac-x0347
     RDKit          3D

 15 16  0  0  0  0  0  0  0  0999 V2000
   -1.7880   15.4860    1.0480 O   0  0  0  0  0  0  0  0  0  0  0  0
   -2.8200   15.0590    0.5600 C   0  0  0  0  0  0  0  0  0  0  0  0
   -3.0200   14.5920   -0.9150 C   0  0  2  0  0  0  0  0  0  0  0  0
   -3.9880   14.8770    1.2480 N   0  0  0  0  0  0  0  0  0  0  0  0
   -4.2570   13.8760   -0.6710 N   0  0  0  0  0  0  0  0  0  0  0  0
   -4.9230   14.4580    0.3810 C   0  0  0  0  0  0  0  0  0  0  0  0
   -1.8080   13.7720   -1.3600 C   0  0  0  0  0  0  0  0  0  0  0  0
   -3.2500   15.6840   -1.9890 C   0  0  0  0  0  0  0  0  0  0  0  0
   -6.1290   14.5730    0.5110 O   0  0  0  0  0  0  0  0  0  0  0  0
   -0.9020   14.6650   -2.2460 C   0  0  1  0  0  0  0  0  0  0  0  0
   -2.9690   15.2880   -3.4020 N   0  0  0  0  0  0  0  0  0  0  0  0
    0.4480   14.0350   -2.4760 C   0  0  0  0  0  0  0  0  0  0  0  0
   -1.5550   14.9880   -3.5950 C   0  0  0  0  0  0  0  0  0  0  0  0
    1.1050   14.5510   -3.5260 O   0  0  0  0  0  0  0  0  0  0  0  0
    0.9500   13.1500   -1.8090 O   0  0  0  0  0  0  0  0  0  0  0  0
  1  2  2  0
  3  2  1  0
  2  4  1  0
  3  5  1  0
  4  6  1  0
  5  6  1  0
  3  7  1  6
  3  8  1  0
  6  9  2  0
  7 10  1  0
  8 11  1  0
 10 12  1  6
 10 13  1  0
 11 13  1  0
 12 14  1  0
 12 15  2  0
M  END
