diamond-x0421_0_A-mac-x0337
     RDKit          3D

 21 23  0  0  0  0  0  0  0  0999 V2000
   -4.1850   15.2810   -2.8110 N   0  0  0  0  0  0  0  0  0  0  0  0
   -3.2570   14.9430   -1.7050 C   0  0  2  0  0  0  0  0  0  0  0  0
   -1.9980   15.4030   -2.0070 O   0  0  0  0  0  0  0  0  0  0  0  0
   -2.9530   13.5140   -1.2870 S   0  0  0  0  0  0  0  0  0  0  0  0
   -3.8230   15.1910   -0.3710 C   0  0  0  0  0  0  0  0  0  0  0  0
   -1.6260   13.2300   -0.2460 O   0  0  0  0  0  0  0  0  0  0  0  0
   -3.6340   13.8210    0.1080 N   0  0  0  0  0  0  0  0  0  0  0  0
   -3.3040   15.6940    0.8020 C   0  0  0  0  0  0  0  0  0  0  0  0
   -5.1100   14.8430   -0.0730 N   0  0  0  0  0  0  0  0  0  0  0  0
   -4.0000   12.2460   -1.5440 C   0  0  0  0  0  0  0  0  0  0  0  0
   -4.2780   15.6000    1.7100 N   0  0  0  0  0  0  0  0  0  0  0  0
   -5.3720   15.0800    1.2100 C   0  0  0  0  0  0  0  0  0  0  0  0
   -3.6570   11.2190   -2.3960 C   0  0  0  0  0  0  0  0  0  0  0  0
   -5.2360   12.1270   -0.9460 C   0  0  0  0  0  0  0  0  0  0  0  0
   -6.6750   14.7690    1.8470 C   0  0  0  0  0  0  0  0  0  0  0  0
   -4.4660   10.1680   -2.6310 C   0  0  0  0  0  0  0  0  0  0  0  0
   -6.0820   11.0770   -1.1600 C   0  0  0  0  0  0  0  0  0  0  0  0
   -7.8670   14.6550    0.9550 C   0  0  0  0  0  0  0  0  0  0  0  0
   -7.2890   13.4310    1.5410 C   0  0  0  0  0  0  0  0  0  0  0  0
   -5.6840   10.0840   -2.0140 C   0  0  0  0  0  0  0  0  0  0  0  0
   -6.5870    8.9430   -2.2400 C   0  0  0  0  0  0  0  0  0  0  0  0
  2  1  1  6
  2  3  1  0
  2  4  1  0
  2  5  1  0
  4  6  2  0
  4  7  1  0
  5  8  2  0
  5  9  1  0
  4 10  1  0
  8 11  1  0
  9 12  2  0
 11 12  1  0
 10 13  2  0
 10 14  1  0
 12 15  1  0
 13 16  1  0
 14 17  2  0
 15 18  1  0
 15 19  1  0
 18 19  1  0
 16 20  2  0
 17 20  1  0
 20 21  1  0
M  END
