diamond-x0628_0_A-diamond-x0962_1_A
     RDKit          3D

 21 22  0  0  0  0  0  0  0  0999 V2000
   -1.0120    9.1100   -7.2710 C   0  0  0  0  0  0  0  0  0  0  0  0
   -0.9520   10.3020   -6.4000 C   0  0  0  0  0  0  0  0  0  0  0  0
   -1.9280   10.6050   -5.4890 N   0  0  0  0  0  0  0  0  0  0  0  0
    0.0610   11.1710   -6.4450 N   0  0  0  0  0  0  0  0  0  0  0  0
   -0.3000   12.0660   -5.4950 N   0  0  0  0  0  0  0  0  0  0  0  0
   -1.5060   11.7220   -4.9190 C   0  0  0  0  0  0  0  0  0  0  0  0
   -2.2160   12.4790   -3.8230 C   0  0  0  0  0  0  0  0  0  0  0  0
    0.5470   13.2060   -5.1980 C   0  0  0  0  0  0  0  0  0  0  0  0
    1.6690   12.9390   -4.1980 C   0  0  0  0  0  0  0  0  0  0  0  0
   -2.7770   13.8670   -4.2160 C   0  0  0  0  0  0  0  0  0  0  0  0
    1.1210   12.2480   -2.9730 C   0  0  0  0  0  0  0  0  0  0  0  0
   -2.5660   14.9950   -3.1790 C   0  0  0  0  0  0  0  0  0  0  0  0
    0.6150   11.1380   -2.9500 O   0  0  0  0  0  0  0  0  0  0  0  0
    1.2460   12.9930   -1.8560 O   0  0  0  0  0  0  0  0  0  0  0  0
   -3.5540   15.0370   -2.0780 C   0  0  0  0  0  0  0  0  0  0  0  0
   -4.3860   15.0180   -1.2020 C   0  0  0  0  0  0  0  0  0  0  0  0
   -5.4060   14.8590   -0.2300 C   0  0  0  0  0  0  0  0  0  0  0  0
   -5.2140   14.8730    1.1250 N   0  0  0  0  0  0  0  0  0  0  0  0
   -6.7580   14.6580   -0.3940 C   0  0  0  0  0  0  0  0  0  0  0  0
   -6.4350   14.6780    1.7160 C   0  0  0  0  0  0  0  0  0  0  0  0
   -7.3930   14.5460    0.8210 N   0  0  0  0  0  0  0  0  0  0  0  0
  1  2  1  0
  2  3  1  0
  2  4  2  0
  4  5  1  0
  3  6  2  0
  5  6  1  0
  6  7  1  0
  5  8  1  0
  8  9  1  0
  7 10  1  0
  9 11  1  0
 10 12  1  0
 11 13  2  0
 11 14  1  0
 12 15  1  0
 15 16  3  0
 16 17  1  0
 17 18  1  0
 17 19  2  0
 18 20  1  0
 19 21  1  0
 20 21  2  0
M  END
