diamond-x0727_0_A-mac-x0522
     RDKit          3D

 30 32  0  0  0  0  0  0  0  0999 V2000
    0.0240   11.8300   -5.3050 N   0  0  0  0  0  0  0  0  0  0  0  0
    1.0410   12.5150   -4.5370 C   0  0  1  0  0  0  0  0  0  0  0  0
    0.9540   14.0140   -4.7700 C   0  0  0  0  0  0  0  0  0  0  0  0
    0.2020   11.1930   -6.4890 C   0  0  0  0  0  0  0  0  0  0  0  0
    1.1800   11.4780   -7.2350 N   0  0  0  0  0  0  0  0  0  0  0  0
    0.9170   12.0360   -3.0980 C   0  0  0  0  0  0  0  0  0  0  0  0
   -0.8770   10.1690   -6.7720 C   0  0  0  0  0  0  0  0  0  0  0  0
    0.3460   11.0140   -2.7690 O   0  0  0  0  0  0  0  0  0  0  0  0
    1.4840   12.8170   -2.1740 O   0  0  0  0  0  0  0  0  0  0  0  0
    1.4460   10.8960   -8.5220 C   0  0  0  0  0  0  0  0  0  0  0  0
   -1.4560   10.1170   -8.1790 C   0  0  0  0  0  0  0  0  0  0  0  0
   -0.4270    8.7460   -6.4970 C   0  0  0  0  0  0  0  0  0  0  0  0
    1.2130    9.4080   -8.6550 C   0  0  0  0  0  0  0  0  0  0  0  0
   -2.0700    8.7150   -8.2630 C   0  0  0  0  0  0  0  0  0  0  0  0
   -1.5940    7.9440   -7.0300 C   0  0  0  0  0  0  0  0  0  0  0  0
    0.5730    9.0690  -10.0060 C   0  0  0  0  0  0  0  0  0  0  0  0
    1.4640    9.4530  -11.0850 N   0  0  0  0  0  0  0  0  0  0  0  0
    2.5750    8.8880  -11.4270 C   0  0  0  0  0  0  0  0  0  0  0  0
    3.2060    7.7680  -10.8460 N   0  0  0  0  0  0  0  0  0  0  0  0
    3.2770    9.5180  -12.5860 C   0  0  0  0  0  0  0  0  0  0  0  0
    2.9020    6.9460   -9.7790 C   0  0  0  0  0  0  0  0  0  0  0  0
    4.3450    8.8950  -13.2320 C   0  0  0  0  0  0  0  0  0  0  0  0
    2.8250   10.7700  -13.0060 C   0  0  0  0  0  0  0  0  0  0  0  0
    3.6790    6.0420   -9.2100 N   0  0  0  0  0  0  0  0  0  0  0  0
    1.3470    7.0150   -9.0160 S   0  0  0  0  0  0  0  0  0  0  0  0
    4.9490    9.5490  -14.3090 C   0  0  0  0  0  0  0  0  0  0  0  0
    3.4260   11.4190  -14.0760 C   0  0  0  0  0  0  0  0  0  0  0  0
    1.7650    5.8020   -7.9010 C   0  0  0  0  0  0  0  0  0  0  0  0
    3.0490    5.3980   -8.1570 C   0  0  0  0  0  0  0  0  0  0  0  0
    4.4920   10.8050  -14.7300 C   0  0  0  0  0  0  0  0  0  0  0  0
  1  2  1  0
  2  3  1  1
  1  4  1  0
  4  5  2  3
  2  6  1  0
  4  7  1  0
  6  8  2  0
  6  9  1  0
  5 10  1  0
  7 11  1  0
  7 12  1  0
 10 13  1  0
 11 14  1  0
 12 15  1  0
 14 15  1  0
 13 16  1  0
 16 17  1  0
 17 18  2  3
 18 19  1  0
 18 20  1  0
 19 21  1  0
 20 22  2  0
 20 23  1  0
 21 24  2  0
 21 25  1  0
 22 26  1  0
 23 27  2  0
 25 28  1  0
 24 29  1  0
 28 29  2  0
 26 30  2  0
 27 30  1  0
M  END
