diamond-x0587_0_A-mac-x0148
     RDKit          3D

 30 34  0  0  0  0  0  0  0  0999 V2000
   -8.1240   14.9340    3.9580 N   0  0  0  0  0  0  0  0  0  0  0  0
   -8.6430   14.8960    2.6910 C   0  0  0  0  0  0  0  0  0  0  0  0
   -9.8410   15.0070    2.5040 O   0  0  0  0  0  0  0  0  0  0  0  0
   -7.7130   14.7340    1.5690 C   0  0  0  0  0  0  0  0  0  0  0  0
   -8.1350   14.5330    0.2610 C   0  0  0  0  0  0  0  0  0  0  0  0
   -6.3770   14.7820    1.7340 C   0  0  0  0  0  0  0  0  0  0  0  0
   -7.2880   14.3970   -0.8060 N   0  0  0  0  0  0  0  0  0  0  0  0
   -5.5030   14.6550    0.7320 N   0  0  0  0  0  0  0  0  0  0  0  0
   -5.9720   14.4710   -0.5240 C   0  0  0  0  0  0  0  0  0  0  0  0
   -4.8410   14.3720   -1.5670 C   0  0  0  0  0  0  0  0  0  0  0  0
   -4.6910   13.1290   -2.1180 F   0  0  0  0  0  0  0  0  0  0  0  0
   -4.9920   15.2850   -2.5750 F   0  0  0  0  0  0  0  0  0  0  0  0
   -3.7450   14.7100   -0.6550 C   0  0  0  0  0  0  0  0  0  0  0  0
   -2.2890   14.6880   -0.6630 C   0  0  0  0  0  0  0  0  0  0  0  0
   -4.0790   15.1690    0.5520 C   0  0  0  0  0  0  0  0  0  0  0  0
   -2.0470   15.1740    0.7300 C   0  0  0  0  0  0  0  0  0  0  0  0
   -1.1630   14.4160   -1.3870 C   0  0  0  0  0  0  0  0  0  0  0  0
   -3.0910   15.4520    1.4000 N   0  0  0  0  0  0  0  0  0  0  0  0
   -0.9470   13.9330   -2.6580 N   0  0  0  0  0  0  0  0  0  0  0  0
    0.0300   14.6540   -0.7480 N   0  0  0  0  0  0  0  0  0  0  0  0
   -0.8530   15.3670    1.2540 N   0  0  0  0  0  0  0  0  0  0  0  0
   -1.4170   14.4740   -3.9450 C   0  0  2  0  0  0  0  0  0  0  0  0
    0.2350   13.0520   -2.8090 C   0  0  0  0  0  0  0  0  0  0  0  0
    0.1120   15.1320    0.4990 C   0  0  0  0  0  0  0  0  0  0  0  0
   -2.7330   15.2060   -4.0760 C   0  0  0  0  0  0  0  0  0  0  0  0
   -1.7650   13.2460   -4.7830 C   0  0  1  0  0  0  0  0  0  0  0  0
   -0.0290   11.9220   -3.8090 C   0  0  0  0  0  0  0  0  0  0  0  0
   -2.6890   13.7450   -5.8630 C   0  0  0  0  0  0  0  0  0  0  0  0
   -3.0380   15.0910   -5.4850 O   0  0  0  0  0  0  0  0  0  0  0  0
   -0.5140   12.4820   -5.1430 C   0  0  0  0  0  0  0  0  0  0  0  0
  1  2  1  0
  2  3  2  0
  2  4  1  0
  4  5  2  0
  4  6  1  0
  5  7  1  0
  6  8  2  0
  7  9  2  0
  8  9  1  0
  9 10  1  0
 10 11  1  0
 10 12  1  0
 10 13  1  0
 13 14  1  0
 13 15  2  0
 14 16  1  0
 14 17  2  0
 15 18  1  0
 16 18  2  0
 17 19  1  0
 17 20  1  0
 16 21  1  0
 19 22  1  0
 19 23  1  0
 20 24  1  0
 21 24  2  0
 22 25  1  1
 22 26  1  0
 23 27  1  0
 26 28  1  6
 25 29  1  0
 28 29  1  0
 26 30  1  0
 27 30  1  0
M  END
