diamond-x0421_0_A-diamond-x0910_0_A
     RDKit          3D

 16 18  0  0  0  0  0  0  0  0999 V2000
   -3.1930   15.4820   -2.4910 N   0  0  0  0  0  0  0  0  0  0  0  0
   -2.8050   14.5360   -1.4340 C   0  0  2  0  0  0  0  0  0  0  0  0
   -2.8390   13.2890   -2.0760 O   0  0  0  0  0  0  0  0  0  0  0  0
   -3.7020   14.6710   -0.2410 C   0  0  0  0  0  0  0  0  0  0  0  0
   -1.4640   14.7190   -0.7270 C   0  0  0  0  0  0  0  0  0  0  0  0
   -3.2390   14.9860    1.0190 C   0  0  0  0  0  0  0  0  0  0  0  0
   -5.0800   14.4990   -0.2140 N   0  0  0  0  0  0  0  0  0  0  0  0
   -1.4030   14.8690    0.6140 N   0  0  0  0  0  0  0  0  0  0  0  0
   -0.2320   14.7380   -1.3440 N   0  0  0  0  0  0  0  0  0  0  0  0
   -4.3080   14.9970    1.8160 N   0  0  0  0  0  0  0  0  0  0  0  0
   -5.3870   14.7020    1.0560 C   0  0  0  0  0  0  0  0  0  0  0  0
   -0.1010   14.9820    0.8290 N   0  0  0  0  0  0  0  0  0  0  0  0
    0.5860   14.9040   -0.3320 C   0  0  0  0  0  0  0  0  0  0  0  0
   -6.7980   14.6170    1.6590 C   0  0  0  0  0  0  0  0  0  0  0  0
   -7.9940   14.6840    0.7560 C   0  0  0  0  0  0  0  0  0  0  0  0
   -7.6000   13.3780    1.3910 C   0  0  0  0  0  0  0  0  0  0  0  0
  2  1  1  6
  2  3  1  0
  2  4  1  0
  2  5  1  0
  4  6  2  0
  4  7  1  0
  5  8  2  0
  5  9  1  0
  6 10  1  0
  7 11  2  0
 10 11  1  0
  8 12  1  0
  9 13  2  0
 12 13  1  0
 11 14  1  0
 14 15  1  0
 14 16  1  0
 15 16  1  0
M  END
