diamond-x0910_1_A-mac-x0451
     RDKit          3D

 12 13  0  0  0  0  0  0  0  0999 V2000
   -8.3490   14.4950    0.6040 N   0  0  0  0  0  0  0  0  0  0  0  0
   -7.0940   14.7630    0.1590 C   0  0  0  0  0  0  0  0  0  0  0  0
   -6.6890   14.8740   -1.0900 N   0  0  0  0  0  0  0  0  0  0  0  0
   -6.1250   14.9370    1.1200 N   0  0  0  0  0  0  0  0  0  0  0  0
   -6.5530   14.6140    2.4600 N   0  0  0  0  0  0  0  0  0  0  0  0
   -5.3280   15.1170   -0.9190 N   0  0  0  0  0  0  0  0  0  0  0  0
   -4.9870   14.4390    0.3530 C   0  0  1  0  0  0  0  0  0  0  0  0
   -4.3940   15.0530   -1.9450 C   0  0  0  0  0  0  0  0  0  0  0  0
   -3.5650   14.7120    0.7130 C   0  0  0  0  0  0  0  0  0  0  0  0
   -3.0790   14.9640   -1.6610 C   0  0  0  0  0  0  0  0  0  0  0  0
   -2.6600   14.9470   -0.2600 C   0  0  0  0  0  0  0  0  0  0  0  0
   -2.1360   14.8960   -2.6230 F   0  0  0  0  0  0  0  0  0  0  0  0
  1  2  1  0
  2  3  2  0
  2  4  1  0
  4  5  1  0
  3  6  1  0
  4  7  1  0
  6  7  1  0
  6  8  1  0
  7  9  1  1
  8 10  2  0
  9 11  2  0
 10 11  1  0
 10 12  1  0
M  END
