diamond-x0844_0_A-mac-x0116
     RDKit          3D

 23 26  0  0  0  0  0  0  0  0999 V2000
   -7.9540   14.9520    0.7960 O   0  0  0  0  0  0  0  0  0  0  0  0
   -6.8730   14.8730    0.2270 C   0  0  0  0  0  0  0  0  0  0  0  0
   -5.6030   15.0290    0.8550 N   0  0  0  0  0  0  0  0  0  0  0  0
   -6.9340   14.5900   -1.2310 C   0  0  0  0  0  0  0  0  0  0  0  0
   -4.5360   14.9830   -0.0080 C   0  0  0  0  0  0  0  0  0  0  0  0
   -5.8170   14.5380   -1.9120 C   0  0  0  0  0  0  0  0  0  0  0  0
   -5.5110   14.3310    2.0980 C   0  0  0  0  0  0  0  0  0  0  0  0
   -5.5500   14.1990   -3.7150 Br  0  0  0  0  0  0  0  0  0  0  0  0
   -4.6660   14.7520   -1.2600 C   0  0  0  0  0  0  0  0  0  0  0  0
   -3.1710   15.0910   -0.1420 C   0  0  0  0  0  0  0  0  0  0  0  0
   -6.1610   13.0090    1.9300 C   0  0  0  0  0  0  0  0  0  0  0  0
   -3.1220   15.5250   -1.4360 N   0  0  0  0  0  0  0  0  0  0  0  0
   -2.0540   14.8810    0.5160 C   0  0  0  0  0  0  0  0  0  0  0  0
   -6.1610   12.4660    0.6730 O   0  0  0  0  0  0  0  0  0  0  0  0
   -6.7950   12.1700    2.8080 C   0  0  0  0  0  0  0  0  0  0  0  0
   -2.0020   15.7080   -2.1090 C   0  0  0  0  0  0  0  0  0  0  0  0
   -0.8610   15.0780   -0.3270 C   0  0  0  0  0  0  0  0  0  0  0  0
   -1.6330   14.4720    1.7410 N   0  0  0  0  0  0  0  0  0  0  0  0
   -7.2110   11.0550    2.0600 C   0  0  0  0  0  0  0  0  0  0  0  0
   -6.8020   11.2800    0.7670 C   0  0  0  0  0  0  0  0  0  0  0  0
   -0.8560   15.5060   -1.6220 N   0  0  0  0  0  0  0  0  0  0  0  0
    0.1680   14.7120    0.3180 N   0  0  0  0  0  0  0  0  0  0  0  0
   -0.3470   14.3690    1.5550 C   0  0  0  0  0  0  0  0  0  0  0  0
  1  2  2  0
  2  3  1  0
  2  4  1  0
  3  5  1  0
  4  6  2  0
  3  7  1  0
  6  8  1  0
  5  9  2  0
  6  9  1  0
  5 10  1  0
  7 11  1  0
 10 12  1  0
 10 13  2  0
 11 14  1  0
 11 15  2  0
 12 16  1  0
 13 17  1  0
 13 18  1  0
 15 19  1  0
 14 20  1  0
 19 20  2  0
 16 21  2  0
 17 21  1  0
 17 22  2  0
 18 23  2  0
 22 23  1  0
M  END
