diamond-x0592_0_A-diamond-x0438_0_A
     RDKit          3D

 19 20  0  0  0  0  0  0  0  0999 V2000
   -2.0810   14.2750   -0.0670 N   0  0  0  0  0  0  0  0  0  0  0  0
   -2.1600   14.3900   -1.4430 C   0  0  0  0  0  0  0  0  0  0  0  0
   -1.2010   14.7390   -2.0890 O   0  0  0  0  0  0  0  0  0  0  0  0
   -3.5040   14.0730   -2.0550 C   0  0  0  0  0  0  0  0  0  0  0  0
   -4.2950   14.3040   -0.8950 C   0  0  0  0  0  0  0  0  0  0  0  0
   -3.7710   15.3210   -0.1470 C   0  0  0  0  0  0  0  0  0  0  0  0
   -5.4310   13.6320   -0.4980 C   0  0  0  0  0  0  0  0  0  0  0  0
   -6.1210   12.5970   -1.0930 N   0  0  0  0  0  0  0  0  0  0  0  0
   -5.9910   14.0300    0.6830 C   0  0  0  0  0  0  0  0  0  0  0  0
   -4.3170   15.7050    1.0170 C   0  0  0  0  0  0  0  0  0  0  0  0
   -7.0740   13.2110    0.8040 N   0  0  0  0  0  0  0  0  0  0  0  0
   -5.4500   15.0600    1.4710 C   0  0  0  0  0  0  0  0  0  0  0  0
   -7.1210   12.3650   -0.2730 C   0  0  0  0  0  0  0  0  0  0  0  0
   -7.9930   13.2630    1.8960 C   0  0  0  0  0  0  0  0  0  0  0  0
   -8.1280   14.6740    2.4350 C   0  0  2  0  0  0  0  0  0  0  0  0
   -7.4910   14.8790    3.7070 O   0  0  0  0  0  0  0  0  0  0  0  0
   -9.8070   15.2750    2.2740 S   0  0  0  0  0  0  0  0  0  0  0  0
  -10.5760   14.8750    3.4330 O   0  0  0  0  0  0  0  0  0  0  0  0
   -9.7620   16.6460    1.8220 O   0  0  0  0  0  0  0  0  0  0  0  0
  1  2  1  0
  2  3  2  0
  2  4  1  0
  4  5  1  0
  5  6  2  0
  5  7  1  0
  7  8  1  0
  7  9  2  0
  6 10  1  0
  9 11  1  0
  9 12  1  0
 10 12  2  0
  8 13  2  0
 11 13  1  0
 11 14  1  0
 14 15  1  0
 15 16  1  1
 15 17  1  0
 17 18  2  0
 17 19  2  0
M  END
