diamond-x0681_0_A-diamond-x0438_0_A
     RDKit          3D

 21 23  0  0  0  0  0  0  0  0999 V2000
   -4.1790   15.4230   -2.3260 N   0  0  0  0  0  0  0  0  0  0  0  0
   -3.1150   14.7570   -1.7870 C   0  0  0  0  0  0  0  0  0  0  0  0
   -2.0790   14.6590   -2.4320 O   0  0  0  0  0  0  0  0  0  0  0  0
   -3.3020   14.1470   -0.3870 C   0  0  2  0  0  0  0  0  0  0  0  0
   -4.3830   13.1010   -0.5050 C   0  0  0  0  0  0  0  0  0  0  0  0
   -3.5370   15.1990    0.7530 C   0  0  0  0  0  0  0  0  0  0  0  0
   -5.5960   13.2650    0.0420 N   0  0  0  0  0  0  0  0  0  0  0  0
   -4.7570   14.8890    1.6370 C   0  0  0  0  0  0  0  0  0  0  0  0
   -4.3370   11.9420   -1.1220 N   0  0  0  0  0  0  0  0  0  0  0  0
   -5.8810   14.4450    0.7110 C   0  0  2  0  0  0  0  0  0  0  0  0
   -6.3780   12.1920   -0.1950 C   0  0  0  0  0  0  0  0  0  0  0  0
   -5.5800   11.3730   -0.9320 C   0  0  0  0  0  0  0  0  0  0  0  0
   -7.3950   14.5920    0.9120 C   0  0  0  0  0  0  0  0  0  0  0  0
   -5.8020   15.3400   -0.4720 C   0  0  0  0  0  0  0  0  0  0  0  0
   -8.1710   14.0240    2.0390 C   0  0  0  0  0  0  0  0  0  0  0  0
   -7.9980   15.2440   -0.0420 N   0  0  0  0  0  0  0  0  0  0  0  0
   -7.0050   15.6990   -0.8630 C   0  0  0  0  0  0  0  0  0  0  0  0
   -9.2440   15.2550    2.7450 S   0  0  0  0  0  0  0  0  0  0  0  0
   -8.3760   15.8340    4.1880 C   0  0  0  0  0  0  0  0  0  0  0  0
  -10.4350   14.5630    3.2110 O   0  0  0  0  0  0  0  0  0  0  0  0
   -9.3960   16.3540    1.8150 O   0  0  0  0  0  0  0  0  0  0  0  0
  1  2  1  0
  2  3  2  0
  4  2  1  6
  4  5  1  0
  4  6  1  0
  5  7  1  0
  6  8  1  0
  5  9  2  0
  7 10  1  0
 10  8  1  1
  7 11  1  0
  9 12  1  0
 11 12  2  0
 10 13  1  0
 10 14  1  0
 13 15  1  0
 13 16  2  0
 14 17  2  0
 16 17  1  0
 18 15  1  0
 18 19  1  0
 18 20  2  0
 18 21  2  0
M  END
