diamond-x0524_0_A-mac-x0148
     RDKit          3D

 37 42  0  0  0  0  0  0  0  0999 V2000
   -0.3980    8.3200   -8.1690 N   0  0  0  0  0  0  0  0  0  0  0  0
   -0.9120    9.3530   -7.4420 C   0  0  0  0  0  0  0  0  0  0  0  0
   -1.8940    8.9700   -6.3430 C   0  0  0  0  0  0  0  0  0  0  0  0
    0.6540    8.3770   -9.0970 C   0  0  0  0  0  0  0  0  0  0  0  0
   -0.5810   10.5580   -7.6780 N   0  0  0  0  0  0  0  0  0  0  0  0
    1.8210    7.6350   -8.9810 C   0  0  0  0  0  0  0  0  0  0  0  0
    0.5360    9.2260  -10.2100 C   0  0  0  0  0  0  0  0  0  0  0  0
   -1.0840   11.6700   -6.9310 C   0  0  0  0  0  0  0  0  0  0  0  0
    2.8400    7.7240   -9.9350 C   0  0  0  0  0  0  0  0  0  0  0  0
    1.5550    9.3170  -11.1700 C   0  0  0  0  0  0  0  0  0  0  0  0
    2.7270    8.5600  -11.0450 C   0  0  0  0  0  0  0  0  0  0  0  0
    0.1280   12.2360   -6.2140 C   0  0  0  0  0  0  0  0  0  0  0  0
    3.7370    8.6540  -12.0170 N   0  0  0  0  0  0  0  0  0  0  0  0
   -0.1980   13.0450   -4.9630 C   0  0  1  0  0  0  0  0  0  0  0  0
    3.9950    9.5370  -13.0790 C   0  0  0  0  0  0  0  0  0  0  0  0
   -1.6730   13.2230   -4.6570 C   0  0  2  0  0  0  0  0  0  0  0  0
    0.3040   12.3460   -3.7270 C   0  0  0  0  0  0  0  0  0  0  0  0
    3.2130   10.6880  -13.2580 C   0  0  0  0  0  0  0  0  0  0  0  0
    5.0350    9.2990  -13.9800 C   0  0  0  0  0  0  0  0  0  0  0  0
   -2.5700   13.7310   -5.7700 C   0  0  0  0  0  0  0  0  0  0  0  0
   -1.9300   14.1900   -3.5060 C   0  0  2  0  0  0  0  0  0  0  0  0
    0.3710   13.3860   -2.6270 C   0  0  0  0  0  0  0  0  0  0  0  0
    3.4690   11.5700  -14.3090 C   0  0  0  0  0  0  0  0  0  0  0  0
    5.2930   10.1790  -15.0330 C   0  0  0  0  0  0  0  0  0  0  0  0
   -2.9140   15.0970   -5.4770 O   0  0  0  0  0  0  0  0  0  0  0  0
   -2.2460   15.4730   -4.2530 C   0  0  0  0  0  0  0  0  0  0  0  0
   -0.8570   14.2180   -2.4470 N   0  0  0  0  0  0  0  0  0  0  0  0
    4.5080   11.3160  -15.1960 C   0  0  0  0  0  0  0  0  0  0  0  0
   -1.1460   14.4670   -1.1100 C   0  0  0  0  0  0  0  0  0  0  0  0
   -0.1520   14.3770   -0.1580 N   0  0  0  0  0  0  0  0  0  0  0  0
   -2.3560   14.8060   -0.6320 C   0  0  0  0  0  0  0  0  0  0  0  0
   -0.4010   14.5350    1.1730 C   0  0  0  0  0  0  0  0  0  0  0  0
   -2.5310   15.0250    0.8220 C   0  0  0  0  0  0  0  0  0  0  0  0
   -3.6680   15.0560   -1.1450 C   0  0  0  0  0  0  0  0  0  0  0  0
   -1.5190   14.8470    1.7060 N   0  0  0  0  0  0  0  0  0  0  0  0
   -3.7390   15.3940    1.1320 N   0  0  0  0  0  0  0  0  0  0  0  0
   -4.4080   15.3980   -0.0780 C   0  0  0  0  0  0  0  0  0  0  0  0
  1  2  1  0
  2  3  1  0
  1  4  1  0
  2  5  2  3
  4  6  2  0
  4  7  1  0
  5  8  1  0
  6  9  1  0
  7 10  2  0
  9 11  2  0
 10 11  1  0
  8 12  1  0
 11 13  1  0
 14 12  1  6
 13 15  1  0
 14 16  1  0
 14 17  1  0
 15 18  2  0
 15 19  1  0
 16 20  1  6
 16 21  1  0
 17 22  1  0
 18 23  1  0
 19 24  2  0
 20 25  1  0
 21 26  1  6
 25 26  1  0
 21 27  1  0
 22 27  1  0
 23 28  2  0
 24 28  1  0
 27 29  1  0
 29 30  1  0
 29 31  2  0
 30 32  1  0
 31 33  1  0
 31 34  1  0
 32 35  2  0
 33 35  1  0
 33 36  2  0
 34 37  2  0
 36 37  1  0
M  END
