diamond-x0805_0_A-diamond-x0837_0_A
     RDKit          3D

 25 27  0  0  0  0  0  0  0  0999 V2000
   -3.9260   15.9130    1.1500 C   0  0  0  0  0  0  0  0  0  0  0  0
   -2.8800   15.3150    0.4600 O   0  0  0  0  0  0  0  0  0  0  0  0
   -2.9330   14.9900   -0.8620 C   0  0  0  0  0  0  0  0  0  0  0  0
   -4.0760   14.9180   -1.6670 C   0  0  0  0  0  0  0  0  0  0  0  0
   -1.9250   14.6900   -1.6430 C   0  0  0  0  0  0  0  0  0  0  0  0
   -3.7940   14.6300   -2.5860 I   0  0  0  0  0  0  0  0  0  0  0  0
   -3.9360   14.5530   -3.0570 C   0  0  0  0  0  0  0  0  0  0  0  0
   -1.5530   14.3410   -2.8890 C   0  0  0  0  0  0  0  0  0  0  0  0
   -2.6690   14.2620   -3.6690 C   0  0  0  0  0  0  0  0  0  0  0  0
   -0.1280   14.1370   -3.1580 C   0  0  1  0  0  0  0  0  0  0  0  0
   -5.2370   13.9130   -1.2070 C   0  0  1  0  0  0  0  0  0  0  0  0
    0.1290   12.9410   -4.1110 C   0  0  2  0  0  0  0  0  0  0  0  0
    0.4140   15.3590   -3.8450 C   0  0  0  0  0  0  0  0  0  0  0  0
   -4.6350   13.3380    0.0130 C   0  0  0  0  0  0  0  0  0  0  0  0
   -6.2970   14.9500   -0.9790 C   0  0  0  0  0  0  0  0  0  0  0  0
    0.5040   11.8170   -3.2070 C   0  0  0  0  0  0  0  0  0  0  0  0
    1.2280   13.2030   -5.1020 C   0  0  0  0  0  0  0  0  0  0  0  0
    1.8170   15.1950   -4.2470 C   0  0  0  0  0  0  0  0  0  0  0  0
   -5.1240   13.5130    1.2250 C   0  0  0  0  0  0  0  0  0  0  0  0
   -7.0290   14.6870    0.2590 C   0  0  0  0  0  0  0  0  0  0  0  0
    0.0860   10.5470   -3.4930 O   0  0  0  0  0  0  0  0  0  0  0  0
    1.1960   12.1260   -2.2130 O   0  0  0  0  0  0  0  0  0  0  0  0
   -8.2980   14.7980    0.3360 O   0  0  0  0  0  0  0  0  0  0  0  0
    2.2430   13.9110   -4.4570 O   0  0  0  0  0  0  0  0  0  0  0  0
   -6.2920   14.2840    1.4210 N   0  0  0  0  0  0  0  0  0  0  0  0
  1  2  1  0
  2  3  1  0
  3  4  2  0
  3  5  1  0
  5  6  1  0
  4  7  1  0
  5  8  2  0
  7  9  2  0
  8  9  1  0
 10  8  1  6
 11  6  1  6
 10 12  1  0
 10 13  1  0
 11 14  1  0
 11 15  1  0
 12 16  1  1
 12 17  1  0
 13 18  1  0
 14 19  2  0
 15 20  1  0
 16 21  1  0
 16 22  2  0
 20 23  2  0
 17 24  1  0
 18 24  1  0
 19 25  1  0
 20 25  1  0
M  END
