diamond-x0742_0_A-diamond-x0282_0_A
     RDKit          3D

 18 20  0  0  0  0  0  0  0  0999 V2000
   -5.2300   12.3220   -0.8990 C   0  0  0  0  0  0  0  0  0  0  0  0
   -6.1120   11.9010    0.2580 C   0  0  0  0  0  0  0  0  0  0  0  0
   -4.9940   11.5080   -1.7940 O   0  0  0  0  0  0  0  0  0  0  0  0
   -4.6560   13.7640   -0.9720 C   0  0  2  0  0  0  0  0  0  0  0  0
   -4.6600   14.5080    0.3600 C   0  0  1  0  0  0  0  0  0  0  0  0
   -5.6300   14.6570   -1.7940 C   0  0  0  0  0  0  0  0  0  0  0  0
   -3.2280   13.7180   -1.5310 C   0  0  0  0  0  0  0  0  0  0  0  0
   -6.1320   14.8160    0.5830 C   0  0  1  0  0  0  0  0  0  0  0  0
   -2.1420   13.9800   -0.5050 C   0  0  0  0  0  0  0  0  0  0  0  0
   -3.7650   13.9340    1.4270 C   0  0  0  0  0  0  0  0  0  0  0  0
   -6.3520   15.5400   -0.7610 C   0  0  0  0  0  0  0  0  0  0  0  0
   -7.1900   13.7370    0.7620 C   0  0  0  0  0  0  0  0  0  0  0  0
   -0.8370   14.1350   -0.9440 C   0  0  0  0  0  0  0  0  0  0  0  0
   -2.3780   14.0810    0.8900 C   0  0  0  0  0  0  0  0  0  0  0  0
   -8.4730   14.2630    0.4320 O   0  0  0  0  0  0  0  0  0  0  0  0
   -1.4110   14.3130    1.7880 N   0  0  0  0  0  0  0  0  0  0  0  0
    0.1660   14.3750   -0.0290 C   0  0  0  0  0  0  0  0  0  0  0  0
   -0.1730   14.4530    1.3110 C   0  0  0  0  0  0  0  0  0  0  0  0
  1  2  1  0
  1  3  2  0
  4  1  1  1
  4  5  1  0
  4  6  1  0
  4  7  1  0
  5  8  1  0
  7  9  1  0
  5 10  1  1
  6 11  1  0
  8 11  1  0
  8 12  1  6
  9 13  2  0
  9 14  1  0
 10 14  1  0
 12 15  1  0
 14 16  2  0
 13 17  1  0
 16 18  1  0
 17 18  2  0
M  END
