diamond-x0465_0_A-diamond-x0471_0_A
     RDKit          3D

 32 34  0  0  0  0  0  0  0  0999 V2000
    2.0200   13.3630   -4.4170 C   0  0  0  0  0  0  0  0  0  0  0  0
    0.6330   12.7500   -4.2190 C   0  0  1  0  0  0  0  0  0  0  0  0
    0.4000   11.8510   -5.3330 O   0  0  0  0  0  0  0  0  0  0  0  0
    0.6200   11.9440   -2.8970 C   0  0  0  0  0  0  0  0  0  0  0  0
    0.3690   12.3850   -1.6930 N   0  0  0  0  0  0  0  0  0  0  0  0
    0.8950   10.6460   -3.0350 O   0  0  0  0  0  0  0  0  0  0  0  0
   -0.7880   11.1770   -5.5030 C   0  0  0  0  0  0  0  0  0  0  0  0
    0.0340   13.7690   -1.3490 C   0  0  0  0  0  0  0  0  0  0  0  0
   -0.9440   10.5050   -6.7320 C   0  0  0  0  0  0  0  0  0  0  0  0
   -1.8270   11.0940   -4.5830 C   0  0  0  0  0  0  0  0  0  0  0  0
    0.0310   10.5500   -7.6560 F   0  0  0  0  0  0  0  0  0  0  0  0
   -0.6980   13.6300   -0.0060 C   0  0  0  0  0  0  0  0  0  0  0  0
   -2.0870    9.7680   -7.0320 C   0  0  0  0  0  0  0  0  0  0  0  0
   -2.9800   10.3590   -4.8810 C   0  0  0  0  0  0  0  0  0  0  0  0
   -1.4320   14.8430    0.5480 C   0  0  0  0  0  0  0  0  0  0  0  0
   -3.1110    9.6940   -6.1010 C   0  0  0  0  0  0  0  0  0  0  0  0
   -2.9140   14.9170    0.1560 C   0  0  0  0  0  0  0  0  0  0  0  0
   -3.3720   15.2340   -1.1500 C   0  0  0  0  0  0  0  0  0  0  0  0
   -3.8670   14.6480    1.1510 C   0  0  0  0  0  0  0  0  0  0  0  0
   -5.2320   14.6830    0.8390 C   0  0  0  0  0  0  0  0  0  0  0  0
   -4.7420   15.2800   -1.4760 C   0  0  0  0  0  0  0  0  0  0  0  0
   -6.3090   14.4420    1.6490 N   0  0  0  0  0  0  0  0  0  0  0  0
   -5.6470   14.9920   -0.4510 C   0  0  0  0  0  0  0  0  0  0  0  0
   -7.0210   14.9250   -0.3840 N   0  0  0  0  0  0  0  0  0  0  0  0
   -7.3770   14.5870    0.9080 C   0  0  0  0  0  0  0  0  0  0  0  0
   -8.7860   14.4220    1.3590 C   0  0  0  0  0  0  0  0  0  0  0  0
   -8.7870   14.1910    2.8010 N   0  0  0  0  0  0  0  0  0  0  0  0
   -9.1910   15.1980    3.6520 C   0  0  0  0  0  0  0  0  0  0  0  0
   -9.5010   16.3050    3.2280 O   0  0  0  0  0  0  0  0  0  0  0  0
   -9.2600   14.8430    5.1430 C   0  0  0  0  0  0  0  0  0  0  0  0
   -9.5510   13.3620    5.3650 C   0  0  0  0  0  0  0  0  0  0  0  0
   -7.9910   15.2850    5.8630 C   0  0  0  0  0  0  0  0  0  0  0  0
  2  1  1  6
  2  3  1  0
  2  4  1  0
  4  5  2  3
  4  6  1  0
  3  7  1  0
  5  8  1  0
  7  9  2  0
  7 10  1  0
  9 11  1  0
  8 12  1  0
  9 13  1  0
 10 14  2  0
 12 15  1  0
 13 16  2  0
 14 16  1  0
 15 17  1  0
 17 18  2  0
 17 19  1  0
 19 20  2  0
 18 21  1  0
 20 22  1  0
 20 23  1  0
 21 23  2  0
 23 24  1  0
 22 25  2  0
 24 25  1  0
 25 26  1  0
 26 27  1  0
 27 28  1  0
 28 29  2  0
 28 30  1  0
 30 31  1  0
 30 32  1  0
M  END
