diamond-x0282_0_A-diamond-x0290_0_A
     RDKit          3D

 19 20  0  0  0  0  0  0  0  0999 V2000
   -7.2170   14.3750    1.4120 C   0  0  2  0  0  0  0  0  0  0  0  0
   -7.7240   15.2380    0.3850 O   0  0  0  0  0  0  0  0  0  0  0  0
   -5.8790   14.8250    2.0170 C   0  0  0  0  0  0  0  0  0  0  0  0
   -7.0650   13.0160    0.7670 C   0  0  0  0  0  0  0  0  0  0  0  0
   -4.8090   15.2100    0.9810 C   0  0  0  0  0  0  0  0  0  0  0  0
   -6.1870   12.1620    1.6560 C   0  0  0  0  0  0  0  0  0  0  0  0
   -6.4560   13.0700   -0.6420 C   0  0  0  0  0  0  0  0  0  0  0  0
   -5.0850   15.5960   -0.1550 O   0  0  0  0  0  0  0  0  0  0  0  0
   -3.5230   15.0590    1.5040 N   0  0  0  0  0  0  0  0  0  0  0  0
   -4.7920   12.7510    1.7290 C   0  0  0  0  0  0  0  0  0  0  0  0
   -5.0590   12.4540   -0.7080 C   0  0  0  0  0  0  0  0  0  0  0  0
   -4.1880   12.8700    0.3960 N   0  0  0  0  0  0  0  0  0  0  0  0
   -2.4860   14.4160    0.7280 N   0  0  0  0  0  0  0  0  0  0  0  0
   -1.1510   14.9160    1.1380 C   0  0  0  0  0  0  0  0  0  0  0  0
   -2.6990   14.6480   -0.7250 C   0  0  0  0  0  0  0  0  0  0  0  0
   -1.5620   14.4360   -1.6540 N   0  0  0  0  0  0  0  0  0  0  0  0
   -0.0580   14.9370    0.1050 C   0  0  0  0  0  0  0  0  0  0  0  0
   -1.8840   14.6550   -3.0570 C   0  0  0  0  0  0  0  0  0  0  0  0
   -0.2950   14.7050   -1.1800 C   0  0  0  0  0  0  0  0  0  0  0  0
  1  2  1  6
  1  3  1  0
  1  4  1  0
  3  5  1  0
  4  6  1  0
  4  7  1  0
  5  8  2  0
  5  9  1  0
  6 10  1  0
  7 11  1  0
 10 12  1  0
 11 12  1  0
  9 13  1  0
 13 14  1  0
 13 15  1  0
 15 16  1  0
 14 17  1  0
 16 18  1  0
 16 19  1  0
 17 19  2  0
M  END
