diamond-x0598_0_A-diamond-x0905_1_B
     RDKit          3D

 20 21  0  0  0  0  0  0  0  0999 V2000
   10.2380   25.4570   15.9760 N   0  0  0  0  0  0  0  0  0  0  0  0
    9.1850   25.0780   16.9290 C   0  0  0  0  0  0  0  0  0  0  0  0
    7.8340   25.7340   16.5960 C   0  0  0  0  0  0  0  0  0  0  0  0
   10.7570   24.5190   14.6670 S   0  0  2  0  0  0  0  0  0  0  0  0
    9.3980   24.7880   13.6520 C   0  0  0  0  0  0  0  0  0  0  0  0
   10.9800   23.2180   15.4160 N   0  0  0  0  0  0  0  0  0  0  0  0
   11.7110   25.1620   13.8680 O   0  0  0  0  0  0  0  0  0  0  0  0
   12.2870   22.6980   15.8580 C   0  0  0  0  0  0  0  0  0  0  0  0
    7.0170   24.6930   15.9310 C   0  0  0  0  0  0  0  0  0  0  0  0
    7.1050   26.3830   17.7950 C   0  0  0  0  0  0  0  0  0  0  0  0
    5.5080   24.7470   16.1410 C   0  0  0  0  0  0  0  0  0  0  0  0
    5.5890   26.5400   17.6110 C   0  0  0  0  0  0  0  0  0  0  0  0
   12.8540   21.7620   14.8270 C   0  0  0  0  0  0  0  0  0  0  0  0
    4.9220   25.3140   17.3200 N   0  0  0  0  0  0  0  0  0  0  0  0
   12.4070   20.4490   14.6310 C   0  0  0  0  0  0  0  0  0  0  0  0
   13.8780   22.2070   14.0090 C   0  0  0  0  0  0  0  0  0  0  0  0
   12.8970   19.6020   13.6850 N   0  0  0  0  0  0  0  0  0  0  0  0
   14.4020   21.3740   13.0390 C   0  0  0  0  0  0  0  0  0  0  0  0
   13.8790   20.1100   12.9200 C   0  0  0  0  0  0  0  0  0  0  0  0
   14.3830   19.2930   11.9600 O   0  0  0  0  0  0  0  0  0  0  0  0
  1  2  1  0
  2  3  1  0
  4  1  1  0
  4  5  1  6
  4  6  2  0
  4  7  2  0
  6  8  1  0
  3  9  1  0
  3 10  1  0
  9 11  1  0
 10 12  1  0
  8 13  1  0
 11 14  1  0
 12 14  1  0
 13 15  2  0
 13 16  1  0
 15 17  1  0
 16 18  2  0
 17 19  2  0
 18 19  1  0
 19 20  1  0
M  END
