diamond-x0969_0_A-mac-x1494
     RDKit          3D

 16 18  0  0  0  0  0  0  0  0999 V2000
   -6.7550   15.0050    2.6730 N   0  0  0  0  0  0  0  0  0  0  0  0
   -6.5040   14.2470    1.4970 C   0  0  1  0  0  0  0  0  0  0  0  0
   -7.6300   14.4610    0.6070 N   0  0  0  0  0  0  0  0  0  0  0  0
   -5.4460   14.8270    0.7720 N   0  0  0  0  0  0  0  0  0  0  0  0
   -7.0950   14.7500   -0.7420 N   0  0  0  0  0  0  0  0  0  0  0  0
   -5.6490   14.5780   -0.5900 C   0  0  1  0  0  0  0  0  0  0  0  0
   -4.1900   15.0980    1.2440 C   0  0  0  0  0  0  0  0  0  0  0  0
   -3.9740   15.6130    2.3220 O   0  0  0  0  0  0  0  0  0  0  0  0
   -4.8080   15.5060   -1.4540 C   0  0  1  0  0  0  0  0  0  0  0  0
   -3.0840   14.7020    0.2770 C   0  0  0  0  0  0  0  0  0  0  0  0
   -3.3020   15.4670   -1.0410 C   0  0  1  0  0  0  0  0  0  0  0  0
   -5.1250   15.1650   -2.8720 C   0  0  0  0  0  0  0  0  0  0  0  0
   -2.2990   15.1180   -2.1550 C   0  0  0  0  0  0  0  0  0  0  0  0
   -4.2530   14.6490   -3.7200 C   0  0  0  0  0  0  0  0  0  0  0  0
   -2.8420   14.3340   -3.3550 C   0  0  1  0  0  0  0  0  0  0  0  0
   -1.8150   14.6520   -4.7760 Cl  0  0  0  0  0  0  0  0  0  0  0  0
  2  1  1  1
  2  3  1  0
  2  4  1  0
  3  5  1  0
  4  6  1  0
  6  5  1  6
  4  7  1  0
  7  8  2  0
  6  9  1  0
  7 10  1  0
  9 11  1  0
 11 10  1  1
  9 12  1  6
 11 13  1  0
 12 14  2  0
 13 15  1  0
 14 15  1  0
 15 16  1  6
M  END
