diamond-x0423_0_B-diamond-x0905_0_B
     RDKit          3D

 14 15  0  0  0  0  0  0  0  0999 V2000
   14.1470   26.1080   15.4520 N   0  0  0  0  0  0  0  0  0  0  0  0
   12.9220   26.8890   15.4310 C   0  0  0  0  0  0  0  0  0  0  0  0
   14.3460   25.3180   14.2260 C   0  0  2  0  0  0  0  0  0  0  0  0
   13.4270   24.0560   14.1510 C   0  0  0  0  0  0  0  0  0  0  0  0
   15.8010   24.8590   14.0740 C   0  0  0  0  0  0  0  0  0  0  0  0
   14.1070   22.9690   13.4330 N   0  0  0  0  0  0  0  0  0  0  0  0
   16.0400   24.2350   12.7010 C   0  0  0  0  0  0  0  0  0  0  0  0
   14.8710   23.3570   12.2560 C   0  0  0  0  0  0  0  0  0  0  0  0
   13.4540   21.7360   13.3240 C   0  0  0  0  0  0  0  0  0  0  0  0
   12.3690   21.4260   14.1320 C   0  0  0  0  0  0  0  0  0  0  0  0
   13.8770   20.8260   12.4210 N   0  0  0  0  0  0  0  0  0  0  0  0
   13.2660   19.6050   12.2900 N   0  0  0  0  0  0  0  0  0  0  0  0
   11.7500   20.1940   14.0070 C   0  0  0  0  0  0  0  0  0  0  0  0
   12.2220   19.3140   13.0790 C   0  0  0  0  0  0  0  0  0  0  0  0
  1  2  1  0
  3  1  1  1
  3  4  1  0
  3  5  1  0
  4  6  1  0
  5  7  1  0
  6  8  1  0
  7  8  1  0
  6  9  1  0
  9 10  2  0
  9 11  1  0
 11 12  2  0
 10 13  1  0
 12 14  1  0
 13 14  2  0
M  END
