diamond-x0727_0_A-mac-x0392
     RDKit          3D

 24 25  0  0  0  0  0  0  0  0999 V2000
    0.1520   11.2740   -5.6240 N   0  0  0  0  0  0  0  0  0  0  0  0
    0.8570   12.2590   -4.8070 C   0  0  1  0  0  0  0  0  0  0  0  0
    0.3450   13.6440   -5.1720 C   0  0  0  0  0  0  0  0  0  0  0  0
    0.7100   11.0020   -6.8470 C   0  0  0  0  0  0  0  0  0  0  0  0
    1.6270   11.6640   -7.2590 O   0  0  0  0  0  0  0  0  0  0  0  0
    0.6680   11.8990   -3.3180 C   0  0  0  0  0  0  0  0  0  0  0  0
    0.1200    9.8220   -7.6040 C   0  0  0  0  0  0  0  0  0  0  0  0
    0.0460   10.9130   -2.9240 O   0  0  0  0  0  0  0  0  0  0  0  0
    1.2830   12.7820   -2.4800 O   0  0  0  0  0  0  0  0  0  0  0  0
   -1.1690   10.2010   -8.3390 C   0  0  0  0  0  0  0  0  0  0  0  0
   -0.2370    8.6370   -6.6840 C   0  0  0  0  0  0  0  0  0  0  0  0
    1.2970   14.1420   -2.9200 C   0  0  0  0  0  0  0  0  0  0  0  0
   -2.2140    9.1580   -7.9660 C   0  0  0  0  0  0  0  0  0  0  0  0
   -1.7520    8.5700   -6.6430 C   0  0  0  0  0  0  0  0  0  0  0  0
    0.3270   14.9240   -2.1990 O   0  0  0  0  0  0  0  0  0  0  0  0
   -0.9970   14.7000   -2.4370 C   0  0  0  0  0  0  0  0  0  0  0  0
   -1.5390   14.5270   -3.5140 O   0  0  0  0  0  0  0  0  0  0  0  0
   -1.7540   14.7140   -1.1640 C   0  0  0  0  0  0  0  0  0  0  0  0
   -1.2000   14.4090    0.0890 C   0  0  0  0  0  0  0  0  0  0  0  0
   -3.1120   15.0680   -1.2710 C   0  0  0  0  0  0  0  0  0  0  0  0
    0.1400   14.0440    0.2980 N   0  0  0  0  0  0  0  0  0  0  0  0
   -3.8690   15.1100   -0.1220 C   0  0  0  0  0  0  0  0  0  0  0  0
   -2.0740   14.4860    1.1640 C   0  0  0  0  0  0  0  0  0  0  0  0
   -3.3780   14.8270    1.0920 N   0  0  0  0  0  0  0  0  0  0  0  0
  1  2  1  0
  2  3  1  1
  1  4  1  0
  4  5  2  0
  2  6  1  0
  4  7  1  0
  6  8  2  0
  6  9  1  0
  7 10  1  0
  7 11  1  0
  9 12  1  0
 10 13  1  0
 11 14  1  0
 13 14  1  0
 12 15  1  0
 15 16  1  0
 16 17  2  0
 16 18  1  0
 18 19  2  0
 18 20  1  0
 19 21  1  0
 20 22  2  0
 19 23  1  0
 22 24  1  0
 23 24  2  0
M  END
