diamond-x0685_0_A-diamond-x0724_0_A
     RDKit          3D

 15 16  0  0  0  0  0  0  0  0999 V2000
   -5.3320   15.1190    3.0250 N   0  0  0  0  0  0  0  0  0  0  0  0
   -5.0310   15.2000    1.5950 C   0  0  2  0  0  0  0  0  0  0  0  0
   -6.0560   14.4130    0.6490 C   0  0  2  0  0  0  0  0  0  0  0  0
   -3.6110   14.7730    1.4150 C   0  0  0  0  0  0  0  0  0  0  0  0
   -3.1490   14.7140    0.1780 C   0  0  0  0  0  0  0  0  0  0  0  0
   -5.3730   14.1730   -0.7310 C   0  0  0  0  0  0  0  0  0  0  0  0
   -7.3800   15.0340    0.3230 N   0  0  0  0  0  0  0  0  0  0  0  0
   -6.5610   13.1730    1.3940 C   0  0  0  0  0  0  0  0  0  0  0  0
   -4.1230   15.0610   -0.9030 C   0  0  2  0  0  0  0  0  0  0  0  0
   -7.7700   13.6460    2.2260 C   0  0  2  0  0  0  0  0  0  0  0  0
   -8.3360   14.7950    1.4170 C   0  0  0  0  0  0  0  0  0  0  0  0
   -3.5420   14.9840   -2.2610 C   0  0  0  0  0  0  0  0  0  0  0  0
   -7.4710   14.0410    3.6820 C   0  0  0  0  0  0  0  0  0  0  0  0
   -3.0960   14.9720   -3.3320 N   0  0  0  0  0  0  0  0  0  0  0  0
   -8.6010   13.7670    4.6860 C   0  0  0  0  0  0  0  0  0  0  0  0
  2  1  1  1
  2  3  1  0
  2  4  1  0
  4  5  2  0
  3  6  1  6
  3  7  1  0
  3  8  1  0
  5  9  1  0
  6  9  1  0
  8 10  1  0
  7 11  1  0
 10 11  1  0
  9 12  1  6
 10 13  1  1
 12 14  3  0
 13 15  1  0
M  END
