diamond-x0253_0_A-mac-x0337
     RDKit          3D

 28 29  0  0  0  0  0  0  0  0999 V2000
    0.4760   11.9650   -5.3800 N   0  0  0  0  0  0  0  0  0  0  0  0
    1.1030   11.6720   -6.5590 C   0  0  0  0  0  0  0  0  0  0  0  0
    2.1930   12.1610   -6.7410 O   0  0  0  0  0  0  0  0  0  0  0  0
    1.3080   12.6840   -4.4180 C   0  0  0  0  0  0  0  0  0  0  0  0
    0.7470   12.5770   -3.0170 C   0  0  0  0  0  0  0  0  0  0  0  0
    0.4570   10.7390   -7.5380 C   0  0  0  0  0  0  0  0  0  0  0  0
    0.6730   13.5270   -2.1580 N   0  0  0  0  0  0  0  0  0  0  0  0
    0.2880   11.3420   -2.6860 O   0  0  0  0  0  0  0  0  0  0  0  0
   -0.5200    9.8290   -7.1300 C   0  0  0  0  0  0  0  0  0  0  0  0
    0.8360   10.7710   -8.8880 C   0  0  0  0  0  0  0  0  0  0  0  0
    0.1020   13.3820   -0.8340 C   0  0  0  0  0  0  0  0  0  0  0  0
   -1.1170    8.9570   -8.0500 C   0  0  0  0  0  0  0  0  0  0  0  0
    0.2490    9.9090   -9.8050 C   0  0  0  0  0  0  0  0  0  0  0  0
   -2.1630    7.9870   -7.5960 C   0  0  0  0  0  0  0  0  0  0  0  0
   -0.7680   14.5730   -0.4740 C   0  0  0  0  0  0  0  0  0  0  0  0
   -0.7230    9.0060   -9.3890 C   0  0  0  0  0  0  0  0  0  0  0  0
   -1.8110   14.2180    0.5790 C   0  0  0  0  0  0  0  0  0  0  0  0
   -3.0270   15.0120    0.4330 N   0  0  0  0  0  0  0  0  0  0  0  0
   -3.8050   14.9090   -0.8810 S   0  0  2  0  0  0  0  0  0  0  0  0
   -3.4560   15.5370   -2.1370 O   0  0  0  0  0  0  0  0  0  0  0  0
   -5.1250   15.8020   -0.4130 N   0  0  0  0  0  0  0  0  0  0  0  0
   -4.3640   13.2540   -1.2080 C   0  0  0  0  0  0  0  0  0  0  0  0
   -3.6140   12.4420   -2.0670 C   0  0  0  0  0  0  0  0  0  0  0  0
   -5.5420   12.7750   -0.6240 C   0  0  0  0  0  0  0  0  0  0  0  0
   -4.0480   11.1480   -2.3490 C   0  0  0  0  0  0  0  0  0  0  0  0
   -5.9700   11.4800   -0.9110 C   0  0  0  0  0  0  0  0  0  0  0  0
   -5.2300   10.6580   -1.7780 C   0  0  0  0  0  0  0  0  0  0  0  0
   -5.7070    9.2690   -2.0840 C   0  0  0  0  0  0  0  0  0  0  0  0
  1  2  1  0
  2  3  2  0
  1  4  1  0
  4  5  1  0
  2  6  1  0
  5  7  2  3
  5  8  1  0
  6  9  2  0
  6 10  1  0
  7 11  1  0
  9 12  1  0
 10 13  2  0
 12 14  1  0
 11 15  1  0
 12 16  2  0
 13 16  1  0
 15 17  1  0
 17 18  1  0
 18 19  2  0
 19 20  2  0
 19 21  1  1
 19 22  1  0
 22 23  2  0
 22 24  1  0
 23 25  1  0
 24 26  2  0
 25 27  2  0
 26 27  1  0
 27 28  1  0
M  END
