diamond-x0592_0_A-mac-x0584
     RDKit          3D

 29 33  0  0  0  0  0  0  0  0999 V2000
   -4.1700   12.8760   -1.2260 N   0  0  0  0  0  0  0  0  0  0  0  0
   -4.3050   14.2930   -1.1190 C   0  0  1  0  0  0  0  0  0  0  0  0
   -3.9730   14.8820   -2.3210 O   0  0  0  0  0  0  0  0  0  0  0  0
   -5.6660   14.5960   -0.7230 C   0  0  0  0  0  0  0  0  0  0  0  0
   -3.3820   14.6230   -0.1400 C   0  0  0  0  0  0  0  0  0  0  0  0
   -6.6080   15.2770   -1.5010 C   0  0  0  0  0  0  0  0  0  0  0  0
   -6.3060   14.2930    0.4470 C   0  0  0  0  0  0  0  0  0  0  0  0
   -2.0210   14.7680   -0.4010 C   0  0  0  0  0  0  0  0  0  0  0  0
   -3.5910   14.8220    1.1560 C   0  0  0  0  0  0  0  0  0  0  0  0
   -7.7710   15.3940   -0.8740 N   0  0  0  0  0  0  0  0  0  0  0  0
   -7.5530   14.7840    0.3080 N   0  0  0  0  0  0  0  0  0  0  0  0
   -1.5390   15.0040    0.9620 C   0  0  0  0  0  0  0  0  0  0  0  0
   -1.1480   14.7580   -1.4360 C   0  0  0  0  0  0  0  0  0  0  0  0
   -2.4560   15.0600    1.8680 N   0  0  0  0  0  0  0  0  0  0  0  0
   -8.6020   14.7030    1.2920 C   0  0  0  0  0  0  0  0  0  0  0  0
   -1.3440   14.5610   -2.8110 N   0  0  0  0  0  0  0  0  0  0  0  0
    0.1320   14.9800   -1.0830 N   0  0  0  0  0  0  0  0  0  0  0  0
   -0.2490   15.1710    1.2060 N   0  0  0  0  0  0  0  0  0  0  0  0
   -8.0460   14.1620    2.6060 C   0  0  0  0  0  0  0  0  0  0  0  0
   -0.1390   14.6080   -3.6820 C   0  0  1  0  0  0  0  0  0  0  0  0
   -2.5020   15.1030   -3.5830 C   0  0  0  0  0  0  0  0  0  0  0  0
    0.4870   15.1710    0.1790 C   0  0  0  0  0  0  0  0  0  0  0  0
   -7.2140   15.1210    3.2500 O   0  0  0  0  0  0  0  0  0  0  0  0
    0.1290   13.2040   -4.1940 C   0  0  0  0  0  0  0  0  0  0  0  0
   -0.5080   15.5540   -4.8220 C   0  0  0  0  0  0  0  0  0  0  0  0
   -1.9990   15.3430   -5.0010 C   0  0  0  0  0  0  0  0  0  0  0  0
    1.3380   12.4250   -3.6150 C   0  0  0  0  0  0  0  0  0  0  0  0
   -0.7880   12.1350   -3.5350 C   0  0  0  0  0  0  0  0  0  0  0  0
    0.4080   11.1960   -3.4910 C   0  0  0  0  0  0  0  0  0  0  0  0
  2  1  1  6
  2  3  1  0
  2  4  1  0
  2  5  1  0
  4  6  1  0
  4  7  2  0
  5  8  1  0
  5  9  2  0
  6 10  2  0
  7 11  1  0
 10 11  1  0
  8 12  1  0
  8 13  2  0
  9 14  1  0
 12 14  2  0
 11 15  1  0
 13 16  1  0
 13 17  1  0
 12 18  1  0
 15 19  1  0
 16 20  1  0
 16 21  1  0
 17 22  1  0
 18 22  2  0
 19 23  1  0
 20 24  1  6
 20 25  1  0
 21 26  1  0
 25 26  1  0
 24 27  1  0
 24 28  1  0
 27 29  1  0
 28 29  1  0
M  END
