diamond-x0592_0_A-mac-x0588
     RDKit          3D

 26 29  0  0  0  0  0  0  0  0999 V2000
   -3.4280   14.5740    0.6390 N   0  0  0  0  0  0  0  0  0  0  0  0
   -3.9790   13.8700   -0.3500 C   0  0  0  0  0  0  0  0  0  0  0  0
   -3.4020   13.1050   -1.1050 O   0  0  0  0  0  0  0  0  0  0  0  0
   -3.1200   15.8290    0.1100 C   0  0  2  0  0  0  0  0  0  0  0  0
   -5.3510   14.2250   -0.4040 C   0  0  0  0  0  0  0  0  0  0  0  0
   -3.7940   15.8640   -1.1740 N   0  0  0  0  0  0  0  0  0  0  0  0
   -1.6380   15.7330    0.0140 C   0  0  2  0  0  0  0  0  0  0  0  0
   -6.1720   14.7130   -1.4430 C   0  0  0  0  0  0  0  0  0  0  0  0
   -6.1700   14.1490    0.6810 C   0  0  0  0  0  0  0  0  0  0  0  0
   -2.9700   15.6480   -2.3550 C   0  0  0  0  0  0  0  0  0  0  0  0
   -1.3070   14.5960   -0.9080 C   0  0  1  0  0  0  0  0  0  0  0  0
   -1.0290   15.2640    1.2410 N   0  0  0  0  0  0  0  0  0  0  0  0
   -7.4240   14.9250   -1.0330 N   0  0  0  0  0  0  0  0  0  0  0  0
   -7.3810   14.5680    0.2680 N   0  0  0  0  0  0  0  0  0  0  0  0
   -1.8450   14.7040   -2.2530 N   0  0  0  0  0  0  0  0  0  0  0  0
    0.1080   14.5000   -0.7010 N   0  0  0  0  0  0  0  0  0  0  0  0
    0.2040   14.7200    0.7380 C   0  0  0  0  0  0  0  0  0  0  0  0
   -8.5440   14.6440    1.1140 C   0  0  0  0  0  0  0  0  0  0  0  0
   -0.9160   14.9110   -3.3860 C   0  0  0  0  0  0  0  0  0  0  0  0
   -8.1850   14.1960    2.5270 C   0  0  0  0  0  0  0  0  0  0  0  0
   -0.4620   16.3750   -3.6650 C   0  0  2  0  0  0  0  0  0  0  0  0
   -7.2620   15.0920    3.1510 O   0  0  0  0  0  0  0  0  0  0  0  0
   -1.5420   17.1520   -4.2880 O   0  0  0  0  0  0  0  0  0  0  0  0
    0.6970   16.4520   -4.6470 C   0  0  0  0  0  0  0  0  0  0  0  0
    0.5490   17.8170   -5.2530 C   0  0  0  0  0  0  0  0  0  0  0  0
   -0.9590   18.0080   -5.2860 C   0  0  0  0  0  0  0  0  0  0  0  0
  1  2  1  0
  2  3  2  0
  4  1  1  1
  2  5  1  0
  4  6  1  0
  4  7  1  0
  5  8  1  0
  5  9  2  0
  6 10  1  0
  7 11  1  0
  7 12  1  1
  8 13  2  0
  9 14  1  0
 13 14  1  0
 10 15  1  0
 11 15  1  0
 11 16  1  6
 12 17  1  0
 16 17  1  0
 14 18  1  0
 15 19  1  0
 18 20  1  0
 21 19  1  6
 20 22  1  0
 21 23  1  0
 21 24  1  0
 24 25  1  0
 23 26  1  0
 25 26  1  0
M  END
