diamond-x0849_0_A-mac-x0412
     RDKit          3D

 16 18  0  0  0  0  0  0  0  0999 V2000
   -3.2080   15.4210   -2.9060 Br  0  0  0  0  0  0  0  0  0  0  0  0
   -3.3750   14.8870   -1.0340 C   0  0  1  0  0  0  0  0  0  0  0  0
   -2.1670   15.2440   -0.1950 C   0  0  1  0  0  0  0  0  0  0  0  0
   -4.6460   15.3800   -0.3170 C   0  0  2  0  0  0  0  0  0  0  0  0
   -2.3500   14.4950    1.1250 C   0  0  2  0  0  0  0  0  0  0  0  0
   -4.6070   15.4040    1.2430 C   0  0  2  0  0  0  0  0  0  0  0  0
   -0.7750   15.1130   -0.8720 C   0  0  0  0  0  0  0  0  0  0  0  0
   -5.9430   14.8030   -0.8840 C   0  0  0  0  0  0  0  0  0  0  0  0
   -3.3310   15.1980    1.8690 N   0  0  0  0  0  0  0  0  0  0  0  0
   -1.1060   14.4050    1.7730 N   0  0  0  0  0  0  0  0  0  0  0  0
    0.1630   14.1990   -0.1420 C   0  0  0  0  0  0  0  0  0  0  0  0
   -7.1720   14.8380   -0.0100 C   0  0  0  0  0  0  0  0  0  0  0  0
   -5.7380   14.6620    1.9710 C   0  0  0  0  0  0  0  0  0  0  0  0
   -8.2950   14.9960   -0.4730 O   0  0  0  0  0  0  0  0  0  0  0  0
   -0.0700   13.9040    1.1280 C   0  0  0  0  0  0  0  0  0  0  0  0
   -7.0190   14.6860    1.3250 N   0  0  0  0  0  0  0  0  0  0  0  0
  2  1  1  6
  2  3  1  0
  2  4  1  0
  3  5  1  0
  4  6  1  0
  3  7  1  6
  4  8  1  1
  5  9  1  1
  6  9  1  0
  5 10  1  0
  7 11  1  0
  8 12  1  0
  6 13  1  1
 12 14  2  0
 10 15  1  0
 11 15  2  0
 12 16  1  0
 13 16  1  0
M  END
