diamond-x0950_0_A-mac-x0163
     RDKit          3D

 23 25  0  0  0  0  0  0  0  0999 V2000
    2.9670   12.8740   -3.8960 C   0  0  0  0  0  0  0  0  0  0  0  0
    1.4690   12.8780   -4.1290 C   0  0  1  0  0  0  0  0  0  0  0  0
    1.1830   12.0750   -5.3060 O   0  0  0  0  0  0  0  0  0  0  0  0
    0.6090   12.3130   -2.9490 C   0  0  0  0  0  0  0  0  0  0  0  0
    0.6730   10.8840   -2.9680 O   0  0  0  0  0  0  0  0  0  0  0  0
    1.2830   12.7380   -1.7760 O   0  0  0  0  0  0  0  0  0  0  0  0
   -0.9180   12.7370   -2.9480 C   0  0  2  0  0  0  0  0  0  0  0  0
   -1.4330   12.6660   -4.4480 C   0  0  0  0  0  0  0  0  0  0  0  0
   -1.1830   14.1420   -2.4730 N   0  0  0  0  0  0  0  0  0  0  0  0
   -1.3930   14.3880   -1.0750 C   0  0  0  0  0  0  0  0  0  0  0  0
   -1.1670   11.4250   -5.3770 C   0  0  0  0  0  0  0  0  0  0  0  0
   -2.9570   12.3460   -4.5790 C   0  0  0  0  0  0  0  0  0  0  0  0
   -2.2140   14.8230   -3.2970 C   0  0  0  0  0  0  0  0  0  0  0  0
   -1.0360   13.9300   -5.2710 C   0  0  0  0  0  0  0  0  0  0  0  0
   -2.6380   14.7550   -0.5320 C   0  0  0  0  0  0  0  0  0  0  0  0
   -0.3070   14.2480   -0.2820 N   0  0  0  0  0  0  0  0  0  0  0  0
   -1.6290   15.1810   -4.6510 C   0  0  0  0  0  0  0  0  0  0  0  0
   -2.6060   10.9480   -5.1140 C   0  0  0  0  0  0  0  0  0  0  0  0
   -4.0700   14.9610   -1.4800 Cl  0  0  0  0  0  0  0  0  0  0  0  0
   -2.6840   14.9600    0.8460 C   0  0  0  0  0  0  0  0  0  0  0  0
   -0.4750   14.4700    1.0310 C   0  0  0  0  0  0  0  0  0  0  0  0
   -3.8600   15.3340    1.5040 N   0  0  0  0  0  0  0  0  0  0  0  0
   -1.6090   14.8180    1.6370 N   0  0  0  0  0  0  0  0  0  0  0  0
  2  1  1  1
  2  3  1  0
  2  4  1  0
  4  5  1  0
  4  6  1  0
  7  4  1  6
  7  8  1  0
  7  9  1  0
  9 10  1  0
  8 11  1  0
  8 12  1  0
  9 13  1  0
  8 14  1  0
 10 15  2  0
 10 16  1  0
 13 17  1  0
 14 17  1  0
 11 18  1  0
 12 18  1  0
 15 19  1  0
 15 20  1  0
 16 21  2  0
 20 22  1  0
 20 23  2  0
 21 23  1  0
M  END
