diamond-x0142_0_A-diamond-x0918_3_A
     RDKit          3D

 18 19  0  0  0  0  0  0  0  0999 V2000
   14.6160    7.0410   11.9590 N   0  0  0  0  0  0  0  0  0  0  0  0
   14.8340    6.5980   10.6560 C   0  0  0  0  0  0  0  0  0  0  0  0
   15.0030    5.2150   10.6880 N   0  0  0  0  0  0  0  0  0  0  0  0
   14.8860    8.3130   12.5040 C   0  0  0  0  0  0  0  0  0  0  0  0
   14.8720    7.3100    9.6470 O   0  0  0  0  0  0  0  0  0  0  0  0
   14.5310    8.5120   13.8470 C   0  0  0  0  0  0  0  0  0  0  0  0
   15.4710    9.3680   11.8040 C   0  0  0  0  0  0  0  0  0  0  0  0
   14.7590    9.7400   14.4790 C   0  0  0  0  0  0  0  0  0  0  0  0
   15.6980   10.5970   12.4370 C   0  0  0  0  0  0  0  0  0  0  0  0
   15.0520    4.3140    9.6040 C   0  0  0  0  0  0  0  0  0  0  0  0
   15.3440   10.7890   13.7770 C   0  0  0  0  0  0  0  0  0  0  0  0
   15.6660    4.5960    8.3930 C   0  0  0  0  0  0  0  0  0  0  0  0
   14.4470    3.0690    9.7670 C   0  0  0  0  0  0  0  0  0  0  0  0
   15.6190   12.0310   14.2770 O   0  0  0  0  0  0  0  0  0  0  0  0
   15.6480    3.6270    7.4000 C   0  0  0  0  0  0  0  0  0  0  0  0
   14.4810    2.1660    8.7140 C   0  0  0  0  0  0  0  0  0  0  0  0
   15.3510   12.2460   15.6580 C   0  0  0  0  0  0  0  0  0  0  0  0
   15.0680    2.4190    7.5310 N   0  0  0  0  0  0  0  0  0  0  0  0
  1  2  1  0
  2  3  1  0
  1  4  1  0
  2  5  2  0
  4  6  2  0
  4  7  1  0
  6  8  1  0
  7  9  2  0
  3 10  1  0
  8 11  2  0
  9 11  1  0
 10 12  2  0
 10 13  1  0
 11 14  1  0
 12 15  1  0
 13 16  2  0
 14 17  1  0
 15 18  2  0
 16 18  1  0
M  END
