diamond-x0895_0_A-mac-x0142
     RDKit          3D

 19 22  0  0  0  0  0  0  0  0999 V2000
   -2.2050   13.9120    1.8990 O   0  0  0  0  0  0  0  0  0  0  0  0
   -2.3310   14.9730    0.9790 C   0  0  2  0  0  0  0  0  0  0  0  0
   -3.6520   15.6950    1.3080 C   0  0  0  0  0  0  0  0  0  0  0  0
   -2.4270   14.5700   -0.4000 N   0  0  0  0  0  0  0  0  0  0  0  0
   -1.1650   15.6850    1.1620 N   0  0  0  0  0  0  0  0  0  0  0  0
   -4.5030   15.1340    0.3020 N   0  0  0  0  0  0  0  0  0  0  0  0
   -3.7080   14.9560   -0.8270 C   0  0  0  0  0  0  0  0  0  0  0  0
   -0.0240   14.9440    0.7640 C   0  0  0  0  0  0  0  0  0  0  0  0
   -1.2420   14.2550   -1.2450 C   0  0  1  0  0  0  0  0  0  0  0  0
   -4.1330   15.1240   -1.9520 O   0  0  0  0  0  0  0  0  0  0  0  0
   -1.2090   14.7920   -2.6430 N   0  0  0  0  0  0  0  0  0  0  0  0
   -0.0110   14.7960   -0.6610 N   0  0  0  0  0  0  0  0  0  0  0  0
   -2.1830   14.2070   -3.5980 C   0  0  0  0  0  0  0  0  0  0  0  0
    0.1420   14.9720   -3.2610 C   0  0  0  0  0  0  0  0  0  0  0  0
    0.6640   13.7410   -4.0070 C   0  0  0  0  0  0  0  0  0  0  0  0
   -1.6420   12.9860   -4.3700 C   0  0  0  0  0  0  0  0  0  0  0  0
    2.1460   13.6250   -4.3100 C   0  0  0  0  0  0  0  0  0  0  0  0
    1.5410   12.7550   -3.2490 C   0  0  0  0  0  0  0  0  0  0  0  0
   -0.2890   13.2090   -5.0350 C   0  0  0  0  0  0  0  0  0  0  0  0
  2  1  1  1
  2  3  1  0
  2  4  1  0
  2  5  1  0
  3  6  1  0
  4  7  1  0
  6  7  1  0
  5  8  1  0
  4  9  1  0
  7 10  2  0
  9 11  1  6
  8 12  1  0
  9 12  1  0
 11 13  1  0
 11 14  1  0
 15 14  1  0
 13 16  1  0
 15 17  1  0
 15 18  1  0
 17 18  1  0
 15 19  1  0
 16 19  1  0
M  END
