diamond-x0662_0_A-mac-x0402
     RDKit          3D

 31 34  0  0  0  0  0  0  0  0999 V2000
    5.2840    9.5460  -14.9650 C   0  0  0  0  0  0  0  0  0  0  0  0
    4.2360   10.0020  -14.0810 N   0  0  0  0  0  0  0  0  0  0  0  0
    3.5670   11.1920  -14.1460 C   0  0  0  0  0  0  0  0  0  0  0  0
    3.8350    9.2140  -13.0680 N   0  0  0  0  0  0  0  0  0  0  0  0
    2.6710   11.1780  -13.0990 C   0  0  0  0  0  0  0  0  0  0  0  0
    2.8660    9.9250  -12.4420 C   0  0  0  0  0  0  0  0  0  0  0  0
    2.1670    9.3920  -11.2370 C   0  0  0  0  0  0  0  0  0  0  0  0
    2.2580    8.2040  -10.9660 O   0  0  0  0  0  0  0  0  0  0  0  0
    1.4710   10.3580  -10.5120 N   0  0  0  0  0  0  0  0  0  0  0  0
    0.6760   10.2120   -9.3410 C   0  0  0  0  0  0  0  0  0  0  0  0
   -0.3440    9.2500   -9.3770 C   0  0  0  0  0  0  0  0  0  0  0  0
    0.8310   10.9570   -8.1590 C   0  0  0  0  0  0  0  0  0  0  0  0
   -1.1790    9.0470   -8.2710 C   0  0  0  0  0  0  0  0  0  0  0  0
    0.0030   10.7710   -7.0440 C   0  0  0  0  0  0  0  0  0  0  0  0
    0.2290   11.6170   -5.7950 C   0  0  0  0  0  0  0  0  0  0  0  0
   -1.0100    9.8040   -7.1050 C   0  0  0  0  0  0  0  0  0  0  0  0
   -0.6430   11.9640   -4.8960 N   0  0  0  0  0  0  0  0  0  0  0  0
    1.4330   11.9070   -5.7870 O   0  0  0  0  0  0  0  0  0  0  0  0
   -0.1470   12.7290   -3.7230 C   0  0  0  0  0  0  0  0  0  0  0  0
   -0.5960   14.2140   -3.6180 C   0  0  0  0  0  0  0  0  0  0  0  0
   -2.1000   14.5350   -3.7680 C   0  0  0  0  0  0  0  0  0  0  0  0
   -3.0740   14.6790   -2.5860 C   0  0  0  0  0  0  0  0  0  0  0  0
   -4.4150   14.7840   -2.9640 C   0  0  0  0  0  0  0  0  0  0  0  0
   -2.7650   14.7100   -1.2040 C   0  0  0  0  0  0  0  0  0  0  0  0
   -3.8340   14.8350   -0.2790 C   0  0  0  0  0  0  0  0  0  0  0  0
   -5.4490   14.9070   -2.0470 C   0  0  0  0  0  0  0  0  0  0  0  0
   -5.1620   14.9250   -0.6870 C   0  0  0  0  0  0  0  0  0  0  0  0
   -3.8170   14.9030    1.4340 S   0  0  0  0  0  0  0  0  0  0  0  0
   -5.5420   15.0170    1.4600 C   0  0  0  0  0  0  0  0  0  0  0  0
   -6.1130   15.0230    0.2980 N   0  0  0  0  0  0  0  0  0  0  0  0
   -6.2920   15.1010    2.5820 N   0  0  0  0  0  0  0  0  0  0  0  0
  1  2  1  0
  2  3  1  0
  2  4  1  0
  3  5  2  0
  4  6  2  0
  5  6  1  0
  6  7  1  0
  7  8  2  0
  7  9  1  0
  9 10  1  0
 10 11  2  0
 10 12  1  0
 11 13  1  0
 12 14  2  0
 14 15  1  0
 13 16  2  0
 14 16  1  0
 15 17  2  3
 15 18  1  0
 17 19  1  0
 19 20  1  0
 20 21  1  0
 21 22  1  0
 22 23  2  0
 22 24  1  0
 24 25  2  0
 23 26  1  0
 25 27  1  0
 26 27  2  0
 25 28  1  0
 28 29  1  0
 27 30  1  0
 29 30  2  0
 29 31  1  0
M  CHG  1  18  -1
M  END
