diamond-x1018_0_A-diamond-x0722_0_A
     RDKit          3D

 22 24  0  0  0  0  0  0  0  0999 V2000
   -8.9030   13.5890   -0.1850 Cl  0  0  0  0  0  0  0  0  0  0  0  0
   -7.2580   13.3030   -0.6370 C   0  0  0  0  0  0  0  0  0  0  0  0
   -6.3040   12.8690    0.4080 C   0  0  0  0  0  0  0  0  0  0  0  0
   -6.9520   13.5060   -1.8960 N   0  0  0  0  0  0  0  0  0  0  0  0
   -5.6290   13.2850   -2.2670 N   0  0  0  0  0  0  0  0  0  0  0  0
   -5.1370   12.4160   -0.0380 C   0  0  0  0  0  0  0  0  0  0  0  0
   -4.8260   14.4110   -2.1280 N   0  0  0  0  0  0  0  0  0  0  0  0
   -4.8290   12.3180   -1.5040 C   0  0  2  0  0  0  0  0  0  0  0  0
   -4.7660   14.5130   -0.6570 C   0  0  2  0  0  0  0  0  0  0  0  0
   -3.4340   12.6570   -1.8520 N   0  0  0  0  0  0  0  0  0  0  0  0
   -3.5770   13.9060   -2.5950 N   0  0  0  0  0  0  0  0  0  0  0  0
   -6.0240   15.2180   -0.1660 C   0  0  0  0  0  0  0  0  0  0  0  0
   -3.4550   14.6870    0.0670 C   0  0  0  0  0  0  0  0  0  0  0  0
   -6.6720   15.9810   -0.8800 O   0  0  0  0  0  0  0  0  0  0  0  0
   -6.4440   14.9090    1.1050 N   0  0  0  0  0  0  0  0  0  0  0  0
   -3.3340   14.9070    1.4710 C   0  0  0  0  0  0  0  0  0  0  0  0
   -2.1240   14.6590   -0.3810 C   0  0  0  0  0  0  0  0  0  0  0  0
   -4.3650   15.0320    2.5280 C   0  0  0  0  0  0  0  0  0  0  0  0
   -1.4680   14.4710   -1.7040 C   0  0  0  0  0  0  0  0  0  0  0  0
   -2.0770   14.9970    1.8320 N   0  0  0  0  0  0  0  0  0  0  0  0
   -1.3740   14.8490    0.7360 N   0  0  0  0  0  0  0  0  0  0  0  0
    0.0480   14.9000    0.8450 C   0  0  0  0  0  0  0  0  0  0  0  0
  1  2  1  0
  2  3  1  0
  2  4  2  0
  4  5  1  0
  3  6  2  0
  5  7  1  0
  5  8  1  0
  8  6  1  1
  7  9  1  0
  8 10  1  0
  7 11  1  0
 10 11  1  0
  9 12  1  6
  9 13  1  0
 12 14  2  0
 12 15  1  0
 13 16  1  0
 13 17  2  0
 16 18  1  0
 17 19  1  0
 16 20  2  0
 17 21  1  0
 20 21  1  0
 21 22  1  0
M  END
