diamond-x0933_0_A-mac-x0163
     RDKit          3D

 23 26  0  0  0  0  0  0  0  0999 V2000
   -5.3960   12.9360    1.5530 N   0  0  0  0  0  0  0  0  0  0  0  0
   -5.1390   14.2460    1.0500 C   0  0  1  0  0  0  0  0  0  0  0  0
   -3.8660   14.9320    1.3450 N   0  0  0  0  0  0  0  0  0  0  0  0
   -5.5910   14.0750   -0.3250 N   0  0  0  0  0  0  0  0  0  0  0  0
   -5.3170   15.2280   -1.1580 C   0  0  0  0  0  0  0  0  0  0  0  0
   -3.9460   16.1290    0.6070 C   0  0  0  0  0  0  0  0  0  0  0  0
   -2.5960   14.6090    0.8380 C   0  0  0  0  0  0  0  0  0  0  0  0
   -3.9180   15.6870   -0.8420 C   0  0  0  0  0  0  0  0  0  0  0  0
   -2.3770   14.4980   -0.5490 C   0  0  0  0  0  0  0  0  0  0  0  0
   -1.5930   14.4500    1.7200 N   0  0  0  0  0  0  0  0  0  0  0  0
   -3.6450   14.6830   -1.7210 Cl  0  0  0  0  0  0  0  0  0  0  0  0
   -1.0810   14.2410   -0.9680 C   0  0  0  0  0  0  0  0  0  0  0  0
   -0.3890   14.2060    1.2120 C   0  0  0  0  0  0  0  0  0  0  0  0
   -0.0770   14.0960   -0.0860 N   0  0  0  0  0  0  0  0  0  0  0  0
   -0.7440   14.1220   -2.3340 N   0  0  0  0  0  0  0  0  0  0  0  0
    0.5870   14.5890   -2.6560 C   0  0  0  0  0  0  0  0  0  0  0  0
   -1.7500   14.6010   -3.3040 C   0  0  0  0  0  0  0  0  0  0  0  0
    0.9660   13.7470   -3.8580 C   0  0  0  0  0  0  0  0  0  0  0  0
   -1.1030   14.9280   -4.6590 C   0  0  0  0  0  0  0  0  0  0  0  0
    2.4350   13.8380   -4.2990 C   0  0  0  0  0  0  0  0  0  0  0  0
    1.3260   12.3040   -3.4200 C   0  0  0  0  0  0  0  0  0  0  0  0
   -0.0250   13.9060   -5.0310 C   0  0  0  0  0  0  0  0  0  0  0  0
    2.7550   12.8320   -3.1840 C   0  0  0  0  0  0  0  0  0  0  0  0
  2  1  1  6
  2  3  1  0
  2  4  1  0
  4  5  1  0
  3  6  1  0
  3  7  1  0
  5  8  1  0
  6  8  1  0
  7  9  2  0
  7 10  1  0
  9 11  1  0
  9 12  1  0
 10 13  2  0
 12 14  2  0
 13 14  1  0
 12 15  1  0
 15 16  1  0
 15 17  1  0
 18 16  1  0
 17 19  1  0
 18 20  1  0
 18 21  1  0
 18 22  1  0
 19 22  1  0
 20 23  1  0
 21 23  1  0
M  END
