diamond-x0685_1_A-diamond-x0742_0_A
     RDKit          3D

 29 32  0  0  0  0  0  0  0  0999 V2000
   -1.1440   10.7070   -4.7710 N   0  0  0  0  0  0  0  0  0  0  0  0
   -1.3880   12.1140   -4.4050 C   0  0  0  0  0  0  0  0  0  0  0  0
   -0.2110   12.9640   -3.9040 C   0  0  0  0  0  0  0  0  0  0  0  0
   -0.6450   10.4050   -6.1280 C   0  0  0  0  0  0  0  0  0  0  0  0
   -0.5610    8.8930   -6.4130 C   0  0  0  0  0  0  0  0  0  0  0  0
   -1.5560   11.0270   -7.2040 C   0  0  0  0  0  0  0  0  0  0  0  0
    0.7990   12.2690   -2.5780 S   0  0  0  0  0  0  0  0  0  0  0  0
    0.0520    8.6240   -7.7850 C   0  0  0  0  0  0  0  0  0  0  0  0
   -1.0630   10.7460   -8.6300 C   0  0  0  0  0  0  0  0  0  0  0  0
    2.2740   12.1600   -3.1990 O   0  0  0  0  0  0  0  0  0  0  0  0
    0.2330   10.7790   -2.2820 O   0  0  0  0  0  0  0  0  0  0  0  0
    0.8150   13.2450   -1.2540 O   0  0  0  0  0  0  0  0  0  0  0  0
   -0.8080    9.2530   -8.8760 C   0  0  0  0  0  0  0  0  0  0  0  0
   -0.2900   13.6670   -0.5520 C   0  0  0  0  0  0  0  0  0  0  0  0
   -0.3030   14.0560    0.8020 C   0  0  0  0  0  0  0  0  0  0  0  0
   -1.4800   13.7070   -1.2290 C   0  0  0  0  0  0  0  0  0  0  0  0
   -1.3940   14.4690    1.4770 N   0  0  0  0  0  0  0  0  0  0  0  0
   -2.6280   14.1190   -0.5720 C   0  0  0  0  0  0  0  0  0  0  0  0
   -3.9630   14.1730   -1.2620 C   0  0  1  0  0  0  0  0  0  0  0  0
   -2.5290   14.4870    0.7550 C   0  0  0  0  0  0  0  0  0  0  0  0
   -5.1460   13.6970   -0.3820 C   0  0  1  0  0  0  0  0  0  0  0  0
   -4.3520   15.5850   -1.6910 C   0  0  0  0  0  0  0  0  0  0  0  0
   -3.7730   14.9270    1.4140 C   0  0  0  0  0  0  0  0  0  0  0  0
   -5.5390   12.2380   -0.6300 C   0  0  0  0  0  0  0  0  0  0  0  0
   -4.8610   13.8930    1.1200 C   0  0  0  0  0  0  0  0  0  0  0  0
   -6.3700   14.5550   -0.7590 C   0  0  0  0  0  0  0  0  0  0  0  0
   -5.8670   15.7110   -1.5950 C   0  0  0  0  0  0  0  0  0  0  0  0
   -5.0580   11.5760   -1.5530 O   0  0  0  0  0  0  0  0  0  0  0  0
   -6.5570   11.6150    0.2930 C   0  0  0  0  0  0  0  0  0  0  0  0
  1  2  1  0
  2  3  1  0
  1  4  1  0
  4  5  1  0
  4  6  1  0
  3  7  1  0
  5  8  1  0
  6  9  1  0
  7 10  1  0
  7 11  1  0
  7 12  1  0
  8 13  1  0
  9 13  1  0
 12 14  1  0
 14 15  2  0
 14 16  1  0
 15 17  1  0
 16 18  2  0
 18 19  1  0
 17 20  2  0
 18 20  1  0
 19 21  1  0
 19 22  1  1
 20 23  1  0
 21 24  1  1
 21 25  1  0
 23 25  1  0
 21 26  1  0
 22 27  1  0
 26 27  1  0
 24 28  2  0
 24 29  1  0
M  END
