diamond-x0591_0_A-mac-x0415
     RDKit          3D

 27 29  0  0  0  0  0  0  0  0999 V2000
   -5.9340   14.6300    0.9310 N   0  0  0  0  0  0  0  0  0  0  0  0
   -6.7650   14.5170    2.1010 C   0  0  0  0  0  0  0  0  0  0  0  0
   -6.5370   14.9200   -0.2670 C   0  0  0  0  0  0  0  0  0  0  0  0
   -7.7110   15.2530   -0.3540 O   0  0  0  0  0  0  0  0  0  0  0  0
   -5.7310   14.8000   -1.5000 C   0  0  0  0  0  0  0  0  0  0  0  0
   -4.3270   14.7320   -1.4460 C   0  0  0  0  0  0  0  0  0  0  0  0
   -6.3900   14.7510   -2.7240 C   0  0  0  0  0  0  0  0  0  0  0  0
   -3.6010   14.6090   -2.6360 C   0  0  0  0  0  0  0  0  0  0  0  0
   -5.6770   14.6270   -3.9000 C   0  0  0  0  0  0  0  0  0  0  0  0
   -4.2980   14.5560   -3.8530 C   0  0  0  0  0  0  0  0  0  0  0  0
   -3.4420   14.3930   -5.3650 S   0  0  1  0  0  0  0  0  0  0  0  0
   -1.9190   13.8920   -4.9240 N   0  0  0  0  0  0  0  0  0  0  0  0
   -3.8780   13.2410   -6.1130 O   0  0  0  0  0  0  0  0  0  0  0  0
   -3.0780   15.7640   -5.9130 N   0  0  0  0  0  0  0  0  0  0  0  0
   -1.7740   15.9810   -5.3450 C   0  0  0  0  0  0  0  0  0  0  0  0
   -1.2820   17.2310   -4.7810 C   0  0  0  0  0  0  0  0  0  0  0  0
   -1.0280   14.8570   -5.3600 C   0  0  0  0  0  0  0  0  0  0  0  0
    0.2390   14.9110   -4.7770 C   0  0  0  0  0  0  0  0  0  0  0  0
    0.0260   17.3560   -4.4520 C   0  0  0  0  0  0  0  0  0  0  0  0
    0.9010   13.8930   -4.2560 C   0  0  0  0  0  0  0  0  0  0  0  0
    0.9420   16.1980   -4.7140 C   0  0  1  0  0  0  0  0  0  0  0  0
    0.6190   12.4480   -4.1600 C   0  0  0  0  0  0  0  0  0  0  0  0
    2.0270   14.5990   -3.6750 C   0  0  0  0  0  0  0  0  0  0  0  0
    2.0480   15.8780   -3.8210 N   0  0  0  0  0  0  0  0  0  0  0  0
    0.5870   12.0130   -2.7210 C   0  0  0  0  0  0  0  0  0  0  0  0
   -0.0460   10.8440   -2.5000 O   0  0  0  0  0  0  0  0  0  0  0  0
    1.0930   12.6620   -1.8180 O   0  0  0  0  0  0  0  0  0  0  0  0
  1  2  1  0
  1  3  1  0
  3  4  2  0
  3  5  1  0
  5  6  2  0
  5  7  1  0
  6  8  1  0
  7  9  2  0
  8 10  2  0
  9 10  1  0
 10 11  1  0
 11 12  1  1
 11 13  2  0
 11 14  2  0
 14 15  1  0
 15 16  1  0
 15 17  2  0
 17 18  1  0
 16 19  2  0
 18 20  2  0
 18 21  1  0
 21 19  1  1
 20 22  1  0
 20 23  1  0
 21 24  1  0
 23 24  2  0
 22 25  1  0
 25 26  1  0
 25 27  2  0
M  END
