diamond-x0864_0_A-diamond-x0805_0_A
     RDKit          3D

 26 28  0  0  0  0  0  0  0  0999 V2000
    1.1920   11.8210   -6.6450 O   0  0  0  0  0  0  0  0  0  0  0  0
    0.2380   11.1260   -6.3020 C   0  0  0  0  0  0  0  0  0  0  0  0
   -0.5800   11.3540   -5.1950 N   0  0  0  0  0  0  0  0  0  0  0  0
   -0.1510    9.9230   -7.0590 C   0  0  0  0  0  0  0  0  0  0  0  0
   -0.1270   10.9360   -3.8450 C   0  0  0  0  0  0  0  0  0  0  0  0
   -1.9270   11.2440   -5.3980 C   0  0  0  0  0  0  0  0  0  0  0  0
   -1.4370    9.5580   -7.0220 C   0  0  0  0  0  0  0  0  0  0  0  0
    0.6000   12.0860   -3.1450 C   0  0  0  0  0  0  0  0  0  0  0  0
   -2.0740    8.0500   -7.9060 Br  0  0  0  0  0  0  0  0  0  0  0  0
   -2.3810   10.3610   -6.2800 C   0  0  0  0  0  0  0  0  0  0  0  0
    1.9750   11.8670   -3.1060 O   0  0  0  0  0  0  0  0  0  0  0  0
    0.1950   12.4380   -1.8150 O   0  0  0  0  0  0  0  0  0  0  0  0
    0.3500   13.2360   -4.1050 C   0  0  2  0  0  0  0  0  0  0  0  0
    1.6340   13.5400   -4.8890 C   0  0  0  0  0  0  0  0  0  0  0  0
   -0.2070   14.4940   -3.4260 C   0  0  2  0  0  0  0  0  0  0  0  0
   -1.6340   14.4460   -2.9140 C   0  0  0  0  0  0  0  0  0  0  0  0
    2.2750   14.6390   -4.2600 O   0  0  0  0  0  0  0  0  0  0  0  0
    0.0640   15.7100   -4.2720 C   0  0  0  0  0  0  0  0  0  0  0  0
   -2.7380   14.0800   -3.6970 C   0  0  0  0  0  0  0  0  0  0  0  0
   -1.8440   14.7950   -1.5890 C   0  0  0  0  0  0  0  0  0  0  0  0
    1.5430   15.8480   -4.4800 C   0  0  0  0  0  0  0  0  0  0  0  0
   -3.0960   14.8020   -1.0190 C   0  0  0  0  0  0  0  0  0  0  0  0
   -4.0240   14.0770   -3.1310 C   0  0  0  0  0  0  0  0  0  0  0  0
   -3.3160   15.1530    0.2800 O   0  0  0  0  0  0  0  0  0  0  0  0
   -4.1980   14.4380   -1.7900 C   0  0  0  0  0  0  0  0  0  0  0  0
   -4.6550   15.2550    0.7340 C   0  0  0  0  0  0  0  0  0  0  0  0
  1  2  2  0
  2  3  1  0
  2  4  1  0
  3  5  1  0
  3  6  1  0
  4  7  2  0
  5  8  1  0
  7  9  1  0
  6 10  2  0
  7 10  1  0
  8 11  1  0
  8 12  1  0
 13  8  1  1
 13 14  1  0
 13 15  1  0
 15 16  1  6
 14 17  1  0
 15 18  1  0
 16 19  2  0
 16 20  1  0
 17 21  1  0
 18 21  1  0
 20 22  2  0
 19 23  1  0
 22 24  1  0
 22 25  1  0
 23 25  2  0
 24 26  1  0
M  END
