diamond-x0837_0_A-mac-x0412
     RDKit          3D

 12 13  0  0  0  0  0  0  0  0999 V2000
   -8.0060   14.8970    0.1110 O   0  0  0  0  0  0  0  0  0  0  0  0
   -6.8140   14.7960    0.3100 C   0  0  0  0  0  0  0  0  0  0  0  0
   -6.1800   14.5630    1.5170 N   0  0  0  0  0  0  0  0  0  0  0  0
   -5.8120   14.9030   -0.7380 C   0  0  0  0  0  0  0  0  0  0  0  0
   -4.9150   14.5030    1.2780 C   0  0  0  0  0  0  0  0  0  0  0  0
   -5.9130   15.1390   -2.0860 C   0  0  0  0  0  0  0  0  0  0  0  0
   -4.6090   14.7070   -0.1130 C   0  0  0  0  0  0  0  0  0  0  0  0
   -3.4420   14.7280   -0.8060 C   0  0  0  0  0  0  0  0  0  0  0  0
   -4.7250   15.1660   -2.8070 C   0  0  0  0  0  0  0  0  0  0  0  0
   -2.1380   14.5080   -0.2000 C   0  0  0  0  0  0  0  0  0  0  0  0
   -3.5080   14.9660   -2.1750 C   0  0  0  0  0  0  0  0  0  0  0  0
   -0.8910   14.1500   -1.8720 I   0  0  0  0  0  0  0  0  0  0  0  0
  1  2  2  0
  2  3  1  0
  2  4  1  0
  3  5  2  0
  4  6  1  0
  4  7  2  0
  5  7  1  0
  7  8  1  0
  6  9  2  0
  8 10  1  0
  8 11  2  0
  9 11  1  0
 10 12  1  0
M  END
