diamond-x0722_0_A-mac-x0546
     RDKit          3D

 29 31  0  0  0  0  0  0  0  0999 V2000
   -4.4090   15.9070    2.2820 C   0  0  0  0  0  0  0  0  0  0  0  0
   -3.4410   15.3660    1.3520 C   0  0  0  0  0  0  0  0  0  0  0  0
   -2.2850   15.0140    1.8540 N   0  0  0  0  0  0  0  0  0  0  0  0
   -3.5320   15.1610   -0.0430 C   0  0  0  0  0  0  0  0  0  0  0  0
   -4.6980   15.4430   -0.9420 C   0  0  0  0  0  0  0  0  0  0  0  0
   -2.2740   14.6500   -0.3480 C   0  0  0  0  0  0  0  0  0  0  0  0
   -1.5870   14.5960    0.8420 N   0  0  0  0  0  0  0  0  0  0  0  0
   -0.2440   14.1600    1.1220 C   0  0  0  0  0  0  0  0  0  0  0  0
   -1.6540   14.2120   -1.6150 C   0  0  0  0  0  0  0  0  0  0  0  0
   -5.9860   14.7090   -0.5850 C   0  0  0  0  0  0  0  0  0  0  0  0
   -7.1230   15.1280   -0.7590 O   0  0  0  0  0  0  0  0  0  0  0  0
   -5.7980   13.4750   -0.0130 N   0  0  0  0  0  0  0  0  0  0  0  0
   -1.1790   12.8030   -1.3100 C   0  0  0  0  0  0  0  0  0  0  0  0
    0.3120   12.5960   -1.4330 C   0  0  0  0  0  0  0  0  0  0  0  0
    0.7020   12.9880   -2.6990 N   0  0  0  0  0  0  0  0  0  0  0  0
    0.6000   12.1550   -3.6220 C   0  0  0  0  0  0  0  0  0  0  0  0
    0.9800   12.6630   -4.9510 C   0  0  0  0  0  0  0  0  0  0  0  0
    0.1650   10.8820   -3.5310 O   0  0  0  0  0  0  0  0  0  0  0  0
    0.9920   14.1240   -4.6910 C   0  0  0  0  0  0  0  0  0  0  0  0
    0.0380   15.0460   -5.3060 C   0  0  1  0  0  0  0  0  0  0  0  0
    1.8030   14.8280   -3.9110 C   0  0  0  0  0  0  0  0  0  0  0  0
   -1.4430   14.9910   -5.1230 C   0  0  0  0  0  0  0  0  0  0  0  0
    0.5420   16.3190   -4.6890 C   0  0  0  0  0  0  0  0  0  0  0  0
    1.5280   16.1770   -3.8850 N   0  0  0  0  0  0  0  0  0  0  0  0
   -2.1320   16.1550   -5.1210 C   0  0  0  0  0  0  0  0  0  0  0  0
   -0.1380   17.5770   -5.0540 C   0  0  0  0  0  0  0  0  0  0  0  0
   -3.4910   16.2070   -4.9900 O   0  0  0  0  0  0  0  0  0  0  0  0
   -1.4590   17.4430   -5.2630 C   0  0  0  0  0  0  0  0  0  0  0  0
   -4.1370   15.2650   -5.8470 C   0  0  0  0  0  0  0  0  0  0  0  0
  1  2  1  0
  2  3  2  0
  2  4  1  0
  4  5  1  0
  4  6  2  0
  3  7  1  0
  6  7  1  0
  7  8  1  0
  6  9  1  0
  5 10  1  0
 10 11  2  0
 10 12  1  0
  9 13  1  0
 13 14  1  0
 14 15  1  0
 15 16  2  3
 16 17  1  0
 16 18  1  0
 17 19  1  0
 19 20  1  0
 19 21  2  0
 20 22  1  1
 20 23  1  0
 21 24  1  0
 23 24  2  0
 22 25  2  0
 23 26  1  0
 25 27  1  0
 25 28  1  0
 26 28  2  0
 27 29  1  0
M  END
