diamond-x0926_0_A-mac-x0137
     RDKit          3D

 19 21  0  0  0  0  0  0  0  0999 V2000
   -6.5440   14.8040    0.0570 O   0  0  0  0  0  0  0  0  0  0  0  0
   -5.4280   15.2110   -0.2490 C   0  0  0  0  0  0  0  0  0  0  0  0
   -4.4710   15.8200    0.7000 C   0  0  0  0  0  0  0  0  0  0  0  0
   -4.9300   15.1470   -1.5150 N   0  0  0  0  0  0  0  0  0  0  0  0
   -3.6390   14.6360   -1.7480 N   0  0  0  0  0  0  0  0  0  0  0  0
   -3.1710   15.7280    0.4740 C   0  0  0  0  0  0  0  0  0  0  0  0
   -2.6120   14.9420   -0.6980 C   0  0  1  0  0  0  0  0  0  0  0  0
   -2.2890   13.7180    0.1340 C   0  0  0  0  0  0  0  0  0  0  0  0
   -1.1510   15.2820   -1.2770 C   0  0  2  0  0  0  0  0  0  0  0  0
   -0.7150   14.4410   -2.4160 N   0  0  0  0  0  0  0  0  0  0  0  0
   -0.0650   15.3530   -0.2730 N   0  0  0  0  0  0  0  0  0  0  0  0
   -1.4500   14.1270    1.2660 N   0  0  0  0  0  0  0  0  0  0  0  0
   -1.3160   14.6860   -3.7290 C   0  0  0  0  0  0  0  0  0  0  0  0
    0.3910   13.4810   -2.3390 C   0  0  0  0  0  0  0  0  0  0  0  0
   -0.1130   14.4430    0.8510 C   0  0  0  0  0  0  0  0  0  0  0  0
   -1.6420   13.4000   -4.5020 C   0  0  2  0  0  0  0  0  0  0  0  0
    0.1050   12.1720   -3.0830 C   0  0  0  0  0  0  0  0  0  0  0  0
   -2.7430   12.8190   -3.9440 F   0  0  0  0  0  0  0  0  0  0  0  0
   -0.4990   12.3830   -4.4780 C   0  0  0  0  0  0  0  0  0  0  0  0
  1  2  2  0
  2  3  1  0
  2  4  1  0
  4  5  1  0
  3  6  2  0
  5  7  1  0
  7  6  1  1
  7  8  1  0
  7  9  1  0
  9 10  1  6
  9 11  1  0
  8 12  1  0
 10 13  1  0
 10 14  1  0
 11 15  1  0
 12 15  1  0
 13 16  1  0
 14 17  1  0
 16 18  1  1
 16 19  1  0
 17 19  1  0
M  END
