diamond-x0591_0_A-diamond-x0910_0_A
     RDKit          3D

 20 21  0  0  0  0  0  0  0  0999 V2000
   -5.9530   14.5750    0.8270 N   0  0  0  0  0  0  0  0  0  0  0  0
   -6.8320   14.4760    1.9690 C   0  0  0  0  0  0  0  0  0  0  0  0
   -6.4630   14.7970   -0.4350 C   0  0  0  0  0  0  0  0  0  0  0  0
   -7.6410   15.0210   -0.6580 O   0  0  0  0  0  0  0  0  0  0  0  0
   -5.4900   14.7390   -1.5570 C   0  0  0  0  0  0  0  0  0  0  0  0
   -4.1470   14.5260   -1.2660 C   0  0  0  0  0  0  0  0  0  0  0  0
   -5.8860   14.8870   -2.8790 C   0  0  0  0  0  0  0  0  0  0  0  0
   -3.1710   14.4580   -2.2710 C   0  0  0  0  0  0  0  0  0  0  0  0
   -4.9370   14.8190   -3.9010 C   0  0  0  0  0  0  0  0  0  0  0  0
   -1.8440   14.2470   -1.9240 N   0  0  0  0  0  0  0  0  0  0  0  0
   -3.5860   14.6110   -3.6090 C   0  0  0  0  0  0  0  0  0  0  0  0
   -2.4880   14.5580   -5.0110 S   0  0  0  0  0  0  0  0  0  0  0  0
   -1.2440   14.5610   -0.7720 C   0  0  0  0  0  0  0  0  0  0  0  0
   -1.2400   15.6080   -4.6050 N   0  0  0  0  0  0  0  0  0  0  0  0
   -1.8990   13.2420   -5.0940 O   0  0  0  0  0  0  0  0  0  0  0  0
   -3.1450   15.1800   -6.1430 O   0  0  0  0  0  0  0  0  0  0  0  0
   -1.9540   14.6290    0.4020 N   0  0  0  0  0  0  0  0  0  0  0  0
    0.0010   14.8420   -0.5200 N   0  0  0  0  0  0  0  0  0  0  0  0
   -1.1670   14.9590    1.4260 N   0  0  0  0  0  0  0  0  0  0  0  0
    0.0050   15.0810    0.8140 C   0  0  0  0  0  0  0  0  0  0  0  0
  1  2  1  0
  1  3  1  0
  3  4  2  0
  3  5  1  0
  5  6  2  0
  5  7  1  0
  6  8  1  0
  7  9  2  0
  8 10  1  0
  8 11  2  0
  9 11  1  0
 11 12  1  0
 10 13  1  0
 12 14  1  0
 12 15  2  0
 12 16  2  0
 13 17  1  0
 13 18  2  0
 17 19  1  0
 18 20  1  0
 19 20  2  0
M  END
