diamond-x0910_0_A-mac-x0398
     RDKit          3D

 16 17  0  0  0  0  0  0  0  0999 V2000
   -2.1020   14.4730   -2.1130 N   0  0  0  0  0  0  0  0  0  0  0  0
   -3.2990   15.0970   -2.4200 C   0  0  0  0  0  0  0  0  0  0  0  0
   -3.6140   15.6290   -3.4800 O   0  0  0  0  0  0  0  0  0  0  0  0
   -1.3970   14.6530   -0.9360 C   0  0  0  0  0  0  0  0  0  0  0  0
   -1.9340   14.4630    0.3160 N   0  0  0  0  0  0  0  0  0  0  0  0
   -0.1510   15.0190   -0.7780 N   0  0  0  0  0  0  0  0  0  0  0  0
   -4.2640   15.0570   -1.2870 C   0  0  0  0  0  0  0  0  0  0  0  0
   -1.0490   14.7140    1.2950 N   0  0  0  0  0  0  0  0  0  0  0  0
    0.0160   15.0530    0.5760 C   0  0  0  0  0  0  0  0  0  0  0  0
   -5.6540   14.9710   -1.3920 C   0  0  0  0  0  0  0  0  0  0  0  0
   -3.6910   15.0970   -0.0210 C   0  0  0  0  0  0  0  0  0  0  0  0
   -6.2710   14.9410   -2.6170 O   0  0  0  0  0  0  0  0  0  0  0  0
   -6.4350   14.9030   -0.2300 C   0  0  0  0  0  0  0  0  0  0  0  0
   -4.4570   15.0310    1.1270 C   0  0  0  0  0  0  0  0  0  0  0  0
   -5.8330   14.9240    1.0340 C   0  0  0  0  0  0  0  0  0  0  0  0
   -6.5840   14.8440    2.2050 N   0  0  0  0  0  0  0  0  0  0  0  0
  1  2  1  0
  2  3  2  0
  1  4  1  0
  4  5  1  0
  4  6  2  0
  2  7  1  0
  5  8  1  0
  6  9  1  0
  8  9  2  0
  7 10  2  0
  7 11  1  0
 10 12  1  0
 10 13  1  0
 11 14  2  0
 13 15  2  0
 14 15  1  0
 15 16  1  0
M  END
