diamond-x0864_0_A-mac-x0271
     RDKit          3D

 27 29  0  0  0  0  0  0  0  0999 V2000
    1.4590   11.9990   -6.6180 O   0  0  0  0  0  0  0  0  0  0  0  0
    0.4050   11.4470   -6.3240 C   0  0  0  0  0  0  0  0  0  0  0  0
   -0.4130   11.8160   -5.2460 N   0  0  0  0  0  0  0  0  0  0  0  0
   -0.0590   10.2950   -7.1400 C   0  0  0  0  0  0  0  0  0  0  0  0
    0.0830   12.7890   -4.2320 C   0  0  2  0  0  0  0  0  0  0  0  0
   -1.5700   11.1140   -4.9450 C   0  0  0  0  0  0  0  0  0  0  0  0
   -1.1900    9.6540   -6.8120 C   0  0  0  0  0  0  0  0  0  0  0  0
    0.9080   12.1040   -3.1390 C   0  0  0  0  0  0  0  0  0  0  0  0
   -1.8310    8.1980   -7.7840 Br  0  0  0  0  0  0  0  0  0  0  0  0
   -1.0700   13.4970   -3.5040 C   0  0  0  0  0  0  0  0  0  0  0  0
   -1.9650   10.0740   -5.6770 C   0  0  0  0  0  0  0  0  0  0  0  0
    0.5670   10.8130   -2.9270 O   0  0  0  0  0  0  0  0  0  0  0  0
    1.7750   12.6620   -2.4900 O   0  0  0  0  0  0  0  0  0  0  0  0
   -2.0010   14.3170   -4.3830 C   0  0  0  0  0  0  0  0  0  0  0  0
   -2.5990   15.3970   -3.5010 C   0  0  0  0  0  0  0  0  0  0  0  0
   -3.9970   15.2450   -3.3350 O   0  0  0  0  0  0  0  0  0  0  0  0
   -4.5780   15.1480   -2.0930 C   0  0  0  0  0  0  0  0  0  0  0  0
   -5.9500   15.0720   -1.8950 C   0  0  0  0  0  0  0  0  0  0  0  0
   -3.7260   15.1200   -0.9700 C   0  0  0  0  0  0  0  0  0  0  0  0
   -6.4540   14.9620   -0.6080 C   0  0  0  0  0  0  0  0  0  0  0  0
   -4.2470   15.0110    0.3300 C   0  0  0  0  0  0  0  0  0  0  0  0
   -5.6330   14.9270    0.5110 C   0  0  0  0  0  0  0  0  0  0  0  0
   -7.8590   14.8820   -0.4820 O   0  0  0  0  0  0  0  0  0  0  0  0
   -6.2490   14.8000    1.8220 C   0  0  0  0  0  0  0  0  0  0  0  0
   -8.4750   14.8560    0.7590 C   0  0  0  0  0  0  0  0  0  0  0  0
   -9.6950   14.9170    0.8890 O   0  0  0  0  0  0  0  0  0  0  0  0
   -7.5880   14.7630    1.9310 C   0  0  0  0  0  0  0  0  0  0  0  0
  1  2  2  0
  2  3  1  0
  2  4  1  0
  3  5  1  0
  3  6  1  0
  4  7  2  0
  5  8  1  0
  7  9  1  0
  5 10  1  1
  6 11  2  0
  7 11  1  0
  8 12  1  0
  8 13  2  0
 10 14  1  0
 14 15  1  0
 15 16  1  0
 16 17  1  0
 17 18  2  0
 17 19  1  0
 18 20  1  0
 19 21  2  0
 20 22  2  0
 21 22  1  0
 20 23  1  0
 22 24  1  0
 23 25  1  0
 25 26  2  0
 24 27  2  0
 25 27  1  0
M  END
