diamond-x0910_1_A-diamond-x0587_0_A
     RDKit          3D

 12 12  0  0  0  0  0  0  0  0999 V2000
   -7.9180   14.6560    1.9770 C   0  0  0  0  0  0  0  0  0  0  0  0
   -7.6450   14.7360    3.3310 N   0  0  0  0  0  0  0  0  0  0  0  0
   -9.0890   14.5560    1.6100 O   0  0  0  0  0  0  0  0  0  0  0  0
   -6.7070   14.7470    1.1120 C   0  0  0  0  0  0  0  0  0  0  0  0
   -6.6180   14.5130   -0.2230 N   0  0  0  0  0  0  0  0  0  0  0  0
   -5.4990   15.1290    1.6680 N   0  0  0  0  0  0  0  0  0  0  0  0
   -5.2900   14.7660   -0.4480 N   0  0  0  0  0  0  0  0  0  0  0  0
   -4.6580   15.1320    0.6840 C   0  0  0  0  0  0  0  0  0  0  0  0
   -4.6100   14.6580   -1.7170 C   0  0  0  0  0  0  0  0  0  0  0  0
   -3.3210   15.0860   -1.5910 F   0  0  0  0  0  0  0  0  0  0  0  0
   -4.5430   13.3760   -2.1500 F   0  0  0  0  0  0  0  0  0  0  0  0
   -5.1800   15.3980   -2.6830 F   0  0  0  0  0  0  0  0  0  0  0  0
  1  2  1  0
  1  3  2  0
  1  4  1  0
  4  5  2  0
  4  6  1  0
  5  7  1  0
  6  8  2  0
  7  8  1  0
  7  9  1  0
  9 10  1  0
  9 11  1  0
  9 12  1  0
M  END
