diamond-x0290_0_A-mac-x0306
     RDKit          3D

 23 25  0  0  0  0  0  0  0  0999 V2000
   -6.9470   12.8390    2.4430 N   0  0  0  0  0  0  0  0  0  0  0  0
   -6.2410   14.0060    1.9030 C   0  0  1  0  0  0  0  0  0  0  0  0
   -4.9840   13.6870    1.0840 C   0  0  0  0  0  0  0  0  0  0  0  0
   -7.2480   14.5730    1.1030 N   0  0  0  0  0  0  0  0  0  0  0  0
   -5.0940   13.1460   -0.0170 O   0  0  0  0  0  0  0  0  0  0  0  0
   -3.7940   14.0650    1.6610 N   0  0  0  0  0  0  0  0  0  0  0  0
   -8.5440   14.6750    1.5030 C   0  0  0  0  0  0  0  0  0  0  0  0
   -7.1100   15.0890   -0.1580 C   0  0  0  0  0  0  0  0  0  0  0  0
   -2.5820   14.2280    1.0080 C   0  0  0  0  0  0  0  0  0  0  0  0
   -9.1720   15.2550    0.4490 C   0  0  0  0  0  0  0  0  0  0  0  0
   -8.2880   15.5050   -0.5670 N   0  0  0  0  0  0  0  0  0  0  0  0
   -5.8610   15.1630   -0.9200 C   0  0  0  0  0  0  0  0  0  0  0  0
   -1.5500   14.4300    1.8410 N   0  0  0  0  0  0  0  0  0  0  0  0
   -2.4330   14.1850   -0.3690 C   0  0  0  0  0  0  0  0  0  0  0  0
   -5.8380   15.0000   -2.2990 C   0  0  0  0  0  0  0  0  0  0  0  0
   -4.6640   15.3930   -0.2620 C   0  0  0  0  0  0  0  0  0  0  0  0
   -0.3390   14.5960    1.2790 C   0  0  0  0  0  0  0  0  0  0  0  0
   -1.1720   14.3650   -0.9340 C   0  0  0  0  0  0  0  0  0  0  0  0
   -4.6220   15.0660   -2.9590 C   0  0  0  0  0  0  0  0  0  0  0  0
   -3.5120   15.4320   -1.0090 C   0  0  0  0  0  0  0  0  0  0  0  0
   -0.9880   14.3320   -2.4230 C   0  0  0  0  0  0  0  0  0  0  0  0
   -0.0950   14.5770   -0.0820 C   0  0  0  0  0  0  0  0  0  0  0  0
   -3.4530   15.2780   -2.3480 N   0  0  0  0  0  0  0  0  0  0  0  0
  2  1  1  6
  2  3  1  0
  2  4  1  0
  3  5  2  0
  3  6  1  0
  4  7  1  0
  4  8  1  0
  6  9  1  0
  7 10  2  0
  8 11  2  0
 10 11  1  0
  8 12  1  0
  9 13  2  0
  9 14  1  0
 12 15  2  0
 12 16  1  0
 13 17  1  0
 14 18  2  0
 15 19  1  0
 16 20  2  0
 18 21  1  0
 17 22  2  0
 18 22  1  0
 19 23  2  0
 20 23  1  0
M  END
