diamond-x0282_0_A-mac-x0178
     RDKit          3D

 28 30  0  0  0  0  0  0  0  0999 V2000
   -7.2990   13.3690    0.4660 C   0  0  0  0  0  0  0  0  0  0  0  0
   -8.6290   13.7110    0.0980 O   0  0  0  0  0  0  0  0  0  0  0  0
   -6.5090   14.6240    0.7860 C   0  0  0  0  0  0  0  0  0  0  0  0
   -5.6110   14.4730    2.0260 C   0  0  0  0  0  0  0  0  0  0  0  0
   -5.7610   15.1910   -0.4510 C   0  0  0  0  0  0  0  0  0  0  0  0
   -4.2680   13.8590    1.6830 C   0  0  0  0  0  0  0  0  0  0  0  0
   -4.3390   14.6620   -0.6050 C   0  0  0  0  0  0  0  0  0  0  0  0
   -3.6590   14.6780    0.6800 N   0  0  0  0  0  0  0  0  0  0  0  0
   -2.3250   14.3830    0.5600 C   0  0  0  0  0  0  0  0  0  0  0  0
   -2.0120   13.4790   -0.3560 N   0  0  0  0  0  0  0  0  0  0  0  0
   -1.4230   14.9950    1.3420 N   0  0  0  0  0  0  0  0  0  0  0  0
   -0.7350   13.1720   -0.5220 C   0  0  0  0  0  0  0  0  0  0  0  0
   -0.1500   14.6670    1.1140 C   0  0  0  0  0  0  0  0  0  0  0  0
   -0.3670   12.1370   -1.5430 C   0  0  0  0  0  0  0  0  0  0  0  0
    0.2260   13.7650    0.1830 C   0  0  0  0  0  0  0  0  0  0  0  0
   -0.2230   12.9940   -2.5760 N   0  0  0  0  0  0  0  0  0  0  0  0
    0.5110   12.9880   -3.5170 C   0  0  0  0  0  0  0  0  0  0  0  0
    1.4460   12.1210   -3.9170 O   0  0  0  0  0  0  0  0  0  0  0  0
    0.1260   14.2030   -4.1170 C   0  0  0  0  0  0  0  0  0  0  0  0
    0.9300   15.3290   -4.1980 C   0  0  0  0  0  0  0  0  0  0  0  0
   -1.1850   14.1640   -4.5680 C   0  0  0  0  0  0  0  0  0  0  0  0
    0.3730   16.4710   -4.7490 C   0  0  0  0  0  0  0  0  0  0  0  0
   -1.7400   15.2850   -5.1120 C   0  0  0  0  0  0  0  0  0  0  0  0
   -0.9580   16.4280   -5.1920 C   0  0  0  0  0  0  0  0  0  0  0  0
   -1.7030   17.8610   -5.8780 S   0  0  0  0  0  0  0  0  0  0  0  0
   -0.3890   18.5970   -6.6150 N   0  0  0  0  0  0  0  0  0  0  0  0
   -2.6130   17.4260   -6.8960 O   0  0  0  0  0  0  0  0  0  0  0  0
   -2.1080   18.7210   -4.7980 O   0  0  0  0  0  0  0  0  0  0  0  0
  1  2  1  0
  1  3  1  0
  3  4  1  0
  3  5  1  0
  4  6  1  0
  5  7  1  0
  6  8  1  0
  7  8  1  0
  8  9  1  0
  9 10  2  0
  9 11  1  0
 10 12  1  0
 11 13  2  0
 12 14  1  0
 12 15  2  0
 13 15  1  0
 14 16  1  0
 16 17  2  3
 17 18  1  0
 17 19  1  0
 19 20  2  0
 19 21  1  0
 20 22  1  0
 21 23  2  0
 22 24  2  0
 23 24  1  0
 24 25  1  0
 25 26  1  0
 25 27  2  0
 25 28  2  0
M  END
