diamond-x0282_0_A-mac-x0139
     RDKit          3D

 21 22  0  0  0  0  0  0  0  0999 V2000
   -7.7490   14.4170    1.1380 C   0  0  0  0  0  0  0  0  0  0  0  0
   -8.5630   14.6200   -0.0040 O   0  0  0  0  0  0  0  0  0  0  0  0
   -6.2720   14.2730    0.7680 C   0  0  0  0  0  0  0  0  0  0  0  0
   -5.3340   14.6250    1.9100 C   0  0  0  0  0  0  0  0  0  0  0  0
   -5.8220   15.0280   -0.4810 C   0  0  0  0  0  0  0  0  0  0  0  0
   -3.9070   14.2040    1.5970 C   0  0  0  0  0  0  0  0  0  0  0  0
   -4.4920   14.4260   -0.8990 C   0  0  0  0  0  0  0  0  0  0  0  0
   -3.4890   14.3080    0.1830 N   0  0  0  0  0  0  0  0  0  0  0  0
   -2.2880   15.1190   -0.0680 C   0  0  2  0  0  0  0  0  0  0  0  0
   -1.4330   14.6970   -1.2590 N   0  0  0  0  0  0  0  0  0  0  0  0
   -1.6000   15.2530    1.2350 N   0  0  0  0  0  0  0  0  0  0  0  0
   -1.1060   15.4780   -2.4470 N   0  0  0  0  0  0  0  0  0  0  0  0
   -0.4990   13.7670   -0.9350 C   0  0  0  0  0  0  0  0  0  0  0  0
   -0.2030   14.8210    1.2150 C   0  0  0  0  0  0  0  0  0  0  0  0
   -2.1750   15.4660   -3.4450 C   0  0  0  0  0  0  0  0  0  0  0  0
    0.1980   15.0440   -3.0380 C   0  0  0  0  0  0  0  0  0  0  0  0
    0.0960   13.7970    0.2180 C   0  0  0  0  0  0  0  0  0  0  0  0
    0.2830   13.7070   -3.7970 C   0  0  0  0  0  0  0  0  0  0  0  0
    0.9490   12.6020   -3.0240 C   0  0  0  0  0  0  0  0  0  0  0  0
    1.8610   12.7180   -2.2300 O   0  0  0  0  0  0  0  0  0  0  0  0
    0.4370   11.3810   -3.2700 O   0  0  0  0  0  0  0  0  0  0  0  0
  1  2  1  0
  1  3  1  0
  3  4  1  0
  3  5  1  0
  4  6  1  0
  5  7  1  0
  6  8  1  0
  7  8  1  0
  9  8  1  1
  9 10  1  0
  9 11  1  0
 10 12  1  0
 10 13  1  0
 11 14  1  0
 12 15  1  0
 12 16  1  0
 13 17  2  0
 14 17  1  0
 16 18  1  0
 18 19  1  0
 19 20  2  0
 19 21  1  0
M  END
