diamond-x0681_0_A-mac-x0360
     RDKit          3D

 15 16  0  0  0  0  0  0  0  0999 V2000
   -4.0590   15.5360   -2.4140 N   0  0  0  0  0  0  0  0  0  0  0  0
   -3.1810   14.6940   -1.6680 C   0  0  0  0  0  0  0  0  0  0  0  0
   -1.8630   15.1000   -1.8400 O   0  0  0  0  0  0  0  0  0  0  0  0
   -3.2330   13.4680   -2.2650 O   0  0  0  0  0  0  0  0  0  0  0  0
   -3.5400   14.4520   -0.2020 C   0  0  2  0  0  0  0  0  0  0  0  0
   -4.5690   13.3640   -0.2450 C   0  0  0  0  0  0  0  0  0  0  0  0
   -4.0350   15.6650    0.5960 C   0  0  0  0  0  0  0  0  0  0  0  0
   -5.6300   13.2980    0.6050 N   0  0  0  0  0  0  0  0  0  0  0  0
   -4.5870   15.1200    1.8980 C   0  0  0  0  0  0  0  0  0  0  0  0
   -4.5730   12.3660   -1.0990 N   0  0  0  0  0  0  0  0  0  0  0  0
   -5.8520   14.2960    1.6250 C   0  0  0  0  0  0  0  0  0  0  0  0
   -6.3420   12.1720    0.2770 C   0  0  0  0  0  0  0  0  0  0  0  0
   -5.6730   11.6050   -0.7980 C   0  0  0  0  0  0  0  0  0  0  0  0
   -7.7430   11.7300    1.1370 Cl  0  0  0  0  0  0  0  0  0  0  0  0
   -6.0070   10.2020   -1.7170 Cl  0  0  0  0  0  0  0  0  0  0  0  0
  1  2  1  0
  2  3  1  0
  2  4  1  0
  5  2  1  6
  5  6  1  0
  5  7  1  0
  6  8  1  0
  7  9  1  0
  6 10  2  0
  8 11  1  0
  9 11  1  0
  8 12  1  0
 10 13  1  0
 12 13  2  0
 12 14  1  0
 13 15  1  0
M  END
