diamond-x0967_0_A-mac-x0387
     RDKit          3D

 21 24  0  0  0  0  0  0  0  0999 V2000
   -3.5550   15.0910    1.5220 N   0  0  0  0  0  0  0  0  0  0  0  0
   -2.2780   14.7860    1.1060 C   0  0  0  0  0  0  0  0  0  0  0  0
   -1.3190   14.5620    1.9700 N   0  0  0  0  0  0  0  0  0  0  0  0
   -4.4150   15.1190    0.4560 C   0  0  0  0  0  0  0  0  0  0  0  0
   -5.7700   14.8620    0.5570 C   0  0  0  0  0  0  0  0  0  0  0  0
   -3.8780   15.4090   -0.7800 C   0  0  0  0  0  0  0  0  0  0  0  0
   -2.1120   14.7440   -0.3040 C   0  0  0  0  0  0  0  0  0  0  0  0
   -6.5290   14.9040   -0.6210 C   0  0  0  0  0  0  0  0  0  0  0  0
   -6.4190   14.5650    1.7590 C   0  0  0  0  0  0  0  0  0  0  0  0
   -4.6950   15.4290   -1.8700 C   0  0  0  0  0  0  0  0  0  0  0  0
   -0.8420   14.4680   -0.8010 C   0  0  0  0  0  0  0  0  0  0  0  0
   -0.1290   14.3030    1.4690 C   0  0  0  0  0  0  0  0  0  0  0  0
   -3.1450   14.9640   -1.2580 C   0  0  0  0  0  0  0  0  0  0  0  0
   -7.8300   14.6700   -0.6060 N   0  0  0  0  0  0  0  0  0  0  0  0
   -7.7720   14.3250    1.7700 C   0  0  0  0  0  0  0  0  0  0  0  0
   -6.0000   15.1780   -1.8050 N   0  0  0  0  0  0  0  0  0  0  0  0
    0.1680   14.2470    0.1130 C   0  0  0  0  0  0  0  0  0  0  0  0
   -0.6090   14.4200   -2.1840 C   0  0  0  0  0  0  0  0  0  0  0  0
   -2.9110   14.9130   -2.6380 C   0  0  0  0  0  0  0  0  0  0  0  0
   -8.4290   14.3890    0.5650 C   0  0  0  0  0  0  0  0  0  0  0  0
   -1.6390   14.6420   -3.1000 C   0  0  0  0  0  0  0  0  0  0  0  0
  1  2  1  0
  2  3  2  0
  1  4  1  0
  4  5  1  0
  4  6  2  0
  2  7  1  0
  5  8  2  0
  5  9  1  0
  6 10  1  0
  7 11  2  0
  3 12  1  0
  7 13  1  0
  8 14  1  0
  9 15  2  0
  8 16  1  0
 10 16  2  0
 11 17  1  0
 12 17  2  0
 11 18  1  0
 13 19  2  0
 14 20  2  0
 15 20  1  0
 18 21  2  0
 19 21  1  0
M  END
