diamond-x0574_0_A-mac-x0328
     RDKit          3D

 15 16  0  0  0  0  0  0  0  0999 V2000
    0.2100   14.0610    2.2970 N   0  0  0  0  0  0  0  0  0  0  0  0
   -0.8230   14.2850    1.5370 C   0  0  0  0  0  0  0  0  0  0  0  0
   -1.9880   14.3900    2.0530 N   0  0  0  0  0  0  0  0  0  0  0  0
   -0.6980   14.4420   -0.1410 S   0  0  0  0  0  0  0  0  0  0  0  0
   -2.9120   14.5810    1.0870 C   0  0  0  0  0  0  0  0  0  0  0  0
   -2.4070   14.6370   -0.1930 C   0  0  0  0  0  0  0  0  0  0  0  0
   -4.2700   14.7090    1.3130 C   0  0  0  0  0  0  0  0  0  0  0  0
   -3.2260   14.8190   -1.2800 C   0  0  0  0  0  0  0  0  0  0  0  0
   -2.4730   14.8390   -2.5590 C   0  0  0  0  0  0  0  0  0  0  0  0
   -5.1380   14.8850    0.2600 C   0  0  0  0  0  0  0  0  0  0  0  0
   -4.6270   14.9480   -1.0590 C   0  0  0  0  0  0  0  0  0  0  0  0
   -6.4850   14.9950    0.4500 O   0  0  0  0  0  0  0  0  0  0  0  0
   -3.1950   14.9930   -3.6790 O   0  0  0  0  0  0  0  0  0  0  0  0
   -1.2600   14.7150   -2.5640 O   0  0  0  0  0  0  0  0  0  0  0  0
   -6.9410   14.5760    1.7480 C   0  0  0  0  0  0  0  0  0  0  0  0
  1  2  1  0
  2  3  2  0
  2  4  1  0
  3  5  1  0
  4  6  1  0
  5  6  2  0
  5  7  1  0
  6  8  1  0
  8  9  1  0
  7 10  2  0
  8 11  2  0
 10 11  1  0
 10 12  1  0
  9 13  1  0
  9 14  2  0
 12 15  1  0
M  END
