diamond-x0711_0_A-mac-x0344
     RDKit          3D

 24 25  0  0  0  0  0  0  0  0999 V2000
   -1.5460   15.1350   -2.1760 N   0  0  0  0  0  0  0  0  0  0  0  0
   -0.9410   13.8280   -3.2990 S   0  0  0  0  0  0  0  0  0  0  0  0
   -2.0680   13.4520   -4.4460 C   0  0  0  0  0  0  0  0  0  0  0  0
   -2.7560   14.9750   -1.5390 C   0  0  0  0  0  0  0  0  0  0  0  0
   -0.3650   15.0680   -4.0550 O   0  0  0  0  0  0  0  0  0  0  0  0
    0.4130   13.3190   -3.0870 N   0  0  0  0  0  0  0  0  0  0  0  0
   -3.9430   15.2120   -2.2170 C   0  0  0  0  0  0  0  0  0  0  0  0
   -2.8390   14.5980   -0.2230 C   0  0  0  0  0  0  0  0  0  0  0  0
    1.1390   12.3840   -3.2700 C   0  0  0  0  0  0  0  0  0  0  0  0
   -5.1730   15.0870   -1.6040 C   0  0  0  0  0  0  0  0  0  0  0  0
   -4.0740   14.4710    0.3990 C   0  0  0  0  0  0  0  0  0  0  0  0
    0.4270   11.2920   -3.9650 C   0  0  0  0  0  0  0  0  0  0  0  0
   -5.2540   14.7100   -0.2610 C   0  0  0  0  0  0  0  0  0  0  0  0
   -6.5500   14.5840    0.3910 C   0  0  0  0  0  0  0  0  0  0  0  0
    0.1000   10.3130   -3.2490 O   0  0  0  0  0  0  0  0  0  0  0  0
    0.1570   11.4460   -5.3310 N   0  0  0  0  0  0  0  0  0  0  0  0
   -6.6730   14.6000    1.8000 N   0  0  0  0  0  0  0  0  0  0  0  0
   -7.5730   14.4730   -0.3220 O   0  0  0  0  0  0  0  0  0  0  0  0
   -0.6780   10.5610   -6.0460 C   0  0  0  0  0  0  0  0  0  0  0  0
   -0.3830   10.0090   -7.2700 C   0  0  0  0  0  0  0  0  0  0  0  0
   -1.9060   10.2050   -5.4780 C   0  0  0  0  0  0  0  0  0  0  0  0
   -1.2620    9.1450   -7.9040 C   0  0  0  0  0  0  0  0  0  0  0  0
   -2.7780    9.3690   -6.0730 C   0  0  0  0  0  0  0  0  0  0  0  0
   -2.4670    8.8200   -7.3060 C   0  0  0  0  0  0  0  0  0  0  0  0
  1  2  1  0
  2  3  1  0
  1  4  1  0
  2  5  2  0
  2  6  1  0
  4  7  2  0
  4  8  1  0
  6  9  2  3
  7 10  1  0
  8 11  2  0
  9 12  1  0
 10 13  2  0
 11 13  1  0
 13 14  1  0
 12 15  2  0
 12 16  1  0
 14 17  1  0
 14 18  2  0
 16 19  1  0
 19 20  2  0
 19 21  1  0
 20 22  1  0
 21 23  2  0
 22 24  2  0
 23 24  1  0
M  END
