diamond-x0905_0_B-diamond-x0737_0_B
     RDKit          3D

 25 26  0  0  0  0  0  0  0  0999 V2000
   14.1950   19.4940   11.8020 O   0  0  0  0  0  0  0  0  0  0  0  0
   13.1430   20.1730   12.4260 C   0  0  1  0  0  0  0  0  0  0  0  0
   12.7450   19.4880   13.6520 N   0  0  0  0  0  0  0  0  0  0  0  0
   13.5890   21.5650   12.7550 C   0  0  0  0  0  0  0  0  0  0  0  0
   13.5960   18.3750   14.1060 C   0  0  0  0  0  0  0  0  0  0  0  0
   11.9960   20.2300   14.5510 C   0  0  0  0  0  0  0  0  0  0  0  0
   13.1110   22.2260   13.8230 C   0  0  0  0  0  0  0  0  0  0  0  0
   15.0930   18.5530   13.7910 C   0  0  0  0  0  0  0  0  0  0  0  0
   12.1430   21.5590   14.6670 C   0  0  0  0  0  0  0  0  0  0  0  0
   15.8680   17.2310   13.7320 C   0  0  0  0  0  0  0  0  0  0  0  0
   16.1960   16.7750   12.3080 C   0  0  0  0  0  0  0  0  0  0  0  0
   15.4990   15.5540   11.9460 N   0  0  0  0  0  0  0  0  0  0  0  0
   16.1560   14.3350   11.8210 C   0  0  0  0  0  0  0  0  0  0  0  0
   17.3310   14.2420   11.4790 O   0  0  0  0  0  0  0  0  0  0  0  0
   15.3770   13.0550   12.1520 C   0  0  1  0  0  0  0  0  0  0  0  0
   14.3980   13.3100   13.2730 C   0  0  2  0  0  0  0  0  0  0  0  0
   14.7120   12.4130   10.9440 C   0  0  0  0  0  0  0  0  0  0  0  0
   15.1060   13.6820   14.5730 C   0  0  0  0  0  0  0  0  0  0  0  0
   13.5260   12.1160   13.4660 N   0  0  0  0  0  0  0  0  0  0  0  0
   14.0760   11.0730   11.1980 C   0  0  0  0  0  0  0  0  0  0  0  0
   11.9710   12.5320   13.9300 S   0  0  0  0  0  0  0  0  0  0  0  0
   13.6900   10.8700   12.6520 C   0  0  0  0  0  0  0  0  0  0  0  0
   12.0160   13.9710   14.0570 O   0  0  0  0  0  0  0  0  0  0  0  0
   11.5520   11.6430   14.9850 O   0  0  0  0  0  0  0  0  0  0  0  0
   11.1100   12.1610   12.4470 C   0  0  0  0  0  0  0  0  0  0  0  0
  2  1  1  1
  2  3  1  0
  2  4  1  0
  3  5  1  0
  3  6  1  0
  4  7  2  0
  5  8  1  0
  6  9  2  0
  7  9  1  0
  8 10  1  0
 10 11  1  0
 11 12  1  0
 12 13  1  0
 13 14  2  0
 15 13  1  6
 15 16  1  0
 15 17  1  0
 16 18  1  1
 16 19  1  0
 17 20  1  0
 19 21  1  0
 19 22  1  0
 20 22  1  0
 21 23  2  0
 21 24  2  0
 21 25  1  0
M  END
