diamond-x0128_0_A-diamond-x0849_0_A
     RDKit          3D

 25 28  0  0  0  0  0  0  0  0999 V2000
   -6.4610   14.7750    2.4470 N   0  0  0  0  0  0  0  0  0  0  0  0
   -7.6490   15.1410    3.0820 C   0  0  0  0  0  0  0  0  0  0  0  0
   -8.7270   15.2490    2.5040 O   0  0  0  0  0  0  0  0  0  0  0  0
   -6.1450   14.8360    1.0580 C   0  0  0  0  0  0  0  0  0  0  0  0
   -7.4810   15.3960    4.4460 N   0  0  0  0  0  0  0  0  0  0  0  0
   -7.1940   14.9230    0.1410 C   0  0  0  0  0  0  0  0  0  0  0  0
   -4.7790   14.8170    0.6000 C   0  0  0  0  0  0  0  0  0  0  0  0
   -6.9500   15.0050   -1.2130 C   0  0  0  0  0  0  0  0  0  0  0  0
   -4.5720   14.8970   -0.7850 C   0  0  0  0  0  0  0  0  0  0  0  0
   -8.3630   16.1400    5.2750 C   0  0  0  0  0  0  0  0  0  0  0  0
   -3.7170   14.7220    1.4450 N   0  0  0  0  0  0  0  0  0  0  0  0
   -5.6540   14.9940   -1.6640 C   0  0  0  0  0  0  0  0  0  0  0  0
   -9.0900   17.2660    4.8800 C   0  0  0  0  0  0  0  0  0  0  0  0
   -8.5330   15.7270    6.6020 C   0  0  0  0  0  0  0  0  0  0  0  0
   -2.4620   14.6870    0.9730 C   0  0  0  0  0  0  0  0  0  0  0  0
   -3.2700   14.8730   -1.2500 C   0  0  0  0  0  0  0  0  0  0  0  0
   -3.0090   14.9890   -3.1450 Br  0  0  0  0  0  0  0  0  0  0  0  0
   -9.9290   17.9650    5.6890 N   0  0  0  0  0  0  0  0  0  0  0  0
   -9.3890   16.4300    7.4540 C   0  0  0  0  0  0  0  0  0  0  0  0
   -2.1820   14.7640   -0.3930 C   0  0  0  0  0  0  0  0  0  0  0  0
   -1.4800   14.5710    1.8580 N   0  0  0  0  0  0  0  0  0  0  0  0
  -10.0590   17.5350    6.9540 C   0  0  0  0  0  0  0  0  0  0  0  0
   -0.2060   14.5320    1.4300 C   0  0  0  0  0  0  0  0  0  0  0  0
   -0.8380   14.7240   -0.8100 C   0  0  0  0  0  0  0  0  0  0  0  0
    0.1680   14.6080    0.1090 C   0  0  0  0  0  0  0  0  0  0  0  0
  1  2  1  0
  2  3  2  0
  1  4  1  0
  2  5  1  0
  4  6  2  0
  4  7  1  0
  6  8  1  0
  7  9  2  0
  5 10  1  0
  7 11  1  0
  8 12  2  0
  9 12  1  0
 10 13  2  0
 10 14  1  0
 11 15  2  0
  9 16  1  0
 16 17  1  0
 13 18  1  0
 14 19  2  0
 15 20  1  0
 16 20  2  0
 15 21  1  0
 18 22  2  0
 19 22  1  0
 21 23  2  0
 20 24  1  0
 23 25  1  0
 24 25  2  0
M  END
