diamond-x0724_0_A-mac-x0115
     RDKit          3D

 27 29  0  0  0  0  0  0  0  0999 V2000
   -7.7550   14.7010    4.5080 N   0  0  0  0  0  0  0  0  0  0  0  0
   -8.4870   14.1610    5.6470 C   0  0  0  0  0  0  0  0  0  0  0  0
   -8.4560   14.4610    3.2640 C   0  0  0  0  0  0  0  0  0  0  0  0
   -7.5750   14.6120    2.0540 C   0  0  0  0  0  0  0  0  0  0  0  0
   -6.1900   14.8140    1.8840 C   0  0  0  0  0  0  0  0  0  0  0  0
   -8.0620   14.5740    0.7370 C   0  0  0  0  0  0  0  0  0  0  0  0
   -7.1190   14.7380   -0.1810 N   0  0  0  0  0  0  0  0  0  0  0  0
   -5.9640   14.8920    0.5050 N   0  0  0  0  0  0  0  0  0  0  0  0
   -4.7140   15.1230   -0.2800 C   0  0  1  0  0  0  0  0  0  0  0  0
   -3.2960   15.0230    0.3850 C   0  0  0  0  0  0  0  0  0  0  0  0
   -4.7440   14.4120   -1.6440 C   0  0  0  0  0  0  0  0  0  0  0  0
   -2.1040   14.3110   -0.4190 C   0  0  2  0  0  0  0  0  0  0  0  0
   -3.8820   13.1920   -1.7020 C   0  0  0  0  0  0  0  0  0  0  0  0
   -2.6730   13.1350   -1.1400 C   0  0  0  0  0  0  0  0  0  0  0  0
   -0.8500   14.1930    0.4920 C   0  0  0  0  0  0  0  0  0  0  0  0
   -1.3880   14.9750   -1.6110 C   0  0  0  0  0  0  0  0  0  0  0  0
   -0.9030   14.3430    1.7210 O   0  0  0  0  0  0  0  0  0  0  0  0
   -0.3670   14.1720   -2.2920 N   0  0  0  0  0  0  0  0  0  0  0  0
    0.3940   13.9460   -0.1280 N   0  0  0  0  0  0  0  0  0  0  0  0
   -0.2110   14.3390   -3.7730 C   0  0  0  0  0  0  0  0  0  0  0  0
    0.7270   14.0350   -1.4680 C   0  0  0  0  0  0  0  0  0  0  0  0
    0.2790   15.7160   -4.2740 C   0  0  0  0  0  0  0  0  0  0  0  0
    2.3470   13.9850   -1.9180 S   0  0  0  0  0  0  0  0  0  0  0  0
   -0.7300   16.2910   -5.1260 O   0  0  0  0  0  0  0  0  0  0  0  0
   -0.4470   17.5840   -5.6900 C   0  0  0  0  0  0  0  0  0  0  0  0
   -1.4080   18.6320   -5.1550 C   0  0  0  0  0  0  0  0  0  0  0  0
    0.9920   17.9550   -5.3880 C   0  0  0  0  0  0  0  0  0  0  0  0
  1  2  1  0
  1  3  1  0
  3  4  1  0
  4  5  2  0
  4  6  1  0
  6  7  2  0
  5  8  1  0
  7  8  1  0
  9  8  1  1
  9 10  1  0
  9 11  1  0
 12 10  1  1
 11 13  1  0
 12 14  1  0
 13 14  2  0
 12 15  1  0
 12 16  1  0
 15 17  2  0
 16 18  1  0
 15 19  1  0
 18 20  1  0
 18 21  1  0
 19 21  1  0
 20 22  1  0
 21 23  2  0
 22 24  1  0
 24 25  1  0
 25 26  1  0
 25 27  1  0
M  END
