diamond-x0969_0_A-diamond-x0727_0_A
     RDKit          3D

 26 28  0  0  0  0  0  0  0  0999 V2000
   -6.7690   14.7700    2.4920 N   0  0  0  0  0  0  0  0  0  0  0  0
   -6.5380   14.7720    1.1590 C   0  0  0  0  0  0  0  0  0  0  0  0
   -7.4280   14.6000    0.2070 N   0  0  0  0  0  0  0  0  0  0  0  0
   -5.2900   14.9730    0.5940 N   0  0  0  0  0  0  0  0  0  0  0  0
   -6.7790   14.6790   -1.0090 N   0  0  0  0  0  0  0  0  0  0  0  0
   -5.5010   14.8970   -0.7730 C   0  0  0  0  0  0  0  0  0  0  0  0
   -4.0310   15.2070    1.1590 C   0  0  0  0  0  0  0  0  0  0  0  0
   -4.3710   15.0480   -1.6260 C   0  0  0  0  0  0  0  0  0  0  0  0
   -2.9660   15.3430    0.3580 C   0  0  0  0  0  0  0  0  0  0  0  0
   -3.1390   15.2500   -1.0920 C   0  0  0  0  0  0  0  0  0  0  0  0
   -1.8890   15.3720   -1.9320 C   0  0  0  0  0  0  0  0  0  0  0  0
   -0.6680   14.5730   -1.4200 C   0  0  0  0  0  0  0  0  0  0  0  0
    0.4490   14.3620   -2.4560 C   0  0  0  0  0  0  0  0  0  0  0  0
    1.0710   13.0710   -2.3050 O   0  0  0  0  0  0  0  0  0  0  0  0
    0.7580   12.0960   -3.2060 C   0  0  0  0  0  0  0  0  0  0  0  0
    1.0870   12.5200   -4.6540 C   0  0  1  0  0  0  0  0  0  0  0  0
    0.2740   11.0070   -2.8970 O   0  0  0  0  0  0  0  0  0  0  0  0
    0.1410   11.8470   -5.5190 N   0  0  0  0  0  0  0  0  0  0  0  0
    0.9810   14.0150   -4.8850 C   0  0  0  0  0  0  0  0  0  0  0  0
    0.4910   11.1710   -6.6440 C   0  0  0  0  0  0  0  0  0  0  0  0
    1.5160   11.3610   -7.2760 O   0  0  0  0  0  0  0  0  0  0  0  0
   -0.5540   10.1410   -7.0040 C   0  0  0  0  0  0  0  0  0  0  0  0
   -1.0180   10.0870   -8.4400 C   0  0  0  0  0  0  0  0  0  0  0  0
   -0.2120    8.6950   -6.7130 C   0  0  0  0  0  0  0  0  0  0  0  0
   -1.9610    8.8830   -8.3900 C   0  0  0  0  0  0  0  0  0  0  0  0
   -1.4680    8.0100   -7.2200 C   0  0  0  0  0  0  0  0  0  0  0  0
  1  2  1  0
  2  3  2  0
  2  4  1  0
  3  5  1  0
  4  6  1  0
  5  6  2  0
  4  7  1  0
  6  8  1  0
  7  9  2  0
  8 10  2  0
  9 10  1  0
 10 11  1  0
 11 12  1  0
 12 13  1  0
 13 14  1  0
 14 15  1  0
 15 16  1  0
 15 17  2  0
 16 18  1  0
 16 19  1  1
 18 20  1  0
 20 21  2  0
 20 22  1  0
 22 23  1  0
 22 24  1  0
 23 25  1  0
 24 26  1  0
 25 26  1  0
M  END
