diamond-x0471_0_A-diamond-x0849_0_A
     RDKit          3D

 22 24  0  0  0  0  0  0  0  0999 V2000
   -8.7900   14.0210    2.9400 N   0  0  0  0  0  0  0  0  0  0  0  0
   -9.1500   15.1100    3.7050 C   0  0  0  0  0  0  0  0  0  0  0  0
   -9.3840   16.2040    3.2010 O   0  0  0  0  0  0  0  0  0  0  0  0
   -8.8750   14.0910    1.4910 C   0  0  0  0  0  0  0  0  0  0  0  0
   -9.2630   14.8480    5.2080 C   0  0  0  0  0  0  0  0  0  0  0  0
   -7.5000   14.2040    0.9280 C   0  0  0  0  0  0  0  0  0  0  0  0
   -9.6490   13.4000    5.4980 C   0  0  0  0  0  0  0  0  0  0  0  0
   -7.9890   15.2520    5.9390 C   0  0  0  0  0  0  0  0  0  0  0  0
   -7.2180   15.0710   -0.0920 N   0  0  0  0  0  0  0  0  0  0  0  0
   -6.4210   13.5340    1.2970 N   0  0  0  0  0  0  0  0  0  0  0  0
   -5.4070   13.9880    0.5000 C   0  0  0  0  0  0  0  0  0  0  0  0
   -5.8930   14.9430   -0.3550 C   0  0  0  0  0  0  0  0  0  0  0  0
   -5.1130   15.6550   -1.3380 C   0  0  0  0  0  0  0  0  0  0  0  0
   -3.9720   13.5100    0.5390 C   0  0  0  0  0  0  0  0  0  0  0  0
   -3.8550   14.8150   -1.5140 C   0  0  2  0  0  0  0  0  0  0  0  0
   -2.9780   14.4660   -0.2370 C   0  0  2  0  0  0  0  0  0  0  0  0
   -3.0200   15.2460   -3.2240 Br  0  0  0  0  0  0  0  0  0  0  0  0
   -1.6360   13.7750   -0.7240 C   0  0  0  0  0  0  0  0  0  0  0  0
   -2.7440   15.3970    0.9860 C   0  0  0  0  0  0  0  0  0  0  0  0
   -1.4340   15.1640    1.5940 N   0  0  0  0  0  0  0  0  0  0  0  0
   -0.3310   14.3470   -0.2590 C   0  0  0  0  0  0  0  0  0  0  0  0
   -0.2960   15.0040    0.8670 C   0  0  0  0  0  0  0  0  0  0  0  0
  1  2  1  0
  2  3  2  0
  1  4  1  0
  2  5  1  0
  4  6  1  0
  5  7  1  0
  5  8  1  0
  6  9  1  0
  6 10  2  0
 10 11  1  0
  9 12  1  0
 11 12  2  0
 12 13  1  0
 11 14  1  0
 13 15  1  0
 16 14  1  1
 15 16  1  0
 15 17  1  6
 16 18  1  0
 16 19  1  0
 19 20  1  0
 18 21  1  0
 20 22  1  0
 21 22  2  0
M  END
