diamond-x0950_0_A-mac-x0415
     RDKit          3D

 16 17  0  0  0  0  0  0  0  0999 V2000
    2.8990   12.8150   -3.9400 C   0  0  0  0  0  0  0  0  0  0  0  0
    1.3800   12.9410   -4.0150 C   0  0  1  0  0  0  0  0  0  0  0  0
    0.8970   12.4860   -5.2880 O   0  0  0  0  0  0  0  0  0  0  0  0
    0.7760   12.0180   -2.9410 C   0  0  0  0  0  0  0  0  0  0  0  0
    0.9030   14.3730   -3.7150 C   0  0  1  0  0  0  0  0  0  0  0  0
    0.4260   10.8580   -3.0300 O   0  0  0  0  0  0  0  0  0  0  0  0
    0.6410   12.6740   -1.7610 O   0  0  0  0  0  0  0  0  0  0  0  0
    1.9070   15.3990   -4.1910 C   0  0  0  0  0  0  0  0  0  0  0  0
   -0.4200   15.0240   -4.1650 C   0  0  1  0  0  0  0  0  0  0  0  0
    1.2200   16.3350   -5.0940 N   0  0  0  0  0  0  0  0  0  0  0  0
   -0.0470   16.4800   -4.4160 C   0  0  1  0  0  0  0  0  0  0  0  0
   -1.3970   14.4070   -5.1560 C   0  0  0  0  0  0  0  0  0  0  0  0
   -1.0760   17.3120   -5.1100 C   0  0  0  0  0  0  0  0  0  0  0  0
   -2.5210   15.3200   -5.6260 C   0  0  1  0  0  0  0  0  0  0  0  0
   -4.1600   14.8820   -4.7030 Br  0  0  0  0  0  0  0  0  0  0  0  0
   -2.1970   16.7900   -5.6460 C   0  0  0  0  0  0  0  0  0  0  0  0
  2  1  1  6
  2  3  1  0
  2  4  1  0
  2  5  1  0
  4  6  2  0
  4  7  1  0
  5  8  1  6
  5  9  1  0
  8 10  1  0
  9 11  1  0
 10 11  1  0
  9 12  1  6
 11 13  1  6
 12 14  1  0
 14 15  1  1
 13 16  2  0
 14 16  1  0
M  END
