diamond-x0950_0_A-mac-x0360
     RDKit          3D

 20 20  0  0  0  0  0  0  0  0999 V2000
    2.8260   12.9680   -4.0930 C   0  0  0  0  0  0  0  0  0  0  0  0
    1.3260   12.8060   -4.2370 C   0  0  1  0  0  0  0  0  0  0  0  0
    1.0270   12.1260   -5.4500 O   0  0  0  0  0  0  0  0  0  0  0  0
    0.7810   12.1040   -2.9840 C   0  0  0  0  0  0  0  0  0  0  0  0
    0.4420   10.9290   -2.9330 O   0  0  0  0  0  0  0  0  0  0  0  0
    0.7270   12.9750   -1.9320 O   0  0  0  0  0  0  0  0  0  0  0  0
   -0.5700   13.1310   -1.3080 C   0  0  0  0  0  0  0  0  0  0  0  0
   -1.1570   14.5330   -1.4880 C   0  0  0  0  0  0  0  0  0  0  0  0
   -2.6200   14.4760   -1.7230 N   0  0  0  0  0  0  0  0  0  0  0  0
   -3.6670   14.7110   -0.4210 S   0  0  0  0  0  0  0  0  0  0  0  0
   -4.5280   15.8090   -0.8010 O   0  0  0  0  0  0  0  0  0  0  0  0
   -2.8900   14.7550    0.7920 O   0  0  0  0  0  0  0  0  0  0  0  0
   -4.6670   13.2380   -0.4470 C   0  0  0  0  0  0  0  0  0  0  0  0
   -4.4840   12.2800   -1.4520 C   0  0  0  0  0  0  0  0  0  0  0  0
   -5.6420   13.0480    0.5430 C   0  0  0  0  0  0  0  0  0  0  0  0
   -5.2850   11.1400   -1.4620 C   0  0  0  0  0  0  0  0  0  0  0  0
   -6.4330   11.8990    0.5140 C   0  0  0  0  0  0  0  0  0  0  0  0
   -7.6350   11.6520    1.7180 Cl  0  0  0  0  0  0  0  0  0  0  0  0
   -5.0750    9.9530   -2.6890 Cl  0  0  0  0  0  0  0  0  0  0  0  0
   -6.2600   10.9460   -0.4850 C   0  0  0  0  0  0  0  0  0  0  0  0
  2  1  1  1
  2  3  1  0
  2  4  1  0
  4  5  2  0
  4  6  1  0
  6  7  1  0
  7  8  1  0
  8  9  1  0
 10  9  1  0
 10 11  2  0
 10 12  2  0
 10 13  1  0
 13 14  2  0
 13 15  1  0
 14 16  1  0
 15 17  2  0
 17 18  1  0
 16 19  1  0
 16 20  2  0
 17 20  1  0
M  END
