diamond-x0849_0_A-diamond-x1018_0_A
     RDKit          3D

 19 22  0  0  0  0  0  0  0  0999 V2000
   -3.3800   15.4620   -2.7500 Br  0  0  0  0  0  0  0  0  0  0  0  0
   -3.4450   14.5700   -0.9800 C   0  0  1  0  0  0  0  0  0  0  0  0
   -2.1460   14.5390   -0.2480 C   0  0  0  0  0  0  0  0  0  0  0  0
   -4.6360   14.7770   -0.0500 C   0  0  1  0  0  0  0  0  0  0  0  0
   -4.0150   13.3860   -1.5760 N   0  0  0  0  0  0  0  0  0  0  0  0
   -2.2220   14.7090    1.1450 C   0  0  0  0  0  0  0  0  0  0  0  0
   -4.2780   15.7670    1.0330 C   0  0  0  0  0  0  0  0  0  0  0  0
   -0.8860   14.3650   -0.8200 C   0  0  0  0  0  0  0  0  0  0  0  0
   -5.2540   14.0310   -2.0380 N   0  0  0  0  0  0  0  0  0  0  0  0
   -5.6010   15.0680   -1.1010 N   0  0  0  0  0  0  0  0  0  0  0  0
   -5.0310   13.6150    0.8200 C   0  0  0  0  0  0  0  0  0  0  0  0
   -3.4150   14.9140    1.8080 N   0  0  0  0  0  0  0  0  0  0  0  0
   -1.1940   14.6980    1.9270 N   0  0  0  0  0  0  0  0  0  0  0  0
    0.2110   14.3690    0.0140 C   0  0  0  0  0  0  0  0  0  0  0  0
   -6.9780   15.0700   -0.7120 N   0  0  0  0  0  0  0  0  0  0  0  0
   -6.3070   13.3050    0.9750 C   0  0  0  0  0  0  0  0  0  0  0  0
   -0.0250   14.5380    1.3730 C   0  0  0  0  0  0  0  0  0  0  0  0
   -7.3980   14.0660    0.2800 C   0  0  1  0  0  0  0  0  0  0  0  0
   -8.5180   14.8010    1.4370 Cl  0  0  0  0  0  0  0  0  0  0  0  0
  2  1  1  6
  2  3  1  0
  2  4  1  0
  2  5  1  0
  3  6  2  0
  4  7  1  1
  3  8  1  0
  5  9  1  0
  4 10  1  0
  9 10  1  0
  4 11  1  0
  6 12  1  0
  7 12  1  0
  6 13  1  0
  8 14  2  0
 10 15  1  0
 11 16  2  0
 13 17  2  0
 14 17  1  0
 15 18  1  0
 16 18  1  0
 18 19  1  1
M  END
