diamond-x0900_0_A-mac-x1493
     RDKit          3D

 13 14  0  0  0  0  0  0  0  0999 V2000
   -6.4780   15.9950   -1.0090 O   0  0  0  0  0  0  0  0  0  0  0  0
   -5.8040   14.9250   -0.3830 C   0  0  1  0  0  0  0  0  0  0  0  0
   -4.9140   14.4310   -1.4330 N   0  0  0  0  0  0  0  0  0  0  0  0
   -4.8180   15.3850    0.7540 C   0  0  2  0  0  0  0  0  0  0  0  0
   -6.9660   14.1150    0.0920 C   0  0  0  0  0  0  0  0  0  0  0  0
   -3.4770   14.8210    0.3780 C   0  0  0  0  0  0  0  0  0  0  0  0
   -3.6260   15.1410   -1.1010 C   0  0  1  0  0  0  0  0  0  0  0  0
   -7.2740   14.0390    1.3950 C   0  0  0  0  0  0  0  0  0  0  0  0
   -5.3400   15.3320    2.1420 C   0  0  0  0  0  0  0  0  0  0  0  0
   -2.4330   14.7490   -1.9980 C   0  0  0  0  0  0  0  0  0  0  0  0
   -6.4960   14.7120    2.4090 C   0  0  0  0  0  0  0  0  0  0  0  0
   -1.3020   14.4830   -1.3110 O   0  0  0  0  0  0  0  0  0  0  0  0
   -2.4820   14.6940   -3.2220 O   0  0  0  0  0  0  0  0  0  0  0  0
  2  1  1  6
  2  3  1  0
  2  4  1  0
  2  5  1  0
  4  6  1  1
  3  7  1  0
  6  7  1  0
  5  8  2  0
  4  9  1  0
  7 10  1  6
  8 11  1  0
  9 11  2  0
 10 12  1  0
 10 13  2  0
M  END
