diamond-x1012_0_A-diamond-x0421_0_A
     RDKit          3D

 23 25  0  0  0  0  0  0  0  0999 V2000
   -0.2040   18.2550   -4.7560 N   0  0  0  0  0  0  0  0  0  0  0  0
   -1.1720   17.3130   -4.7930 C   0  0  0  0  0  0  0  0  0  0  0  0
   -2.3330   17.6940   -4.8430 O   0  0  0  0  0  0  0  0  0  0  0  0
   -0.7780   15.9960   -4.7550 N   0  0  0  0  0  0  0  0  0  0  0  0
   -1.7250   14.8870   -4.6100 C   0  0  0  0  0  0  0  0  0  0  0  0
    0.6430   15.7040   -4.6030 C   0  0  0  0  0  0  0  0  0  0  0  0
   -1.3820   13.8030   -3.5590 C   0  0  2  0  0  0  0  0  0  0  0  0
    0.9530   14.8040   -3.4140 C   0  0  0  0  0  0  0  0  0  0  0  0
   -1.9230   14.0710   -2.2010 N   0  0  0  0  0  0  0  0  0  0  0  0
    0.1290   13.5090   -3.4920 C   0  0  1  0  0  0  0  0  0  0  0  0
    0.3610   12.5120   -2.3740 C   0  0  0  0  0  0  0  0  0  0  0  0
   -3.0320   14.6900   -1.9800 C   0  0  0  0  0  0  0  0  0  0  0  0
    0.3800   11.2220   -2.7540 O   0  0  0  0  0  0  0  0  0  0  0  0
    0.5140   12.7920   -1.1950 O   0  0  0  0  0  0  0  0  0  0  0  0
   -3.8880   15.2540   -2.8810 N   0  0  0  0  0  0  0  0  0  0  0  0
   -3.5250   14.7880   -0.5920 C   0  0  0  0  0  0  0  0  0  0  0  0
   -2.8440   14.9890    0.6110 C   0  0  0  0  0  0  0  0  0  0  0  0
   -4.8780   14.6600   -0.3210 N   0  0  0  0  0  0  0  0  0  0  0  0
   -3.8140   14.9640    1.5830 N   0  0  0  0  0  0  0  0  0  0  0  0
   -5.0080   14.7630    0.9750 C   0  0  0  0  0  0  0  0  0  0  0  0
   -6.3550   14.6630    1.7300 C   0  0  0  0  0  0  0  0  0  0  0  0
   -7.6490   14.6690    0.9600 C   0  0  0  0  0  0  0  0  0  0  0  0
   -7.1580   13.3990    1.5960 C   0  0  0  0  0  0  0  0  0  0  0  0
  1  2  1  0
  2  3  2  0
  2  4  1  0
  4  5  1  0
  4  6  1  0
  5  7  1  0
  6  8  1  0
  7  9  1  1
  7 10  1  0
  8 10  1  0
 10 11  1  1
  9 12  2  3
 11 13  1  0
 11 14  2  0
 12 15  1  0
 12 16  1  0
 16 17  2  0
 16 18  1  0
 17 19  1  0
 18 20  2  0
 19 20  1  0
 20 21  1  0
 21 22  1  0
 21 23  1  0
 22 23  1  0
M  END
