diamond-x0852_0_B-mac-x0555
     RDKit          3D

 21 23  0  0  0  0  0  0  0  0999 V2000
   -9.5970   17.5050    7.3820 N   0  0  0  0  0  0  0  0  0  0  0  0
   -9.4220   17.0600    6.3240 C   0  0  0  0  0  0  0  0  0  0  0  0
   -9.2980   16.5430    4.9950 C   0  0  0  0  0  0  0  0  0  0  0  0
   -8.3710   15.5460    4.6420 C   0  0  0  0  0  0  0  0  0  0  0  0
  -10.1520   17.0690    4.0180 C   0  0  0  0  0  0  0  0  0  0  0  0
   -7.5190   15.0130    5.5810 O   0  0  0  0  0  0  0  0  0  0  0  0
   -8.3210   15.0950    3.3050 C   0  0  0  0  0  0  0  0  0  0  0  0
  -10.0830   16.6020    2.7100 C   0  0  0  0  0  0  0  0  0  0  0  0
  -11.2100   17.2760    1.3540 Br  0  0  0  0  0  0  0  0  0  0  0  0
   -7.4330   14.1240    2.8320 N   0  0  0  0  0  0  0  0  0  0  0  0
   -9.1820   15.6310    2.3680 C   0  0  0  0  0  0  0  0  0  0  0  0
   -6.8480   14.3590    1.5710 C   0  0  0  0  0  0  0  0  0  0  0  0
   -5.4840   14.5450    1.3850 C   0  0  0  0  0  0  0  0  0  0  0  0
   -7.6430   14.4300    0.4310 C   0  0  0  0  0  0  0  0  0  0  0  0
   -4.9740   14.7900    0.1050 C   0  0  0  0  0  0  0  0  0  0  0  0
   -7.1930   14.6660   -0.8160 N   0  0  0  0  0  0  0  0  0  0  0  0
   -5.8790   14.8440   -0.9750 C   0  0  0  0  0  0  0  0  0  0  0  0
   -3.6080   14.9750   -0.1140 C   0  0  0  0  0  0  0  0  0  0  0  0
   -5.3810   15.0870   -2.2420 C   0  0  0  0  0  0  0  0  0  0  0  0
   -3.1350   15.2090   -1.4000 C   0  0  0  0  0  0  0  0  0  0  0  0
   -4.0220   15.2690   -2.4660 C   0  0  0  0  0  0  0  0  0  0  0  0
  1  2  3  0
  2  3  1  0
  3  4  2  0
  3  5  1  0
  4  6  1  0
  4  7  1  0
  5  8  2  0
  8  9  1  0
  7 10  1  0
  7 11  2  0
  8 11  1  0
 10 12  1  0
 12 13  2  0
 12 14  1  0
 13 15  1  0
 14 16  2  0
 15 17  2  0
 16 17  1  0
 15 18  1  0
 17 19  1  0
 18 20  2  0
 19 21  2  0
 20 21  1  0
M  END
