diamond-x0421_0_A-diamond-x0855_0_A
     RDKit          3D

 23 25  0  0  0  0  0  0  0  0999 V2000
   -3.6620   15.2480   -2.8070 N   0  0  0  0  0  0  0  0  0  0  0  0
   -2.8140   14.8790   -1.7960 C   0  0  0  0  0  0  0  0  0  0  0  0
   -1.5740   14.5460   -1.8230 N   0  0  0  0  0  0  0  0  0  0  0  0
   -3.4740   14.8760   -0.4930 C   0  0  0  0  0  0  0  0  0  0  0  0
   -0.8470   14.5130   -3.0940 C   0  0  0  0  0  0  0  0  0  0  0  0
   -2.8640   15.0090    0.7420 C   0  0  0  0  0  0  0  0  0  0  0  0
   -4.8490   14.7250   -0.3340 N   0  0  0  0  0  0  0  0  0  0  0  0
    0.6670   14.5920   -2.8210 C   0  0  0  0  0  0  0  0  0  0  0  0
   -3.8710   14.9370    1.6510 N   0  0  0  0  0  0  0  0  0  0  0  0
   -5.0380   14.7650    0.9700 C   0  0  0  0  0  0  0  0  0  0  0  0
    1.2170   13.2850   -2.4980 O   0  0  0  0  0  0  0  0  0  0  0  0
   -6.4070   14.6300    1.6760 C   0  0  0  0  0  0  0  0  0  0  0  0
    0.8280   12.2040   -3.2380 C   0  0  0  0  0  0  0  0  0  0  0  0
   -7.6790   14.6410    0.8730 C   0  0  0  0  0  0  0  0  0  0  0  0
   -7.1880   13.3610    1.4830 C   0  0  0  0  0  0  0  0  0  0  0  0
    0.6550   11.0760   -2.7860 O   0  0  0  0  0  0  0  0  0  0  0  0
    0.6290   12.5460   -4.6910 C   0  0  0  0  0  0  0  0  0  0  0  0
   -0.4160   11.6910   -5.2020 N   0  0  0  0  0  0  0  0  0  0  0  0
   -0.3070   10.7420   -6.1800 C   0  0  0  0  0  0  0  0  0  0  0  0
   -1.6640   11.7870   -4.6860 N   0  0  0  0  0  0  0  0  0  0  0  0
   -1.5520   10.1930   -6.2870 C   0  0  0  0  0  0  0  0  0  0  0  0
   -2.3550   10.8630   -5.3590 C   0  0  0  0  0  0  0  0  0  0  0  0
   -2.1110    8.8270   -7.4220 Br  0  0  0  0  0  0  0  0  0  0  0  0
  1  2  1  0
  2  3  2  3
  2  4  1  0
  3  5  1  0
  4  6  2  0
  4  7  1  0
  5  8  1  0
  6  9  1  0
  7 10  2  0
  9 10  1  0
  8 11  1  0
 10 12  1  0
 11 13  1  0
 12 14  1  0
 12 15  1  0
 14 15  1  0
 13 16  2  0
 13 17  1  0
 17 18  1  0
 18 19  1  0
 18 20  1  0
 19 21  2  0
 20 22  2  0
 21 22  1  0
 21 23  1  0
M  END
