diamond-x0228_1_A-diamond-x0905_1_B
     RDKit          3D

 29 31  0  0  0  0  0  0  0  0999 V2000
    2.4450   26.4370   15.8860 N   0  0  0  0  0  0  0  0  0  0  0  0
    3.7500   26.7370   16.2330 C   0  0  0  0  0  0  0  0  0  0  0  0
    4.5880   25.6380   16.4380 N   0  0  0  0  0  0  0  0  0  0  0  0
    1.4690   27.4480   15.7390 C   0  0  0  0  0  0  0  0  0  0  0  0
    4.1630   27.8770   16.3900 O   0  0  0  0  0  0  0  0  0  0  0  0
    0.2050   27.1320   15.1920 C   0  0  0  0  0  0  0  0  0  0  0  0
    1.7380   28.7650   16.1280 C   0  0  0  0  0  0  0  0  0  0  0  0
    0.0050   25.8150   14.8350 O   0  0  0  0  0  0  0  0  0  0  0  0
   -0.7500   28.1460   15.0440 C   0  0  0  0  0  0  0  0  0  0  0  0
    0.7880   29.7760   15.9820 C   0  0  0  0  0  0  0  0  0  0  0  0
    5.8700   26.0000   16.9800 N   0  0  0  0  0  0  0  0  0  0  0  0
   -1.3240   25.4450   14.4810 C   0  0  0  0  0  0  0  0  0  0  0  0
    1.1210   31.1750   16.4090 C   0  0  0  0  0  0  0  0  0  0  0  0
   -0.4560   29.4580   15.4370 C   0  0  0  0  0  0  0  0  0  0  0  0
    6.0200   26.0580   18.4260 C   0  0  0  0  0  0  0  0  0  0  0  0
    7.0590   25.3420   16.4510 C   0  0  0  0  0  0  0  0  0  0  0  0
    7.3490   25.5160   18.7640 N   0  0  0  0  0  0  0  0  0  0  0  0
    8.0650   25.3680   17.5210 N   0  0  0  0  0  0  0  0  0  0  0  0
    9.1060   24.3240   17.6030 C   0  0  0  0  0  0  0  0  0  0  0  0
   10.5760   24.5270   17.1660 C   0  0  0  0  0  0  0  0  0  0  0  0
   11.3480   23.2540   16.7270 C   0  0  0  0  0  0  0  0  0  0  0  0
   11.9880   23.4940   15.3510 C   0  0  0  0  0  0  0  0  0  0  0  0
   12.4130   22.3210   14.4790 C   0  0  0  0  0  0  0  0  0  0  0  0
   11.9560   20.9900   14.5110 C   0  0  0  0  0  0  0  0  0  0  0  0
   13.3790   22.6210   13.5290 C   0  0  0  0  0  0  0  0  0  0  0  0
   12.4130   20.0140   13.6660 N   0  0  0  0  0  0  0  0  0  0  0  0
   13.8550   21.6580   12.6690 C   0  0  0  0  0  0  0  0  0  0  0  0
   13.3520   20.3840   12.7670 C   0  0  0  0  0  0  0  0  0  0  0  0
   13.8190   19.4270   11.9170 O   0  0  0  0  0  0  0  0  0  0  0  0
  1  2  1  0
  2  3  1  0
  1  4  1  0
  2  5  2  0
  4  6  2  0
  4  7  1  0
  6  8  1  0
  6  9  1  0
  7 10  2  0
  3 11  1  0
  8 12  1  0
 10 13  1  0
  9 14  2  0
 10 14  1  0
 11 15  1  0
 11 16  1  0
 15 17  1  0
 16 18  1  0
 17 18  1  0
 18 19  1  0
 19 20  1  0
 20 21  1  0
 21 22  1  0
 22 23  1  0
 23 24  2  0
 23 25  1  0
 24 26  1  0
 25 27  2  0
 26 28  2  0
 27 28  1  0
 28 29  1  0
M  END
