diamond-x0910_0_A-mac-x0223
     RDKit          3D

 20 21  0  0  0  0  0  0  0  0999 V2000
   -2.7050   14.3760   -1.6710 N   0  0  0  0  0  0  0  0  0  0  0  0
   -1.9090   14.6100   -0.6140 C   0  0  0  0  0  0  0  0  0  0  0  0
   -2.2670   14.7800    0.6370 N   0  0  0  0  0  0  0  0  0  0  0  0
   -0.5500   14.7130   -0.7040 N   0  0  0  0  0  0  0  0  0  0  0  0
    0.2650   14.5890   -1.8960 C   0  0  0  0  0  0  0  0  0  0  0  0
   -1.1310   15.0010    1.3730 N   0  0  0  0  0  0  0  0  0  0  0  0
   -0.1130   14.9640    0.5530 C   0  0  0  0  0  0  0  0  0  0  0  0
    0.7840   13.2540   -1.9700 O   0  0  0  0  0  0  0  0  0  0  0  0
    0.4510   12.5480   -3.0940 C   0  0  0  0  0  0  0  0  0  0  0  0
    0.7610   13.3090   -4.3780 C   0  0  0  0  0  0  0  0  0  0  0  0
   -0.0390   11.4270   -3.0570 O   0  0  0  0  0  0  0  0  0  0  0  0
   -0.0880   14.5550   -4.5300 C   0  0  0  0  0  0  0  0  0  0  0  0
   -1.4890   14.4680   -4.5950 C   0  0  0  0  0  0  0  0  0  0  0  0
    0.5250   15.8180   -4.6040 C   0  0  0  0  0  0  0  0  0  0  0  0
   -0.2510   16.9650   -4.7320 C   0  0  0  0  0  0  0  0  0  0  0  0
   -2.2660   15.6250   -4.7250 C   0  0  0  0  0  0  0  0  0  0  0  0
    0.2270   18.2320   -4.8090 O   0  0  0  0  0  0  0  0  0  0  0  0
   -1.6300   16.8620   -4.7900 C   0  0  0  0  0  0  0  0  0  0  0  0
    1.2410   18.4310   -5.7610 C   0  0  0  0  0  0  0  0  0  0  0  0
   -2.3360   18.0250   -4.9020 O   0  0  0  0  0  0  0  0  0  0  0  0
  1  2  1  0
  2  3  2  0
  2  4  1  0
  4  5  1  0
  3  6  1  0
  4  7  1  0
  6  7  2  0
  5  8  1  0
  8  9  1  0
  9 10  1  0
  9 11  2  0
 10 12  1  0
 12 13  2  0
 12 14  1  0
 14 15  2  0
 13 16  1  0
 15 17  1  0
 15 18  1  0
 16 18  2  0
 17 19  1  0
 18 20  1  0
M  END
