diamond-x0722_0_A-mac-x0338
     RDKit          3D

 20 21  0  0  0  0  0  0  0  0999 V2000
   -4.7070   15.1600    1.5990 C   0  0  0  0  0  0  0  0  0  0  0  0
   -5.7670   14.2060    1.0940 C   0  0  0  0  0  0  0  0  0  0  0  0
   -6.8510   13.9730    1.6290 O   0  0  0  0  0  0  0  0  0  0  0  0
   -3.3970   14.9080    0.9700 C   0  0  0  0  0  0  0  0  0  0  0  0
   -2.3860   14.5860    1.7670 N   0  0  0  0  0  0  0  0  0  0  0  0
   -3.0050   14.9480   -0.4130 C   0  0  0  0  0  0  0  0  0  0  0  0
   -5.4150   13.5480   -0.1810 C   0  0  0  0  0  0  0  0  0  0  0  0
   -3.8050   15.2590   -1.6580 C   0  0  0  0  0  0  0  0  0  0  0  0
   -1.6630   14.6200   -0.3730 C   0  0  0  0  0  0  0  0  0  0  0  0
   -1.3680   14.4220    0.9410 N   0  0  0  0  0  0  0  0  0  0  0  0
   -4.1640   13.0350   -0.3180 N   0  0  0  0  0  0  0  0  0  0  0  0
   -6.3540   13.4790   -1.1980 C   0  0  0  0  0  0  0  0  0  0  0  0
   -0.0990   14.0650    1.4750 C   0  0  0  0  0  0  0  0  0  0  0  0
   -0.6450   14.4780   -1.4400 C   0  0  0  0  0  0  0  0  0  0  0  0
   -5.2570   15.5940   -1.4390 C   0  0  0  0  0  0  0  0  0  0  0  0
   -3.8940   12.4660   -1.5130 C   0  0  0  0  0  0  0  0  0  0  0  0
   -6.0810   12.9050   -2.3990 N   0  0  0  0  0  0  0  0  0  0  0  0
   -5.6440   16.2460   -0.5020 O   0  0  0  0  0  0  0  0  0  0  0  0
   -6.1500   15.1210   -2.3570 N   0  0  0  0  0  0  0  0  0  0  0  0
   -4.8330   12.4050   -2.5310 C   0  0  0  0  0  0  0  0  0  0  0  0
  1  2  1  0
  2  3  2  0
  1  4  1  0
  4  5  2  0
  4  6  1  0
  2  7  1  0
  6  8  1  0
  6  9  2  0
  5 10  1  0
  9 10  1  0
  7 11  2  0
  7 12  1  0
 10 13  1  0
  9 14  1  0
  8 15  1  0
 11 16  1  0
 12 17  2  0
 15 18  2  0
 15 19  1  0
 16 20  2  0
 17 20  1  0
M  END
