diamond-x0905_0_B-diamond-x0158_0_B
     RDKit          3D

 23 24  0  0  0  0  0  0  0  0999 V2000
   13.4560   19.9670   11.3890 O   0  0  0  0  0  0  0  0  0  0  0  0
   14.0270   20.3340   12.6100 C   0  0  2  0  0  0  0  0  0  0  0  0
   13.5060   19.4460   13.6340 N   0  0  0  0  0  0  0  0  0  0  0  0
   13.6850   21.7700   12.8600 C   0  0  0  0  0  0  0  0  0  0  0  0
   14.5430   18.4710   14.0490 C   0  0  0  0  0  0  0  0  0  0  0  0
   12.4870   19.8940   14.4840 C   0  0  0  0  0  0  0  0  0  0  0  0
   12.8000   22.1710   13.7830 C   0  0  0  0  0  0  0  0  0  0  0  0
   15.0690   17.6870   12.8350 C   0  0  0  0  0  0  0  0  0  0  0  0
   12.1270   21.1830   14.5860 C   0  0  0  0  0  0  0  0  0  0  0  0
   16.5500   17.3570   12.6680 C   0  0  2  0  0  0  0  0  0  0  0  0
   17.1950   18.0800   11.4880 C   0  0  0  0  0  0  0  0  0  0  0  0
   16.5850   15.9530   12.3280 O   0  0  0  0  0  0  0  0  0  0  0  0
   15.9370   15.0940   13.1580 C   0  0  0  0  0  0  0  0  0  0  0  0
   15.8850   15.1890   14.3740 O   0  0  0  0  0  0  0  0  0  0  0  0
   15.2830   13.9890   12.3430 C   0  0  0  0  0  0  0  0  0  0  0  0
   14.3910   13.1010   13.1150 N   0  0  0  0  0  0  0  0  0  0  0  0
   14.0500   11.9000   12.3180 C   0  0  0  0  0  0  0  0  0  0  0  0
   13.2090   13.8270   13.5880 C   0  0  0  0  0  0  0  0  0  0  0  0
   13.2240   10.8580   13.0700 C   0  0  0  0  0  0  0  0  0  0  0  0
   12.4200   13.0100   14.5730 C   0  0  0  0  0  0  0  0  0  0  0  0
   11.7430   11.6060   13.7140 S   0  0  0  0  0  0  0  0  0  0  0  0
   11.1800   10.7190   14.7180 O   0  0  0  0  0  0  0  0  0  0  0  0
   10.9520   12.0410   12.5770 O   0  0  0  0  0  0  0  0  0  0  0  0
  2  1  1  6
  2  3  1  0
  2  4  1  0
  3  5  1  0
  3  6  1  0
  4  7  2  0
  5  8  1  0
  6  9  2  0
  7  9  1  0
  8 10  1  0
 10 11  1  6
 10 12  1  0
 12 13  1  0
 13 14  2  0
 13 15  1  0
 15 16  1  0
 16 17  1  0
 16 18  1  0
 17 19  1  0
 18 20  1  0
 21 19  1  0
 20 21  1  0
 21 22  2  0
 21 23  2  0
M  END
