diamond-x0962_0_A-diamond-x0724_0_A
     RDKit          3D

 14 15  0  0  0  0  0  0  0  0999 V2000
   -2.4080   15.1280   -2.3160 N   0  0  0  0  0  0  0  0  0  0  0  0
   -3.1150   15.0010   -1.4100 C   0  0  0  0  0  0  0  0  0  0  0  0
   -4.0040   14.6740   -0.3560 C   0  0  0  0  0  0  0  0  0  0  0  0
   -3.7110   13.6330    0.4700 N   0  0  0  0  0  0  0  0  0  0  0  0
   -5.1690   15.2820   -0.0760 C   0  0  0  0  0  0  0  0  0  0  0  0
   -4.7330   13.5360    1.2460 C   0  0  0  0  0  0  0  0  0  0  0  0
   -5.8300   14.5330    1.0320 C   0  0  2  0  0  0  0  0  0  0  0  0
   -7.0790   13.9540    0.4950 N   0  0  0  0  0  0  0  0  0  0  0  0
   -6.1790   15.0970    2.3360 C   0  0  0  0  0  0  0  0  0  0  0  0
   -7.4740   14.9110    2.6150 C   0  0  0  0  0  0  0  0  0  0  0  0
   -7.9480   14.2100    1.4220 C   0  0  0  0  0  0  0  0  0  0  0  0
   -8.3480   15.2480    3.7630 C   0  0  0  0  0  0  0  0  0  0  0  0
   -8.9440   14.1030    4.4500 N   0  0  0  0  0  0  0  0  0  0  0  0
   -8.5970   14.0220    5.8600 C   0  0  0  0  0  0  0  0  0  0  0  0
  1  2  3  0
  2  3  1  0
  3  4  1  0
  3  5  2  0
  4  6  2  0
  7  5  1  6
  6  7  1  0
  7  8  1  0
  7  9  1  0
  9 10  2  0
  8 11  2  0
 10 11  1  0
 10 12  1  0
 12 13  1  0
 13 14  1  0
M  END
