diamond-x0933_0_A-diamond-x0895_1_A
     RDKit          3D

  8  8  0  0  0  0  0  0  0  0999 V2000
   -6.1700   14.6340    1.9830 N   0  0  0  0  0  0  0  0  0  0  0  0
   -5.0760   14.3280    1.1320 C   0  0  2  0  0  0  0  0  0  0  0  0
   -3.9950   15.0720    1.6370 N   0  0  0  0  0  0  0  0  0  0  0  0
   -5.4340   14.7750   -0.1830 N   0  0  0  0  0  0  0  0  0  0  0  0
   -4.2780   15.2030   -0.9810 C   0  0  0  0  0  0  0  0  0  0  0  0
   -2.8030   14.8920    1.0050 C   0  0  0  0  0  0  0  0  0  0  0  0
   -1.7210   14.8960    1.5990 O   0  0  0  0  0  0  0  0  0  0  0  0
   -2.9510   14.6560   -0.4710 C   0  0  0  0  0  0  0  0  0  0  0  0
  2  1  1  1
  2  3  1  0
  2  4  1  0
  4  5  1  0
  3  6  1  0
  6  7  2  0
  5  8  1  0
  6  8  1  0
M  END
