diamond-x0685_1_A-mac-x0116
     RDKit          3D

 29 32  0  0  0  0  0  0  0  0999 V2000
   -0.7110   10.6820   -4.8940 N   0  0  0  0  0  0  0  0  0  0  0  0
   -1.3670   11.9110   -4.4230 C   0  0  0  0  0  0  0  0  0  0  0  0
   -0.3280   12.9740   -4.0430 C   0  0  0  0  0  0  0  0  0  0  0  0
   -1.1880   10.1090   -6.1690 C   0  0  0  0  0  0  0  0  0  0  0  0
   -0.1700    9.1170   -6.7550 C   0  0  0  0  0  0  0  0  0  0  0  0
   -1.4810   11.2060   -7.2020 C   0  0  0  0  0  0  0  0  0  0  0  0
    0.5280   12.6440   -2.4840 S   0  0  0  0  0  0  0  0  0  0  0  0
   -0.6220    8.3950   -8.0090 C   0  0  0  0  0  0  0  0  0  0  0  0
   -1.0190   10.8200   -8.6180 C   0  0  0  0  0  0  0  0  0  0  0  0
    2.0460   12.3260   -2.9010 O   0  0  0  0  0  0  0  0  0  0  0  0
   -0.1120   11.3410   -1.8000 O   0  0  0  0  0  0  0  0  0  0  0  0
    0.4540   13.9580   -1.5070 O   0  0  0  0  0  0  0  0  0  0  0  0
   -1.2640    9.3510   -8.9980 C   0  0  0  0  0  0  0  0  0  0  0  0
   -0.5780   14.1950   -0.5520 N   0  0  0  0  0  0  0  0  0  0  0  0
   -1.8750   14.5350   -0.8340 C   0  0  0  0  0  0  0  0  0  0  0  0
   -0.4640   14.1350    0.8230 C   0  0  0  0  0  0  0  0  0  0  0  0
   -2.4350   14.7150   -2.0430 N   0  0  0  0  0  0  0  0  0  0  0  0
   -2.4940   14.6540    0.4160 C   0  0  0  0  0  0  0  0  0  0  0  0
   -1.6000   14.4080    1.4490 N   0  0  0  0  0  0  0  0  0  0  0  0
   -3.7320   15.0400   -1.9310 C   0  0  0  0  0  0  0  0  0  0  0  0
   -3.8690   14.9900    0.4000 C   0  0  0  0  0  0  0  0  0  0  0  0
   -4.6310   15.1310    1.5640 N   0  0  0  0  0  0  0  0  0  0  0  0
   -4.4590   15.1820   -0.8070 N   0  0  0  0  0  0  0  0  0  0  0  0
   -6.0410   14.7830    1.4200 C   0  0  0  0  0  0  0  0  0  0  0  0
   -6.4080   13.3360    1.5230 C   0  0  0  0  0  0  0  0  0  0  0  0
   -6.3440   12.5930    0.3820 O   0  0  0  0  0  0  0  0  0  0  0  0
   -6.8270   12.5520    2.5780 C   0  0  0  0  0  0  0  0  0  0  0  0
   -7.0370   11.2600    2.0570 C   0  0  0  0  0  0  0  0  0  0  0  0
   -6.7290   11.3390    0.7190 C   0  0  0  0  0  0  0  0  0  0  0  0
  1  2  1  0
  2  3  1  0
  1  4  1  0
  4  5  1  0
  4  6  1  0
  3  7  1  0
  5  8  1  0
  6  9  1  0
  7 10  1  0
  7 11  1  0
  7 12  1  0
  8 13  1  0
  9 13  1  0
 12 14  1  0
 14 15  1  0
 14 16  1  0
 15 17  2  0
 15 18  1  0
 16 19  2  0
 18 19  1  0
 17 20  1  0
 18 21  2  0
 21 22  1  0
 20 23  2  0
 21 23  1  0
 22 24  1  0
 24 25  1  0
 25 26  1  0
 25 27  2  0
 27 28  1  0
 26 29  1  0
 28 29  2  0
M  END
