diamond-x0592_0_A-diamond-x0910_1_A
     RDKit          3D

 11 11  0  0  0  0  0  0  0  0999 V2000
   -2.7160   14.9090    1.0660 N   0  0  0  0  0  0  0  0  0  0  0  0
   -3.2690   14.9060   -0.1800 C   0  0  0  0  0  0  0  0  0  0  0  0
   -2.5570   14.9110   -1.1790 O   0  0  0  0  0  0  0  0  0  0  0  0
   -4.7110   14.8830   -0.2380 C   0  0  0  0  0  0  0  0  0  0  0  0
   -5.5300   15.1740   -1.3570 C   0  0  0  0  0  0  0  0  0  0  0  0
   -5.6160   14.5790    0.7600 C   0  0  0  0  0  0  0  0  0  0  0  0
   -6.8370   15.0640   -1.0870 N   0  0  0  0  0  0  0  0  0  0  0  0
   -6.8580   14.7000    0.2100 N   0  0  0  0  0  0  0  0  0  0  0  0
   -8.1220   14.4790    0.8910 C   0  0  0  0  0  0  0  0  0  0  0  0
   -7.9050   14.0590    2.3440 C   0  0  0  0  0  0  0  0  0  0  0  0
   -7.2020   15.0560    3.0870 O   0  0  0  0  0  0  0  0  0  0  0  0
  1  2  1  0
  2  3  2  0
  2  4  1  0
  4  5  1  0
  4  6  2  0
  5  7  2  0
  6  8  1  0
  7  8  1  0
  8  9  1  0
  9 10  1  0
 10 11  1  0
M  END
