diamond-x0864_0_A-mac-x0527
     RDKit          3D

 22 23  0  0  0  0  0  0  0  0999 V2000
    1.5690   11.6940   -6.9540 O   0  0  0  0  0  0  0  0  0  0  0  0
    0.5410   11.4080   -6.3560 C   0  0  0  0  0  0  0  0  0  0  0  0
    0.0430   12.1450   -5.3010 N   0  0  0  0  0  0  0  0  0  0  0  0
   -0.2440   10.2240   -6.7140 C   0  0  0  0  0  0  0  0  0  0  0  0
    1.0380   12.7880   -4.4540 C   0  0  0  0  0  0  0  0  0  0  0  0
   -1.3250   12.3740   -5.1870 C   0  0  0  0  0  0  0  0  0  0  0  0
   -1.5390   10.2160   -6.3930 C   0  0  0  0  0  0  0  0  0  0  0  0
    0.9750   12.2490   -3.0310 C   0  0  0  0  0  0  0  0  0  0  0  0
   -2.5880    8.7290   -6.8310 Br  0  0  0  0  0  0  0  0  0  0  0  0
   -1.8050   13.7130   -4.5380 C   0  0  0  0  0  0  0  0  0  0  0  0
   -2.1290   11.3890   -5.7230 C   0  0  0  0  0  0  0  0  0  0  0  0
    0.5220   10.9760   -2.9330 O   0  0  0  0  0  0  0  0  0  0  0  0
    1.3020   12.8930   -2.0500 O   0  0  0  0  0  0  0  0  0  0  0  0
   -2.3430   13.7190   -3.1720 N   0  0  0  0  0  0  0  0  0  0  0  0
   -3.1380   14.8170   -2.8220 C   0  0  0  0  0  0  0  0  0  0  0  0
   -3.3700   15.7100   -3.6210 O   0  0  0  0  0  0  0  0  0  0  0  0
   -3.7360   14.8870   -1.4410 C   0  0  0  0  0  0  0  0  0  0  0  0
   -5.1100   15.0510   -1.3110 C   0  0  0  0  0  0  0  0  0  0  0  0
   -2.9090   14.7950   -0.3510 N   0  0  0  0  0  0  0  0  0  0  0  0
   -5.7220   15.1250   -0.1020 N   0  0  0  0  0  0  0  0  0  0  0  0
   -3.5370   14.8730    0.8530 C   0  0  0  0  0  0  0  0  0  0  0  0
   -4.9080   15.0330    0.9760 C   0  0  0  0  0  0  0  0  0  0  0  0
  1  2  2  0
  2  3  1  0
  2  4  1  0
  3  5  1  0
  3  6  1  0
  4  7  2  0
  5  8  1  0
  7  9  1  0
  6 10  1  0
  6 11  2  0
  7 11  1  0
  8 12  1  0
  8 13  2  0
 10 14  1  0
 14 15  1  0
 15 16  2  0
 15 17  1  0
 17 18  2  0
 17 19  1  0
 18 20  1  0
 19 21  2  0
 20 22  2  0
 21 22  1  0
M  END
