diamond-x0159_0_B-diamond-x0628_0_A
     RDKit          3D

 32 35  0  0  0  0  0  0  0  0999 V2000
    1.7170    8.8660  -10.2240 N   0  0  0  0  0  0  0  0  0  0  0  0
    2.2540    7.6580   -9.6210 C   0  0  0  0  0  0  0  0  0  0  0  0
    1.3620    7.2430   -8.4640 C   0  0  1  0  0  0  0  0  0  0  0  0
    2.3940    9.2550  -11.2940 C   0  0  0  0  0  0  0  0  0  0  0  0
    2.0970   10.4230  -11.9340 N   0  0  0  0  0  0  0  0  0  0  0  0
    3.3850    8.6280  -11.8600 N   0  0  0  0  0  0  0  0  0  0  0  0
   -0.0650    7.7640   -8.5830 C   0  0  0  0  0  0  0  0  0  0  0  0
    3.7610    9.4160  -12.9040 C   0  0  0  0  0  0  0  0  0  0  0  0
    2.9720   10.5560  -12.9830 C   0  0  0  0  0  0  0  0  0  0  0  0
    1.3040    5.7900   -8.1210 C   0  0  0  0  0  0  0  0  0  0  0  0
   -0.6720    8.1150   -7.2350 C   0  0  0  0  0  0  0  0  0  0  0  0
    1.7900    4.7520   -8.9130 C   0  0  0  0  0  0  0  0  0  0  0  0
    0.6990    5.4970   -6.9130 C   0  0  0  0  0  0  0  0  0  0  0  0
    3.1380   11.5390  -13.9540 C   0  0  0  0  0  0  0  0  0  0  0  0
    4.7820    9.2150  -13.8340 C   0  0  0  0  0  0  0  0  0  0  0  0
   -1.5450    9.3360   -7.4150 C   0  0  0  0  0  0  0  0  0  0  0  0
    1.6520    3.4410   -8.4760 C   0  0  0  0  0  0  0  0  0  0  0  0
    0.5710    4.2050   -6.4900 C   0  0  0  0  0  0  0  0  0  0  0  0
    4.1670   11.3240  -14.8780 C   0  0  0  0  0  0  0  0  0  0  0  0
    4.9720   10.1850  -14.8200 C   0  0  0  0  0  0  0  0  0  0  0  0
    1.0470    3.1650   -7.2670 C   0  0  0  0  0  0  0  0  0  0  0  0
   -1.2170   10.4360   -6.4840 C   0  0  0  0  0  0  0  0  0  0  0  0
   -2.0270   10.7160   -5.4290 N   0  0  0  0  0  0  0  0  0  0  0  0
   -0.1430   11.2290   -6.6050 N   0  0  0  0  0  0  0  0  0  0  0  0
   -0.3080   12.0640   -5.5560 N   0  0  0  0  0  0  0  0  0  0  0  0
   -1.4440   11.7440   -4.8530 C   0  0  0  0  0  0  0  0  0  0  0  0
   -1.9350   12.4490   -3.6520 C   0  0  0  0  0  0  0  0  0  0  0  0
    0.6630   13.1280   -5.3250 C   0  0  0  0  0  0  0  0  0  0  0  0
    1.6610   12.8730   -4.1950 C   0  0  0  0  0  0  0  0  0  0  0  0
    1.0240   12.2210   -2.9970 C   0  0  0  0  0  0  0  0  0  0  0  0
    0.4910   11.1240   -2.9820 O   0  0  0  0  0  0  0  0  0  0  0  0
    1.1020   12.9860   -1.8880 O   0  0  0  0  0  0  0  0  0  0  0  0
  1  2  1  0
  3  2  1  6
  1  4  1  0
  4  5  1  0
  4  6  2  0
  3  7  1  0
  6  8  1  0
  5  9  1  0
  8  9  2  0
  3 10  1  0
  7 11  1  0
 10 12  2  0
 10 13  1  0
  9 14  1  0
  8 15  1  0
 11 16  1  0
 12 17  1  0
 13 18  2  0
 14 19  2  0
 15 20  2  0
 19 20  1  0
 17 21  2  0
 18 21  1  0
 16 22  1  0
 22 23  1  0
 22 24  2  0
 24 25  1  0
 23 26  2  0
 25 26  1  0
 26 27  1  0
 25 28  1  0
 28 29  1  0
 29 30  1  0
 30 31  2  0
 30 32  1  0
M  END
