diamond-x0465_0_A-diamond-x0628_0_A
     RDKit          3D

 14 14  0  0  0  0  0  0  0  0999 V2000
    2.0130   13.2480   -4.9360 C   0  0  0  0  0  0  0  0  0  0  0  0
    0.6940   12.5540   -4.6430 C   0  0  1  0  0  0  0  0  0  0  0  0
    0.5940   11.4040   -5.5080 O   0  0  0  0  0  0  0  0  0  0  0  0
    0.7400   12.1060   -3.1770 C   0  0  0  0  0  0  0  0  0  0  0  0
    1.0340   12.8440   -2.2490 O   0  0  0  0  0  0  0  0  0  0  0  0
    0.4290   10.8010   -2.9760 O   0  0  0  0  0  0  0  0  0  0  0  0
   -0.6420   10.7960   -5.6510 C   0  0  0  0  0  0  0  0  0  0  0  0
   -0.7130    9.7450   -6.5820 C   0  0  0  0  0  0  0  0  0  0  0  0
   -1.8040   11.1650   -4.9270 C   0  0  0  0  0  0  0  0  0  0  0  0
    0.3700    9.3760   -7.2830 F   0  0  0  0  0  0  0  0  0  0  0  0
   -1.8680   12.2690   -3.9080 C   0  0  0  0  0  0  0  0  0  0  0  0
   -1.8940    9.0550   -6.8070 C   0  0  0  0  0  0  0  0  0  0  0  0
   -2.9890   10.4510   -5.1750 C   0  0  0  0  0  0  0  0  0  0  0  0
   -3.0350    9.4100   -6.0990 C   0  0  0  0  0  0  0  0  0  0  0  0
  2  1  1  6
  2  3  1  0
  2  4  1  0
  4  5  2  0
  4  6  1  0
  3  7  1  0
  7  8  2  0
  7  9  1  0
  8 10  1  0
  9 11  1  0
  8 12  1  0
  9 13  2  0
 12 14  2  0
 13 14  1  0
M  END
