diamond-x0626_0_A-mac-x0305
     RDKit          3D

 14 14  0  0  0  0  0  0  0  0999 V2000
   -4.8440   14.9890    1.3390 N   0  0  0  0  0  0  0  0  0  0  0  0
   -5.9960   14.7390    0.6570 C   0  0  0  0  0  0  0  0  0  0  0  0
   -6.0160   14.8690   -0.5740 O   0  0  0  0  0  0  0  0  0  0  0  0
   -3.5750   14.7590    0.8960 C   0  0  0  0  0  0  0  0  0  0  0  0
   -7.2200   14.3080    1.4490 C   0  0  0  0  0  0  0  0  0  0  0  0
   -2.5020   14.6320    1.6350 N   0  0  0  0  0  0  0  0  0  0  0  0
   -3.3550   14.6030   -0.7940 S   0  0  0  0  0  0  0  0  0  0  0  0
   -8.5180   14.6920    0.7620 C   0  0  0  0  0  0  0  0  0  0  0  0
   -1.6750   14.3210   -0.5220 C   0  0  0  0  0  0  0  0  0  0  0  0
   -1.4280   14.3900    0.8260 C   0  0  0  0  0  0  0  0  0  0  0  0
   -0.1140   14.2100    1.4490 C   0  0  0  0  0  0  0  0  0  0  0  0
   -0.6640   14.0400   -1.5120 C   0  0  0  0  0  0  0  0  0  0  0  0
    0.2820   13.1860   -1.0270 O   0  0  0  0  0  0  0  0  0  0  0  0
   -0.5670   14.4380   -2.6660 O   0  0  0  0  0  0  0  0  0  0  0  0
  1  2  1  0
  2  3  2  0
  1  4  1  0
  2  5  1  0
  4  6  2  0
  4  7  1  0
  5  8  1  0
  7  9  1  0
  6 10  1  0
  9 10  2  0
 10 11  1  0
  9 12  1  0
 12 13  1  0
 12 14  2  0
M  END
