diamond-x0950_0_A-diamond-x0895_0_A
     RDKit          3D

 16 16  0  0  0  0  0  0  0  0999 V2000
    2.9060   12.9570   -4.2510 C   0  0  0  0  0  0  0  0  0  0  0  0
    1.4240   12.8430   -4.5200 C   0  0  1  0  0  0  0  0  0  0  0  0
    1.1860   11.9770   -5.6250 O   0  0  0  0  0  0  0  0  0  0  0  0
    0.7040   12.3770   -3.2630 C   0  0  0  0  0  0  0  0  0  0  0  0
    0.5380   11.1970   -2.9480 O   0  0  0  0  0  0  0  0  0  0  0  0
    0.2930   13.4660   -2.5680 O   0  0  0  0  0  0  0  0  0  0  0  0
    0.6040   13.4630   -1.1860 C   0  0  0  0  0  0  0  0  0  0  0  0
   -0.5610   14.0640   -0.4140 C   0  0  0  0  0  0  0  0  0  0  0  0
   -0.2670   14.3280    1.0640 C   0  0  0  0  0  0  0  0  0  0  0  0
   -1.5250   14.4820    1.8030 N   0  0  0  0  0  0  0  0  0  0  0  0
   -2.6280   14.7260    1.1830 C   0  0  0  0  0  0  0  0  0  0  0  0
   -4.0200   14.9100    1.7420 C   0  0  0  0  0  0  0  0  0  0  0  0
   -2.6930   14.8540   -0.1660 N   0  0  0  0  0  0  0  0  0  0  0  0
   -4.6530   15.4870    0.5960 N   0  0  0  0  0  0  0  0  0  0  0  0
   -3.9390   15.2170   -0.5370 C   0  0  0  0  0  0  0  0  0  0  0  0
   -4.3670   15.2940   -1.6710 O   0  0  0  0  0  0  0  0  0  0  0  0
  2  1  1  1
  2  3  1  0
  2  4  1  0
  4  5  2  0
  4  6  1  0
  6  7  1  0
  7  8  1  0
  8  9  1  0
  9 10  1  0
 10 11  2  3
 11 12  1  0
 11 13  1  0
 12 14  1  0
 13 15  1  0
 14 15  1  0
 15 16  2  0
M  END
