diamond-x0855_0_A-mac-x0138
     RDKit          3D

 24 26  0  0  0  0  0  0  0  0999 V2000
    1.9510   12.6010   -2.5770 O   0  0  0  0  0  0  0  0  0  0  0  0
    0.9220   11.8600   -3.0360 C   0  0  0  0  0  0  0  0  0  0  0  0
    0.0040   12.6170   -3.9270 C   0  0  1  0  0  0  0  0  0  0  0  0
    0.7760   10.6940   -2.7180 O   0  0  0  0  0  0  0  0  0  0  0  0
    0.6290   13.9230   -4.4200 C   0  0  0  0  0  0  0  0  0  0  0  0
   -0.6960   11.7290   -4.8420 N   0  0  0  0  0  0  0  0  0  0  0  0
   -0.0200   15.0660   -3.6240 C   0  0  0  0  0  0  0  0  0  0  0  0
   -0.2670   10.9570   -5.8890 C   0  0  0  0  0  0  0  0  0  0  0  0
   -2.0230   11.6240   -4.6220 N   0  0  0  0  0  0  0  0  0  0  0  0
   -1.5380   14.8890   -3.6110 C   0  0  0  0  0  0  0  0  0  0  0  0
   -1.3970   10.3140   -6.3370 C   0  0  0  0  0  0  0  0  0  0  0  0
   -2.4440   10.7610   -5.5350 C   0  0  0  0  0  0  0  0  0  0  0  0
   -1.5820    9.0800   -7.7200 Br  0  0  0  0  0  0  0  0  0  0  0  0
   -2.3150   14.9990   -2.3770 N   0  0  0  0  0  0  0  0  0  0  0  0
   -3.6310   15.3540   -2.4560 C   0  0  0  0  0  0  0  0  0  0  0  0
   -2.0180   14.8160   -1.0220 C   0  0  0  0  0  0  0  0  0  0  0  0
   -4.2060   15.4280   -1.2940 N   0  0  0  0  0  0  0  0  0  0  0  0
   -3.2270   15.1070   -0.3930 C   0  0  0  0  0  0  0  0  0  0  0  0
   -0.8720   14.4570   -0.3780 N   0  0  0  0  0  0  0  0  0  0  0  0
   -3.2620   15.0370    0.9920 C   0  0  0  0  0  0  0  0  0  0  0  0
   -1.0350   14.4130    0.9760 C   0  0  0  0  0  0  0  0  0  0  0  0
   -4.4140   15.3300    1.7000 N   0  0  0  0  0  0  0  0  0  0  0  0
    0.0260   14.0650    1.7980 N   0  0  0  0  0  0  0  0  0  0  0  0
   -2.1440   14.6820    1.6610 N   0  0  0  0  0  0  0  0  0  0  0  0
  1  2  1  0
  2  3  1  0
  2  4  2  0
  3  5  1  6
  3  6  1  0
  5  7  1  0
  6  8  1  0
  6  9  1  0
  7 10  1  0
  8 11  2  0
  9 12  2  0
 11 12  1  0
 11 13  1  0
 10 14  1  0
 14 15  1  0
 14 16  1  0
 15 17  2  0
 16 18  2  0
 17 18  1  0
 16 19  1  0
 18 20  1  0
 19 21  2  0
 20 22  1  0
 21 23  1  0
 20 24  2  0
 21 24  1  0
M  END
