diamond-x0685_1_A-mac-x0576
     RDKit          3D

 27 29  0  0  0  0  0  0  0  0999 V2000
   -1.4630   10.5710   -4.9690 N   0  0  0  0  0  0  0  0  0  0  0  0
   -1.1400   11.9980   -4.9070 C   0  0  0  0  0  0  0  0  0  0  0  0
    0.3570   12.2560   -5.0080 C   0  0  0  0  0  0  0  0  0  0  0  0
   -1.5210    9.9990   -6.3200 C   0  0  0  0  0  0  0  0  0  0  0  0
   -0.6600    8.7340   -6.4610 C   0  0  0  0  0  0  0  0  0  0  0  0
   -1.1220   11.0790   -7.3510 C   0  0  0  0  0  0  0  0  0  0  0  0
    1.0710   12.4360   -3.3890 S   0  0  0  0  0  0  0  0  0  0  0  0
    0.1560    8.7350   -7.7550 C   0  0  0  0  0  0  0  0  0  0  0  0
   -1.1530   10.6090   -8.8070 C   0  0  0  0  0  0  0  0  0  0  0  0
    2.6360   12.1530   -3.4620 O   0  0  0  0  0  0  0  0  0  0  0  0
    0.3360   11.4080   -2.3880 O   0  0  0  0  0  0  0  0  0  0  0  0
    0.9270   13.9880   -3.1200 O   0  0  0  0  0  0  0  0  0  0  0  0
   -0.6590    9.1780   -8.9700 C   0  0  0  0  0  0  0  0  0  0  0  0
    0.2560   14.4580   -2.0130 C   0  0  0  0  0  0  0  0  0  0  0  0
   -1.1680   14.6020   -2.1800 N   0  0  0  0  0  0  0  0  0  0  0  0
   -1.7000   14.8720   -1.0810 C   0  0  0  0  0  0  0  0  0  0  0  0
   -0.7830   14.9480   -0.0940 N   0  0  0  0  0  0  0  0  0  0  0  0
   -3.1470   15.1390   -0.6680 C   0  0  2  0  0  0  0  0  0  0  0  0
   -1.0160   14.1290    0.9990 C   0  0  1  0  0  0  0  0  0  0  0  0
   -3.2160   15.1600    0.8880 C   0  0  2  0  0  0  0  0  0  0  0  0
   -4.1710   14.2940   -1.2770 N   0  0  0  0  0  0  0  0  0  0  0  0
   -0.0300   14.1730    2.0440 N   0  0  0  0  0  0  0  0  0  0  0  0
   -2.2880   14.3140    1.6510 N   0  0  0  0  0  0  0  0  0  0  0  0
   -4.5230   14.9090    1.4130 N   0  0  0  0  0  0  0  0  0  0  0  0
   -5.4660   14.8650   -0.8730 C   0  0  0  0  0  0  0  0  0  0  0  0
   -5.6460   14.8560    0.6440 C   0  0  0  0  0  0  0  0  0  0  0  0
   -6.7570   14.8070    1.1670 O   0  0  0  0  0  0  0  0  0  0  0  0
  1  2  1  0
  2  3  1  0
  1  4  1  0
  4  5  1  0
  4  6  1  0
  3  7  1  0
  5  8  1  0
  6  9  1  0
  7 10  1  0
  7 11  1  0
  7 12  1  0
  8 13  1  0
  9 13  1  0
 12 14  1  0
 14 15  1  0
 15 16  2  3
 16 17  1  0
 16 18  1  0
 17 19  1  0
 18 20  1  0
 18 21  1  1
 19 22  1  1
 19 23  1  0
 20 23  1  1
 20 24  1  0
 21 25  1  0
 24 26  1  0
 25 26  1  0
 26 27  2  0
M  END
