diamond-x0837_0_A-mac-x0190
     RDKit          3D

 12 13  0  0  0  0  0  0  0  0999 V2000
   -2.7820   14.3240   -2.5800 I   0  0  0  0  0  0  0  0  0  0  0  0
   -3.9700   15.3750   -1.1230 C   0  0  2  0  0  0  0  0  0  0  0  0
   -3.4370   15.1200    0.2790 C   0  0  0  0  0  0  0  0  0  0  0  0
   -5.4620   15.0660   -1.3490 C   0  0  0  0  0  0  0  0  0  0  0  0
   -4.2910   14.9860    1.2930 C   0  0  0  0  0  0  0  0  0  0  0  0
   -6.1160   14.4330   -0.1390 C   0  0  1  0  0  0  0  0  0  0  0  0
   -5.6290   15.0670    1.0640 N   0  0  0  0  0  0  0  0  0  0  0  0
   -7.5630   14.4160   -0.0320 N   0  0  0  0  0  0  0  0  0  0  0  0
   -7.5730   13.9220    1.3720 C   0  0  1  0  0  0  0  0  0  0  0  0
   -6.5320   14.7000    2.1010 N   0  0  0  0  0  0  0  0  0  0  0  0
   -8.9360   14.0230    2.0780 C   0  0  0  0  0  0  0  0  0  0  0  0
   -9.3290   15.3800    2.2650 O   0  0  0  0  0  0  0  0  0  0  0  0
  2  1  1  6
  2  3  1  0
  2  4  1  0
  3  5  2  0
  6  4  1  6
  5  7  1  0
  6  7  1  0
  6  8  1  0
  8  9  1  0
  7 10  1  0
  9 10  1  0
  9 11  1  1
 11 12  1  0
M  END
