diamond-x0628_0_A-mac-x0132
     RDKit          3D

 25 27  0  0  0  0  0  0  0  0999 V2000
   -0.8150    8.9900   -7.1710 C   0  0  0  0  0  0  0  0  0  0  0  0
   -0.8600   10.2460   -6.4000 C   0  0  0  0  0  0  0  0  0  0  0  0
   -1.9440   10.6260   -5.6540 N   0  0  0  0  0  0  0  0  0  0  0  0
    0.1620   11.1040   -6.3740 N   0  0  0  0  0  0  0  0  0  0  0  0
   -0.3040   12.0730   -5.5660 N   0  0  0  0  0  0  0  0  0  0  0  0
   -1.5780   11.7880   -5.1330 C   0  0  0  0  0  0  0  0  0  0  0  0
   -2.4050   12.6430   -4.2320 C   0  0  0  0  0  0  0  0  0  0  0  0
    0.5400   13.2190   -5.2770 C   0  0  0  0  0  0  0  0  0  0  0  0
    1.6330   12.9220   -4.2470 C   0  0  0  0  0  0  0  0  0  0  0  0
   -3.4780   13.4830   -4.9490 C   0  0  0  0  0  0  0  0  0  0  0  0
    1.0690   12.2630   -3.0130 C   0  0  0  0  0  0  0  0  0  0  0  0
   -3.7690   14.8870   -4.3830 C   0  0  0  0  0  0  0  0  0  0  0  0
    0.5400   11.1610   -2.9950 O   0  0  0  0  0  0  0  0  0  0  0  0
    1.1960   12.9940   -1.8890 O   0  0  0  0  0  0  0  0  0  0  0  0
   -4.1760   14.9230   -2.9240 C   0  0  0  0  0  0  0  0  0  0  0  0
   -5.5150   14.7430   -2.5220 C   0  0  0  0  0  0  0  0  0  0  0  0
   -3.2140   15.1320   -1.9470 C   0  0  0  0  0  0  0  0  0  0  0  0
   -5.8980   14.7590   -1.1820 C   0  0  0  0  0  0  0  0  0  0  0  0
   -3.5720   15.1600   -0.6080 C   0  0  0  0  0  0  0  0  0  0  0  0
   -4.9090   14.9700   -0.2210 C   0  0  0  0  0  0  0  0  0  0  0  0
   -7.1930   14.5690   -0.8570 N   0  0  0  0  0  0  0  0  0  0  0  0
   -5.3390   14.9730    1.0920 C   0  0  0  0  0  0  0  0  0  0  0  0
   -7.4840   14.5850    0.4550 C   0  0  0  0  0  0  0  0  0  0  0  0
   -4.4330   15.1870    2.1210 N   0  0  0  0  0  0  0  0  0  0  0  0
   -6.6200   14.7770    1.4540 N   0  0  0  0  0  0  0  0  0  0  0  0
  1  2  1  0
  2  3  1  0
  2  4  2  0
  4  5  1  0
  3  6  2  0
  5  6  1  0
  6  7  1  0
  5  8  1  0
  8  9  1  0
  7 10  1  0
  9 11  1  0
 10 12  1  0
 11 13  2  0
 11 14  1  0
 12 15  1  0
 15 16  2  0
 15 17  1  0
 16 18  1  0
 17 19  2  0
 18 20  2  0
 19 20  1  0
 18 21  1  0
 20 22  1  0
 21 23  2  0
 22 24  1  0
 22 25  2  0
 23 25  1  0
M  END
