diamond-x0421_0_A-mac-x0341
     RDKit          3D

 18 20  0  0  0  0  0  0  0  0999 V2000
   -3.1040   13.4970   -2.5760 N   0  0  0  0  0  0  0  0  0  0  0  0
   -2.2700   13.7200   -1.5170 C   0  0  0  0  0  0  0  0  0  0  0  0
   -1.1240   14.1090   -1.7380 O   0  0  0  0  0  0  0  0  0  0  0  0
   -2.8150   13.5190   -0.1050 C   0  0  0  0  0  0  0  0  0  0  0  0
   -3.6010   14.7310    0.1750 C   0  0  1  0  0  0  0  0  0  0  0  0
   -3.9170   15.0910    1.6100 N   0  0  0  0  0  0  0  0  0  0  0  0
   -2.7050   15.6750   -0.5810 C   0  0  0  0  0  0  0  0  0  0  0  0
   -5.0080   14.3820   -0.4170 C   0  0  1  0  0  0  0  0  0  0  0  0
   -3.4240   14.3880    2.6730 N   0  0  0  0  0  0  0  0  0  0  0  0
   -5.9540   14.8200    0.6920 C   0  0  0  0  0  0  0  0  0  0  0  0
   -5.1880   14.8050   -1.8830 C   0  0  0  0  0  0  0  0  0  0  0  0
   -3.0020   15.9890   -1.8300 C   0  0  0  0  0  0  0  0  0  0  0  0
   -5.2570   15.1940    1.7520 C   0  0  0  0  0  0  0  0  0  0  0  0
   -6.2690   14.3910   -2.3750 O   0  0  0  0  0  0  0  0  0  0  0  0
   -7.3800   14.7910    0.5880 C   0  0  0  0  0  0  0  0  0  0  0  0
   -4.2030   15.5200   -2.4680 C   0  0  0  0  0  0  0  0  0  0  0  0
   -8.0670   13.4630    0.5960 C   0  0  0  0  0  0  0  0  0  0  0  0
   -8.1660   14.3500    1.7910 C   0  0  0  0  0  0  0  0  0  0  0  0
  1  2  1  0
  2  3  2  0
  2  4  1  0
  5  4  1  1
  5  6  1  0
  5  7  1  0
  5  8  1  0
  6  9  1  0
  8 10  1  1
  8 11  1  0
  7 12  2  0
  6 13  1  0
 10 13  2  0
 11 14  1  0
 10 15  1  0
 11 16  2  0
 12 16  1  0
 15 17  1  0
 15 18  1  0
 17 18  1  0
M  CHG  1  14  -1
M  END
