diamond-x0685_0_A-mac-x0337
     RDKit          3D

 21 22  0  0  0  0  0  0  0  0999 V2000
   -6.5890   14.9560    2.9740 N   0  0  0  0  0  0  0  0  0  0  0  0
   -7.9900   14.7670    3.0200 C   0  0  0  0  0  0  0  0  0  0  0  0
   -8.3350   13.3120    3.0630 C   0  0  0  0  0  0  0  0  0  0  0  0
   -5.9020   15.0630    1.7490 C   0  0  0  0  0  0  0  0  0  0  0  0
   -4.5940   15.4760    1.7510 C   0  0  0  0  0  0  0  0  0  0  0  0
   -6.4860   14.7910    0.5630 N   0  0  0  0  0  0  0  0  0  0  0  0
   -3.9650   15.5640    0.5870 C   0  0  0  0  0  0  0  0  0  0  0  0
   -5.8770   14.8780   -0.6190 C   0  0  0  0  0  0  0  0  0  0  0  0
   -4.5750   15.2620   -0.6230 C   0  0  0  0  0  0  0  0  0  0  0  0
   -3.6890   15.3590   -1.7400 C   0  0  2  0  0  0  0  0  0  0  0  0
   -4.4100   15.1600   -3.0380 N   0  0  0  0  0  0  0  0  0  0  0  0
   -2.9740   14.0840   -1.2780 S   0  0  0  0  0  0  0  0  0  0  0  0
   -2.0700   13.9390   -2.4030 O   0  0  0  0  0  0  0  0  0  0  0  0
   -3.5880   14.1810    0.1510 N   0  0  0  0  0  0  0  0  0  0  0  0
   -3.8190   12.6400   -1.5090 C   0  0  0  0  0  0  0  0  0  0  0  0
   -3.3370   11.6620   -2.3580 C   0  0  0  0  0  0  0  0  0  0  0  0
   -5.0200   12.3760   -0.8850 C   0  0  0  0  0  0  0  0  0  0  0  0
   -4.0130   10.4960   -2.5760 C   0  0  0  0  0  0  0  0  0  0  0  0
   -5.7150   11.2040   -1.0950 C   0  0  0  0  0  0  0  0  0  0  0  0
   -5.2170   10.2560   -1.9450 C   0  0  0  0  0  0  0  0  0  0  0  0
   -5.9830    9.0070   -2.1510 C   0  0  0  0  0  0  0  0  0  0  0  0
  1  2  1  0
  2  3  1  0
  1  4  1  0
  4  5  2  0
  4  6  1  0
  5  7  1  0
  6  8  2  0
  7  9  2  0
  8  9  1  0
  9 10  1  0
 10 11  1  6
 10 12  1  0
 12 13  2  0
 12 14  1  0
 12 15  1  0
 15 16  2  0
 15 17  1  0
 16 18  1  0
 17 19  2  0
 18 20  2  0
 19 20  1  0
 20 21  1  0
M  END
