diamond-x0969_0_A-mac-x0204
     RDKit          3D

 22 24  0  0  0  0  0  0  0  0999 V2000
   -6.8260   14.7300    2.6130 N   0  0  0  0  0  0  0  0  0  0  0  0
   -6.5950   14.7290    1.2840 C   0  0  0  0  0  0  0  0  0  0  0  0
   -7.4900   14.5380    0.3390 N   0  0  0  0  0  0  0  0  0  0  0  0
   -5.3530   14.9470    0.7030 N   0  0  0  0  0  0  0  0  0  0  0  0
   -6.8650   14.6250   -0.8830 N   0  0  0  0  0  0  0  0  0  0  0  0
   -5.5950   14.8690   -0.6600 C   0  0  0  0  0  0  0  0  0  0  0  0
   -4.0930   15.2000    1.2440 C   0  0  0  0  0  0  0  0  0  0  0  0
   -4.4950   15.0510   -1.5280 C   0  0  0  0  0  0  0  0  0  0  0  0
   -3.0480   15.3750    0.4190 C   0  0  0  0  0  0  0  0  0  0  0  0
   -3.2710   15.2900   -1.0190 C   0  0  0  0  0  0  0  0  0  0  0  0
   -2.1100   15.4730   -1.9320 C   0  0  0  0  0  0  0  0  0  0  0  0
   -0.7280   14.9780   -1.4670 C   0  0  0  0  0  0  0  0  0  0  0  0
    0.0730   14.3650   -2.6300 C   0  0  0  0  0  0  0  0  0  0  0  0
    0.5380   13.0710   -2.2690 O   0  0  0  0  0  0  0  0  0  0  0  0
    1.2340   15.1250   -2.8780 O   0  0  0  0  0  0  0  0  0  0  0  0
   -0.8740   14.2440   -3.8070 C   0  0  0  0  0  0  0  0  0  0  0  0
   -1.5190   15.3630   -4.3630 C   0  0  0  0  0  0  0  0  0  0  0  0
   -1.1670   13.0140   -4.3870 C   0  0  0  0  0  0  0  0  0  0  0  0
   -2.4000   15.2050   -5.4190 C   0  0  0  0  0  0  0  0  0  0  0  0
   -2.0260   12.8280   -5.4200 N   0  0  0  0  0  0  0  0  0  0  0  0
   -3.0430   16.2700   -5.9800 O   0  0  0  0  0  0  0  0  0  0  0  0
   -2.6270   13.9340   -5.9120 C   0  0  0  0  0  0  0  0  0  0  0  0
  1  2  1  0
  2  3  2  0
  2  4  1  0
  3  5  1  0
  4  6  1  0
  5  6  2  0
  4  7  1  0
  6  8  1  0
  7  9  2  0
  8 10  2  0
  9 10  1  0
 10 11  1  0
 11 12  1  0
 12 13  1  0
 13 14  1  0
 13 15  1  0
 13 16  1  0
 16 17  2  0
 16 18  1  0
 17 19  1  0
 18 20  2  0
 19 21  1  0
 19 22  2  0
 20 22  1  0
M  END
