diamond-x0685_1_A-diamond-x0689_0_A
     RDKit          3D

 21 22  0  0  0  0  0  0  0  0999 V2000
   -0.6990   10.7290   -4.8880 N   0  0  0  0  0  0  0  0  0  0  0  0
   -1.3470   11.9590   -4.4100 C   0  0  0  0  0  0  0  0  0  0  0  0
   -0.3080   12.9540   -3.8810 C   0  0  0  0  0  0  0  0  0  0  0  0
   -1.1350   10.1570   -6.1800 C   0  0  0  0  0  0  0  0  0  0  0  0
   -0.1310    9.1220   -6.7130 C   0  0  0  0  0  0  0  0  0  0  0  0
   -1.5520   11.1770   -7.2630 C   0  0  0  0  0  0  0  0  0  0  0  0
    0.7100   12.3370   -2.5250 S   0  0  0  0  0  0  0  0  0  0  0  0
   -0.6510    8.3770   -7.9230 C   0  0  0  0  0  0  0  0  0  0  0  0
   -1.0200   10.8180   -8.6480 C   0  0  0  0  0  0  0  0  0  0  0  0
    2.1790   12.2130   -3.1560 O   0  0  0  0  0  0  0  0  0  0  0  0
    0.1700   10.8430   -2.1970 O   0  0  0  0  0  0  0  0  0  0  0  0
    0.6940   13.3420   -1.2270 O   0  0  0  0  0  0  0  0  0  0  0  0
   -1.1970    9.3340   -8.9870 C   0  0  0  0  0  0  0  0  0  0  0  0
   -0.3920   13.8300   -0.5400 C   0  0  0  0  0  0  0  0  0  0  0  0
   -1.5580   14.2610   -1.0940 C   0  0  0  0  0  0  0  0  0  0  0  0
   -0.3690   13.9230    0.8540 C   0  0  0  0  0  0  0  0  0  0  0  0
   -2.5950   14.7200   -0.3730 N   0  0  0  0  0  0  0  0  0  0  0  0
   -1.3850   14.3820    1.6250 N   0  0  0  0  0  0  0  0  0  0  0  0
   -2.4780   14.7590    0.9590 C   0  0  0  0  0  0  0  0  0  0  0  0
   -3.5430   15.2150    1.7050 N   0  0  0  0  0  0  0  0  0  0  0  0
   -4.7060   15.4140    0.8850 C   0  0  0  0  0  0  0  0  0  0  0  0
  1  2  1  0
  2  3  1  0
  1  4  1  0
  4  5  1  0
  4  6  1  0
  3  7  1  0
  5  8  1  0
  6  9  1  0
  7 10  1  0
  7 11  1  0
  7 12  1  0
  8 13  1  0
  9 13  1  0
 12 14  1  0
 14 15  2  0
 14 16  1  0
 15 17  1  0
 16 18  2  0
 17 19  2  0
 18 19  1  0
 19 20  1  0
 20 21  1  0
M  END
