diamond-x0471_0_A-mac-x0590
     RDKit          3D

 28 31  0  0  0  0  0  0  0  0999 V2000
   -8.6660   14.2140    2.5880 N   0  0  0  0  0  0  0  0  0  0  0  0
   -8.9300   15.0420    3.6520 C   0  0  0  0  0  0  0  0  0  0  0  0
   -9.3590   16.1840    3.5060 O   0  0  0  0  0  0  0  0  0  0  0  0
   -8.6810   14.7310    1.2310 C   0  0  0  0  0  0  0  0  0  0  0  0
   -8.6710   14.4520    5.0380 C   0  0  0  0  0  0  0  0  0  0  0  0
   -7.2990   14.5960    0.6780 C   0  0  0  0  0  0  0  0  0  0  0  0
   -9.8830   13.6650    5.5370 C   0  0  0  0  0  0  0  0  0  0  0  0
   -8.2600   15.5330    6.0340 C   0  0  0  0  0  0  0  0  0  0  0  0
   -6.9570   14.9070   -0.6300 N   0  0  0  0  0  0  0  0  0  0  0  0
   -6.2460   14.1700    1.3390 N   0  0  0  0  0  0  0  0  0  0  0  0
   -5.2070   14.1970    0.4500 C   0  0  0  0  0  0  0  0  0  0  0  0
   -5.6100   14.6450   -0.7620 C   0  0  0  0  0  0  0  0  0  0  0  0
   -4.7230   14.7820   -1.9410 C   0  0  0  0  0  0  0  0  0  0  0  0
   -3.8070   13.7790    0.7350 C   0  0  0  0  0  0  0  0  0  0  0  0
   -3.2450   15.1610   -1.5190 C   0  0  1  0  0  0  0  0  0  0  0  0
   -2.7240   14.5350   -0.1190 C   0  0  1  0  0  0  0  0  0  0  0  0
   -2.2290   14.9950   -2.7630 C   0  0  0  0  0  0  0  0  0  0  0  0
   -2.0140   15.3970    0.8880 N   0  0  0  0  0  0  0  0  0  0  0  0
   -1.5060   13.6600   -0.4780 C   0  0  0  0  0  0  0  0  0  0  0  0
   -1.9420   13.6210   -3.4410 C   0  0  0  0  0  0  0  0  0  0  0  0
   -0.3840   14.5780   -0.4890 N   0  0  0  0  0  0  0  0  0  0  0  0
   -0.5650   15.2130    0.7750 C   0  0  0  0  0  0  0  0  0  0  0  0
   -0.8090   13.6460   -4.5240 C   0  0  0  0  0  0  0  0  0  0  0  0
    0.1120   12.3930   -4.6430 C   0  0  2  0  0  0  0  0  0  0  0  0
    0.6990   11.9740   -3.2880 C   0  0  0  0  0  0  0  0  0  0  0  0
    1.3780   12.6580   -5.4700 C   0  0  0  0  0  0  0  0  0  0  0  0
    2.4340   13.0160   -4.4450 C   0  0  0  0  0  0  0  0  0  0  0  0
    2.0980   12.3000   -3.2560 O   0  0  0  0  0  0  0  0  0  0  0  0
  1  2  1  0
  2  3  2  0
  1  4  1  0
  2  5  1  0
  4  6  1  0
  5  7  1  0
  5  8  1  0
  6  9  1  0
  6 10  2  0
 10 11  1  0
  9 12  1  0
 11 12  2  0
 12 13  1  0
 11 14  1  0
 13 15  1  0
 16 14  1  1
 15 16  1  0
 15 17  1  6
 16 18  1  0
 16 19  1  0
 17 20  1  0
 19 21  1  0
 18 22  1  0
 21 22  1  0
 20 23  1  0
 24 23  1  1
 24 25  1  0
 24 26  1  0
 26 27  1  0
 25 28  1  0
 27 28  1  0
M  END
