diamond-x0895_1_A-mac-x0341
     RDKit          3D

 11 12  0  0  0  0  0  0  0  0999 V2000
   -1.4010   14.6310    1.7850 O   0  0  0  0  0  0  0  0  0  0  0  0
   -2.4620   14.6370    1.1960 C   0  0  0  0  0  0  0  0  0  0  0  0
   -2.6670   14.4050   -0.3090 C   0  0  0  0  0  0  0  0  0  0  0  0
   -3.7000   14.8560    1.7780 N   0  0  0  0  0  0  0  0  0  0  0  0
   -4.6590   14.6850    0.8640 C   0  0  0  0  0  0  0  0  0  0  0  0
   -4.1540   14.4390   -0.3300 C   0  0  0  0  0  0  0  0  0  0  0  0
   -4.9840   14.2550   -1.3780 N   0  0  0  0  0  0  0  0  0  0  0  0
   -6.1090   14.7240    0.9700 C   0  0  0  0  0  0  0  0  0  0  0  0
   -6.8830   14.7640   -0.0700 N   0  0  0  0  0  0  0  0  0  0  0  0
   -6.2640   14.7670   -1.3070 C   0  0  0  0  0  0  0  0  0  0  0  0
   -6.7850   15.1890   -2.3250 O   0  0  0  0  0  0  0  0  0  0  0  0
  1  2  2  0
  2  3  1  0
  2  4  1  0
  4  5  1  0
  3  6  1  0
  5  6  2  0
  6  7  1  0
  5  8  1  0
  8  9  2  0
  7 10  1  0
  9 10  1  0
 10 11  2  0
M  END
