diamond-x0689_0_A-mac-x0510
     RDKit          3D

 12 13  0  0  0  0  0  0  0  0999 V2000
   -3.3440   15.7470    1.4840 N   0  0  0  0  0  0  0  0  0  0  0  0
   -2.7310   14.6670    0.8380 C   0  0  2  0  0  0  0  0  0  0  0  0
   -1.6730   14.1840    1.6650 N   0  0  0  0  0  0  0  0  0  0  0  0
   -2.4040   14.9390   -0.5050 N   0  0  0  0  0  0  0  0  0  0  0  0
   -3.7850   13.7640    0.9240 N   0  0  0  0  0  0  0  0  0  0  0  0
   -1.1940   14.5550   -1.0630 C   0  0  0  0  0  0  0  0  0  0  0  0
   -0.2980   14.2530    1.1800 C   0  0  0  0  0  0  0  0  0  0  0  0
   -4.9860   14.3830    0.4210 C   0  0  0  0  0  0  0  0  0  0  0  0
   -3.4850   15.2100   -1.3200 C   0  0  0  0  0  0  0  0  0  0  0  0
   -3.4240   15.4090   -2.5290 O   0  0  0  0  0  0  0  0  0  0  0  0
   -0.1680   14.2210   -0.2930 C   0  0  0  0  0  0  0  0  0  0  0  0
   -4.7050   15.2660   -0.6740 N   0  0  0  0  0  0  0  0  0  0  0  0
  2  1  1  1
  2  3  1  0
  2  4  1  0
  2  5  1  0
  4  6  1  0
  3  7  1  0
  5  8  1  0
  4  9  1  0
  9 10  2  0
  6 11  2  0
  7 11  1  0
  8 12  1  0
  9 12  1  0
M  END
