diamond-x0574_0_A-mac-x0182
     RDKit          3D

 26 29  0  0  0  0  0  0  0  0999 V2000
   -0.1610   14.1790    1.8100 N   0  0  0  0  0  0  0  0  0  0  0  0
   -0.5920   14.0920    0.4280 C   0  0  1  0  0  0  0  0  0  0  0  0
   -1.8890   13.4450    0.3670 N   0  0  0  0  0  0  0  0  0  0  0  0
   -0.8940   15.7250   -0.2380 S   0  0  0  0  0  0  0  0  0  0  0  0
   -2.2540   13.1410   -1.0720 C   0  0  0  0  0  0  0  0  0  0  0  0
   -2.7510   14.4280    1.0770 C   0  0  1  0  0  0  0  0  0  0  0  0
   -2.6450   15.7000    0.2640 C   0  0  2  0  0  0  0  0  0  0  0  0
   -1.1160   12.6620   -2.0380 C   0  0  0  0  0  0  0  0  0  0  0  0
   -4.2030   14.1460    1.4850 C   0  0  0  0  0  0  0  0  0  0  0  0
   -3.6100   15.7100   -0.8780 C   0  0  0  0  0  0  0  0  0  0  0  0
   -1.5600   12.1340   -3.3810 N   0  0  0  0  0  0  0  0  0  0  0  0
   -5.2610   14.2780    0.3790 C   0  0  2  0  0  0  0  0  0  0  0  0
   -4.7900   15.0720   -0.8130 C   0  0  0  0  0  0  0  0  0  0  0  0
   -6.4550   14.8970    0.8700 O   0  0  0  0  0  0  0  0  0  0  0  0
   -0.5920   11.1190   -4.0100 S   0  0  2  0  0  0  0  0  0  0  0  0
   -6.7720   14.5670    2.2200 C   0  0  0  0  0  0  0  0  0  0  0  0
    0.2540   10.2470   -3.2460 O   0  0  0  0  0  0  0  0  0  0  0  0
    0.4620   12.1310   -4.8740 N   0  0  0  0  0  0  0  0  0  0  0  0
   -1.1060   10.2470   -5.4370 C   0  0  0  0  0  0  0  0  0  0  0  0
    0.7160   11.6260   -6.1270 C   0  0  0  0  0  0  0  0  0  0  0  0
   -0.2990   10.6190   -6.5140 C   0  0  0  0  0  0  0  0  0  0  0  0
   -2.1220    9.3180   -5.5700 C   0  0  0  0  0  0  0  0  0  0  0  0
    1.6550   11.9280   -6.8350 O   0  0  0  0  0  0  0  0  0  0  0  0
   -2.3160    8.7510   -6.8380 C   0  0  0  0  0  0  0  0  0  0  0  0
   -0.4850   10.0610   -7.7740 C   0  0  0  0  0  0  0  0  0  0  0  0
   -1.5080    9.1160   -7.9310 C   0  0  0  0  0  0  0  0  0  0  0  0
  2  1  1  1
  2  3  1  0
  2  4  1  0
  3  5  1  0
  3  6  1  0
  4  7  1  0
  6  7  1  0
  5  8  1  0
  6  9  1  6
  7 10  1  6
  8 11  1  0
  9 12  1  0
 10 13  2  0
 12 13  1  0
 12 14  1  1
 11 15  2  0
 14 16  1  0
 15 17  2  0
 15 18  1  6
 15 19  1  0
 18 20  1  0
 19 21  2  0
 20 21  1  0
 19 22  1  0
 20 23  2  0
 22 24  2  0
 21 25  1  0
 24 26  1  0
 25 26  2  0
M  END
