diamond-x0722_0_A-diamond-x0592_0_A
     RDKit          3D

 20 21  0  0  0  0  0  0  0  0999 V2000
   -4.2980   15.8370    2.1810 C   0  0  0  0  0  0  0  0  0  0  0  0
   -3.2900   15.6400    1.0800 C   0  0  1  0  0  0  0  0  0  0  0  0
   -2.0990   15.0700    1.5960 N   0  0  0  0  0  0  0  0  0  0  0  0
   -3.5770   14.6430   -0.0760 C   0  0  2  0  0  0  0  0  0  0  0  0
   -2.1440   14.2780   -0.5370 C   0  0  2  0  0  0  0  0  0  0  0  0
   -1.3080   14.9660    0.4450 N   0  0  0  0  0  0  0  0  0  0  0  0
   -4.5340   15.3040   -1.0540 C   0  0  1  0  0  0  0  0  0  0  0  0
   -2.5790   13.8250    1.9210 N   0  0  0  0  0  0  0  0  0  0  0  0
   -0.0100   14.4260    0.7380 C   0  0  0  0  0  0  0  0  0  0  0  0
   -1.7860   14.5690   -1.9840 C   0  0  0  0  0  0  0  0  0  0  0  0
   -5.3540   14.5430   -2.0710 C   0  0  0  0  0  0  0  0  0  0  0  0
   -5.5540   15.9620   -0.2520 C   0  0  0  0  0  0  0  0  0  0  0  0
   -6.7750   14.5630   -1.6020 N   0  0  0  0  0  0  0  0  0  0  0  0
   -6.8080   15.2170   -0.3240 N   0  0  0  0  0  0  0  0  0  0  0  0
   -7.0480   14.2760    0.8300 C   0  0  0  0  0  0  0  0  0  0  0  0
   -7.1210   13.3490   -1.2840 N   0  0  0  0  0  0  0  0  0  0  0  0
   -7.9870   14.7520    1.9540 C   0  0  0  0  0  0  0  0  0  0  0  0
   -6.2250   12.9570   -0.4550 C   0  0  0  0  0  0  0  0  0  0  0  0
   -7.2850   15.1780    3.1290 O   0  0  0  0  0  0  0  0  0  0  0  0
   -6.1150   11.7820    0.1900 N   0  0  0  0  0  0  0  0  0  0  0  0
  2  1  1  1
  2  3  1  0
  2  4  1  0
  4  5  1  0
  3  6  1  0
  5  6  1  0
  4  7  1  6
  3  8  1  0
  6  9  1  0
  5 10  1  6
  7 11  1  6
  7 12  1  0
 11 13  1  0
 12 14  1  0
 13 14  1  0
 14 15  1  0
 13 16  1  0
 15 17  1  0
 16 18  2  3
 17 19  1  0
 18 20  1  0
M  END
