diamond-x0962_0_A-diamond-x0471_0_A
     RDKit          3D

 17 18  0  0  0  0  0  0  0  0999 V2000
   -2.8410   15.0520   -2.6480 N   0  0  0  0  0  0  0  0  0  0  0  0
   -3.3930   14.8040   -1.6590 C   0  0  0  0  0  0  0  0  0  0  0  0
   -3.9890   14.4500   -0.3690 C   0  0  1  0  0  0  0  0  0  0  0  0
   -3.0890   14.8040    0.7460 N   0  0  0  0  0  0  0  0  0  0  0  0
   -5.3180   15.1900   -0.0290 C   0  0  2  0  0  0  0  0  0  0  0  0
   -3.9880   14.7200    1.8650 C   0  0  0  0  0  0  0  0  0  0  0  0
   -5.2010   15.3770    1.4240 N   0  0  0  0  0  0  0  0  0  0  0  0
   -6.6320   14.5100   -0.2280 N   0  0  0  0  0  0  0  0  0  0  0  0
   -7.0980   14.0520    1.1050 C   0  0  1  0  0  0  0  0  0  0  0  0
   -6.3640   14.8180    2.0820 N   0  0  0  0  0  0  0  0  0  0  0  0
   -8.6250   14.2290    1.3540 C   0  0  0  0  0  0  0  0  0  0  0  0
   -8.9480   14.0440    2.7760 N   0  0  0  0  0  0  0  0  0  0  0  0
   -9.2130   15.1320    3.5960 C   0  0  0  0  0  0  0  0  0  0  0  0
   -9.4060   16.2510    3.1370 O   0  0  0  0  0  0  0  0  0  0  0  0
   -9.2830   14.8390    5.1020 C   0  0  0  0  0  0  0  0  0  0  0  0
   -9.6230   13.3760    5.3890 C   0  0  0  0  0  0  0  0  0  0  0  0
   -8.0110   15.2670    5.8310 C   0  0  0  0  0  0  0  0  0  0  0  0
  1  2  3  0
  3  2  1  6
  3  4  1  0
  3  5  1  0
  4  6  1  0
  5  7  1  0
  6  7  1  0
  5  8  1  1
  8  9  1  0
  7 10  1  0
  9 10  1  0
  9 11  1  6
 11 12  1  0
 12 13  1  0
 13 14  2  0
 13 15  1  0
 15 16  1  0
 15 17  1  0
M  END
