diamond-x0895_1_A-mac-x0188
     RDKit          3D

 15 16  0  0  0  0  0  0  0  0999 V2000
   -1.1460   13.8780    0.7040 O   0  0  0  0  0  0  0  0  0  0  0  0
   -2.1340   14.0680    0.0130 C   0  0  0  0  0  0  0  0  0  0  0  0
   -2.2080   14.1760   -1.5740 C   0  0  2  0  0  0  0  0  0  0  0  0
   -3.3800   14.2580    0.5460 N   0  0  0  0  0  0  0  0  0  0  0  0
   -3.4070   15.0300   -1.5390 N   0  0  0  0  0  0  0  0  0  0  0  0
   -4.1740   14.8260   -0.3700 C   0  0  0  0  0  0  0  0  0  0  0  0
   -2.6360   12.9910   -2.3590 N   0  0  0  0  0  0  0  0  0  0  0  0
   -0.8920   14.5510   -2.3240 C   0  0  1  0  0  0  0  0  0  0  0  0
   -5.3620   15.1000   -0.2040 O   0  0  0  0  0  0  0  0  0  0  0  0
    0.4320   14.2450   -1.6780 C   0  0  0  0  0  0  0  0  0  0  0  0
   -0.9600   14.0090   -3.7520 C   0  0  2  0  0  0  0  0  0  0  0  0
   -1.9720   12.9990   -3.6990 O   0  0  0  0  0  0  0  0  0  0  0  0
    0.3220   13.4180   -4.3820 C   0  0  0  0  0  0  0  0  0  0  0  0
    1.4560   14.8340   -1.9590 O   0  0  0  0  0  0  0  0  0  0  0  0
    0.4680   13.2470   -0.7530 O   0  0  0  0  0  0  0  0  0  0  0  0
  1  2  2  0
  3  2  1  0
  2  4  1  0
  3  5  1  1
  4  6  1  0
  5  6  1  0
  3  7  1  0
  3  8  1  0
  6  9  2  0
  8 10  1  1
  8 11  1  0
  7 12  1  0
 11 12  1  0
 11 13  1  1
 10 14  2  0
 10 15  1  0
M  END
