diamond-x0438_0_A-mac-x0178
     RDKit          3D

 30 32  0  0  0  0  0  0  0  0999 V2000
   -8.1660   15.5740    3.8820 C   0  0  0  0  0  0  0  0  0  0  0  0
   -9.3490   15.3290    2.5690 S   0  0  0  0  0  0  0  0  0  0  0  0
  -10.5750   14.8170    3.1640 O   0  0  0  0  0  0  0  0  0  0  0  0
   -8.6690   14.0350    1.5410 C   0  0  0  0  0  0  0  0  0  0  0  0
   -9.4170   16.5270    1.7650 O   0  0  0  0  0  0  0  0  0  0  0  0
   -7.3450   14.3910    0.9580 C   0  0  0  0  0  0  0  0  0  0  0  0
   -7.1420   14.5470   -0.3970 N   0  0  0  0  0  0  0  0  0  0  0  0
   -6.2180   14.5900    1.6100 N   0  0  0  0  0  0  0  0  0  0  0  0
   -5.2550   14.8700    0.6600 C   0  0  0  0  0  0  0  0  0  0  0  0
   -5.8170   14.8460   -0.6020 C   0  0  0  0  0  0  0  0  0  0  0  0
   -5.0880   15.0840   -1.7670 C   0  0  0  0  0  0  0  0  0  0  0  0
   -3.8820   15.1530    0.7970 C   0  0  0  0  0  0  0  0  0  0  0  0
   -3.7140   15.3540   -1.6430 C   0  0  0  0  0  0  0  0  0  0  0  0
   -3.1180   15.3930   -0.3650 C   0  0  0  0  0  0  0  0  0  0  0  0
   -2.9020   15.5860   -2.9080 C   0  0  0  0  0  0  0  0  0  0  0  0
   -3.6260   15.0740   -4.1660 C   0  0  0  0  0  0  0  0  0  0  0  0
   -3.4100   15.9230   -5.4240 C   0  0  0  0  0  0  0  0  0  0  0  0
   -2.7280   17.1930   -5.1050 N   0  0  0  0  0  0  0  0  0  0  0  0
   -1.3950   17.3430   -5.6940 S   0  0  2  0  0  0  0  0  0  0  0  0
   -0.8670   18.7590   -5.0520 N   0  0  0  0  0  0  0  0  0  0  0  0
   -1.1270   17.5710   -7.0740 O   0  0  0  0  0  0  0  0  0  0  0  0
   -0.6870   15.9630   -4.8680 C   0  0  0  0  0  0  0  0  0  0  0  0
    0.4060   16.1370   -4.0250 C   0  0  0  0  0  0  0  0  0  0  0  0
   -1.2680   14.6930   -5.0470 C   0  0  0  0  0  0  0  0  0  0  0  0
    0.9120   15.0340   -3.3470 C   0  0  0  0  0  0  0  0  0  0  0  0
   -0.7640   13.5980   -4.3700 C   0  0  0  0  0  0  0  0  0  0  0  0
    0.3250   13.7700   -3.5120 C   0  0  0  0  0  0  0  0  0  0  0  0
    0.8920   12.6450   -2.7500 C   0  0  0  0  0  0  0  0  0  0  0  0
    1.8270   12.7850   -1.9960 O   0  0  0  0  0  0  0  0  0  0  0  0
    0.2750   11.4620   -2.9530 O   0  0  0  0  0  0  0  0  0  0  0  0
  2  1  1  0
  2  3  2  0
  2  4  1  0
  2  5  2  0
  4  6  1  0
  6  7  1  0
  6  8  2  0
  8  9  1  0
  7 10  1  0
  9 10  2  0
 10 11  1  0
  9 12  1  0
 11 13  2  0
 12 14  2  0
 13 14  1  0
 13 15  1  0
 15 16  1  0
 16 17  1  0
 17 18  1  0
 18 19  2  0
 19 20  1  1
 19 21  2  0
 19 22  1  0
 22 23  2  0
 22 24  1  0
 23 25  1  0
 24 26  2  0
 25 27  2  0
 26 27  1  0
 27 28  1  0
 28 29  2  0
 28 30  1  0
M  END
