diamond-x0855_0_A-diamond-x0864_0_A
     RDKit          3D

 11 11  0  0  0  0  0  0  0  0999 V2000
    1.4960   12.9000   -2.3270 O   0  0  0  0  0  0  0  0  0  0  0  0
    0.8980   12.0650   -3.1950 C   0  0  0  0  0  0  0  0  0  0  0  0
    0.7320   12.6690   -4.5710 C   0  0  0  0  0  0  0  0  0  0  0  0
    0.5530   10.9500   -2.8470 O   0  0  0  0  0  0  0  0  0  0  0  0
   -0.3700   11.9990   -5.2320 N   0  0  0  0  0  0  0  0  0  0  0  0
   -0.1950   11.2130   -6.3560 C   0  0  0  0  0  0  0  0  0  0  0  0
   -1.6760   11.9850   -4.7080 N   0  0  0  0  0  0  0  0  0  0  0  0
    0.8440   11.1430   -6.9990 O   0  0  0  0  0  0  0  0  0  0  0  0
   -1.5230   10.5320   -6.5840 C   0  0  2  0  0  0  0  0  0  0  0  0
   -2.2410   10.7450   -5.2590 C   0  0  0  0  0  0  0  0  0  0  0  0
   -1.3280    8.6590   -7.0010 Br  0  0  0  0  0  0  0  0  0  0  0  0
  1  2  1  0
  2  3  1  0
  2  4  2  0
  3  5  1  0
  5  6  1  0
  5  7  1  0
  6  8  2  0
  6  9  1  0
  7 10  1  0
  9 10  1  0
  9 11  1  1
M  END
