diamond-x0900_0_A-mac-x0527
     RDKit          3D

 16 17  0  0  0  0  0  0  0  0999 V2000
   -6.3760   15.0230   -1.2670 O   0  0  0  0  0  0  0  0  0  0  0  0
   -5.3210   14.9640   -0.6480 C   0  0  0  0  0  0  0  0  0  0  0  0
   -3.9620   15.0530   -1.0860 N   0  0  0  0  0  0  0  0  0  0  0  0
   -5.2750   14.7470    0.8540 C   0  0  0  0  0  0  0  0  0  0  0  0
   -3.4750   14.9850   -2.4050 C   0  0  0  0  0  0  0  0  0  0  0  0
   -3.9480   15.3920    1.1880 C   0  0  0  0  0  0  0  0  0  0  0  0
   -3.1350   14.8080    0.0700 C   0  0  0  0  0  0  0  0  0  0  0  0
   -4.1320   15.2290   -3.4100 O   0  0  0  0  0  0  0  0  0  0  0  0
   -2.1380   14.5940   -2.5160 N   0  0  0  0  0  0  0  0  0  0  0  0
   -1.3900   14.7350   -3.7650 C   0  0  0  0  0  0  0  0  0  0  0  0
   -1.1600   13.4060   -4.4620 C   0  0  0  0  0  0  0  0  0  0  0  0
   -1.9980   12.3110   -4.2000 C   0  0  0  0  0  0  0  0  0  0  0  0
   -0.1060   13.2400   -5.3880 C   0  0  0  0  0  0  0  0  0  0  0  0
   -1.7960   11.0830   -4.8390 C   0  0  0  0  0  0  0  0  0  0  0  0
    0.0920   12.0090   -6.0250 C   0  0  0  0  0  0  0  0  0  0  0  0
   -0.7520   10.9340   -5.7510 C   0  0  0  0  0  0  0  0  0  0  0  0
  1  2  2  0
  2  3  1  0
  2  4  1  0
  3  5  1  0
  4  6  1  0
  3  7  1  0
  6  7  1  0
  5  8  2  0
  5  9  1  0
  9 10  1  0
 10 11  1  0
 11 12  2  0
 11 13  1  0
 12 14  1  0
 13 15  2  0
 14 16  2  0
 15 16  1  0
M  END
