diamond-x0852_0_B-mac-x0116
     RDKit          3D

 27 30  0  0  0  0  0  0  0  0999 V2000
   -9.9950   17.5460    7.3610 N   0  0  0  0  0  0  0  0  0  0  0  0
   -9.7940   17.1140    6.3020 C   0  0  0  0  0  0  0  0  0  0  0  0
   -9.4670   16.6310    4.9970 C   0  0  0  0  0  0  0  0  0  0  0  0
   -8.3110   15.8980    4.8070 C   0  0  0  0  0  0  0  0  0  0  0  0
  -10.3010   16.9000    3.9080 C   0  0  0  0  0  0  0  0  0  0  0  0
   -7.4990   15.6210    5.8760 O   0  0  0  0  0  0  0  0  0  0  0  0
   -7.9520   15.4420    3.5410 C   0  0  0  0  0  0  0  0  0  0  0  0
   -9.9550   16.4250    2.6410 C   0  0  0  0  0  0  0  0  0  0  0  0
  -11.0630   16.7860    1.1570 Br  0  0  0  0  0  0  0  0  0  0  0  0
   -6.6600   14.7130    3.3710 C   0  0  0  0  0  0  0  0  0  0  0  0
   -8.7900   15.6980    2.4520 C   0  0  0  0  0  0  0  0  0  0  0  0
   -6.1490   14.5200    1.9200 C   0  0  1  0  0  0  0  0  0  0  0  0
   -4.7320   14.9520    1.7890 N   0  0  0  0  0  0  0  0  0  0  0  0
   -6.4700   13.1020    1.6590 C   0  0  0  0  0  0  0  0  0  0  0  0
   -6.3190   12.5930    0.4090 O   0  0  0  0  0  0  0  0  0  0  0  0
   -6.9430   12.1460    2.5230 C   0  0  0  0  0  0  0  0  0  0  0  0
   -3.9370   14.9070    0.6390 C   0  0  0  0  0  0  0  0  0  0  0  0
   -7.1060   10.9860    1.7630 C   0  0  0  0  0  0  0  0  0  0  0  0
   -6.7100   11.3000    0.4850 C   0  0  0  0  0  0  0  0  0  0  0  0
   -4.4860   15.0570   -0.6200 N   0  0  0  0  0  0  0  0  0  0  0  0
   -2.6020   14.7250    0.6750 C   0  0  0  0  0  0  0  0  0  0  0  0
   -3.7270   14.9840   -1.7590 C   0  0  0  0  0  0  0  0  0  0  0  0
   -1.8500   14.6830   -0.5880 C   0  0  0  0  0  0  0  0  0  0  0  0
   -1.7020   14.5580    1.6950 N   0  0  0  0  0  0  0  0  0  0  0  0
   -2.4460   14.8020   -1.8100 N   0  0  0  0  0  0  0  0  0  0  0  0
   -0.5880   14.5320   -0.3330 N   0  0  0  0  0  0  0  0  0  0  0  0
   -0.5670   14.4630    1.0560 C   0  0  0  0  0  0  0  0  0  0  0  0
  1  2  3  0
  2  3  1  0
  3  4  2  0
  3  5  1  0
  4  6  1  0
  4  7  1  0
  5  8  2  0
  8  9  1  0
  7 10  1  0
  7 11  2  0
  8 11  1  0
 12 10  1  1
 12 13  1  0
 12 14  1  0
 14 15  1  0
 14 16  2  0
 13 17  1  0
 16 18  1  0
 15 19  1  0
 18 19  2  0
 17 20  1  0
 17 21  2  0
 20 22  1  0
 21 23  1  0
 21 24  1  0
 22 25  2  0
 23 25  1  0
 23 26  2  0
 24 27  2  0
 26 27  1  0
M  END
