diamond-x0950_0_A-mac-x0436
     RDKit          3D

 17 18  0  0  0  0  0  0  0  0999 V2000
    2.5190   12.4780   -4.9720 C   0  0  0  0  0  0  0  0  0  0  0  0
    1.3310   13.1050   -4.2500 C   0  0  1  0  0  0  0  0  0  0  0  0
    0.2460   13.3070   -5.1820 O   0  0  0  0  0  0  0  0  0  0  0  0
    0.9540   12.2290   -3.0460 C   0  0  0  0  0  0  0  0  0  0  0  0
    0.5930   11.0640   -3.0510 O   0  0  0  0  0  0  0  0  0  0  0  0
    1.0600   12.8810   -1.8700 O   0  0  0  0  0  0  0  0  0  0  0  0
   -0.4890   12.1500   -5.5410 C   0  0  1  0  0  0  0  0  0  0  0  0
   -1.8560   11.9300   -4.8230 C   0  0  0  0  0  0  0  0  0  0  0  0
   -0.7260   12.0150   -6.9790 N   0  0  0  0  0  0  0  0  0  0  0  0
   -2.2650   12.5890   -3.8650 O   0  0  0  0  0  0  0  0  0  0  0  0
   -2.5870   10.8970   -5.3550 N   0  0  0  0  0  0  0  0  0  0  0  0
   -0.7940   10.5910   -7.1200 C   0  0  1  0  0  0  0  0  0  0  0  0
   -1.7900    9.9270   -6.0730 C   0  0  2  0  0  0  0  0  0  0  0  0
   -0.6540    9.8710   -8.4360 C   0  0  0  0  0  0  0  0  0  0  0  0
   -1.3900    8.7820   -8.7270 C   0  0  0  0  0  0  0  0  0  0  0  0
   -2.5910    8.7650   -6.5910 C   0  0  0  0  0  0  0  0  0  0  0  0
   -2.3810    8.2450   -7.8160 C   0  0  0  0  0  0  0  0  0  0  0  0
  2  1  1  6
  2  3  1  0
  2  4  1  0
  4  5  2  0
  4  6  1  0
  7  3  1  6
  7  8  1  0
  7  9  1  0
  8 10  2  0
  8 11  1  0
  9 12  1  0
 11 13  1  0
 12 13  1  0
 12 14  1  6
 14 15  2  0
 13 16  1  6
 15 17  1  0
 16 17  2  0
M  END
