diamond-x0727_0_A-mac-x0546
     RDKit          3D

 24 26  0  0  0  0  0  0  0  0999 V2000
   -0.0050   11.5780   -5.5310 N   0  0  0  0  0  0  0  0  0  0  0  0
    0.1380   12.4560   -4.3360 C   0  0  1  0  0  0  0  0  0  0  0  0
   -1.2850   12.5880   -3.8530 C   0  0  0  0  0  0  0  0  0  0  0  0
    0.8210   11.3320   -6.5970 C   0  0  0  0  0  0  0  0  0  0  0  0
    1.8360   11.9580   -6.8200 O   0  0  0  0  0  0  0  0  0  0  0  0
    0.7780   11.7320   -3.1360 C   0  0  0  0  0  0  0  0  0  0  0  0
    0.3110   10.1590   -7.4570 C   0  0  0  0  0  0  0  0  0  0  0  0
    0.6290   13.8680   -4.4540 C   0  0  0  0  0  0  0  0  0  0  0  0
    0.4610   10.5920   -2.8190 O   0  0  0  0  0  0  0  0  0  0  0  0
    1.6750   12.4460   -2.4190 O   0  0  0  0  0  0  0  0  0  0  0  0
   -0.9410   10.5480   -8.2620 C   0  0  0  0  0  0  0  0  0  0  0  0
   -0.1120    8.9160   -6.6360 C   0  0  0  0  0  0  0  0  0  0  0  0
   -0.1290   14.8230   -5.2580 C   0  0  1  0  0  0  0  0  0  0  0  0
    1.6800   14.5140   -3.9280 C   0  0  0  0  0  0  0  0  0  0  0  0
   -1.8870    9.3530   -8.1740 C   0  0  0  0  0  0  0  0  0  0  0  0
   -1.6100    8.7510   -6.8110 C   0  0  0  0  0  0  0  0  0  0  0  0
   -1.5920   15.0120   -5.1590 C   0  0  0  0  0  0  0  0  0  0  0  0
    0.6210   16.0720   -4.8990 C   0  0  0  0  0  0  0  0  0  0  0  0
    1.6870   15.8630   -4.2030 N   0  0  0  0  0  0  0  0  0  0  0  0
   -2.1120   16.2220   -5.3180 C   0  0  0  0  0  0  0  0  0  0  0  0
    0.0910   17.3670   -5.3710 C   0  0  0  0  0  0  0  0  0  0  0  0
   -3.4410   16.4660   -5.2970 O   0  0  0  0  0  0  0  0  0  0  0  0
   -1.2550   17.3890   -5.5560 C   0  0  0  0  0  0  0  0  0  0  0  0
   -4.2600   15.4310   -5.8510 C   0  0  0  0  0  0  0  0  0  0  0  0
  1  2  1  0
  2  3  1  1
  1  4  1  0
  4  5  2  0
  2  6  1  0
  4  7  1  0
  2  8  1  0
  6  9  2  0
  6 10  1  0
  7 11  1  0
  7 12  1  0
  8 13  1  0
  8 14  2  0
 11 15  1  0
 12 16  1  0
 15 16  1  0
 13 17  1  1
 13 18  1  0
 14 19  1  0
 18 19  2  0
 17 20  2  0
 18 21  1  0
 20 22  1  0
 20 23  1  0
 21 23  2  0
 22 24  1  0
M  END
