diamond-x0766_0_A-mac-x0263
     RDKit          3D

 26 29  0  0  0  0  0  0  0  0999 V2000
    0.5560   12.2230   -2.8910 C   0  0  0  0  0  0  0  0  0  0  0  0
   -0.1310   11.0660   -2.9660 O   0  0  0  0  0  0  0  0  0  0  0  0
    1.4180   12.3670   -2.0520 O   0  0  0  0  0  0  0  0  0  0  0  0
    0.1190   13.2490   -3.9070 C   0  0  2  0  0  0  0  0  0  0  0  0
    1.2510   13.6300   -4.8820 C   0  0  0  0  0  0  0  0  0  0  0  0
   -0.1780   14.5340   -3.1210 C   0  0  1  0  0  0  0  0  0  0  0  0
    1.3820   15.1550   -4.7870 C   0  0  0  0  0  0  0  0  0  0  0  0
    0.1100   15.6400   -4.1230 C   0  0  0  0  0  0  0  0  0  0  0  0
   -1.4790   14.5160   -2.3510 C   0  0  0  0  0  0  0  0  0  0  0  0
   -2.6120   15.2490   -2.4310 C   0  0  0  0  0  0  0  0  0  0  0  0
   -1.5610   13.5020   -1.3200 C   0  0  0  0  0  0  0  0  0  0  0  0
   -2.6990   13.4920   -0.6400 C   0  0  0  0  0  0  0  0  0  0  0  0
   -3.6360   14.7740   -1.1560 S   0  0  2  0  0  0  0  0  0  0  0  0
   -5.2420   14.4250   -1.5400 C   0  0  0  0  0  0  0  0  0  0  0  0
   -3.4340   15.5250    0.3310 C   0  0  0  0  0  0  0  0  0  0  0  0
   -6.0990   14.5450   -0.5280 C   0  0  0  0  0  0  0  0  0  0  0  0
   -4.4400   15.5420    1.1660 C   0  0  0  0  0  0  0  0  0  0  0  0
   -7.4430   14.2720   -0.5040 N   0  0  0  0  0  0  0  0  0  0  0  0
   -5.7380   14.9790    0.8240 C   0  0  0  0  0  0  0  0  0  0  0  0
   -7.7410   14.4080    0.7610 C   0  0  0  0  0  0  0  0  0  0  0  0
   -6.7450   14.8170    1.6140 N   0  0  0  0  0  0  0  0  0  0  0  0
   -9.1000   14.2120    1.3520 C   0  0  0  0  0  0  0  0  0  0  0  0
   -9.5320   15.5410    1.9520 C   0  0  0  0  0  0  0  0  0  0  0  0
  -10.8070   15.4300    2.7360 C   0  0  0  0  0  0  0  0  0  0  0  0
  -11.5050   14.3120    2.4840 O   0  0  0  0  0  0  0  0  0  0  0  0
  -11.2120   16.2500    3.5410 O   0  0  0  0  0  0  0  0  0  0  0  0
  1  2  1  0
  1  3  2  0
  4  1  1  1
  4  5  1  0
  4  6  1  0
  5  7  1  0
  6  8  1  0
  7  8  1  0
  6  9  1  6
  9 10  2  0
  9 11  1  0
 11 12  2  0
 13 10  1  6
 12 13  1  0
 13 14  1  0
 13 15  1  0
 14 16  2  0
 15 17  2  0
 16 18  1  0
 16 19  1  0
 17 19  1  0
 18 20  2  0
 19 21  2  0
 20 21  1  0
 20 22  1  0
 22 23  1  0
 23 24  1  0
 24 25  1  0
 24 26  2  0
M  END
