diamond-x0962_2_B-mac-x0212
     RDKit          3D

 21 22  0  0  0  0  0  0  0  0999 V2000
  -10.6490   16.2770    0.9370 N   0  0  0  0  0  0  0  0  0  0  0  0
   -9.9230   16.0610    1.8140 C   0  0  0  0  0  0  0  0  0  0  0  0
   -9.1230   15.8020    2.9390 C   0  0  0  0  0  0  0  0  0  0  0  0
   -9.1610   16.5030    4.1170 N   0  0  0  0  0  0  0  0  0  0  0  0
   -8.1660   14.8580    3.1490 C   0  0  0  0  0  0  0  0  0  0  0  0
   -7.7130   13.8520    2.2480 N   0  0  0  0  0  0  0  0  0  0  0  0
   -8.2400   15.9410    4.9560 C   0  0  0  0  0  0  0  0  0  0  0  0
   -7.6270   14.9360    4.3920 N   0  0  0  0  0  0  0  0  0  0  0  0
   -6.9300   14.1170    0.9520 S   0  0  1  0  0  0  0  0  0  0  0  0
   -6.3180   12.5090    0.5400 C   0  0  0  0  0  0  0  0  0  0  0  0
   -7.4840   14.6870   -0.2600 O   0  0  0  0  0  0  0  0  0  0  0  0
   -5.5360   15.0880    1.2590 N   0  0  0  0  0  0  0  0  0  0  0  0
   -4.5690   14.9680    0.2220 C   0  0  0  0  0  0  0  0  0  0  0  0
   -3.3080   14.4090    0.4600 C   0  0  0  0  0  0  0  0  0  0  0  0
   -4.8880   15.4040   -1.0770 C   0  0  0  0  0  0  0  0  0  0  0  0
   -2.3850   14.2730   -0.5840 C   0  0  0  0  0  0  0  0  0  0  0  0
   -3.9700   15.2690   -2.1240 C   0  0  0  0  0  0  0  0  0  0  0  0
   -2.7170   14.6960   -1.8780 C   0  0  0  0  0  0  0  0  0  0  0  0
   -1.7200   14.5160   -2.9640 C   0  0  0  0  0  0  0  0  0  0  0  0
   -0.5730   14.1520   -2.7680 O   0  0  0  0  0  0  0  0  0  0  0  0
   -2.2150   14.7790   -4.1930 O   0  0  0  0  0  0  0  0  0  0  0  0
  1  2  3  0
  2  3  1  0
  3  4  1  0
  3  5  2  0
  5  6  1  0
  4  7  1  0
  5  8  1  0
  7  8  2  0
  6  9  2  0
  9 10  1  6
  9 11  2  0
  9 12  1  0
 12 13  1  0
 13 14  2  0
 13 15  1  0
 14 16  1  0
 15 17  2  0
 16 18  2  0
 17 18  1  0
 18 19  1  0
 19 20  2  0
 19 21  1  0
M  END
