diamond-x0844_0_A-mac-x0437
     RDKit          3D

 25 27  0  0  0  0  0  0  0  0999 V2000
   -7.5310   14.8260   -0.0600 O   0  0  0  0  0  0  0  0  0  0  0  0
   -6.3030   14.8810   -0.1290 C   0  0  0  0  0  0  0  0  0  0  0  0
   -5.5420   14.8420    1.0110 N   0  0  0  0  0  0  0  0  0  0  0  0
   -5.5890   14.9920   -1.4610 C   0  0  0  0  0  0  0  0  0  0  0  0
   -4.1840   14.8930    1.0490 C   0  0  0  0  0  0  0  0  0  0  0  0
   -4.0910   15.2840   -1.4030 C   0  0  2  0  0  0  0  0  0  0  0  0
   -3.3700   14.4540   -2.3400 O   0  0  0  0  0  0  0  0  0  0  0  0
   -3.4660   15.0920   -0.0530 C   0  0  0  0  0  0  0  0  0  0  0  0
   -2.5440   15.1770   -3.2630 C   0  0  0  0  0  0  0  0  0  0  0  0
   -2.4730   14.4300   -4.5940 C   0  0  0  0  0  0  0  0  0  0  0  0
   -1.0460   14.2210   -5.1430 C   0  0  0  0  0  0  0  0  0  0  0  0
   -0.3190   12.9430   -4.6980 C   0  0  2  0  0  0  0  0  0  0  0  0
    1.1840   12.9420   -4.4570 C   0  0  0  0  0  0  0  0  0  0  0  0
   -0.8510   11.7510   -5.3300 N   0  0  0  0  0  0  0  0  0  0  0  0
    1.3350   12.2420   -3.1420 C   0  0  0  0  0  0  0  0  0  0  0  0
   -2.0170   11.2280   -4.8530 C   0  0  0  0  0  0  0  0  0  0  0  0
   -0.4250   10.9540   -6.3800 C   0  0  0  0  0  0  0  0  0  0  0  0
    1.9870   12.9540   -2.2190 O   0  0  0  0  0  0  0  0  0  0  0  0
    0.9040   11.1360   -2.8740 O   0  0  0  0  0  0  0  0  0  0  0  0
   -2.3820   10.1620   -5.4950 N   0  0  0  0  0  0  0  0  0  0  0  0
   -1.4180    9.9680   -6.4400 C   0  0  0  0  0  0  0  0  0  0  0  0
    0.6610   10.9430   -7.2720 C   0  0  0  0  0  0  0  0  0  0  0  0
   -1.3420    8.9450   -7.3900 C   0  0  0  0  0  0  0  0  0  0  0  0
    0.7150    9.9070   -8.2180 C   0  0  0  0  0  0  0  0  0  0  0  0
   -0.2700    8.9230   -8.2760 C   0  0  0  0  0  0  0  0  0  0  0  0
  1  2  2  0
  2  3  1  0
  2  4  1  0
  3  5  1  0
  4  6  1  0
  6  7  1  6
  5  8  2  0
  6  8  1  0
  7  9  1  0
  9 10  1  0
 10 11  1  0
 12 11  1  6
 12 13  1  0
 12 14  1  0
 13 15  1  0
 14 16  1  0
 14 17  1  0
 15 18  1  0
 15 19  2  0
 16 20  2  0
 17 21  2  0
 20 21  1  0
 17 22  1  0
 21 23  1  0
 22 24  2  0
 23 25  2  0
 24 25  1  0
M  END
