diamond-x0253_0_A-mac-x0124
     RDKit          3D

 26 28  0  0  0  0  0  0  0  0999 V2000
    0.3680   11.8100   -5.4200 N   0  0  0  0  0  0  0  0  0  0  0  0
    1.0510   11.5870   -6.5780 C   0  0  0  0  0  0  0  0  0  0  0  0
    2.1360   12.0980   -6.7480 O   0  0  0  0  0  0  0  0  0  0  0  0
    1.0700   12.5830   -4.4260 C   0  0  0  0  0  0  0  0  0  0  0  0
    0.7880   12.0720   -3.0220 C   0  0  0  0  0  0  0  0  0  0  0  0
    0.4320   10.6800   -7.5850 C   0  0  0  0  0  0  0  0  0  0  0  0
    0.8830   12.8710   -2.0460 N   0  0  0  0  0  0  0  0  0  0  0  0
    0.4490   10.7650   -2.9440 O   0  0  0  0  0  0  0  0  0  0  0  0
   -0.5460    9.7600   -7.1980 C   0  0  0  0  0  0  0  0  0  0  0  0
    0.8240   10.7380   -8.9290 C   0  0  0  0  0  0  0  0  0  0  0  0
    1.2200   14.2550   -2.3060 C   0  0  0  0  0  0  0  0  0  0  0  0
   -1.1300    8.9090   -8.1420 C   0  0  0  0  0  0  0  0  0  0  0  0
    0.2510    9.8940   -9.8740 C   0  0  0  0  0  0  0  0  0  0  0  0
   -2.1830    7.9260   -7.7260 C   0  0  0  0  0  0  0  0  0  0  0  0
    0.0250   14.8890   -3.0410 C   0  0  0  0  0  0  0  0  0  0  0  0
   -0.7270    8.9810   -9.4810 C   0  0  0  0  0  0  0  0  0  0  0  0
   -1.1940   14.9160   -2.2570 N   0  0  0  0  0  0  0  0  0  0  0  0
   -2.4870   15.0380   -2.7320 C   0  0  0  0  0  0  0  0  0  0  0  0
   -1.2140   14.8300   -0.8970 C   0  0  0  0  0  0  0  0  0  0  0  0
   -3.3360   15.0450   -1.6400 C   0  0  0  0  0  0  0  0  0  0  0  0
   -2.5280   14.9170   -0.4700 C   0  0  0  0  0  0  0  0  0  0  0  0
   -0.1240   14.6960   -0.1330 N   0  0  0  0  0  0  0  0  0  0  0  0
   -2.7350   14.8700    0.9100 C   0  0  0  0  0  0  0  0  0  0  0  0
   -0.4480   14.6490    1.1710 C   0  0  0  0  0  0  0  0  0  0  0  0
   -3.9910   14.9760    1.4760 N   0  0  0  0  0  0  0  0  0  0  0  0
   -1.6710   14.7240    1.7290 N   0  0  0  0  0  0  0  0  0  0  0  0
  1  2  1  0
  2  3  2  0
  1  4  1  0
  4  5  1  0
  2  6  1  0
  5  7  2  3
  5  8  1  0
  6  9  2  0
  6 10  1  0
  7 11  1  0
  9 12  1  0
 10 13  2  0
 12 14  1  0
 11 15  1  0
 12 16  2  0
 13 16  1  0
 15 17  1  0
 17 18  1  0
 17 19  1  0
 18 20  2  0
 19 21  2  0
 20 21  1  0
 19 22  1  0
 21 23  1  0
 22 24  2  0
 23 25  1  0
 23 26  2  0
 24 26  1  0
M  END
