diamond-x0724_0_A-mac-x0354
     RDKit          3D

 32 35  0  0  0  0  0  0  0  0999 V2000
   -8.2350   13.7570    4.4310 N   0  0  0  0  0  0  0  0  0  0  0  0
   -8.7170   13.9460    5.7900 C   0  0  0  0  0  0  0  0  0  0  0  0
   -8.3870   14.9880    3.6670 C   0  0  0  0  0  0  0  0  0  0  0  0
   -7.6910   14.8400    2.3590 C   0  0  0  0  0  0  0  0  0  0  0  0
   -6.3310   14.8630    2.0910 C   0  0  0  0  0  0  0  0  0  0  0  0
   -8.2720   14.6520    1.0910 C   0  0  0  0  0  0  0  0  0  0  0  0
   -7.3720   14.5730    0.1120 N   0  0  0  0  0  0  0  0  0  0  0  0
   -6.1660   14.7090    0.7300 N   0  0  0  0  0  0  0  0  0  0  0  0
   -4.9530   14.6910   -0.0200 C   0  0  0  0  0  0  0  0  0  0  0  0
   -3.7020   14.7490    0.6170 C   0  0  0  0  0  0  0  0  0  0  0  0
   -5.0050   14.6160   -1.4150 C   0  0  0  0  0  0  0  0  0  0  0  0
   -2.5170   14.7270   -0.1420 C   0  0  0  0  0  0  0  0  0  0  0  0
   -3.8290   14.5950   -2.1620 C   0  0  0  0  0  0  0  0  0  0  0  0
   -2.5740   14.6470   -1.5500 C   0  0  0  0  0  0  0  0  0  0  0  0
   -1.3420   14.6120   -2.4430 C   0  0  0  0  0  0  0  0  0  0  0  0
    0.0110   14.7360   -1.7210 C   0  0  0  0  0  0  0  0  0  0  0  0
    1.0810   13.8800   -2.3990 C   0  0  0  0  0  0  0  0  0  0  0  0
    0.7220   12.4880   -2.2180 N   0  0  0  0  0  0  0  0  0  0  0  0
    0.6070   11.5710   -3.1050 C   0  0  0  0  0  0  0  0  0  0  0  0
    0.2500   10.3060   -2.7530 O   0  0  0  0  0  0  0  0  0  0  0  0
    0.8620   11.7770   -4.5400 C   0  0  0  0  0  0  0  0  0  0  0  0
    1.8270   12.6320   -5.1480 C   0  0  0  0  0  0  0  0  0  0  0  0
    0.2470   11.1720   -5.6470 C   0  0  0  0  0  0  0  0  0  0  0  0
    0.8580   11.6590   -6.7570 N   0  0  0  0  0  0  0  0  0  0  0  0
    1.8210   12.5550   -6.4820 N   0  0  0  0  0  0  0  0  0  0  0  0
   -0.8160   10.1970   -5.7830 C   0  0  0  0  0  0  0  0  0  0  0  0
    0.5320   11.2640   -8.1190 C   0  0  0  0  0  0  0  0  0  0  0  0
   -0.5770    8.9780   -6.4330 C   0  0  0  0  0  0  0  0  0  0  0  0
   -2.0810   10.4730   -5.2720 C   0  0  0  0  0  0  0  0  0  0  0  0
   -1.6000    8.0460   -6.5660 C   0  0  0  0  0  0  0  0  0  0  0  0
   -3.1040    9.5390   -5.4070 C   0  0  0  0  0  0  0  0  0  0  0  0
   -2.8640    8.3270   -6.0530 C   0  0  0  0  0  0  0  0  0  0  0  0
  1  2  1  0
  1  3  1  0
  3  4  1  0
  4  5  2  0
  4  6  1  0
  6  7  2  0
  5  8  1  0
  7  8  1  0
  8  9  1  0
  9 10  2  0
  9 11  1  0
 10 12  1  0
 11 13  2  0
 12 14  2  0
 13 14  1  0
 14 15  1  0
 15 16  1  0
 16 17  1  0
 17 18  1  0
 18 19  2  3
 19 20  1  0
 19 21  1  0
 21 22  1  0
 21 23  2  0
 23 24  1  0
 22 25  2  0
 24 25  1  0
 23 26  1  0
 24 27  1  0
 26 28  2  0
 26 29  1  0
 28 30  1  0
 29 31  2  0
 30 32  2  0
 31 32  1  0
M  END
