diamond-x0626_0_A-mac-x1493
     RDKit          3D

 24 26  0  0  0  0  0  0  0  0999 V2000
   -4.4890   14.0290    1.2900 N   0  0  0  0  0  0  0  0  0  0  0  0
   -5.6000   13.7210    0.3460 C   0  0  2  0  0  0  0  0  0  0  0  0
   -5.0580   14.2370   -0.8750 O   0  0  0  0  0  0  0  0  0  0  0  0
   -3.2140   14.1080    0.8200 C   0  0  0  0  0  0  0  0  0  0  0  0
   -7.0080   14.4220    0.4790 C   0  0  0  0  0  0  0  0  0  0  0  0
   -2.1860   14.7470    1.3490 N   0  0  0  0  0  0  0  0  0  0  0  0
   -2.8670   13.2890   -0.6660 S   0  0  0  0  0  0  0  0  0  0  0  0
   -5.7180   12.1990    0.1660 C   0  0  0  0  0  0  0  0  0  0  0  0
   -7.4620   15.2810   -0.7180 C   0  0  0  0  0  0  0  0  0  0  0  0
   -1.2680   13.8330   -0.6040 C   0  0  0  0  0  0  0  0  0  0  0  0
   -1.0850   14.5890    0.5220 C   0  0  0  0  0  0  0  0  0  0  0  0
   -5.3660   12.6450   -1.0770 C   0  0  0  0  0  0  0  0  0  0  0  0
   -5.9860   12.6090    1.4360 C   0  0  0  0  0  0  0  0  0  0  0  0
    0.1730   15.2230    0.8820 C   0  0  0  0  0  0  0  0  0  0  0  0
   -5.2340   14.0480   -1.0130 C   0  0  0  0  0  0  0  0  0  0  0  0
   -5.1600   11.9540   -2.2110 N   0  0  0  0  0  0  0  0  0  0  0  0
   -5.8520   14.0020    1.4890 C   0  0  0  0  0  0  0  0  0  0  0  0
   -4.8660   14.7460   -2.1940 C   0  0  0  0  0  0  0  0  0  0  0  0
   -4.8080   12.6460   -3.3330 C   0  0  0  0  0  0  0  0  0  0  0  0
   -5.4790   14.7140    0.2710 C   0  0  0  0  0  0  0  0  0  0  0  0
   -4.6460   14.0230   -3.3750 C   0  0  0  0  0  0  0  0  0  0  0  0
   -4.2570   14.6410   -4.6530 C   0  0  0  0  0  0  0  0  0  0  0  0
   -3.1020   15.3480   -4.5800 O   0  0  0  0  0  0  0  0  0  0  0  0
   -4.9210   14.5230   -5.6660 O   0  0  0  0  0  0  0  0  0  0  0  0
  1  2  1  0
  2  3  1  6
  1  4  1  0
  2  5  1  0
  4  6  2  0
  4  7  1  0
  2  8  1  0
  5  9  1  0
  7 10  1  0
  6 11  1  0
 10 11  2  0
  8 12  1  0
  8 13  2  0
 11 14  1  0
 12 15  2  0
 12 16  1  0
 13 17  1  0
 15 18  1  0
 16 19  2  0
 15 20  1  0
 17 20  2  0
 18 21  2  0
 19 21  1  0
 21 22  1  0
 22 23  1  0
 22 24  2  0
M  END
