diamond-x0598_0_A-diamond-x0228_1_A
     RDKit          3D

 25 26  0  0  0  0  0  0  0  0999 V2000
    8.7960   25.7430   15.5140 N   0  0  0  0  0  0  0  0  0  0  0  0
    8.7920   25.3850   16.9390 C   0  0  0  0  0  0  0  0  0  0  0  0
    7.4530   24.7420   17.2540 C   0  0  1  0  0  0  0  0  0  0  0  0
    9.8120   24.9590   14.4430 S   0  0  0  0  0  0  0  0  0  0  0  0
   10.5870   23.7380   15.4890 C   0  0  0  0  0  0  0  0  0  0  0  0
   10.8740   25.7980   14.0460 O   0  0  0  0  0  0  0  0  0  0  0  0
    8.8730   24.5130   13.4190 O   0  0  0  0  0  0  0  0  0  0  0  0
    6.8240   25.1480   18.6140 C   0  0  0  0  0  0  0  0  0  0  0  0
    6.5130   25.0270   16.0840 C   0  0  0  0  0  0  0  0  0  0  0  0
    5.2870   25.0160   18.7590 C   0  0  0  0  0  0  0  0  0  0  0  0
    5.1550   25.4300   16.5580 C   0  0  1  0  0  0  0  0  0  0  0  0
    4.1550   25.5640   15.6040 N   0  0  0  0  0  0  0  0  0  0  0  0
    4.6060   24.6180   17.5630 N   0  0  0  0  0  0  0  0  0  0  0  0
    3.4570   26.6990   15.8090 C   0  0  0  0  0  0  0  0  0  0  0  0
    2.1290   26.5070   15.6860 N   0  0  0  0  0  0  0  0  0  0  0  0
    4.0190   27.7540   16.0920 O   0  0  0  0  0  0  0  0  0  0  0  0
    1.2300   27.5590   15.6270 C   0  0  0  0  0  0  0  0  0  0  0  0
   -0.0440   27.2890   15.1220 C   0  0  0  0  0  0  0  0  0  0  0  0
    1.5770   28.8420   16.0460 C   0  0  0  0  0  0  0  0  0  0  0  0
   -0.2540   25.9750   14.7510 O   0  0  0  0  0  0  0  0  0  0  0  0
   -0.9680   28.3290   15.0360 C   0  0  0  0  0  0  0  0  0  0  0  0
    0.6610   29.8850   15.9660 C   0  0  0  0  0  0  0  0  0  0  0  0
   -1.5840   25.5950   14.4230 C   0  0  0  0  0  0  0  0  0  0  0  0
    1.0540   31.2590   16.4190 C   0  0  0  0  0  0  0  0  0  0  0  0
   -0.6150   29.6200   15.4550 C   0  0  0  0  0  0  0  0  0  0  0  0
  1  2  1  0
  3  2  1  6
  4  1  1  0
  4  5  1  0
  4  6  2  0
  4  7  2  0
  3  8  1  0
  3  9  1  0
  8 10  1  0
  9 11  1  0
 11 12  1  6
 10 13  1  0
 11 13  1  0
 12 14  1  0
 14 15  1  0
 14 16  2  0
 15 17  1  0
 17 18  2  0
 17 19  1  0
 18 20  1  0
 18 21  1  0
 19 22  2  0
 20 23  1  0
 22 24  1  0
 21 25  2  0
 22 25  1  0
M  END
