diamond-x0438_0_A-mac-x0411
     RDKit          3D

 30 32  0  0  0  0  0  0  0  0999 V2000
   -8.1710   15.5710    3.8900 C   0  0  0  0  0  0  0  0  0  0  0  0
   -9.3680   15.3760    2.5810 S   0  0  0  0  0  0  0  0  0  0  0  0
  -10.5970   14.8870    3.1850 O   0  0  0  0  0  0  0  0  0  0  0  0
   -8.7390   14.0520    1.5650 C   0  0  0  0  0  0  0  0  0  0  0  0
   -9.4290   16.5700    1.7650 O   0  0  0  0  0  0  0  0  0  0  0  0
   -7.4160   14.3410    0.9450 C   0  0  0  0  0  0  0  0  0  0  0  0
   -7.2500   14.5360   -0.4070 N   0  0  0  0  0  0  0  0  0  0  0  0
   -6.2570   14.4320    1.5640 N   0  0  0  0  0  0  0  0  0  0  0  0
   -5.3180   14.6720    0.5880 C   0  0  0  0  0  0  0  0  0  0  0  0
   -5.9210   14.7410   -0.6570 C   0  0  0  0  0  0  0  0  0  0  0  0
   -5.2250   14.9660   -1.8440 C   0  0  0  0  0  0  0  0  0  0  0  0
   -3.9310   14.8370    0.6890 C   0  0  0  0  0  0  0  0  0  0  0  0
   -3.8390   15.1140   -1.7540 C   0  0  0  0  0  0  0  0  0  0  0  0
   -3.2020   15.0530   -0.4950 C   0  0  0  0  0  0  0  0  0  0  0  0
   -3.0470   15.3290   -3.0350 C   0  0  0  0  0  0  0  0  0  0  0  0
   -3.4520   14.3760   -4.1740 C   0  0  0  0  0  0  0  0  0  0  0  0
   -3.0000   12.9170   -3.9710 C   0  0  0  0  0  0  0  0  0  0  0  0
   -1.6640   12.6150   -4.6810 C   0  0  0  0  0  0  0  0  0  0  0  0
   -1.6280   11.2750   -5.4210 C   0  0  0  0  0  0  0  0  0  0  0  0
   -0.4860   10.7870   -6.1480 C   0  0  0  0  0  0  0  0  0  0  0  0
   -2.8010   10.4950   -5.3730 C   0  0  0  0  0  0  0  0  0  0  0  0
    0.6320   11.6000   -6.1490 O   0  0  0  0  0  0  0  0  0  0  0  0
   -2.8810    9.2680   -6.0140 C   0  0  0  0  0  0  0  0  0  0  0  0
   -0.6040    9.5320   -6.7980 C   0  0  0  0  0  0  0  0  0  0  0  0
    0.6230    8.7500   -7.7420 Cl  0  0  0  0  0  0  0  0  0  0  0  0
    1.0030   12.5430   -5.1380 C   0  0  0  0  0  0  0  0  0  0  0  0
   -1.7910    8.7920   -6.7210 C   0  0  0  0  0  0  0  0  0  0  0  0
    0.8890   11.9550   -3.7300 C   0  0  0  0  0  0  0  0  0  0  0  0
    1.3770   12.7630   -2.7640 O   0  0  0  0  0  0  0  0  0  0  0  0
    0.4150   10.8610   -3.4740 O   0  0  0  0  0  0  0  0  0  0  0  0
  2  1  1  0
  2  3  2  0
  2  4  1  0
  2  5  2  0
  4  6  1  0
  6  7  1  0
  6  8  2  0
  8  9  1  0
  7 10  1  0
  9 10  2  0
 10 11  1  0
  9 12  1  0
 11 13  2  0
 12 14  2  0
 13 14  1  0
 13 15  1  0
 15 16  1  0
 16 17  1  0
 17 18  1  0
 18 19  1  0
 19 20  2  0
 19 21  1  0
 20 22  1  0
 21 23  2  0
 20 24  1  0
 24 25  1  0
 22 26  1  0
 23 27  1  0
 24 27  2  0
 26 28  1  0
 28 29  1  0
 28 30  2  0
M  END
