diamond-x0737_0_B-diamond-x0918_4_B
     RDKit          3D

 24 25  0  0  0  0  0  0  0  0999 V2000
   15.6070   15.5520   11.9280 N   0  0  0  0  0  0  0  0  0  0  0  0
   16.3350   16.7430   12.3230 C   0  0  0  0  0  0  0  0  0  0  0  0
   15.3910   17.7590   12.9420 C   0  0  0  0  0  0  0  0  0  0  0  0
   16.2720   14.3690   11.7030 C   0  0  0  0  0  0  0  0  0  0  0  0
   17.4230   14.3490   11.2820 O   0  0  0  0  0  0  0  0  0  0  0  0
   15.5850   13.0270   11.9940 C   0  0  1  0  0  0  0  0  0  0  0  0
   15.0710   18.9260   12.0120 C   0  0  0  0  0  0  0  0  0  0  0  0
   14.8110   12.8910   13.3110 C   0  0  1  0  0  0  0  0  0  0  0  0
   14.7830   12.4980   10.8160 C   0  0  0  0  0  0  0  0  0  0  0  0
   14.7680   14.2000   14.0750 C   0  0  0  0  0  0  0  0  0  0  0  0
   13.4890   12.2610   13.0010 N   0  0  0  0  0  0  0  0  0  0  0  0
   14.2130   11.0960   10.9850 C   0  0  0  0  0  0  0  0  0  0  0  0
   14.0350   19.8350   12.6030 C   0  0  0  0  0  0  0  0  0  0  0  0
   12.0560   12.6490   13.7840 S   0  0  0  0  0  0  0  0  0  0  0  0
   13.5500   10.9300   12.3300 C   0  0  0  0  0  0  0  0  0  0  0  0
   12.8650   19.2670   12.9600 N   0  0  0  0  0  0  0  0  0  0  0  0
   14.3010   21.1910   12.7740 C   0  0  0  0  0  0  0  0  0  0  0  0
   12.0660   14.0830   13.9570 O   0  0  0  0  0  0  0  0  0  0  0  0
   11.8130   11.7310   14.8710 O   0  0  0  0  0  0  0  0  0  0  0  0
   11.0150   12.2500   12.4360 C   0  0  0  0  0  0  0  0  0  0  0  0
   13.3350   22.0060   13.3490 C   0  0  0  0  0  0  0  0  0  0  0  0
   11.9410   20.0750   13.5180 C   0  0  0  0  0  0  0  0  0  0  0  0
   13.5660   23.3700   13.5390 N   0  0  0  0  0  0  0  0  0  0  0  0
   12.1330   21.4310   13.7290 C   0  0  0  0  0  0  0  0  0  0  0  0
  1  2  1  0
  2  3  1  0
  1  4  1  0
  4  5  2  0
  6  4  1  6
  3  7  1  0
  6  8  1  0
  6  9  1  0
  8 10  1  6
  8 11  1  0
  9 12  1  0
  7 13  1  0
 11 14  1  0
 11 15  1  0
 12 15  1  0
 13 16  2  0
 13 17  1  0
 14 18  2  0
 14 19  2  0
 14 20  1  0
 17 21  2  0
 16 22  1  0
 21 23  1  0
 21 24  1  0
 22 24  2  0
M  END
