diamond-x0436_0_B-diamond-x0380_0_B
     RDKit          3D

 18 18  0  0  0  0  0  0  0  0999 V2000
  -10.4410   28.2840  -15.9000 N   0  0  0  0  0  0  0  0  0  0  0  0
  -10.1680   29.6230  -15.8470 C   0  0  0  0  0  0  0  0  0  0  0  0
  -10.2910   30.2690  -14.4610 C   0  0  1  0  0  0  0  0  0  0  0  0
   -9.8470   30.2400  -16.8590 O   0  0  0  0  0  0  0  0  0  0  0  0
  -11.7580   30.5670  -14.1790 C   0  0  0  0  0  0  0  0  0  0  0  0
   -9.8470   29.3880  -13.4370 O   0  0  0  0  0  0  0  0  0  0  0  0
   -8.5110   29.3490  -13.1800 C   0  0  0  0  0  0  0  0  0  0  0  0
   -8.2200   29.1770  -11.8270 C   0  0  0  0  0  0  0  0  0  0  0  0
   -7.4780   29.4650  -14.1320 C   0  0  0  0  0  0  0  0  0  0  0  0
   -6.9060   29.1140  -11.4190 C   0  0  0  0  0  0  0  0  0  0  0  0
   -6.1360   29.4070  -13.7330 C   0  0  0  0  0  0  0  0  0  0  0  0
   -4.9760   29.5160  -14.6020 N   0  0  0  0  0  0  0  0  0  0  0  0
   -5.9060   29.2260  -12.3730 C   0  0  0  0  0  0  0  0  0  0  0  0
   -4.3140   29.1310  -11.8550 Cl  0  0  0  0  0  0  0  0  0  0  0  0
   -4.3910   30.6500  -15.1920 C   0  0  0  0  0  0  0  0  0  0  0  0
   -4.9290   31.7350  -15.3550 O   0  0  0  0  0  0  0  0  0  0  0  0
   -2.9410   30.4360  -15.6800 C   0  0  0  0  0  0  0  0  0  0  0  0
   -2.6510   31.2960  -16.8460 N   0  0  0  0  0  0  0  0  0  0  0  0
  1  2  1  0
  2  3  1  0
  2  4  2  0
  3  5  1  1
  3  6  1  0
  6  7  1  0
  7  8  2  0
  7  9  1  0
  8 10  1  0
  9 11  2  0
 11 12  1  0
 10 13  2  0
 11 13  1  0
 13 14  1  0
 12 15  1  0
 15 16  2  0
 15 17  1  0
 17 18  1  0
M  END
