diamond-x0587_0_A-diamond-x0895_1_A
     RDKit          3D

 19 20  0  0  0  0  0  0  0  0999 V2000
   -7.1790   15.0840    3.8510 N   0  0  0  0  0  0  0  0  0  0  0  0
   -7.8400   14.9790    2.6820 C   0  0  0  0  0  0  0  0  0  0  0  0
   -9.0640   15.1450    2.6450 O   0  0  0  0  0  0  0  0  0  0  0  0
   -7.0540   14.6620    1.4420 C   0  0  0  0  0  0  0  0  0  0  0  0
   -7.7710   13.9900    0.5030 C   0  0  0  0  0  0  0  0  0  0  0  0
   -5.6750   14.9450    0.9440 C   0  0  0  0  0  0  0  0  0  0  0  0
   -7.1820   13.6570   -0.7190 N   0  0  0  0  0  0  0  0  0  0  0  0
   -5.4330   15.0640   -0.3320 N   0  0  0  0  0  0  0  0  0  0  0  0
   -4.3860   15.1160    1.1130 C   0  0  0  0  0  0  0  0  0  0  0  0
   -6.0860   14.4110   -1.1180 C   0  0  0  0  0  0  0  0  0  0  0  0
   -3.6560   15.3860   -0.0240 N   0  0  0  0  0  0  0  0  0  0  0  0
   -3.5240   15.0830    2.1200 N   0  0  0  0  0  0  0  0  0  0  0  0
   -5.4270   14.5060   -2.4800 C   0  0  0  0  0  0  0  0  0  0  0  0
   -2.5000   14.5440    0.0540 C   0  0  0  0  0  0  0  0  0  0  0  0
   -2.2950   14.6880    1.5500 C   0  0  0  0  0  0  0  0  0  0  0  0
   -4.5460   15.5390   -2.5170 F   0  0  0  0  0  0  0  0  0  0  0  0
   -6.2370   14.4980   -3.5320 F   0  0  0  0  0  0  0  0  0  0  0  0
   -4.6190   13.4500   -2.6670 F   0  0  0  0  0  0  0  0  0  0  0  0
   -1.2600   14.5030    2.1130 O   0  0  0  0  0  0  0  0  0  0  0  0
  1  2  1  0
  2  3  2  0
  2  4  1  0
  4  5  2  0
  4  6  1  0
  5  7  1  0
  6  8  1  0
  6  9  2  3
  7 10  1  0
  8 10  2  0
  9 11  1  0
  9 12  1  0
 10 13  1  0
 11 14  1  0
 12 15  1  0
 14 15  1  0
 13 16  1  0
 13 17  1  0
 13 18  1  0
 15 19  2  0
M  END
