diamond-x0837_0_A-mac-x0415
     RDKit          3D

 24 26  0  0  0  0  0  0  0  0999 V2000
   -7.6070   14.8370    0.2510 O   0  0  0  0  0  0  0  0  0  0  0  0
   -6.3600   14.7440    0.2430 C   0  0  0  0  0  0  0  0  0  0  0  0
   -5.5770   14.8900    1.4490 N   0  0  0  0  0  0  0  0  0  0  0  0
   -5.6130   14.4690   -1.0070 C   0  0  0  0  0  0  0  0  0  0  0  0
   -4.1650   15.0480    1.2920 C   0  0  0  0  0  0  0  0  0  0  0  0
   -4.3870   15.3200   -1.1170 C   0  0  2  0  0  0  0  0  0  0  0  0
   -3.2640   14.7830   -2.8420 I   0  0  0  0  0  0  0  0  0  0  0  0
   -3.6140   15.2390    0.1270 C   0  0  0  0  0  0  0  0  0  0  0  0
   -4.5490   13.8750   -4.3070 C   0  0  0  0  0  0  0  0  0  0  0  0
   -4.6210   14.6440   -5.5810 C   0  0  0  0  0  0  0  0  0  0  0  0
   -3.7410   15.6760   -5.8110 O   0  0  0  0  0  0  0  0  0  0  0  0
   -2.4160   15.8120   -5.4130 C   0  0  0  0  0  0  0  0  0  0  0  0
   -1.8760   17.1440   -5.1320 C   0  0  0  0  0  0  0  0  0  0  0  0
   -1.6380   14.7410   -5.2870 C   0  0  0  0  0  0  0  0  0  0  0  0
   -0.2520   15.0210   -4.8480 C   0  0  0  0  0  0  0  0  0  0  0  0
   -0.6310   17.4180   -4.8440 C   0  0  0  0  0  0  0  0  0  0  0  0
    0.7330   14.1990   -4.4420 C   0  0  0  0  0  0  0  0  0  0  0  0
    0.3030   16.3530   -4.8120 C   0  0  1  0  0  0  0  0  0  0  0  0
    0.6500   12.7400   -4.3810 C   0  0  0  0  0  0  0  0  0  0  0  0
    1.8540   15.0610   -4.0500 C   0  0  0  0  0  0  0  0  0  0  0  0
    1.5280   16.2850   -4.2440 N   0  0  0  0  0  0  0  0  0  0  0  0
    0.6390   12.2030   -2.9900 C   0  0  0  0  0  0  0  0  0  0  0  0
    0.0970   10.9440   -2.8050 O   0  0  0  0  0  0  0  0  0  0  0  0
    1.0850   12.8160   -2.0090 O   0  0  0  0  0  0  0  0  0  0  0  0
  1  2  2  0
  2  3  1  0
  2  4  1  0
  3  5  1  0
  4  6  1  0
  6  7  1  6
  5  8  2  0
  6  8  1  0
  7  9  1  0
  9 10  1  0
 10 11  1  0
 11 12  1  0
 12 13  1  0
 12 14  2  0
 14 15  1  0
 13 16  2  0
 15 17  2  0
 15 18  1  0
 18 16  1  1
 17 19  1  0
 17 20  1  0
 18 21  1  0
 20 21  2  0
 19 22  1  0
 22 23  1  0
 22 24  2  0
M  END
