diamond-x0685_0_A-mac-x0137
     RDKit          3D

 23 25  0  0  0  0  0  0  0  0999 V2000
   -6.1490   14.9630    2.4890 N   0  0  0  0  0  0  0  0  0  0  0  0
   -7.5700   14.6820    2.3810 C   0  0  0  0  0  0  0  0  0  0  0  0
   -7.9200   13.3250    2.9750 C   0  0  0  0  0  0  0  0  0  0  0  0
   -5.2660   14.9240    1.3400 C   0  0  1  0  0  0  0  0  0  0  0  0
   -4.1190   13.8840    1.1750 C   0  0  0  0  0  0  0  0  0  0  0  0
   -6.1360   14.9270    0.2070 N   0  0  0  0  0  0  0  0  0  0  0  0
   -3.1340   14.4320    0.0790 C   0  0  1  0  0  0  0  0  0  0  0  0
   -5.3830   15.5880   -0.8240 C   0  0  0  0  0  0  0  0  0  0  0  0
   -4.1180   14.7910   -1.1330 C   0  0  1  0  0  0  0  0  0  0  0  0
   -2.2650   15.4210    0.7790 N   0  0  0  0  0  0  0  0  0  0  0  0
   -2.0860   13.5260   -0.5960 C   0  0  0  0  0  0  0  0  0  0  0  0
   -3.5500   15.2700   -2.3980 C   0  0  0  0  0  0  0  0  0  0  0  0
   -0.8080   15.1700    0.8950 C   0  0  0  0  0  0  0  0  0  0  0  0
   -1.0860   14.4160   -1.3560 C   0  0  2  0  0  0  0  0  0  0  0  0
   -3.1650   15.6020   -3.4370 N   0  0  0  0  0  0  0  0  0  0  0  0
   -0.3420   14.0090   -2.5570 N   0  0  0  0  0  0  0  0  0  0  0  0
   -0.1610   14.8200   -0.3380 N   0  0  0  0  0  0  0  0  0  0  0  0
   -0.9580   14.3470   -3.8750 C   0  0  0  0  0  0  0  0  0  0  0  0
    0.4590   12.7780   -2.5280 C   0  0  0  0  0  0  0  0  0  0  0  0
   -1.6420   13.1850   -4.6050 C   0  0  2  0  0  0  0  0  0  0  0  0
   -0.2440   11.6210   -3.2400 C   0  0  0  0  0  0  0  0  0  0  0  0
   -2.7870   12.8520   -3.9400 F   0  0  0  0  0  0  0  0  0  0  0  0
   -0.7400   11.9680   -4.6450 C   0  0  0  0  0  0  0  0  0  0  0  0
  1  2  1  0
  2  3  1  0
  4  1  1  1
  4  5  1  0
  4  6  1  0
  7  5  1  1
  6  8  1  0
  7  9  1  0
  8  9  1  0
  7 10  1  0
  7 11  1  0
  9 12  1  6
 10 13  1  0
 11 14  1  0
 12 15  3  0
 14 16  1  6
 13 17  1  0
 14 17  1  0
 16 18  1  0
 16 19  1  0
 18 20  1  0
 19 21  1  0
 20 22  1  1
 20 23  1  0
 21 23  1  0
M  END
