diamond-x0895_0_A-mac-x0124
     RDKit          3D

 17 19  0  0  0  0  0  0  0  0999 V2000
   -2.5360   13.8660    2.2320 O   0  0  0  0  0  0  0  0  0  0  0  0
   -3.3520   14.2570    1.4370 C   0  0  0  0  0  0  0  0  0  0  0  0
   -3.5770   15.6730    1.1250 C   0  0  2  0  0  0  0  0  0  0  0  0
   -4.1330   13.5330    0.5880 N   0  0  0  0  0  0  0  0  0  0  0  0
   -4.7330   15.5810    0.3020 N   0  0  0  0  0  0  0  0  0  0  0  0
   -4.6090   14.4010   -0.3400 C   0  0  0  0  0  0  0  0  0  0  0  0
   -2.3040   15.5810    0.4520 C   0  0  0  0  0  0  0  0  0  0  0  0
   -4.8680   14.1930   -1.5070 O   0  0  0  0  0  0  0  0  0  0  0  0
   -2.1470   15.5730   -0.9160 C   0  0  0  0  0  0  0  0  0  0  0  0
   -1.2270   15.4370    1.2650 N   0  0  0  0  0  0  0  0  0  0  0  0
   -2.9910   15.6830   -2.0500 C   0  0  0  0  0  0  0  0  0  0  0  0
   -0.8630   15.4060   -1.3720 C   0  0  0  0  0  0  0  0  0  0  0  0
   -0.0350   15.2890    0.6830 C   0  0  0  0  0  0  0  0  0  0  0  0
   -0.9020   15.4160   -2.7350 N   0  0  0  0  0  0  0  0  0  0  0  0
   -2.1970   15.5830   -3.1650 C   0  0  0  0  0  0  0  0  0  0  0  0
    0.2410   15.2530   -0.6270 N   0  0  0  0  0  0  0  0  0  0  0  0
    0.2610   15.2670   -3.5730 C   0  0  0  0  0  0  0  0  0  0  0  0
  1  2  2  0
  2  3  1  0
  2  4  1  0
  3  5  1  0
  4  6  1  0
  5  6  1  0
  3  7  1  6
  6  8  2  0
  7  9  1  0
  7 10  2  0
  9 11  1  0
  9 12  2  0
 10 13  1  0
 12 14  1  0
 11 15  2  0
 14 15  1  0
 12 16  1  0
 13 16  2  0
 14 17  1  0
M  END
