diamond-x0844_0_A-diamond-x0685_1_A
     RDKit          3D

 23 24  0  0  0  0  0  0  0  0999 V2000
   -7.4880   14.9070   -0.1810 O   0  0  0  0  0  0  0  0  0  0  0  0
   -6.2600   14.8150   -0.1970 C   0  0  0  0  0  0  0  0  0  0  0  0
   -5.5490   14.8180    0.9730 N   0  0  0  0  0  0  0  0  0  0  0  0
   -5.4790   14.6850   -1.4910 C   0  0  0  0  0  0  0  0  0  0  0  0
   -4.1890   14.8400    1.0540 C   0  0  0  0  0  0  0  0  0  0  0  0
   -4.0400   15.1950   -1.4100 C   0  0  2  0  0  0  0  0  0  0  0  0
   -3.1540   14.5620   -2.3840 O   0  0  0  0  0  0  0  0  0  0  0  0
   -3.4380   15.0110   -0.0420 C   0  0  0  0  0  0  0  0  0  0  0  0
   -3.7060   13.5360   -3.2460 C   0  0  0  0  0  0  0  0  0  0  0  0
   -2.7540   13.1280   -4.4090 C   0  0  0  0  0  0  0  0  0  0  0  0
   -1.7300   12.0080   -4.0610 C   0  0  1  0  0  0  0  0  0  0  0  0
   -1.8340   10.6630   -4.7030 N   0  0  0  0  0  0  0  0  0  0  0  0
   -0.2760   12.4940   -4.1000 C   0  0  0  0  0  0  0  0  0  0  0  0
    0.6710   12.0010   -2.6610 S   0  0  0  0  0  0  0  0  0  0  0  0
   -1.6370   10.2930   -6.1280 C   0  0  0  0  0  0  0  0  0  0  0  0
    2.2000   12.3330   -2.9870 O   0  0  0  0  0  0  0  0  0  0  0  0
    0.4540   10.4180   -2.4960 O   0  0  0  0  0  0  0  0  0  0  0  0
    0.2070   12.7420   -1.3190 O   0  0  0  0  0  0  0  0  0  0  0  0
   -0.7670    9.0150   -6.2390 C   0  0  0  0  0  0  0  0  0  0  0  0
   -1.0530   11.3920   -7.0280 C   0  0  0  0  0  0  0  0  0  0  0  0
   -0.0420    8.8800   -7.5820 C   0  0  0  0  0  0  0  0  0  0  0  0
   -1.0620   10.9930   -8.5160 C   0  0  0  0  0  0  0  0  0  0  0  0
   -0.8650    9.4880   -8.7120 C   0  0  0  0  0  0  0  0  0  0  0  0
  1  2  2  0
  2  3  1  0
  2  4  1  0
  3  5  1  0
  4  6  1  0
  6  7  1  6
  5  8  2  0
  6  8  1  0
  7  9  1  0
  9 10  1  0
 11 10  1  6
 11 12  1  0
 11 13  1  0
 13 14  1  0
 12 15  1  0
 14 16  1  0
 14 17  1  0
 14 18  1  0
 15 19  1  0
 15 20  1  0
 19 21  1  0
 20 22  1  0
 21 23  1  0
 22 23  1  0
M  END
