diamond-x0895_1_A-diamond-x0837_0_A
     RDKit          3D

  8  8  0  0  0  0  0  0  0  0999 V2000
   -1.7120   14.9020    1.5180 O   0  0  0  0  0  0  0  0  0  0  0  0
   -2.7760   14.9380    0.8910 C   0  0  0  0  0  0  0  0  0  0  0  0
   -3.0330   15.5120   -0.5120 C   0  0  1  0  0  0  0  0  0  0  0  0
   -3.9630   14.4730    1.3590 N   0  0  0  0  0  0  0  0  0  0  0  0
   -2.4300   14.3240   -2.0950 I   0  0  0  0  0  0  0  0  0  0  0  0
   -4.4680   15.5240   -0.5130 N   0  0  0  0  0  0  0  0  0  0  0  0
   -4.9830   14.8880    0.5820 C   0  0  0  0  0  0  0  0  0  0  0  0
   -6.1710   14.7320    0.8020 O   0  0  0  0  0  0  0  0  0  0  0  0
  1  2  2  0
  2  3  1  0
  2  4  1  0
  3  5  1  6
  3  6  1  0
  4  7  1  0
  6  7  1  0
  7  8  2  0
M  END
