diamond-x1012_0_A-mac-x0115
     RDKit          3D

 27 29  0  0  0  0  0  0  0  0999 V2000
   -1.5990   17.2350   -5.6270 N   0  0  0  0  0  0  0  0  0  0  0  0
   -0.3570   16.5930   -5.2530 C   0  0  1  0  0  0  0  0  0  0  0  0
    0.6730   16.9970   -6.1110 O   0  0  0  0  0  0  0  0  0  0  0  0
   -1.5060   18.6270   -6.0810 C   0  0  0  0  0  0  0  0  0  0  0  0
   -0.1730   18.9710   -6.7510 C   0  0  0  0  0  0  0  0  0  0  0  0
    0.0730   16.9320   -3.8430 C   0  0  0  0  0  0  0  0  0  0  0  0
   -0.5580   15.1350   -5.3620 N   0  0  0  0  0  0  0  0  0  0  0  0
    0.5470   15.6510   -3.2110 C   0  0  0  0  0  0  0  0  0  0  0  0
   -1.7720   14.4820   -4.8370 C   0  0  0  0  0  0  0  0  0  0  0  0
    0.6590   14.3120   -5.4820 C   0  0  0  0  0  0  0  0  0  0  0  0
   -1.5310   13.4910   -3.6850 C   0  0  0  0  0  0  0  0  0  0  0  0
    0.9270   13.3190   -4.3480 C   0  0  0  0  0  0  0  0  0  0  0  0
    0.0430   15.4640   -1.8500 N   0  0  0  0  0  0  0  0  0  0  0  0
   -0.3300   12.5580   -3.9220 C   0  0  0  0  0  0  0  0  0  0  0  0
    0.9030   14.8230   -0.9850 C   0  0  0  0  0  0  0  0  0  0  0  0
   -1.3120   15.3480   -1.5910 C   0  0  0  0  0  0  0  0  0  0  0  0
   -0.0310   11.7270   -2.6730 C   0  0  0  0  0  0  0  0  0  0  0  0
    2.3870   14.1770   -1.4530 S   0  0  0  0  0  0  0  0  0  0  0  0
    0.4510   14.7500    0.3220 N   0  0  0  0  0  0  0  0  0  0  0  0
   -1.7490   14.4250   -0.5100 C   0  0  1  0  0  0  0  0  0  0  0  0
   -2.3590   15.9360   -2.1670 C   0  0  0  0  0  0  0  0  0  0  0  0
    0.2310   10.4290   -2.9550 O   0  0  0  0  0  0  0  0  0  0  0  0
   -0.0220   12.1620   -1.5240 O   0  0  0  0  0  0  0  0  0  0  0  0
   -0.8870   14.6640    0.7040 C   0  0  0  0  0  0  0  0  0  0  0  0
   -3.2190   14.5900   -0.4100 N   0  0  0  0  0  0  0  0  0  0  0  0
   -3.4770   15.4190   -1.3760 C   0  0  0  0  0  0  0  0  0  0  0  0
   -1.2820   14.7510    1.8620 O   0  0  0  0  0  0  0  0  0  0  0  0
  1  2  1  0
  2  3  1  6
  1  4  1  0
  4  5  1  0
  2  6  1  0
  2  7  1  0
  6  8  1  0
  7  9  1  0
  7 10  1  0
  9 11  1  0
 10 12  1  0
  8 13  1  0
 11 14  1  0
 12 14  1  0
 13 15  1  0
 13 16  1  0
 14 17  1  0
 15 18  2  0
 15 19  1  0
 16 20  1  0
 16 21  2  0
 17 22  1  0
 17 23  2  0
 19 24  1  0
 20 24  1  0
 20 25  1  1
 21 26  1  0
 25 26  2  0
 24 27  2  0
M  END
