diamond-x0950_0_A-diamond-x0689_0_A
     RDKit          3D

 15 15  0  0  0  0  0  0  0  0999 V2000
    2.8460   12.9520   -3.8070 C   0  0  0  0  0  0  0  0  0  0  0  0
    1.3340   12.8670   -3.8920 C   0  0  1  0  0  0  0  0  0  0  0  0
    0.9710   12.4390   -5.2040 O   0  0  0  0  0  0  0  0  0  0  0  0
    0.7700   11.9480   -2.7850 C   0  0  0  0  0  0  0  0  0  0  0  0
    0.2740   10.8570   -3.0190 O   0  0  0  0  0  0  0  0  0  0  0  0
    0.8800   12.4520   -1.5010 O   0  0  0  0  0  0  0  0  0  0  0  0
    0.8820   13.8700   -1.2520 C   0  0  0  0  0  0  0  0  0  0  0  0
   -0.3060   14.2080   -0.4080 C   0  0  0  0  0  0  0  0  0  0  0  0
   -1.4920   14.5480   -0.9900 C   0  0  0  0  0  0  0  0  0  0  0  0
   -0.3390   14.2080    0.9800 C   0  0  0  0  0  0  0  0  0  0  0  0
   -2.5990   14.8580   -0.3020 N   0  0  0  0  0  0  0  0  0  0  0  0
   -1.4230   14.5150    1.7110 N   0  0  0  0  0  0  0  0  0  0  0  0
   -2.5230   14.8320    1.0320 C   0  0  0  0  0  0  0  0  0  0  0  0
   -3.6930   15.1720    1.6730 N   0  0  0  0  0  0  0  0  0  0  0  0
   -4.8060   15.2890    0.7770 C   0  0  0  0  0  0  0  0  0  0  0  0
  2  1  1  6
  2  3  1  0
  2  4  1  0
  4  5  2  0
  4  6  1  0
  6  7  1  0
  7  8  1  0
  8  9  2  0
  8 10  1  0
  9 11  1  0
 10 12  2  0
 11 13  2  0
 12 13  1  0
 13 14  1  0
 14 15  1  0
M  END
