diamond-x0905_0_A-mac-x0357
     RDKit          3D

 20 21  0  0  0  0  0  0  0  0999 V2000
   -7.0530   14.9840   -0.8320 O   0  0  0  0  0  0  0  0  0  0  0  0
   -5.7420   15.1400   -0.5220 C   0  0  0  0  0  0  0  0  0  0  0  0
   -5.4860   15.1010    0.7910 N   0  0  0  0  0  0  0  0  0  0  0  0
   -4.8030   15.3200   -1.5090 C   0  0  0  0  0  0  0  0  0  0  0  0
   -4.1920   15.2580    1.1490 C   0  0  0  0  0  0  0  0  0  0  0  0
   -3.4730   15.4750   -1.1090 C   0  0  0  0  0  0  0  0  0  0  0  0
   -2.4010   15.6660   -2.1290 C   0  0  0  0  0  0  0  0  0  0  0  0
   -3.1630   15.4450    0.2470 C   0  0  0  0  0  0  0  0  0  0  0  0
   -1.0200   15.1630   -1.7030 C   0  0  0  0  0  0  0  0  0  0  0  0
   -0.7640   14.2470   -2.7860 N   0  0  0  0  0  0  0  0  0  0  0  0
    0.0320   13.2620   -2.7870 C   0  0  0  0  0  0  0  0  0  0  0  0
    0.8470   12.8440   -1.7950 O   0  0  0  0  0  0  0  0  0  0  0  0
    0.0220   12.5100   -4.0410 C   0  0  0  0  0  0  0  0  0  0  0  0
    1.0950   12.4960   -4.9280 C   0  0  0  0  0  0  0  0  0  0  0  0
   -1.1690   11.8140   -4.3060 C   0  0  0  0  0  0  0  0  0  0  0  0
    2.3700   13.2340   -4.6330 C   0  0  0  0  0  0  0  0  0  0  0  0
   -1.3090   11.0870   -5.4820 C   0  0  0  0  0  0  0  0  0  0  0  0
    0.9140   11.7600   -6.1030 C   0  0  0  0  0  0  0  0  0  0  0  0
    1.8590   11.6610   -7.0500 O   0  0  0  0  0  0  0  0  0  0  0  0
   -0.2590   11.0660   -6.3830 C   0  0  0  0  0  0  0  0  0  0  0  0
  1  2  1  0
  2  3  2  0
  2  4  1  0
  3  5  1  0
  4  6  2  0
  6  7  1  0
  5  8  2  0
  6  8  1  0
  7  9  1  0
  9 10  1  0
 10 11  2  3
 11 12  1  0
 11 13  1  0
 13 14  2  0
 13 15  1  0
 14 16  1  0
 15 17  2  0
 14 18  1  0
 18 19  1  0
 17 20  1  0
 18 20  2  0
M  END
