diamond-x0895_1_A-mac-x0163
     RDKit          3D

 23 26  0  0  0  0  0  0  0  0999 V2000
   -2.6650   13.7840    2.2680 O   0  0  0  0  0  0  0  0  0  0  0  0
   -3.3220   14.0390    1.3080 C   0  0  0  0  0  0  0  0  0  0  0  0
   -3.8990   13.0520    0.2990 C   0  0  0  0  0  0  0  0  0  0  0  0
   -3.5770   15.2180    0.8460 N   0  0  0  0  0  0  0  0  0  0  0  0
   -4.5930   13.9320   -0.5650 N   0  0  0  0  0  0  0  0  0  0  0  0
   -4.7740   15.0040    0.2180 C   0  0  0  0  0  0  0  0  0  0  0  0
   -2.3410   15.3080    0.2710 C   0  0  0  0  0  0  0  0  0  0  0  0
   -5.8430   15.5320    0.2890 O   0  0  0  0  0  0  0  0  0  0  0  0
   -2.1030   15.4780   -1.0710 C   0  0  0  0  0  0  0  0  0  0  0  0
   -1.3690   15.1600    1.2070 N   0  0  0  0  0  0  0  0  0  0  0  0
   -3.4210   15.6190   -2.1880 Cl  0  0  0  0  0  0  0  0  0  0  0  0
   -0.7480   15.5110   -1.4450 C   0  0  0  0  0  0  0  0  0  0  0  0
   -0.1360   15.1950    0.7550 C   0  0  0  0  0  0  0  0  0  0  0  0
    0.2120   15.3610   -0.5110 N   0  0  0  0  0  0  0  0  0  0  0  0
   -0.2590   15.6960   -2.7720 N   0  0  0  0  0  0  0  0  0  0  0  0
    1.0680   15.1570   -3.0900 C   0  0  0  0  0  0  0  0  0  0  0  0
   -1.2220   15.8160   -3.8720 C   0  0  0  0  0  0  0  0  0  0  0  0
    0.9720   13.8370   -3.8790 C   0  0  0  0  0  0  0  0  0  0  0  0
   -1.4180   14.4630   -4.5550 C   0  0  0  0  0  0  0  0  0  0  0  0
    2.3540   13.3950   -4.4270 C   0  0  0  0  0  0  0  0  0  0  0  0
    1.1140   12.5630   -2.9730 C   0  0  0  0  0  0  0  0  0  0  0  0
   -0.0920   13.8430   -5.0050 C   0  0  0  0  0  0  0  0  0  0  0  0
    2.6370   12.8080   -3.0460 C   0  0  0  0  0  0  0  0  0  0  0  0
  1  2  2  0
  2  3  1  0
  2  4  1  0
  3  5  1  0
  4  6  1  0
  5  6  1  0
  4  7  1  0
  6  8  2  0
  7  9  2  0
  7 10  1  0
  9 11  1  0
  9 12  1  0
 10 13  2  0
 12 14  2  0
 13 14  1  0
 12 15  1  0
 15 16  1  0
 15 17  1  0
 18 16  1  0
 17 19  1  0
 18 20  1  0
 18 21  1  0
 18 22  1  0
 19 22  1  0
 20 23  1  0
 21 23  1  0
M  END
