diamond-x0591_0_A-diamond-x0631_0_A
     RDKit          3D

 33 35  0  0  0  0  0  0  0  0999 V2000
   -5.7760   14.6010    0.9100 N   0  0  0  0  0  0  0  0  0  0  0  0
   -6.7300   14.4920    1.9890 C   0  0  0  0  0  0  0  0  0  0  0  0
   -6.2490   14.7580   -0.3680 C   0  0  0  0  0  0  0  0  0  0  0  0
   -7.4370   14.9280   -0.6160 O   0  0  0  0  0  0  0  0  0  0  0  0
   -5.2800   14.7110   -1.4980 C   0  0  0  0  0  0  0  0  0  0  0  0
   -3.9100   14.5080   -1.2620 C   0  0  0  0  0  0  0  0  0  0  0  0
   -5.7250   14.8660   -2.8000 C   0  0  0  0  0  0  0  0  0  0  0  0
   -3.0030   14.4640   -2.3360 C   0  0  0  0  0  0  0  0  0  0  0  0
   -4.8300   14.8170   -3.8600 C   0  0  0  0  0  0  0  0  0  0  0  0
   -3.4790   14.6200   -3.6360 C   0  0  0  0  0  0  0  0  0  0  0  0
   -2.4170   14.5780   -5.0510 S   0  0  1  0  0  0  0  0  0  0  0  0
   -0.8740   15.0430   -4.6070 N   0  0  0  0  0  0  0  0  0  0  0  0
   -2.2140   13.1170   -5.4790 N   0  0  0  0  0  0  0  0  0  0  0  0
   -2.8580   15.6140   -5.9550 O   0  0  0  0  0  0  0  0  0  0  0  0
   -1.0210   12.3450   -5.1030 C   0  0  0  0  0  0  0  0  0  0  0  0
   -1.2970   10.8440   -5.3560 C   0  0  0  0  0  0  0  0  0  0  0  0
   -2.6680   10.5310   -6.0100 C   0  0  0  0  0  0  0  0  0  0  0  0
   -2.7190    9.3060   -6.9510 C   0  0  0  0  0  0  0  0  0  0  0  0
   -1.7420    8.1900   -6.5870 C   0  0  0  0  0  0  0  0  0  0  0  0
   -0.3060    8.6000   -6.8620 C   0  0  0  0  0  0  0  0  0  0  0  0
   -0.2760    9.7340   -7.8110 N   0  0  0  0  0  0  0  0  0  0  0  0
    0.6000   10.7960   -7.4480 N   0  0  0  0  0  0  0  0  0  0  0  0
   -0.0200    9.3470   -9.1820 N   0  0  0  0  0  0  0  0  0  0  0  0
    1.1830   11.1820   -8.6790 N   0  0  0  0  0  0  0  0  0  0  0  0
    1.2330    9.9810   -9.4650 C   0  0  2  0  0  0  0  0  0  0  0  0
    1.3810   10.3510  -10.8290 N   0  0  0  0  0  0  0  0  0  0  0  0
    2.3080    9.5110  -11.5570 C   0  0  1  0  0  0  0  0  0  0  0  0
    1.8410    8.1860  -11.6210 O   0  0  0  0  0  0  0  0  0  0  0  0
    2.6730    9.9870  -12.9910 C   0  0  2  0  0  0  0  0  0  0  0  0
    4.0000    9.6020  -13.3650 O   0  0  0  0  0  0  0  0  0  0  0  0
    2.5770   11.4800  -13.2780 C   0  0  0  0  0  0  0  0  0  0  0  0
    3.5200   11.6700  -14.4540 C   0  0  0  0  0  0  0  0  0  0  0  0
    4.3470   10.3990  -14.5050 C   0  0  0  0  0  0  0  0  0  0  0  0
  1  2  1  0
  1  3  1  0
  3  4  2  0
  3  5  1  0
  5  6  2  0
  5  7  1  0
  6  8  1  0
  7  9  2  0
  8 10  2  0
  9 10  1  0
 10 11  1  0
 11 12  1  1
 11 13  2  0
 11 14  2  0
 13 15  1  0
 15 16  1  0
 16 17  1  0
 17 18  1  0
 18 19  1  0
 19 20  1  0
 20 21  1  0
 21 22  1  0
 21 23  1  0
 22 24  1  0
 23 25  1  0
 24 25  1  0
 25 26  1  6
 26 27  1  0
 27 28  1  6
 27 29  1  0
 29 30  1  0
 29 31  1  1
 31 32  1  0
 30 33  1  0
 32 33  1  0
M  END
