diamond-x0128_0_A-mac-x0555
     RDKit          3D

 20 22  0  0  0  0  0  0  0  0999 V2000
   -6.4980   14.9420    2.6280 N   0  0  0  0  0  0  0  0  0  0  0  0
   -7.8070   15.2120    3.0000 C   0  0  0  0  0  0  0  0  0  0  0  0
   -8.7430   15.4170    2.2380 O   0  0  0  0  0  0  0  0  0  0  0  0
   -5.8830   14.8730    1.4090 C   0  0  0  0  0  0  0  0  0  0  0  0
   -7.8810   15.2210    4.3900 N   0  0  0  0  0  0  0  0  0  0  0  0
   -6.5010   14.8240    0.1090 C   0  0  0  0  0  0  0  0  0  0  0  0
   -4.5320   14.8590    1.2770 C   0  0  0  0  0  0  0  0  0  0  0  0
   -4.1780   14.7060   -0.1580 C   0  0  1  0  0  0  0  0  0  0  0  0
   -8.6230   16.0970    5.2180 C   0  0  0  0  0  0  0  0  0  0  0  0
   -5.5240   14.7610   -0.8000 C   0  0  0  0  0  0  0  0  0  0  0  0
   -5.5680   14.7220   -2.2190 C   0  0  0  0  0  0  0  0  0  0  0  0
   -9.2600   17.2640    4.8130 C   0  0  0  0  0  0  0  0  0  0  0  0
   -8.7240   15.7560    6.5710 C   0  0  0  0  0  0  0  0  0  0  0  0
   -3.1870   15.5710   -0.8680 C   0  0  0  0  0  0  0  0  0  0  0  0
   -6.7540   14.1590   -2.8600 C   0  0  0  0  0  0  0  0  0  0  0  0
   -9.9660   18.0740    5.6420 N   0  0  0  0  0  0  0  0  0  0  0  0
   -9.4420   16.5730    7.4440 C   0  0  0  0  0  0  0  0  0  0  0  0
   -4.5140   15.2070   -2.8770 C   0  0  0  0  0  0  0  0  0  0  0  0
   -3.3720   15.7770   -2.1840 C   0  0  0  0  0  0  0  0  0  0  0  0
  -10.0390   17.7120    6.9350 C   0  0  0  0  0  0  0  0  0  0  0  0
  1  2  1  0
  2  3  2  0
  1  4  1  0
  2  5  1  0
  4  6  1  0
  4  7  2  0
  8  7  1  1
  5  9  1  0
  6 10  2  0
  8 10  1  0
 10 11  1  0
  9 12  2  0
  9 13  1  0
  8 14  1  0
 11 15  1  0
 12 16  1  0
 13 17  2  0
 11 18  2  0
 14 19  2  0
 18 19  1  0
 16 20  2  0
 17 20  1  0
M  END
