diamond-x0855_0_A-mac-x0321
     RDKit          3D

 22 23  0  0  0  0  0  0  0  0999 V2000
    1.8080   12.8020   -2.7240 O   0  0  0  0  0  0  0  0  0  0  0  0
    0.8420   12.0100   -3.2330 C   0  0  0  0  0  0  0  0  0  0  0  0
   -0.1610   12.6410   -4.1710 C   0  0  1  0  0  0  0  0  0  0  0  0
    0.7680   10.8250   -2.9300 O   0  0  0  0  0  0  0  0  0  0  0  0
    0.4210   13.7620   -5.0180 C   0  0  0  0  0  0  0  0  0  0  0  0
   -0.8840   11.6470   -4.9290 N   0  0  0  0  0  0  0  0  0  0  0  0
   -0.0720   15.1320   -4.5490 C   0  0  0  0  0  0  0  0  0  0  0  0
   -0.4450   10.8320   -5.9320 C   0  0  0  0  0  0  0  0  0  0  0  0
   -2.1850   11.4720   -4.6170 N   0  0  0  0  0  0  0  0  0  0  0  0
   -1.4830   15.1540   -4.0690 N   0  0  0  0  0  0  0  0  0  0  0  0
   -1.5390   10.0810   -6.2750 C   0  0  0  0  0  0  0  0  0  0  0  0
   -2.5780   10.5110   -5.4480 C   0  0  0  0  0  0  0  0  0  0  0  0
   -1.6820    8.7470   -7.5630 Br  0  0  0  0  0  0  0  0  0  0  0  0
   -1.7240   14.9350   -2.8110 C   0  0  0  0  0  0  0  0  0  0  0  0
   -0.7540   14.6410   -1.9250 O   0  0  0  0  0  0  0  0  0  0  0  0
   -3.0690   15.0470   -2.1830 C   0  0  0  0  0  0  0  0  0  0  0  0
   -3.1200   15.1290   -0.7900 C   0  0  0  0  0  0  0  0  0  0  0  0
   -4.2540   15.0960   -2.9240 C   0  0  0  0  0  0  0  0  0  0  0  0
   -4.3390   15.2700   -0.1490 C   0  0  0  0  0  0  0  0  0  0  0  0
   -5.4830   15.2320   -2.2630 C   0  0  0  0  0  0  0  0  0  0  0  0
   -4.3590   15.3880    1.5530 Cl  0  0  0  0  0  0  0  0  0  0  0  0
   -5.5240   15.3210   -0.8730 C   0  0  0  0  0  0  0  0  0  0  0  0
  1  2  1  0
  2  3  1  0
  2  4  2  0
  3  5  1  6
  3  6  1  0
  5  7  1  0
  6  8  1  0
  6  9  1  0
  7 10  1  0
  8 11  2  0
  9 12  2  0
 11 12  1  0
 11 13  1  0
 10 14  2  3
 14 15  1  0
 14 16  1  0
 16 17  2  0
 16 18  1  0
 17 19  1  0
 18 20  2  0
 19 21  1  0
 19 22  2  0
 20 22  1  0
M  END
