diamond-x0628_0_A-diamond-x0969_0_A
     RDKit          3D

 24 26  0  0  0  0  0  0  0  0999 V2000
   -0.9160    9.0410   -7.0970 C   0  0  0  0  0  0  0  0  0  0  0  0
   -0.9430   10.2880   -6.3100 C   0  0  0  0  0  0  0  0  0  0  0  0
   -1.9950   10.6540   -5.5090 N   0  0  0  0  0  0  0  0  0  0  0  0
    0.0650   11.1550   -6.3230 N   0  0  0  0  0  0  0  0  0  0  0  0
   -0.3690   12.1150   -5.4870 N   0  0  0  0  0  0  0  0  0  0  0  0
   -1.6210   11.8170   -4.9900 C   0  0  0  0  0  0  0  0  0  0  0  0
   -2.4420   12.6450   -4.0360 C   0  0  0  0  0  0  0  0  0  0  0  0
    0.4960   13.2500   -5.2510 C   0  0  0  0  0  0  0  0  0  0  0  0
    1.6550   12.9750   -4.3120 C   0  0  0  0  0  0  0  0  0  0  0  0
   -1.6990   13.2750   -2.8350 C   0  0  0  0  0  0  0  0  0  0  0  0
    1.2130   12.2930   -3.0430 C   0  0  0  0  0  0  0  0  0  0  0  0
   -2.1500   14.6930   -2.3650 C   0  0  0  0  0  0  0  0  0  0  0  0
    0.5280   11.2890   -2.9440 O   0  0  0  0  0  0  0  0  0  0  0  0
    1.6710   12.9570   -1.9710 O   0  0  0  0  0  0  0  0  0  0  0  0
   -3.2910   14.7640   -1.3590 C   0  0  0  0  0  0  0  0  0  0  0  0
   -4.5820   14.6990   -1.7480 C   0  0  0  0  0  0  0  0  0  0  0  0
   -2.9650   14.8920    0.0760 C   0  0  0  0  0  0  0  0  0  0  0  0
   -5.6260   14.7110   -0.7870 C   0  0  0  0  0  0  0  0  0  0  0  0
   -3.9590   14.9130    0.9890 C   0  0  0  0  0  0  0  0  0  0  0  0
   -6.9340   14.6310   -0.9080 N   0  0  0  0  0  0  0  0  0  0  0  0
   -5.2810   14.8070    0.5500 N   0  0  0  0  0  0  0  0  0  0  0  0
   -6.4920   14.7680    1.2260 C   0  0  0  0  0  0  0  0  0  0  0  0
   -7.4730   14.6650    0.3540 N   0  0  0  0  0  0  0  0  0  0  0  0
   -6.6280   14.8370    2.5700 N   0  0  0  0  0  0  0  0  0  0  0  0
  1  2  1  0
  2  3  1  0
  2  4  2  0
  4  5  1  0
  3  6  2  0
  5  6  1  0
  6  7  1  0
  5  8  1  0
  8  9  1  0
  7 10  1  0
  9 11  1  0
 10 12  1  0
 11 13  2  0
 11 14  1  0
 12 15  1  0
 15 16  2  0
 15 17  1  0
 16 18  1  0
 17 19  2  0
 18 20  2  0
 18 21  1  0
 19 21  1  0
 21 22  1  0
 20 23  1  0
 22 23  2  0
 22 24  1  0
M  END
