diamond-x0626_0_A-mac-x0354
     RDKit          3D

 29 31  0  0  0  0  0  0  0  0999 V2000
   -5.1660   14.9010    1.4900 N   0  0  0  0  0  0  0  0  0  0  0  0
   -6.2690   14.6850    0.7040 C   0  0  0  0  0  0  0  0  0  0  0  0
   -6.3470   14.7580   -0.5200 O   0  0  0  0  0  0  0  0  0  0  0  0
   -3.9270   14.8920    0.9640 C   0  0  0  0  0  0  0  0  0  0  0  0
   -7.4570   14.3280    1.5690 C   0  0  0  0  0  0  0  0  0  0  0  0
   -2.7710   14.8280    1.5740 N   0  0  0  0  0  0  0  0  0  0  0  0
   -3.9240   14.9690   -0.7450 S   0  0  0  0  0  0  0  0  0  0  0  0
   -8.7770   14.6470    0.8950 C   0  0  0  0  0  0  0  0  0  0  0  0
   -2.2300   14.9020   -0.6860 C   0  0  0  0  0  0  0  0  0  0  0  0
   -1.8070   14.8410    0.6260 C   0  0  0  0  0  0  0  0  0  0  0  0
   -0.4220   14.7750    1.0330 C   0  0  0  0  0  0  0  0  0  0  0  0
    0.0400   13.7200    0.1060 C   0  0  0  0  0  0  0  0  0  0  0  0
    0.5720   14.2760   -1.1930 C   0  0  0  0  0  0  0  0  0  0  0  0
    1.4710   13.2060   -1.7140 C   0  0  0  0  0  0  0  0  0  0  0  0
    1.3810   12.9850   -3.0910 N   0  0  0  0  0  0  0  0  0  0  0  0
    0.8310   11.9830   -3.6170 C   0  0  0  0  0  0  0  0  0  0  0  0
    0.2380   11.0120   -2.8800 O   0  0  0  0  0  0  0  0  0  0  0  0
    0.9050   11.8570   -4.9930 C   0  0  0  0  0  0  0  0  0  0  0  0
    1.8620   12.5800   -5.6770 C   0  0  0  0  0  0  0  0  0  0  0  0
    0.2300   11.1260   -5.9600 C   0  0  0  0  0  0  0  0  0  0  0  0
    0.8400   11.4710   -7.1200 N   0  0  0  0  0  0  0  0  0  0  0  0
    1.8220   12.3450   -6.9410 N   0  0  0  0  0  0  0  0  0  0  0  0
   -0.8530   10.1790   -5.9300 C   0  0  0  0  0  0  0  0  0  0  0  0
    0.5430   11.0060   -8.4550 C   0  0  0  0  0  0  0  0  0  0  0  0
   -0.6510    8.9080   -6.4770 C   0  0  0  0  0  0  0  0  0  0  0  0
   -2.0840   10.5160   -5.3760 C   0  0  0  0  0  0  0  0  0  0  0  0
   -1.6810    7.9760   -6.4690 C   0  0  0  0  0  0  0  0  0  0  0  0
   -3.1130    9.5810   -5.3700 C   0  0  0  0  0  0  0  0  0  0  0  0
   -2.9140    8.3130   -5.9150 C   0  0  0  0  0  0  0  0  0  0  0  0
  1  2  1  0
  2  3  2  0
  1  4  1  0
  2  5  1  0
  4  6  2  0
  4  7  1  0
  5  8  1  0
  7  9  1  0
  6 10  1  0
  9 10  2  0
 10 11  1  0
 11 12  1  0
 12 13  1  0
 13 14  1  0
 14 15  1  0
 15 16  2  3
 16 17  1  0
 16 18  1  0
 18 19  1  0
 18 20  2  0
 20 21  1  0
 19 22  2  0
 21 22  1  0
 20 23  1  0
 21 24  1  0
 23 25  2  0
 23 26  1  0
 25 27  1  0
 26 28  2  0
 27 29  2  0
 28 29  1  0
M  END
