diamond-x0895_0_A-mac-x0411
     RDKit          3D

 23 24  0  0  0  0  0  0  0  0999 V2000
   -1.4650   14.6320    1.7850 O   0  0  0  0  0  0  0  0  0  0  0  0
   -2.4620   14.7610    1.0810 C   0  0  0  0  0  0  0  0  0  0  0  0
   -3.9140   14.8600    1.5120 C   0  0  0  0  0  0  0  0  0  0  0  0
   -2.4940   14.8480   -0.2910 N   0  0  0  0  0  0  0  0  0  0  0  0
   -4.4790   15.4980    0.3690 N   0  0  0  0  0  0  0  0  0  0  0  0
   -3.7340   15.2160   -0.7160 C   0  0  0  0  0  0  0  0  0  0  0  0
   -4.1420   15.2920   -1.9210 N   0  0  0  0  0  0  0  0  0  0  0  0
   -3.2190   14.9950   -3.0020 C   0  0  0  0  0  0  0  0  0  0  0  0
   -3.8130   13.9760   -3.9660 C   0  0  0  0  0  0  0  0  0  0  0  0
   -2.8590   13.5290   -5.0920 C   0  0  0  0  0  0  0  0  0  0  0  0
   -1.7340   12.5640   -4.6710 C   0  0  0  0  0  0  0  0  0  0  0  0
   -1.6550   11.2500   -5.4400 C   0  0  0  0  0  0  0  0  0  0  0  0
   -0.5250   10.7780   -6.1600 C   0  0  0  0  0  0  0  0  0  0  0  0
   -2.8110   10.4360   -5.4350 C   0  0  0  0  0  0  0  0  0  0  0  0
    0.6830   11.4280   -6.2700 O   0  0  0  0  0  0  0  0  0  0  0  0
   -2.8690    9.2160   -6.1040 C   0  0  0  0  0  0  0  0  0  0  0  0
   -0.6090    9.5360   -6.8400 C   0  0  0  0  0  0  0  0  0  0  0  0
    0.7120    8.8880   -7.7650 Cl  0  0  0  0  0  0  0  0  0  0  0  0
    1.0200   12.4300   -5.2950 C   0  0  0  0  0  0  0  0  0  0  0  0
   -1.7640    8.7670   -6.8080 C   0  0  0  0  0  0  0  0  0  0  0  0
    0.8710   11.9590   -3.8500 C   0  0  0  0  0  0  0  0  0  0  0  0
    1.3600   12.8080   -2.9200 O   0  0  0  0  0  0  0  0  0  0  0  0
    0.3640   10.8930   -3.5370 O   0  0  0  0  0  0  0  0  0  0  0  0
  1  2  2  0
  2  3  1  0
  2  4  1  0
  3  5  1  0
  4  6  1  0
  5  6  1  0
  6  7  2  3
  7  8  1  0
  8  9  1  0
  9 10  1  0
 10 11  1  0
 11 12  1  0
 12 13  2  0
 12 14  1  0
 13 15  1  0
 14 16  2  0
 13 17  1  0
 17 18  1  0
 15 19  1  0
 16 20  1  0
 17 20  2  0
 19 21  1  0
 21 22  1  0
 21 23  2  0
M  END
