diamond-x0724_0_A-mac-x0123
     RDKit          3D

 17 19  0  0  0  0  0  0  0  0999 V2000
   -8.2050   14.7150    4.5690 N   0  0  0  0  0  0  0  0  0  0  0  0
   -9.0470   13.8630    5.4040 C   0  0  0  0  0  0  0  0  0  0  0  0
   -8.7900   14.9990    3.2510 C   0  0  0  0  0  0  0  0  0  0  0  0
   -8.0490   14.2650    2.1330 C   0  0  2  0  0  0  0  0  0  0  0  0
   -6.5480   14.3880    2.2970 C   0  0  0  0  0  0  0  0  0  0  0  0
   -8.2750   14.5930    0.6380 C   0  0  0  0  0  0  0  0  0  0  0  0
   -6.9130   14.3010    0.1300 N   0  0  0  0  0  0  0  0  0  0  0  0
   -6.1850   15.0330    1.0850 N   0  0  0  0  0  0  0  0  0  0  0  0
   -4.7920   15.1910    0.8150 C   0  0  1  0  0  0  0  0  0  0  0  0
   -6.5230   14.6450   -1.2100 N   0  0  0  0  0  0  0  0  0  0  0  0
   -4.0460   15.2120    2.0650 N   0  0  0  0  0  0  0  0  0  0  0  0
   -5.1280   14.0930   -1.3610 C   0  0  2  0  0  0  0  0  0  0  0  0
   -4.3790   13.9990    0.0040 C   0  0  1  0  0  0  0  0  0  0  0  0
   -2.8840   14.0540   -0.0440 C   0  0  0  0  0  0  0  0  0  0  0  0
   -4.3090   14.8580   -2.3650 C   0  0  0  0  0  0  0  0  0  0  0  0
   -2.2470   14.5570   -1.0870 C   0  0  0  0  0  0  0  0  0  0  0  0
   -2.9840   15.0570   -2.2220 C   0  0  0  0  0  0  0  0  0  0  0  0
  1  2  1  0
  1  3  1  0
  4  3  1  1
  4  5  1  0
  4  6  1  0
  6  7  1  0
  5  8  1  0
  7  8  1  0
  8  9  1  0
  7 10  1  0
  9 11  1  1
 10 12  1  0
  9 13  1  0
 12 13  1  0
 13 14  1  6
 12 15  1  6
 14 16  2  0
 15 17  2  0
 16 17  1  0
M  END
