diamond-x0742_0_A-mac-x0148
     RDKit          3D

 24 28  0  0  0  0  0  0  0  0999 V2000
   -5.6080   12.1780   -0.5860 C   0  0  0  0  0  0  0  0  0  0  0  0
   -6.6880   11.6530    0.3250 C   0  0  0  0  0  0  0  0  0  0  0  0
   -5.2990   11.5520   -1.6050 O   0  0  0  0  0  0  0  0  0  0  0  0
   -4.9060   13.4940   -0.1990 C   0  0  2  0  0  0  0  0  0  0  0  0
   -4.3550   13.4020    1.1850 C   0  0  0  0  0  0  0  0  0  0  0  0
   -5.9530   14.6290   -0.2080 C   0  0  0  0  0  0  0  0  0  0  0  0
   -3.8850   13.9000   -1.3220 C   0  0  1  0  0  0  0  0  0  0  0  0
   -4.6970   14.8910   -2.2140 C   0  0  0  0  0  0  0  0  0  0  0  0
   -2.5210   14.5640   -0.9200 C   0  0  2  0  0  0  0  0  0  0  0  0
   -3.2020   13.9410    1.5380 C   0  0  0  0  0  0  0  0  0  0  0  0
   -6.1060   15.0090   -1.6610 C   0  0  0  0  0  0  0  0  0  0  0  0
   -1.1880   14.1900   -1.8250 C   0  0  2  0  0  0  0  0  0  0  0  0
   -2.2970   14.6900    0.6390 C   0  0  1  0  0  0  0  0  0  0  0  0
   -0.9670   14.2860    1.0130 N   0  0  0  0  0  0  0  0  0  0  0  0
    0.0120   14.7690   -1.0580 C   0  0  0  0  0  0  0  0  0  0  0  0
   -1.3340   14.7350   -3.3390 C   0  0  2  0  0  0  0  0  0  0  0  0
   -0.9540   12.6310   -1.8580 C   0  0  0  0  0  0  0  0  0  0  0  0
    0.0440   14.7850    0.2770 C   0  0  0  0  0  0  0  0  0  0  0  0
   -2.7360   15.1480   -3.8260 C   0  0  0  0  0  0  0  0  0  0  0  0
   -0.8210   13.9260   -4.5710 C   0  0  2  0  0  0  0  0  0  0  0  0
   -0.7690   11.8860   -3.1910 C   0  0  0  0  0  0  0  0  0  0  0  0
   -2.0660   13.6750   -5.4110 C   0  0  0  0  0  0  0  0  0  0  0  0
   -2.8040   14.8730   -5.2410 O   0  0  0  0  0  0  0  0  0  0  0  0
   -0.0630   12.6580   -4.2800 C   0  0  0  0  0  0  0  0  0  0  0  0
  1  2  1  0
  1  3  2  0
  4  1  1  6
  4  5  1  0
  4  6  1  0
  4  7  1  0
  7  8  1  6
  7  9  1  0
  5 10  2  0
  6 11  1  0
  8 11  1  0
  9 12  1  0
  9 13  1  1
 13 10  1  1
 13 14  1  0
 12 15  1  1
 12 16  1  0
 12 17  1  0
 14 18  1  0
 15 18  2  0
 16 19  1  6
 16 20  1  0
 17 21  1  0
 20 22  1  6
 19 23  1  0
 22 23  1  0
 20 24  1  0
 21 24  1  0
M  END
