diamond-x0727_0_A-mac-x0453
     RDKit          3D

 24 25  0  0  0  0  0  0  0  0999 V2000
    0.1590   11.8550   -5.5320 N   0  0  0  0  0  0  0  0  0  0  0  0
    1.1370   12.5160   -4.6820 C   0  0  1  0  0  0  0  0  0  0  0  0
    0.9180   14.0190   -4.7580 C   0  0  0  0  0  0  0  0  0  0  0  0
    0.5030   11.1840   -6.6770 C   0  0  0  0  0  0  0  0  0  0  0  0
    1.5260   11.3830   -7.3010 O   0  0  0  0  0  0  0  0  0  0  0  0
    0.9430   11.9970   -3.2450 C   0  0  0  0  0  0  0  0  0  0  0  0
   -0.5690   10.1760   -7.0110 C   0  0  0  0  0  0  0  0  0  0  0  0
    0.1770   11.0820   -2.9310 O   0  0  0  0  0  0  0  0  0  0  0  0
    1.7460   12.6600   -2.3590 O   0  0  0  0  0  0  0  0  0  0  0  0
   -1.0440   10.0850   -8.4430 C   0  0  0  0  0  0  0  0  0  0  0  0
   -0.2330    8.7260   -6.6980 C   0  0  0  0  0  0  0  0  0  0  0  0
    1.2350   13.8690   -1.7590 C   0  0  0  0  0  0  0  0  0  0  0  0
   -2.0170    8.9110   -8.3430 C   0  0  0  0  0  0  0  0  0  0  0  0
   -1.4750    8.0200   -7.2100 C   0  0  0  0  0  0  0  0  0  0  0  0
   -0.1830   13.6430   -1.2390 C   0  0  0  0  0  0  0  0  0  0  0  0
   -1.2430   14.3320   -2.0980 C   0  0  0  0  0  0  0  0  0  0  0  0
   -2.4980   14.5910   -1.4160 N   0  0  0  0  0  0  0  0  0  0  0  0
   -2.7410   14.4150   -0.0870 C   0  0  0  0  0  0  0  0  0  0  0  0
   -3.6440   15.0560   -1.9940 C   0  0  0  0  0  0  0  0  0  0  0  0
   -4.0510   14.7840    0.0870 C   0  0  0  0  0  0  0  0  0  0  0  0
   -4.6040   15.1850   -1.1080 N   0  0  0  0  0  0  0  0  0  0  0  0
   -4.8320   14.7790    1.3470 C   0  0  0  0  0  0  0  0  0  0  0  0
   -6.0380   13.8300    1.2980 C   0  0  0  0  0  0  0  0  0  0  0  0
   -7.0010   14.0990    2.3720 N   0  0  0  0  0  0  0  0  0  0  0  0
  1  2  1  0
  2  3  1  1
  1  4  1  0
  4  5  2  0
  2  6  1  0
  4  7  1  0
  6  8  2  0
  6  9  1  0
  7 10  1  0
  7 11  1  0
  9 12  1  0
 10 13  1  0
 11 14  1  0
 13 14  1  0
 12 15  1  0
 15 16  1  0
 16 17  1  0
 17 18  1  0
 17 19  1  0
 18 20  2  0
 19 21  2  0
 20 21  1  0
 20 22  1  0
 22 23  1  0
 23 24  1  0
M  END
