diamond-x0685_1_A-mac-x0223
     RDKit          3D

 22 23  0  0  0  0  0  0  0  0999 V2000
   -0.8970   10.7670   -5.2240 N   0  0  0  0  0  0  0  0  0  0  0  0
   -0.1520   12.0180   -5.1550 C   0  0  0  0  0  0  0  0  0  0  0  0
   -0.4800   12.7850   -3.9030 C   0  0  1  0  0  0  0  0  0  0  0  0
   -0.7250   10.2150   -6.5470 C   0  0  0  0  0  0  0  0  0  0  0  0
   -0.6100    8.6930   -6.6020 C   0  0  0  0  0  0  0  0  0  0  0  0
   -1.6620   10.7840   -7.6160 C   0  0  0  0  0  0  0  0  0  0  0  0
    0.6480   12.2660   -2.5630 S   0  0  0  0  0  0  0  0  0  0  0  0
   -0.0020    8.3350   -7.9470 C   0  0  0  0  0  0  0  0  0  0  0  0
   -1.1540   10.4230   -8.9980 C   0  0  0  0  0  0  0  0  0  0  0  0
   -0.7540   14.2740   -4.1700 C   0  0  0  0  0  0  0  0  0  0  0  0
    2.1570   12.5920   -2.9880 O   0  0  0  0  0  0  0  0  0  0  0  0
    0.4770   10.6650   -2.4130 O   0  0  0  0  0  0  0  0  0  0  0  0
    0.2740   12.9620   -1.1730 O   0  0  0  0  0  0  0  0  0  0  0  0
   -0.8230    8.9230   -9.1110 C   0  0  0  0  0  0  0  0  0  0  0  0
   -2.0970   14.5440   -4.4390 C   0  0  0  0  0  0  0  0  0  0  0  0
    0.1690   15.3660   -4.1820 C   0  0  0  0  0  0  0  0  0  0  0  0
   -0.3080   16.6800   -4.4500 C   0  0  0  0  0  0  0  0  0  0  0  0
   -2.5550   15.8150   -4.7030 C   0  0  0  0  0  0  0  0  0  0  0  0
    0.4220   17.8390   -4.4850 O   0  0  0  0  0  0  0  0  0  0  0  0
   -1.6720   16.8660   -4.7040 C   0  0  0  0  0  0  0  0  0  0  0  0
    1.1070   18.1610   -5.6760 C   0  0  0  0  0  0  0  0  0  0  0  0
   -2.1520   18.1210   -4.9410 O   0  0  0  0  0  0  0  0  0  0  0  0
  1  2  1  0
  3  2  1  6
  1  4  1  0
  4  5  1  0
  4  6  1  0
  3  7  1  0
  5  8  1  0
  6  9  1  0
  3 10  1  0
  7 11  1  0
  7 12  1  0
  7 13  1  0
  8 14  1  0
  9 14  1  0
 10 15  2  0
 10 16  1  0
 16 17  2  0
 15 18  1  0
 17 19  1  0
 17 20  1  0
 18 20  2  0
 19 21  1  0
 20 22  1  0
M  END
