diamond-x0844_0_A-mac-x0510
     RDKit          3D

 12 13  0  0  0  0  0  0  0  0999 V2000
   -7.4550   14.8750   -0.1060 O   0  0  0  0  0  0  0  0  0  0  0  0
   -6.2290   14.9220   -0.0090 C   0  0  0  0  0  0  0  0  0  0  0  0
   -5.6010   14.3740    1.0720 N   0  0  0  0  0  0  0  0  0  0  0  0
   -5.3380   15.5520   -1.0360 C   0  0  0  0  0  0  0  0  0  0  0  0
   -4.1970   14.5750    1.4160 C   0  0  0  0  0  0  0  0  0  0  0  0
   -4.0020   14.8350   -1.1160 C   0  0  1  0  0  0  0  0  0  0  0  0
   -2.9070   15.4590   -2.6290 Br  0  0  0  0  0  0  0  0  0  0  0  0
   -3.2290   14.8010    0.2180 C   0  0  2  0  0  0  0  0  0  0  0  0
   -2.1130   13.7820    0.1510 C   0  0  0  0  0  0  0  0  0  0  0  0
   -2.3800   15.9950    0.5100 N   0  0  0  0  0  0  0  0  0  0  0  0
   -1.0270   14.5040   -0.5070 N   0  0  0  0  0  0  0  0  0  0  0  0
   -0.9780   15.6160    0.3800 C   0  0  0  0  0  0  0  0  0  0  0  0
  1  2  2  0
  2  3  1  0
  2  4  1  0
  3  5  1  0
  4  6  1  0
  6  7  1  6
  8  5  1  1
  6  8  1  0
  8  9  1  0
  8 10  1  0
  9 11  1  0
 10 12  1  0
 11 12  1  0
M  END
