diamond-x0950_0_A-mac-x0455
     RDKit          3D

 17 17  0  0  0  0  0  0  0  0999 V2000
    3.2150   12.4950   -3.9580 C   0  0  0  0  0  0  0  0  0  0  0  0
    1.7290   12.6100   -4.2120 C   0  0  1  0  0  0  0  0  0  0  0  0
    1.4880   11.9840   -5.4630 O   0  0  0  0  0  0  0  0  0  0  0  0
    0.9350   12.0000   -3.0330 C   0  0  0  0  0  0  0  0  0  0  0  0
    0.6520   10.8130   -2.9760 O   0  0  0  0  0  0  0  0  0  0  0  0
    0.6170   12.9460   -2.1160 O   0  0  0  0  0  0  0  0  0  0  0  0
    0.3200   14.2180   -2.5160 C   0  0  0  0  0  0  0  0  0  0  0  0
   -0.9920   14.2530   -3.3740 C   0  0  1  0  0  0  0  0  0  0  0  0
    0.9690   15.2150   -2.2460 O   0  0  0  0  0  0  0  0  0  0  0  0
   -2.1770   14.3160   -2.4010 C   0  0  0  0  0  0  0  0  0  0  0  0
   -1.0820   15.4740   -4.1330 O   0  0  0  0  0  0  0  0  0  0  0  0
   -1.1000   13.0720   -4.3580 C   0  0  0  0  0  0  0  0  0  0  0  0
   -1.9850   11.9990   -4.1300 C   0  0  0  0  0  0  0  0  0  0  0  0
   -0.3180   13.0210   -5.5280 C   0  0  0  0  0  0  0  0  0  0  0  0
   -2.0800   10.9280   -5.0240 C   0  0  0  0  0  0  0  0  0  0  0  0
   -0.4130   11.9490   -6.4220 C   0  0  0  0  0  0  0  0  0  0  0  0
   -1.2930   10.9040   -6.1710 C   0  0  0  0  0  0  0  0  0  0  0  0
  2  1  1  1
  2  3  1  0
  2  4  1  0
  4  5  2  0
  4  6  1  0
  6  7  1  0
  7  8  1  0
  7  9  2  0
  8 10  1  1
  8 11  1  0
  8 12  1  0
 12 13  2  0
 12 14  1  0
 13 15  1  0
 14 16  2  0
 15 17  2  0
 16 17  1  0
M  END
