diamond-x0766_0_A-diamond-x0849_0_A
     RDKit          3D

 24 27  0  0  0  0  0  0  0  0999 V2000
    0.7210   12.3500   -2.9970 C   0  0  0  0  0  0  0  0  0  0  0  0
    0.1400   11.1260   -2.9690 O   0  0  0  0  0  0  0  0  0  0  0  0
    1.4930   12.6880   -2.1210 O   0  0  0  0  0  0  0  0  0  0  0  0
    0.3160   13.2160   -4.1790 C   0  0  2  0  0  0  0  0  0  0  0  0
    1.5210   13.8130   -4.8950 C   0  0  0  0  0  0  0  0  0  0  0  0
   -0.5610   14.4440   -3.8470 C   0  0  2  0  0  0  0  0  0  0  0  0
    1.7010   15.1910   -4.2610 C   0  0  0  0  0  0  0  0  0  0  0  0
    0.5070   15.4140   -3.3280 C   0  0  0  0  0  0  0  0  0  0  0  0
   -1.7130   14.0530   -2.9300 C   0  0  0  0  0  0  0  0  0  0  0  0
   -2.7090   14.8030   -2.2930 C   0  0  0  0  0  0  0  0  0  0  0  0
   -1.9050   12.6950   -2.5760 C   0  0  0  0  0  0  0  0  0  0  0  0
   -3.0250   16.0580   -2.1840 O   0  0  0  0  0  0  0  0  0  0  0  0
   -2.9630   12.4590   -1.7540 C   0  0  0  0  0  0  0  0  0  0  0  0
   -3.7830   13.8420   -1.3680 S   0  0  0  0  0  0  0  0  0  0  0  0
   -3.2770   15.8250   -0.8570 C   0  0  0  0  0  0  0  0  0  0  0  0
   -2.1750   15.3850   -0.1150 C   0  0  0  0  0  0  0  0  0  0  0  0
   -4.5240   15.9510   -0.2690 C   0  0  0  0  0  0  0  0  0  0  0  0
   -2.3710   15.0710    1.2170 C   0  0  0  0  0  0  0  0  0  0  0  0
   -4.5860   15.6130    1.0620 C   0  0  0  0  0  0  0  0  0  0  0  0
   -0.8890   15.2380   -0.6600 C   0  0  0  0  0  0  0  0  0  0  0  0
   -3.5490   15.1870    1.7850 N   0  0  0  0  0  0  0  0  0  0  0  0
   -1.3890   14.6360    1.9710 N   0  0  0  0  0  0  0  0  0  0  0  0
    0.1380   14.7810    0.1340 C   0  0  0  0  0  0  0  0  0  0  0  0
   -0.1760   14.4920    1.4430 C   0  0  0  0  0  0  0  0  0  0  0  0
  1  2  1  0
  1  3  2  0
  4  1  1  1
  4  5  1  0
  4  6  1  0
  5  7  1  0
  6  8  1  0
  7  8  1  0
  6  9  1  1
  9 10  2  0
  9 11  1  0
 10 12  1  0
 11 13  2  0
 10 14  1  0
 13 14  1  0
 12 15  1  0
 15 16  1  0
 15 17  2  0
 16 18  2  0
 17 19  1  0
 16 20  1  0
 18 21  1  0
 19 21  2  0
 18 22  1  0
 20 23  2  0
 22 24  2  0
 23 24  1  0
M  END
