diamond-x0681_0_A-diamond-x0128_0_A
     RDKit          3D

 22 24  0  0  0  0  0  0  0  0999 V2000
   -4.0740   15.4100   -2.9300 N   0  0  0  0  0  0  0  0  0  0  0  0
   -3.4360   14.9680   -1.8170 C   0  0  0  0  0  0  0  0  0  0  0  0
   -2.2550   14.6370   -1.8710 O   0  0  0  0  0  0  0  0  0  0  0  0
   -4.3270   14.9320   -0.5800 C   0  0  1  0  0  0  0  0  0  0  0  0
   -5.0790   13.6420   -0.5360 C   0  0  0  0  0  0  0  0  0  0  0  0
   -3.5970   15.2600    0.7300 C   0  0  0  0  0  0  0  0  0  0  0  0
   -5.6790   13.2290    0.6070 N   0  0  0  0  0  0  0  0  0  0  0  0
   -4.2140   14.6240    1.9910 C   0  0  0  0  0  0  0  0  0  0  0  0
   -5.2790   12.7730   -1.5100 N   0  0  0  0  0  0  0  0  0  0  0  0
   -5.6220   13.9640    1.8480 C   0  0  1  0  0  0  0  0  0  0  0  0
   -6.3010   12.0430    0.3650 C   0  0  0  0  0  0  0  0  0  0  0  0
   -6.0410   11.7760   -0.9520 C   0  0  0  0  0  0  0  0  0  0  0  0
   -6.6090   15.0210    2.0670 N   0  0  0  0  0  0  0  0  0  0  0  0
   -7.7720   15.0050    2.8540 C   0  0  0  0  0  0  0  0  0  0  0  0
   -8.8710   14.8340    2.3520 O   0  0  0  0  0  0  0  0  0  0  0  0
   -7.5310   15.2420    4.2020 N   0  0  0  0  0  0  0  0  0  0  0  0
   -8.3360   15.9650    5.1470 C   0  0  0  0  0  0  0  0  0  0  0  0
   -9.0320   17.1160    4.7460 C   0  0  0  0  0  0  0  0  0  0  0  0
   -8.4950   15.6040    6.4890 C   0  0  0  0  0  0  0  0  0  0  0  0
   -9.8220   17.8790    5.5440 N   0  0  0  0  0  0  0  0  0  0  0  0
   -9.3040   16.3720    7.3370 C   0  0  0  0  0  0  0  0  0  0  0  0
   -9.9410   17.4880    6.8270 C   0  0  0  0  0  0  0  0  0  0  0  0
  1  2  1  0
  2  3  2  0
  4  2  1  6
  4  5  1  0
  4  6  1  0
  5  7  1  0
  6  8  1  0
  5  9  2  0
  7 10  1  0
  8 10  1  0
  7 11  1  0
  9 12  1  0
 11 12  2  0
 10 13  1  6
 13 14  1  0
 14 15  2  0
 14 16  1  0
 16 17  1  0
 17 18  2  0
 17 19  1  0
 18 20  1  0
 19 21  2  0
 20 22  2  0
 21 22  1  0
M  END
