diamond-x0689_0_A-diamond-x0905_0_A
     RDKit          3D

 14 15  0  0  0  0  0  0  0  0999 V2000
   -3.1290   15.0250    2.1260 N   0  0  0  0  0  0  0  0  0  0  0  0
   -2.0670   15.1310    1.1670 C   0  0  1  0  0  0  0  0  0  0  0  0
   -1.1940   14.2180    1.7650 N   0  0  0  0  0  0  0  0  0  0  0  0
   -2.3290   14.8940   -0.2210 N   0  0  0  0  0  0  0  0  0  0  0  0
   -1.2590   14.6110   -1.0350 C   0  0  0  0  0  0  0  0  0  0  0  0
    0.0210   14.2140    1.0170 C   0  0  0  0  0  0  0  0  0  0  0  0
   -3.6500   14.9650   -0.5540 C   0  0  0  0  0  0  0  0  0  0  0  0
   -0.0980   14.2760   -0.4730 C   0  0  0  0  0  0  0  0  0  0  0  0
   -4.6340   14.8220    0.4260 C   0  0  0  0  0  0  0  0  0  0  0  0
   -4.0900   15.1820   -1.8480 C   0  0  0  0  0  0  0  0  0  0  0  0
   -5.9560   14.8780    0.2270 N   0  0  0  0  0  0  0  0  0  0  0  0
   -5.4480   15.2450   -2.1000 C   0  0  0  0  0  0  0  0  0  0  0  0
   -6.3040   15.0900   -1.0350 C   0  0  0  0  0  0  0  0  0  0  0  0
   -7.6370   15.1450   -1.2130 O   0  0  0  0  0  0  0  0  0  0  0  0
  2  1  1  1
  2  3  1  0
  2  4  1  0
  4  5  1  0
  3  6  1  0
  4  7  1  0
  5  8  2  0
  6  8  1  0
  7  9  2  0
  7 10  1  0
  9 11  1  0
 10 12  2  0
 11 13  2  0
 12 13  1  0
 13 14  1  0
M  END
