diamond-x0910_1_A-diamond-x1018_0_A
     RDKit          3D

 10 11  0  0  0  0  0  0  0  0999 V2000
   -7.9250   13.9340    0.9810 N   0  0  0  0  0  0  0  0  0  0  0  0
   -6.7210   14.3770    0.5700 C   0  0  0  0  0  0  0  0  0  0  0  0
   -6.2710   14.1910   -0.6290 N   0  0  0  0  0  0  0  0  0  0  0  0
   -5.9420   15.0700    1.4410 N   0  0  0  0  0  0  0  0  0  0  0  0
   -4.9450   14.8200   -0.5810 C   0  0  2  0  0  0  0  0  0  0  0  0
   -4.9000   15.4010    0.7620 C   0  0  0  0  0  0  0  0  0  0  0  0
   -4.5990   15.7160   -1.6650 N   0  0  0  0  0  0  0  0  0  0  0  0
   -3.8780   13.8450   -0.7170 C   0  0  0  0  0  0  0  0  0  0  0  0
   -3.0130   14.1820   -1.5960 N   0  0  0  0  0  0  0  0  0  0  0  0
   -3.4690   15.4010   -2.1280 N   0  0  0  0  0  0  0  0  0  0  0  0
  1  2  1  0
  2  3  2  0
  2  4  1  0
  5  3  1  0
  4  6  2  0
  5  6  1  1
  5  7  1  0
  5  8  1  0
  8  9  2  0
  7 10  2  0
  9 10  1  0
M  END
