diamond-x0722_0_A-mac-x0348
     RDKit          3D

 28 30  0  0  0  0  0  0  0  0999 V2000
   -4.6990   15.4320    2.4800 C   0  0  0  0  0  0  0  0  0  0  0  0
   -3.6450   15.1180    1.5060 C   0  0  0  0  0  0  0  0  0  0  0  0
   -2.4660   14.7600    1.9760 N   0  0  0  0  0  0  0  0  0  0  0  0
   -3.6670   15.1320    0.0890 C   0  0  0  0  0  0  0  0  0  0  0  0
   -4.8050   15.4940   -0.8150 C   0  0  0  0  0  0  0  0  0  0  0  0
   -2.3810   14.7320   -0.2690 C   0  0  0  0  0  0  0  0  0  0  0  0
   -1.7080   14.5350    0.9110 N   0  0  0  0  0  0  0  0  0  0  0  0
   -0.3450   14.1310    1.1490 C   0  0  0  0  0  0  0  0  0  0  0  0
   -1.8170   14.5470   -1.6360 C   0  0  0  0  0  0  0  0  0  0  0  0
   -6.0590   14.6740   -0.5640 C   0  0  0  0  0  0  0  0  0  0  0  0
   -7.1940   15.0820   -0.7810 O   0  0  0  0  0  0  0  0  0  0  0  0
   -5.8680   13.4170   -0.0630 N   0  0  0  0  0  0  0  0  0  0  0  0
   -0.2970   14.5800   -1.8450 C   0  0  0  0  0  0  0  0  0  0  0  0
    0.1140   14.2850   -3.3040 C   0  0  2  0  0  0  0  0  0  0  0  0
    1.2130   13.2630   -3.4550 C   0  0  0  0  0  0  0  0  0  0  0  0
   -0.0630   15.4820   -4.1760 C   0  0  0  0  0  0  0  0  0  0  0  0
    0.7860   12.1660   -2.5330 C   0  0  0  0  0  0  0  0  0  0  0  0
    0.8750   16.4410   -4.4680 C   0  0  0  0  0  0  0  0  0  0  0  0
   -1.2440   15.8370   -4.8440 C   0  0  0  0  0  0  0  0  0  0  0  0
    0.8090   12.2490   -1.3300 O   0  0  0  0  0  0  0  0  0  0  0  0
    0.3200   11.0620   -3.1370 O   0  0  0  0  0  0  0  0  0  0  0  0
    0.2980   17.3610   -5.2910 N   0  0  0  0  0  0  0  0  0  0  0  0
   -0.9940   17.0190   -5.5260 C   0  0  0  0  0  0  0  0  0  0  0  0
   -2.5080   15.2540   -4.9270 C   0  0  0  0  0  0  0  0  0  0  0  0
    0.9520   18.5250   -5.8310 C   0  0  0  0  0  0  0  0  0  0  0  0
   -3.4850   15.8550   -5.6770 C   0  0  0  0  0  0  0  0  0  0  0  0
   -1.9660   17.6400   -6.2780 C   0  0  0  0  0  0  0  0  0  0  0  0
   -3.1900   17.0300   -6.3270 C   0  0  0  0  0  0  0  0  0  0  0  0
  1  2  1  0
  2  3  2  0
  2  4  1  0
  4  5  1  0
  4  6  2  0
  3  7  1  0
  6  7  1  0
  7  8  1  0
  6  9  1  0
  5 10  1  0
 10 11  2  0
 10 12  1  0
  9 13  1  0
 14 13  1  1
 14 15  1  0
 14 16  1  0
 15 17  1  0
 16 18  2  0
 16 19  1  0
 17 20  2  0
 17 21  1  0
 18 22  1  0
 19 23  2  0
 22 23  1  0
 19 24  1  0
 22 25  1  0
 24 26  2  0
 23 27  1  0
 26 28  1  0
 27 28  2  0
M  END
