diamond-x0689_0_A-mac-x0319
     RDKit          3D

 20 21  0  0  0  0  0  0  0  0999 V2000
   -3.6210   15.5110    1.6490 N   0  0  0  0  0  0  0  0  0  0  0  0
   -4.8650   15.0240    1.1180 C   0  0  0  0  0  0  0  0  0  0  0  0
   -2.5100   14.9900    1.0230 C   0  0  0  0  0  0  0  0  0  0  0  0
   -2.5820   14.9320   -0.3090 N   0  0  0  0  0  0  0  0  0  0  0  0
   -1.4610   14.5880    1.7380 N   0  0  0  0  0  0  0  0  0  0  0  0
   -1.5140   14.4370   -0.9600 C   0  0  0  0  0  0  0  0  0  0  0  0
   -0.4250   14.1030    1.0540 C   0  0  0  0  0  0  0  0  0  0  0  0
   -0.3890   13.9980   -0.3200 C   0  0  0  0  0  0  0  0  0  0  0  0
    0.7890   13.4340   -1.0080 C   0  0  0  0  0  0  0  0  0  0  0  0
    0.8740   13.4420   -2.4160 N   0  0  0  0  0  0  0  0  0  0  0  0
    0.9090   12.4010   -3.1600 C   0  0  0  0  0  0  0  0  0  0  0  0
    0.8440   11.1600   -2.6320 O   0  0  0  0  0  0  0  0  0  0  0  0
    0.9900   12.5300   -4.6280 C   0  0  0  0  0  0  0  0  0  0  0  0
    0.3910   13.8960   -4.7080 C   0  0  0  0  0  0  0  0  0  0  0  0
    1.1650   15.0490   -4.5010 C   0  0  0  0  0  0  0  0  0  0  0  0
   -0.9770   14.0290   -4.9620 C   0  0  0  0  0  0  0  0  0  0  0  0
    0.5620   16.3010   -4.5490 C   0  0  0  0  0  0  0  0  0  0  0  0
   -1.5670   15.2890   -5.0090 C   0  0  0  0  0  0  0  0  0  0  0  0
    1.2560   17.4540   -4.3470 O   0  0  0  0  0  0  0  0  0  0  0  0
   -0.7930   16.4260   -4.8010 C   0  0  0  0  0  0  0  0  0  0  0  0
  1  2  1  0
  1  3  1  0
  3  4  2  0
  3  5  1  0
  4  6  1  0
  5  7  2  0
  6  8  2  0
  7  8  1  0
  8  9  1  0
  9 10  1  0
 10 11  2  3
 11 12  1  0
 11 13  1  0
 13 14  1  0
 14 15  2  0
 14 16  1  0
 15 17  1  0
 16 18  2  0
 17 19  1  0
 17 20  2  0
 18 20  1  0
M  END
