diamond-x0849_0_A-mac-x0302
     RDKit          3D

 18 19  0  0  0  0  0  0  0  0999 V2000
   -3.1960   15.0580   -2.5050 C   0  0  0  0  0  0  0  0  0  0  0  0
   -2.1710   14.2380   -2.9620 N   0  0  0  0  0  0  0  0  0  0  0  0
   -0.9640   14.7400   -3.6360 C   0  0  0  0  0  0  0  0  0  0  0  0
   -3.8890   15.7460   -3.2340 O   0  0  0  0  0  0  0  0  0  0  0  0
   -3.3890   15.0360   -1.0310 C   0  0  0  0  0  0  0  0  0  0  0  0
   -2.2530   14.8280   -0.2260 C   0  0  0  0  0  0  0  0  0  0  0  0
   -4.6560   15.2040   -0.4220 C   0  0  0  0  0  0  0  0  0  0  0  0
    0.3110   14.0680   -3.1190 C   0  0  0  0  0  0  0  0  0  0  0  0
   -5.8650   15.4070   -1.0410 O   0  0  0  0  0  0  0  0  0  0  0  0
   -2.4220   14.7900    1.1480 C   0  0  0  0  0  0  0  0  0  0  0  0
   -4.6770   15.1540    0.9470 C   0  0  0  0  0  0  0  0  0  0  0  0
   -0.9390   14.6530   -0.7140 C   0  0  0  0  0  0  0  0  0  0  0  0
    1.3960   14.3260   -3.8760 O   0  0  0  0  0  0  0  0  0  0  0  0
    0.4240   13.3570   -2.1340 O   0  0  0  0  0  0  0  0  0  0  0  0
   -3.5980   14.9530    1.7100 N   0  0  0  0  0  0  0  0  0  0  0  0
   -1.4140   14.5850    1.9640 N   0  0  0  0  0  0  0  0  0  0  0  0
    0.1130   14.4500    0.1450 C   0  0  0  0  0  0  0  0  0  0  0  0
   -0.1860   14.4220    1.4810 C   0  0  0  0  0  0  0  0  0  0  0  0
  1  2  1  0
  2  3  1  0
  1  4  2  0
  1  5  1  0
  5  6  2  0
  5  7  1  0
  3  8  1  0
  7  9  1  0
  6 10  1  0
  7 11  2  0
  6 12  1  0
  8 13  1  0
  8 14  2  0
 10 15  2  0
 11 15  1  0
 10 16  1  0
 12 17  2  0
 16 18  2  0
 17 18  1  0
M  END
