diamond-x0662_0_A-mac-x0522
     RDKit          3D

 24 26  0  0  0  0  0  0  0  0999 V2000
    5.3330    9.3830  -14.9830 C   0  0  0  0  0  0  0  0  0  0  0  0
    4.3030    9.9430  -14.1440 N   0  0  0  0  0  0  0  0  0  0  0  0
    3.6830   11.1470  -14.2950 C   0  0  0  0  0  0  0  0  0  0  0  0
    3.8730    9.2460  -13.0810 N   0  0  0  0  0  0  0  0  0  0  0  0
    2.7920   11.2410  -13.2570 C   0  0  0  0  0  0  0  0  0  0  0  0
    2.9380   10.0310  -12.5100 C   0  0  0  0  0  0  0  0  0  0  0  0
    2.2060    9.6510  -11.2760 C   0  0  0  0  0  0  0  0  0  0  0  0
    2.3090    8.5850  -10.5540 N   0  0  0  0  0  0  0  0  0  0  0  0
    1.2920   10.5180  -10.7400 N   0  0  0  0  0  0  0  0  0  0  0  0
    3.0750    7.4860  -10.6430 N   0  0  0  0  0  0  0  0  0  0  0  0
    0.5100   10.1790   -9.5880 C   0  0  0  0  0  0  0  0  0  0  0  0
   -0.4530    9.1670   -9.5810 C   0  0  0  0  0  0  0  0  0  0  0  0
    0.6960   10.8820   -8.3800 C   0  0  0  0  0  0  0  0  0  0  0  0
    2.7990    6.6780   -9.5980 C   0  0  0  0  0  0  0  0  0  0  0  0
   -1.1900    8.8780   -8.4280 C   0  0  0  0  0  0  0  0  0  0  0  0
   -0.0340   10.6240   -7.2100 C   0  0  0  0  0  0  0  0  0  0  0  0
    3.5170    5.6600   -9.1790 N   0  0  0  0  0  0  0  0  0  0  0  0
    1.3630    6.9790   -8.6790 S   0  0  0  0  0  0  0  0  0  0  0  0
    0.1970   11.4350   -5.9410 C   0  0  0  0  0  0  0  0  0  0  0  0
   -0.9860    9.6020   -7.2520 C   0  0  0  0  0  0  0  0  0  0  0  0
    1.7270    5.6660   -7.6590 C   0  0  0  0  0  0  0  0  0  0  0  0
    2.9060    5.0850   -8.0740 C   0  0  0  0  0  0  0  0  0  0  0  0
   -0.7570   11.5090   -5.1020 O   0  0  0  0  0  0  0  0  0  0  0  0
    1.3340   11.9870   -5.8000 O   0  0  0  0  0  0  0  0  0  0  0  0
  1  2  1  0
  2  3  1  0
  2  4  1  0
  3  5  2  0
  4  6  2  0
  5  6  1  0
  6  7  1  0
  7  8  2  3
  7  9  1  0
  8 10  1  0
  9 11  1  0
 11 12  2  0
 11 13  1  0
 10 14  1  0
 12 15  1  0
 13 16  2  0
 14 17  2  0
 14 18  1  0
 16 19  1  0
 15 20  2  0
 16 20  1  0
 18 21  1  0
 17 22  1  0
 21 22  2  0
 19 23  2  0
 19 24  1  0
M  CHG  1  24  -1
M  END
