diamond-x1018_0_A-diamond-x0628_0_A
     RDKit          3D

 23 25  0  0  0  0  0  0  0  0999 V2000
   -8.2630   14.5680    0.9370 Cl  0  0  0  0  0  0  0  0  0  0  0  0
   -6.6280   14.7150    0.3860 C   0  0  0  0  0  0  0  0  0  0  0  0
   -5.5200   14.8480    1.3780 C   0  0  0  0  0  0  0  0  0  0  0  0
   -6.4510   14.7090   -0.9010 N   0  0  0  0  0  0  0  0  0  0  0  0
   -5.1360   14.8180   -1.2440 N   0  0  0  0  0  0  0  0  0  0  0  0
   -4.2800   14.5630    0.9280 C   0  0  0  0  0  0  0  0  0  0  0  0
   -4.7900   14.8470   -2.5890 N   0  0  0  0  0  0  0  0  0  0  0  0
   -4.1150   14.1370   -0.4880 C   0  0  2  0  0  0  0  0  0  0  0  0
   -2.8960   14.4710   -1.2330 N   0  0  0  0  0  0  0  0  0  0  0  0
   -3.3660   14.5460   -2.6400 N   0  0  0  0  0  0  0  0  0  0  0  0
   -3.2220   13.2750   -3.4570 C   0  0  0  0  0  0  0  0  0  0  0  0
   -1.8410   12.5600   -3.4260 C   0  0  0  0  0  0  0  0  0  0  0  0
   -1.3880   11.7720   -4.6590 C   0  0  0  0  0  0  0  0  0  0  0  0
   -1.9180   10.6650   -5.1910 N   0  0  0  0  0  0  0  0  0  0  0  0
   -0.2910   12.1100   -5.4240 N   0  0  0  0  0  0  0  0  0  0  0  0
    0.6310   13.2180   -5.2740 C   0  0  0  0  0  0  0  0  0  0  0  0
   -1.0960   10.3840   -6.2620 C   0  0  0  0  0  0  0  0  0  0  0  0
   -0.0980   11.2440   -6.4370 N   0  0  0  0  0  0  0  0  0  0  0  0
   -1.2930    9.2180   -7.1520 C   0  0  0  0  0  0  0  0  0  0  0  0
    1.7180   12.9640   -4.2440 C   0  0  0  0  0  0  0  0  0  0  0  0
    1.1550   12.3000   -3.0190 C   0  0  0  0  0  0  0  0  0  0  0  0
    0.6450   11.1910   -2.9500 O   0  0  0  0  0  0  0  0  0  0  0  0
    1.2660   13.0800   -1.9330 O   0  0  0  0  0  0  0  0  0  0  0  0
  1  2  1  0
  2  3  1  0
  2  4  2  0
  4  5  1  0
  3  6  2  0
  5  7  1  0
  5  8  1  0
  8  6  1  1
  8  9  1  0
  7 10  1  0
  9 10  1  0
 10 11  1  0
 11 12  1  0
 12 13  1  0
 13 14  2  0
 13 15  1  0
 15 16  1  0
 14 17  1  0
 15 18  1  0
 17 18  2  0
 17 19  1  0
 16 20  1  0
 20 21  1  0
 21 22  2  0
 21 23  1  0
M  END
