diamond-x0837_0_A-mac-x0510
     RDKit          3D

 12 13  0  0  0  0  0  0  0  0999 V2000
   -7.3510   14.6740    0.2460 O   0  0  0  0  0  0  0  0  0  0  0  0
   -6.1280   14.8490    0.2290 C   0  0  0  0  0  0  0  0  0  0  0  0
   -5.4100   14.9690    1.3750 N   0  0  0  0  0  0  0  0  0  0  0  0
   -5.3280   14.9480   -1.0340 C   0  0  0  0  0  0  0  0  0  0  0  0
   -4.0680   15.5340    1.3930 C   0  0  0  0  0  0  0  0  0  0  0  0
   -3.9100   14.3780   -0.8950 C   0  0  1  0  0  0  0  0  0  0  0  0
   -2.8800   14.7610   -2.8120 I   0  0  0  0  0  0  0  0  0  0  0  0
   -3.1160   14.9360    0.3210 C   0  0  1  0  0  0  0  0  0  0  0  0
   -2.0210   15.8890   -0.1000 C   0  0  0  0  0  0  0  0  0  0  0  0
   -2.2390   13.9170    0.9810 N   0  0  0  0  0  0  0  0  0  0  0  0
   -0.9270   15.0230   -0.5070 N   0  0  0  0  0  0  0  0  0  0  0  0
   -0.8440   14.2550    0.7050 C   0  0  0  0  0  0  0  0  0  0  0  0
  1  2  2  0
  2  3  1  0
  2  4  1  0
  3  5  1  0
  4  6  1  0
  6  7  1  6
  8  5  1  1
  6  8  1  0
  8  9  1  0
  8 10  1  0
  9 11  1  0
 10 12  1  0
 11 12  1  0
M  END
