diamond-x1015_0_A-diamond-x0685_0_A
     RDKit          3D

 28 30  0  0  0  0  0  0  0  0999 V2000
   -1.3440   13.9680   -4.7030 C   0  0  0  0  0  0  0  0  0  0  0  0
    0.0360   13.5780   -4.1770 C   0  0  2  0  0  0  0  0  0  0  0  0
    0.1220   12.1370   -4.0330 N   0  0  0  0  0  0  0  0  0  0  0  0
    0.2070   14.0130   -2.7410 C   0  0  0  0  0  0  0  0  0  0  0  0
    0.1870   15.1940   -2.2440 N   0  0  0  0  0  0  0  0  0  0  0  0
    0.2490   11.7700   -2.6800 C   0  0  0  0  0  0  0  0  0  0  0  0
    0.4080   12.9230   -1.9550 N   0  0  0  0  0  0  0  0  0  0  0  0
   -0.3540   11.3260   -5.0860 C   0  0  0  0  0  0  0  0  0  0  0  0
    0.2320   10.6410   -2.1760 O   0  0  0  0  0  0  0  0  0  0  0  0
   -0.0240   16.3370   -3.1520 C   0  0  0  0  0  0  0  0  0  0  0  0
    0.1440   11.4940   -6.3820 C   0  0  0  0  0  0  0  0  0  0  0  0
   -1.3320   10.3410   -4.8760 C   0  0  0  0  0  0  0  0  0  0  0  0
   -1.4220   16.3050   -3.7990 C   0  0  0  0  0  0  0  0  0  0  0  0
   -0.3150   10.7100   -7.4420 C   0  0  0  0  0  0  0  0  0  0  0  0
   -1.7960    9.5510   -5.9320 C   0  0  0  0  0  0  0  0  0  0  0  0
   -2.4570   15.8140   -2.8730 C   0  0  0  0  0  0  0  0  0  0  0  0
   -1.2840    9.7390   -7.2120 C   0  0  0  0  0  0  0  0  0  0  0  0
   -1.8490    8.7730   -8.5130 Cl  0  0  0  0  0  0  0  0  0  0  0  0
   -3.2250   15.5250   -2.0070 C   0  0  0  0  0  0  0  0  0  0  0  0
   -4.0280   15.3440   -0.8540 C   0  0  0  0  0  0  0  0  0  0  0  0
   -3.4170   15.4230    0.3860 C   0  0  0  0  0  0  0  0  0  0  0  0
   -5.3890   15.0990   -0.9010 C   0  0  0  0  0  0  0  0  0  0  0  0
   -4.1840   15.2740    1.5260 C   0  0  0  0  0  0  0  0  0  0  0  0
   -6.1560   14.9460    0.2020 N   0  0  0  0  0  0  0  0  0  0  0  0
   -5.5510   15.0430    1.4040 C   0  0  0  0  0  0  0  0  0  0  0  0
   -6.2970   14.9390    2.5790 N   0  0  0  0  0  0  0  0  0  0  0  0
   -7.7330   14.7460    2.5040 C   0  0  0  0  0  0  0  0  0  0  0  0
   -8.1130   13.3630    3.0050 C   0  0  0  0  0  0  0  0  0  0  0  0
  2  1  1  1
  2  3  1  0
  2  4  1  0
  4  5  2  3
  3  6  1  0
  4  7  1  0
  6  7  1  0
  3  8  1  0
  6  9  2  0
  5 10  1  0
  8 11  2  0
  8 12  1  0
 10 13  1  0
 11 14  1  0
 12 15  2  0
 13 16  1  0
 14 17  2  0
 15 17  1  0
 17 18  1  0
 16 19  3  0
 19 20  1  0
 20 21  2  0
 20 22  1  0
 21 23  1  0
 22 24  2  0
 23 25  2  0
 24 25  1  0
 25 26  1  0
 26 27  1  0
 27 28  1  0
M  END
