diamond-x0104_0_A-mac-x0455
     RDKit          3D

 28 30  0  0  0  0  0  0  0  0999 V2000
   -6.8100   14.6040    2.4790 N   0  0  0  0  0  0  0  0  0  0  0  0
   -7.9610   15.0480    3.0780 C   0  0  0  0  0  0  0  0  0  0  0  0
   -7.9300   14.9610    4.4410 N   0  0  0  0  0  0  0  0  0  0  0  0
   -6.1950   14.7070    1.2050 C   0  0  0  0  0  0  0  0  0  0  0  0
   -8.8850   15.4610    2.3770 O   0  0  0  0  0  0  0  0  0  0  0  0
   -4.8000   14.7580    1.1800 C   0  0  0  0  0  0  0  0  0  0  0  0
   -6.8360   14.7620   -0.0350 C   0  0  0  0  0  0  0  0  0  0  0  0
   -4.0400   14.8510    0.0600 N   0  0  0  0  0  0  0  0  0  0  0  0
   -6.0720   14.8610   -1.2190 C   0  0  0  0  0  0  0  0  0  0  0  0
   -9.0320   15.0240    5.2790 C   0  0  0  0  0  0  0  0  0  0  0  0
   -4.6760   14.8990   -1.1240 C   0  0  0  0  0  0  0  0  0  0  0  0
   -9.1580   15.1770    6.6420 C   0  0  0  0  0  0  0  0  0  0  0  0
  -10.5430   14.8850    4.5020 S   0  0  0  0  0  0  0  0  0  0  0  0
   -3.8950   14.9810   -2.2940 O   0  0  0  0  0  0  0  0  0  0  0  0
  -11.3910   15.0280    5.9880 C   0  0  0  0  0  0  0  0  0  0  0  0
  -10.5290   15.1790    7.0540 C   0  0  0  0  0  0  0  0  0  0  0  0
   -2.7450   14.0780   -2.2740 C   0  0  0  0  0  0  0  0  0  0  0  0
   -1.4830   14.2410   -3.2290 C   0  0  1  0  0  0  0  0  0  0  0  0
   -1.6320   15.4740   -3.9850 O   0  0  0  0  0  0  0  0  0  0  0  0
   -0.1550   14.3630   -2.4160 C   0  0  0  0  0  0  0  0  0  0  0  0
   -1.2880   13.0660   -4.2220 C   0  0  0  0  0  0  0  0  0  0  0  0
    0.4410   15.3600   -2.0490 O   0  0  0  0  0  0  0  0  0  0  0  0
    0.3930   13.1500   -2.1080 O   0  0  0  0  0  0  0  0  0  0  0  0
   -2.2460   12.0360   -4.3330 C   0  0  0  0  0  0  0  0  0  0  0  0
   -0.1450   12.9710   -5.0520 C   0  0  0  0  0  0  0  0  0  0  0  0
   -2.0690   10.9700   -5.2230 C   0  0  0  0  0  0  0  0  0  0  0  0
    0.0320   11.9040   -5.9440 C   0  0  0  0  0  0  0  0  0  0  0  0
   -0.9350   10.9020   -6.0260 C   0  0  0  0  0  0  0  0  0  0  0  0
  1  2  1  0
  2  3  1  0
  1  4  1  0
  2  5  2  0
  4  6  2  0
  4  7  1  0
  6  8  1  0
  7  9  2  0
  3 10  1  0
  8 11  2  0
  9 11  1  0
 10 12  2  0
 10 13  1  0
 11 14  1  0
 13 15  1  0
 12 16  1  0
 15 16  2  0
 14 17  1  0
 17 18  1  0
 18 19  1  6
 18 20  1  0
 18 21  1  0
 20 22  2  0
 20 23  1  0
 21 24  2  0
 21 25  1  0
 24 26  1  0
 25 27  2  0
 26 28  2  0
 27 28  1  0
M  END
