diamond-x0465_0_A-diamond-x0727_0_A
     RDKit          3D

 14 14  0  0  0  0  0  0  0  0999 V2000
    2.1320   13.2810   -4.8000 C   0  0  0  0  0  0  0  0  0  0  0  0
    0.7830   12.6340   -4.5530 C   0  0  1  0  0  0  0  0  0  0  0  0
    0.6600   11.5470   -5.4740 O   0  0  0  0  0  0  0  0  0  0  0  0
    0.7590   12.1210   -3.1100 C   0  0  0  0  0  0  0  0  0  0  0  0
    1.0280   12.8210   -2.1430 O   0  0  0  0  0  0  0  0  0  0  0  0
    0.4230   10.8150   -2.9750 O   0  0  0  0  0  0  0  0  0  0  0  0
   -0.5290   10.8780   -5.6290 C   0  0  0  0  0  0  0  0  0  0  0  0
   -0.5770    9.9660   -6.6980 C   0  0  0  0  0  0  0  0  0  0  0  0
   -1.6510   11.0490   -4.8090 C   0  0  0  0  0  0  0  0  0  0  0  0
    0.5130    9.7790   -7.5310 N   0  0  0  0  0  0  0  0  0  0  0  0
   -1.7500    9.2320   -6.9290 C   0  0  0  0  0  0  0  0  0  0  0  0
   -2.8160   10.3130   -5.0520 C   0  0  0  0  0  0  0  0  0  0  0  0
    1.1810   10.8280   -7.6540 O   0  0  0  0  0  0  0  0  0  0  0  0
   -2.8650    9.4040   -6.1080 C   0  0  0  0  0  0  0  0  0  0  0  0
  2  1  1  6
  2  3  1  0
  2  4  1  0
  4  5  2  0
  4  6  1  0
  3  7  1  0
  7  8  2  0
  7  9  1  0
  8 10  1  0
  8 11  1  0
  9 12  2  0
 10 13  2  0
 11 14  2  0
 12 14  1  0
M  END
