diamond-x0852_0_B-mac-x0180
     RDKit          3D

 25 26  0  0  0  0  0  0  0  0999 V2000
   -9.7000   17.8080    7.2660 N   0  0  0  0  0  0  0  0  0  0  0  0
   -9.4520   17.2920    6.2540 C   0  0  0  0  0  0  0  0  0  0  0  0
   -9.2190   16.5930    5.0260 C   0  0  0  0  0  0  0  0  0  0  0  0
   -8.2910   15.5450    4.9470 C   0  0  0  0  0  0  0  0  0  0  0  0
   -9.9510   16.9790    3.8880 C   0  0  0  0  0  0  0  0  0  0  0  0
   -7.5730   15.1630    6.0490 O   0  0  0  0  0  0  0  0  0  0  0  0
   -8.1010   14.8850    3.7440 C   0  0  0  0  0  0  0  0  0  0  0  0
   -9.7620   16.3180    2.6730 C   0  0  0  0  0  0  0  0  0  0  0  0
  -10.4020   16.5840    1.4810 O   0  0  0  0  0  0  0  0  0  0  0  0
   -8.8370   15.2750    2.6270 C   0  0  0  0  0  0  0  0  0  0  0  0
   -9.7750   16.1430    0.2660 C   0  0  0  0  0  0  0  0  0  0  0  0
   -9.3550   14.6770    0.4340 C   0  0  0  0  0  0  0  0  0  0  0  0
   -7.9420   14.4930    1.0030 C   0  0  0  0  0  0  0  0  0  0  0  0
   -6.8640   14.7440   -0.0220 C   0  0  0  0  0  0  0  0  0  0  0  0
   -7.1380   14.8260   -1.2080 O   0  0  0  0  0  0  0  0  0  0  0  0
   -5.5950   14.8670    0.5230 N   0  0  0  0  0  0  0  0  0  0  0  0
   -4.4500   14.8890   -0.2810 C   0  0  0  0  0  0  0  0  0  0  0  0
   -3.1940   14.6500    0.2980 C   0  0  0  0  0  0  0  0  0  0  0  0
   -4.5310   15.1360   -1.6480 C   0  0  0  0  0  0  0  0  0  0  0  0
   -2.0380   14.6540   -0.5000 C   0  0  0  0  0  0  0  0  0  0  0  0
   -3.3940   15.1410   -2.4440 C   0  0  0  0  0  0  0  0  0  0  0  0
   -2.1430   14.8980   -1.8810 C   0  0  0  0  0  0  0  0  0  0  0  0
   -0.9750   14.9230   -2.7960 C   0  0  0  0  0  0  0  0  0  0  0  0
   -1.0230   14.9170   -4.0110 O   0  0  0  0  0  0  0  0  0  0  0  0
    0.1970   14.9700   -2.1460 O   0  0  0  0  0  0  0  0  0  0  0  0
  1  2  3  0
  2  3  1  0
  3  4  2  0
  3  5  1  0
  4  6  1  0
  4  7  1  0
  5  8  2  0
  8  9  1  0
  7 10  2  0
  8 10  1  0
  9 11  1  0
 11 12  1  0
 12 13  1  0
 13 14  1  0
 14 15  2  0
 14 16  1  0
 16 17  1  0
 17 18  2  0
 17 19  1  0
 18 20  1  0
 19 21  2  0
 20 22  2  0
 21 22  1  0
 22 23  1  0
 23 24  2  0
 23 25  1  0
M  END
