diamond-x0852_0_B-diamond-x0724_0_A
     RDKit          3D

 23 25  0  0  0  0  0  0  0  0999 V2000
   -9.6770   17.6740    7.3710 N   0  0  0  0  0  0  0  0  0  0  0  0
   -9.5360   17.2450    6.3010 C   0  0  0  0  0  0  0  0  0  0  0  0
   -9.3910   16.7290    4.9760 C   0  0  0  0  0  0  0  0  0  0  0  0
   -8.4580   15.7440    4.6570 C   0  0  0  0  0  0  0  0  0  0  0  0
  -10.2140   17.2240    3.9580 C   0  0  0  0  0  0  0  0  0  0  0  0
   -7.6080   15.1650    5.5440 O   0  0  0  0  0  0  0  0  0  0  0  0
   -8.3460   15.2740    3.3590 C   0  0  0  0  0  0  0  0  0  0  0  0
  -10.0950   16.7320    2.6560 C   0  0  0  0  0  0  0  0  0  0  0  0
  -11.1870   17.3660    1.2520 Br  0  0  0  0  0  0  0  0  0  0  0  0
   -7.3240   13.9090    4.8570 N   0  0  0  0  0  0  0  0  0  0  0  0
   -9.1660   15.7670    2.3570 C   0  0  0  0  0  0  0  0  0  0  0  0
   -8.2820   13.8770    3.7400 C   0  0  0  0  0  0  0  0  0  0  0  0
   -7.5950   14.1200    2.4200 C   0  0  0  0  0  0  0  0  0  0  0  0
   -6.2430   14.2310    2.1370 C   0  0  0  0  0  0  0  0  0  0  0  0
   -8.2010   14.2810    1.1480 C   0  0  0  0  0  0  0  0  0  0  0  0
   -7.3260   14.4710    0.1660 N   0  0  0  0  0  0  0  0  0  0  0  0
   -6.1160   14.4330    0.7770 N   0  0  0  0  0  0  0  0  0  0  0  0
   -4.9240   14.5790    0.0210 C   0  0  0  0  0  0  0  0  0  0  0  0
   -3.6990   14.7120    0.6840 C   0  0  0  0  0  0  0  0  0  0  0  0
   -4.9670   14.5820   -1.3760 C   0  0  0  0  0  0  0  0  0  0  0  0
   -2.5240   14.8390   -0.0540 C   0  0  0  0  0  0  0  0  0  0  0  0
   -3.7870   14.7110   -2.1090 C   0  0  0  0  0  0  0  0  0  0  0  0
   -2.5700   14.8380   -1.4470 C   0  0  0  0  0  0  0  0  0  0  0  0
  1  2  3  0
  2  3  1  0
  3  4  2  0
  3  5  1  0
  4  6  1  0
  4  7  1  0
  5  8  2  0
  8  9  1  0
  6 10  1  0
  7 11  2  0
  8 11  1  0
 10 12  1  0
 12 13  1  0
 13 14  2  0
 13 15  1  0
 15 16  2  0
 14 17  1  0
 16 17  1  0
 17 18  1  0
 18 19  2  0
 18 20  1  0
 19 21  1  0
 20 22  2  0
 21 23  2  0
 22 23  1  0
M  END
