diamond-x0910_1_A-mac-x0567
     RDKit          3D

 15 17  0  0  0  0  0  0  0  0999 V2000
   -7.7500   13.6470    0.3990 N   0  0  0  0  0  0  0  0  0  0  0  0
   -6.6990   14.5910    0.5920 C   0  0  2  0  0  0  0  0  0  0  0  0
   -6.6660   15.5060   -0.5010 N   0  0  0  0  0  0  0  0  0  0  0  0
   -5.4490   13.9210    0.5050 N   0  0  0  0  0  0  0  0  0  0  0  0
   -5.3170   16.0590   -0.3140 N   0  0  0  0  0  0  0  0  0  0  0  0
   -4.6050   14.8120   -0.3030 C   0  0  1  0  0  0  0  0  0  0  0  0
   -3.1950   14.8010    0.3100 C   0  0  0  0  0  0  0  0  0  0  0  0
   -4.5590   14.4430   -1.7590 C   0  0  0  0  0  0  0  0  0  0  0  0
   -2.8870   14.9490    1.6180 N   0  0  0  0  0  0  0  0  0  0  0  0
   -2.0350   14.6050   -0.4750 C   0  0  0  0  0  0  0  0  0  0  0  0
   -3.4470   14.2760   -2.4810 C   0  0  0  0  0  0  0  0  0  0  0  0
   -0.9850   14.6290    0.3910 C   0  0  0  0  0  0  0  0  0  0  0  0
   -1.5320   14.8350    1.6230 N   0  0  0  0  0  0  0  0  0  0  0  0
   -2.0490   14.4140   -1.9410 C   0  0  0  0  0  0  0  0  0  0  0  0
    0.3260   14.4850    0.1330 N   0  0  0  0  0  0  0  0  0  0  0  0
  2  1  1  6
  2  3  1  0
  2  4  1  0
  3  5  1  0
  4  6  1  0
  5  6  1  0
  6  7  1  0
  6  8  1  6
  7  9  2  0
  7 10  1  0
  8 11  2  0
 10 12  2  0
  9 13  1  0
 12 13  1  0
 10 14  1  0
 11 14  1  0
 12 15  1  0
M  END
