diamond-x0574_0_A-mac-x0453
     RDKit          3D

 13 14  0  0  0  0  0  0  0  0999 V2000
    0.1860   13.9960    2.1420 N   0  0  0  0  0  0  0  0  0  0  0  0
   -0.8630   14.2690    1.4110 C   0  0  0  0  0  0  0  0  0  0  0  0
   -1.9950   14.2660    1.9750 N   0  0  0  0  0  0  0  0  0  0  0  0
   -0.8400   14.6310   -0.2620 S   0  0  0  0  0  0  0  0  0  0  0  0
   -2.9630   14.5440    1.0880 C   0  0  0  0  0  0  0  0  0  0  0  0
   -2.5590   14.7880   -0.2070 C   0  0  0  0  0  0  0  0  0  0  0  0
   -4.2990   14.5880    1.4200 C   0  0  0  0  0  0  0  0  0  0  0  0
   -3.5010   15.0950   -1.1970 C   0  0  0  0  0  0  0  0  0  0  0  0
   -5.2730   14.8670    0.5020 C   0  0  0  0  0  0  0  0  0  0  0  0
   -4.8530   15.1270   -0.8120 C   0  0  0  0  0  0  0  0  0  0  0  0
   -6.5880   14.8670    0.9050 N   0  0  0  0  0  0  0  0  0  0  0  0
   -6.8700   14.7080    2.3340 C   0  0  0  0  0  0  0  0  0  0  0  0
   -7.4500   14.0930    0.0670 C   0  0  0  0  0  0  0  0  0  0  0  0
  1  2  1  0
  2  3  2  0
  2  4  1  0
  3  5  1  0
  4  6  1  0
  5  6  2  0
  5  7  1  0
  6  8  1  0
  7  9  2  0
  8 10  2  0
  9 10  1  0
  9 11  1  0
 11 12  1  0
 11 13  1  0
M  END
