diamond-x0864_0_A-mac-x0587
     RDKit          3D

 23 24  0  0  0  0  0  0  0  0999 V2000
    1.4030   12.1650   -6.4190 O   0  0  0  0  0  0  0  0  0  0  0  0
    0.3250   11.6170   -6.2040 C   0  0  0  0  0  0  0  0  0  0  0  0
   -0.6630   12.0220   -5.2700 N   0  0  0  0  0  0  0  0  0  0  0  0
    0.0320   10.3910   -7.0100 C   0  0  0  0  0  0  0  0  0  0  0  0
   -0.4140   12.8200   -3.9760 C   0  0  1  0  0  0  0  0  0  0  0  0
   -1.8480   11.2860   -5.2000 C   0  0  0  0  0  0  0  0  0  0  0  0
   -1.1190    9.7300   -6.8570 C   0  0  0  0  0  0  0  0  0  0  0  0
    0.8980   12.3520   -3.2980 C   0  0  0  0  0  0  0  0  0  0  0  0
   -1.5460    8.1900   -7.8160 Br  0  0  0  0  0  0  0  0  0  0  0  0
   -0.6640   14.3910   -4.1360 C   0  0  2  0  0  0  0  0  0  0  0  0
   -1.3020   12.1950   -2.8930 C   0  0  0  0  0  0  0  0  0  0  0  0
   -2.0930   10.2010   -5.9270 C   0  0  0  0  0  0  0  0  0  0  0  0
    0.9040   11.0360   -3.0370 O   0  0  0  0  0  0  0  0  0  0  0  0
    1.8540   13.0260   -2.9680 O   0  0  0  0  0  0  0  0  0  0  0  0
    0.4660   15.4080   -3.9070 C   0  0  0  0  0  0  0  0  0  0  0  0
   -2.0390   14.8600   -3.5780 C   0  0  0  0  0  0  0  0  0  0  0  0
   -2.8440   15.3490   -4.3850 O   0  0  0  0  0  0  0  0  0  0  0  0
   -2.4190   14.7640   -2.2350 N   0  0  0  0  0  0  0  0  0  0  0  0
   -3.8070   15.0650   -1.8940 C   0  0  0  0  0  0  0  0  0  0  0  0
   -1.6810   14.7470   -1.0270 C   0  0  0  0  0  0  0  0  0  0  0  0
   -0.4810   14.8070   -0.8500 O   0  0  0  0  0  0  0  0  0  0  0  0
   -3.8520   15.1720   -0.3800 C   0  0  0  0  0  0  0  0  0  0  0  0
   -2.5830   14.6550    0.0290 N   0  0  0  0  0  0  0  0  0  0  0  0
  1  2  2  0
  2  3  1  0
  2  4  1  0
  3  5  1  0
  3  6  1  0
  4  7  2  0
  5  8  1  0
  7  9  1  0
  5 10  1  0
  5 11  1  1
  6 12  2  0
  7 12  1  0
  8 13  1  0
  8 14  2  0
 10 15  1  1
 10 16  1  0
 16 17  2  0
 16 18  1  0
 18 19  1  0
 18 20  1  0
 20 21  2  0
 19 22  1  0
 20 23  1  0
 22 23  1  0
M  END
