diamond-x0905_0_B-diamond-x0814_0_B
     RDKit          3D

 24 25  0  0  0  0  0  0  0  0999 V2000
   14.4360   19.3200   11.7570 O   0  0  0  0  0  0  0  0  0  0  0  0
   13.3570   19.8480   12.4690 C   0  0  1  0  0  0  0  0  0  0  0  0
   13.2480   19.1950   13.7700 N   0  0  0  0  0  0  0  0  0  0  0  0
   13.5780   21.3190   12.6800 C   0  0  0  0  0  0  0  0  0  0  0  0
   13.7530   17.7820   14.0000 C   0  0  0  0  0  0  0  0  0  0  0  0
   12.3720   19.8400   14.6520 C   0  0  0  0  0  0  0  0  0  0  0  0
   13.0400   21.9580   13.7340 C   0  0  0  0  0  0  0  0  0  0  0  0
   15.1600   17.3600   13.4330 C   0  0  0  0  0  0  0  0  0  0  0  0
   12.2420   21.1840   14.6640 C   0  0  0  0  0  0  0  0  0  0  0  0
   15.1610   16.1850   12.4100 C   0  0  0  0  0  0  0  0  0  0  0  0
   16.3560   15.4010   12.2160 N   0  0  0  0  0  0  0  0  0  0  0  0
   16.5090   14.1010   12.1030 C   0  0  0  0  0  0  0  0  0  0  0  0
   17.8000   13.7900   11.8650 N   0  0  0  0  0  0  0  0  0  0  0  0
   15.5410   12.8610   12.1810 C   0  0  2  0  0  0  0  0  0  0  0  0
   14.9210   12.4130   10.8620 C   0  0  0  0  0  0  0  0  0  0  0  0
   14.4650   12.7540   13.2710 C   0  0  1  0  0  0  0  0  0  0  0  0
   14.3420   14.0220   14.0950 C   0  0  0  0  0  0  0  0  0  0  0  0
   13.2150   12.1970   12.6150 N   0  0  0  0  0  0  0  0  0  0  0  0
   14.3140   11.0070   10.8830 C   0  0  0  0  0  0  0  0  0  0  0  0
   11.6670   12.5190   13.1610 S   0  0  0  0  0  0  0  0  0  0  0  0
   13.3930   10.8450   12.0520 C   0  0  0  0  0  0  0  0  0  0  0  0
   11.5820   13.9480   12.9730 O   0  0  0  0  0  0  0  0  0  0  0  0
   10.6870   11.6100   12.5760 O   0  0  0  0  0  0  0  0  0  0  0  0
   11.8180   12.1460   14.9020 C   0  0  0  0  0  0  0  0  0  0  0  0
  2  1  1  1
  2  3  1  0
  2  4  1  0
  3  5  1  0
  3  6  1  0
  4  7  2  0
  5  8  1  0
  6  9  2  0
  7  9  1  0
  8 10  1  0
 10 11  1  0
 11 12  2  3
 12 13  1  0
 14 12  1  6
 14 15  1  0
 14 16  1  0
 16 17  1  6
 16 18  1  0
 15 19  1  0
 18 20  1  0
 18 21  1  0
 19 21  1  0
 20 22  2  0
 20 23  2  0
 20 24  1  0
M  END
