diamond-x0962_0_A-diamond-x0371_0_A
     RDKit          3D

 20 22  0  0  0  0  0  0  0  0999 V2000
   -2.6550   14.9010   -2.4140 N   0  0  0  0  0  0  0  0  0  0  0  0
   -3.3820   14.9290   -1.5080 C   0  0  0  0  0  0  0  0  0  0  0  0
   -4.1730   14.9090   -0.3290 C   0  0  0  0  0  0  0  0  0  0  0  0
   -3.5390   15.3010    0.8420 N   0  0  0  0  0  0  0  0  0  0  0  0
   -5.4630   14.5110   -0.2420 C   0  0  0  0  0  0  0  0  0  0  0  0
   -4.2970   15.4310    1.9740 C   0  0  0  0  0  0  0  0  0  0  0  0
   -6.3700   14.0110   -1.1450 N   0  0  0  0  0  0  0  0  0  0  0  0
   -6.0920   14.5330    1.0540 C   0  0  0  0  0  0  0  0  0  0  0  0
   -5.5070   15.0950    2.1160 N   0  0  0  0  0  0  0  0  0  0  0  0
   -7.2460   13.9200    1.0640 C   0  0  0  0  0  0  0  0  0  0  0  0
   -7.3720   13.6300   -0.3780 C   0  0  0  0  0  0  0  0  0  0  0  0
   -8.1460   13.6360    2.2090 C   0  0  0  0  0  0  0  0  0  0  0  0
   -9.1850   14.5950    2.4700 N   0  0  0  0  0  0  0  0  0  0  0  0
   -9.1430   15.6670    3.3580 C   0  0  0  0  0  0  0  0  0  0  0  0
   -9.4610   16.7720    2.9650 O   0  0  0  0  0  0  0  0  0  0  0  0
   -8.7650   15.4670    4.7600 C   0  0  0  0  0  0  0  0  0  0  0  0
   -8.1960   14.3050    5.2170 O   0  0  0  0  0  0  0  0  0  0  0  0
   -8.9000   16.3450    5.8240 C   0  0  0  0  0  0  0  0  0  0  0  0
   -8.3910   15.6940    6.9740 C   0  0  0  0  0  0  0  0  0  0  0  0
   -7.9720   14.4580    6.5550 C   0  0  0  0  0  0  0  0  0  0  0  0
  1  2  3  0
  2  3  1  0
  3  4  1  0
  3  5  2  0
  4  6  1  0
  5  7  1  0
  5  8  1  0
  6  9  2  0
  8  9  1  0
  8 10  2  0
  7 11  2  0
 10 11  1  0
 10 12  1  0
 12 13  1  0
 13 14  1  0
 14 15  2  0
 14 16  1  0
 16 17  1  0
 16 18  2  0
 18 19  1  0
 17 20  1  0
 19 20  2  0
M  END
