diamond-x0969_0_A-diamond-x0837_0_A
     RDKit          3D

 12 13  0  0  0  0  0  0  0  0999 V2000
   -6.9910   13.5160    2.4520 N   0  0  0  0  0  0  0  0  0  0  0  0
   -6.5920   14.6790    1.7530 C   0  0  2  0  0  0  0  0  0  0  0  0
   -7.8060   14.9480    0.9650 N   0  0  0  0  0  0  0  0  0  0  0  0
   -5.4430   14.5450    0.8970 N   0  0  0  0  0  0  0  0  0  0  0  0
   -7.4310   14.6920   -0.4600 N   0  0  0  0  0  0  0  0  0  0  0  0
   -6.0660   14.1530   -0.3370 C   0  0  1  0  0  0  0  0  0  0  0  0
   -4.1640   15.0660    1.0040 C   0  0  0  0  0  0  0  0  0  0  0  0
   -5.2420   14.6190   -1.4880 C   0  0  0  0  0  0  0  0  0  0  0  0
   -3.2950   14.9800   -0.0220 C   0  0  0  0  0  0  0  0  0  0  0  0
   -5.8080   15.1710   -2.4080 O   0  0  0  0  0  0  0  0  0  0  0  0
   -3.7600   14.3110   -1.2920 C   0  0  2  0  0  0  0  0  0  0  0  0
   -2.6560   14.8270   -3.0560 I   0  0  0  0  0  0  0  0  0  0  0  0
  2  1  1  6
  2  3  1  0
  2  4  1  0
  3  5  1  0
  4  6  1  0
  6  5  1  6
  4  7  1  0
  6  8  1  0
  7  9  2  0
  8 10  2  0
  8 11  1  0
  9 11  1  0
 11 12  1  6
M  END
