diamond-x0282_0_A-mac-x0319
     RDKit          3D

 26 28  0  0  0  0  0  0  0  0999 V2000
   -7.2900   13.4200    0.2120 C   0  0  0  0  0  0  0  0  0  0  0  0
   -8.6590   13.7500    0.0110 O   0  0  0  0  0  0  0  0  0  0  0  0
   -6.5640   14.6970    0.5820 C   0  0  0  0  0  0  0  0  0  0  0  0
   -5.7250   14.5430    1.8550 C   0  0  0  0  0  0  0  0  0  0  0  0
   -5.8060   15.2980   -0.6350 C   0  0  0  0  0  0  0  0  0  0  0  0
   -4.3250   14.0600    1.5540 C   0  0  0  0  0  0  0  0  0  0  0  0
   -4.3340   14.9150   -0.7190 C   0  0  0  0  0  0  0  0  0  0  0  0
   -3.6990   14.9210    0.5930 N   0  0  0  0  0  0  0  0  0  0  0  0
   -2.3820   14.6070    0.5410 C   0  0  0  0  0  0  0  0  0  0  0  0
   -2.1240   13.7710   -0.4270 N   0  0  0  0  0  0  0  0  0  0  0  0
   -1.4460   15.0810    1.3790 N   0  0  0  0  0  0  0  0  0  0  0  0
   -0.8870   13.3820   -0.5990 C   0  0  0  0  0  0  0  0  0  0  0  0
   -0.1880   14.6730    1.1470 C   0  0  0  0  0  0  0  0  0  0  0  0
   -0.7450   12.4060   -1.6890 C   0  0  0  0  0  0  0  0  0  0  0  0
    0.1410   13.8150    0.1480 C   0  0  0  0  0  0  0  0  0  0  0  0
    0.1430   12.8230   -2.6870 N   0  0  0  0  0  0  0  0  0  0  0  0
    0.7180   11.9570   -3.3580 C   0  0  0  0  0  0  0  0  0  0  0  0
    0.5730   10.6350   -3.1780 O   0  0  0  0  0  0  0  0  0  0  0  0
    1.5260   12.5850   -4.4340 C   0  0  0  0  0  0  0  0  0  0  0  0
    0.8310   13.9200   -4.5440 C   0  0  0  0  0  0  0  0  0  0  0  0
    1.4730   15.1420   -4.3040 C   0  0  0  0  0  0  0  0  0  0  0  0
   -0.5330   13.9240   -4.8760 C   0  0  0  0  0  0  0  0  0  0  0  0
    0.7400   16.3290   -4.3990 C   0  0  0  0  0  0  0  0  0  0  0  0
   -1.2480   15.1150   -4.9680 C   0  0  0  0  0  0  0  0  0  0  0  0
    1.2950   17.5490   -4.1720 O   0  0  0  0  0  0  0  0  0  0  0  0
   -0.6090   16.3210   -4.7290 C   0  0  0  0  0  0  0  0  0  0  0  0
  1  2  1  0
  1  3  1  0
  3  4  1  0
  3  5  1  0
  4  6  1  0
  5  7  1  0
  6  8  1  0
  7  8  1  0
  8  9  1  0
  9 10  2  0
  9 11  1  0
 10 12  1  0
 11 13  2  0
 12 14  1  0
 12 15  2  0
 13 15  1  0
 14 16  1  0
 16 17  2  3
 17 18  1  0
 17 19  1  0
 19 20  1  0
 20 21  2  0
 20 22  1  0
 21 23  1  0
 22 24  2  0
 23 25  1  0
 23 26  2  0
 24 26  1  0
M  END
