diamond-x0962_3_A-mac-x0131
     RDKit          3D

 27 30  0  0  0  0  0  0  0  0999 V2000
    1.0890   11.0860   -9.1980 N   0  0  0  0  0  0  0  0  0  0  0  0
    0.9320   10.4280   -7.9230 C   0  0  1  0  0  0  0  0  0  0  0  0
    0.5400   11.3270   -6.7800 C   0  0  0  0  0  0  0  0  0  0  0  0
   -0.1120    9.4300   -7.9670 C   0  0  0  0  0  0  0  0  0  0  0  0
   -0.2150   10.6490   -5.6020 C   0  0  0  0  0  0  0  0  0  0  0  0
    0.0500    8.1780   -8.4780 N   0  0  0  0  0  0  0  0  0  0  0  0
   -1.4140    9.4800   -7.5350 C   0  0  0  0  0  0  0  0  0  0  0  0
   -1.1400    7.5340   -8.3330 C   0  0  0  0  0  0  0  0  0  0  0  0
   -2.0440    8.2980   -7.7620 N   0  0  0  0  0  0  0  0  0  0  0  0
    0.2190   11.4270   -4.4510 C   0  0  0  0  0  0  0  0  0  0  0  0
    0.4170   12.4560   -3.4530 C   0  0  0  0  0  0  0  0  0  0  0  0
   -0.7250   12.2190   -5.1260 C   0  0  0  0  0  0  0  0  0  0  0  0
   -0.3150   13.5710   -3.6780 C   0  0  0  0  0  0  0  0  0  0  0  0
   -1.0420   13.4150   -4.7150 O   0  0  0  0  0  0  0  0  0  0  0  0
   -0.4700   14.8580   -3.0570 C   0  0  0  0  0  0  0  0  0  0  0  0
   -1.6650   14.9400   -2.2780 N   0  0  0  0  0  0  0  0  0  0  0  0
   -2.9810   15.1260   -2.6890 C   0  0  0  0  0  0  0  0  0  0  0  0
   -1.5830   14.8470   -0.9410 C   0  0  0  0  0  0  0  0  0  0  0  0
   -3.3930   15.2530   -4.1150 C   0  0  0  0  0  0  0  0  0  0  0  0
   -3.7480   15.1750   -1.5310 C   0  0  0  0  0  0  0  0  0  0  0  0
   -2.8470   14.9980   -0.4230 C   0  0  0  0  0  0  0  0  0  0  0  0
   -0.4350   14.6550   -0.2680 N   0  0  0  0  0  0  0  0  0  0  0  0
   -5.2230   15.3790   -1.4380 C   0  0  0  0  0  0  0  0  0  0  0  0
   -2.9320   14.9540    0.9630 C   0  0  0  0  0  0  0  0  0  0  0  0
   -0.6410   14.6150    1.0480 C   0  0  0  0  0  0  0  0  0  0  0  0
   -4.1330   15.1260    1.6240 N   0  0  0  0  0  0  0  0  0  0  0  0
   -1.8120   14.7470    1.6990 N   0  0  0  0  0  0  0  0  0  0  0  0
  2  1  1  6
  2  3  1  0
  2  4  1  0
  3  5  1  0
  4  6  1  0
  4  7  2  0
  6  8  1  0
  7  9  1  0
  8  9  2  0
  5 10  1  0
 10 11  1  0
 10 12  2  0
 11 13  2  0
 12 14  1  0
 13 14  1  0
 13 15  1  0
 15 16  1  0
 16 17  1  0
 16 18  1  0
 17 19  1  0
 17 20  2  0
 18 21  2  0
 20 21  1  0
 18 22  1  0
 20 23  1  0
 21 24  1  0
 22 25  2  0
 24 26  1  0
 24 27  2  0
 25 27  1  0
M  END
