diamond-x0910_0_A-diamond-x0711_0_A
     RDKit          3D

 19 20  0  0  0  0  0  0  0  0999 V2000
   -1.1900   12.1860   -4.7760 C   0  0  0  0  0  0  0  0  0  0  0  0
   -0.6290   13.7670   -4.2290 S   0  0  2  0  0  0  0  0  0  0  0  0
    0.1040   14.4330   -5.2750 O   0  0  0  0  0  0  0  0  0  0  0  0
   -0.0710   13.6360   -2.8320 N   0  0  0  0  0  0  0  0  0  0  0  0
   -0.1200   14.9460   -2.2330 C   0  0  0  0  0  0  0  0  0  0  0  0
   -0.4050   14.8940   -0.8560 N   0  0  0  0  0  0  0  0  0  0  0  0
   -1.5650   14.8440   -0.1700 C   0  0  0  0  0  0  0  0  0  0  0  0
    0.5590   14.8920    0.0630 C   0  0  0  0  0  0  0  0  0  0  0  0
   -1.2790   14.8070    1.1060 N   0  0  0  0  0  0  0  0  0  0  0  0
    0.0550   14.8340    1.2590 N   0  0  0  0  0  0  0  0  0  0  0  0
   -2.9470   14.8360   -0.4850 C   0  0  0  0  0  0  0  0  0  0  0  0
   -3.6480   15.0840   -1.6850 C   0  0  0  0  0  0  0  0  0  0  0  0
   -3.6060   14.5400    0.6670 C   0  0  0  0  0  0  0  0  0  0  0  0
   -5.0600   15.0250   -1.6360 C   0  0  0  0  0  0  0  0  0  0  0  0
   -4.9400   14.4810    0.7180 C   0  0  0  0  0  0  0  0  0  0  0  0
   -5.6780   14.7200   -0.4010 C   0  0  0  0  0  0  0  0  0  0  0  0
   -7.1220   14.6340   -0.1920 C   0  0  0  0  0  0  0  0  0  0  0  0
   -7.4980   14.4510    1.1090 N   0  0  0  0  0  0  0  0  0  0  0  0
   -7.9350   14.7150   -1.0870 O   0  0  0  0  0  0  0  0  0  0  0  0
  2  1  1  6
  2  3  2  0
  2  4  2  0
  4  5  1  0
  5  6  1  0
  6  7  1  0
  6  8  1  0
  7  9  2  0
  8 10  2  0
  9 10  1  0
  7 11  1  0
 11 12  2  0
 11 13  1  0
 12 14  1  0
 13 15  2  0
 14 16  2  0
 15 16  1  0
 16 17  1  0
 17 18  1  0
 17 19  2  0
M  END
