diamond-x1015_0_A-mac-x0182
     RDKit          3D

 21 23  0  0  0  0  0  0  0  0999 V2000
   -1.2680   14.2250   -4.2720 C   0  0  0  0  0  0  0  0  0  0  0  0
    0.1170   13.6750   -3.9740 C   0  0  2  0  0  0  0  0  0  0  0  0
    0.2280   12.2150   -3.9750 N   0  0  0  0  0  0  0  0  0  0  0  0
    0.4750   13.9460   -2.5130 C   0  0  0  0  0  0  0  0  0  0  0  0
    0.4450   15.0300   -1.9490 O   0  0  0  0  0  0  0  0  0  0  0  0
    0.4920   11.7260   -2.7060 C   0  0  0  0  0  0  0  0  0  0  0  0
    0.8420   12.7770   -1.9260 N   0  0  0  0  0  0  0  0  0  0  0  0
   -0.2720   11.3200   -5.0010 C   0  0  2  0  0  0  0  0  0  0  0  0
    0.4190   10.5430   -2.3520 O   0  0  0  0  0  0  0  0  0  0  0  0
    0.3640   11.4400   -6.3870 C   0  0  0  0  0  0  0  0  0  0  0  0
   -1.6820   11.5000   -5.4420 C   0  0  0  0  0  0  0  0  0  0  0  0
    1.5340   11.7200   -6.6320 O   0  0  0  0  0  0  0  0  0  0  0  0
   -2.4940   12.2820   -4.9830 O   0  0  0  0  0  0  0  0  0  0  0  0
   -1.8940   10.6230   -6.6380 C   0  0  1  0  0  0  0  0  0  0  0  0
   -0.7030   11.1620   -7.4520 C   0  0  2  0  0  0  0  0  0  0  0  0
   -0.2760   10.1830   -8.5210 C   0  0  2  0  0  0  0  0  0  0  0  0
   -1.7880    9.1550   -6.3270 C   0  0  0  0  0  0  0  0  0  0  0  0
   -1.4540    9.9630   -9.4480 C   0  0  0  0  0  0  0  0  0  0  0  0
   -0.8650    8.3620   -6.9070 C   0  0  0  0  0  0  0  0  0  0  0  0
    0.1400    8.8610   -7.9010 C   0  0  0  0  0  0  0  0  0  0  0  0
   -2.4720    8.5880   -9.0000 Cl  0  0  0  0  0  0  0  0  0  0  0  0
  2  1  1  1
  2  3  1  0
  2  4  1  0
  4  5  2  0
  3  6  1  0
  4  7  1  0
  6  7  1  0
  8  3  1  1
  6  9  2  0
  8 10  1  0
  8 11  1  0
 10 12  2  0
 11 13  2  0
 11 14  1  0
 15 10  1  1
 14 15  1  0
 15 16  1  0
 14 17  1  1
 16 18  1  6
 17 19  2  0
 16 20  1  0
 19 20  1  0
 18 21  1  0
M  END
