diamond-x0900_0_A-mac-x0138
     RDKit          3D

 17 19  0  0  0  0  0  0  0  0999 V2000
   -7.5010   14.2110   -0.3630 O   0  0  0  0  0  0  0  0  0  0  0  0
   -6.3300   14.4570   -0.1650 C   0  0  0  0  0  0  0  0  0  0  0  0
   -5.4890   15.0200   -1.0620 N   0  0  0  0  0  0  0  0  0  0  0  0
   -5.5190   14.2350    1.0920 C   0  0  0  0  0  0  0  0  0  0  0  0
   -4.4550   15.3380    0.9870 C   0  0  2  0  0  0  0  0  0  0  0  0
   -4.7650   16.0000   -0.3520 C   0  0  0  0  0  0  0  0  0  0  0  0
   -3.0770   14.9560    0.6540 C   0  0  0  0  0  0  0  0  0  0  0  0
   -2.8240   14.9240   -0.6990 C   0  0  0  0  0  0  0  0  0  0  0  0
   -2.0840   14.6670    1.5330 N   0  0  0  0  0  0  0  0  0  0  0  0
   -3.6540   15.1600   -1.7710 N   0  0  0  0  0  0  0  0  0  0  0  0
   -1.5570   14.6220   -1.0950 C   0  0  0  0  0  0  0  0  0  0  0  0
   -0.8850   14.3780    1.0180 C   0  0  0  0  0  0  0  0  0  0  0  0
    0.0440   14.0920    1.9700 N   0  0  0  0  0  0  0  0  0  0  0  0
   -1.6180   14.6860   -2.4650 N   0  0  0  0  0  0  0  0  0  0  0  0
   -2.8990   15.0100   -2.8190 C   0  0  0  0  0  0  0  0  0  0  0  0
   -0.5230   14.3370   -0.2870 N   0  0  0  0  0  0  0  0  0  0  0  0
   -0.5340   14.4580   -3.3700 C   0  0  0  0  0  0  0  0  0  0  0  0
  1  2  2  0
  2  3  1  0
  2  4  1  0
  4  5  1  0
  3  6  1  0
  5  6  1  0
  5  7  1  6
  7  8  1  0
  7  9  2  0
  8 10  1  0
  8 11  2  0
  9 12  1  0
 12 13  1  0
 11 14  1  0
 10 15  2  0
 14 15  1  0
 11 16  1  0
 12 16  2  0
 14 17  1  0
M  END
