diamond-x0371_0_A-diamond-x0967_0_A
     RDKit          3D

 18 20  0  0  0  0  0  0  0  0999 V2000
   -8.1470   14.5520    2.9660 N   0  0  0  0  0  0  0  0  0  0  0  0
   -8.8270   15.5480    3.6200 C   0  0  0  0  0  0  0  0  0  0  0  0
   -9.5130   16.3690    3.0150 O   0  0  0  0  0  0  0  0  0  0  0  0
   -8.3780   14.2710    1.5760 C   0  0  0  0  0  0  0  0  0  0  0  0
   -7.1360   14.5240    0.8050 C   0  0  0  0  0  0  0  0  0  0  0  0
   -8.6630   15.5290    5.0510 C   0  0  0  0  0  0  0  0  0  0  0  0
   -5.8880   14.4730    1.3910 N   0  0  0  0  0  0  0  0  0  0  0  0
   -7.0420   14.8180   -0.4780 N   0  0  0  0  0  0  0  0  0  0  0  0
   -8.0590   14.4510    5.6350 O   0  0  0  0  0  0  0  0  0  0  0  0
   -9.0140   16.4420    6.0250 C   0  0  0  0  0  0  0  0  0  0  0  0
   -5.6970   14.9520   -0.7220 C   0  0  0  0  0  0  0  0  0  0  0  0
   -4.9580   14.7390    0.4350 C   0  0  0  0  0  0  0  0  0  0  0  0
   -8.6030   15.8860    7.2610 C   0  0  0  0  0  0  0  0  0  0  0  0
   -8.0260   14.6760    6.9680 C   0  0  0  0  0  0  0  0  0  0  0  0
   -3.5730   14.8030    0.4920 C   0  0  0  0  0  0  0  0  0  0  0  0
   -5.0290   15.2520   -1.9100 C   0  0  0  0  0  0  0  0  0  0  0  0
   -2.9260   15.0960   -0.7050 C   0  0  0  0  0  0  0  0  0  0  0  0
   -3.6350   15.3200   -1.8870 C   0  0  0  0  0  0  0  0  0  0  0  0
  1  2  1  0
  2  3  2  0
  1  4  1  0
  4  5  1  0
  2  6  1  0
  5  7  1  0
  5  8  2  0
  6  9  1  0
  6 10  2  0
  8 11  1  0
  7 12  1  0
 11 12  2  0
 10 13  1  0
  9 14  1  0
 13 14  2  0
 12 15  1  0
 11 16  1  0
 15 17  2  0
 16 18  2  0
 17 18  1  0
M  END
