diamond-x0962_1_A-diamond-x0962_2_B
     RDKit          3D

 15 16  0  0  0  0  0  0  0  0999 V2000
   -3.3640   15.1990   -1.7510 N   0  0  0  0  0  0  0  0  0  0  0  0
   -4.2900   15.0870   -1.0610 C   0  0  0  0  0  0  0  0  0  0  0  0
   -5.4430   14.9120   -0.2440 C   0  0  0  0  0  0  0  0  0  0  0  0
   -5.3430   14.6390    1.0890 N   0  0  0  0  0  0  0  0  0  0  0  0
   -6.7590   14.9870   -0.6440 C   0  0  0  0  0  0  0  0  0  0  0  0
   -6.5870   14.5440    1.5120 C   0  0  0  0  0  0  0  0  0  0  0  0
   -7.4910   14.7510    0.4890 N   0  0  0  0  0  0  0  0  0  0  0  0
   -8.9470   14.7340    0.5720 C   0  0  0  0  0  0  0  0  0  0  0  0
   -9.5630   15.7590    1.5630 C   0  0  1  0  0  0  0  0  0  0  0  0
  -11.0270   15.8090    1.5550 N   0  0  0  0  0  0  0  0  0  0  0  0
   -9.0480   15.4890    2.9250 C   0  0  0  0  0  0  0  0  0  0  0  0
   -9.0470   16.3890    3.9710 N   0  0  0  0  0  0  0  0  0  0  0  0
   -8.4760   14.3510    3.4480 C   0  0  0  0  0  0  0  0  0  0  0  0
   -8.4780   15.7620    5.0420 C   0  0  0  0  0  0  0  0  0  0  0  0
   -8.1290   14.5250    4.7560 N   0  0  0  0  0  0  0  0  0  0  0  0
  1  2  3  0
  2  3  1  0
  3  4  1  0
  3  5  2  0
  4  6  2  0
  5  7  1  0
  6  7  1  0
  7  8  1  0
  8  9  1  0
  9 10  1  1
  9 11  1  0
 11 12  1  0
 11 13  2  0
 12 14  1  0
 13 15  1  0
 14 15  2  0
M  END
