diamond-x0626_0_A-mac-x0398
     RDKit          3D

 19 20  0  0  0  0  0  0  0  0999 V2000
   -4.6320   13.8620    2.0670 N   0  0  0  0  0  0  0  0  0  0  0  0
   -6.0160   13.4150    1.8270 C   0  0  0  0  0  0  0  0  0  0  0  0
   -6.8530   14.6200    1.4220 C   0  0  2  0  0  0  0  0  0  0  0  0
   -3.5580   13.9320    1.2280 C   0  0  0  0  0  0  0  0  0  0  0  0
   -2.4040   14.4640    1.6170 N   0  0  0  0  0  0  0  0  0  0  0  0
   -3.5430   13.3590   -0.4050 S   0  0  0  0  0  0  0  0  0  0  0  0
   -8.3180   14.3520    1.0390 C   0  0  0  0  0  0  0  0  0  0  0  0
   -1.9070   13.8660   -0.5660 C   0  0  0  0  0  0  0  0  0  0  0  0
   -1.4670   14.4260    0.6130 C   0  0  0  0  0  0  0  0  0  0  0  0
   -5.9600   14.9210    0.2860 C   0  0  0  0  0  0  0  0  0  0  0  0
   -0.1230   14.9720    0.8890 C   0  0  0  0  0  0  0  0  0  0  0  0
   -6.4380   14.7650   -0.9990 C   0  0  0  0  0  0  0  0  0  0  0  0
   -4.6460   15.3140    0.5110 C   0  0  0  0  0  0  0  0  0  0  0  0
   -5.5970   14.9650   -2.0750 C   0  0  0  0  0  0  0  0  0  0  0  0
   -3.8070   15.5030   -0.5620 C   0  0  0  0  0  0  0  0  0  0  0  0
   -4.2700   15.3190   -1.8650 C   0  0  0  0  0  0  0  0  0  0  0  0
   -3.4220   15.4630   -3.0680 C   0  0  0  0  0  0  0  0  0  0  0  0
   -3.8210   15.6460   -4.1960 O   0  0  0  0  0  0  0  0  0  0  0  0
   -2.1080   15.3380   -2.8270 O   0  0  0  0  0  0  0  0  0  0  0  0
  1  2  1  0
  2  3  1  0
  1  4  1  0
  4  5  2  0
  4  6  1  0
  3  7  1  6
  6  8  1  0
  5  9  1  0
  8  9  2  0
  3 10  1  0
  9 11  1  0
 10 12  2  0
 10 13  1  0
 12 14  1  0
 13 15  2  0
 14 16  2  0
 15 16  1  0
 16 17  1  0
 17 18  2  0
 17 19  1  0
M  END
