diamond-x0290_0_A-mac-x0380
     RDKit          3D

 24 26  0  0  0  0  0  0  0  0999 V2000
   -8.7580   12.4140    1.2080 N   0  0  0  0  0  0  0  0  0  0  0  0
   -9.2530   13.7910    1.2200 C   0  0  0  0  0  0  0  0  0  0  0  0
   -8.1350   14.8210    1.1260 C   0  0  1  0  0  0  0  0  0  0  0  0
   -6.9940   14.4030    2.0740 C   0  0  0  0  0  0  0  0  0  0  0  0
   -7.6270   14.9860   -0.6440 S   0  0  0  0  0  0  0  0  0  0  0  0
   -5.8460   15.0940   -0.5300 C   0  0  0  0  0  0  0  0  0  0  0  0
   -5.7930   15.2250    1.9560 N   0  0  0  0  0  0  0  0  0  0  0  0
   -5.1330   15.0500   -1.7500 C   0  0  0  0  0  0  0  0  0  0  0  0
   -5.1730   15.2080    0.7020 C   0  0  0  0  0  0  0  0  0  0  0  0
   -3.7400   15.1170   -1.7360 C   0  0  0  0  0  0  0  0  0  0  0  0
   -3.8000   15.2990    0.6870 C   0  0  0  0  0  0  0  0  0  0  0  0
   -2.8160   15.0500   -2.9150 C   0  0  0  0  0  0  0  0  0  0  0  0
   -3.1040   15.2480   -0.5050 C   0  0  0  0  0  0  0  0  0  0  0  0
   -1.4250   14.5260   -2.5600 C   0  0  0  0  0  0  0  0  0  0  0  0
   -3.1790   15.3820   -4.0450 O   0  0  0  0  0  0  0  0  0  0  0  0
   -1.3070   14.4940   -1.0540 C   0  0  0  0  0  0  0  0  0  0  0  0
   -0.1520   14.8430   -0.3550 C   0  0  0  0  0  0  0  0  0  0  0  0
   -2.4290   14.1100   -0.3080 C   0  0  0  0  0  0  0  0  0  0  0  0
   -0.1930   14.7950    1.0270 C   0  0  0  0  0  0  0  0  0  0  0  0
   -2.3760   14.0980    1.0740 C   0  0  0  0  0  0  0  0  0  0  0  0
   -3.5270   13.7270    1.7650 N   0  0  0  0  0  0  0  0  0  0  0  0
   -1.2710   14.4350    1.7530 N   0  0  0  0  0  0  0  0  0  0  0  0
   -4.5470   12.9790    1.2460 C   0  0  0  0  0  0  0  0  0  0  0  0
   -4.8300   12.9750    0.0500 O   0  0  0  0  0  0  0  0  0  0  0  0
  1  2  1  0
  3  2  1  6
  3  4  1  0
  3  5  1  0
  5  6  1  0
  4  7  1  0
  6  8  2  0
  6  9  1  0
  7  9  1  0
  8 10  1  0
  9 11  2  0
 10 12  1  0
 10 13  2  0
 11 13  1  0
 12 14  1  0
 12 15  2  0
 14 16  1  0
 16 17  2  0
 16 18  1  0
 17 19  1  0
 18 20  2  0
 20 21  1  0
 19 22  2  0
 20 22  1  0
 21 23  1  0
 23 24  2  0
M  END
