diamond-x0574_0_A-mac-x0159
     RDKit          3D

 25 28  0  0  0  0  0  0  0  0999 V2000
    0.5500   13.5420    0.6060 N   0  0  0  0  0  0  0  0  0  0  0  0
   -0.7090   13.9670    0.7330 C   0  0  0  0  0  0  0  0  0  0  0  0
   -1.6090   13.7700    1.8050 N   0  0  0  0  0  0  0  0  0  0  0  0
   -1.7030   14.8270   -0.1510 S   0  0  2  0  0  0  0  0  0  0  0  0
   -2.9680   14.3390    1.5120 C   0  0  0  0  0  0  0  0  0  0  0  0
   -3.0220   14.9850    0.3930 C   0  0  0  0  0  0  0  0  0  0  0  0
   -1.2040   15.2470   -1.6810 N   0  0  0  0  0  0  0  0  0  0  0  0
   -2.7290   15.7170   -1.0650 C   0  0  0  0  0  0  0  0  0  0  0  0
    0.0680   15.2730   -2.3610 C   0  0  0  0  0  0  0  0  0  0  0  0
   -4.2610   14.3640    2.0870 C   0  0  0  0  0  0  0  0  0  0  0  0
   -4.0060   15.6500   -0.2870 C   0  0  0  0  0  0  0  0  0  0  0  0
   -3.4590   15.3810   -1.9790 C   0  0  0  0  0  0  0  0  0  0  0  0
   -2.0240   14.2560   -2.3150 C   0  0  0  0  0  0  0  0  0  0  0  0
   -4.3720   16.2750   -2.3840 N   0  0  0  0  0  0  0  0  0  0  0  0
   -5.3630   15.0190    1.4290 C   0  0  0  0  0  0  0  0  0  0  0  0
   -5.2080   15.6590    0.2490 C   0  0  0  0  0  0  0  0  0  0  0  0
   -3.3000   14.2330   -2.4760 N   0  0  0  0  0  0  0  0  0  0  0  0
    0.1750   16.2130   -3.5610 C   0  0  0  0  0  0  0  0  0  0  0  0
   -6.6620   15.1180    1.8030 O   0  0  0  0  0  0  0  0  0  0  0  0
    1.3810   16.6580   -4.0310 C   0  0  0  0  0  0  0  0  0  0  0  0
   -0.9360   16.7140   -4.2800 N   0  0  0  0  0  0  0  0  0  0  0  0
   -6.9880   14.5610    3.0530 C   0  0  0  0  0  0  0  0  0  0  0  0
   -0.5150   17.5310   -5.2410 C   0  0  0  0  0  0  0  0  0  0  0  0
    1.1780   17.7190   -5.3480 S   0  0  0  0  0  0  0  0  0  0  0  0
   -1.3690   18.2790   -6.2070 C   0  0  0  0  0  0  0  0  0  0  0  0
  1  2  1  0
  2  3  2  0
  4  2  1  0
  3  5  1  0
  4  6  1  0
  5  6  2  0
  4  7  1  0
  4  8  1  1
  7  9  1  0
  5 10  1  0
  6 11  1  0
  8 12  2  0
  7 13  1  0
 12 14  1  0
 10 15  2  0
 11 16  2  0
 15 16  1  0
 12 17  1  0
 13 17  2  0
  9 18  1  0
 15 19  1  0
 18 20  2  0
 18 21  1  0
 19 22  1  0
 21 23  2  0
 20 24  1  0
 23 24  1  0
 23 25  1  0
M  END
