diamond-x0905_0_A-mac-x0301
     RDKit          3D

 17 19  0  0  0  0  0  0  0  0999 V2000
   -7.3110   15.2530   -0.6620 O   0  0  0  0  0  0  0  0  0  0  0  0
   -5.9760   15.1320   -0.4810 C   0  0  0  0  0  0  0  0  0  0  0  0
   -5.5950   15.0880    0.8050 N   0  0  0  0  0  0  0  0  0  0  0  0
   -5.1420   15.0610   -1.5630 C   0  0  0  0  0  0  0  0  0  0  0  0
   -4.2700   14.9770    1.0280 C   0  0  0  0  0  0  0  0  0  0  0  0
   -3.7840   14.9270   -1.3160 C   0  0  0  0  0  0  0  0  0  0  0  0
   -3.3250   14.8860    0.0170 C   0  0  0  0  0  0  0  0  0  0  0  0
   -2.8770   14.8290   -2.3740 C   0  0  0  0  0  0  0  0  0  0  0  0
   -1.5130   14.6800   -2.1430 C   0  0  0  0  0  0  0  0  0  0  0  0
   -1.9620   14.7530    0.2430 C   0  0  0  0  0  0  0  0  0  0  0  0
   -0.6000   14.5630   -3.3000 C   0  0  0  0  0  0  0  0  0  0  0  0
   -1.0770   14.6450   -0.8180 C   0  0  0  0  0  0  0  0  0  0  0  0
   -1.3430   14.7070    1.4690 O   0  0  0  0  0  0  0  0  0  0  0  0
    0.6970   14.6360   -2.9640 O   0  0  0  0  0  0  0  0  0  0  0  0
   -0.9170   14.4110   -4.4610 O   0  0  0  0  0  0  0  0  0  0  0  0
    0.1910   14.5060   -0.3810 O   0  0  0  0  0  0  0  0  0  0  0  0
    0.0070   14.4820    1.0430 C   0  0  0  0  0  0  0  0  0  0  0  0
  1  2  1  0
  2  3  2  0
  2  4  1  0
  3  5  1  0
  4  6  2  0
  5  7  2  0
  6  7  1  0
  6  8  1  0
  8  9  2  0
  7 10  1  0
  9 11  1  0
  9 12  1  0
 10 12  2  0
 10 13  1  0
 11 14  1  0
 11 15  2  0
 12 16  1  0
 13 17  1  0
 16 17  1  0
M  END
