diamond-x0962_0_A-mac-x0182
     RDKit          3D

 21 23  0  0  0  0  0  0  0  0999 V2000
   -1.8230   14.8220   -1.6480 N   0  0  0  0  0  0  0  0  0  0  0  0
   -3.2440   14.6470   -1.8630 C   0  0  1  0  0  0  0  0  0  0  0  0
   -3.5460   13.2660   -2.4830 C   0  0  0  0  0  0  0  0  0  0  0  0
   -3.9810   14.8460   -0.5850 C   0  0  0  0  0  0  0  0  0  0  0  0
   -2.3240   12.3350   -2.5540 C   0  0  0  0  0  0  0  0  0  0  0  0
   -3.3690   15.1500    0.6090 N   0  0  0  0  0  0  0  0  0  0  0  0
   -5.3230   14.7820   -0.2810 C   0  0  0  0  0  0  0  0  0  0  0  0
   -1.8520   12.1600   -3.9510 N   0  0  0  0  0  0  0  0  0  0  0  0
   -4.3510   15.2560    1.5540 C   0  0  0  0  0  0  0  0  0  0  0  0
   -5.5400   15.0270    1.0420 N   0  0  0  0  0  0  0  0  0  0  0  0
   -0.7250   11.1660   -4.2430 S   0  0  2  0  0  0  0  0  0  0  0  0
    0.0230   10.3810   -3.2950 O   0  0  0  0  0  0  0  0  0  0  0  0
    0.4030   12.1170   -5.0550 N   0  0  0  0  0  0  0  0  0  0  0  0
   -1.1170   10.1890   -5.6250 C   0  0  0  0  0  0  0  0  0  0  0  0
    0.7240   11.5650   -6.2660 C   0  0  0  0  0  0  0  0  0  0  0  0
   -0.2440   10.5150   -6.6590 C   0  0  0  0  0  0  0  0  0  0  0  0
   -2.1040    9.2320   -5.7560 C   0  0  0  0  0  0  0  0  0  0  0  0
    1.6850   11.8610   -6.9340 O   0  0  0  0  0  0  0  0  0  0  0  0
   -2.2030    8.5830   -6.9890 C   0  0  0  0  0  0  0  0  0  0  0  0
   -0.3340    9.8770   -7.8830 C   0  0  0  0  0  0  0  0  0  0  0  0
   -1.3250    8.9030   -8.0470 C   0  0  0  0  0  0  0  0  0  0  0  0
  2  1  1  1
  2  3  1  0
  2  4  1  0
  3  5  1  0
  4  6  1  0
  4  7  2  0
  5  8  1  0
  6  9  1  0
  7 10  1  0
  9 10  2  0
  8 11  2  0
 11 12  2  0
 11 13  1  6
 11 14  1  0
 13 15  1  0
 14 16  2  0
 15 16  1  0
 14 17  1  0
 15 18  2  0
 17 19  2  0
 16 20  1  0
 19 21  1  0
 20 21  2  0
M  END
