diamond-x0724_0_A-mac-x0437
     RDKit          3D

 31 34  0  0  0  0  0  0  0  0999 V2000
   -8.4520   13.8150    4.3330 N   0  0  0  0  0  0  0  0  0  0  0  0
   -8.5150   14.0200    5.7740 C   0  0  0  0  0  0  0  0  0  0  0  0
   -8.4250   15.0970    3.6330 C   0  0  0  0  0  0  0  0  0  0  0  0
   -7.7470   14.9030    2.3220 C   0  0  0  0  0  0  0  0  0  0  0  0
   -6.4000   14.9610    2.0500 C   0  0  0  0  0  0  0  0  0  0  0  0
   -8.3170   14.6310    1.0600 C   0  0  0  0  0  0  0  0  0  0  0  0
   -7.4040   14.5260    0.0860 N   0  0  0  0  0  0  0  0  0  0  0  0
   -6.2130   14.7320    0.7100 N   0  0  0  0  0  0  0  0  0  0  0  0
   -4.9670   14.7080    0.0170 C   0  0  0  0  0  0  0  0  0  0  0  0
   -3.7660   14.7990    0.7310 C   0  0  0  0  0  0  0  0  0  0  0  0
   -4.9310   14.5880   -1.3800 C   0  0  0  0  0  0  0  0  0  0  0  0
   -2.5450   14.7620    0.0570 C   0  0  0  0  0  0  0  0  0  0  0  0
   -3.7030   14.5530   -2.0510 C   0  0  0  0  0  0  0  0  0  0  0  0
   -2.4970   14.6330   -1.3370 C   0  0  0  0  0  0  0  0  0  0  0  0
   -1.1590   14.5800   -2.0460 C   0  0  0  0  0  0  0  0  0  0  0  0
    0.0540   14.3760   -1.1190 C   0  0  0  0  0  0  0  0  0  0  0  0
    1.3820   14.2010   -1.8620 C   0  0  0  0  0  0  0  0  0  0  0  0
    1.7330   12.8230   -2.0760 O   0  0  0  0  0  0  0  0  0  0  0  0
    1.2560   12.1860   -3.1790 C   0  0  0  0  0  0  0  0  0  0  0  0
    0.6370   11.1310   -3.1370 O   0  0  0  0  0  0  0  0  0  0  0  0
    1.5950   12.9190   -4.4630 C   0  0  0  0  0  0  0  0  0  0  0  0
    0.3900   13.1930   -5.3570 C   0  0  0  0  0  0  0  0  0  0  0  0
   -0.4390   12.0230   -5.5890 N   0  0  0  0  0  0  0  0  0  0  0  0
   -1.5880   11.7170   -4.9080 C   0  0  0  0  0  0  0  0  0  0  0  0
   -0.2210   11.0380   -6.5170 C   0  0  0  0  0  0  0  0  0  0  0  0
   -2.1230   10.5940   -5.3370 N   0  0  0  0  0  0  0  0  0  0  0  0
   -1.2860   10.1570   -6.3340 C   0  0  0  0  0  0  0  0  0  0  0  0
    0.7770   10.8280   -7.4710 C   0  0  0  0  0  0  0  0  0  0  0  0
   -1.3720    9.0080   -7.1360 C   0  0  0  0  0  0  0  0  0  0  0  0
    0.6770    9.6790   -8.2630 C   0  0  0  0  0  0  0  0  0  0  0  0
   -0.3790    8.7800   -8.0990 C   0  0  0  0  0  0  0  0  0  0  0  0
  1  2  1  0
  1  3  1  0
  3  4  1  0
  4  5  2  0
  4  6  1  0
  6  7  2  0
  5  8  1  0
  7  8  1  0
  8  9  1  0
  9 10  2  0
  9 11  1  0
 10 12  1  0
 11 13  2  0
 12 14  2  0
 13 14  1  0
 14 15  1  0
 15 16  1  0
 16 17  1  0
 17 18  1  0
 18 19  1  0
 19 20  2  0
 19 21  1  0
 21 22  1  0
 22 23  1  0
 23 24  1  0
 23 25  1  0
 24 26  2  0
 25 27  2  0
 26 27  1  0
 25 28  1  0
 27 29  1  0
 28 30  2  0
 29 31  2  0
 30 31  1  0
M  END
