diamond-x0282_0_A-mac-x0228
     RDKit          3D

 21 23  0  0  0  0  0  0  0  0999 V2000
   -7.3780   13.8090    1.2220 C   0  0  0  0  0  0  0  0  0  0  0  0
   -8.6150   14.1620    0.6020 O   0  0  0  0  0  0  0  0  0  0  0  0
   -6.2540   14.6670    0.6320 C   0  0  1  0  0  0  0  0  0  0  0  0
   -5.2180   15.0950    1.6830 C   0  0  0  0  0  0  0  0  0  0  0  0
   -5.6790   14.0750   -0.6560 C   0  0  2  0  0  0  0  0  0  0  0  0
   -4.0000   14.2250    1.6460 C   0  0  0  0  0  0  0  0  0  0  0  0
   -4.1240   14.1640   -0.8700 C   0  0  2  0  0  0  0  0  0  0  0  0
   -6.5290   14.6310   -1.7550 C   0  0  0  0  0  0  0  0  0  0  0  0
   -3.3950   14.4910    0.3820 N   0  0  0  0  0  0  0  0  0  0  0  0
   -3.6680   14.9650   -2.1440 C   0  0  1  0  0  0  0  0  0  0  0  0
   -6.0580   14.9380   -2.9400 C   0  0  0  0  0  0  0  0  0  0  0  0
   -2.3380   14.5870   -2.7980 C   0  0  0  0  0  0  0  0  0  0  0  0
   -2.0580   14.5850    0.3350 C   0  0  0  0  0  0  0  0  0  0  0  0
   -4.6360   14.7670   -3.2930 C   0  0  0  0  0  0  0  0  0  0  0  0
   -1.2630   14.6340   -2.0080 O   0  0  0  0  0  0  0  0  0  0  0  0
   -2.1720   14.2660   -3.9690 O   0  0  0  0  0  0  0  0  0  0  0  0
   -1.5520   14.6800   -0.8780 N   0  0  0  0  0  0  0  0  0  0  0  0
   -1.3300   14.5830    1.4580 N   0  0  0  0  0  0  0  0  0  0  0  0
   -0.2480   14.7940   -1.0230 C   0  0  0  0  0  0  0  0  0  0  0  0
   -0.0170   14.6970    1.2600 C   0  0  0  0  0  0  0  0  0  0  0  0
    0.5720   14.8150    0.0180 C   0  0  0  0  0  0  0  0  0  0  0  0
  1  2  1  0
  3  1  1  1
  3  4  1  0
  3  5  1  0
  4  6  1  0
  5  7  1  0
  5  8  1  6
  6  9  1  0
  7  9  1  1
  7 10  1  0
  8 11  2  0
 10 12  1  6
  9 13  1  0
 10 14  1  0
 11 14  1  0
 12 15  1  0
 12 16  2  0
 13 17  2  0
 13 18  1  0
 17 19  1  0
 18 20  2  0
 19 21  2  0
 20 21  1  0
M  END
