diamond-x0371_0_A-mac-x0123
     RDKit          3D

 23 26  0  0  0  0  0  0  0  0999 V2000
   -7.5000   14.0030    3.2600 N   0  0  0  0  0  0  0  0  0  0  0  0
   -8.2900   15.1310    3.6300 C   0  0  0  0  0  0  0  0  0  0  0  0
   -8.8700   15.9240    2.8700 O   0  0  0  0  0  0  0  0  0  0  0  0
   -6.9170   13.5370    1.9490 C   0  0  0  0  0  0  0  0  0  0  0  0
   -6.5970   14.6830    0.9650 C   0  0  2  0  0  0  0  0  0  0  0  0
   -8.3880   15.3070    5.0640 C   0  0  0  0  0  0  0  0  0  0  0  0
   -7.8320   15.2390    1.5000 N   0  0  0  0  0  0  0  0  0  0  0  0
   -7.1230   14.5880   -0.4490 C   0  0  1  0  0  0  0  0  0  0  0  0
   -5.1680   15.5320    1.0280 C   0  0  2  0  0  0  0  0  0  0  0  0
   -7.9770   14.3000    5.8930 O   0  0  0  0  0  0  0  0  0  0  0  0
   -8.8490   16.3640    5.8290 C   0  0  0  0  0  0  0  0  0  0  0  0
   -4.4530   14.3860    1.6250 N   0  0  0  0  0  0  0  0  0  0  0  0
   -5.9910   15.0260   -1.3790 C   0  0  1  0  0  0  0  0  0  0  0  0
   -8.7040   15.9730    7.1840 C   0  0  0  0  0  0  0  0  0  0  0  0
   -8.1670   14.7110    7.1660 C   0  0  0  0  0  0  0  0  0  0  0  0
   -3.7110   15.4970    0.5610 C   0  0  0  0  0  0  0  0  0  0  0  0
   -8.8560   14.3450    1.5200 C   0  0  0  0  0  0  0  0  0  0  0  0
   -7.9860   13.3500   -0.5620 C   0  0  0  0  0  0  0  0  0  0  0  0
   -5.2520   16.0070   -0.4870 C   0  0  0  0  0  0  0  0  0  0  0  0
   -3.1170   14.8740   -0.4710 C   0  0  0  0  0  0  0  0  0  0  0  0
   -4.9830   14.0580   -1.8830 C   0  0  0  0  0  0  0  0  0  0  0  0
   -8.9830   13.4110    0.5700 C   0  0  0  0  0  0  0  0  0  0  0  0
   -3.7120   14.0210   -1.4680 C   0  0  0  0  0  0  0  0  0  0  0  0
  1  2  1  0
  2  3  2  0
  1  4  1  0
  5  4  1  1
  2  6  1  0
  5  7  1  0
  5  8  1  0
  5  9  1  0
  6 10  1  0
  6 11  2  0
  9 12  1  1
  8 13  1  0
 11 14  1  0
 10 15  1  0
 14 15  2  0
  9 16  1  0
  7 17  1  0
  8 18  1  6
  9 19  1  0
 13 19  1  0
 16 20  2  0
 13 21  1  1
 17 22  2  0
 18 22  1  0
 20 23  1  0
 21 23  2  0
M  END
