diamond-x1018_0_A-diamond-x0681_0_A
     RDKit          3D

 17 19  0  0  0  0  0  0  0  0999 V2000
   -8.2490   14.0130    0.9130 Cl  0  0  0  0  0  0  0  0  0  0  0  0
   -6.5960   14.6260    0.6200 C   0  0  1  0  0  0  0  0  0  0  0  0
   -5.4260   13.6450    0.4510 C   0  0  1  0  0  0  0  0  0  0  0  0
   -6.6700   15.3540   -0.6350 N   0  0  0  0  0  0  0  0  0  0  0  0
   -5.5880   15.3020   -1.4110 C   0  0  0  0  0  0  0  0  0  0  0  0
   -4.1050   14.4780    0.3540 C   0  0  1  0  0  0  0  0  0  0  0  0
   -5.4320   12.4490    1.3940 C   0  0  0  0  0  0  0  0  0  0  0  0
   -5.6050   12.9260   -0.9020 C   0  0  0  0  0  0  0  0  0  0  0  0
   -2.8340   13.9930   -0.3320 C   0  0  0  0  0  0  0  0  0  0  0  0
   -5.4350   15.5700   -2.6960 N   0  0  0  0  0  0  0  0  0  0  0  0
   -4.4090   14.9150   -0.9410 C   0  0  0  0  0  0  0  0  0  0  0  0
   -6.0630   11.4120    0.5740 N   0  0  0  0  0  0  0  0  0  0  0  0
   -5.9650   11.6800   -0.7350 C   0  0  0  0  0  0  0  0  0  0  0  0
   -1.8150   14.8500   -0.3960 N   0  0  0  0  0  0  0  0  0  0  0  0
   -2.7210   12.9240   -0.9080 O   0  0  0  0  0  0  0  0  0  0  0  0
   -3.5290   14.9780   -1.9560 N   0  0  0  0  0  0  0  0  0  0  0  0
   -4.1540   15.3810   -3.0420 N   0  0  0  0  0  0  0  0  0  0  0  0
  2  1  1  6
  2  3  1  0
  2  4  1  0
  4  5  1  0
  3  6  1  0
  3  7  1  1
  3  8  1  0
  6  9  1  6
  5 10  1  0
  5 11  2  0
  6 11  1  0
  7 12  1  0
  8 13  2  0
 12 13  1  0
  9 14  1  0
  9 15  2  0
 11 16  1  0
 10 17  2  0
 16 17  1  0
M  END
