diamond-x0864_0_A-diamond-x1012_0_A
     RDKit          3D

 21 22  0  0  0  0  0  0  0  0999 V2000
    1.5390   11.6350   -7.1430 O   0  0  0  0  0  0  0  0  0  0  0  0
    0.5310   11.1640   -6.6570 C   0  0  0  0  0  0  0  0  0  0  0  0
    0.0040   11.6290   -5.4810 N   0  0  0  0  0  0  0  0  0  0  0  0
   -0.1510   10.0360   -7.3080 C   0  0  0  0  0  0  0  0  0  0  0  0
    0.8670   12.5370   -4.7210 C   0  0  0  0  0  0  0  0  0  0  0  0
   -1.2080   11.1740   -4.9930 C   0  0  0  0  0  0  0  0  0  0  0  0
   -1.2950    9.5770   -6.7940 C   0  0  0  0  0  0  0  0  0  0  0  0
    0.6910   12.5350   -3.1770 C   0  0  0  0  0  0  0  0  0  0  0  0
   -2.2000    8.1450   -7.5690 Br  0  0  0  0  0  0  0  0  0  0  0  0
   -1.8610   10.1840   -5.6100 C   0  0  0  0  0  0  0  0  0  0  0  0
    0.0220   11.3530   -2.7480 O   0  0  0  0  0  0  0  0  0  0  0  0
    1.9270   12.5630   -2.4970 O   0  0  0  0  0  0  0  0  0  0  0  0
   -0.0120   13.8870   -2.8380 C   0  0  0  0  0  0  0  0  0  0  0  0
   -1.4580   14.0350   -3.3850 C   0  0  0  0  0  0  0  0  0  0  0  0
    0.8570   15.1170   -3.2070 C   0  0  0  0  0  0  0  0  0  0  0  0
   -1.6120   14.7200   -4.7570 C   0  0  0  0  0  0  0  0  0  0  0  0
    0.6690   15.6430   -4.6260 C   0  0  0  0  0  0  0  0  0  0  0  0
   -0.7400   15.8810   -4.9350 N   0  0  0  0  0  0  0  0  0  0  0  0
   -1.3010   17.1350   -4.7800 C   0  0  0  0  0  0  0  0  0  0  0  0
   -0.4430   18.1760   -4.7170 N   0  0  0  0  0  0  0  0  0  0  0  0
   -2.4940   17.3550   -4.6890 O   0  0  0  0  0  0  0  0  0  0  0  0
  1  2  2  0
  2  3  1  0
  2  4  1  0
  3  5  1  0
  3  6  1  0
  4  7  2  0
  5  8  1  0
  7  9  1  0
  6 10  2  0
  7 10  1  0
  8 11  1  0
  8 12  1  0
  8 13  1  0
 13 14  1  0
 13 15  1  0
 14 16  1  0
 15 17  1  0
 16 18  1  0
 17 18  1  0
 18 19  1  0
 19 20  1  0
 19 21  2  0
M  END
