diamond-x0727_0_A-diamond-x0711_0_A
     RDKit          3D

 25 27  0  0  0  0  0  0  0  0999 V2000
    0.1710   11.1010   -5.5230 N   0  0  0  0  0  0  0  0  0  0  0  0
    0.7330   12.0310   -4.5840 C   0  0  1  0  0  0  0  0  0  0  0  0
   -0.1810   13.1810   -4.6110 C   0  0  0  0  0  0  0  0  0  0  0  0
    0.7040   10.9830   -6.7770 C   0  0  0  0  0  0  0  0  0  0  0  0
    1.5640   11.7180   -7.2010 O   0  0  0  0  0  0  0  0  0  0  0  0
    0.4840   11.6180   -3.1030 C   0  0  0  0  0  0  0  0  0  0  0  0
    0.1400    9.8210   -7.5850 C   0  0  0  0  0  0  0  0  0  0  0  0
    0.3680   10.4480   -2.6810 O   0  0  0  0  0  0  0  0  0  0  0  0
    0.4030   12.7480   -2.3930 N   0  0  0  0  0  0  0  0  0  0  0  0
   -0.5650   13.8410   -3.0380 S   0  0  0  0  0  0  0  0  0  0  0  0
   -1.1530   10.2400   -8.2960 C   0  0  0  0  0  0  0  0  0  0  0  0
   -0.2210    8.5900   -6.7310 C   0  0  0  0  0  0  0  0  0  0  0  0
   -1.3830   14.9530   -2.1290 N   0  0  0  0  0  0  0  0  0  0  0  0
   -1.1980   14.3970   -4.5510 C   0  0  0  0  0  0  0  0  0  0  0  0
   -2.1700    9.1470   -7.9920 C   0  0  0  0  0  0  0  0  0  0  0  0
   -1.7370    8.5980   -6.6450 C   0  0  0  0  0  0  0  0  0  0  0  0
   -2.6810   14.8820   -1.5870 C   0  0  0  0  0  0  0  0  0  0  0  0
   -3.8540   15.1390   -2.3050 C   0  0  0  0  0  0  0  0  0  0  0  0
   -2.7960   14.5430   -0.2340 C   0  0  0  0  0  0  0  0  0  0  0  0
   -5.1130   15.0610   -1.6880 C   0  0  0  0  0  0  0  0  0  0  0  0
   -4.0420   14.4610    0.3920 C   0  0  0  0  0  0  0  0  0  0  0  0
   -5.2070   14.7190   -0.3320 C   0  0  0  0  0  0  0  0  0  0  0  0
   -6.5170   14.6210    0.3750 C   0  0  0  0  0  0  0  0  0  0  0  0
   -6.5220   14.6600    1.7500 N   0  0  0  0  0  0  0  0  0  0  0  0
   -7.5750   14.5170   -0.2330 O   0  0  0  0  0  0  0  0  0  0  0  0
  2  1  1  6
  2  3  1  0
  1  4  1  0
  4  5  2  0
  2  6  1  0
  4  7  1  0
  6  8  2  0
  6  9  1  0
  3 10  2  0
  9 10  2  0
  7 11  1  0
  7 12  1  0
 10 13  1  0
 10 14  1  0
 11 15  1  0
 12 16  1  0
 15 16  1  0
 13 17  1  0
 17 18  2  0
 17 19  1  0
 18 20  1  0
 19 21  2  0
 20 22  2  0
 21 22  1  0
 22 23  1  0
 23 24  1  0
 23 25  2  0
M  END
