diamond-x0128_0_A-mac-x0137
     RDKit          3D

 31 35  0  0  0  0  0  0  0  0999 V2000
   -6.8900   14.2770    2.4470 N   0  0  0  0  0  0  0  0  0  0  0  0
   -7.7850   15.0190    3.1610 C   0  0  0  0  0  0  0  0  0  0  0  0
   -8.7970   15.3520    2.5370 O   0  0  0  0  0  0  0  0  0  0  0  0
   -6.3260   14.5050    1.1350 C   0  0  2  0  0  0  0  0  0  0  0  0
   -7.5150   15.3500    4.4570 N   0  0  0  0  0  0  0  0  0  0  0  0
   -7.3110   14.7570    0.0790 C   0  0  0  0  0  0  0  0  0  0  0  0
   -5.0990   13.8400    0.5390 C   0  0  0  0  0  0  0  0  0  0  0  0
   -6.8630   15.4420   -0.9590 C   0  0  0  0  0  0  0  0  0  0  0  0
   -4.4130   14.9760   -0.2330 C   0  0  1  0  0  0  0  0  0  0  0  0
   -8.3700   16.0760    5.3400 C   0  0  0  0  0  0  0  0  0  0  0  0
   -5.4310   15.9100   -0.9490 C   0  0  0  0  0  0  0  0  0  0  0  0
   -9.0490   17.2110    4.8850 C   0  0  0  0  0  0  0  0  0  0  0  0
   -8.5890   15.7280    6.6730 C   0  0  0  0  0  0  0  0  0  0  0  0
   -3.6360   15.5870    0.8650 N   0  0  0  0  0  0  0  0  0  0  0  0
   -3.4210   14.6360   -1.3650 C   0  0  0  0  0  0  0  0  0  0  0  0
   -9.8850   17.9740    5.6330 N   0  0  0  0  0  0  0  0  0  0  0  0
   -9.4440   16.4950    7.4700 C   0  0  0  0  0  0  0  0  0  0  0  0
   -2.3270   15.0800    0.6250 C   0  0  0  0  0  0  0  0  0  0  0  0
   -2.1630   14.5790   -0.6390 C   0  0  0  0  0  0  0  0  0  0  0  0
  -10.0630   17.5990    6.9110 C   0  0  0  0  0  0  0  0  0  0  0  0
   -1.3740   15.1100    1.5210 N   0  0  0  0  0  0  0  0  0  0  0  0
   -0.9460   14.1260   -1.0230 C   0  0  0  0  0  0  0  0  0  0  0  0
   -0.7540   13.6300   -2.3230 N   0  0  0  0  0  0  0  0  0  0  0  0
    0.0610   14.1540   -0.1530 N   0  0  0  0  0  0  0  0  0  0  0  0
   -0.2140   14.6390    1.0810 C   0  0  0  0  0  0  0  0  0  0  0  0
   -1.3030   14.4280   -3.4310 C   0  0  0  0  0  0  0  0  0  0  0  0
    0.5100   12.9620   -2.6180 C   0  0  0  0  0  0  0  0  0  0  0  0
   -1.7040   13.4690   -4.5460 C   0  0  2  0  0  0  0  0  0  0  0  0
    0.2930   11.9690   -3.7550 C   0  0  0  0  0  0  0  0  0  0  0  0
   -2.7770   12.7440   -4.1300 F   0  0  0  0  0  0  0  0  0  0  0  0
   -0.5630   12.5120   -4.9210 C   0  0  0  0  0  0  0  0  0  0  0  0
  1  2  1  0
  2  3  2  0
  4  1  1  1
  2  5  1  0
  4  6  1  0
  4  7  1  0
  6  8  2  0
  9  7  1  1
  5 10  1  0
  8 11  1  0
  9 11  1  0
 10 12  2  0
 10 13  1  0
  9 14  1  0
  9 15  1  0
 12 16  1  0
 13 17  2  0
 14 18  1  0
 15 19  1  0
 18 19  2  0
 16 20  2  0
 17 20  1  0
 18 21  1  0
 19 22  1  0
 22 23  1  0
 22 24  2  0
 21 25  2  0
 24 25  1  0
 23 26  1  0
 23 27  1  0
 26 28  1  0
 27 29  1  0
 28 30  1  1
 28 31  1  0
 29 31  1  0
M  END
