diamond-x0910_0_A-mac-x0357
     RDKit          3D

 17 18  0  0  0  0  0  0  0  0999 V2000
   -3.2410   14.7370   -0.9500 N   0  0  0  0  0  0  0  0  0  0  0  0
   -2.0740   14.7580   -0.2680 C   0  0  0  0  0  0  0  0  0  0  0  0
   -1.8690   15.0330    0.9940 N   0  0  0  0  0  0  0  0  0  0  0  0
   -0.8820   14.4720   -0.8870 N   0  0  0  0  0  0  0  0  0  0  0  0
   -0.7590   14.1360   -2.1970 N   0  0  0  0  0  0  0  0  0  0  0  0
   -0.5150   14.9310    1.2220 N   0  0  0  0  0  0  0  0  0  0  0  0
    0.0630   14.5980    0.0870 C   0  0  0  0  0  0  0  0  0  0  0  0
   -0.1190   13.0760   -2.5390 C   0  0  0  0  0  0  0  0  0  0  0  0
    0.5110   12.3390   -1.5880 O   0  0  0  0  0  0  0  0  0  0  0  0
    0.0060   12.4890   -3.8870 C   0  0  0  0  0  0  0  0  0  0  0  0
    1.1310   12.5550   -4.7340 C   0  0  0  0  0  0  0  0  0  0  0  0
   -1.1630   11.8190   -4.2950 C   0  0  0  0  0  0  0  0  0  0  0  0
    2.4090   13.2510   -4.3520 C   0  0  0  0  0  0  0  0  0  0  0  0
   -1.2430   11.2100   -5.5360 C   0  0  0  0  0  0  0  0  0  0  0  0
    1.0040   11.9260   -5.9770 C   0  0  0  0  0  0  0  0  0  0  0  0
    2.0050   11.9100   -6.8750 O   0  0  0  0  0  0  0  0  0  0  0  0
   -0.1520   11.2650   -6.3840 C   0  0  0  0  0  0  0  0  0  0  0  0
  1  2  1  0
  2  3  2  0
  2  4  1  0
  4  5  1  0
  3  6  1  0
  4  7  1  0
  6  7  2  0
  5  8  2  3
  8  9  1  0
  8 10  1  0
 10 11  2  0
 10 12  1  0
 11 13  1  0
 12 14  2  0
 11 15  1  0
 15 16  1  0
 14 17  1  0
 15 17  2  0
M  END
