diamond-x0962_0_A-mac-x0231
     RDKit          3D

 23 25  0  0  0  0  0  0  0  0999 V2000
   -2.4570   14.8440   -1.7760 N   0  0  0  0  0  0  0  0  0  0  0  0
   -3.8110   15.2950   -2.0850 C   0  0  1  0  0  0  0  0  0  0  0  0
   -4.2170   14.6840   -3.4790 C   0  0  0  0  0  0  0  0  0  0  0  0
   -4.5420   15.1430   -0.8040 C   0  0  0  0  0  0  0  0  0  0  0  0
   -3.8950   15.3770    0.3910 N   0  0  0  0  0  0  0  0  0  0  0  0
   -5.8190   14.8020   -0.4450 C   0  0  0  0  0  0  0  0  0  0  0  0
   -2.8330   14.4470   -3.9260 C   0  0  0  0  0  0  0  0  0  0  0  0
   -4.7830   15.1790    1.3940 C   0  0  0  0  0  0  0  0  0  0  0  0
   -5.9590   14.8260    0.9220 N   0  0  0  0  0  0  0  0  0  0  0  0
   -2.0150   15.5680   -4.1330 C   0  0  0  0  0  0  0  0  0  0  0  0
   -2.3420   13.1630   -4.0590 C   0  0  0  0  0  0  0  0  0  0  0  0
   -0.6710   15.3900   -4.4010 C   0  0  0  0  0  0  0  0  0  0  0  0
   -1.0070   12.9860   -4.3280 C   0  0  0  0  0  0  0  0  0  0  0  0
   -0.1810   14.1000   -4.4600 C   0  0  0  0  0  0  0  0  0  0  0  0
    0.2540   16.5270   -4.5820 C   0  0  0  0  0  0  0  0  0  0  0  0
   -0.1350   17.6850   -4.7060 O   0  0  0  0  0  0  0  0  0  0  0  0
    1.2440   13.9430   -4.6140 C   0  0  0  0  0  0  0  0  0  0  0  0
    1.5720   16.1880   -4.6040 N   0  0  0  0  0  0  0  0  0  0  0  0
    1.7650   12.5510   -4.5860 C   0  0  0  0  0  0  0  0  0  0  0  0
    2.0600   14.9240   -4.6520 N   0  0  0  0  0  0  0  0  0  0  0  0
    1.3360   11.9880   -3.2510 C   0  0  0  0  0  0  0  0  0  0  0  0
    0.6550   10.8260   -3.3320 O   0  0  0  0  0  0  0  0  0  0  0  0
    1.5370   12.4840   -2.1590 O   0  0  0  0  0  0  0  0  0  0  0  0
  2  1  1  1
  2  3  1  0
  2  4  1  0
  4  5  1  0
  4  6  2  0
  3  7  1  0
  5  8  1  0
  6  9  1  0
  8  9  2  0
  7 10  2  0
  7 11  1  0
 10 12  1  0
 11 13  2  0
 12 14  2  0
 13 14  1  0
 12 15  1  0
 15 16  2  0
 14 17  1  0
 15 18  1  0
 17 19  1  0
 17 20  2  0
 18 20  1  0
 19 21  1  0
 21 22  1  0
 21 23  2  0
M  END
