diamond-x0910_0_A-mac-x0568
     RDKit          3D

 15 16  0  0  0  0  0  0  0  0999 V2000
   -3.4220   14.7440   -1.1760 N   0  0  1  0  0  0  0  0  0  0  0  0
   -3.4850   15.8950   -1.9730 N   0  0  0  0  0  0  0  0  0  0  0  0
   -3.3460   13.8800   -2.1900 O   0  0  0  0  0  0  0  0  0  0  0  0
   -2.1810   14.7260   -0.3530 C   0  0  0  0  0  0  0  0  0  0  0  0
   -4.7240   14.6830   -0.4290 C   0  0  0  0  0  0  0  0  0  0  0  0
   -2.1860   14.7320    1.0060 N   0  0  0  0  0  0  0  0  0  0  0  0
   -0.9270   14.7100   -0.7790 N   0  0  0  0  0  0  0  0  0  0  0  0
   -5.9090   14.6660   -1.1640 C   0  0  0  0  0  0  0  0  0  0  0  0
   -4.8680   14.6480    0.9670 C   0  0  0  0  0  0  0  0  0  0  0  0
   -0.9400   14.7220    1.4960 N   0  0  0  0  0  0  0  0  0  0  0  0
   -0.2140   14.7120    0.3820 C   0  0  0  0  0  0  0  0  0  0  0  0
   -7.1570   14.6140   -0.6380 N   0  0  0  0  0  0  0  0  0  0  0  0
   -6.1470   14.5980    1.5300 C   0  0  0  0  0  0  0  0  0  0  0  0
   -7.2600   14.5810    0.7060 C   0  0  0  0  0  0  0  0  0  0  0  0
   -8.6330   14.5270    1.2980 C   0  0  0  0  0  0  0  0  0  0  0  0
  1  2  1  6
  1  3  1  0
  1  4  1  0
  1  5  1  0
  4  6  1  0
  4  7  2  0
  5  8  2  0
  5  9  1  0
  6 10  1  0
  7 11  1  0
 10 11  2  0
  8 12  1  0
  9 13  2  0
 12 14  2  0
 13 14  1  0
 14 15  1  0
M  CHG  2   1   1   3  -1
M  END
