diamond-x0910_1_A-mac-x0397
     RDKit          3D

 13 14  0  0  0  0  0  0  0  0999 V2000
   -7.9390   13.6810   -0.2850 N   0  0  0  0  0  0  0  0  0  0  0  0
   -7.2000   14.8010    0.1890 C   0  0  2  0  0  0  0  0  0  0  0  0
   -7.0270   15.7680   -0.8790 N   0  0  0  0  0  0  0  0  0  0  0  0
   -5.8670   14.4250    0.5880 N   0  0  0  0  0  0  0  0  0  0  0  0
   -5.7060   14.8110    2.0160 N   0  0  0  0  0  0  0  0  0  0  0  0
   -5.6710   16.3050   -0.6860 N   0  0  0  0  0  0  0  0  0  0  0  0
   -4.9230   15.1170   -0.3500 C   0  0  2  0  0  0  0  0  0  0  0  0
   -4.8100   14.7460   -1.8770 C   0  0  2  0  0  0  0  0  0  0  0  0
   -3.5540   15.3780    0.2540 C   0  0  0  0  0  0  0  0  0  0  0  0
   -6.2650   13.9670   -2.6110 Cl  0  0  0  0  0  0  0  0  0  0  0  0
   -3.5690   13.9950   -2.2510 C   0  0  0  0  0  0  0  0  0  0  0  0
   -2.4350   14.8700   -0.2930 C   0  0  0  0  0  0  0  0  0  0  0  0
   -2.4670   14.0700   -1.4920 C   0  0  0  0  0  0  0  0  0  0  0  0
  2  1  1  6
  2  3  1  0
  2  4  1  0
  4  5  1  0
  3  6  1  0
  4  7  1  0
  6  7  1  0
  7  8  1  0
  7  9  1  1
  8 10  1  1
  8 11  1  0
  9 12  2  0
 11 13  2  0
 12 13  1  0
M  END
