diamond-x0722_0_A-diamond-x0950_1_A
     RDKit          3D

 20 20  0  0  0  0  0  0  0  0999 V2000
   -4.4710   15.7750    2.2710 C   0  0  0  0  0  0  0  0  0  0  0  0
   -3.4740   15.2870    1.3450 C   0  0  0  0  0  0  0  0  0  0  0  0
   -2.3160   14.9260    1.8510 N   0  0  0  0  0  0  0  0  0  0  0  0
   -3.5410   15.1430   -0.0530 C   0  0  0  0  0  0  0  0  0  0  0  0
   -4.6950   15.4560   -0.9550 C   0  0  0  0  0  0  0  0  0  0  0  0
   -2.2770   14.6540   -0.3760 C   0  0  0  0  0  0  0  0  0  0  0  0
   -1.5920   14.5530    0.8170 N   0  0  0  0  0  0  0  0  0  0  0  0
   -0.2510   14.1240    1.1100 C   0  0  0  0  0  0  0  0  0  0  0  0
   -1.7050   14.3020   -1.6970 C   0  0  0  0  0  0  0  0  0  0  0  0
   -5.9560   14.6740   -0.6170 C   0  0  0  0  0  0  0  0  0  0  0  0
   -7.0930   15.1220   -0.7500 O   0  0  0  0  0  0  0  0  0  0  0  0
   -5.7700   13.4020   -0.1540 N   0  0  0  0  0  0  0  0  0  0  0  0
   -0.6050   13.2490   -1.6270 C   0  0  0  0  0  0  0  0  0  0  0  0
    0.8190   13.8180   -1.6400 C   0  0  0  0  0  0  0  0  0  0  0  0
    1.6670   12.8410   -2.2530 O   0  0  0  0  0  0  0  0  0  0  0  0
    1.0670   12.0320   -3.1560 C   0  0  0  0  0  0  0  0  0  0  0  0
    1.3460   12.4940   -4.6010 C   0  0  2  0  0  0  0  0  0  0  0  0
    0.3790   11.0500   -2.8690 O   0  0  0  0  0  0  0  0  0  0  0  0
    1.0320   13.9690   -4.7620 C   0  0  0  0  0  0  0  0  0  0  0  0
    0.6460   11.7770   -5.6070 O   0  0  0  0  0  0  0  0  0  0  0  0
  1  2  1  0
  2  3  2  0
  2  4  1  0
  4  5  1  0
  4  6  2  0
  3  7  1  0
  6  7  1  0
  7  8  1  0
  6  9  1  0
  5 10  1  0
 10 11  2  0
 10 12  1  0
  9 13  1  0
 13 14  1  0
 14 15  1  0
 15 16  1  0
 16 17  1  0
 16 18  2  0
 17 19  1  1
 17 20  1  0
M  END
