diamond-x0128_0_A-mac-x0379
     RDKit          3D

 25 27  0  0  0  0  0  0  0  0999 V2000
   -6.6170   14.7820    2.4860 N   0  0  0  0  0  0  0  0  0  0  0  0
   -7.7320   15.1690    3.1740 C   0  0  0  0  0  0  0  0  0  0  0  0
   -8.8430   15.3280    2.6760 O   0  0  0  0  0  0  0  0  0  0  0  0
   -6.5100   14.7420    1.0870 C   0  0  0  0  0  0  0  0  0  0  0  0
   -7.5950   15.4170    4.5110 N   0  0  0  0  0  0  0  0  0  0  0  0
   -7.6070   14.3720    0.3140 C   0  0  0  0  0  0  0  0  0  0  0  0
   -5.3410   15.0730    0.3960 C   0  0  0  0  0  0  0  0  0  0  0  0
   -4.0240   15.5040    0.8450 C   0  0  0  0  0  0  0  0  0  0  0  0
   -7.5460   14.3310   -1.0820 C   0  0  0  0  0  0  0  0  0  0  0  0
   -5.3030   15.0240   -0.9930 C   0  0  0  0  0  0  0  0  0  0  0  0
   -8.4390   16.1620    5.3480 C   0  0  0  0  0  0  0  0  0  0  0  0
   -6.3830   14.6610   -1.7380 C   0  0  0  0  0  0  0  0  0  0  0  0
   -9.1510   17.2870    4.9420 C   0  0  0  0  0  0  0  0  0  0  0  0
   -8.5870   15.7650    6.6780 C   0  0  0  0  0  0  0  0  0  0  0  0
   -3.3500   15.4350   -0.4820 C   0  0  0  0  0  0  0  0  0  0  0  0
   -9.9720   18.0160    5.7380 N   0  0  0  0  0  0  0  0  0  0  0  0
   -9.4210   16.4940    7.5270 C   0  0  0  0  0  0  0  0  0  0  0  0
   -4.0090   15.5190   -1.6340 N   0  0  0  0  0  0  0  0  0  0  0  0
   -1.6750   15.2170   -0.6320 S   0  0  0  0  0  0  0  0  0  0  0  0
  -10.0850   17.5990    7.0170 C   0  0  0  0  0  0  0  0  0  0  0  0
   -3.1530   15.3950   -2.6890 C   0  0  0  0  0  0  0  0  0  0  0  0
   -1.8400   15.2190   -2.3360 C   0  0  0  0  0  0  0  0  0  0  0  0
   -0.7360   15.0510   -3.2210 C   0  0  0  0  0  0  0  0  0  0  0  0
   -0.8230   14.8770   -4.4260 O   0  0  0  0  0  0  0  0  0  0  0  0
    0.4540   15.0930   -2.5830 O   0  0  0  0  0  0  0  0  0  0  0  0
  1  2  1  0
  2  3  2  0
  1  4  1  0
  2  5  1  0
  4  6  2  0
  4  7  1  0
  7  8  1  0
  6  9  1  0
  7 10  2  0
  5 11  1  0
  9 12  2  0
 10 12  1  0
 11 13  2  0
 11 14  1  0
  8 15  1  0
 13 16  1  0
 14 17  2  0
 15 18  2  0
 15 19  1  0
 16 20  2  0
 17 20  1  0
 18 21  1  0
 19 22  1  0
 21 22  2  0
 22 23  1  0
 23 24  2  0
 23 25  1  0
M  END
