diamond-x0662_0_A-diamond-x0421_0_A
     RDKit          3D

 32 35  0  0  0  0  0  0  0  0999 V2000
    5.2670    9.5990  -15.0810 C   0  0  0  0  0  0  0  0  0  0  0  0
    4.2360   10.0480  -14.1740 N   0  0  0  0  0  0  0  0  0  0  0  0
    3.5700   11.2400  -14.1980 C   0  0  0  0  0  0  0  0  0  0  0  0
    3.8530    9.2350  -13.1770 N   0  0  0  0  0  0  0  0  0  0  0  0
    2.6930   11.2020  -13.1380 C   0  0  0  0  0  0  0  0  0  0  0  0
    2.9000    9.9350  -12.5220 C   0  0  0  0  0  0  0  0  0  0  0  0
    2.2310    9.3640  -11.3300 C   0  0  0  0  0  0  0  0  0  0  0  0
    2.3300    8.1670  -11.0900 O   0  0  0  0  0  0  0  0  0  0  0  0
    1.5460   10.2860  -10.5650 N   0  0  0  0  0  0  0  0  0  0  0  0
    0.7090   10.0080   -9.4690 C   0  0  0  0  0  0  0  0  0  0  0  0
   -0.2220    8.9750   -9.4840 C   0  0  0  0  0  0  0  0  0  0  0  0
    0.8160   10.7990   -8.3150 C   0  0  0  0  0  0  0  0  0  0  0  0
   -1.0300    8.7370   -8.3700 C   0  0  0  0  0  0  0  0  0  0  0  0
    0.0120   10.5740   -7.1930 C   0  0  0  0  0  0  0  0  0  0  0  0
    0.1660   11.4650   -5.9880 C   0  0  0  0  0  0  0  0  0  0  0  0
   -0.9150    9.5300   -7.2320 C   0  0  0  0  0  0  0  0  0  0  0  0
   -0.7970   11.4050   -5.1350 N   0  0  0  0  0  0  0  0  0  0  0  0
    1.2250   12.1200   -6.0390 O   0  0  0  0  0  0  0  0  0  0  0  0
   -0.7240   12.2570   -3.9550 C   0  0  0  0  0  0  0  0  0  0  0  0
   -1.5450   13.5370   -4.1640 C   0  0  0  0  0  0  0  0  0  0  0  0
   -1.0730   14.7570   -3.3720 C   0  0  0  0  0  0  0  0  0  0  0  0
   -1.6120   14.6890   -2.0230 N   0  0  0  0  0  0  0  0  0  0  0  0
   -2.8590   14.9270   -1.7890 C   0  0  0  0  0  0  0  0  0  0  0  0
   -3.6830   15.2440   -2.8430 N   0  0  0  0  0  0  0  0  0  0  0  0
   -3.5180   14.9030   -0.4860 C   0  0  0  0  0  0  0  0  0  0  0  0
   -2.8930   15.0250    0.7470 C   0  0  0  0  0  0  0  0  0  0  0  0
   -4.8860   14.7490   -0.2940 N   0  0  0  0  0  0  0  0  0  0  0  0
   -3.8860   14.9430    1.6680 N   0  0  0  0  0  0  0  0  0  0  0  0
   -5.0590   14.7760    1.0080 C   0  0  0  0  0  0  0  0  0  0  0  0
   -6.4320   14.6340    1.7050 C   0  0  0  0  0  0  0  0  0  0  0  0
   -7.7170   14.6460    0.9220 C   0  0  0  0  0  0  0  0  0  0  0  0
   -7.2010   13.3570    1.4950 C   0  0  0  0  0  0  0  0  0  0  0  0
  1  2  1  0
  2  3  1  0
  2  4  1  0
  3  5  2  0
  4  6  2  0
  5  6  1  0
  6  7  1  0
  7  8  2  0
  7  9  1  0
  9 10  1  0
 10 11  2  0
 10 12  1  0
 11 13  1  0
 12 14  2  0
 14 15  1  0
 13 16  2  0
 14 16  1  0
 15 17  2  3
 15 18  1  0
 17 19  1  0
 19 20  1  0
 20 21  1  0
 21 22  1  0
 22 23  2  3
 23 24  1  0
 23 25  1  0
 25 26  2  0
 25 27  1  0
 26 28  1  0
 27 29  2  0
 28 29  1  0
 29 30  1  0
 30 31  1  0
 30 32  1  0
 31 32  1  0
M  CHG  1  18  -1
M  END
