diamond-x0910_1_A-mac-x0188
     RDKit          3D

 20 22  0  0  0  0  0  0  0  0999 V2000
   -7.6930   14.4420    1.3020 N   0  0  0  0  0  0  0  0  0  0  0  0
   -6.9020   14.3000    0.1200 C   0  0  1  0  0  0  0  0  0  0  0  0
   -6.9180   15.5260   -0.6560 N   0  0  0  0  0  0  0  0  0  0  0  0
   -5.5510   14.1070    0.5290 N   0  0  0  0  0  0  0  0  0  0  0  0
   -5.5260   16.0570   -0.5920 N   0  0  0  0  0  0  0  0  0  0  0  0
   -4.8100   14.8210   -0.4920 C   0  0  2  0  0  0  0  0  0  0  0  0
   -5.0320   14.2420   -1.8690 C   0  0  0  0  0  0  0  0  0  0  0  0
   -3.3400   14.8820   -0.1560 C   0  0  0  0  0  0  0  0  0  0  0  0
   -4.0980   14.2400   -2.8200 C   0  0  0  0  0  0  0  0  0  0  0  0
   -2.3890   14.8690   -1.1060 C   0  0  0  0  0  0  0  0  0  0  0  0
   -2.7380   14.8200   -2.5810 C   0  0  1  0  0  0  0  0  0  0  0  0
   -1.6690   14.2480   -3.4780 C   0  0  0  0  0  0  0  0  0  0  0  0
   -2.0320   13.8990   -4.7270 N   0  0  0  0  0  0  0  0  0  0  0  0
   -0.2770   13.9950   -3.2670 C   0  0  0  0  0  0  0  0  0  0  0  0
    0.5890   14.1940   -2.1270 C   0  0  0  0  0  0  0  0  0  0  0  0
    0.1430   13.4810   -4.4800 C   0  0  0  0  0  0  0  0  0  0  0  0
   -0.9030   13.4230   -5.3460 O   0  0  0  0  0  0  0  0  0  0  0  0
    1.4470   13.0090   -4.9930 C   0  0  0  0  0  0  0  0  0  0  0  0
    1.1890   15.2230   -1.9060 O   0  0  0  0  0  0  0  0  0  0  0  0
    0.7420   13.1530   -1.2800 O   0  0  0  0  0  0  0  0  0  0  0  0
  2  1  1  1
  2  3  1  0
  2  4  1  0
  3  5  1  0
  4  6  1  0
  5  6  1  0
  6  7  1  6
  6  8  1  0
  7  9  2  0
  8 10  2  0
  9 11  1  0
 10 11  1  0
 11 12  1  6
 12 13  2  0
 12 14  1  0
 14 15  1  0
 14 16  2  0
 13 17  1  0
 16 17  1  0
 16 18  1  0
 15 19  2  0
 15 20  1  0
M  END
