diamond-x0253_0_A-diamond-x0805_0_A
     RDKit          3D

 28 30  0  0  0  0  0  0  0  0999 V2000
   -0.0170   10.8760   -5.2740 N   0  0  0  0  0  0  0  0  0  0  0  0
    0.6540   11.4210   -6.3810 C   0  0  0  0  0  0  0  0  0  0  0  0
    1.4600   12.3540   -6.4020 O   0  0  0  0  0  0  0  0  0  0  0  0
   -0.5650   11.5050   -4.0790 C   0  0  0  0  0  0  0  0  0  0  0  0
    0.4350   12.2280   -3.1990 C   0  0  0  0  0  0  0  0  0  0  0  0
    0.2980   10.6450   -7.5910 C   0  0  0  0  0  0  0  0  0  0  0  0
    0.0660   12.5750   -1.8600 O   0  0  0  0  0  0  0  0  0  0  0  0
    1.4610   11.3320   -3.0550 O   0  0  0  0  0  0  0  0  0  0  0  0
   -0.6850    9.6850   -7.3430 C   0  0  0  0  0  0  0  0  0  0  0  0
    0.8220   10.7700   -8.8840 C   0  0  0  0  0  0  0  0  0  0  0  0
    0.7500   13.4040   -4.0570 C   0  0  2  0  0  0  0  0  0  0  0  0
   -1.1540    8.8550   -8.3500 C   0  0  0  0  0  0  0  0  0  0  0  0
    0.3560    9.9380   -9.9030 C   0  0  0  0  0  0  0  0  0  0  0  0
    2.2160   13.8100   -3.9340 C   0  0  0  0  0  0  0  0  0  0  0  0
   -0.3690   14.5010   -4.0590 C   0  0  1  0  0  0  0  0  0  0  0  0
   -2.2070    7.8440   -8.0390 C   0  0  0  0  0  0  0  0  0  0  0  0
   -0.6310    8.9820   -9.6350 C   0  0  0  0  0  0  0  0  0  0  0  0
   -1.6920   14.3350   -3.2970 C   0  0  0  0  0  0  0  0  0  0  0  0
    2.4330   15.1480   -3.5310 O   0  0  0  0  0  0  0  0  0  0  0  0
    0.1790   15.8470   -3.6480 C   0  0  0  0  0  0  0  0  0  0  0  0
   -2.8590   13.8120   -3.8650 C   0  0  0  0  0  0  0  0  0  0  0  0
   -1.7440   14.7480   -1.9530 C   0  0  0  0  0  0  0  0  0  0  0  0
    1.5390   16.0430   -4.1850 C   0  0  0  0  0  0  0  0  0  0  0  0
   -2.9100   14.6580   -1.1950 C   0  0  0  0  0  0  0  0  0  0  0  0
   -4.0350   13.7150   -3.1080 C   0  0  0  0  0  0  0  0  0  0  0  0
   -3.0260   15.0520    0.1080 O   0  0  0  0  0  0  0  0  0  0  0  0
   -4.0590   14.1370   -1.7800 C   0  0  0  0  0  0  0  0  0  0  0  0
   -4.2730   15.5850    0.5460 C   0  0  0  0  0  0  0  0  0  0  0  0
  1  2  1  0
  2  3  2  0
  1  4  1  0
  4  5  1  0
  2  6  1  0
  5  7  1  0
  5  8  1  0
  6  9  2  0
  6 10  1  0
 11  5  1  1
  9 12  1  0
 10 13  2  0
 11 14  1  0
 11 15  1  0
 12 16  1  0
 12 17  2  0
 13 17  1  0
 15 18  1  1
 14 19  1  0
 15 20  1  0
 18 21  2  0
 18 22  1  0
 19 23  1  0
 20 23  1  0
 22 24  2  0
 21 25  1  0
 24 26  1  0
 24 27  1  0
 25 27  2  0
 26 28  1  0
M  END
