diamond-x0837_0_A-mac-x0179
     RDKit          3D

 25 27  0  0  0  0  0  0  0  0999 V2000
   -7.6550   14.7850    0.2840 O   0  0  0  0  0  0  0  0  0  0  0  0
   -6.3770   14.7770    0.2410 C   0  0  0  0  0  0  0  0  0  0  0  0
   -5.6160   14.8750    1.4430 N   0  0  0  0  0  0  0  0  0  0  0  0
   -5.6740   14.6620   -1.0470 C   0  0  0  0  0  0  0  0  0  0  0  0
   -4.2130   15.0590    1.3290 C   0  0  0  0  0  0  0  0  0  0  0  0
   -4.3420   15.3590   -1.0850 C   0  0  2  0  0  0  0  0  0  0  0  0
   -3.1430   14.5830   -2.6480 I   0  0  0  0  0  0  0  0  0  0  0  0
   -3.6090   15.2760    0.1850 C   0  0  0  0  0  0  0  0  0  0  0  0
   -3.1470   12.4520   -2.5710 C   0  0  0  0  0  0  0  0  0  0  0  0
   -1.7280   11.9810   -2.8860 C   0  0  0  0  0  0  0  0  0  0  0  0
   -1.7730   11.1450   -4.0110 N   0  0  0  0  0  0  0  0  0  0  0  0
   -1.0820   11.0750   -5.0700 C   0  0  0  0  0  0  0  0  0  0  0  0
    0.0290   11.9450   -5.3820 N   0  0  0  0  0  0  0  0  0  0  0  0
   -1.1800   10.1680   -6.2050 C   0  0  0  0  0  0  0  0  0  0  0  0
    0.5910   12.9420   -4.4880 C   0  0  0  0  0  0  0  0  0  0  0  0
    0.7110   11.4380   -6.4880 C   0  0  0  0  0  0  0  0  0  0  0  0
   -0.1080   10.3760   -7.0590 C   0  0  0  0  0  0  0  0  0  0  0  0
   -2.0870    9.2000   -6.5530 C   0  0  0  0  0  0  0  0  0  0  0  0
    0.9880   12.2650   -3.2060 C   0  0  0  0  0  0  0  0  0  0  0  0
    1.8380   11.8000   -6.9210 O   0  0  0  0  0  0  0  0  0  0  0  0
    0.0720    9.6550   -8.2200 C   0  0  0  0  0  0  0  0  0  0  0  0
   -1.9040    8.4790   -7.7200 C   0  0  0  0  0  0  0  0  0  0  0  0
    1.6920   12.9560   -2.2320 O   0  0  0  0  0  0  0  0  0  0  0  0
    0.6940   11.0680   -2.9800 O   0  0  0  0  0  0  0  0  0  0  0  0
   -0.8370    8.6870   -8.5650 C   0  0  0  0  0  0  0  0  0  0  0  0
  1  2  2  0
  2  3  1  0
  2  4  1  0
  3  5  1  0
  4  6  1  0
  6  7  1  6
  5  8  2  0
  6  8  1  0
  7  9  1  0
  9 10  1  0
 10 11  1  0
 11 12  2  3
 12 13  1  0
 12 14  1  0
 13 15  1  0
 13 16  1  0
 14 17  2  0
 16 17  1  0
 14 18  1  0
 15 19  1  0
 16 20  2  0
 17 21  1  0
 18 22  2  0
 19 23  1  0
 19 24  2  0
 21 25  2  0
 22 25  1  0
M  END
