diamond-x0282_0_A-mac-x0415
     RDKit          3D

 29 32  0  0  0  0  0  0  0  0999 V2000
   -7.5530   13.6070    0.5290 C   0  0  0  0  0  0  0  0  0  0  0  0
   -8.7390   14.3100    0.1660 O   0  0  0  0  0  0  0  0  0  0  0  0
   -6.3560   14.5490    0.4100 C   0  0  0  0  0  0  0  0  0  0  0  0
   -5.5340   14.5950    1.7080 C   0  0  0  0  0  0  0  0  0  0  0  0
   -5.4570   14.2210   -0.7690 C   0  0  0  0  0  0  0  0  0  0  0  0
   -4.0990   14.1160    1.5290 C   0  0  0  0  0  0  0  0  0  0  0  0
   -4.1860   15.0590   -0.7500 C   0  0  0  0  0  0  0  0  0  0  0  0
   -3.4680   14.9160    0.5200 N   0  0  0  0  0  0  0  0  0  0  0  0
   -2.1440   14.6320    0.3170 C   0  0  0  0  0  0  0  0  0  0  0  0
   -1.8460   13.7040   -0.5790 N   0  0  0  0  0  0  0  0  0  0  0  0
   -1.2250   15.2970    1.0160 N   0  0  0  0  0  0  0  0  0  0  0  0
   -0.5520   13.4400   -0.7840 C   0  0  0  0  0  0  0  0  0  0  0  0
    0.0560   15.0080    0.7720 C   0  0  0  0  0  0  0  0  0  0  0  0
   -0.2390   12.3790   -1.7850 C   0  0  0  0  0  0  0  0  0  0  0  0
    0.4400   14.0780   -0.1400 C   0  0  0  0  0  0  0  0  0  0  0  0
    0.4200   12.9660   -2.8950 N   0  0  0  0  0  0  0  0  0  0  0  0
    0.6090   12.2450   -3.8980 C   0  0  0  0  0  0  0  0  0  0  0  0
    0.2640   10.9540   -4.0110 O   0  0  0  0  0  0  0  0  0  0  0  0
    1.2390   12.8920   -5.0790 C   0  0  0  0  0  0  0  0  0  0  0  0
    0.8750   14.2970   -4.8190 C   0  0  0  0  0  0  0  0  0  0  0  0
    1.8080   15.3570   -4.4640 C   0  0  0  0  0  0  0  0  0  0  0  0
   -0.2640   14.9830   -4.8150 C   0  0  0  0  0  0  0  0  0  0  0  0
    1.3610   16.5570   -4.2780 N   0  0  0  0  0  0  0  0  0  0  0  0
   -0.0540   16.3860   -4.4090 C   0  0  1  0  0  0  0  0  0  0  0  0
   -1.6150   14.6050   -5.0970 C   0  0  0  0  0  0  0  0  0  0  0  0
   -0.8410   17.3740   -5.1960 C   0  0  0  0  0  0  0  0  0  0  0  0
   -2.4600   15.5670   -5.5350 C   0  0  0  0  0  0  0  0  0  0  0  0
   -4.2230   15.1400   -5.9520 Br  0  0  0  0  0  0  0  0  0  0  0  0
   -2.0110   16.9600   -5.7210 C   0  0  0  0  0  0  0  0  0  0  0  0
  1  2  1  0
  1  3  1  0
  3  4  1  0
  3  5  1  0
  4  6  1  0
  5  7  1  0
  6  8  1  0
  7  8  1  0
  8  9  1  0
  9 10  2  0
  9 11  1  0
 10 12  1  0
 11 13  2  0
 12 14  1  0
 12 15  2  0
 13 15  1  0
 14 16  1  0
 16 17  2  3
 17 18  1  0
 17 19  1  0
 19 20  1  0
 20 21  1  0
 20 22  2  0
 21 23  2  0
 22 24  1  0
 23 24  1  0
 22 25  1  0
 24 26  1  6
 25 27  2  0
 27 28  1  0
 26 29  2  0
 27 29  1  0
M  END
