diamond-x0849_0_A-diamond-x0626_0_A
     RDKit          3D

 17 18  0  0  0  0  0  0  0  0999 V2000
   -3.3470   14.6470   -2.9670 Br  0  0  0  0  0  0  0  0  0  0  0  0
   -3.2410   15.0210   -1.1240 C   0  0  0  0  0  0  0  0  0  0  0  0
   -2.0720   14.9890   -0.4350 C   0  0  0  0  0  0  0  0  0  0  0  0
   -4.4780   15.3720   -0.4290 C   0  0  0  0  0  0  0  0  0  0  0  0
   -2.0380   15.3620    1.0450 C   0  0  1  0  0  0  0  0  0  0  0  0
   -4.4330   15.3890    0.9000 C   0  0  0  0  0  0  0  0  0  0  0  0
   -0.7660   14.6550   -0.9800 C   0  0  0  0  0  0  0  0  0  0  0  0
   -5.7540   15.6490   -1.1630 C   0  0  0  0  0  0  0  0  0  0  0  0
   -3.3050   15.0640    1.5680 N   0  0  0  0  0  0  0  0  0  0  0  0
   -1.1150   14.5810    1.8370 N   0  0  0  0  0  0  0  0  0  0  0  0
    0.2020   14.2040   -0.1840 C   0  0  0  0  0  0  0  0  0  0  0  0
   -6.4870   14.3840   -1.2640 N   0  0  0  0  0  0  0  0  0  0  0  0
   -3.0420   13.6850    1.5660 C   0  0  0  0  0  0  0  0  0  0  0  0
   -0.1390   14.0710    1.2390 C   0  0  0  0  0  0  0  0  0  0  0  0
   -7.0670   13.8550   -0.2360 C   0  0  0  0  0  0  0  0  0  0  0  0
   -7.1210   14.4100    1.1580 C   0  0  0  0  0  0  0  0  0  0  0  0
   -8.5020   14.9190    1.5080 C   0  0  0  0  0  0  0  0  0  0  0  0
  1  2  1  0
  2  3  2  0
  2  4  1  0
  3  5  1  0
  4  6  2  0
  3  7  1  0
  4  8  1  0
  5  9  1  0
  6  9  1  0
  5 10  1  1
  7 11  2  0
  8 12  1  0
  9 13  1  0
 10 14  2  0
 11 14  1  0
 12 15  2  3
 15 16  1  0
 16 17  1  0
M  END
