diamond-x0128_0_A-diamond-x0626_0_A
     RDKit          3D

 25 27  0  0  0  0  0  0  0  0999 V2000
   -6.7210   14.4320    1.8900 N   0  0  0  0  0  0  0  0  0  0  0  0
   -7.7530   15.0860    2.6480 C   0  0  0  0  0  0  0  0  0  0  0  0
   -8.7790   15.4980    2.1120 O   0  0  0  0  0  0  0  0  0  0  0  0
   -5.5910   15.1120    1.5340 C   0  0  0  0  0  0  0  0  0  0  0  0
   -6.7200   14.4490    0.5040 C   0  0  0  0  0  0  0  0  0  0  0  0
   -7.5250   15.2240    4.0260 N   0  0  0  0  0  0  0  0  0  0  0  0
   -4.4390   15.2030    2.1490 N   0  0  0  0  0  0  0  0  0  0  0  0
   -5.5790   15.6330    0.4060 O   0  0  0  0  0  0  0  0  0  0  0  0
   -7.7420   14.7100   -0.3830 C   0  0  0  0  0  0  0  0  0  0  0  0
   -5.4260   14.2000    0.0080 C   0  0  0  0  0  0  0  0  0  0  0  0
   -7.4500   14.7330   -1.7500 C   0  0  0  0  0  0  0  0  0  0  0  0
   -5.1450   14.2280   -1.3350 C   0  0  0  0  0  0  0  0  0  0  0  0
   -8.3160   15.9660    4.9750 C   0  0  0  0  0  0  0  0  0  0  0  0
   -3.2950   15.2170    1.4100 C   0  0  0  0  0  0  0  0  0  0  0  0
   -6.1570   14.4980   -2.2210 C   0  0  0  0  0  0  0  0  0  0  0  0
   -9.0610   17.1130    4.6770 C   0  0  0  0  0  0  0  0  0  0  0  0
   -8.3740   15.5380    6.3110 C   0  0  0  0  0  0  0  0  0  0  0  0
   -2.1060   14.9020    1.7960 N   0  0  0  0  0  0  0  0  0  0  0  0
   -3.4490   15.7170   -0.2250 S   0  0  0  0  0  0  0  0  0  0  0  0
   -9.8120   17.8140    5.5700 N   0  0  0  0  0  0  0  0  0  0  0  0
   -9.1390   16.2430    7.2520 C   0  0  0  0  0  0  0  0  0  0  0  0
   -1.7790   15.5060   -0.4380 C   0  0  0  0  0  0  0  0  0  0  0  0
   -1.2390   15.0700    0.7450 C   0  0  0  0  0  0  0  0  0  0  0  0
    0.1520   14.7630    0.9920 C   0  0  0  0  0  0  0  0  0  0  0  0
   -9.8350   17.3670    6.8350 C   0  0  0  0  0  0  0  0  0  0  0  0
  1  2  1  0
  2  3  2  0
  1  4  1  0
  1  5  1  0
  2  6  1  0
  4  7  1  0
  4  8  2  0
  5  9  2  0
  5 10  1  0
  9 11  1  0
 10 12  2  0
  6 13  1  0
  7 14  1  0
 11 15  2  0
 12 15  1  0
 13 16  2  0
 13 17  1  0
 14 18  2  0
 14 19  1  0
 16 20  1  0
 17 21  2  0
 19 22  1  0
 18 23  1  0
 22 23  2  0
 23 24  1  0
 20 25  2  0
 21 25  1  0
M  END
