diamond-x0849_0_A-diamond-x0910_1_A
     RDKit          3D

 16 18  0  0  0  0  0  0  0  0999 V2000
   -3.5890   15.1010   -2.6450 Br  0  0  0  0  0  0  0  0  0  0  0  0
   -3.6490   14.3500   -0.8100 C   0  0  1  0  0  0  0  0  0  0  0  0
   -2.2820   14.5200   -0.2140 C   0  0  0  0  0  0  0  0  0  0  0  0
   -4.8170   14.9710    0.0350 C   0  0  1  0  0  0  0  0  0  0  0  0
   -2.1990   14.7760    1.1280 C   0  0  0  0  0  0  0  0  0  0  0  0
   -4.2620   15.7510    1.2650 C   0  0  0  0  0  0  0  0  0  0  0  0
   -1.0890   14.4380   -0.9420 C   0  0  0  0  0  0  0  0  0  0  0  0
   -5.7700   15.7560   -0.7690 N   0  0  0  0  0  0  0  0  0  0  0  0
   -5.6320   13.9030    0.6560 N   0  0  0  0  0  0  0  0  0  0  0  0
   -3.2990   14.8950    1.8990 N   0  0  0  0  0  0  0  0  0  0  0  0
   -1.0900   14.9430    1.7710 N   0  0  0  0  0  0  0  0  0  0  0  0
    0.1080   14.6290   -0.2690 C   0  0  0  0  0  0  0  0  0  0  0  0
   -6.9250   14.4750    0.7310 C   0  0  1  0  0  0  0  0  0  0  0  0
   -7.0770   15.1230   -0.5400 N   0  0  0  0  0  0  0  0  0  0  0  0
   -7.8580   13.4140    0.7660 N   0  0  0  0  0  0  0  0  0  0  0  0
    0.0240   14.8790    1.0800 C   0  0  0  0  0  0  0  0  0  0  0  0
  2  1  1  6
  2  3  1  0
  2  4  1  0
  3  5  2  0
  4  6  1  1
  3  7  1  0
  4  8  1  0
  4  9  1  0
  5 10  1  0
  6 10  1  0
  5 11  1  0
  7 12  2  0
  9 13  1  0
  8 14  1  0
 13 14  1  0
 13 15  1  6
 11 16  2  0
 12 16  1  0
M  END
