diamond-x0574_0_A-mac-x0179
     RDKit          3D

 29 32  0  0  0  0  0  0  0  0999 V2000
    0.4510   14.4320    0.9640 N   0  0  0  0  0  0  0  0  0  0  0  0
   -0.8810   14.8530    0.9430 C   0  0  2  0  0  0  0  0  0  0  0  0
   -1.6630   13.6970    0.7230 N   0  0  0  0  0  0  0  0  0  0  0  0
   -1.2490   15.9330   -0.4460 S   0  0  0  0  0  0  0  0  0  0  0  0
   -1.4050   13.2720   -0.7110 C   0  0  0  0  0  0  0  0  0  0  0  0
   -2.9100   14.4290    0.6850 C   0  0  1  0  0  0  0  0  0  0  0  0
   -2.7920   15.0080   -0.6890 C   0  0  1  0  0  0  0  0  0  0  0  0
    0.0420   12.8940   -1.1090 C   0  0  0  0  0  0  0  0  0  0  0  0
   -4.2660   13.8460    1.0230 C   0  0  0  0  0  0  0  0  0  0  0  0
   -3.9960   15.7160   -1.1490 C   0  0  0  0  0  0  0  0  0  0  0  0
    0.4530   13.4160   -2.3630 O   0  0  0  0  0  0  0  0  0  0  0  0
   -5.2950   14.9640    0.8810 C   0  0  1  0  0  0  0  0  0  0  0  0
   -5.1420   15.6930   -0.4460 C   0  0  0  0  0  0  0  0  0  0  0  0
   -6.6160   14.4290    0.9830 O   0  0  0  0  0  0  0  0  0  0  0  0
    0.6620   12.4420   -3.2770 C   0  0  0  0  0  0  0  0  0  0  0  0
   -7.0900   14.5010    2.3240 C   0  0  0  0  0  0  0  0  0  0  0  0
    0.8540   11.2640   -2.9910 O   0  0  0  0  0  0  0  0  0  0  0  0
    0.6240   12.9730   -4.6950 C   0  0  0  0  0  0  0  0  0  0  0  0
    0.0050   12.0320   -5.5980 N   0  0  0  0  0  0  0  0  0  0  0  0
    0.7300   11.4580   -6.5800 C   0  0  0  0  0  0  0  0  0  0  0  0
   -1.0660   11.2520   -5.2630 C   0  0  0  0  0  0  0  0  0  0  0  0
    1.8350   11.7580   -6.9390 O   0  0  0  0  0  0  0  0  0  0  0  0
   -1.8080   11.3440   -4.3050 O   0  0  0  0  0  0  0  0  0  0  0  0
   -0.0690   10.3660   -7.1250 C   0  0  0  0  0  0  0  0  0  0  0  0
   -1.1780   10.2350   -6.3100 C   0  0  0  0  0  0  0  0  0  0  0  0
    0.1390    9.5570   -8.2200 C   0  0  0  0  0  0  0  0  0  0  0  0
   -2.1480    9.2790   -6.5420 C   0  0  0  0  0  0  0  0  0  0  0  0
   -0.8290    8.5810   -8.4790 C   0  0  0  0  0  0  0  0  0  0  0  0
   -1.9620    8.4420   -7.6480 C   0  0  0  0  0  0  0  0  0  0  0  0
  2  1  1  6
  2  3  1  0
  2  4  1  0
  3  5  1  0
  3  6  1  0
  4  7  1  0
  6  7  1  0
  5  8  1  0
  6  9  1  6
  7 10  1  1
  8 11  1  0
  9 12  1  0
 10 13  2  0
 12 13  1  0
 12 14  1  6
 11 15  1  0
 14 16  1  0
 15 17  2  0
 15 18  1  0
 18 19  1  0
 19 20  1  0
 19 21  1  0
 20 22  2  0
 21 23  2  0
 20 24  1  0
 21 25  1  0
 24 25  2  0
 24 26  1  0
 25 27  1  0
 26 28  2  0
 27 29  2  0
 28 29  1  0
M  END
