diamond-x0631_0_A-mac-x0522
     RDKit          3D

 22 24  0  0  0  0  0  0  0  0999 V2000
   -2.5730    9.2630   -7.4190 C   0  0  0  0  0  0  0  0  0  0  0  0
   -1.3430    8.3700   -7.4850 C   0  0  0  0  0  0  0  0  0  0  0  0
   -0.1110    8.9170   -6.7540 C   0  0  0  0  0  0  0  0  0  0  0  0
    0.6830    9.9240   -7.5090 N   0  0  0  0  0  0  0  0  0  0  0  0
   -0.0690   11.1190   -7.6850 N   0  0  0  0  0  0  0  0  0  0  0  0
    1.0500    9.4720   -8.8250 N   0  0  0  0  0  0  0  0  0  0  0  0
    0.0210   11.4890   -9.0930 N   0  0  0  0  0  0  0  0  0  0  0  0
    1.0570   10.6470   -9.6550 C   0  0  2  0  0  0  0  0  0  0  0  0
    0.8830   10.1930  -11.0090 N   0  0  0  0  0  0  0  0  0  0  0  0
    2.1290    9.5750  -11.5230 C   0  0  1  0  0  0  0  0  0  0  0  0
    2.0730    8.1350  -11.5710 O   0  0  0  0  0  0  0  0  0  0  0  0
    2.5430   10.0330  -12.9590 C   0  0  2  0  0  0  0  0  0  0  0  0
    2.9910    7.5770  -10.6560 N   0  0  0  0  0  0  0  0  0  0  0  0
    3.8740    9.6090  -13.3020 O   0  0  0  0  0  0  0  0  0  0  0  0
    2.5320   11.5260  -13.2480 C   0  0  0  0  0  0  0  0  0  0  0  0
    3.4670   11.6670  -14.4300 C   0  0  0  0  0  0  0  0  0  0  0  0
    4.2860   10.3880  -14.4290 C   0  0  0  0  0  0  0  0  0  0  0  0
    2.5320    6.9340   -9.5620 C   0  0  0  0  0  0  0  0  0  0  0  0
    3.2450    6.0890   -8.8370 N   0  0  0  0  0  0  0  0  0  0  0  0
    0.9250    7.1510   -8.9900 S   0  0  0  0  0  0  0  0  0  0  0  0
    1.1970    6.0710   -7.7070 C   0  0  0  0  0  0  0  0  0  0  0  0
    2.4740    5.6060   -7.7800 C   0  0  0  0  0  0  0  0  0  0  0  0
  1  2  1  0
  2  3  1  0
  3  4  1  0
  4  5  1  0
  4  6  1  0
  5  7  1  0
  6  8  1  0
  7  8  1  0
  8  9  1  6
 10  9  1  6
 10 11  1  0
 10 12  1  0
 11 13  1  0
 12 14  1  0
 12 15  1  1
 15 16  1  0
 14 17  1  0
 16 17  1  0
 13 18  1  0
 18 19  2  0
 18 20  1  0
 20 21  1  0
 19 22  1  0
 21 22  2  0
M  END
