diamond-x0574_0_A-diamond-x0465_0_A
     RDKit          3D

 27 29  0  0  0  0  0  0  0  0999 V2000
    0.0480   14.2630    2.0140 N   0  0  0  0  0  0  0  0  0  0  0  0
   -0.3940   14.2100    0.6600 C   0  0  1  0  0  0  0  0  0  0  0  0
   -1.6470   13.5010    0.5860 N   0  0  0  0  0  0  0  0  0  0  0  0
   -0.8030   15.8170   -0.0850 S   0  0  0  0  0  0  0  0  0  0  0  0
   -1.8150   13.2480   -0.8800 C   0  0  0  0  0  0  0  0  0  0  0  0
   -2.6000   14.5430    0.9630 C   0  0  1  0  0  0  0  0  0  0  0  0
   -2.4270   15.1240   -0.4150 C   0  0  1  0  0  0  0  0  0  0  0  0
   -0.5400   13.5070   -1.7390 C   0  0  0  0  0  0  0  0  0  0  0  0
   -4.0580   14.3260    1.4690 C   0  0  0  0  0  0  0  0  0  0  0  0
   -3.5550   15.8360   -1.0110 C   0  0  0  0  0  0  0  0  0  0  0  0
    0.1720   12.2470   -1.8860 N   0  0  0  0  0  0  0  0  0  0  0  0
   -5.1380   14.4880    0.3610 C   0  0  2  0  0  0  0  0  0  0  0  0
   -4.8060   15.5440   -0.6540 C   0  0  0  0  0  0  0  0  0  0  0  0
   -6.4290   14.8650    0.8650 O   0  0  0  0  0  0  0  0  0  0  0  0
    0.6330   11.8900   -3.0430 C   0  0  0  0  0  0  0  0  0  0  0  0
   -6.6660   14.5610    2.2310 C   0  0  0  0  0  0  0  0  0  0  0  0
    0.5310   12.7070   -4.3520 C   0  0  1  0  0  0  0  0  0  0  0  0
    1.2540   10.7240   -3.1850 O   0  0  0  0  0  0  0  0  0  0  0  0
    1.8420   13.4710   -4.5530 C   0  0  0  0  0  0  0  0  0  0  0  0
    0.4030   11.7920   -5.4630 O   0  0  0  0  0  0  0  0  0  0  0  0
   -0.7490   11.0940   -5.7350 C   0  0  0  0  0  0  0  0  0  0  0  0
   -1.0290   10.3650   -6.8980 C   0  0  0  0  0  0  0  0  0  0  0  0
   -1.7220   11.1200   -4.7310 C   0  0  0  0  0  0  0  0  0  0  0  0
   -0.1450   10.2870   -7.9060 F   0  0  0  0  0  0  0  0  0  0  0  0
   -2.2260    9.6770   -7.0570 C   0  0  0  0  0  0  0  0  0  0  0  0
   -2.9310   10.4310   -4.8870 C   0  0  0  0  0  0  0  0  0  0  0  0
   -3.1800    9.7090   -6.0500 C   0  0  0  0  0  0  0  0  0  0  0  0
  2  1  1  1
  2  3  1  0
  2  4  1  0
  3  5  1  0
  3  6  1  0
  4  7  1  0
  6  7  1  0
  5  8  1  0
  6  9  1  6
  7 10  1  1
  8 11  1  0
  9 12  1  0
 10 13  2  0
 12 13  1  0
 12 14  1  1
 11 15  2  3
 14 16  1  0
 15 17  1  0
 15 18  1  0
 17 19  1  6
 17 20  1  0
 20 21  1  0
 21 22  2  0
 21 23  1  0
 22 24  1  0
 22 25  1  0
 23 26  2  0
 25 27  2  0
 26 27  1  0
M  END
