diamond-x0950_0_A-mac-x0305
     RDKit          3D

 15 15  0  0  0  0  0  0  0  0999 V2000
    2.5950   12.9100   -3.7240 C   0  0  0  0  0  0  0  0  0  0  0  0
    1.0790   12.6960   -3.7400 C   0  0  1  0  0  0  0  0  0  0  0  0
    0.7670   12.0310   -4.9720 O   0  0  0  0  0  0  0  0  0  0  0  0
    0.5570   11.8960   -2.5110 C   0  0  0  0  0  0  0  0  0  0  0  0
    0.5430   10.6550   -2.5170 O   0  0  0  0  0  0  0  0  0  0  0  0
    0.1270   12.6910   -1.4620 O   0  0  0  0  0  0  0  0  0  0  0  0
   -0.2030   14.0010   -1.7140 C   0  0  0  0  0  0  0  0  0  0  0  0
    0.4500   14.8050   -2.3590 O   0  0  0  0  0  0  0  0  0  0  0  0
   -1.5230   14.4650   -1.1270 C   0  0  0  0  0  0  0  0  0  0  0  0
   -1.7320   14.6440    0.2630 C   0  0  0  0  0  0  0  0  0  0  0  0
   -2.5110   14.7180   -2.0450 N   0  0  0  0  0  0  0  0  0  0  0  0
   -0.8140   14.4210    1.2560 O   0  0  0  0  0  0  0  0  0  0  0  0
   -2.9870   15.0940    0.6880 C   0  0  0  0  0  0  0  0  0  0  0  0
   -3.7070   15.1540   -1.5830 C   0  0  0  0  0  0  0  0  0  0  0  0
   -3.9900   15.3560   -0.2420 C   0  0  0  0  0  0  0  0  0  0  0  0
  2  1  1  1
  2  3  1  0
  2  4  1  0
  4  5  2  0
  4  6  1  0
  6  7  1  0
  7  8  2  0
  7  9  1  0
  9 10  2  0
  9 11  1  0
 10 12  1  0
 10 13  1  0
 11 14  2  0
 13 15  2  0
 14 15  1  0
M  END
