diamond-x0587_0_A-mac-x0412
     RDKit          3D

 17 18  0  0  0  0  0  0  0  0999 V2000
   -7.4890   14.9060    4.0520 N   0  0  0  0  0  0  0  0  0  0  0  0
   -8.0450   14.8830    2.8230 C   0  0  0  0  0  0  0  0  0  0  0  0
   -9.2660   14.9400    2.6830 O   0  0  0  0  0  0  0  0  0  0  0  0
   -7.1360   14.8100    1.6470 C   0  0  0  0  0  0  0  0  0  0  0  0
   -7.7310   14.5610    0.3120 C   0  0  0  0  0  0  0  0  0  0  0  0
   -5.7770   14.9810    1.6450 C   0  0  0  0  0  0  0  0  0  0  0  0
   -7.1530   14.4620   -0.8310 N   0  0  0  0  0  0  0  0  0  0  0  0
   -5.0010   14.9470    0.4730 N   0  0  0  0  0  0  0  0  0  0  0  0
   -5.6820   14.6140   -0.8010 C   0  0  1  0  0  0  0  0  0  0  0  0
   -3.6240   14.8330    0.3150 C   0  0  0  0  0  0  0  0  0  0  0  0
   -4.9350   13.3860   -1.3930 C   0  0  0  0  0  0  0  0  0  0  0  0
   -3.0540   15.1800   -0.8700 C   0  0  0  0  0  0  0  0  0  0  0  0
   -5.2060   15.4800   -1.8950 C   0  0  0  0  0  0  0  0  0  0  0  0
   -3.8790   13.0160   -0.6350 F   0  0  0  0  0  0  0  0  0  0  0  0
   -4.4010   13.6650   -2.6040 F   0  0  0  0  0  0  0  0  0  0  0  0
   -5.7570   12.3760   -1.6260 F   0  0  0  0  0  0  0  0  0  0  0  0
   -3.8970   15.7160   -1.9340 C   0  0  0  0  0  0  0  0  0  0  0  0
  1  2  1  0
  2  3  2  0
  2  4  1  0
  4  5  1  0
  4  6  2  0
  5  7  2  0
  6  8  1  0
  9  7  1  0
  8  9  1  0
  8 10  1  0
  9 11  1  6
 10 12  2  0
  9 13  1  0
 11 14  1  0
 11 15  1  0
 11 16  1  0
 12 17  1  0
 13 17  2  0
M  END
