diamond-x0864_0_A-mac-x0178
     RDKit          3D

 22 23  0  0  0  0  0  0  0  0999 V2000
    1.3880   12.0300   -6.7340 O   0  0  0  0  0  0  0  0  0  0  0  0
    0.4200   11.3980   -6.3310 C   0  0  0  0  0  0  0  0  0  0  0  0
   -0.2130   11.6650   -5.1170 N   0  0  0  0  0  0  0  0  0  0  0  0
   -0.1070   10.2670   -7.1230 C   0  0  0  0  0  0  0  0  0  0  0  0
    0.7020   11.6560   -3.9620 C   0  0  0  0  0  0  0  0  0  0  0  0
   -1.4850   11.1700   -4.8840 C   0  0  0  0  0  0  0  0  0  0  0  0
   -1.2770    9.7150   -6.7890 C   0  0  0  0  0  0  0  0  0  0  0  0
    0.4280   12.6220   -2.8080 C   0  0  0  0  0  0  0  0  0  0  0  0
   -2.0040    8.2770   -7.7260 Br  0  0  0  0  0  0  0  0  0  0  0  0
   -2.0230   10.2320   -5.6690 C   0  0  0  0  0  0  0  0  0  0  0  0
   -0.4440   12.0710   -1.8320 O   0  0  0  0  0  0  0  0  0  0  0  0
    1.6340   12.9360   -2.1410 O   0  0  0  0  0  0  0  0  0  0  0  0
   -0.1160   13.8710   -3.4960 C   0  0  0  0  0  0  0  0  0  0  0  0
    0.6590   15.0490   -3.5560 C   0  0  0  0  0  0  0  0  0  0  0  0
   -1.3810   13.8710   -4.1020 C   0  0  0  0  0  0  0  0  0  0  0  0
    0.1790   16.1890   -4.2090 C   0  0  0  0  0  0  0  0  0  0  0  0
   -1.8670   15.0030   -4.7570 C   0  0  0  0  0  0  0  0  0  0  0  0
   -1.0850   16.1540   -4.8100 C   0  0  0  0  0  0  0  0  0  0  0  0
   -1.6950   17.5900   -5.6540 S   0  0  0  0  0  0  0  0  0  0  0  0
   -0.3020   18.1800   -6.3850 N   0  0  0  0  0  0  0  0  0  0  0  0
   -2.5480   17.1650   -6.7390 O   0  0  0  0  0  0  0  0  0  0  0  0
   -2.1190   18.5710   -4.7000 O   0  0  0  0  0  0  0  0  0  0  0  0
  1  2  2  0
  2  3  1  0
  2  4  1  0
  3  5  1  0
  3  6  1  0
  4  7  2  0
  5  8  1  0
  7  9  1  0
  6 10  2  0
  7 10  1  0
  8 11  1  0
  8 12  1  0
  8 13  1  0
 13 14  2  0
 13 15  1  0
 14 16  1  0
 15 17  2  0
 16 18  2  0
 17 18  1  0
 18 19  1  0
 19 20  1  0
 19 21  2  0
 19 22  2  0
M  END
