diamond-x1015_0_A-mac-x0213
     RDKit          3D

 26 30  0  0  0  0  0  0  0  0999 V2000
   -2.8510   13.3080   -3.3730 C   0  0  0  0  0  0  0  0  0  0  0  0
   -2.4040   12.3700   -2.2450 C   0  0  2  0  0  0  0  0  0  0  0  0
   -0.9980   12.5320   -2.0500 N   0  0  0  0  0  0  0  0  0  0  0  0
   -2.4170   10.8660   -2.6450 C   0  0  0  0  0  0  0  0  0  0  0  0
   -1.0790   10.6340   -3.2320 N   0  0  0  0  0  0  0  0  0  0  0  0
   -0.3170   11.6910   -2.9110 C   0  0  0  0  0  0  0  0  0  0  0  0
   -0.3190   13.3660   -1.1780 C   0  0  0  0  0  0  0  0  0  0  0  0
    0.8150   11.9860   -3.3140 N   0  0  0  0  0  0  0  0  0  0  0  0
    0.7890   13.8870   -1.5530 N   0  0  0  0  0  0  0  0  0  0  0  0
   -1.1300   10.3670   -4.6050 C   0  0  0  0  0  0  0  0  0  0  0  0
    0.8470   13.3340   -2.8820 C   0  0  2  0  0  0  0  0  0  0  0  0
   -0.3170   11.0080   -5.5820 C   0  0  0  0  0  0  0  0  0  0  0  0
   -2.0290    9.4240   -5.0660 C   0  0  0  0  0  0  0  0  0  0  0  0
   -0.4210   10.6930   -6.9490 C   0  0  0  0  0  0  0  0  0  0  0  0
   -2.1410    9.1050   -6.4110 C   0  0  0  0  0  0  0  0  0  0  0  0
    0.7060   14.1970   -4.1160 C   0  0  0  0  0  0  0  0  0  0  0  0
   -1.3420    9.7330   -7.3450 C   0  0  0  0  0  0  0  0  0  0  0  0
   -0.8040   14.3650   -4.4170 C   0  0  0  0  0  0  0  0  0  0  0  0
    1.3370   15.5660   -4.0330 C   0  0  0  0  0  0  0  0  0  0  0  0
   -1.5210    9.2960   -8.9940 Cl  0  0  0  0  0  0  0  0  0  0  0  0
   -0.9170   15.7820   -4.8390 C   0  0  0  0  0  0  0  0  0  0  0  0
    0.2870   16.4510   -4.6340 C   0  0  0  0  0  0  0  0  0  0  0  0
   -2.0260   16.4250   -5.3740 C   0  0  0  0  0  0  0  0  0  0  0  0
    0.4230   17.7750   -4.9660 C   0  0  0  0  0  0  0  0  0  0  0  0
   -1.8930   17.7670   -5.7130 C   0  0  0  0  0  0  0  0  0  0  0  0
   -0.6800   18.4340   -5.5120 C   0  0  0  0  0  0  0  0  0  0  0  0
  2  1  1  6
  2  3  1  0
  2  4  1  0
  4  5  1  0
  3  6  1  0
  5  6  1  0
  3  7  1  0
  6  8  2  0
  7  9  2  0
  5 10  1  0
  8 11  1  0
  9 11  1  0
 10 12  2  0
 10 13  1  0
 12 14  1  0
 13 15  2  0
 11 16  1  6
 14 17  2  0
 15 17  1  0
 16 18  1  0
 16 19  1  0
 17 20  1  0
 18 21  1  0
 19 22  1  0
 21 22  2  0
 21 23  1  0
 22 24  1  0
 23 25  2  0
 24 26  2  0
 25 26  1  0
M  END
