diamond-x1015_0_A-diamond-x0900_0_A
     RDKit          3D

 24 26  0  0  0  0  0  0  0  0999 V2000
   -0.6700   14.4230   -4.7410 C   0  0  0  0  0  0  0  0  0  0  0  0
   -0.7360   13.3910   -3.6200 C   0  0  1  0  0  0  0  0  0  0  0  0
   -0.1160   12.1240   -3.9460 N   0  0  0  0  0  0  0  0  0  0  0  0
    0.1820   13.7630   -2.4700 C   0  0  0  0  0  0  0  0  0  0  0  0
    0.3680   14.8680   -1.8820 N   0  0  0  0  0  0  0  0  0  0  0  0
    0.3570   11.5990   -2.7350 C   0  0  0  0  0  0  0  0  0  0  0  0
    0.8610   12.6690   -2.0670 N   0  0  0  0  0  0  0  0  0  0  0  0
   -0.4980   11.3620   -5.0730 C   0  0  0  0  0  0  0  0  0  0  0  0
    0.3410   10.4450   -2.3140 O   0  0  0  0  0  0  0  0  0  0  0  0
   -0.3750   16.0330   -2.2940 C   0  0  0  0  0  0  0  0  0  0  0  0
    0.0630   11.5760   -6.3380 C   0  0  0  0  0  0  0  0  0  0  0  0
   -1.4650   10.3560   -4.9430 C   0  0  0  0  0  0  0  0  0  0  0  0
   -1.8580   15.6880   -2.1440 C   0  0  0  0  0  0  0  0  0  0  0  0
   -0.3300   10.8090   -7.4400 C   0  0  0  0  0  0  0  0  0  0  0  0
   -1.8620    9.5860   -6.0370 C   0  0  0  0  0  0  0  0  0  0  0  0
   -2.3870   15.6530   -0.7010 C   0  0  0  0  0  0  0  0  0  0  0  0
   -1.2910    9.8160   -7.2820 C   0  0  0  0  0  0  0  0  0  0  0  0
   -1.7800    8.8660   -8.6260 Cl  0  0  0  0  0  0  0  0  0  0  0  0
   -3.5890   14.8240   -0.2820 C   0  0  2  0  0  0  0  0  0  0  0  0
   -4.7740   15.0050   -1.0690 N   0  0  0  0  0  0  0  0  0  0  0  0
   -4.0600   15.1240    1.1380 C   0  0  0  0  0  0  0  0  0  0  0  0
   -5.9130   14.9110   -0.2980 C   0  0  0  0  0  0  0  0  0  0  0  0
   -5.4940   14.6170    1.1220 C   0  0  0  0  0  0  0  0  0  0  0  0
   -7.0570   15.0420   -0.6990 O   0  0  0  0  0  0  0  0  0  0  0  0
  2  1  1  6
  2  3  1  0
  2  4  1  0
  4  5  2  3
  3  6  1  0
  4  7  1  0
  6  7  1  0
  3  8  1  0
  6  9  2  0
  5 10  1  0
  8 11  2  0
  8 12  1  0
 10 13  1  0
 11 14  1  0
 12 15  2  0
 13 16  1  0
 14 17  2  0
 15 17  1  0
 17 18  1  0
 19 16  1  6
 19 20  1  0
 19 21  1  0
 20 22  1  0
 21 23  1  0
 22 23  1  0
 22 24  2  0
M  END
