diamond-x0142_0_A-diamond-x0299_0_A
     RDKit          3D

 25 27  0  0  0  0  0  0  0  0999 V2000
   15.4430    6.9130   12.8830 N   0  0  0  0  0  0  0  0  0  0  0  0
   14.4080    6.0210   12.3450 C   0  0  0  0  0  0  0  0  0  0  0  0
   15.0060    4.9290   11.5470 N   0  0  0  0  0  0  0  0  0  0  0  0
   16.0180    6.5710   14.0940 C   0  0  0  0  0  0  0  0  0  0  0  0
   15.2660    8.3460   12.9400 C   0  0  0  0  0  0  0  0  0  0  0  0
   17.2230    6.4730   14.2750 O   0  0  0  0  0  0  0  0  0  0  0  0
   15.0370    6.3570   15.2540 C   0  0  0  0  0  0  0  0  0  0  0  0
   14.5890    8.8750   14.0420 C   0  0  0  0  0  0  0  0  0  0  0  0
   15.7540    9.2570   11.9870 C   0  0  0  0  0  0  0  0  0  0  0  0
   15.1500    7.3580   16.4120 C   0  0  0  0  0  0  0  0  0  0  0  0
   14.4180   10.2430   14.2070 C   0  0  0  0  0  0  0  0  0  0  0  0
   15.5800   10.6450   12.1540 C   0  0  0  0  0  0  0  0  0  0  0  0
   14.4980    5.0560   10.2110 C   0  0  1  0  0  0  0  0  0  0  0  0
   16.1900    8.4490   16.2040 C   0  0  0  0  0  0  0  0  0  0  0  0
   14.9160   11.1340   13.2760 C   0  0  0  0  0  0  0  0  0  0  0  0
   15.4710    5.5110    9.2030 C   0  0  0  0  0  0  0  0  0  0  0  0
   13.8520    3.8250    9.6730 C   0  0  0  0  0  0  0  0  0  0  0  0
   13.7290    6.2600   10.4330 N   0  0  0  0  0  0  0  0  0  0  0  0
   14.6830   12.4370   13.5950 O   0  0  0  0  0  0  0  0  0  0  0  0
   16.3040    4.4790    8.5380 C   0  0  0  0  0  0  0  0  0  0  0  0
   14.5230    3.0380    8.8010 C   0  0  0  0  0  0  0  0  0  0  0  0
   14.3910    7.1780    9.8080 C   0  0  0  0  0  0  0  0  0  0  0  0
   15.4620    6.7990    9.0260 N   0  0  0  0  0  0  0  0  0  0  0  0
   14.9640   12.7940   14.9470 C   0  0  0  0  0  0  0  0  0  0  0  0
   15.8080    3.2820    8.3490 N   0  0  0  0  0  0  0  0  0  0  0  0
  1  2  1  0
  2  3  1  0
  1  4  1  0
  1  5  1  0
  4  6  2  0
  4  7  1  0
  5  8  2  0
  5  9  1  0
  7 10  1  0
  8 11  1  0
  9 12  2  0
 13  3  1  1
 10 14  1  0
 11 15  2  0
 12 15  1  0
 13 16  1  0
 13 17  1  0
 13 18  1  0
 15 19  1  0
 16 20  1  0
 17 21  2  0
 18 22  2  0
 16 23  2  0
 22 23  1  0
 19 24  1  0
 20 25  2  0
 21 25  1  0
M  END
