diamond-x0895_1_A-diamond-x0592_0_A
     RDKit          3D

 17 18  0  0  0  0  0  0  0  0999 V2000
   -2.8450   14.4420   -1.1970 N   0  0  0  0  0  0  0  0  0  0  0  0
   -3.7900   15.0290   -1.9890 C   0  0  0  0  0  0  0  0  0  0  0  0
   -3.5320   15.6030   -3.0350 O   0  0  0  0  0  0  0  0  0  0  0  0
   -2.7720   14.8670   -0.0140 C   0  0  0  0  0  0  0  0  0  0  0  0
   -1.8960   14.5040    1.1410 C   0  0  0  0  0  0  0  0  0  0  0  0
   -3.6080   15.8300    0.4150 N   0  0  0  0  0  0  0  0  0  0  0  0
   -5.1630   14.9240   -1.4810 C   0  0  0  0  0  0  0  0  0  0  0  0
   -2.9840   14.5670    2.0630 N   0  0  0  0  0  0  0  0  0  0  0  0
   -3.8420   15.5660    1.7040 C   0  0  0  0  0  0  0  0  0  0  0  0
   -6.3660   15.1730   -2.1820 C   0  0  0  0  0  0  0  0  0  0  0  0
   -5.6190   14.5590   -0.2090 C   0  0  0  0  0  0  0  0  0  0  0  0
   -4.6460   16.0810    2.4280 O   0  0  0  0  0  0  0  0  0  0  0  0
   -7.4620   14.9920   -1.4480 N   0  0  0  0  0  0  0  0  0  0  0  0
   -6.9880   14.6210   -0.2510 N   0  0  0  0  0  0  0  0  0  0  0  0
   -7.9500   14.3420    0.8080 C   0  0  0  0  0  0  0  0  0  0  0  0
   -7.3220   13.7380    2.0550 C   0  0  0  0  0  0  0  0  0  0  0  0
   -7.1410   14.7090    3.0770 O   0  0  0  0  0  0  0  0  0  0  0  0
  1  2  1  0
  2  3  2  0
  1  4  2  3
  4  5  1  0
  4  6  1  0
  2  7  1  0
  5  8  1  0
  6  9  1  0
  8  9  1  0
  7 10  1  0
  7 11  2  0
  9 12  2  0
 10 13  2  0
 11 14  1  0
 13 14  1  0
 14 15  1  0
 15 16  1  0
 16 17  1  0
M  END
