diamond-x0727_0_A-mac-x0348
     RDKit          3D

 24 26  0  0  0  0  0  0  0  0999 V2000
    0.2140   11.4270   -5.4790 N   0  0  0  0  0  0  0  0  0  0  0  0
    1.0340   12.2370   -4.5580 C   0  0  1  0  0  0  0  0  0  0  0  0
    0.8300   13.6940   -4.8700 C   0  0  0  0  0  0  0  0  0  0  0  0
    0.7400   11.1350   -6.7190 C   0  0  0  0  0  0  0  0  0  0  0  0
    1.6640   11.7640   -7.1610 O   0  0  0  0  0  0  0  0  0  0  0  0
    0.6450   11.8730   -3.1300 C   0  0  0  0  0  0  0  0  0  0  0  0
    0.1050    9.9620   -7.4650 C   0  0  0  0  0  0  0  0  0  0  0  0
   -0.0660   10.9320   -2.8110 O   0  0  0  0  0  0  0  0  0  0  0  0
    1.1620   12.6930   -2.1990 O   0  0  0  0  0  0  0  0  0  0  0  0
    0.6180   14.6820   -3.7240 C   0  0  0  0  0  0  0  0  0  0  0  0
   -1.2100   10.3550   -8.1400 C   0  0  0  0  0  0  0  0  0  0  0  0
   -0.2220    8.7720   -6.5470 C   0  0  0  0  0  0  0  0  0  0  0  0
   -2.1230    9.1440   -8.0030 C   0  0  0  0  0  0  0  0  0  0  0  0
   -1.7020    8.4720   -6.7070 C   0  0  0  0  0  0  0  0  0  0  0  0
    0.0460   15.7920   -4.4850 C   0  0  0  0  0  0  0  0  0  0  0  0
    0.6730   16.9270   -4.8970 C   0  0  0  0  0  0  0  0  0  0  0  0
   -1.2740   15.8370   -4.9520 C   0  0  0  0  0  0  0  0  0  0  0  0
   -0.2080   17.6550   -5.6250 N   0  0  0  0  0  0  0  0  0  0  0  0
   -1.4180   17.0160   -5.6700 C   0  0  0  0  0  0  0  0  0  0  0  0
   -2.3510   14.9510   -4.8240 C   0  0  0  0  0  0  0  0  0  0  0  0
    0.1220   18.8990   -6.2460 C   0  0  0  0  0  0  0  0  0  0  0  0
   -3.5520   15.2600   -5.4180 C   0  0  0  0  0  0  0  0  0  0  0  0
   -2.6240   17.3420   -6.2750 C   0  0  0  0  0  0  0  0  0  0  0  0
   -3.6760   16.4270   -6.1240 C   0  0  0  0  0  0  0  0  0  0  0  0
  1  2  1  0
  2  3  1  6
  1  4  1  0
  4  5  2  0
  2  6  1  0
  4  7  1  0
  6  8  2  0
  6  9  1  0
  3 10  1  0
  7 11  1  0
  7 12  1  0
 11 13  1  0
 12 14  1  0
 13 14  1  0
 10 15  1  0
 15 16  2  0
 15 17  1  0
 16 18  1  0
 17 19  2  0
 18 19  1  0
 17 20  1  0
 18 21  1  0
 20 22  2  0
 19 23  1  0
 22 24  1  0
 23 24  2  0
M  END
