diamond-x0253_0_A-mac-x0568
     RDKit          3D

 27 28  0  0  0  0  0  0  0  0999 V2000
    0.4390   11.9650   -5.4040 N   0  0  0  0  0  0  0  0  0  0  0  0
    1.0970   11.6480   -6.5550 C   0  0  0  0  0  0  0  0  0  0  0  0
    2.2040   12.1050   -6.7250 O   0  0  0  0  0  0  0  0  0  0  0  0
    1.2300   12.6570   -4.4060 C   0  0  0  0  0  0  0  0  0  0  0  0
    0.6880   12.6370   -2.9960 C   0  0  0  0  0  0  0  0  0  0  0  0
    0.4520   10.7180   -7.5400 C   0  0  0  0  0  0  0  0  0  0  0  0
    0.5870   13.6320   -2.1910 N   0  0  0  0  0  0  0  0  0  0  0  0
    0.2660   11.4270   -2.5720 O   0  0  0  0  0  0  0  0  0  0  0  0
   -0.5260    9.7930   -7.1620 C   0  0  0  0  0  0  0  0  0  0  0  0
    0.8360   10.7650   -8.8950 C   0  0  0  0  0  0  0  0  0  0  0  0
    0.0190   13.4720   -0.8630 C   0  0  0  0  0  0  0  0  0  0  0  0
   -1.1110    8.9380   -8.1060 C   0  0  0  0  0  0  0  0  0  0  0  0
    0.2600    9.9190   -9.8370 C   0  0  0  0  0  0  0  0  0  0  0  0
   -2.1630    7.9470   -7.6990 C   0  0  0  0  0  0  0  0  0  0  0  0
    0.0180   14.8160   -0.1530 C   0  0  0  0  0  0  0  0  0  0  0  0
   -0.7130    9.0070   -9.4460 C   0  0  0  0  0  0  0  0  0  0  0  0
   -1.0670   15.7410   -0.6740 C   0  0  0  0  0  0  0  0  0  0  0  0
   -2.3900   15.3150   -0.2590 N   0  0  0  0  0  0  0  0  0  0  0  0
   -3.4860   15.3400   -1.0930 C   0  0  0  0  0  0  0  0  0  0  0  0
   -3.4510   15.5450   -2.3000 O   0  0  0  0  0  0  0  0  0  0  0  0
   -4.7800   15.0860   -0.4340 C   0  0  0  0  0  0  0  0  0  0  0  0
   -5.9360   15.0610   -1.1990 C   0  0  0  0  0  0  0  0  0  0  0  0
   -4.8850   14.8680    0.9400 C   0  0  0  0  0  0  0  0  0  0  0  0
   -7.1720   14.8320   -0.6840 N   0  0  0  0  0  0  0  0  0  0  0  0
   -6.1500   14.6340    1.4840 C   0  0  0  0  0  0  0  0  0  0  0  0
   -7.2610   14.6230    0.6500 C   0  0  0  0  0  0  0  0  0  0  0  0
   -8.6180   14.3780    1.2330 C   0  0  0  0  0  0  0  0  0  0  0  0
  1  2  1  0
  2  3  2  0
  1  4  1  0
  4  5  1  0
  2  6  1  0
  5  7  2  3
  5  8  1  0
  6  9  2  0
  6 10  1  0
  7 11  1  0
  9 12  1  0
 10 13  2  0
 12 14  1  0
 11 15  1  0
 12 16  2  0
 13 16  1  0
 15 17  1  0
 17 18  1  0
 18 19  1  0
 19 20  2  0
 19 21  1  0
 21 22  2  0
 21 23  1  0
 22 24  1  0
 23 25  2  0
 24 26  2  0
 25 26  1  0
 26 27  1  0
M  END
