diamond-x0685_1_A-mac-x0387
     RDKit          3D

 25 27  0  0  0  0  0  0  0  0999 V2000
   -1.6220   10.5940   -4.9730 N   0  0  0  0  0  0  0  0  0  0  0  0
   -1.3040   11.9750   -4.6300 C   0  0  0  0  0  0  0  0  0  0  0  0
    0.1830   12.3090   -4.5980 C   0  0  0  0  0  0  0  0  0  0  0  0
   -1.4940   10.0760   -6.3430 C   0  0  0  0  0  0  0  0  0  0  0  0
   -0.2410    9.2920   -6.7070 C   0  0  0  0  0  0  0  0  0  0  0  0
   -1.7940   11.1020   -7.4470 C   0  0  0  0  0  0  0  0  0  0  0  0
    0.9880   12.0740   -3.0120 S   0  0  0  0  0  0  0  0  0  0  0  0
   -0.3190    8.4960   -7.9940 C   0  0  0  0  0  0  0  0  0  0  0  0
   -1.1270   10.7770   -8.7850 C   0  0  0  0  0  0  0  0  0  0  0  0
    2.5630   12.1220   -3.2900 O   0  0  0  0  0  0  0  0  0  0  0  0
    0.5080   10.6440   -2.4130 O   0  0  0  0  0  0  0  0  0  0  0  0
    0.6020   13.2830   -2.0730 O   0  0  0  0  0  0  0  0  0  0  0  0
   -1.0850    9.2710   -9.0620 C   0  0  0  0  0  0  0  0  0  0  0  0
    0.1530   14.4400   -2.7360 C   0  0  0  0  0  0  0  0  0  0  0  0
   -1.2100   14.7160   -2.2120 C   0  0  0  0  0  0  0  0  0  0  0  0
   -1.3570   14.6920   -0.8130 C   0  0  0  0  0  0  0  0  0  0  0  0
   -2.2970   14.9850   -3.0570 C   0  0  0  0  0  0  0  0  0  0  0  0
   -2.6220   14.9560   -0.2670 C   0  0  0  0  0  0  0  0  0  0  0  0
   -0.2910   14.4180    0.0650 C   0  0  0  0  0  0  0  0  0  0  0  0
   -3.5480   15.2430   -2.5110 C   0  0  0  0  0  0  0  0  0  0  0  0
   -2.7400   14.9370    1.1210 C   0  0  0  0  0  0  0  0  0  0  0  0
   -0.5210   14.4120    1.4200 C   0  0  0  0  0  0  0  0  0  0  0  0
   -3.7080   15.2310   -1.1280 C   0  0  0  0  0  0  0  0  0  0  0  0
   -3.9680   15.2200    1.7140 N   0  0  0  0  0  0  0  0  0  0  0  0
   -1.7240   14.6630    1.9580 N   0  0  0  0  0  0  0  0  0  0  0  0
  1  2  1  0
  2  3  1  0
  1  4  1  0
  4  5  1  0
  4  6  1  0
  3  7  1  0
  5  8  1  0
  6  9  1  0
  7 10  1  0
  7 11  1  0
  7 12  1  0
  8 13  1  0
  9 13  1  0
 12 14  1  0
 14 15  1  0
 15 16  1  0
 15 17  2  0
 16 18  2  0
 16 19  1  0
 17 20  1  0
 18 21  1  0
 19 22  2  0
 18 23  1  0
 20 23  2  0
 21 24  1  0
 21 25  2  0
 22 25  1  0
M  END
