diamond-x0950_1_A-diamond-x0524_0_A
     RDKit          3D

 24 25  0  0  0  0  0  0  0  0999 V2000
    0.8080   13.8560   -4.8650 C   0  0  0  0  0  0  0  0  0  0  0  0
    1.1470   12.4280   -4.4670 C   0  0  2  0  0  0  0  0  0  0  0  0
    0.2420   11.5210   -5.1180 O   0  0  0  0  0  0  0  0  0  0  0  0
    0.9380   12.2260   -2.9650 C   0  0  0  0  0  0  0  0  0  0  0  0
    0.1830   11.3910   -2.4920 O   0  0  0  0  0  0  0  0  0  0  0  0
    1.6710   13.0630   -2.1980 O   0  0  0  0  0  0  0  0  0  0  0  0
   -0.0570   11.8270   -6.4810 C   0  0  0  0  0  0  0  0  0  0  0  0
    0.0740   10.7010   -7.3850 N   0  0  0  0  0  0  0  0  0  0  0  0
   -0.6350    9.6200   -7.3420 C   0  0  0  0  0  0  0  0  0  0  0  0
   -0.4540    8.5710   -8.2060 N   0  0  0  0  0  0  0  0  0  0  0  0
   -1.7180    9.5160   -6.2770 C   0  0  0  0  0  0  0  0  0  0  0  0
    0.6020    8.5630   -9.1360 C   0  0  0  0  0  0  0  0  0  0  0  0
    1.7240    7.7480   -9.0150 C   0  0  0  0  0  0  0  0  0  0  0  0
    0.5180    9.4210  -10.2330 C   0  0  0  0  0  0  0  0  0  0  0  0
    2.7420    7.7930   -9.9740 C   0  0  0  0  0  0  0  0  0  0  0  0
    1.5310    9.4640  -11.1890 C   0  0  0  0  0  0  0  0  0  0  0  0
    2.6600    8.6520  -11.0770 C   0  0  0  0  0  0  0  0  0  0  0  0
    3.7000    8.6640  -12.0140 N   0  0  0  0  0  0  0  0  0  0  0  0
    4.0030    9.5210  -13.0830 C   0  0  0  0  0  0  0  0  0  0  0  0
    3.2380   10.6840  -13.2860 C   0  0  0  0  0  0  0  0  0  0  0  0
    5.0510    9.2660  -13.9660 C   0  0  0  0  0  0  0  0  0  0  0  0
    3.5180   11.5560  -14.3380 C   0  0  0  0  0  0  0  0  0  0  0  0
    5.3350   10.1350  -15.0200 C   0  0  0  0  0  0  0  0  0  0  0  0
    4.5680   11.2810  -15.2060 C   0  0  0  0  0  0  0  0  0  0  0  0
  2  1  1  6
  2  3  1  0
  2  4  1  0
  4  5  2  0
  4  6  1  0
  3  7  1  0
  7  8  1  0
  8  9  2  3
  9 10  1  0
  9 11  1  0
 10 12  1  0
 12 13  2  0
 12 14  1  0
 13 15  1  0
 14 16  2  0
 15 17  2  0
 16 17  1  0
 17 18  1  0
 18 19  1  0
 19 20  2  0
 19 21  1  0
 20 22  1  0
 21 23  2  0
 22 24  2  0
 23 24  1  0
M  END
