diamond-x0471_0_A-mac-x0180
     RDKit          3D

 23 25  0  0  0  0  0  0  0  0999 V2000
   -7.4610   14.6790    2.8620 N   0  0  0  0  0  0  0  0  0  0  0  0
   -8.5270   15.0600    3.6590 C   0  0  0  0  0  0  0  0  0  0  0  0
   -9.4190   15.8140    3.2740 O   0  0  0  0  0  0  0  0  0  0  0  0
   -7.6330   14.0440    1.5550 C   0  0  2  0  0  0  0  0  0  0  0  0
   -8.5080   14.4610    5.0670 C   0  0  0  0  0  0  0  0  0  0  0  0
   -6.5190   13.0680    1.3180 C   0  0  0  0  0  0  0  0  0  0  0  0
   -7.3730   14.7980    0.3080 C   0  0  0  0  0  0  0  0  0  0  0  0
   -9.8160   13.7290    5.3730 C   0  0  0  0  0  0  0  0  0  0  0  0
   -8.2460   15.5430    6.1090 C   0  0  0  0  0  0  0  0  0  0  0  0
   -6.7520   11.9510    0.9180 O   0  0  0  0  0  0  0  0  0  0  0  0
   -5.2460   13.5270    1.4110 N   0  0  0  0  0  0  0  0  0  0  0  0
   -6.0350   14.8290   -0.2600 C   0  0  0  0  0  0  0  0  0  0  0  0
   -8.3990   15.4480   -0.3220 C   0  0  0  0  0  0  0  0  0  0  0  0
   -8.2200   16.1090   -1.4480 N   0  0  0  0  0  0  0  0  0  0  0  0
   -5.8320   15.5010   -1.4250 C   0  0  0  0  0  0  0  0  0  0  0  0
   -4.9120   14.2000    0.2900 C   0  0  0  0  0  0  0  0  0  0  0  0
   -4.5440   15.5480   -2.0360 C   0  0  0  0  0  0  0  0  0  0  0  0
   -3.6090   14.2310   -0.2700 C   0  0  0  0  0  0  0  0  0  0  0  0
   -6.9640   16.0960   -1.9350 C   0  0  0  0  0  0  0  0  0  0  0  0
   -3.4200   14.9200   -1.4770 C   0  0  0  0  0  0  0  0  0  0  0  0
   -2.0540   14.9680   -2.1680 C   0  0  0  0  0  0  0  0  0  0  0  0
   -1.9330   15.0670   -3.3840 O   0  0  0  0  0  0  0  0  0  0  0  0
   -0.9740   14.9040   -1.3540 O   0  0  0  0  0  0  0  0  0  0  0  0
  1  2  1  0
  2  3  2  0
  4  1  1  1
  2  5  1  0
  4  6  1  0
  4  7  1  0
  5  8  1  0
  5  9  1  0
  6 10  2  0
  6 11  1  0
  7 12  2  0
  7 13  1  0
 13 14  2  0
 12 15  1  0
 11 16  1  0
 12 16  1  0
 15 17  1  0
 16 18  2  0
 14 19  1  0
 15 19  2  0
 17 20  2  0
 18 20  1  0
 20 21  1  0
 21 22  2  0
 21 23  1  0
M  END
