diamond-x0950_1_A-mac-x0302
     RDKit          3D

 18 19  0  0  0  0  0  0  0  0999 V2000
    0.7420   13.7300   -4.7230 C   0  0  0  0  0  0  0  0  0  0  0  0
    1.2670   12.3320   -4.5340 C   0  0  2  0  0  0  0  0  0  0  0  0
    0.7440   11.4940   -5.5510 O   0  0  0  0  0  0  0  0  0  0  0  0
    0.1580   13.9680   -3.3720 C   0  0  0  0  0  0  0  0  0  0  0  0
    0.7470   11.9510   -3.1420 C   0  0  0  0  0  0  0  0  0  0  0  0
    0.2120   13.0150   -2.5120 N   0  0  0  0  0  0  0  0  0  0  0  0
   -0.5010   15.2430   -3.0280 C   0  0  0  0  0  0  0  0  0  0  0  0
    0.7600   10.8280   -2.6670 O   0  0  0  0  0  0  0  0  0  0  0  0
   -1.5930   14.8460   -2.1590 N   0  0  0  0  0  0  0  0  0  0  0  0
   -2.9190   15.1310   -2.4130 C   0  0  0  0  0  0  0  0  0  0  0  0
   -3.3560   15.4050   -3.5230 O   0  0  0  0  0  0  0  0  0  0  0  0
   -3.8020   15.0830   -1.2250 C   0  0  0  0  0  0  0  0  0  0  0  0
   -5.1880   15.0480   -1.4060 C   0  0  0  0  0  0  0  0  0  0  0  0
   -3.2610   15.0700    0.0670 C   0  0  0  0  0  0  0  0  0  0  0  0
   -6.0140   14.9940   -0.2910 C   0  0  0  0  0  0  0  0  0  0  0  0
   -4.0990   15.0190    1.1740 C   0  0  0  0  0  0  0  0  0  0  0  0
   -7.3700   14.9580   -0.4160 O   0  0  0  0  0  0  0  0  0  0  0  0
   -5.4770   14.9770    0.9950 C   0  0  0  0  0  0  0  0  0  0  0  0
  1  2  1  0
  2  3  1  6
  1  4  1  0
  2  5  1  0
  4  6  2  0
  5  6  1  0
  4  7  1  0
  5  8  2  0
  7  9  1  0
  9 10  1  0
 10 11  2  0
 10 12  1  0
 12 13  2  0
 12 14  1  0
 13 15  1  0
 14 16  2  0
 15 17  1  0
 15 18  2  0
 16 18  1  0
M  END
