diamond-x0591_0_A-diamond-x0837_0_A
     RDKit          3D

 21 22  0  0  0  0  0  0  0  0999 V2000
   -8.2140   14.0090   -1.1450 N   0  0  0  0  0  0  0  0  0  0  0  0
   -9.0100   13.9740    0.0730 C   0  0  0  0  0  0  0  0  0  0  0  0
   -6.9160   14.3170   -0.9340 C   0  0  0  0  0  0  0  0  0  0  0  0
   -6.5650   14.7370    0.1950 N   0  0  0  0  0  0  0  0  0  0  0  0
   -5.8120   14.2020   -1.9700 C   0  0  0  0  0  0  0  0  0  0  0  0
   -4.5800   13.5640   -1.6870 C   0  0  0  0  0  0  0  0  0  0  0  0
   -6.0090   14.7520   -3.2330 C   0  0  0  0  0  0  0  0  0  0  0  0
   -5.2630   14.9900    0.4430 C   0  0  0  0  0  0  0  0  0  0  0  0
   -3.5670   13.5010   -2.6660 C   0  0  0  0  0  0  0  0  0  0  0  0
   -5.0080   14.6890   -4.2050 C   0  0  0  0  0  0  0  0  0  0  0  0
   -4.8850   15.0460    1.7080 N   0  0  0  0  0  0  0  0  0  0  0  0
   -4.4220   15.1430   -0.6290 C   0  0  0  0  0  0  0  0  0  0  0  0
   -3.7930   14.0760   -3.9280 C   0  0  0  0  0  0  0  0  0  0  0  0
   -3.5890   15.2490    1.9240 C   0  0  0  0  0  0  0  0  0  0  0  0
   -3.0930   15.3460   -0.3740 C   0  0  0  0  0  0  0  0  0  0  0  0
   -2.5620   14.0510   -5.2190 S   0  0  0  0  0  0  0  0  0  0  0  0
   -1.7660   15.5400   -1.9480 I   0  0  0  0  0  0  0  0  0  0  0  0
   -2.6470   15.4030    0.9290 C   0  0  0  0  0  0  0  0  0  0  0  0
   -1.3570   15.0940   -4.6630 N   0  0  0  0  0  0  0  0  0  0  0  0
   -1.9460   12.7480   -5.2520 O   0  0  0  0  0  0  0  0  0  0  0  0
   -3.1460   14.6720   -6.3840 O   0  0  0  0  0  0  0  0  0  0  0  0
  1  2  1  0
  1  3  1  0
  3  4  2  3
  3  5  1  0
  5  6  2  0
  5  7  1  0
  4  8  1  0
  6  9  1  0
  7 10  2  0
  8 11  2  0
  8 12  1  0
  9 13  2  0
 10 13  1  0
 11 14  1  0
 12 15  2  0
 13 16  1  0
 15 17  1  0
 14 18  2  0
 15 18  1  0
 16 19  1  0
 16 20  2  0
 16 21  2  0
M  END
