diamond-x0438_0_A-diamond-x1012_0_A
     RDKit          3D

 28 30  0  0  0  0  0  0  0  0999 V2000
   -8.2350   15.6320    3.9430 C   0  0  0  0  0  0  0  0  0  0  0  0
   -9.4390   15.3670    2.6530 S   0  0  0  0  0  0  0  0  0  0  0  0
  -10.6870   14.9480    3.2700 O   0  0  0  0  0  0  0  0  0  0  0  0
   -8.8310   13.9830    1.7110 C   0  0  0  0  0  0  0  0  0  0  0  0
   -9.4450   16.5170    1.7730 O   0  0  0  0  0  0  0  0  0  0  0  0
   -7.5300   14.2920    1.0820 C   0  0  0  0  0  0  0  0  0  0  0  0
   -7.4000   14.5560   -0.2560 N   0  0  0  0  0  0  0  0  0  0  0  0
   -6.3680   14.3450    1.6910 N   0  0  0  0  0  0  0  0  0  0  0  0
   -5.4500   14.6420    0.7210 C   0  0  0  0  0  0  0  0  0  0  0  0
   -6.0830   14.7790   -0.5080 C   0  0  0  0  0  0  0  0  0  0  0  0
   -5.4240   15.0750   -1.6820 C   0  0  0  0  0  0  0  0  0  0  0  0
   -4.0680   14.8070    0.8130 C   0  0  0  0  0  0  0  0  0  0  0  0
   -4.0520   15.2330   -1.5930 C   0  0  0  0  0  0  0  0  0  0  0  0
   -3.3760   15.1020   -0.3600 C   0  0  0  0  0  0  0  0  0  0  0  0
   -3.2730   15.5500   -2.8220 C   0  0  0  0  0  0  0  0  0  0  0  0
   -3.6890   15.0820   -4.1920 C   0  0  0  0  0  0  0  0  0  0  0  0
   -2.3750   14.9750   -4.7000 N   0  0  0  0  0  0  0  0  0  0  0  0
   -1.4920   15.8910   -4.8580 C   0  0  0  0  0  0  0  0  0  0  0  0
   -1.6180   17.2320   -4.6450 N   0  0  0  0  0  0  0  0  0  0  0  0
   -0.2980   15.4900   -5.2540 N   0  0  0  0  0  0  0  0  0  0  0  0
   -0.3990   14.0880   -5.6070 C   0  0  0  0  0  0  0  0  0  0  0  0
    0.8730   15.7840   -4.4170 C   0  0  0  0  0  0  0  0  0  0  0  0
   -0.5640   13.2620   -4.3530 C   0  0  0  0  0  0  0  0  0  0  0  0
    1.0050   14.8320   -3.1970 C   0  0  0  0  0  0  0  0  0  0  0  0
    0.7020   13.3610   -3.5260 C   0  0  0  0  0  0  0  0  0  0  0  0
    0.5470   12.4680   -2.3040 C   0  0  0  0  0  0  0  0  0  0  0  0
    0.2450   11.1940   -2.6410 O   0  0  0  0  0  0  0  0  0  0  0  0
    0.6550   12.8090   -1.1410 O   0  0  0  0  0  0  0  0  0  0  0  0
  2  1  1  0
  2  3  2  0
  2  4  1  0
  2  5  2  0
  4  6  1  0
  6  7  1  0
  6  8  2  0
  8  9  1  0
  7 10  1  0
  9 10  2  0
 10 11  1  0
  9 12  1  0
 11 13  2  0
 12 14  2  0
 13 14  1  0
 13 15  1  0
 15 16  1  0
 16 17  1  0
 17 18  2  3
 18 19  1  0
 18 20  1  0
 20 21  1  0
 20 22  1  0
 21 23  1  0
 22 24  1  0
 23 25  1  0
 24 25  1  0
 25 26  1  0
 26 27  1  0
 26 28  2  0
M  END
