diamond-x1018_0_A-mac-x0453
     RDKit          3D

 13 14  0  0  0  0  0  0  0  0999 V2000
   -8.5530   14.5170    0.7040 Cl  0  0  0  0  0  0  0  0  0  0  0  0
   -6.9590   14.0260    0.2490 C   0  0  0  0  0  0  0  0  0  0  0  0
   -6.1470   13.2260    1.2070 C   0  0  0  0  0  0  0  0  0  0  0  0
   -6.5620   14.4000   -0.9280 N   0  0  0  0  0  0  0  0  0  0  0  0
   -5.3010   14.0190   -1.2960 N   0  0  0  0  0  0  0  0  0  0  0  0
   -4.8560   13.0630    0.9040 C   0  0  0  0  0  0  0  0  0  0  0  0
   -4.7290   14.8340   -2.2550 N   0  0  0  0  0  0  0  0  0  0  0  0
   -4.2670   13.6490   -0.3310 C   0  0  2  0  0  0  0  0  0  0  0  0
   -3.4930   14.8810   -0.2440 N   0  0  0  0  0  0  0  0  0  0  0  0
   -3.5490   15.3780   -1.6410 N   0  0  0  0  0  0  0  0  0  0  0  0
   -4.2190   15.8620    0.6000 C   0  0  0  0  0  0  0  0  0  0  0  0
   -4.5760   15.2950    1.9890 C   0  0  0  0  0  0  0  0  0  0  0  0
   -5.9810   14.9200    2.2030 N   0  0  0  0  0  0  0  0  0  0  0  0
  1  2  1  0
  2  3  1  0
  2  4  2  0
  4  5  1  0
  3  6  2  0
  5  7  1  0
  5  8  1  0
  8  6  1  1
  8  9  1  0
  7 10  1  0
  9 10  1  0
  9 11  1  0
 11 12  1  0
 12 13  1  0
M  END
