diamond-x0855_0_A-mac-x0231
     RDKit          3D

 21 23  0  0  0  0  0  0  0  0999 V2000
    1.8680   12.6380   -2.2130 O   0  0  0  0  0  0  0  0  0  0  0  0
    0.9580   11.8550   -2.8330 C   0  0  0  0  0  0  0  0  0  0  0  0
    0.1550   12.5880   -3.8440 C   0  0  2  0  0  0  0  0  0  0  0  0
    0.8470   10.6860   -2.5320 O   0  0  0  0  0  0  0  0  0  0  0  0
   -0.6350   11.6480   -4.6400 N   0  0  0  0  0  0  0  0  0  0  0  0
    0.9130   13.6540   -4.6550 C   0  0  1  0  0  0  0  0  0  0  0  0
   -0.2950   10.8760   -5.7280 C   0  0  0  0  0  0  0  0  0  0  0  0
   -1.9240   11.4910   -4.2760 N   0  0  0  0  0  0  0  0  0  0  0  0
   -0.1800   14.4270   -5.3640 C   0  0  2  0  0  0  0  0  0  0  0  0
    1.8100   14.6320   -3.9160 N   0  0  0  0  0  0  0  0  0  0  0  0
   -1.4350   10.1850   -6.0510 C   0  0  0  0  0  0  0  0  0  0  0  0
   -2.4060   10.5960   -5.1400 C   0  0  0  0  0  0  0  0  0  0  0  0
   -0.7000   15.5550   -4.4690 C   0  0  1  0  0  0  0  0  0  0  0  0
    1.6250   16.0240   -4.2040 N   0  0  0  0  0  0  0  0  0  0  0  0
   -1.2900   13.5280   -5.8790 C   0  0  0  0  0  0  0  0  0  0  0  0
   -1.7100    8.9400   -7.4120 Br  0  0  0  0  0  0  0  0  0  0  0  0
    0.3950   16.5930   -4.4610 C   0  0  0  0  0  0  0  0  0  0  0  0
   -2.0950   16.0290   -4.8090 C   0  0  0  0  0  0  0  0  0  0  0  0
   -2.5670   13.9220   -5.9060 C   0  0  0  0  0  0  0  0  0  0  0  0
    0.2400   17.7970   -4.6590 O   0  0  0  0  0  0  0  0  0  0  0  0
   -2.9530   15.2400   -5.4740 C   0  0  0  0  0  0  0  0  0  0  0  0
  1  2  1  0
  3  2  1  6
  2  4  2  0
  3  5  1  0
  3  6  1  0
  5  7  1  0
  5  8  1  0
  6  9  1  0
  6 10  1  1
  7 11  2  0
  8 12  2  0
 11 12  1  0
  9 13  1  0
 10 14  1  0
  9 15  1  1
 11 16  1  0
 13 17  1  0
 14 17  1  0
 13 18  1  6
 15 19  2  0
 17 20  2  0
 18 21  2  0
 19 21  1  0
M  END
