diamond-x1018_0_A-mac-x0321
     RDKit          3D

 14 15  0  0  0  0  0  0  0  0999 V2000
   -8.6590   14.4670    0.6770 Cl  0  0  0  0  0  0  0  0  0  0  0  0
   -6.9630   14.6350    0.4220 C   0  0  0  0  0  0  0  0  0  0  0  0
   -6.0780   14.7660    1.6210 C   0  0  0  0  0  0  0  0  0  0  0  0
   -6.5570   14.6450   -0.8250 N   0  0  0  0  0  0  0  0  0  0  0  0
   -5.2100   14.7900   -0.9580 N   0  0  0  0  0  0  0  0  0  0  0  0
   -4.7740   14.6340    1.4130 C   0  0  0  0  0  0  0  0  0  0  0  0
   -4.5480   14.7190   -2.2000 N   0  0  0  0  0  0  0  0  0  0  0  0
   -4.2800   14.3530    0.0580 C   0  0  2  0  0  0  0  0  0  0  0  0
   -3.1330   15.0700   -0.3840 N   0  0  0  0  0  0  0  0  0  0  0  0
   -3.1870   14.6410   -1.7420 N   0  0  0  0  0  0  0  0  0  0  0  0
   -1.8200   14.5680    0.6580 Cl  0  0  0  0  0  0  0  0  0  0  0  0
   -2.0770   14.6700   -2.6050 C   0  0  0  0  0  0  0  0  0  0  0  0
   -0.8960   14.6670   -1.9410 O   0  0  0  0  0  0  0  0  0  0  0  0
   -2.1100   14.6950   -3.8270 O   0  0  0  0  0  0  0  0  0  0  0  0
  1  2  1  0
  2  3  1  0
  2  4  2  0
  4  5  1  0
  3  6  2  0
  5  7  1  0
  5  8  1  0
  8  6  1  1
  8  9  1  0
  7 10  1  0
  9 10  1  0
  9 11  1  0
 10 12  1  0
 12 13  1  0
 12 14  2  0
M  END
