diamond-x0290_0_A-mac-x0415
     RDKit          3D

 28 30  0  0  0  0  0  0  0  0999 V2000
   -7.7300   13.8040    0.9540 N   0  0  0  0  0  0  0  0  0  0  0  0
   -8.5910   14.9610    0.7430 C   0  0  0  0  0  0  0  0  0  0  0  0
   -6.5100   14.1290    1.7170 C   0  0  0  0  0  0  0  0  0  0  0  0
   -5.3350   14.5090    0.7940 C   0  0  0  0  0  0  0  0  0  0  0  0
   -5.4890   14.5830   -0.4190 O   0  0  0  0  0  0  0  0  0  0  0  0
   -4.1580   14.7310    1.4800 N   0  0  0  0  0  0  0  0  0  0  0  0
   -2.8810   14.6710    0.9290 C   0  0  0  0  0  0  0  0  0  0  0  0
   -1.8550   14.5760    1.8170 N   0  0  0  0  0  0  0  0  0  0  0  0
   -2.6700   14.7020   -0.4250 C   0  0  0  0  0  0  0  0  0  0  0  0
   -0.5980   14.5130    1.3200 C   0  0  0  0  0  0  0  0  0  0  0  0
   -1.3720   14.6360   -0.9190 C   0  0  0  0  0  0  0  0  0  0  0  0
   -1.1610   14.6630   -2.3890 C   0  0  0  0  0  0  0  0  0  0  0  0
   -0.3070   14.5390   -0.0250 C   0  0  0  0  0  0  0  0  0  0  0  0
   -1.6110   13.3490   -2.9730 C   0  0  0  0  0  0  0  0  0  0  0  0
   -0.6830   12.3250   -2.5880 N   0  0  0  0  0  0  0  0  0  0  0  0
    0.3480   12.0730   -3.2560 C   0  0  0  0  0  0  0  0  0  0  0  0
    1.0150   11.0670   -2.7400 O   0  0  0  0  0  0  0  0  0  0  0  0
    0.9080   12.7110   -4.5350 C   0  0  0  0  0  0  0  0  0  0  0  0
    0.7090   14.1780   -4.5110 C   0  0  0  0  0  0  0  0  0  0  0  0
    1.7590   15.1760   -4.2960 C   0  0  0  0  0  0  0  0  0  0  0  0
   -0.3400   14.9780   -4.6910 C   0  0  0  0  0  0  0  0  0  0  0  0
    1.4330   16.4320   -4.3190 N   0  0  0  0  0  0  0  0  0  0  0  0
    0.0060   16.3990   -4.4600 C   0  0  1  0  0  0  0  0  0  0  0  0
   -1.7020   14.6850   -5.0160 C   0  0  0  0  0  0  0  0  0  0  0  0
   -0.7300   17.3800   -5.3000 C   0  0  0  0  0  0  0  0  0  0  0  0
   -2.4620   15.6570   -5.5450 C   0  0  0  0  0  0  0  0  0  0  0  0
   -4.2180   15.2600   -6.0110 Br  0  0  0  0  0  0  0  0  0  0  0  0
   -1.9290   17.0110   -5.7980 C   0  0  0  0  0  0  0  0  0  0  0  0
  1  2  1  0
  1  3  1  0
  3  4  1  0
  4  5  2  0
  4  6  1  0
  6  7  1  0
  7  8  2  0
  7  9  1  0
  8 10  1  0
  9 11  2  0
 11 12  1  0
 10 13  2  0
 11 13  1  0
 12 14  1  0
 14 15  1  0
 15 16  2  3
 16 17  1  0
 16 18  1  0
 18 19  1  0
 19 20  1  0
 19 21  2  0
 20 22  2  0
 21 23  1  0
 22 23  1  0
 21 24  1  0
 23 25  1  6
 24 26  2  0
 26 27  1  0
 25 28  2  0
 26 28  1  0
M  END
