diamond-x0685_1_A-mac-x0412
     RDKit          3D

 26 28  0  0  0  0  0  0  0  0999 V2000
   -1.0640   10.5520   -4.8350 N   0  0  0  0  0  0  0  0  0  0  0  0
   -1.3830   11.9700   -4.6060 C   0  0  0  0  0  0  0  0  0  0  0  0
   -0.1310   12.7210   -4.1570 C   0  0  0  0  0  0  0  0  0  0  0  0
   -1.2310   10.0400   -6.2140 C   0  0  0  0  0  0  0  0  0  0  0  0
   -0.0420    9.1880   -6.6620 C   0  0  0  0  0  0  0  0  0  0  0  0
   -1.4160   11.1750   -7.2460 C   0  0  0  0  0  0  0  0  0  0  0  0
    0.5600   12.1020   -2.6130 S   0  0  0  0  0  0  0  0  0  0  0  0
   -0.2810    8.4640   -7.9800 C   0  0  0  0  0  0  0  0  0  0  0  0
   -1.0840   10.7780   -8.6950 C   0  0  0  0  0  0  0  0  0  0  0  0
    2.1310   12.3890   -2.7150 O   0  0  0  0  0  0  0  0  0  0  0  0
    0.2680   10.5190   -2.5250 O   0  0  0  0  0  0  0  0  0  0  0  0
   -0.1230   12.8340   -1.3420 O   0  0  0  0  0  0  0  0  0  0  0  0
   -1.1320    9.2730   -8.9620 C   0  0  0  0  0  0  0  0  0  0  0  0
   -0.4070   14.2470   -1.3670 C   0  0  0  0  0  0  0  0  0  0  0  0
   -1.5620   14.5790   -2.3400 C   0  0  0  0  0  0  0  0  0  0  0  0
   -2.9250   14.7880   -1.6900 C   0  0  0  0  0  0  0  0  0  0  0  0
   -3.1010   14.9920   -0.3710 C   0  0  0  0  0  0  0  0  0  0  0  0
   -4.0900   14.7420   -2.5700 C   0  0  0  0  0  0  0  0  0  0  0  0
   -4.4280   15.1190    0.1980 C   0  0  0  0  0  0  0  0  0  0  0  0
   -5.3300   15.0150   -2.1300 C   0  0  0  0  0  0  0  0  0  0  0  0
   -5.6100   15.3900   -0.7040 C   0  0  1  0  0  0  0  0  0  0  0  0
   -4.5970   14.9610    1.4930 C   0  0  0  0  0  0  0  0  0  0  0  0
   -6.9000   14.7600   -0.0910 C   0  0  0  0  0  0  0  0  0  0  0  0
   -5.9970   15.0050    1.9860 C   0  0  0  0  0  0  0  0  0  0  0  0
   -7.7500   14.2040   -0.7710 O   0  0  0  0  0  0  0  0  0  0  0  0
   -7.0620   14.8870    1.2740 N   0  0  0  0  0  0  0  0  0  0  0  0
  1  2  1  0
  2  3  1  0
  1  4  1  0
  4  5  1  0
  4  6  1  0
  3  7  1  0
  5  8  1  0
  6  9  1  0
  7 10  1  0
  7 11  1  0
  7 12  1  0
  8 13  1  0
  9 13  1  0
 12 14  1  0
 14 15  1  0
 15 16  1  0
 16 17  2  0
 16 18  1  0
 17 19  1  0
 18 20  2  0
 19 21  1  0
 21 20  1  6
 19 22  2  0
 21 23  1  0
 22 24  1  0
 23 25  2  0
 23 26  1  0
 24 26  2  0
M  END
