diamond-x1015_0_A-mac-x0527
     RDKit          3D

 24 26  0  0  0  0  0  0  0  0999 V2000
   -1.2800   14.3150   -4.1380 C   0  0  0  0  0  0  0  0  0  0  0  0
   -1.8890   14.8260   -2.9070 N   0  0  0  0  0  0  0  0  0  0  0  0
   -3.2240   15.0530   -2.6770 C   0  0  0  0  0  0  0  0  0  0  0  0
    0.0800   13.6230   -3.9460 C   0  0  2  0  0  0  0  0  0  0  0  0
    0.0520   12.1600   -3.9750 N   0  0  0  0  0  0  0  0  0  0  0  0
    0.5840   13.8620   -2.5330 C   0  0  0  0  0  0  0  0  0  0  0  0
    0.6530   14.9390   -1.9590 O   0  0  0  0  0  0  0  0  0  0  0  0
   -3.9410   15.2710   -3.6490 O   0  0  0  0  0  0  0  0  0  0  0  0
    0.4540   11.6450   -2.7360 C   0  0  0  0  0  0  0  0  0  0  0  0
    0.9580   12.6740   -2.0060 N   0  0  0  0  0  0  0  0  0  0  0  0
   -0.3730   11.3950   -5.0910 C   0  0  0  0  0  0  0  0  0  0  0  0
   -3.8200   15.0380   -1.3180 C   0  0  0  0  0  0  0  0  0  0  0  0
    0.3940   10.4860   -2.3210 O   0  0  0  0  0  0  0  0  0  0  0  0
   -0.0340   11.7500   -6.3980 C   0  0  0  0  0  0  0  0  0  0  0  0
   -1.1540   10.2410   -4.9180 C   0  0  0  0  0  0  0  0  0  0  0  0
   -5.1950   15.1230   -1.1940 C   0  0  0  0  0  0  0  0  0  0  0  0
   -3.0030   14.9390   -0.2360 N   0  0  0  0  0  0  0  0  0  0  0  0
   -0.4610   10.9840   -7.4870 C   0  0  0  0  0  0  0  0  0  0  0  0
   -1.5910    9.4770   -5.9950 C   0  0  0  0  0  0  0  0  0  0  0  0
   -5.8140   15.1100    0.0110 N   0  0  0  0  0  0  0  0  0  0  0  0
   -3.6220   14.9300    0.9650 C   0  0  0  0  0  0  0  0  0  0  0  0
   -1.2420    9.8520   -7.2810 C   0  0  0  0  0  0  0  0  0  0  0  0
   -4.9950   15.0130    1.0860 C   0  0  0  0  0  0  0  0  0  0  0  0
   -1.7750    8.9090   -8.6130 Cl  0  0  0  0  0  0  0  0  0  0  0  0
  1  2  1  0
  2  3  1  0
  4  1  1  1
  4  5  1  0
  4  6  1  0
  6  7  2  0
  3  8  2  0
  5  9  1  0
  6 10  1  0
  9 10  1  0
  5 11  1  0
  3 12  1  0
  9 13  2  0
 11 14  2  0
 11 15  1  0
 12 16  2  0
 12 17  1  0
 14 18  1  0
 15 19  2  0
 16 20  1  0
 17 21  2  0
 18 22  2  0
 19 22  1  0
 20 23  2  0
 21 23  1  0
 22 24  1  0
M  END
