diamond-x0371_0_A-diamond-x0905_0_A
     RDKit          3D

 19 21  0  0  0  0  0  0  0  0999 V2000
   -8.0260   14.4940    3.1850 N   0  0  0  0  0  0  0  0  0  0  0  0
   -8.7290   15.5300    3.7530 C   0  0  0  0  0  0  0  0  0  0  0  0
   -9.3760   16.3250    3.0650 O   0  0  0  0  0  0  0  0  0  0  0  0
   -8.3180   14.0940    1.8440 C   0  0  0  0  0  0  0  0  0  0  0  0
   -7.1280   14.3930    1.0360 C   0  0  0  0  0  0  0  0  0  0  0  0
   -8.6410   15.5740    5.1860 C   0  0  0  0  0  0  0  0  0  0  0  0
   -5.8620   14.3860    1.5750 N   0  0  0  0  0  0  0  0  0  0  0  0
   -7.1080   14.6890   -0.2310 N   0  0  0  0  0  0  0  0  0  0  0  0
   -8.0600   14.5000    5.7990 O   0  0  0  0  0  0  0  0  0  0  0  0
   -9.0240   16.4900    6.1420 C   0  0  0  0  0  0  0  0  0  0  0  0
   -5.7870   14.8720   -0.5220 C   0  0  0  0  0  0  0  0  0  0  0  0
   -4.9790   14.6900    0.5820 C   0  0  0  0  0  0  0  0  0  0  0  0
   -8.6550   15.9390    7.3970 C   0  0  0  0  0  0  0  0  0  0  0  0
   -8.0710   14.7290    7.1290 C   0  0  0  0  0  0  0  0  0  0  0  0
   -3.5940   14.8140    0.5490 C   0  0  0  0  0  0  0  0  0  0  0  0
   -5.2220   15.1940   -1.7310 C   0  0  0  0  0  0  0  0  0  0  0  0
   -6.0780   15.3560   -2.7720 O   0  0  0  0  0  0  0  0  0  0  0  0
   -3.0370   15.1340   -0.6950 C   0  0  0  0  0  0  0  0  0  0  0  0
   -3.8350   15.3280   -1.8310 C   0  0  0  0  0  0  0  0  0  0  0  0
  1  2  1  0
  2  3  2  0
  1  4  1  0
  4  5  1  0
  2  6  1  0
  5  7  1  0
  5  8  2  0
  6  9  1  0
  6 10  2  0
  8 11  1  0
  7 12  1  0
 11 12  2  0
 10 13  1  0
  9 14  1  0
 13 14  2  0
 12 15  1  0
 11 16  1  0
 16 17  1  0
 15 18  2  0
 16 19  2  0
 18 19  1  0
M  END
