diamond-x0742_0_A-mac-x0213
     RDKit          3D

 29 33  0  0  0  0  0  0  0  0999 V2000
   -5.2830   12.6590   -0.5660 C   0  0  0  0  0  0  0  0  0  0  0  0
   -6.2340   11.8780    0.3080 C   0  0  0  0  0  0  0  0  0  0  0  0
   -4.7190   12.0940   -1.5100 O   0  0  0  0  0  0  0  0  0  0  0  0
   -5.1090   14.1690   -0.2350 C   0  0  2  0  0  0  0  0  0  0  0  0
   -5.0610   14.3310    1.3020 C   0  0  0  0  0  0  0  0  0  0  0  0
   -6.2410   14.9290   -0.9450 C   0  0  0  0  0  0  0  0  0  0  0  0
   -3.9570   14.8900   -0.9620 C   0  0  2  0  0  0  0  0  0  0  0  0
   -4.3230   14.6070   -2.4240 C   0  0  0  0  0  0  0  0  0  0  0  0
   -2.6370   14.5550   -0.3290 C   0  0  0  0  0  0  0  0  0  0  0  0
   -3.8220   15.0990    1.7670 C   0  0  0  0  0  0  0  0  0  0  0  0
   -5.8550   14.7440   -2.4180 C   0  0  0  0  0  0  0  0  0  0  0  0
   -1.4910   14.1680   -0.9800 C   0  0  0  0  0  0  0  0  0  0  0  0
   -2.5760   14.6570    1.0600 C   0  0  0  0  0  0  0  0  0  0  0  0
   -1.4790   14.3950    1.7980 N   0  0  0  0  0  0  0  0  0  0  0  0
   -0.3390   13.8960   -0.2600 C   0  0  0  0  0  0  0  0  0  0  0  0
    0.8640   13.4850   -1.0220 C   0  0  0  0  0  0  0  0  0  0  0  0
   -0.3810   14.0210    1.1250 C   0  0  0  0  0  0  0  0  0  0  0  0
    0.6680   13.9120   -2.3430 N   0  0  0  0  0  0  0  0  0  0  0  0
    0.2670   13.0710   -3.1770 C   0  0  0  0  0  0  0  0  0  0  0  0
    0.0350   11.7620   -2.9210 O   0  0  0  0  0  0  0  0  0  0  0  0
    0.0150   13.5920   -4.5430 C   0  0  0  0  0  0  0  0  0  0  0  0
   -1.4350   14.1150   -4.6490 C   0  0  0  0  0  0  0  0  0  0  0  0
    0.9780   14.7810   -4.7100 C   0  0  0  0  0  0  0  0  0  0  0  0
   -1.2630   15.5750   -4.9420 C   0  0  0  0  0  0  0  0  0  0  0  0
    0.0820   15.9420   -4.9710 C   0  0  0  0  0  0  0  0  0  0  0  0
   -2.2600   16.5080   -5.1750 C   0  0  0  0  0  0  0  0  0  0  0  0
    0.4620   17.2480   -5.2270 C   0  0  0  0  0  0  0  0  0  0  0  0
   -1.8760   17.8270   -5.4410 C   0  0  0  0  0  0  0  0  0  0  0  0
   -0.5310   18.1880   -5.4640 C   0  0  0  0  0  0  0  0  0  0  0  0
  1  2  1  0
  1  3  2  0
  4  1  1  1
  4  5  1  0
  4  6  1  0
  4  7  1  0
  7  8  1  6
  7  9  1  0
  5 10  1  0
  6 11  1  0
  8 11  1  0
  9 12  1  0
  9 13  2  0
 10 13  1  0
 13 14  1  0
 12 15  2  0
 15 16  1  0
 14 17  2  0
 15 17  1  0
 16 18  1  0
 18 19  2  3
 19 20  1  0
 19 21  1  0
 21 22  1  0
 21 23  1  0
 22 24  1  0
 23 25  1  0
 24 25  2  0
 24 26  1  0
 25 27  1  0
 26 28  2  0
 27 29  2  0
 28 29  1  0
M  END
