diamond-x0900_1_A-diamond-x0676_0_B
     RDKit          3D

 20 22  0  0  0  0  0  0  0  0999 V2000
   -1.0560   10.1150   -9.9100 O   0  0  0  0  0  0  0  0  0  0  0  0
   -0.9770    9.4900   -8.8690 C   0  0  0  0  0  0  0  0  0  0  0  0
    0.1430    8.8390   -8.3810 N   0  0  0  0  0  0  0  0  0  0  0  0
   -2.1100    9.2840   -7.8820 C   0  0  0  0  0  0  0  0  0  0  0  0
    0.8770    7.8800   -9.1830 C   0  0  0  0  0  0  0  0  0  0  0  0
   -1.5180    8.3140   -6.8670 C   0  0  0  0  0  0  0  0  0  0  0  0
   -0.0450    8.6240   -6.9650 C   0  0  0  0  0  0  0  0  0  0  0  0
    1.5710    8.4560  -10.3450 N   0  0  0  0  0  0  0  0  0  0  0  0
    2.7200    7.9290  -10.6370 C   0  0  0  0  0  0  0  0  0  0  0  0
    3.3290    6.8040   -9.8320 C   0  0  0  0  0  0  0  0  0  0  0  0
    3.6860    8.1600  -11.6440 N   0  0  0  0  0  0  0  0  0  0  0  0
    4.9500    7.7610  -11.2080 N   0  0  0  0  0  0  0  0  0  0  0  0
    4.7660    7.0280  -10.1640 C   0  0  0  0  0  0  0  0  0  0  0  0
    3.7350    9.2040  -12.6240 C   0  0  0  0  0  0  0  0  0  0  0  0
    5.8700    6.4530   -9.3540 C   0  0  0  0  0  0  0  0  0  0  0  0
    2.8220   10.2710  -12.6980 C   0  0  0  0  0  0  0  0  0  0  0  0
    4.7630    9.2000  -13.5920 C   0  0  0  0  0  0  0  0  0  0  0  0
    2.9320   11.2740  -13.6740 C   0  0  0  0  0  0  0  0  0  0  0  0
    4.8750   10.1950  -14.5690 C   0  0  0  0  0  0  0  0  0  0  0  0
    3.9580   11.2350  -14.6090 C   0  0  0  0  0  0  0  0  0  0  0  0
  1  2  2  0
  2  3  1  0
  2  4  1  0
  3  5  1  0
  4  6  1  0
  3  7  1  0
  6  7  1  0
  5  8  1  0
  8  9  2  3
  9 10  1  0
  9 11  1  0
 11 12  1  0
 10 13  1  0
 12 13  2  0
 11 14  1  0
 13 15  1  0
 14 16  2  0
 14 17  1  0
 16 18  1  0
 17 19  2  0
 18 20  2  0
 19 20  1  0
M  END
