diamond-x0849_0_A-mac-x0417
     RDKit          3D

 25 28  0  0  0  0  0  0  0  0999 V2000
   -3.9080   15.2360   -2.7740 Br  0  0  0  0  0  0  0  0  0  0  0  0
   -3.7040   15.2040   -0.8870 C   0  0  0  0  0  0  0  0  0  0  0  0
   -2.4890   14.8290   -0.3290 C   0  0  0  0  0  0  0  0  0  0  0  0
   -4.7710   15.5480   -0.0820 C   0  0  0  0  0  0  0  0  0  0  0  0
   -2.3840   14.8070    1.0610 C   0  0  0  0  0  0  0  0  0  0  0  0
   -4.5550   15.4880    1.2750 C   0  0  0  0  0  0  0  0  0  0  0  0
   -1.3830   14.4740   -1.0970 C   0  0  0  0  0  0  0  0  0  0  0  0
   -3.3950   15.1280    1.8280 N   0  0  0  0  0  0  0  0  0  0  0  0
   -1.2700   14.4580    1.6590 N   0  0  0  0  0  0  0  0  0  0  0  0
   -0.2160   14.0990   -0.5070 C   0  0  0  0  0  0  0  0  0  0  0  0
    0.9160   13.7050   -1.4170 C   0  0  0  0  0  0  0  0  0  0  0  0
   -0.2240   14.1080    0.8940 C   0  0  0  0  0  0  0  0  0  0  0  0
    0.6480   12.3380   -1.8190 O   0  0  0  0  0  0  0  0  0  0  0  0
    0.8680   11.9070   -3.1390 C   0  0  0  0  0  0  0  0  0  0  0  0
    1.5370   10.9350   -3.3920 O   0  0  0  0  0  0  0  0  0  0  0  0
    0.1880   12.7220   -4.2320 C   0  0  0  0  0  0  0  0  0  0  0  0
    0.0700   11.9390   -5.5260 C   0  0  0  0  0  0  0  0  0  0  0  0
    1.0100   12.0610   -6.4800 N   0  0  0  0  0  0  0  0  0  0  0  0
   -0.9400   11.0150   -5.9400 C   0  0  0  0  0  0  0  0  0  0  0  0
    0.6180   11.2310   -7.5270 O   0  0  0  0  0  0  0  0  0  0  0  0
   -0.5390   10.6080   -7.2080 C   0  0  0  0  0  0  0  0  0  0  0  0
   -2.1220   10.4770   -5.4110 C   0  0  0  0  0  0  0  0  0  0  0  0
   -1.2360    9.6890   -8.0020 C   0  0  0  0  0  0  0  0  0  0  0  0
   -2.8450    9.5490   -6.1800 C   0  0  0  0  0  0  0  0  0  0  0  0
   -2.4060    9.1640   -7.4510 C   0  0  0  0  0  0  0  0  0  0  0  0
  1  2  1  0
  2  3  2  0
  2  4  1  0
  3  5  1  0
  4  6  2  0
  3  7  1  0
  5  8  2  0
  6  8  1  0
  5  9  1  0
  7 10  2  0
 10 11  1  0
  9 12  2  0
 10 12  1  0
 11 13  1  0
 13 14  1  0
 14 15  2  0
 14 16  1  0
 16 17  1  0
 17 18  2  0
 17 19  1  0
 18 20  1  0
 19 21  2  0
 20 21  1  0
 19 22  1  0
 21 23  1  0
 22 24  2  0
 23 25  2  0
 24 25  1  0
M  END
