diamond-x0685_0_A-mac-x0124
     RDKit          3D

 21 23  0  0  0  0  0  0  0  0999 V2000
   -6.9260   14.9480    2.6800 N   0  0  0  0  0  0  0  0  0  0  0  0
   -8.2620   14.4430    2.5660 C   0  0  0  0  0  0  0  0  0  0  0  0
   -8.3120   12.9990    3.0320 C   0  0  0  0  0  0  0  0  0  0  0  0
   -6.1010   14.8830    1.5750 C   0  0  0  0  0  0  0  0  0  0  0  0
   -4.8350   15.3300    1.7400 C   0  0  0  0  0  0  0  0  0  0  0  0
   -6.5730   14.3910    0.3860 N   0  0  0  0  0  0  0  0  0  0  0  0
   -3.9980   15.2620    0.6940 C   0  0  0  0  0  0  0  0  0  0  0  0
   -5.6970   14.3320   -0.6720 C   0  0  0  0  0  0  0  0  0  0  0  0
   -4.3970   14.7550   -0.5160 C   0  0  0  0  0  0  0  0  0  0  0  0
   -3.2320   14.8170   -1.2740 C   0  0  0  0  0  0  0  0  0  0  0  0
   -2.7680   14.8930   -2.5700 C   0  0  0  0  0  0  0  0  0  0  0  0
   -2.1920   14.8070   -0.3890 C   0  0  0  0  0  0  0  0  0  0  0  0
   -1.3680   14.9400   -2.4300 N   0  0  0  0  0  0  0  0  0  0  0  0
   -1.0400   14.9000   -1.0800 C   0  0  0  0  0  0  0  0  0  0  0  0
   -2.1860   14.7270    1.0090 C   0  0  0  0  0  0  0  0  0  0  0  0
   -3.3970   14.9310   -3.7560 N   0  0  0  0  0  0  0  0  0  0  0  0
   -0.3920   15.0320   -3.4930 C   0  0  0  0  0  0  0  0  0  0  0  0
   -3.3250   14.5970    1.7990 N   0  0  0  0  0  0  0  0  0  0  0  0
   -1.0520   14.7780    1.6340 N   0  0  0  0  0  0  0  0  0  0  0  0
    0.1540   14.9500   -0.4920 N   0  0  0  0  0  0  0  0  0  0  0  0
    0.0170   14.9040    0.8590 C   0  0  0  0  0  0  0  0  0  0  0  0
  1  2  1  0
  2  3  1  0
  1  4  1  0
  4  5  2  0
  4  6  1  0
  5  7  1  0
  6  8  2  0
  7  9  2  0
  8  9  1  0
  9 10  1  0
 10 11  2  0
 10 12  1  0
 11 13  1  0
 12 14  2  0
 13 14  1  0
 12 15  1  0
 11 16  1  0
 13 17  1  0
 15 18  1  0
 15 19  2  0
 14 20  1  0
 19 21  1  0
 20 21  2  0
M  END
