diamond-x0926_0_A-mac-x0124
     RDKit          3D

 17 19  0  0  0  0  0  0  0  0999 V2000
   -7.2040   14.8520    0.5850 O   0  0  0  0  0  0  0  0  0  0  0  0
   -6.1030   15.0920    0.1180 C   0  0  0  0  0  0  0  0  0  0  0  0
   -4.8590   15.3230    0.9830 C   0  0  0  0  0  0  0  0  0  0  0  0
   -5.9800   15.1390   -1.2490 N   0  0  0  0  0  0  0  0  0  0  0  0
   -4.8140   14.7980   -1.8960 N   0  0  0  0  0  0  0  0  0  0  0  0
   -3.8020   14.5220    0.3080 C   0  0  1  0  0  0  0  0  0  0  0  0
   -3.7610   15.2330   -1.0320 C   0  0  0  0  0  0  0  0  0  0  0  0
   -2.3540   14.6320    0.4330 C   0  0  0  0  0  0  0  0  0  0  0  0
   -1.8700   14.7210   -0.8510 C   0  0  0  0  0  0  0  0  0  0  0  0
   -1.5230   14.6500    1.5110 N   0  0  0  0  0  0  0  0  0  0  0  0
   -2.5020   14.7270   -2.1330 C   0  0  0  0  0  0  0  0  0  0  0  0
   -0.5410   14.8300   -1.0470 C   0  0  0  0  0  0  0  0  0  0  0  0
   -0.2080   14.7560    1.1710 C   0  0  0  0  0  0  0  0  0  0  0  0
   -0.3380   14.9110   -2.4110 N   0  0  0  0  0  0  0  0  0  0  0  0
   -1.5330   14.8490   -3.0780 C   0  0  0  0  0  0  0  0  0  0  0  0
    0.3580   14.8520   -0.0630 N   0  0  0  0  0  0  0  0  0  0  0  0
    0.9370   15.0440   -3.0610 C   0  0  0  0  0  0  0  0  0  0  0  0
  1  2  2  0
  2  3  1  0
  2  4  1  0
  4  5  1  0
  3  6  1  0
  5  7  1  0
  6  7  1  0
  6  8  1  1
  8  9  1  0
  8 10  2  0
  9 11  1  0
  9 12  2  0
 10 13  1  0
 12 14  1  0
 11 15  2  0
 14 15  1  0
 12 16  1  0
 13 16  2  0
 14 17  1  0
M  END
