diamond-x0128_0_A-mac-x0373
     RDKit          3D

 31 34  0  0  0  0  0  0  0  0999 V2000
   -7.0980   14.2760    2.6110 N   0  0  0  0  0  0  0  0  0  0  0  0
   -8.0270   15.1300    3.1330 C   0  0  0  0  0  0  0  0  0  0  0  0
   -8.9610   15.5750    2.4780 O   0  0  0  0  0  0  0  0  0  0  0  0
   -6.6000   14.6090    1.2950 C   0  0  2  0  0  0  0  0  0  0  0  0
   -7.7410   15.3970    4.4450 N   0  0  0  0  0  0  0  0  0  0  0  0
   -6.9220   13.5620    0.2990 C   0  0  0  0  0  0  0  0  0  0  0  0
   -5.1320   15.0710    1.3260 C   0  0  0  0  0  0  0  0  0  0  0  0
   -6.0190   13.0130   -0.4970 C   0  0  0  0  0  0  0  0  0  0  0  0
   -4.2770   14.7860    0.0990 C   0  0  1  0  0  0  0  0  0  0  0  0
   -8.5270   16.1690    5.3170 C   0  0  0  0  0  0  0  0  0  0  0  0
   -4.5720   13.3800   -0.4530 C   0  0  0  0  0  0  0  0  0  0  0  0
   -9.2170   17.3170    4.9390 C   0  0  0  0  0  0  0  0  0  0  0  0
   -8.6380   15.7720    6.6510 C   0  0  0  0  0  0  0  0  0  0  0  0
   -4.3000   15.6420   -1.1600 C   0  0  0  0  0  0  0  0  0  0  0  0
   -2.8820   14.8320    0.6760 C   0  0  0  0  0  0  0  0  0  0  0  0
   -9.9820   18.0590    5.7740 N   0  0  0  0  0  0  0  0  0  0  0  0
   -9.4170   16.5190    7.5340 C   0  0  0  0  0  0  0  0  0  0  0  0
   -3.2820   15.4080   -2.0190 C   0  0  0  0  0  0  0  0  0  0  0  0
   -1.8950   14.6230   -0.1390 C   0  0  0  0  0  0  0  0  0  0  0  0
  -10.0650   17.6480    7.0510 C   0  0  0  0  0  0  0  0  0  0  0  0
   -2.2850   14.3530   -1.5480 C   0  0  2  0  0  0  0  0  0  0  0  0
   -1.1100   13.7310   -2.3020 C   0  0  2  0  0  0  0  0  0  0  0  0
    0.2930   14.2470   -2.0580 C   0  0  0  0  0  0  0  0  0  0  0  0
   -1.4950   12.8590   -3.4750 C   0  0  0  0  0  0  0  0  0  0  0  0
    1.0900   13.3440   -1.4310 O   0  0  0  0  0  0  0  0  0  0  0  0
    0.7340   15.3420   -2.3550 O   0  0  0  0  0  0  0  0  0  0  0  0
   -0.8450   12.9030   -4.7170 C   0  0  0  0  0  0  0  0  0  0  0  0
   -2.5510   11.9530   -3.2950 C   0  0  0  0  0  0  0  0  0  0  0  0
   -1.2520   12.0510   -5.7480 C   0  0  0  0  0  0  0  0  0  0  0  0
   -2.9530   11.1090   -4.3170 C   0  0  0  0  0  0  0  0  0  0  0  0
   -2.3040   11.1550   -5.5450 C   0  0  0  0  0  0  0  0  0  0  0  0
  1  2  1  0
  2  3  2  0
  4  1  1  1
  2  5  1  0
  4  6  1  0
  4  7  1  0
  6  8  2  0
  9  7  1  1
  5 10  1  0
  8 11  1  0
  9 11  1  0
 10 12  2  0
 10 13  1  0
  9 14  1  0
  9 15  1  0
 12 16  1  0
 13 17  2  0
 14 18  2  0
 15 19  2  0
 16 20  2  0
 17 20  1  0
 21 18  1  6
 19 21  1  0
 21 22  1  0
 22 23  1  6
 22 24  1  0
 23 25  1  0
 23 26  2  0
 24 27  2  0
 24 28  1  0
 27 29  1  0
 28 30  2  0
 29 31  2  0
 30 31  1  0
M  END
