diamond-x0290_0_A-mac-x0587
     RDKit          3D

 21 21  0  0  0  0  0  0  0  0999 V2000
   -7.7810   13.7720    0.9310 N   0  0  0  0  0  0  0  0  0  0  0  0
   -8.5990   14.9570    0.7120 C   0  0  0  0  0  0  0  0  0  0  0  0
   -6.5550   14.0710    1.7120 C   0  0  0  0  0  0  0  0  0  0  0  0
   -5.3470   14.4240    0.8260 C   0  0  0  0  0  0  0  0  0  0  0  0
   -5.4030   14.4690   -0.4070 O   0  0  0  0  0  0  0  0  0  0  0  0
   -4.1350   14.6950    1.4080 N   0  0  0  0  0  0  0  0  0  0  0  0
   -2.8600   14.6680    0.8480 C   0  0  0  0  0  0  0  0  0  0  0  0
   -1.7540   14.5910    1.6220 N   0  0  0  0  0  0  0  0  0  0  0  0
   -2.7870   14.7230   -0.5390 C   0  0  0  0  0  0  0  0  0  0  0  0
   -0.5540   14.5710    1.0050 C   0  0  0  0  0  0  0  0  0  0  0  0
   -1.5380   14.7000   -1.1700 C   0  0  0  0  0  0  0  0  0  0  0  0
   -1.5270   14.7680   -2.6800 C   0  0  0  0  0  0  0  0  0  0  0  0
   -0.3860   14.6220   -0.3760 C   0  0  0  0  0  0  0  0  0  0  0  0
   -0.2350   14.6890   -3.5170 C   0  0  2  0  0  0  0  0  0  0  0  0
   -2.6140   14.9160   -3.2550 O   0  0  0  0  0  0  0  0  0  0  0  0
    0.2940   15.9630   -4.1890 C   0  0  0  0  0  0  0  0  0  0  0  0
   -0.4210   13.3670   -4.8260 S   0  0  0  0  0  0  0  0  0  0  0  0
   -0.6130   11.8540   -3.8060 C   0  0  0  0  0  0  0  0  0  0  0  0
    0.5890   11.6130   -2.9260 C   0  0  0  0  0  0  0  0  0  0  0  0
    1.7170   11.8200   -3.3060 O   0  0  0  0  0  0  0  0  0  0  0  0
    0.3330   11.1530   -1.6800 O   0  0  0  0  0  0  0  0  0  0  0  0
  1  2  1  0
  1  3  1  0
  3  4  1  0
  4  5  2  0
  4  6  1  0
  6  7  1  0
  7  8  2  0
  7  9  1  0
  8 10  1  0
  9 11  2  0
 11 12  1  0
 10 13  2  0
 11 13  1  0
 12 14  1  0
 12 15  2  0
 14 16  1  6
 14 17  1  0
 17 18  1  0
 18 19  1  0
 19 20  2  0
 19 21  1  0
M  END
