diamond-x0290_0_A-mac-x0178
     RDKit          3D

 26 27  0  0  0  0  0  0  0  0999 V2000
   -7.8710   13.8330    1.1060 N   0  0  0  0  0  0  0  0  0  0  0  0
   -8.6230   14.9990    0.6710 C   0  0  0  0  0  0  0  0  0  0  0  0
   -6.6480   14.1840    1.8540 C   0  0  0  0  0  0  0  0  0  0  0  0
   -5.4750   14.6300    0.9720 C   0  0  0  0  0  0  0  0  0  0  0  0
   -5.5940   14.7870   -0.2470 O   0  0  0  0  0  0  0  0  0  0  0  0
   -4.2340   14.8480    1.5020 N   0  0  0  0  0  0  0  0  0  0  0  0
   -3.0090   14.6080    0.9090 C   0  0  0  0  0  0  0  0  0  0  0  0
   -1.8880   14.7870    1.6510 N   0  0  0  0  0  0  0  0  0  0  0  0
   -2.9670   14.2000   -0.3900 C   0  0  0  0  0  0  0  0  0  0  0  0
   -0.7010   14.5400    1.0380 C   0  0  0  0  0  0  0  0  0  0  0  0
   -1.7690   13.9410   -1.0190 C   0  0  0  0  0  0  0  0  0  0  0  0
   -1.8530   13.4770   -2.4620 C   0  0  0  0  0  0  0  0  0  0  0  0
   -0.5880   14.1200   -0.2850 C   0  0  0  0  0  0  0  0  0  0  0  0
   -1.0100   14.3210   -3.3420 C   0  0  0  0  0  0  0  0  0  0  0  0
    0.3490   14.0810   -3.4670 C   0  0  0  0  0  0  0  0  0  0  0  0
   -1.6230   15.3820   -4.0320 C   0  0  0  0  0  0  0  0  0  0  0  0
    0.9910   12.9390   -2.7440 C   0  0  0  0  0  0  0  0  0  0  0  0
   -0.8680   16.2220   -4.8370 C   0  0  0  0  0  0  0  0  0  0  0  0
    1.1060   14.9350   -4.2810 C   0  0  0  0  0  0  0  0  0  0  0  0
   -1.6600   17.5630   -5.6840 S   0  0  0  0  0  0  0  0  0  0  0  0
    1.9330   12.9830   -1.9920 O   0  0  0  0  0  0  0  0  0  0  0  0
    0.3870   11.7570   -3.0000 O   0  0  0  0  0  0  0  0  0  0  0  0
    0.5040   16.0020   -4.9600 C   0  0  0  0  0  0  0  0  0  0  0  0
   -0.4050   18.2870   -6.5230 N   0  0  0  0  0  0  0  0  0  0  0  0
   -2.5520   17.0520   -6.7000 O   0  0  0  0  0  0  0  0  0  0  0  0
   -2.0920   18.5250   -4.7130 O   0  0  0  0  0  0  0  0  0  0  0  0
  1  2  1  0
  1  3  1  0
  3  4  1  0
  4  5  2  0
  4  6  1  0
  6  7  1  0
  7  8  2  0
  7  9  1  0
  8 10  1  0
  9 11  2  0
 11 12  1  0
 10 13  2  0
 11 13  1  0
 12 14  1  0
 14 15  2  0
 14 16  1  0
 15 17  1  0
 16 18  2  0
 15 19  1  0
 18 20  1  0
 17 21  2  0
 17 22  1  0
 18 23  1  0
 19 23  2  0
 20 24  1  0
 20 25  2  0
 20 26  2  0
M  END
