diamond-x0662_0_A-diamond-x0950_0_A
     RDKit          3D

 23 24  0  0  0  0  0  0  0  0999 V2000
    5.3730    9.4920  -15.0660 C   0  0  0  0  0  0  0  0  0  0  0  0
    4.3360    9.9720  -14.1890 N   0  0  0  0  0  0  0  0  0  0  0  0
    3.6770   11.1650  -14.2590 C   0  0  0  0  0  0  0  0  0  0  0  0
    3.9360    9.1950  -13.1700 N   0  0  0  0  0  0  0  0  0  0  0  0
    2.7930   11.1620  -13.2110 C   0  0  0  0  0  0  0  0  0  0  0  0
    2.9840    9.9130  -12.5480 C   0  0  0  0  0  0  0  0  0  0  0  0
    2.2660    9.4490  -11.3450 C   0  0  0  0  0  0  0  0  0  0  0  0
    2.2620    8.2540  -11.0360 O   0  0  0  0  0  0  0  0  0  0  0  0
    1.6040   10.3300  -10.5150 N   0  0  0  0  0  0  0  0  0  0  0  0
    0.6240   10.1410   -9.5230 C   0  0  0  0  0  0  0  0  0  0  0  0
   -0.4230    9.2390   -9.6470 C   0  0  0  0  0  0  0  0  0  0  0  0
    0.7150   10.9140   -8.3530 C   0  0  0  0  0  0  0  0  0  0  0  0
   -1.3690    9.1120   -8.6320 C   0  0  0  0  0  0  0  0  0  0  0  0
   -0.2250   10.8020   -7.3290 C   0  0  0  0  0  0  0  0  0  0  0  0
   -0.1090   11.6360   -6.0890 C   0  0  0  0  0  0  0  0  0  0  0  0
   -1.2790    9.8880   -7.4790 C   0  0  0  0  0  0  0  0  0  0  0  0
   -1.0570   11.7600   -5.3330 O   0  0  0  0  0  0  0  0  0  0  0  0
    1.1220   12.2060   -5.8840 O   0  0  0  0  0  0  0  0  0  0  0  0
    1.2140   12.8280   -4.5820 C   0  0  2  0  0  0  0  0  0  0  0  0
    2.5820   12.1470   -4.5430 C   0  0  0  0  0  0  0  0  0  0  0  0
    0.9800   12.2520   -3.1790 C   0  0  0  0  0  0  0  0  0  0  0  0
    0.6800   11.1010   -2.8950 O   0  0  0  0  0  0  0  0  0  0  0  0
    1.1210   13.1620   -2.1960 O   0  0  0  0  0  0  0  0  0  0  0  0
  1  2  1  0
  2  3  1  0
  2  4  1  0
  3  5  2  0
  4  6  2  0
  5  6  1  0
  6  7  1  0
  7  8  2  0
  7  9  1  0
  9 10  1  0
 10 11  2  0
 10 12  1  0
 11 13  1  0
 12 14  2  0
 14 15  1  0
 13 16  2  0
 14 16  1  0
 15 17  2  0
 15 18  1  0
 18 19  1  0
 19 20  1  1
 19 21  1  0
 21 22  2  0
 21 23  1  0
M  END
