diamond-x0844_0_A-mac-x0402
     RDKit          3D

 13 14  0  0  0  0  0  0  0  0999 V2000
   -7.6270   14.8810   -0.1300 O   0  0  0  0  0  0  0  0  0  0  0  0
   -6.3900   14.9090   -0.0720 C   0  0  0  0  0  0  0  0  0  0  0  0
   -5.7750   14.8860    1.1520 N   0  0  0  0  0  0  0  0  0  0  0  0
   -5.5350   14.9920   -1.1850 C   0  0  0  0  0  0  0  0  0  0  0  0
   -6.5330   15.0760    3.1720 N   0  0  0  0  0  0  0  0  0  0  0  0
   -4.4300   14.9600    1.3240 C   0  0  0  0  0  0  0  0  0  0  0  0
   -4.4610   15.1570   -2.4990 C   0  0  0  0  0  0  0  0  0  0  0  0
   -5.1850   15.1190   -0.2380 C   0  0  0  0  0  0  0  0  0  0  0  0
   -3.6000   15.0250    0.2710 C   0  0  2  0  0  0  0  0  0  0  0  0
   -3.1650   14.8840   -2.0940 C   0  0  1  0  0  0  0  0  0  0  0  0
   -3.0140   14.8090   -1.4180 C   0  0  0  0  0  0  0  0  0  0  0  0
   -3.2320   14.8800   -0.2360 C   0  0  0  0  0  0  0  0  0  0  0  0
   -2.8630   14.7340   -0.7430 C   0  0  0  0  0  0  0  0  0  0  0  0
  1  2  2  0
  2  3  1  0
  2  4  1  0
  3  5  1  0
  3  6  1  0
  4  7  1  0
  4  8  1  0
  9  6  1  6
 10  7  1  6
  9 10  1  0
 10 11  1  0
  9 12  1  0
 11 13  2  0
 12 13  1  0
M  END
