diamond-x0380_0_B-diamond-x0797_0_B
     RDKit          3D

 20 21  0  0  0  0  0  0  0  0999 V2000
   -4.6300   29.9650  -15.2250 N   0  0  0  0  0  0  0  0  0  0  0  0
   -3.7170   30.9700  -15.3940 C   0  0  0  0  0  0  0  0  0  0  0  0
   -3.9030   32.1060  -14.9830 O   0  0  0  0  0  0  0  0  0  0  0  0
   -5.6730   30.1650  -14.2580 C   0  0  2  0  0  0  0  0  0  0  0  0
   -2.4450   30.5830  -16.1420 C   0  0  0  0  0  0  0  0  0  0  0  0
   -5.3540   29.5180  -12.8990 C   0  0  2  0  0  0  0  0  0  0  0  0
   -7.0490   29.8450  -14.8300 C   0  0  0  0  0  0  0  0  0  0  0  0
   -4.3890   28.3450  -12.9690 C   0  0  0  0  0  0  0  0  0  0  0  0
   -2.2830   31.4370  -17.3410 N   0  0  0  0  0  0  0  0  0  0  0  0
   -6.6700   29.2930  -12.1790 C   0  0  2  0  0  0  0  0  0  0  0  0
   -8.0190   29.1210  -14.2090 C   0  0  0  0  0  0  0  0  0  0  0  0
   -6.3560   28.8360  -10.5550 Cl  0  0  0  0  0  0  0  0  0  0  0  0
   -7.8200   28.5000  -12.8310 C   0  0  1  0  0  0  0  0  0  0  0  0
   -7.9620   26.9620  -12.8900 C   0  0  1  0  0  0  0  0  0  0  0  0
   -8.9330   28.5790  -11.7520 C   0  0  0  0  0  0  0  0  0  0  0  0
   -7.1810   26.1330  -13.8490 C   0  0  0  0  0  0  0  0  0  0  0  0
   -8.6030   27.5630  -10.7650 O   0  0  0  0  0  0  0  0  0  0  0  0
   -7.8840   26.5230  -11.4440 C   0  0  0  0  0  0  0  0  0  0  0  0
   -7.7270   26.1900  -15.0810 O   0  0  0  0  0  0  0  0  0  0  0  0
   -6.1890   25.4630  -13.6440 O   0  0  0  0  0  0  0  0  0  0  0  0
  1  2  1  0
  2  3  2  0
  4  1  1  6
  2  5  1  0
  4  6  1  0
  4  7  1  0
  6  8  1  6
  5  9  1  0
  6 10  1  0
  7 11  2  0
 10 12  1  1
 10 13  1  0
 13 11  1  6
 13 14  1  0
 13 15  1  0
 14 16  1  6
 15 17  1  0
 14 18  1  0
 17 18  1  0
 16 19  1  0
 16 20  2  0
M  END
