diamond-x0950_1_A-diamond-x0631_0_A
     RDKit          3D

 24 25  0  0  0  0  0  0  0  0999 V2000
    1.0670   13.9450   -4.7130 C   0  0  0  0  0  0  0  0  0  0  0  0
    1.2510   12.4700   -4.3800 C   0  0  2  0  0  0  0  0  0  0  0  0
    0.3500   11.6490   -5.1370 O   0  0  0  0  0  0  0  0  0  0  0  0
    0.8990   12.1700   -2.9230 C   0  0  0  0  0  0  0  0  0  0  0  0
    0.1310   11.2890   -2.5650 O   0  0  0  0  0  0  0  0  0  0  0  0
    1.5330   12.9850   -2.0520 O   0  0  0  0  0  0  0  0  0  0  0  0
    0.9030   10.3440   -5.1810 C   0  0  0  0  0  0  0  0  0  0  0  0
   -0.1370    9.2510   -5.4120 C   0  0  0  0  0  0  0  0  0  0  0  0
   -1.0270    9.3920   -6.6650 C   0  0  2  0  0  0  0  0  0  0  0  0
   -1.6640    8.0570   -7.0780 C   0  0  0  0  0  0  0  0  0  0  0  0
   -0.4080   10.1150   -7.7880 N   0  0  0  0  0  0  0  0  0  0  0  0
   -2.9090    8.3120   -7.9110 C   0  0  0  0  0  0  0  0  0  0  0  0
    0.6270   10.9850   -7.4260 N   0  0  0  0  0  0  0  0  0  0  0  0
   -0.0390    9.3810   -8.9840 N   0  0  0  0  0  0  0  0  0  0  0  0
    1.1910   11.3160   -8.6950 N   0  0  0  0  0  0  0  0  0  0  0  0
    1.1290   10.0860   -9.4510 C   0  0  2  0  0  0  0  0  0  0  0  0
    1.2930   10.3410  -10.8550 N   0  0  0  0  0  0  0  0  0  0  0  0
    2.0820    9.4600  -11.6950 C   0  0  2  0  0  0  0  0  0  0  0  0
    3.0500    8.7300  -10.9610 O   0  0  0  0  0  0  0  0  0  0  0  0
    2.6620    9.9930  -13.0360 C   0  0  2  0  0  0  0  0  0  0  0  0
    4.0340    9.6640  -13.2680 O   0  0  0  0  0  0  0  0  0  0  0  0
    2.5860   11.4840  -13.2980 C   0  0  0  0  0  0  0  0  0  0  0  0
    3.5440   11.6610  -14.4560 C   0  0  0  0  0  0  0  0  0  0  0  0
    4.3910   10.3990  -14.4490 C   0  0  0  0  0  0  0  0  0  0  0  0
  2  1  1  6
  2  3  1  0
  2  4  1  0
  4  5  2  0
  4  6  1  0
  3  7  1  0
  7  8  1  0
  9  8  1  1
  9 10  1  0
  9 11  1  0
 10 12  1  0
 11 13  1  0
 11 14  1  0
 13 15  1  0
 14 16  1  0
 15 16  1  0
 16 17  1  6
 17 18  1  0
 18 19  1  1
 18 20  1  0
 20 21  1  0
 20 22  1  1
 22 23  1  0
 21 24  1  0
 23 24  1  0
M  END
