diamond-x0253_0_A-diamond-x0933_0_A
     RDKit          3D

 24 25  0  0  0  0  0  0  0  0999 V2000
    0.3810   11.7890   -5.2110 N   0  0  0  0  0  0  0  0  0  0  0  0
    1.0630   11.6680   -6.4120 C   0  0  0  0  0  0  0  0  0  0  0  0
    2.1240   12.2400   -6.5800 O   0  0  0  0  0  0  0  0  0  0  0  0
    1.0260   12.4340   -4.0640 C   0  0  0  0  0  0  0  0  0  0  0  0
    0.6220   11.8170   -2.7050 C   0  0  0  0  0  0  0  0  0  0  0  0
    0.4760   10.7790   -7.4750 C   0  0  0  0  0  0  0  0  0  0  0  0
    0.5870   12.4940   -1.6090 N   0  0  0  0  0  0  0  0  0  0  0  0
    0.3050   10.5000   -2.7340 O   0  0  0  0  0  0  0  0  0  0  0  0
   -0.5060    9.8590   -7.0790 C   0  0  0  0  0  0  0  0  0  0  0  0
    0.8500   10.8090   -8.8310 C   0  0  0  0  0  0  0  0  0  0  0  0
    0.9210   13.9060   -1.4890 C   0  0  0  0  0  0  0  0  0  0  0  0
   -1.1020    8.9950   -8.0080 C   0  0  0  0  0  0  0  0  0  0  0  0
    0.2640    9.9540   -9.7580 C   0  0  0  0  0  0  0  0  0  0  0  0
   -2.1520    8.0200   -7.5640 C   0  0  0  0  0  0  0  0  0  0  0  0
   -0.2070   14.6100   -0.7420 C   0  0  0  0  0  0  0  0  0  0  0  0
   -0.7110    9.0490   -9.3500 C   0  0  0  0  0  0  0  0  0  0  0  0
   -1.5420   14.4800   -1.4980 C   0  0  0  0  0  0  0  0  0  0  0  0
   -2.7820   14.3540   -0.5910 C   0  0  2  0  0  0  0  0  0  0  0  0
   -4.0360   15.0030   -1.2290 C   0  0  0  0  0  0  0  0  0  0  0  0
   -2.6220   14.8740    0.8460 C   0  0  0  0  0  0  0  0  0  0  0  0
   -5.2240   14.6800   -0.4290 N   0  0  0  0  0  0  0  0  0  0  0  0
   -3.8520   14.5780    1.5210 N   0  0  0  0  0  0  0  0  0  0  0  0
   -4.9970   15.1330    0.9100 C   0  0  2  0  0  0  0  0  0  0  0  0
   -6.1000   14.6900    1.6910 N   0  0  0  0  0  0  0  0  0  0  0  0
  1  2  1  0
  2  3  2  0
  1  4  1  0
  4  5  1  0
  2  6  1  0
  5  7  2  3
  5  8  1  0
  6  9  2  0
  6 10  1  0
  7 11  1  0
  9 12  1  0
 10 13  2  0
 12 14  1  0
 11 15  1  0
 12 16  2  0
 13 16  1  0
 15 17  1  0
 18 17  1  6
 18 19  1  0
 18 20  1  0
 19 21  1  0
 20 22  1  0
 21 23  1  0
 22 23  1  0
 23 24  1  1
M  END
