diamond-x1018_0_A-mac-x0338
     RDKit          3D

 13 14  0  0  0  0  0  0  0  0999 V2000
   -8.5570   14.8460    0.8620 Cl  0  0  0  0  0  0  0  0  0  0  0  0
   -6.9940   14.3060    0.3600 C   0  0  0  0  0  0  0  0  0  0  0  0
   -6.1510   13.5670    1.3280 C   0  0  0  0  0  0  0  0  0  0  0  0
   -6.6610   14.5800   -0.8680 N   0  0  0  0  0  0  0  0  0  0  0  0
   -5.4350   14.1430   -1.3110 N   0  0  0  0  0  0  0  0  0  0  0  0
   -4.9350   13.2070    0.9200 C   0  0  0  0  0  0  0  0  0  0  0  0
   -4.7820   15.0660   -2.1380 N   0  0  0  0  0  0  0  0  0  0  0  0
   -4.4160   13.5430   -0.4420 C   0  0  2  0  0  0  0  0  0  0  0  0
   -3.6100   14.6590   -0.2130 N   0  0  0  0  0  0  0  0  0  0  0  0
   -3.5610   15.4050   -1.4290 N   0  0  0  0  0  0  0  0  0  0  0  0
   -3.9250   15.2540    0.9640 C   0  0  0  0  0  0  0  0  0  0  0  0
   -3.0330   15.1190    1.9510 N   0  0  0  0  0  0  0  0  0  0  0  0
   -4.9740   15.8260    1.1840 O   0  0  0  0  0  0  0  0  0  0  0  0
  1  2  1  0
  2  3  1  0
  2  4  2  0
  4  5  1  0
  3  6  2  0
  5  7  1  0
  5  8  1  0
  8  6  1  1
  8  9  1  0
  7 10  1  0
  9 10  1  0
  9 11  1  0
 11 12  1  0
 11 13  2  0
M  END
