diamond-x0849_0_A-mac-x0204
     RDKit          3D

 22 24  0  0  0  0  0  0  0  0999 V2000
   -3.1690   15.7360   -2.7950 Br  0  0  0  0  0  0  0  0  0  0  0  0
   -3.2030   15.3290   -0.9540 C   0  0  0  0  0  0  0  0  0  0  0  0
   -2.0400   15.1380   -0.1590 C   0  0  0  0  0  0  0  0  0  0  0  0
   -4.4940   15.2070   -0.4430 C   0  0  0  0  0  0  0  0  0  0  0  0
   -2.3370   14.7610    1.1580 C   0  0  0  0  0  0  0  0  0  0  0  0
   -4.6110   14.8690    0.8710 C   0  0  0  0  0  0  0  0  0  0  0  0
   -0.6170   15.2540   -0.4460 C   0  0  0  0  0  0  0  0  0  0  0  0
    0.0810   15.6700   -1.6870 C   0  0  0  0  0  0  0  0  0  0  0  0
   -3.5590   14.6410    1.6440 N   0  0  0  0  0  0  0  0  0  0  0  0
   -1.4160   14.4870    2.0360 N   0  0  0  0  0  0  0  0  0  0  0  0
    0.2740   14.9660    0.4970 C   0  0  0  0  0  0  0  0  0  0  0  0
   -0.5430   15.1320   -2.7800 N   0  0  0  0  0  0  0  0  0  0  0  0
   -0.1410   14.5730    1.7090 C   0  0  0  0  0  0  0  0  0  0  0  0
   -0.3610   13.9920   -3.2170 C   0  0  0  0  0  0  0  0  0  0  0  0
    0.4810   13.0170   -2.8180 O   0  0  0  0  0  0  0  0  0  0  0  0
   -1.2820   13.7610   -4.2730 C   0  0  0  0  0  0  0  0  0  0  0  0
   -1.7760   14.9360   -4.8250 C   0  0  0  0  0  0  0  0  0  0  0  0
   -1.7110   12.5440   -4.7380 C   0  0  0  0  0  0  0  0  0  0  0  0
   -2.7000   14.8680   -5.8240 C   0  0  0  0  0  0  0  0  0  0  0  0
   -2.6230   12.4440   -5.7330 N   0  0  0  0  0  0  0  0  0  0  0  0
   -3.2150   15.9960   -6.3890 O   0  0  0  0  0  0  0  0  0  0  0  0
   -3.0990   13.6110   -6.2500 C   0  0  0  0  0  0  0  0  0  0  0  0
  1  2  1  0
  2  3  2  0
  2  4  1  0
  3  5  1  0
  4  6  2  0
  3  7  1  0
  7  8  1  0
  5  9  2  0
  6  9  1  0
  5 10  1  0
  7 11  2  0
  8 12  1  0
 10 13  2  0
 11 13  1  0
 12 14  2  3
 14 15  1  0
 14 16  1  0
 16 17  2  0
 16 18  1  0
 17 19  1  0
 18 20  2  0
 19 21  1  0
 19 22  2  0
 20 22  1  0
M  END
