diamond-x0128_0_A-mac-x0116
     RDKit          3D

 31 35  0  0  0  0  0  0  0  0999 V2000
   -6.1970   14.4190    2.0830 C   0  0  2  0  0  0  0  0  0  0  0  0
   -7.4060   15.1860    2.9150 C   0  0  0  0  0  0  0  0  0  0  0  0
   -8.4180   15.5400    2.2860 O   0  0  0  0  0  0  0  0  0  0  0  0
   -4.7280   14.8110    2.0300 N   0  0  0  0  0  0  0  0  0  0  0  0
   -6.2500   14.7790    0.6540 C   0  0  0  0  0  0  0  0  0  0  0  0
   -6.5840   12.9810    2.0860 C   0  0  0  0  0  0  0  0  0  0  0  0
   -7.2950   15.4010    4.2990 N   0  0  0  0  0  0  0  0  0  0  0  0
   -7.2690   14.4340   -0.2150 C   0  0  0  0  0  0  0  0  0  0  0  0
   -5.1380   15.5030    0.2060 C   0  0  0  0  0  0  0  0  0  0  0  0
   -3.8700   14.6930    0.8590 C   0  0  0  0  0  0  0  0  0  0  0  0
   -6.5280   12.3660    0.8580 O   0  0  0  0  0  0  0  0  0  0  0  0
   -7.0120   12.0970    3.0340 C   0  0  0  0  0  0  0  0  0  0  0  0
   -7.1630   14.8020   -1.5380 C   0  0  0  0  0  0  0  0  0  0  0  0
   -5.0400   15.8610   -1.1110 C   0  0  0  0  0  0  0  0  0  0  0  0
   -8.2060   16.0480    5.1980 C   0  0  0  0  0  0  0  0  0  0  0  0
   -4.3720   14.6360   -0.4480 N   0  0  0  0  0  0  0  0  0  0  0  0
   -2.5130   14.6180    0.8740 C   0  0  0  0  0  0  0  0  0  0  0  0
   -7.2430   10.8870    2.3600 C   0  0  0  0  0  0  0  0  0  0  0  0
   -6.9300   11.1000    1.0400 C   0  0  0  0  0  0  0  0  0  0  0  0
   -6.0580   15.5000   -1.9780 C   0  0  0  0  0  0  0  0  0  0  0  0
   -8.9460   17.1620    4.7750 C   0  0  0  0  0  0  0  0  0  0  0  0
   -8.4280   15.6500    6.5190 C   0  0  0  0  0  0  0  0  0  0  0  0
   -3.5890   14.5760   -1.5800 C   0  0  0  0  0  0  0  0  0  0  0  0
   -1.7440   14.5420   -0.3900 C   0  0  0  0  0  0  0  0  0  0  0  0
   -1.6020   14.5990    1.8730 N   0  0  0  0  0  0  0  0  0  0  0  0
   -9.8310   17.8570    5.5360 N   0  0  0  0  0  0  0  0  0  0  0  0
   -9.3340   16.3460    7.3290 C   0  0  0  0  0  0  0  0  0  0  0  0
   -2.3090   14.5270   -1.6200 N   0  0  0  0  0  0  0  0  0  0  0  0
   -0.4780   14.5150   -0.1390 N   0  0  0  0  0  0  0  0  0  0  0  0
   -0.4650   14.5550    1.2430 C   0  0  0  0  0  0  0  0  0  0  0  0
  -10.0060   17.4340    6.7990 C   0  0  0  0  0  0  0  0  0  0  0  0
  1  2  1  0
  2  3  2  0
  1  4  1  1
  1  5  1  0
  1  6  1  0
  2  7  1  0
  5  8  2  0
  5  9  1  0
  4 10  1  0
  6 11  1  0
  6 12  2  0
  8 13  1  0
  9 14  2  0
  7 15  1  0
 10 16  1  0
 10 17  2  0
 12 18  1  0
 11 19  1  0
 18 19  2  0
 13 20  2  0
 14 20  1  0
 15 21  2  0
 15 22  1  0
 16 23  1  0
 17 24  1  0
 17 25  1  0
 21 26  1  0
 22 27  2  0
 23 28  2  0
 24 28  1  0
 24 29  2  0
 25 30  2  0
 29 30  1  0
 26 31  2  0
 27 31  1  0
M  END
