diamond-x0421_0_A-mac-x0564
     RDKit          3D

 25 29  0  0  0  0  0  0  0  0999 V2000
   -1.2980   13.1820   -0.2910 N   0  0  0  0  0  0  0  0  0  0  0  0
   -1.8260   14.4680   -0.5010 C   0  0  2  0  0  0  0  0  0  0  0  0
   -0.6870   15.2720   -0.3370 O   0  0  0  0  0  0  0  0  0  0  0  0
   -2.9210   14.6650    0.4750 C   0  0  0  0  0  0  0  0  0  0  0  0
   -2.3030   14.5260   -1.8260 C   0  0  0  0  0  0  0  0  0  0  0  0
   -2.7230   15.1260    1.6940 C   0  0  0  0  0  0  0  0  0  0  0  0
   -4.2690   14.3930    0.2650 N   0  0  0  0  0  0  0  0  0  0  0  0
   -1.5730   14.3440   -2.8830 C   0  0  0  0  0  0  0  0  0  0  0  0
   -3.6910   14.7300   -2.1580 C   0  0  0  0  0  0  0  0  0  0  0  0
   -3.9310   15.1720    2.2840 N   0  0  0  0  0  0  0  0  0  0  0  0
   -4.8520   14.7150    1.3980 C   0  0  0  0  0  0  0  0  0  0  0  0
   -0.1430   14.0960   -3.0820 C   0  0  0  0  0  0  0  0  0  0  0  0
   -2.4480   14.3750   -4.0300 C   0  0  0  0  0  0  0  0  0  0  0  0
   -4.8040   14.9940   -1.3720 C   0  0  0  0  0  0  0  0  0  0  0  0
   -3.8080   14.6030   -3.5230 C   0  0  0  0  0  0  0  0  0  0  0  0
    0.6670   14.0430   -2.1550 O   0  0  0  0  0  0  0  0  0  0  0  0
   -6.3720   14.5860    1.6910 C   0  0  0  0  0  0  0  0  0  0  0  0
   -2.0230   14.2080   -5.2260 N   0  0  0  0  0  0  0  0  0  0  0  0
    0.2130   13.9240   -4.3780 N   0  0  0  0  0  0  0  0  0  0  0  0
   -5.0250   14.6930   -4.1610 C   0  0  0  0  0  0  0  0  0  0  0  0
   -6.0420   15.1010   -1.9820 C   0  0  0  0  0  0  0  0  0  0  0  0
   -7.4040   14.4710    0.6030 C   0  0  0  0  0  0  0  0  0  0  0  0
   -7.0570   13.2720    1.4370 C   0  0  0  0  0  0  0  0  0  0  0  0
   -0.6590   13.9790   -5.3280 C   0  0  0  0  0  0  0  0  0  0  0  0
   -6.1540   14.9400   -3.3620 C   0  0  0  0  0  0  0  0  0  0  0  0
  2  1  1  1
  2  3  1  0
  2  4  1  0
  2  5  1  0
  4  6  2  0
  4  7  1  0
  5  8  2  0
  5  9  1  0
  6 10  1  0
  7 11  2  0
 10 11  1  0
  8 12  1  0
  8 13  1  0
  9 14  1  0
  9 15  2  0
 13 15  1  0
 12 16  2  0
 11 17  1  0
 13 18  2  0
 12 19  1  0
 15 20  1  0
 14 21  2  0
 17 22  1  0
 17 23  1  0
 22 23  1  0
 18 24  1  0
 19 24  2  0
 20 25  2  0
 21 25  1  0
M  END
