diamond-x0962_1_A-mac-x0472
     RDKit          3D

 20 22  0  0  0  0  0  0  0  0999 V2000
   -3.7760   14.3710   -2.1840 N   0  0  1  0  0  0  0  0  0  0  0  0
   -4.9590   15.2510   -1.7170 C   0  0  0  0  0  0  0  0  0  0  0  0
   -5.8900   14.8850   -0.5720 C   0  0  0  0  0  0  0  0  0  0  0  0
   -3.3710   14.6790   -3.4640 O   0  0  0  0  0  0  0  0  0  0  0  0
   -2.5250   14.5750   -1.4560 N   0  0  0  0  0  0  0  0  0  0  0  0
   -4.2150   12.8950   -2.1420 C   0  0  0  0  0  0  0  0  0  0  0  0
   -2.6500   14.7000   -0.1480 C   0  0  0  0  0  0  0  0  0  0  0  0
   -3.3650   11.8440   -2.5510 C   0  0  0  0  0  0  0  0  0  0  0  0
   -5.4980   12.5460   -1.6880 C   0  0  0  0  0  0  0  0  0  0  0  0
   -5.5300   14.4140    0.6840 N   0  0  0  0  0  0  0  0  0  0  0  0
   -7.2630   14.9400   -0.5110 C   0  0  0  0  0  0  0  0  0  0  0  0
   -1.9730   14.0950    0.7870 N   0  0  0  0  0  0  0  0  0  0  0  0
   -3.8590   15.7730    0.4370 S   0  0  0  0  0  0  0  0  0  0  0  0
   -3.7930   10.5110   -2.5070 C   0  0  0  0  0  0  0  0  0  0  0  0
   -5.9240   11.2190   -1.6420 C   0  0  0  0  0  0  0  0  0  0  0  0
   -6.6690   14.2230    1.4120 C   0  0  0  0  0  0  0  0  0  0  0  0
   -7.7360   14.5310    0.7130 N   0  0  0  0  0  0  0  0  0  0  0  0
   -3.4050   15.2970    1.9820 C   0  0  0  0  0  0  0  0  0  0  0  0
   -2.4170   14.4410    2.0240 N   0  0  0  0  0  0  0  0  0  0  0  0
   -5.0710   10.2040   -2.0540 C   0  0  0  0  0  0  0  0  0  0  0  0
  1  2  1  0
  2  3  1  0
  1  4  1  6
  1  5  1  0
  1  6  1  0
  5  7  1  0
  6  8  2  0
  6  9  1  0
  3 10  1  0
  3 11  2  0
  7 12  2  0
  7 13  1  0
  8 14  1  0
  9 15  2  0
 10 16  1  0
 11 17  1  0
 16 17  2  0
 13 18  1  0
 12 19  1  0
 18 19  2  0
 14 20  2  0
 15 20  1  0
M  CHG  2   1   1   4  -1
M  END
