diamond-x0471_0_A-mac-x0358
     RDKit          3D

 29 31  0  0  0  0  0  0  0  0999 V2000
   -8.7740   14.0060    2.6430 N   0  0  0  0  0  0  0  0  0  0  0  0
   -8.9440   14.9530    3.6270 C   0  0  0  0  0  0  0  0  0  0  0  0
   -9.2810   16.1070    3.3860 O   0  0  0  0  0  0  0  0  0  0  0  0
   -8.8210   14.3480    1.2330 C   0  0  0  0  0  0  0  0  0  0  0  0
   -8.6800   14.4230    5.0400 C   0  0  0  0  0  0  0  0  0  0  0  0
   -7.4270   14.6150    0.7730 C   0  0  0  0  0  0  0  0  0  0  0  0
   -9.9000   13.6770    5.5810 C   0  0  0  0  0  0  0  0  0  0  0  0
   -8.2920   15.5650    5.9770 C   0  0  0  0  0  0  0  0  0  0  0  0
   -7.0760   14.8190   -0.5500 N   0  0  0  0  0  0  0  0  0  0  0  0
   -6.3720   14.6960    1.5470 N   0  0  0  0  0  0  0  0  0  0  0  0
   -5.3100   14.9640    0.7250 C   0  0  0  0  0  0  0  0  0  0  0  0
   -5.7110   15.0460   -0.6010 C   0  0  0  0  0  0  0  0  0  0  0  0
   -4.8170   15.3100   -1.6560 C   0  0  0  0  0  0  0  0  0  0  0  0
   -3.9660   15.1500    1.0580 C   0  0  0  0  0  0  0  0  0  0  0  0
   -3.4560   15.4910   -1.3040 C   0  0  0  0  0  0  0  0  0  0  0  0
   -3.0570   15.4120    0.0380 C   0  0  0  0  0  0  0  0  0  0  0  0
   -2.3560   15.7670   -2.3130 C   0  0  0  0  0  0  0  0  0  0  0  0
   -2.7800   16.0010   -3.7720 C   0  0  0  0  0  0  0  0  0  0  0  0
   -2.3110   14.7990   -4.5060 C   0  0  0  0  0  0  0  0  0  0  0  0
   -3.1190   14.0960   -5.3990 C   0  0  0  0  0  0  0  0  0  0  0  0
   -1.0150   14.3690   -4.2410 C   0  0  0  0  0  0  0  0  0  0  0  0
   -0.5040   13.2280   -4.8310 C   0  0  0  0  0  0  0  0  0  0  0  0
   -2.6180   12.9450   -6.0050 C   0  0  0  0  0  0  0  0  0  0  0  0
    0.8910   12.7940   -4.4900 C   0  0  0  0  0  0  0  0  0  0  0  0
   -1.3220   12.5220   -5.7060 C   0  0  0  0  0  0  0  0  0  0  0  0
    0.9200   12.1510   -3.1180 C   0  0  0  0  0  0  0  0  0  0  0  0
   -0.8160   11.3850   -6.2670 O   0  0  0  0  0  0  0  0  0  0  0  0
    1.5720   12.8620   -2.1710 O   0  0  0  0  0  0  0  0  0  0  0  0
    0.3930   11.0790   -2.8640 O   0  0  0  0  0  0  0  0  0  0  0  0
  1  2  1  0
  2  3  2  0
  1  4  1  0
  2  5  1  0
  4  6  1  0
  5  7  1  0
  5  8  1  0
  6  9  1  0
  6 10  2  0
 10 11  1  0
  9 12  1  0
 11 12  2  0
 12 13  1  0
 11 14  1  0
 13 15  2  0
 14 16  2  0
 15 16  1  0
 15 17  1  0
 17 18  1  0
 18 19  1  0
 19 20  2  0
 19 21  1  0
 21 22  2  0
 20 23  1  0
 22 24  1  0
 22 25  1  0
 23 25  2  0
 24 26  1  0
 25 27  1  0
 26 28  1  0
 26 29  2  0
M  END
