diamond-x0910_0_A-mac-x0271
     RDKit          3D

 17 19  0  0  0  0  0  0  0  0999 V2000
   -2.6100   14.5750   -1.3890 N   0  0  0  0  0  0  0  0  0  0  0  0
   -1.6320   14.7340   -0.5190 C   0  0  0  0  0  0  0  0  0  0  0  0
   -1.9050   14.5950    0.8130 N   0  0  0  0  0  0  0  0  0  0  0  0
   -3.9620   14.7480   -1.0920 C   0  0  0  0  0  0  0  0  0  0  0  0
   -0.3710   15.0230   -0.6650 N   0  0  0  0  0  0  0  0  0  0  0  0
   -4.8000   15.0100   -2.1710 C   0  0  0  0  0  0  0  0  0  0  0  0
   -4.5200   14.6720    0.1970 C   0  0  0  0  0  0  0  0  0  0  0  0
   -0.8230   14.8020    1.5510 N   0  0  0  0  0  0  0  0  0  0  0  0
    0.0750   15.0680    0.6100 C   0  0  0  0  0  0  0  0  0  0  0  0
   -6.1640   15.1890   -1.9950 C   0  0  0  0  0  0  0  0  0  0  0  0
   -5.8920   14.8520    0.3840 C   0  0  0  0  0  0  0  0  0  0  0  0
   -6.6910   15.1050   -0.7190 C   0  0  0  0  0  0  0  0  0  0  0  0
   -6.5320   14.7850    1.6890 C   0  0  0  0  0  0  0  0  0  0  0  0
   -7.8620   14.8330    1.7910 C   0  0  0  0  0  0  0  0  0  0  0  0
   -8.0780   15.2830   -0.5810 O   0  0  0  0  0  0  0  0  0  0  0  0
   -8.7190   14.9700    0.6060 C   0  0  0  0  0  0  0  0  0  0  0  0
   -9.9300   14.8280    0.6880 O   0  0  0  0  0  0  0  0  0  0  0  0
  1  2  1  0
  2  3  1  0
  1  4  1  0
  2  5  2  0
  4  6  2  0
  4  7  1  0
  3  8  1  0
  5  9  1  0
  8  9  2  0
  6 10  1  0
  7 11  2  0
 10 12  2  0
 11 12  1  0
 11 13  1  0
 13 14  2  0
 12 15  1  0
 14 16  1  0
 15 16  1  0
 16 17  2  0
M  END
