diamond-x0895_0_A-mac-x0321
     RDKit          3D

 17 18  0  0  0  0  0  0  0  0999 V2000
   -2.0620   14.2960    2.0810 O   0  0  0  0  0  0  0  0  0  0  0  0
   -3.0870   14.7670    1.6030 C   0  0  0  0  0  0  0  0  0  0  0  0
   -4.1280   15.6940    2.1650 C   0  0  0  0  0  0  0  0  0  0  0  0
   -3.5950   14.6480    0.3650 N   0  0  0  0  0  0  0  0  0  0  0  0
   -3.8260   16.6620    1.1370 N   0  0  0  0  0  0  0  0  0  0  0  0
   -3.9400   15.9240    0.0150 C   0  0  0  0  0  0  0  0  0  0  0  0
   -4.2640   16.1200   -1.1990 N   0  0  0  0  0  0  0  0  0  0  0  0
   -4.2680   14.8610   -1.5580 C   0  0  0  0  0  0  0  0  0  0  0  0
   -3.3350   14.1180   -2.2700 C   0  0  0  0  0  0  0  0  0  0  0  0
   -5.4350   14.3500   -1.0330 C   0  0  0  0  0  0  0  0  0  0  0  0
   -2.0560   14.6100   -2.8770 C   0  0  0  0  0  0  0  0  0  0  0  0
   -3.6490   12.7740   -2.4040 C   0  0  0  0  0  0  0  0  0  0  0  0
   -5.7310   13.0580   -1.1680 C   0  0  0  0  0  0  0  0  0  0  0  0
   -0.9540   14.5160   -2.1000 O   0  0  0  0  0  0  0  0  0  0  0  0
   -2.0130   15.0640   -4.0120 O   0  0  0  0  0  0  0  0  0  0  0  0
   -4.8360   12.2820   -1.8430 C   0  0  0  0  0  0  0  0  0  0  0  0
   -5.2430   10.6500   -1.9700 Cl  0  0  0  0  0  0  0  0  0  0  0  0
  1  2  2  0
  2  3  1  0
  2  4  1  0
  3  5  1  0
  4  6  1  0
  5  6  1  0
  6  7  2  3
  7  8  1  0
  8  9  2  0
  8 10  1  0
  9 11  1  0
  9 12  1  0
 10 13  2  0
 11 14  1  0
 11 15  2  0
 12 16  2  0
 13 16  1  0
 16 17  1  0
M  END
