diamond-x0900_0_A-mac-x0381
     RDKit          3D

 21 23  0  0  0  0  0  0  0  0999 V2000
   -6.9700   15.1480   -0.9050 O   0  0  0  0  0  0  0  0  0  0  0  0
   -5.8730   14.9800   -0.4040 C   0  0  0  0  0  0  0  0  0  0  0  0
   -4.6680   15.1850   -1.0360 N   0  0  0  0  0  0  0  0  0  0  0  0
   -5.5860   14.4990    1.0060 C   0  0  1  0  0  0  0  0  0  0  0  0
   -6.2930   13.1810    1.3110 C   0  0  0  0  0  0  0  0  0  0  0  0
   -4.0600   14.5440    1.1060 C   0  0  0  0  0  0  0  0  0  0  0  0
   -3.6340   15.3810   -0.0740 C   0  0  0  0  0  0  0  0  0  0  0  0
   -7.6280   13.3060    2.0430 C   0  0  0  0  0  0  0  0  0  0  0  0
   -7.4120   13.7960    3.3920 N   0  0  0  0  0  0  0  0  0  0  0  0
   -8.1810   14.5730    4.0270 C   0  0  0  0  0  0  0  0  0  0  0  0
   -7.7460   14.8600    5.2840 N   0  0  0  0  0  0  0  0  0  0  0  0
   -9.4630   15.1540    3.5460 C   0  0  0  0  0  0  0  0  0  0  0  0
   -9.5130   15.8830    2.3530 C   0  0  0  0  0  0  0  0  0  0  0  0
  -10.6120   14.9540    4.3050 C   0  0  0  0  0  0  0  0  0  0  0  0
  -10.7330   16.4270    1.9060 C   0  0  0  0  0  0  0  0  0  0  0  0
  -11.8270   15.4850    3.8700 C   0  0  0  0  0  0  0  0  0  0  0  0
  -11.9060   16.2200    2.6760 C   0  0  0  0  0  0  0  0  0  0  0  0
  -10.8220   17.1690    0.7140 C   0  0  0  0  0  0  0  0  0  0  0  0
  -13.1270   16.7530    2.2350 C   0  0  0  0  0  0  0  0  0  0  0  0
  -12.0460   17.6940    0.2920 C   0  0  0  0  0  0  0  0  0  0  0  0
  -13.1960   17.4860    1.0490 C   0  0  0  0  0  0  0  0  0  0  0  0
  1  2  2  0
  2  3  1  0
  2  4  1  0
  4  5  1  6
  4  6  1  0
  3  7  1  0
  6  7  1  0
  5  8  1  0
  8  9  1  0
  9 10  2  3
 10 11  1  0
 10 12  1  0
 12 13  2  0
 12 14  1  0
 13 15  1  0
 14 16  2  0
 15 17  2  0
 16 17  1  0
 15 18  1  0
 17 19  1  0
 18 20  2  0
 19 21  2  0
 20 21  1  0
M  END
