diamond-x0282_0_A-mac-x0436
     RDKit          3D

 31 34  0  0  0  0  0  0  0  0999 V2000
   -7.2340   13.3800    0.2810 C   0  0  0  0  0  0  0  0  0  0  0  0
   -8.6240   13.6670    0.1230 O   0  0  0  0  0  0  0  0  0  0  0  0
   -6.5440   14.7040    0.5680 C   0  0  0  0  0  0  0  0  0  0  0  0
   -5.6820   14.6200    1.8310 C   0  0  0  0  0  0  0  0  0  0  0  0
   -5.8000   15.2820   -0.6630 C   0  0  0  0  0  0  0  0  0  0  0  0
   -4.3320   14.0090    1.5300 C   0  0  0  0  0  0  0  0  0  0  0  0
   -4.3130   14.9280   -0.7450 C   0  0  0  0  0  0  0  0  0  0  0  0
   -3.6810   14.8370    0.5690 N   0  0  0  0  0  0  0  0  0  0  0  0
   -2.3660   14.5540    0.5230 C   0  0  0  0  0  0  0  0  0  0  0  0
   -2.0280   13.8270   -0.5110 N   0  0  0  0  0  0  0  0  0  0  0  0
   -1.4910   14.9690    1.4620 N   0  0  0  0  0  0  0  0  0  0  0  0
   -0.7710   13.4930   -0.6350 C   0  0  0  0  0  0  0  0  0  0  0  0
   -0.2180   14.6080    1.2610 C   0  0  0  0  0  0  0  0  0  0  0  0
   -0.4290   12.6360   -1.7720 C   0  0  0  0  0  0  0  0  0  0  0  0
    0.1810   13.8650    0.2050 C   0  0  0  0  0  0  0  0  0  0  0  0
    0.3210   13.3170   -2.7630 N   0  0  0  0  0  0  0  0  0  0  0  0
    0.9270   12.4990   -3.4540 C   0  0  0  0  0  0  0  0  0  0  0  0
    0.8720   11.1940   -3.1920 O   0  0  0  0  0  0  0  0  0  0  0  0
    1.6710   12.9900   -4.6260 C   0  0  0  0  0  0  0  0  0  0  0  0
    0.5610   13.2560   -5.6250 C   0  0  0  0  0  0  0  0  0  0  0  0
   -0.2650   11.9980   -5.8470 C   0  0  0  0  0  0  0  0  0  0  0  0
   -1.5230   11.7440   -4.9950 C   0  0  0  0  0  0  0  0  0  0  0  0
    0.1330   11.1770   -6.7640 N   0  0  0  0  0  0  0  0  0  0  0  0
   -1.8570   12.5310   -4.1200 O   0  0  0  0  0  0  0  0  0  0  0  0
   -2.2210   10.5960   -5.2880 N   0  0  0  0  0  0  0  0  0  0  0  0
   -0.6130   10.0160   -6.9910 C   0  0  0  0  0  0  0  0  0  0  0  0
   -1.7800    9.7080   -6.2750 C   0  0  0  0  0  0  0  0  0  0  0  0
   -0.1700    9.1380   -7.9730 C   0  0  0  0  0  0  0  0  0  0  0  0
   -0.8770    7.9660   -8.2450 C   0  0  0  0  0  0  0  0  0  0  0  0
   -2.4920    8.5410   -6.5380 C   0  0  0  0  0  0  0  0  0  0  0  0
   -2.0360    7.6690   -7.5290 C   0  0  0  0  0  0  0  0  0  0  0  0
  1  2  1  0
  1  3  1  0
  3  4  1  0
  3  5  1  0
  4  6  1  0
  5  7  1  0
  6  8  1  0
  7  8  1  0
  8  9  1  0
  9 10  2  0
  9 11  1  0
 10 12  1  0
 11 13  2  0
 12 14  1  0
 12 15  2  0
 13 15  1  0
 14 16  1  0
 16 17  2  3
 17 18  1  0
 17 19  1  0
 19 20  1  0
 20 21  1  0
 21 22  1  0
 21 23  2  0
 22 24  2  0
 22 25  1  0
 23 26  1  0
 25 27  1  0
 26 27  2  0
 26 28  1  0
 28 29  2  0
 27 30  1  0
 29 31  1  0
 30 31  2  0
M  END
