diamond-x0967_0_A-mac-x0223
     RDKit          3D

 26 28  0  0  0  0  0  0  0  0999 V2000
    1.0980   18.3930   -5.4910 C   0  0  0  0  0  0  0  0  0  0  0  0
   -0.1980   18.0780   -4.9950 O   0  0  0  0  0  0  0  0  0  0  0  0
   -0.3890   16.7270   -4.8660 C   0  0  0  0  0  0  0  0  0  0  0  0
   -1.6710   16.1730   -5.1070 C   0  0  0  0  0  0  0  0  0  0  0  0
    0.6470   15.8490   -4.5060 C   0  0  0  0  0  0  0  0  0  0  0  0
   -2.7600   16.8750   -5.4630 O   0  0  0  0  0  0  0  0  0  0  0  0
   -1.8590   14.8100   -4.9900 C   0  0  0  0  0  0  0  0  0  0  0  0
    0.4090   14.4640   -4.3940 C   0  0  0  0  0  0  0  0  0  0  0  0
    1.4650   13.4840   -4.0080 C   0  0  0  0  0  0  0  0  0  0  0  0
   -3.7600   15.8820   -5.7860 C   0  0  0  0  0  0  0  0  0  0  0  0
   -0.8480   13.9690   -4.6410 C   0  0  0  0  0  0  0  0  0  0  0  0
    0.9050   12.5270   -2.9830 C   0  0  0  0  0  0  0  0  0  0  0  0
   -4.1530   14.9370   -4.5900 C   0  0  0  0  0  0  0  0  0  0  0  0
    0.3120   11.4880   -3.2460 O   0  0  0  0  0  0  0  0  0  0  0  0
    1.0970   12.9350   -1.7120 O   0  0  0  0  0  0  0  0  0  0  0  0
   -3.3040   15.1120   -3.3010 C   0  0  0  0  0  0  0  0  0  0  0  0
   -4.0030   15.0350   -1.9550 C   0  0  0  0  0  0  0  0  0  0  0  0
   -5.3410   14.8500   -1.9550 N   0  0  0  0  0  0  0  0  0  0  0  0
   -3.2730   15.1570   -0.7790 C   0  0  0  0  0  0  0  0  0  0  0  0
   -5.9940   14.7870   -0.8000 C   0  0  0  0  0  0  0  0  0  0  0  0
   -3.9440   15.1010    0.4290 C   0  0  0  0  0  0  0  0  0  0  0  0
   -7.3150   14.5970   -0.8390 N   0  0  0  0  0  0  0  0  0  0  0  0
   -5.3270   14.9140    0.4220 C   0  0  0  0  0  0  0  0  0  0  0  0
   -6.0700   14.8500    1.6000 C   0  0  0  0  0  0  0  0  0  0  0  0
   -8.0060   14.5310    0.3160 C   0  0  0  0  0  0  0  0  0  0  0  0
   -7.4320   14.6510    1.5540 C   0  0  0  0  0  0  0  0  0  0  0  0
  1  2  1  0
  2  3  1  0
  3  4  2  0
  3  5  1  0
  4  6  1  0
  4  7  1  0
  5  8  2  0
  8  9  1  0
  6 10  1  0
  7 11  2  0
  8 11  1  0
  9 12  1  0
 10 13  1  0
 12 14  2  0
 12 15  1  0
 13 16  1  0
 16 17  1  0
 17 18  2  0
 17 19  1  0
 18 20  1  0
 19 21  2  0
 20 22  2  0
 20 23  1  0
 21 23  1  0
 23 24  2  0
 22 25  1  0
 24 26  1  0
 25 26  2  0
M  END
