diamond-x0371_0_A-mac-x0124
     RDKit          3D

 29 33  0  0  0  0  0  0  0  0999 V2000
   -8.4940   14.2770    3.0650 N   0  0  0  0  0  0  0  0  0  0  0  0
   -8.9030   15.4190    3.6990 C   0  0  0  0  0  0  0  0  0  0  0  0
   -9.4070   16.2910    2.9840 O   0  0  0  0  0  0  0  0  0  0  0  0
   -8.7530   13.8530    1.7160 C   0  0  0  0  0  0  0  0  0  0  0  0
   -7.6320   14.2910    0.8700 C   0  0  0  0  0  0  0  0  0  0  0  0
   -8.7440   15.5340    5.1230 C   0  0  0  0  0  0  0  0  0  0  0  0
   -6.3840   14.5280    1.3750 N   0  0  0  0  0  0  0  0  0  0  0  0
   -7.6720   14.5090   -0.4290 N   0  0  0  0  0  0  0  0  0  0  0  0
   -8.1230   14.4730    5.7260 O   0  0  0  0  0  0  0  0  0  0  0  0
   -9.0630   16.4650    6.0890 C   0  0  0  0  0  0  0  0  0  0  0  0
   -6.4090   14.9010   -0.7670 C   0  0  0  0  0  0  0  0  0  0  0  0
   -5.6040   14.9220    0.3520 C   0  0  0  0  0  0  0  0  0  0  0  0
   -8.6140   15.9370    7.3310 C   0  0  0  0  0  0  0  0  0  0  0  0
   -8.0490   14.7230    7.0480 C   0  0  0  0  0  0  0  0  0  0  0  0
   -4.3050   15.2790    0.3280 C   0  0  0  0  0  0  0  0  0  0  0  0
   -5.8910   15.2500   -2.0150 C   0  0  0  0  0  0  0  0  0  0  0  0
   -3.5150   15.2940    1.4010 N   0  0  0  0  0  0  0  0  0  0  0  0
   -3.8000   15.6290   -0.9210 C   0  0  0  0  0  0  0  0  0  0  0  0
   -4.5600   15.6140   -2.0790 C   0  0  0  0  0  0  0  0  0  0  0  0
   -2.2480   15.0610    1.0160 C   0  0  0  0  0  0  0  0  0  0  0  0
   -2.0010   15.2200   -0.3700 C   0  0  0  0  0  0  0  0  0  0  0  0
   -1.2790   14.7040    1.8110 N   0  0  0  0  0  0  0  0  0  0  0  0
   -2.7720   15.5770   -1.5240 C   0  0  0  0  0  0  0  0  0  0  0  0
   -0.7320   14.9950   -0.8220 C   0  0  0  0  0  0  0  0  0  0  0  0
   -0.0990   14.5190    1.2530 C   0  0  0  0  0  0  0  0  0  0  0  0
   -0.7060   15.2000   -2.1880 N   0  0  0  0  0  0  0  0  0  0  0  0
   -1.9550   15.5540   -2.6240 C   0  0  0  0  0  0  0  0  0  0  0  0
    0.2900   14.6380   -0.0460 N   0  0  0  0  0  0  0  0  0  0  0  0
    0.4530   15.0660   -3.0340 C   0  0  0  0  0  0  0  0  0  0  0  0
  1  2  1  0
  2  3  2  0
  1  4  1  0
  4  5  1  0
  2  6  1  0
  5  7  1  0
  5  8  2  0
  6  9  1  0
  6 10  2  0
  8 11  1  0
  7 12  1  0
 11 12  2  0
 10 13  1  0
  9 14  1  0
 13 14  2  0
 12 15  1  0
 11 16  1  0
 15 17  1  0
 15 18  2  0
 16 19  2  0
 18 19  1  0
 17 20  1  0
 20 21  1  0
 20 22  2  0
 21 23  1  0
 21 24  2  0
 22 25  1  0
 24 26  1  0
 23 27  2  0
 26 27  1  0
 24 28  1  0
 25 28  2  0
 26 29  1  0
M  END
