diamond-x0681_0_A-mac-x0564
     RDKit          3D

 26 30  0  0  0  0  0  0  0  0999 V2000
   -4.1690   14.0470   -1.5260 N   0  0  0  0  0  0  0  0  0  0  0  0
   -3.5370   14.5920   -0.4360 C   0  0  0  0  0  0  0  0  0  0  0  0
   -2.3200   14.9330   -0.6710 N   0  0  0  0  0  0  0  0  0  0  0  0
   -4.3750   14.7160    0.8010 C   0  0  1  0  0  0  0  0  0  0  0  0
   -5.4250   13.6730    0.8330 C   0  0  0  0  0  0  0  0  0  0  0  0
   -3.6290   14.6380    2.1060 C   0  0  0  0  0  0  0  0  0  0  0  0
   -2.1440   14.7140   -1.9550 C   0  0  0  0  0  0  0  0  0  0  0  0
   -6.1500   13.5520    1.9640 N   0  0  0  0  0  0  0  0  0  0  0  0
   -4.6170   15.1910    3.1290 C   0  0  0  0  0  0  0  0  0  0  0  0
   -5.7910   12.7990   -0.0870 N   0  0  0  0  0  0  0  0  0  0  0  0
   -1.1200   14.4670   -2.7590 C   0  0  0  0  0  0  0  0  0  0  0  0
   -3.3780   14.7350   -2.7180 C   0  0  0  0  0  0  0  0  0  0  0  0
   -5.9470   14.3950    3.1390 C   0  0  0  0  0  0  0  0  0  0  0  0
   -7.0450   12.5340    1.7770 C   0  0  0  0  0  0  0  0  0  0  0  0
   -6.8050   12.0830    0.4950 C   0  0  0  0  0  0  0  0  0  0  0  0
    0.3230   14.3180   -2.5970 C   0  0  0  0  0  0  0  0  0  0  0  0
   -1.6640   14.3270   -4.1120 C   0  0  0  0  0  0  0  0  0  0  0  0
   -4.6830   14.9550   -2.2810 C   0  0  0  0  0  0  0  0  0  0  0  0
   -3.1080   14.4800   -4.0330 C   0  0  0  0  0  0  0  0  0  0  0  0
    0.8720   14.3700   -1.5060 O   0  0  0  0  0  0  0  0  0  0  0  0
   -0.9560   14.1130   -5.1560 N   0  0  0  0  0  0  0  0  0  0  0  0
    0.9980   14.1080   -3.7760 N   0  0  0  0  0  0  0  0  0  0  0  0
   -4.1010   14.4110   -4.9920 C   0  0  0  0  0  0  0  0  0  0  0  0
   -5.7080   14.8870   -3.2160 C   0  0  0  0  0  0  0  0  0  0  0  0
    0.3960   14.0190   -4.9220 C   0  0  0  0  0  0  0  0  0  0  0  0
   -5.4190   14.6130   -4.5650 C   0  0  0  0  0  0  0  0  0  0  0  0
  1  2  1  0
  2  3  2  3
  4  2  1  6
  4  5  1  0
  4  6  1  0
  3  7  1  0
  5  8  1  0
  6  9  1  0
  5 10  2  0
  7 11  2  0
  7 12  1  0
  8 13  1  0
  9 13  1  0
  8 14  1  0
 10 15  1  0
 14 15  2  0
 11 16  1  0
 11 17  1  0
 12 18  1  0
 12 19  2  0
 17 19  1  0
 16 20  2  0
 17 21  2  0
 16 22  1  0
 19 23  1  0
 18 24  2  0
 21 25  1  0
 22 25  2  0
 23 26  2  0
 24 26  1  0
M  END
