diamond-x0371_0_A-diamond-x0844_0_A
     RDKit          3D

 19 21  0  0  0  0  0  0  0  0999 V2000
   -8.1540   14.5980    2.9790 N   0  0  0  0  0  0  0  0  0  0  0  0
   -8.8400   15.5810    3.6440 C   0  0  0  0  0  0  0  0  0  0  0  0
   -9.5340   16.3910    3.0330 O   0  0  0  0  0  0  0  0  0  0  0  0
   -8.4180   14.3610    1.5910 C   0  0  0  0  0  0  0  0  0  0  0  0
   -7.1490   14.5470    0.8430 C   0  0  0  0  0  0  0  0  0  0  0  0
   -8.6790   15.5660    5.0810 C   0  0  0  0  0  0  0  0  0  0  0  0
   -5.9100   14.5890    1.4410 N   0  0  0  0  0  0  0  0  0  0  0  0
   -7.0490   14.6870   -0.4630 N   0  0  0  0  0  0  0  0  0  0  0  0
   -8.0700   14.4760    5.6360 O   0  0  0  0  0  0  0  0  0  0  0  0
   -9.0190   16.4510    6.0860 C   0  0  0  0  0  0  0  0  0  0  0  0
   -5.7100   14.8110   -0.7120 C   0  0  0  0  0  0  0  0  0  0  0  0
   -4.9730   14.7570    0.4610 C   0  0  0  0  0  0  0  0  0  0  0  0
   -8.5930   15.8650    7.3060 C   0  0  0  0  0  0  0  0  0  0  0  0
   -8.0190   14.6640    6.9730 C   0  0  0  0  0  0  0  0  0  0  0  0
   -3.5840   14.8580    0.5110 C   0  0  0  0  0  0  0  0  0  0  0  0
   -5.0600   14.9650   -1.9310 C   0  0  0  0  0  0  0  0  0  0  0  0
   -2.9420   15.0020   -0.7210 C   0  0  0  0  0  0  0  0  0  0  0  0
   -3.6710   15.0480   -1.9110 C   0  0  0  0  0  0  0  0  0  0  0  0
   -2.7760   15.2120   -3.5600 Br  0  0  0  0  0  0  0  0  0  0  0  0
  1  2  1  0
  2  3  2  0
  1  4  1  0
  4  5  1  0
  2  6  1  0
  5  7  1  0
  5  8  2  0
  6  9  1  0
  6 10  2  0
  8 11  1  0
  7 12  1  0
 11 12  2  0
 10 13  1  0
  9 14  1  0
 13 14  2  0
 12 15  1  0
 11 16  1  0
 15 17  2  0
 16 18  2  0
 17 18  1  0
 18 19  1  0
M  END
