diamond-x0574_0_A-mac-x0365
     RDKit          3D

 16 17  0  0  0  0  0  0  0  0999 V2000
    0.1970   14.0560    2.2880 N   0  0  0  0  0  0  0  0  0  0  0  0
   -0.8420   14.2780    1.5330 C   0  0  0  0  0  0  0  0  0  0  0  0
   -2.0120   14.3530    2.0410 N   0  0  0  0  0  0  0  0  0  0  0  0
   -0.7300   14.4730   -0.1360 S   0  0  0  0  0  0  0  0  0  0  0  0
   -2.9400   14.5500    1.0800 C   0  0  0  0  0  0  0  0  0  0  0  0
   -2.4520   14.6430   -0.2030 C   0  0  0  0  0  0  0  0  0  0  0  0
   -4.3020   14.6490    1.3320 C   0  0  0  0  0  0  0  0  0  0  0  0
   -3.2800   14.8350   -1.2960 C   0  0  0  0  0  0  0  0  0  0  0  0
   -2.5410   14.8970   -2.5950 C   0  0  0  0  0  0  0  0  0  0  0  0
   -5.1860   14.8380    0.2910 C   0  0  0  0  0  0  0  0  0  0  0  0
   -4.6860   14.9360   -1.0340 C   0  0  0  0  0  0  0  0  0  0  0  0
   -6.5330   14.9270    0.5120 O   0  0  0  0  0  0  0  0  0  0  0  0
   -1.1860   14.8620   -2.4690 O   0  0  0  0  0  0  0  0  0  0  0  0
   -3.0380   14.9570   -3.6960 O   0  0  0  0  0  0  0  0  0  0  0  0
   -5.5690   15.1220   -2.0490 F   0  0  0  0  0  0  0  0  0  0  0  0
   -6.9510   14.5620    1.8380 C   0  0  0  0  0  0  0  0  0  0  0  0
  1  2  1  0
  2  3  2  0
  2  4  1  0
  3  5  1  0
  4  6  1  0
  5  6  2  0
  5  7  1  0
  6  8  1  0
  8  9  1  0
  7 10  2  0
  8 11  2  0
 10 11  1  0
 10 12  1  0
  9 13  1  0
  9 14  2  0
 11 15  1  0
 12 16  1  0
M  END
