diamond-x0465_0_A-diamond-x0766_0_A
     RDKit          3D

 23 25  0  0  0  0  0  0  0  0999 V2000
    2.8040   12.8160   -4.8160 C   0  0  0  0  0  0  0  0  0  0  0  0
    1.3270   12.5440   -4.9950 C   0  0  1  0  0  0  0  0  0  0  0  0
    1.0130   11.3710   -5.7960 O   0  0  0  0  0  0  0  0  0  0  0  0
    0.5630   12.4760   -3.6570 C   0  0  0  0  0  0  0  0  0  0  0  0
    1.3500   12.8500   -2.5320 O   0  0  0  0  0  0  0  0  0  0  0  0
    0.0760   11.1620   -3.4340 O   0  0  0  0  0  0  0  0  0  0  0  0
   -0.2430   10.8120   -5.9890 C   0  0  0  0  0  0  0  0  0  0  0  0
   -0.4290   13.5530   -4.1030 C   0  0  2  0  0  0  0  0  0  0  0  0
   -0.5100    9.6250   -6.6850 C   0  0  0  0  0  0  0  0  0  0  0  0
   -1.3360   11.4910   -5.4480 C   0  0  0  0  0  0  0  0  0  0  0  0
    0.3300   14.3020   -5.2240 C   0  0  0  0  0  0  0  0  0  0  0  0
   -0.7300   14.8380   -3.3430 C   0  0  2  0  0  0  0  0  0  0  0  0
    0.4650    8.9070   -7.2510 F   0  0  0  0  0  0  0  0  0  0  0  0
   -1.8020    9.1260   -6.8280 C   0  0  0  0  0  0  0  0  0  0  0  0
   -2.6390   10.9980   -5.5960 C   0  0  0  0  0  0  0  0  0  0  0  0
    1.3240   15.2030   -4.4770 C   0  0  0  0  0  0  0  0  0  0  0  0
    0.6360   15.4790   -3.1460 C   0  0  0  0  0  0  0  0  0  0  0  0
   -1.7320   14.8310   -2.2470 C   0  0  0  0  0  0  0  0  0  0  0  0
   -2.8730    9.8130   -6.2810 C   0  0  0  0  0  0  0  0  0  0  0  0
   -3.1010   14.8730   -2.4220 C   0  0  0  0  0  0  0  0  0  0  0  0
   -1.3960   14.7900   -0.8540 C   0  0  0  0  0  0  0  0  0  0  0  0
   -2.5130   14.8030   -0.0440 C   0  0  0  0  0  0  0  0  0  0  0  0
   -3.9580   14.8660   -0.9500 S   0  0  0  0  0  0  0  0  0  0  0  0
  2  1  1  1
  2  3  1  0
  2  4  1  0
  4  5  1  0
  4  6  1  0
  3  7  1  0
  8  4  1  1
  7  9  2  0
  7 10  1  0
  8 11  1  0
  8 12  1  0
  9 13  1  0
  9 14  1  0
 10 15  2  0
 11 16  1  0
 12 17  1  0
 16 17  1  0
 12 18  1  1
 14 19  2  0
 15 19  1  0
 18 20  2  0
 18 21  1  0
 21 22  2  0
 20 23  1  0
 22 23  1  0
M  END
