diamond-x0722_0_A-mac-x0231
     RDKit          3D

 29 31  0  0  0  0  0  0  0  0999 V2000
   -4.4210   15.9000    2.2280 C   0  0  0  0  0  0  0  0  0  0  0  0
   -3.4420   15.3410    1.3280 C   0  0  0  0  0  0  0  0  0  0  0  0
   -2.2990   15.0230    1.8730 N   0  0  0  0  0  0  0  0  0  0  0  0
   -3.4940   15.0850   -0.0620 C   0  0  0  0  0  0  0  0  0  0  0  0
   -4.6290   15.3250   -1.0100 C   0  0  0  0  0  0  0  0  0  0  0  0
   -2.2250   14.5710   -0.3060 C   0  0  0  0  0  0  0  0  0  0  0  0
   -1.5700   14.5770    0.8980 N   0  0  0  0  0  0  0  0  0  0  0  0
   -0.2300   14.1760    1.2220 C   0  0  0  0  0  0  0  0  0  0  0  0
   -1.5420   14.0760   -1.5160 C   0  0  0  0  0  0  0  0  0  0  0  0
   -5.9350   14.6620   -0.5930 C   0  0  0  0  0  0  0  0  0  0  0  0
   -7.0420   15.1750   -0.7340 O   0  0  0  0  0  0  0  0  0  0  0  0
   -5.8280   13.4180   -0.0330 N   0  0  0  0  0  0  0  0  0  0  0  0
   -0.5670   13.0330   -0.9800 C   0  0  0  0  0  0  0  0  0  0  0  0
   -0.2930   11.8960   -1.9320 C   0  0  0  0  0  0  0  0  0  0  0  0
    0.6480   12.5270   -2.7740 N   0  0  0  0  0  0  0  0  0  0  0  0
    0.9240   12.0120   -3.8600 C   0  0  0  0  0  0  0  0  0  0  0  0
    0.3450   10.8400   -4.1500 O   0  0  0  0  0  0  0  0  0  0  0  0
    1.7880   12.6560   -4.8470 C   0  0  0  0  0  0  0  0  0  0  0  0
    1.2770   14.0650   -4.7370 C   0  0  0  0  0  0  0  0  0  0  0  0
   -0.1750   14.3030   -4.9370 C   0  0  0  0  0  0  0  0  0  0  0  0
    2.1070   14.9980   -4.4170 N   0  0  0  0  0  0  0  0  0  0  0  0
   -0.6150   15.6180   -4.8600 C   0  0  0  0  0  0  0  0  0  0  0  0
    1.6350   16.2650   -4.2950 N   0  0  0  0  0  0  0  0  0  0  0  0
   -1.1060   13.2820   -5.1870 C   0  0  0  0  0  0  0  0  0  0  0  0
    0.3670   16.6780   -4.5960 C   0  0  0  0  0  0  0  0  0  0  0  0
   -1.9700   15.9370   -5.0300 C   0  0  0  0  0  0  0  0  0  0  0  0
   -2.4610   13.5970   -5.3560 C   0  0  0  0  0  0  0  0  0  0  0  0
    0.0590   17.8650   -4.6490 O   0  0  0  0  0  0  0  0  0  0  0  0
   -2.8940   14.9190   -5.2790 C   0  0  0  0  0  0  0  0  0  0  0  0
  1  2  1  0
  2  3  2  0
  2  4  1  0
  4  5  1  0
  4  6  2  0
  3  7  1  0
  6  7  1  0
  7  8  1  0
  6  9  1  0
  5 10  1  0
 10 11  2  0
 10 12  1  0
  9 13  1  0
 13 14  1  0
 14 15  1  0
 15 16  2  3
 16 17  1  0
 16 18  1  0
 18 19  1  0
 19 20  1  0
 19 21  2  0
 20 22  2  0
 21 23  1  0
 20 24  1  0
 22 25  1  0
 23 25  1  0
 22 26  1  0
 24 27  2  0
 25 28  2  0
 26 29  2  0
 27 29  1  0
M  END
