diamond-x0950_1_A-diamond-x0849_0_A
     RDKit          3D

 18 19  0  0  0  0  0  0  0  0999 V2000
    1.2280   13.9570   -4.9350 C   0  0  0  0  0  0  0  0  0  0  0  0
    1.4050   12.5490   -4.3950 C   0  0  2  0  0  0  0  0  0  0  0  0
    0.7260   11.6670   -5.2890 O   0  0  0  0  0  0  0  0  0  0  0  0
    0.8570   12.4340   -2.9730 C   0  0  0  0  0  0  0  0  0  0  0  0
    0.6480   11.3650   -2.4010 O   0  0  0  0  0  0  0  0  0  0  0  0
    0.6290   13.6900   -2.4960 O   0  0  0  0  0  0  0  0  0  0  0  0
    1.0960   14.1640   -1.2150 C   0  0  0  0  0  0  0  0  0  0  0  0
   -0.1170   14.3890   -0.3610 C   0  0  0  0  0  0  0  0  0  0  0  0
   -0.2060   14.3770    1.0350 C   0  0  0  0  0  0  0  0  0  0  0  0
   -1.2890   14.6390   -1.0200 C   0  0  0  0  0  0  0  0  0  0  0  0
   -2.4720   14.8720   -0.3160 C   0  0  0  0  0  0  0  0  0  0  0  0
   -1.3240   14.5950    1.7320 N   0  0  0  0  0  0  0  0  0  0  0  0
   -2.4330   14.8410    1.0730 C   0  0  0  0  0  0  0  0  0  0  0  0
   -3.6930   15.1390   -0.9280 C   0  0  0  0  0  0  0  0  0  0  0  0
   -3.8280   15.1900   -2.8210 Br  0  0  0  0  0  0  0  0  0  0  0  0
   -3.5060   15.0580    1.7890 N   0  0  0  0  0  0  0  0  0  0  0  0
   -4.8260   15.3700   -0.1720 C   0  0  0  0  0  0  0  0  0  0  0  0
   -4.6700   15.3160    1.1890 C   0  0  0  0  0  0  0  0  0  0  0  0
  2  1  1  6
  2  3  1  0
  2  4  1  0
  4  5  2  0
  4  6  1  0
  6  7  1  0
  7  8  1  0
  8  9  2  0
  8 10  1  0
 10 11  2  0
  9 12  1  0
 11 13  1  0
 12 13  2  0
 11 14  1  0
 14 15  1  0
 13 16  1  0
 14 17  2  0
 16 18  2  0
 17 18  1  0
M  END
