diamond-x0727_0_A-mac-x0204
     RDKit          3D

 22 23  0  0  0  0  0  0  0  0999 V2000
    0.2460   11.3230   -5.6200 N   0  0  0  0  0  0  0  0  0  0  0  0
    1.0020   12.2500   -4.7770 C   0  0  1  0  0  0  0  0  0  0  0  0
    0.7770   13.6760   -5.2430 C   0  0  0  0  0  0  0  0  0  0  0  0
    0.7790   11.0380   -6.8450 C   0  0  0  0  0  0  0  0  0  0  0  0
    1.6910   11.6830   -7.2620 O   0  0  0  0  0  0  0  0  0  0  0  0
    0.6130   11.9930   -3.3080 C   0  0  0  0  0  0  0  0  0  0  0  0
    0.1590    9.8570   -7.5790 C   0  0  0  0  0  0  0  0  0  0  0  0
    0.1380   10.9220   -2.9310 O   0  0  0  0  0  0  0  0  0  0  0  0
    0.8890   13.0750   -2.5370 O   0  0  0  0  0  0  0  0  0  0  0  0
   -1.1570   10.2570   -8.2500 C   0  0  0  0  0  0  0  0  0  0  0  0
   -0.1700    8.6850   -6.6370 C   0  0  0  0  0  0  0  0  0  0  0  0
    0.2210   14.2570   -2.6750 C   0  0  0  0  0  0  0  0  0  0  0  0
   -2.1280    9.1140   -7.9890 C   0  0  0  0  0  0  0  0  0  0  0  0
   -1.6740    8.4830   -6.6850 C   0  0  0  0  0  0  0  0  0  0  0  0
    0.4940   15.3010   -2.1100 O   0  0  0  0  0  0  0  0  0  0  0  0
   -0.9310   14.2100   -3.6350 C   0  0  0  0  0  0  0  0  0  0  0  0
   -1.3340   15.3360   -4.3760 C   0  0  0  0  0  0  0  0  0  0  0  0
   -1.6560   13.0300   -3.8300 C   0  0  0  0  0  0  0  0  0  0  0  0
   -2.4070   15.2330   -5.2590 C   0  0  0  0  0  0  0  0  0  0  0  0
   -2.7110   12.9150   -4.6880 N   0  0  0  0  0  0  0  0  0  0  0  0
   -2.7840   16.3380   -5.9660 O   0  0  0  0  0  0  0  0  0  0  0  0
   -3.0630   14.0190   -5.3790 C   0  0  0  0  0  0  0  0  0  0  0  0
  1  2  1  0
  2  3  1  6
  1  4  1  0
  4  5  2  0
  2  6  1  0
  4  7  1  0
  6  8  2  0
  6  9  1  0
  7 10  1  0
  7 11  1  0
  9 12  1  0
 10 13  1  0
 11 14  1  0
 13 14  1  0
 12 15  2  0
 12 16  1  0
 16 17  2  0
 16 18  1  0
 17 19  1  0
 18 20  2  0
 19 21  1  0
 19 22  2  0
 20 22  1  0
M  END
