diamond-x0438_0_A-mac-x0380
     RDKit          3D

 17 18  0  0  0  0  0  0  0  0999 V2000
   -8.1420   15.5590    3.8700 C   0  0  0  0  0  0  0  0  0  0  0  0
   -9.3600   15.3710    2.5800 S   0  0  0  0  0  0  0  0  0  0  0  0
  -10.5780   14.8600    3.1930 O   0  0  0  0  0  0  0  0  0  0  0  0
   -8.7530   14.0990    1.4910 C   0  0  0  0  0  0  0  0  0  0  0  0
   -9.4390   16.5880    1.8070 O   0  0  0  0  0  0  0  0  0  0  0  0
   -7.3920   14.3610    0.9480 C   0  0  0  0  0  0  0  0  0  0  0  0
   -7.1450   14.4860   -0.4010 N   0  0  0  0  0  0  0  0  0  0  0  0
   -6.2730   14.4910    1.6330 N   0  0  0  0  0  0  0  0  0  0  0  0
   -5.2770   14.6840    0.7120 C   0  0  0  0  0  0  0  0  0  0  0  0
   -5.7970   14.6850   -0.5750 C   0  0  0  0  0  0  0  0  0  0  0  0
   -5.0220   14.8500   -1.7210 C   0  0  0  0  0  0  0  0  0  0  0  0
   -3.8970   14.8630    0.8970 C   0  0  0  0  0  0  0  0  0  0  0  0
   -3.6450   15.0080   -1.5300 C   0  0  0  0  0  0  0  0  0  0  0  0
   -3.0820   15.0210   -0.2370 C   0  0  0  0  0  0  0  0  0  0  0  0
   -2.8030   15.1450   -2.7500 C   0  0  0  0  0  0  0  0  0  0  0  0
   -1.4880   14.9250   -2.5240 O   0  0  0  0  0  0  0  0  0  0  0  0
   -3.2540   15.4100   -3.8490 O   0  0  0  0  0  0  0  0  0  0  0  0
  2  1  1  0
  2  3  2  0
  2  4  1  0
  2  5  2  0
  4  6  1  0
  6  7  1  0
  6  8  2  0
  8  9  1  0
  7 10  1  0
  9 10  2  0
 10 11  1  0
  9 12  1  0
 11 13  2  0
 12 14  2  0
 13 14  1  0
 13 15  1  0
 15 16  1  0
 15 17  2  0
M  END
