diamond-x1015_0_A-diamond-x0844_0_A
     RDKit          3D

 25 27  0  0  0  0  0  0  0  0999 V2000
   -0.8460   14.3140   -4.7910 C   0  0  0  0  0  0  0  0  0  0  0  0
    0.2920   13.6110   -4.0490 C   0  0  2  0  0  0  0  0  0  0  0  0
    0.1400   12.1580   -3.9920 N   0  0  0  0  0  0  0  0  0  0  0  0
    0.1040   13.9050   -2.5810 C   0  0  0  0  0  0  0  0  0  0  0  0
   -0.2970   15.0390   -2.1510 N   0  0  0  0  0  0  0  0  0  0  0  0
    0.2520   11.6970   -2.6660 C   0  0  0  0  0  0  0  0  0  0  0  0
    0.3960   12.7960   -1.8720 N   0  0  0  0  0  0  0  0  0  0  0  0
   -0.3460   11.3880   -5.0800 C   0  0  0  0  0  0  0  0  0  0  0  0
    0.2250   10.5410   -2.2380 O   0  0  0  0  0  0  0  0  0  0  0  0
   -0.5330   15.2070   -0.7180 C   0  0  0  0  0  0  0  0  0  0  0  0
    0.1540   11.5860   -6.3750 C   0  0  0  0  0  0  0  0  0  0  0  0
   -1.3360   10.4080   -4.9020 C   0  0  0  0  0  0  0  0  0  0  0  0
   -1.8140   14.4360   -0.3480 C   0  0  0  0  0  0  0  0  0  0  0  0
   -0.3130   10.8310   -7.4550 C   0  0  0  0  0  0  0  0  0  0  0  0
   -1.8060    9.6500   -5.9800 C   0  0  0  0  0  0  0  0  0  0  0  0
   -2.8200   14.6310   -1.3810 O   0  0  0  0  0  0  0  0  0  0  0  0
   -1.2930    9.8630   -7.2500 C   0  0  0  0  0  0  0  0  0  0  0  0
   -1.8670    8.9300   -8.5740 Cl  0  0  0  0  0  0  0  0  0  0  0  0
   -3.9300   15.4280   -0.9380 C   0  0  2  0  0  0  0  0  0  0  0  0
   -3.6840   15.6860    0.5150 C   0  0  0  0  0  0  0  0  0  0  0  0
   -5.2680   14.7460   -1.2560 C   0  0  0  0  0  0  0  0  0  0  0  0
   -4.5510   15.3560    1.4590 C   0  0  0  0  0  0  0  0  0  0  0  0
   -6.2620   14.7820   -0.1160 C   0  0  0  0  0  0  0  0  0  0  0  0
   -7.4800   14.8280   -0.2880 O   0  0  0  0  0  0  0  0  0  0  0  0
   -5.7250   14.7580    1.1380 N   0  0  0  0  0  0  0  0  0  0  0  0
  2  1  1  6
  2  3  1  0
  2  4  1  0
  4  5  2  3
  3  6  1  0
  4  7  1  0
  6  7  1  0
  3  8  1  0
  6  9  2  0
  5 10  1  0
  8 11  2  0
  8 12  1  0
 10 13  1  0
 11 14  1  0
 12 15  2  0
 13 16  1  0
 14 17  2  0
 15 17  1  0
 17 18  1  0
 19 16  1  1
 19 20  1  0
 19 21  1  0
 20 22  2  0
 21 23  1  0
 23 24  2  0
 22 25  1  0
 23 25  1  0
M  END
