diamond-x0689_0_A-diamond-x0950_1_A
     RDKit          3D

 15 15  0  0  0  0  0  0  0  0999 V2000
   -3.6960   15.1520    1.6530 N   0  0  0  0  0  0  0  0  0  0  0  0
   -4.8110   15.2720    0.7600 C   0  0  0  0  0  0  0  0  0  0  0  0
   -2.5170   14.8230    1.0080 C   0  0  0  0  0  0  0  0  0  0  0  0
   -2.5930   14.8490   -0.3290 N   0  0  0  0  0  0  0  0  0  0  0  0
   -1.4130   14.5190    1.6820 N   0  0  0  0  0  0  0  0  0  0  0  0
   -1.4770   14.5550   -1.0210 C   0  0  0  0  0  0  0  0  0  0  0  0
   -0.3230   14.2280    0.9490 C   0  0  0  0  0  0  0  0  0  0  0  0
   -0.2840   14.2310   -0.4410 C   0  0  0  0  0  0  0  0  0  0  0  0
    0.9150   13.9180   -1.2890 C   0  0  0  0  0  0  0  0  0  0  0  0
    0.9950   12.5040   -1.5490 O   0  0  0  0  0  0  0  0  0  0  0  0
    0.6400   11.9780   -2.7710 C   0  0  0  0  0  0  0  0  0  0  0  0
    1.3540   12.5520   -4.0210 C   0  0  2  0  0  0  0  0  0  0  0  0
   -0.1780   11.0730   -2.8740 O   0  0  0  0  0  0  0  0  0  0  0  0
    1.0910   14.0200   -4.3150 C   0  0  0  0  0  0  0  0  0  0  0  0
    0.9180   11.8340   -5.1820 O   0  0  0  0  0  0  0  0  0  0  0  0
  1  2  1  0
  1  3  1  0
  3  4  2  0
  3  5  1  0
  4  6  1  0
  5  7  2  0
  6  8  2  0
  7  8  1  0
  8  9  1  0
  9 10  1  0
 10 11  1  0
 11 12  1  0
 11 13  2  0
 12 14  1  6
 12 15  1  0
M  END
