diamond-x0950_1_A-diamond-x1018_0_A
     RDKit          3D

 19 20  0  0  0  0  0  0  0  0999 V2000
    1.0700   13.9840   -4.8180 C   0  0  0  0  0  0  0  0  0  0  0  0
    1.3480   12.5180   -4.5350 C   0  0  2  0  0  0  0  0  0  0  0  0
    0.6660   11.7430   -5.5220 O   0  0  0  0  0  0  0  0  0  0  0  0
    0.9370   12.1280   -3.1080 C   0  0  0  0  0  0  0  0  0  0  0  0
    0.3820   11.0870   -2.7710 O   0  0  0  0  0  0  0  0  0  0  0  0
    1.2880   13.1270   -2.2470 O   0  0  0  0  0  0  0  0  0  0  0  0
    0.3690   13.2850   -1.1630 C   0  0  0  0  0  0  0  0  0  0  0  0
   -0.5710   14.4490   -1.3990 C   0  0  0  0  0  0  0  0  0  0  0  0
   -1.6230   14.4690   -0.2790 C   0  0  0  0  0  0  0  0  0  0  0  0
   -2.9130   15.0520   -0.6980 N   0  0  0  0  0  0  0  0  0  0  0  0
   -3.2280   14.8300   -2.1250 N   0  0  0  0  0  0  0  0  0  0  0  0
   -4.0740   14.4160   -0.0830 C   0  0  2  0  0  0  0  0  0  0  0  0
   -4.6690   14.7720   -2.2680 N   0  0  0  0  0  0  0  0  0  0  0  0
   -5.1220   14.8910   -0.9620 N   0  0  0  0  0  0  0  0  0  0  0  0
   -4.4570   14.6340    1.3340 C   0  0  0  0  0  0  0  0  0  0  0  0
   -6.4520   14.7040   -0.7080 N   0  0  0  0  0  0  0  0  0  0  0  0
   -5.7490   14.7390    1.6720 C   0  0  0  0  0  0  0  0  0  0  0  0
   -6.7410   14.6340    0.5580 C   0  0  0  0  0  0  0  0  0  0  0  0
   -8.4110   14.4190    0.9390 Cl  0  0  0  0  0  0  0  0  0  0  0  0
  2  1  1  6
  2  3  1  0
  2  4  1  0
  4  5  2  0
  4  6  1  0
  6  7  1  0
  7  8  1  0
  8  9  1  0
  9 10  1  0
 10 11  1  0
 10 12  1  0
 11 13  1  0
 12 14  1  0
 13 14  1  0
 12 15  1  1
 14 16  1  0
 15 17  2  0
 16 18  2  0
 17 18  1  0
 18 19  1  0
M  END
