diamond-x0689_0_A-diamond-x0724_0_A
     RDKit          3D

 22 24  0  0  0  0  0  0  0  0999 V2000
   -3.3610   14.4520    1.8980 N   0  0  0  0  0  0  0  0  0  0  0  0
   -4.1580   15.5190    1.4170 C   0  0  0  0  0  0  0  0  0  0  0  0
   -4.3810   15.0870    0.0190 C   0  0  0  0  0  0  0  0  0  0  0  0
   -2.1700   14.5290    1.2420 C   0  0  0  0  0  0  0  0  0  0  0  0
   -2.1720   14.5030   -0.1020 N   0  0  0  0  0  0  0  0  0  0  0  0
   -1.1020   14.6400    1.9450 N   0  0  0  0  0  0  0  0  0  0  0  0
   -0.9880   14.6060   -0.7330 C   0  0  0  0  0  0  0  0  0  0  0  0
    0.0250   14.7480    1.2940 C   0  0  0  0  0  0  0  0  0  0  0  0
   -3.2730   15.1160   -0.8370 C   0  0  0  0  0  0  0  0  0  0  0  0
   -5.5990   14.6610   -0.4490 C   0  0  0  0  0  0  0  0  0  0  0  0
    0.1790   14.7370   -0.0620 C   0  0  0  0  0  0  0  0  0  0  0  0
   -6.6960   14.6560    0.4630 N   0  0  0  0  0  0  0  0  0  0  0  0
   -3.3580   14.7310   -2.1550 C   0  0  0  0  0  0  0  0  0  0  0  0
   -5.6940   14.2640   -1.7930 C   0  0  0  0  0  0  0  0  0  0  0  0
   -7.9840   14.5480    0.0860 N   0  0  0  0  0  0  0  0  0  0  0  0
   -6.6100   14.7780    1.8430 C   0  0  0  0  0  0  0  0  0  0  0  0
   -4.5740   14.3010   -2.6400 C   0  0  0  0  0  0  0  0  0  0  0  0
   -7.8750   14.7720    2.3580 C   0  0  0  0  0  0  0  0  0  0  0  0
   -8.6840   14.6190    1.2210 C   0  0  0  0  0  0  0  0  0  0  0  0
   -8.2690   14.9090    3.7880 C   0  0  0  0  0  0  0  0  0  0  0  0
   -8.7670   13.6660    4.3660 N   0  0  0  0  0  0  0  0  0  0  0  0
   -8.6900   13.6750    5.8210 C   0  0  0  0  0  0  0  0  0  0  0  0
  1  2  1  0
  2  3  1  0
  1  4  1  0
  4  5  2  0
  4  6  1  0
  5  7  1  0
  6  8  2  0
  3  9  2  0
  3 10  1  0
  7 11  2  0
  8 11  1  0
 10 12  1  0
  9 13  1  0
 10 14  2  0
 12 15  1  0
 12 16  1  0
 13 17  2  0
 14 17  1  0
 16 18  2  0
 15 19  2  0
 18 19  1  0
 18 20  1  0
 20 21  1  0
 21 22  1  0
M  END
