diamond-x0895_1_A-mac-x0402
     RDKit          3D

 13 14  0  0  0  0  0  0  0  0999 V2000
   -1.9770   14.6270    1.3580 O   0  0  0  0  0  0  0  0  0  0  0  0
   -3.1300   14.7950    0.9460 C   0  0  0  0  0  0  0  0  0  0  0  0
   -3.6220   14.8370   -0.4710 C   0  0  0  0  0  0  0  0  0  0  0  0
   -4.2740   15.0140    1.7130 N   0  0  0  0  0  0  0  0  0  0  0  0
   -4.3960   14.8020    3.0870 N   0  0  0  0  0  0  0  0  0  0  0  0
   -5.4100   14.9120    0.9890 C   0  0  0  0  0  0  0  0  0  0  0  0
   -3.1010   14.8100   -1.7680 C   0  0  0  0  0  0  0  0  0  0  0  0
   -5.0000   14.9270   -0.3880 C   0  0  0  0  0  0  0  0  0  0  0  0
   -6.5460   14.8170    1.3930 O   0  0  0  0  0  0  0  0  0  0  0  0
   -1.4480   14.6760   -2.2090 Cl  0  0  0  0  0  0  0  0  0  0  0  0
   -5.8920   15.0090   -1.3720 N   0  0  0  0  0  0  0  0  0  0  0  0
   -4.0060   14.8940   -2.8340 C   0  0  0  0  0  0  0  0  0  0  0  0
   -5.3660   14.9940   -2.5870 C   0  0  0  0  0  0  0  0  0  0  0  0
  1  2  2  0
  2  3  1  0
  2  4  1  0
  4  5  1  0
  4  6  1  0
  3  7  2  0
  3  8  1  0
  6  8  1  0
  6  9  2  0
  7 10  1  0
  8 11  2  0
  7 12  1  0
 11 13  1  0
 12 13  2  0
M  END
