diamond-x0967_0_A-diamond-x0805_0_A
     RDKit          3D

 26 29  0  0  0  0  0  0  0  0999 V2000
   -2.3130   15.0750    0.0580 O   0  0  0  0  0  0  0  0  0  0  0  0
   -2.3550   14.7160   -1.2580 C   0  0  0  0  0  0  0  0  0  0  0  0
   -1.2370   14.6700   -1.9250 C   0  0  0  0  0  0  0  0  0  0  0  0
   -3.5290   14.4130   -1.8470 C   0  0  0  0  0  0  0  0  0  0  0  0
   -3.6270   14.0500   -3.1860 C   0  0  0  0  0  0  0  0  0  0  0  0
   -1.2550   14.3200   -3.2230 C   0  0  0  0  0  0  0  0  0  0  0  0
   -4.4910   14.5240   -0.8960 C   0  0  0  0  0  0  0  0  0  0  0  0
   -2.4410   13.9990   -3.9120 C   0  0  0  0  0  0  0  0  0  0  0  0
    0.0860   14.3400   -3.7450 C   0  0  1  0  0  0  0  0  0  0  0  0
   -5.7690   14.5140   -1.2040 N   0  0  0  0  0  0  0  0  0  0  0  0
   -3.9280   14.6280    0.3470 C   0  0  0  0  0  0  0  0  0  0  0  0
    1.0860   13.2420   -3.4180 C   0  0  1  0  0  0  0  0  0  0  0  0
    0.2940   15.0040   -5.0520 C   0  0  0  0  0  0  0  0  0  0  0  0
   -6.5680   14.6010   -0.1730 C   0  0  0  0  0  0  0  0  0  0  0  0
   -4.7250   14.7230    1.3970 C   0  0  0  0  0  0  0  0  0  0  0  0
    0.6590   12.0590   -2.6210 C   0  0  0  0  0  0  0  0  0  0  0  0
    2.0720   13.1630   -4.5260 C   0  0  0  0  0  0  0  0  0  0  0  0
    1.6410   15.5680   -4.8100 C   0  0  0  0  0  0  0  0  0  0  0  0
   -7.8630   14.5860   -0.4120 N   0  0  0  0  0  0  0  0  0  0  0  0
   -6.0700   14.7030    1.1500 C   0  0  0  0  0  0  0  0  0  0  0  0
    0.3500   10.9270   -3.2670 O   0  0  0  0  0  0  0  0  0  0  0  0
    0.6100   12.1370   -1.4080 O   0  0  0  0  0  0  0  0  0  0  0  0
    2.5910   14.4920   -4.5880 O   0  0  0  0  0  0  0  0  0  0  0  0
   -6.9550   14.7820    2.2080 C   0  0  0  0  0  0  0  0  0  0  0  0
   -8.7020   14.6650    0.6320 C   0  0  0  0  0  0  0  0  0  0  0  0
   -8.2990   14.7630    1.9500 C   0  0  0  0  0  0  0  0  0  0  0  0
  1  2  1  0
  2  3  2  0
  2  4  1  0
  4  5  2  0
  3  6  1  0
  4  7  1  0
  5  8  1  0
  6  8  2  0
  9  6  1  6
  7 10  2  0
  7 11  1  0
  9 12  1  0
  9 13  1  0
 10 14  1  0
 11 15  2  0
 12 16  1  6
 12 17  1  0
 13 18  1  0
 14 19  2  0
 14 20  1  0
 15 20  1  0
 16 21  1  0
 16 22  2  0
 17 23  1  0
 18 23  1  0
 20 24  2  0
 19 25  1  0
 24 26  1  0
 25 26  2  0
M  END
