diamond-x0950_0_A-mac-x0223
     RDKit          3D

 15 15  0  0  0  0  0  0  0  0999 V2000
    2.5100   13.2890   -4.4430 C   0  0  0  0  0  0  0  0  0  0  0  0
    0.9900   13.1000   -4.4370 C   0  0  1  0  0  0  0  0  0  0  0  0
    0.6900   12.2270   -5.5560 O   0  0  0  0  0  0  0  0  0  0  0  0
    0.7110   12.2550   -3.1620 C   0  0  0  0  0  0  0  0  0  0  0  0
    0.0860   14.3680   -4.5530 C   0  0  0  0  0  0  0  0  0  0  0  0
    0.2630   11.1190   -3.1190 O   0  0  0  0  0  0  0  0  0  0  0  0
    1.0350   12.9480   -2.0380 O   0  0  0  0  0  0  0  0  0  0  0  0
   -1.3250   14.2750   -4.6280 C   0  0  0  0  0  0  0  0  0  0  0  0
    0.6390   15.6790   -4.5870 C   0  0  0  0  0  0  0  0  0  0  0  0
   -0.1820   16.8180   -4.6880 C   0  0  0  0  0  0  0  0  0  0  0  0
   -2.1380   15.4180   -4.7290 C   0  0  0  0  0  0  0  0  0  0  0  0
    0.2620   18.1050   -4.7240 O   0  0  0  0  0  0  0  0  0  0  0  0
   -1.5600   16.6770   -4.7570 C   0  0  0  0  0  0  0  0  0  0  0  0
    1.2090   18.3720   -5.7320 C   0  0  0  0  0  0  0  0  0  0  0  0
   -2.3220   17.8120   -4.8480 O   0  0  0  0  0  0  0  0  0  0  0  0
  2  1  1  6
  2  3  1  0
  2  4  1  0
  2  5  1  0
  4  6  2  0
  4  7  1  0
  5  8  2  0
  5  9  1  0
  9 10  2  0
  8 11  1  0
 10 12  1  0
 10 13  1  0
 11 13  2  0
 12 14  1  0
 13 15  1  0
M  END
