diamond-x0465_0_A-mac-x0365
     RDKit          3D

 25 26  0  0  0  0  0  0  0  0999 V2000
    2.0430   13.2040   -4.3460 C   0  0  0  0  0  0  0  0  0  0  0  0
    0.7720   12.3690   -4.1710 C   0  0  1  0  0  0  0  0  0  0  0  0
    0.6020   11.4560   -5.2760 O   0  0  0  0  0  0  0  0  0  0  0  0
    0.5470   11.7980   -2.7360 C   0  0  0  0  0  0  0  0  0  0  0  0
    0.4150   12.5260   -1.6630 N   0  0  0  0  0  0  0  0  0  0  0  0
    0.4900   10.4380   -2.6430 O   0  0  0  0  0  0  0  0  0  0  0  0
   -0.5390   10.7600   -5.5750 C   0  0  0  0  0  0  0  0  0  0  0  0
    0.4610   13.9920   -1.7830 C   0  0  0  0  0  0  0  0  0  0  0  0
   -0.6700    9.7590   -6.5450 C   0  0  0  0  0  0  0  0  0  0  0  0
   -1.6640   11.1050   -4.8220 C   0  0  0  0  0  0  0  0  0  0  0  0
    0.3590    9.3750   -7.3090 F   0  0  0  0  0  0  0  0  0  0  0  0
   -0.7380   14.6560   -1.3390 O   0  0  0  0  0  0  0  0  0  0  0  0
   -1.8860    9.1160   -6.7570 C   0  0  0  0  0  0  0  0  0  0  0  0
   -2.8890   10.4630   -5.0320 C   0  0  0  0  0  0  0  0  0  0  0  0
   -1.6980   14.8150   -2.2790 C   0  0  0  0  0  0  0  0  0  0  0  0
   -2.9980    9.4670   -6.0000 C   0  0  0  0  0  0  0  0  0  0  0  0
   -1.5250   14.8780   -3.4840 O   0  0  0  0  0  0  0  0  0  0  0  0
   -3.0550   14.9140   -1.6610 C   0  0  0  0  0  0  0  0  0  0  0  0
   -4.1900   15.0220   -2.4660 C   0  0  0  0  0  0  0  0  0  0  0  0
   -3.1980   14.9000   -0.2550 C   0  0  0  0  0  0  0  0  0  0  0  0
   -5.4390   15.1040   -1.8800 C   0  0  0  0  0  0  0  0  0  0  0  0
   -4.4740   14.9850    0.3230 C   0  0  0  0  0  0  0  0  0  0  0  0
   -6.5270   15.1990   -2.6470 F   0  0  0  0  0  0  0  0  0  0  0  0
   -5.5880   15.0830   -0.5050 C   0  0  0  0  0  0  0  0  0  0  0  0
   -6.8390   15.1560    0.0340 O   0  0  0  0  0  0  0  0  0  0  0  0
  2  1  1  1
  2  3  1  0
  2  4  1  0
  4  5  2  3
  4  6  1  0
  3  7  1  0
  5  8  1  0
  7  9  2  0
  7 10  1  0
  9 11  1  0
  8 12  1  0
  9 13  1  0
 10 14  2  0
 12 15  1  0
 13 16  2  0
 14 16  1  0
 15 17  2  0
 15 18  1  0
 18 19  2  0
 18 20  1  0
 19 21  1  0
 20 22  2  0
 21 23  1  0
 21 24  2  0
 22 24  1  0
 24 25  1  0
M  END
