diamond-x0962_2_B-diamond-x0895_1_A
     RDKit          3D

 15 16  0  0  0  0  0  0  0  0999 V2000
  -10.5300   16.3240    0.8020 N   0  0  0  0  0  0  0  0  0  0  0  0
   -9.8030   15.9920    1.6390 C   0  0  0  0  0  0  0  0  0  0  0  0
   -8.9700   15.6450    2.7290 C   0  0  0  0  0  0  0  0  0  0  0  0
   -9.1290   16.1630    3.9870 N   0  0  0  0  0  0  0  0  0  0  0  0
   -7.8750   14.7850    2.8220 C   0  0  0  0  0  0  0  0  0  0  0  0
   -7.1520   13.9050    1.8220 C   0  0  0  0  0  0  0  0  0  0  0  0
   -8.1750   15.6260    4.7890 C   0  0  0  0  0  0  0  0  0  0  0  0
   -7.4180   14.7990    4.1230 N   0  0  0  0  0  0  0  0  0  0  0  0
   -6.4640   14.5640    0.6760 N   0  0  0  0  0  0  0  0  0  0  0  0
   -5.1740   14.7350    0.5750 C   0  0  0  0  0  0  0  0  0  0  0  0
   -4.5590   15.3000   -0.5060 N   0  0  0  0  0  0  0  0  0  0  0  0
   -4.1900   14.4040    1.4520 N   0  0  0  0  0  0  0  0  0  0  0  0
   -3.1980   14.7840   -0.5550 C   0  0  0  0  0  0  0  0  0  0  0  0
   -2.9470   14.6660    0.9450 C   0  0  0  0  0  0  0  0  0  0  0  0
   -1.8820   14.7770    1.5610 O   0  0  0  0  0  0  0  0  0  0  0  0
  1  2  3  0
  2  3  1  0
  3  4  1  0
  3  5  2  0
  5  6  1  0
  4  7  1  0
  5  8  1  0
  7  8  2  0
  6  9  1  0
  9 10  2  3
 10 11  1  0
 10 12  1  0
 11 13  1  0
 12 14  1  0
 13 14  1  0
 14 15  2  0
M  END
