diamond-x0962_2_B-mac-x0564
     RDKit          3D

 24 27  0  0  0  0  0  0  0  0999 V2000
  -10.0840   16.6230    0.9010 N   0  0  0  0  0  0  0  0  0  0  0  0
   -9.9600   15.2490    1.3570 C   0  0  1  0  0  0  0  0  0  0  0  0
   -9.5270   14.2900    0.1950 C   0  0  0  0  0  0  0  0  0  0  0  0
   -9.1610   15.1400    2.6220 C   0  0  0  0  0  0  0  0  0  0  0  0
   -8.0390   13.8520    0.0480 C   0  0  0  0  0  0  0  0  0  0  0  0
   -9.0700   16.1410    3.5710 N   0  0  0  0  0  0  0  0  0  0  0  0
   -8.3880   14.1270    3.1410 C   0  0  0  0  0  0  0  0  0  0  0  0
   -7.0880   15.0480    0.0290 C   0  0  0  0  0  0  0  0  0  0  0  0
   -8.2680   15.6910    4.5820 C   0  0  0  0  0  0  0  0  0  0  0  0
   -7.8490   14.4730    4.3500 N   0  0  0  0  0  0  0  0  0  0  0  0
   -5.8320   14.9710   -0.8260 C   0  0  0  0  0  0  0  0  0  0  0  0
   -5.9590   15.0450   -2.2170 C   0  0  0  0  0  0  0  0  0  0  0  0
   -4.5470   14.8270   -0.2480 C   0  0  0  0  0  0  0  0  0  0  0  0
   -4.8540   14.9680   -3.0690 C   0  0  0  0  0  0  0  0  0  0  0  0
   -3.4600   14.7480   -1.1260 C   0  0  0  0  0  0  0  0  0  0  0  0
   -3.5810   14.8100   -2.5150 C   0  0  0  0  0  0  0  0  0  0  0  0
   -2.1420   14.5950   -0.7670 O   0  0  0  0  0  0  0  0  0  0  0  0
   -1.4360   14.5460   -1.9370 C   0  0  0  0  0  0  0  0  0  0  0  0
   -2.2750   14.6820   -3.0080 C   0  0  0  0  0  0  0  0  0  0  0  0
   -0.0070   14.3690   -2.0420 C   0  0  0  0  0  0  0  0  0  0  0  0
   -1.7710   14.6670   -4.2570 N   0  0  0  0  0  0  0  0  0  0  0  0
    0.7570   14.3210   -1.0880 O   0  0  0  0  0  0  0  0  0  0  0  0
   -0.4240   14.3860   -4.3270 C   0  0  0  0  0  0  0  0  0  0  0  0
    0.4290   14.2400   -3.3610 N   0  0  0  0  0  0  0  0  0  0  0  0
  2  1  1  6
  2  3  1  0
  2  4  1  0
  3  5  1  0
  4  6  1  0
  4  7  2  0
  5  8  1  0
  6  9  1  0
  7 10  1  0
  9 10  2  0
  8 11  1  0
 11 12  2  0
 11 13  1  0
 12 14  1  0
 13 15  2  0
 14 16  2  0
 15 16  1  0
 15 17  1  0
 17 18  1  0
 16 19  1  0
 18 19  2  0
 18 20  1  0
 19 21  1  0
 20 22  2  0
 21 23  1  0
 20 24  1  0
 23 24  2  0
M  END
