diamond-x0729_0_A-diamond-x0259_0_A
     RDKit          3D

 27 29  0  0  0  0  0  0  0  0999 V2000
   19.8490   25.1680    5.7290 C   0  0  0  0  0  0  0  0  0  0  0  0
   20.8460   26.0700    6.4610 C   0  0  2  0  0  0  0  0  0  0  0  0
   20.3170   26.8300    7.6050 N   0  0  0  0  0  0  0  0  0  0  0  0
   21.5540   27.0630    5.5400 C   0  0  2  0  0  0  0  0  0  0  0  0
   21.7810   26.5090    4.1840 C   0  0  0  0  0  0  0  0  0  0  0  0
   18.7450   26.6630    8.2320 S   0  0  2  0  0  0  0  0  0  0  0  0
   21.4240   27.4090    8.4000 C   0  0  0  0  0  0  0  0  0  0  0  0
   22.8520   27.5060    6.2270 C   0  0  0  0  0  0  0  0  0  0  0  0
   18.3490   28.2350    7.5380 C   0  0  0  0  0  0  0  0  0  0  0  0
   21.9450   26.1020    3.1110 N   0  0  0  0  0  0  0  0  0  0  0  0
   19.9780   25.6080    8.4120 O   0  0  0  0  0  0  0  0  0  0  0  0
   17.7670   25.5350    9.1130 C   0  0  0  0  0  0  0  0  0  0  0  0
   22.5740   28.1030    7.6180 C   0  0  0  0  0  0  0  0  0  0  0  0
   19.4670   28.8410    6.9030 N   0  0  0  0  0  0  0  0  0  0  0  0
   17.0180   29.0010    7.5580 C   0  0  1  0  0  0  0  0  0  0  0  0
   20.0940   29.9950    7.5540 C   0  0  0  0  0  0  0  0  0  0  0  0
   19.7660   28.6690    5.4840 C   0  0  0  0  0  0  0  0  0  0  0  0
   17.0190   30.2230    8.4610 C   0  0  0  0  0  0  0  0  0  0  0  0
   16.5790   29.5930    6.2210 C   0  0  0  0  0  0  0  0  0  0  0  0
   18.9330   27.8750    4.7800 N   0  0  0  0  0  0  0  0  0  0  0  0
   20.8640   29.2810    4.8570 C   0  0  0  0  0  0  0  0  0  0  0  0
   16.1000   30.9310    6.4680 O   0  0  0  0  0  0  0  0  0  0  0  0
   15.8950   31.0340    7.8710 C   0  0  0  0  0  0  0  0  0  0  0  0
   22.0210   30.3170    5.6050 Cl  0  0  0  0  0  0  0  0  0  0  0  0
   19.1840   27.6860    3.4770 C   0  0  0  0  0  0  0  0  0  0  0  0
   21.0210   29.0130    3.5080 C   0  0  0  0  0  0  0  0  0  0  0  0
   20.2020   28.2210    2.7890 N   0  0  0  0  0  0  0  0  0  0  0  0
  2  1  1  6
  2  3  1  0
  2  4  1  0
  4  5  1  6
  3  6  1  0
  3  7  1  0
  4  8  1  0
  6  9  2  0
  5 10  3  0
  6 11  2  0
  6 12  1  6
  7 13  1  0
  8 13  1  0
  9 14  1  0
 15  9  1  6
 14 16  1  0
 14 17  1  0
 15 18  1  0
 15 19  1  0
 17 20  2  0
 17 21  1  0
 19 22  1  0
 18 23  1  0
 22 23  1  0
 21 24  1  0
 20 25  1  0
 21 26  2  0
 25 27  2  0
 26 27  1  0
M  END
