diamond-x0299_0_A-diamond-x0737_0_B
     RDKit          3D

 32 34  0  0  0  0  0  0  0  0999 V2000
   13.8490    8.1300   12.6940 N   0  0  0  0  0  0  0  0  0  0  0  0
   14.6010    8.3180   13.8290 C   0  0  0  0  0  0  0  0  0  0  0  0
   15.7780    8.6840   13.7450 O   0  0  0  0  0  0  0  0  0  0  0  0
   14.6910    8.1990   11.5460 C   0  0  2  0  0  0  0  0  0  0  0  0
   13.9540    8.0520   15.1660 C   0  0  0  0  0  0  0  0  0  0  0  0
   14.7240    9.4510   10.6990 C   0  0  0  0  0  0  0  0  0  0  0  0
   14.7970    6.8820   10.8000 C   0  0  0  0  0  0  0  0  0  0  0  0
   14.9450    7.5100   16.1930 C   0  0  0  0  0  0  0  0  0  0  0  0
   14.4050    5.6860   11.3580 N   0  0  0  0  0  0  0  0  0  0  0  0
   15.2880    6.6900    9.5720 N   0  0  0  0  0  0  0  0  0  0  0  0
   14.2980   10.8610   11.2640 C   0  0  2  0  0  0  0  0  0  0  0  0
   15.9210    8.5650   16.6620 C   0  0  0  0  0  0  0  0  0  0  0  0
   15.2320    5.3180    9.3810 C   0  0  0  0  0  0  0  0  0  0  0  0
   14.6730    4.6780   10.4790 C   0  0  0  0  0  0  0  0  0  0  0  0
   15.4340   11.9250   11.1390 C   0  0  0  0  0  0  0  0  0  0  0  0
   13.7880   10.9190   12.6670 C   0  0  0  0  0  0  0  0  0  0  0  0
   14.4840    3.2930   10.5550 C   0  0  0  0  0  0  0  0  0  0  0  0
   15.6440    4.5330    8.2920 C   0  0  0  0  0  0  0  0  0  0  0  0
   13.3360   12.3210   12.8240 N   0  0  0  0  0  0  0  0  0  0  0  0
   15.5860   13.0590   12.2170 C   0  0  1  0  0  0  0  0  0  0  0  0
   16.2880   14.3370   11.7620 C   0  0  0  0  0  0  0  0  0  0  0  0
   11.8570   12.6020   13.4860 S   0  0  0  0  0  0  0  0  0  0  0  0
   14.8970    2.5400    9.4510 C   0  0  0  0  0  0  0  0  0  0  0  0
   15.4700    3.1470    8.3360 C   0  0  0  0  0  0  0  0  0  0  0  0
   14.3880   13.3640   13.0830 C   0  0  2  0  0  0  0  0  0  0  0  0
   15.7740   15.6030   11.9090 N   0  0  0  0  0  0  0  0  0  0  0  0
   17.4130   14.2350   11.2700 O   0  0  0  0  0  0  0  0  0  0  0  0
   11.5390   13.8980   12.9520 O   0  0  0  0  0  0  0  0  0  0  0  0
   11.9160   12.3010   14.9020 O   0  0  0  0  0  0  0  0  0  0  0  0
   14.7780   13.5130   14.5420 C   0  0  0  0  0  0  0  0  0  0  0  0
   10.9210   11.3430   12.7230 C   0  0  0  0  0  0  0  0  0  0  0  0
   16.4430   16.8570   12.1770 C   0  0  0  0  0  0  0  0  0  0  0  0
  1  2  1  0
  2  3  2  0
  1  4  1  0
  2  5  1  0
  4  6  1  6
  4  7  1  0
  5  8  1  0
  7  9  1  0
  7 10  2  0
 11  6  1  1
  8 12  1  0
 10 13  1  0
  9 14  1  0
 13 14  2  0
 11 15  1  0
 11 16  1  0
 14 17  1  0
 13 18  1  0
 16 19  1  0
 15 20  1  0
 20 21  1  6
 19 22  1  0
 17 23  2  0
 18 24  2  0
 23 24  1  0
 19 25  1  0
 20 25  1  0
 21 26  1  0
 21 27  2  0
 22 28  2  0
 22 29  2  0
 25 30  1  1
 22 31  1  0
 26 32  1  0
M  END
