diamond-x0849_0_A-mac-x0345
     RDKit          3D

 20 22  0  0  0  0  0  0  0  0999 V2000
   -2.9640   14.9210   -2.9810 Br  0  0  0  0  0  0  0  0  0  0  0  0
   -3.0860   14.8940   -1.0780 C   0  0  0  0  0  0  0  0  0  0  0  0
   -2.0040   14.7010   -0.2630 C   0  0  0  0  0  0  0  0  0  0  0  0
   -4.2990   15.0670   -0.4960 C   0  0  0  0  0  0  0  0  0  0  0  0
   -2.2220   14.6880    1.1280 C   0  0  0  0  0  0  0  0  0  0  0  0
   -4.3860   15.0400    0.8810 C   0  0  0  0  0  0  0  0  0  0  0  0
   -0.7200   14.5190   -0.7520 C   0  0  0  0  0  0  0  0  0  0  0  0
   -5.6240   15.2100    1.3550 O   0  0  0  0  0  0  0  0  0  0  0  0
   -3.3870   14.8560    1.6980 N   0  0  0  0  0  0  0  0  0  0  0  0
   -1.2590   14.5000    1.9550 N   0  0  0  0  0  0  0  0  0  0  0  0
    0.2840   14.3300    0.1320 C   0  0  0  0  0  0  0  0  0  0  0  0
   -0.0480   14.3280    1.4780 C   0  0  0  0  0  0  0  0  0  0  0  0
   -6.1050   15.0390    0.1260 C   0  0  0  0  0  0  0  0  0  0  0  0
   -7.2800   14.4620   -0.2770 C   0  0  0  0  0  0  0  0  0  0  0  0
   -5.2080   15.5320   -0.8070 C   0  0  0  0  0  0  0  0  0  0  0  0
   -8.2820   13.9280    0.6960 C   0  0  0  0  0  0  0  0  0  0  0  0
   -5.4950   15.4180   -2.1380 C   0  0  0  0  0  0  0  0  0  0  0  0
   -7.5710   14.3520   -1.6050 N   0  0  0  0  0  0  0  0  0  0  0  0
   -6.6730   14.8210   -2.5010 C   0  0  0  0  0  0  0  0  0  0  0  0
   -6.9500   14.6980   -3.8510 N   0  0  0  0  0  0  0  0  0  0  0  0
  1  2  1  0
  2  3  2  0
  2  4  1  0
  3  5  1  0
  4  6  2  0
  3  7  1  0
  6  8  1  0
  5  9  2  0
  6  9  1  0
  5 10  1  0
  7 11  2  0
 10 12  2  0
 11 12  1  0
  8 13  1  0
 13 14  2  0
 13 15  1  0
 14 16  1  0
 15 17  2  0
 14 18  1  0
 17 19  1  0
 18 19  2  0
 19 20  1  0
M  END
