diamond-x0253_0_A-mac-x0348
     RDKit          3D

 25 27  0  0  0  0  0  0  0  0999 V2000
    0.2950   12.4390   -5.4350 N   0  0  0  0  0  0  0  0  0  0  0  0
    1.0820   11.8830   -6.4510 C   0  0  0  0  0  0  0  0  0  0  0  0
    2.2640   12.1630   -6.5280 O   0  0  0  0  0  0  0  0  0  0  0  0
    0.9650   12.9730   -4.2080 C   0  0  2  0  0  0  0  0  0  0  0  0
    0.8660   12.0050   -3.0340 C   0  0  0  0  0  0  0  0  0  0  0  0
    0.5940   14.3520   -3.5720 C   0  0  0  0  0  0  0  0  0  0  0  0
    0.4760   10.9040   -7.4420 C   0  0  0  0  0  0  0  0  0  0  0  0
    1.3520   12.2280   -1.9430 O   0  0  0  0  0  0  0  0  0  0  0  0
    0.1760   10.8650   -3.2260 O   0  0  0  0  0  0  0  0  0  0  0  0
   -0.5060   10.0050   -7.0020 C   0  0  0  0  0  0  0  0  0  0  0  0
    0.8570   10.8500   -8.8010 C   0  0  0  0  0  0  0  0  0  0  0  0
    0.0620   15.4790   -4.3970 C   0  0  0  0  0  0  0  0  0  0  0  0
   -1.0930    9.0790   -7.8890 C   0  0  0  0  0  0  0  0  0  0  0  0
    0.2790    9.9380   -9.6790 C   0  0  0  0  0  0  0  0  0  0  0  0
    0.7700   16.5690   -4.8070 C   0  0  0  0  0  0  0  0  0  0  0  0
   -1.2480   15.6390   -4.8890 C   0  0  0  0  0  0  0  0  0  0  0  0
   -2.1410    8.1210   -7.4130 C   0  0  0  0  0  0  0  0  0  0  0  0
   -0.6900    9.0580   -9.2290 C   0  0  0  0  0  0  0  0  0  0  0  0
   -0.0330   17.3880   -5.5320 N   0  0  0  0  0  0  0  0  0  0  0  0
   -1.2920   16.8470   -5.5980 C   0  0  0  0  0  0  0  0  0  0  0  0
   -2.3930   14.8440   -4.7800 C   0  0  0  0  0  0  0  0  0  0  0  0
    0.4170   18.6260   -6.1210 C   0  0  0  0  0  0  0  0  0  0  0  0
   -3.5590   15.2600   -5.3790 C   0  0  0  0  0  0  0  0  0  0  0  0
   -2.4710   17.2760   -6.2040 C   0  0  0  0  0  0  0  0  0  0  0  0
   -3.5850   16.4440   -6.0690 C   0  0  0  0  0  0  0  0  0  0  0  0
  1  2  1  0
  2  3  2  0
  1  4  1  0
  4  5  1  0
  4  6  1  1
  2  7  1  0
  5  8  2  0
  5  9  1  0
  7 10  2  0
  7 11  1  0
  6 12  1  0
 10 13  1  0
 11 14  2  0
 12 15  2  0
 12 16  1  0
 13 17  1  0
 13 18  2  0
 14 18  1  0
 15 19  1  0
 16 20  2  0
 19 20  1  0
 16 21  1  0
 19 22  1  0
 21 23  2  0
 20 24  1  0
 23 25  1  0
 24 25  2  0
M  END
