diamond-x0282_0_A-diamond-x0662_0_A
     RDKit          3D

 35 38  0  0  0  0  0  0  0  0999 V2000
   -7.0270   13.3430    0.6100 C   0  0  0  0  0  0  0  0  0  0  0  0
   -8.4060   13.5770    0.3260 O   0  0  0  0  0  0  0  0  0  0  0  0
   -6.3230   14.6890    0.6100 C   0  0  0  0  0  0  0  0  0  0  0  0
   -5.3570   14.9040    1.7910 C   0  0  0  0  0  0  0  0  0  0  0  0
   -5.6320   15.0230   -0.7200 C   0  0  0  0  0  0  0  0  0  0  0  0
   -4.0930   14.0760    1.6600 C   0  0  0  0  0  0  0  0  0  0  0  0
   -4.3180   14.2580   -0.8560 C   0  0  0  0  0  0  0  0  0  0  0  0
   -3.5190   14.3230    0.3570 N   0  0  0  0  0  0  0  0  0  0  0  0
   -2.1620   14.4040    0.2120 C   0  0  0  0  0  0  0  0  0  0  0  0
   -1.6740   14.3390   -1.0410 N   0  0  0  0  0  0  0  0  0  0  0  0
   -1.4010   14.5430    1.3190 N   0  0  0  0  0  0  0  0  0  0  0  0
   -0.3490   14.4220   -1.2280 C   0  0  0  0  0  0  0  0  0  0  0  0
   -0.0860   14.6280    1.0900 C   0  0  0  0  0  0  0  0  0  0  0  0
    0.1990   14.3430   -2.6520 C   0  0  0  0  0  0  0  0  0  0  0  0
    0.4930   14.5760   -0.1690 C   0  0  0  0  0  0  0  0  0  0  0  0
    0.4620   12.9030   -3.1610 C   0  0  0  0  0  0  0  0  0  0  0  0
   -0.8370   12.1820   -3.5660 C   0  0  0  0  0  0  0  0  0  0  0  0
   -0.7690   11.4260   -4.8350 N   0  0  0  0  0  0  0  0  0  0  0  0
    0.1180   11.4810   -5.7830 C   0  0  0  0  0  0  0  0  0  0  0  0
    1.1520   12.1740   -5.8700 O   0  0  0  0  0  0  0  0  0  0  0  0
    0.0160   10.6380   -7.0380 C   0  0  0  0  0  0  0  0  0  0  0  0
   -0.9190    9.6010   -7.0830 C   0  0  0  0  0  0  0  0  0  0  0  0
    0.8310   10.8730   -8.1590 C   0  0  0  0  0  0  0  0  0  0  0  0
   -1.0390    8.8160   -8.2290 C   0  0  0  0  0  0  0  0  0  0  0  0
    0.7160   10.0870   -9.3250 C   0  0  0  0  0  0  0  0  0  0  0  0
    1.5470   10.3550  -10.4450 N   0  0  0  0  0  0  0  0  0  0  0  0
   -0.2270    9.0600   -9.3430 C   0  0  0  0  0  0  0  0  0  0  0  0
    2.2050    9.4710  -11.2960 C   0  0  0  0  0  0  0  0  0  0  0  0
    2.2050    8.2720  -11.0100 O   0  0  0  0  0  0  0  0  0  0  0  0
    2.9100    9.9690  -12.5060 C   0  0  0  0  0  0  0  0  0  0  0  0
    2.7330   11.2150  -13.1840 C   0  0  0  0  0  0  0  0  0  0  0  0
    3.8630    9.2330  -13.1140 N   0  0  0  0  0  0  0  0  0  0  0  0
    4.2750   10.0020  -14.1410 N   0  0  0  0  0  0  0  0  0  0  0  0
    3.6280   11.1990  -14.2270 C   0  0  0  0  0  0  0  0  0  0  0  0
    5.3170    9.5180  -15.0150 C   0  0  0  0  0  0  0  0  0  0  0  0
  1  2  1  0
  1  3  1  0
  3  4  1  0
  3  5  1  0
  4  6  1  0
  5  7  1  0
  6  8  1  0
  7  8  1  0
  8  9  1  0
  9 10  2  0
  9 11  1  0
 10 12  1  0
 11 13  2  0
 12 14  1  0
 12 15  2  0
 13 15  1  0
 14 16  1  0
 16 17  1  0
 17 18  1  0
 18 19  2  3
 19 20  1  0
 19 21  1  0
 21 22  2  0
 21 23  1  0
 22 24  1  0
 23 25  2  0
 25 26  1  0
 24 27  2  0
 25 27  1  0
 26 28  1  0
 28 29  2  0
 28 30  1  0
 30 31  1  0
 30 32  2  0
 32 33  1  0
 31 34  2  0
 33 34  1  0
 33 35  1  0
M  CHG  1  20  -1
M  END
