diamond-x0253_0_A-mac-x0341
     RDKit          3D

 28 30  0  0  0  0  0  0  0  0999 V2000
    0.3660   11.8880   -5.4640 N   0  0  0  0  0  0  0  0  0  0  0  0
    1.0600   11.5780   -6.5890 C   0  0  0  0  0  0  0  0  0  0  0  0
    2.1730   12.0260   -6.7440 O   0  0  0  0  0  0  0  0  0  0  0  0
    0.9090   12.9980   -4.7310 C   0  0  0  0  0  0  0  0  0  0  0  0
    0.7330   12.8460   -3.2460 C   0  0  0  0  0  0  0  0  0  0  0  0
    0.4310   10.6740   -7.5810 C   0  0  0  0  0  0  0  0  0  0  0  0
    0.7610   13.8040   -2.4070 N   0  0  0  0  0  0  0  0  0  0  0  0
    0.5400   11.5800   -2.7940 O   0  0  0  0  0  0  0  0  0  0  0  0
   -0.5480    9.7540   -7.1860 C   0  0  0  0  0  0  0  0  0  0  0  0
    0.8150   10.7320   -8.9240 C   0  0  0  0  0  0  0  0  0  0  0  0
    0.6220   13.6590   -0.9770 C   0  0  0  0  0  0  0  0  0  0  0  0
   -1.1410    8.9020   -8.1240 C   0  0  0  0  0  0  0  0  0  0  0  0
    0.2320    9.8880   -9.8640 C   0  0  0  0  0  0  0  0  0  0  0  0
   -2.1880    7.9270   -7.6790 C   0  0  0  0  0  0  0  0  0  0  0  0
   -0.2440   14.7230   -0.3000 C   0  0  0  0  0  0  0  0  0  0  0  0
   -0.7450    8.9760   -9.4670 C   0  0  0  0  0  0  0  0  0  0  0  0
   -1.7320   14.7660   -0.6030 C   0  0  0  0  0  0  0  0  0  0  0  0
   -2.6340   14.7770    0.4660 C   0  0  0  0  0  0  0  0  0  0  0  0
   -2.2440   14.8090   -1.9170 C   0  0  0  0  0  0  0  0  0  0  0  0
   -4.0060   14.8310    0.2500 C   0  0  0  0  0  0  0  0  0  0  0  0
   -3.6270   14.8670   -2.1420 C   0  0  0  0  0  0  0  0  0  0  0  0
   -4.4950   14.8770   -1.0480 C   0  0  0  0  0  0  0  0  0  0  0  0
   -4.8440   14.8320    1.3570 N   0  0  0  0  0  0  0  0  0  0  0  0
   -6.1140   14.7550    1.1890 C   0  0  0  0  0  0  0  0  0  0  0  0
   -5.9630   14.9320   -1.1980 C   0  0  0  0  0  0  0  0  0  0  0  0
   -6.8970   14.7200    2.2920 N   0  0  0  0  0  0  0  0  0  0  0  0
   -6.5030   15.1560   -2.2700 O   0  0  0  0  0  0  0  0  0  0  0  0
   -6.6900   14.7060   -0.0460 N   0  0  0  0  0  0  0  0  0  0  0  0
  1  2  1  0
  2  3  2  0
  1  4  1  0
  4  5  1  0
  2  6  1  0
  5  7  2  3
  5  8  1  0
  6  9  2  0
  6 10  1  0
  7 11  1  0
  9 12  1  0
 10 13  2  0
 12 14  1  0
 11 15  1  0
 12 16  2  0
 13 16  1  0
 15 17  1  0
 17 18  2  0
 17 19  1  0
 18 20  1  0
 19 21  2  0
 20 22  2  0
 21 22  1  0
 20 23  1  0
 23 24  2  0
 22 25  1  0
 24 26  1  0
 25 27  2  0
 24 28  1  0
 25 28  1  0
M  END
