diamond-x0727_0_A-mac-x0188
     RDKit          3D

 26 29  0  0  0  0  0  0  0  0999 V2000
    0.1190   11.3030   -5.5760 N   0  0  0  0  0  0  0  0  0  0  0  0
    0.5980   12.3860   -4.6770 C   0  0  2  0  0  0  0  0  0  0  0  0
    1.9320   12.9460   -5.1810 C   0  0  0  0  0  0  0  0  0  0  0  0
    0.7000   11.0470   -6.7990 C   0  0  0  0  0  0  0  0  0  0  0  0
    1.6140   11.7130   -7.2160 O   0  0  0  0  0  0  0  0  0  0  0  0
    0.7470   11.8760   -3.2230 C   0  0  0  0  0  0  0  0  0  0  0  0
    0.1260    9.8600   -7.5550 C   0  0  0  0  0  0  0  0  0  0  0  0
   -0.3220   13.5760   -4.6040 C   0  0  1  0  0  0  0  0  0  0  0  0
    0.4800   10.7160   -2.8860 O   0  0  0  0  0  0  0  0  0  0  0  0
    1.1270   12.7910   -2.3090 O   0  0  0  0  0  0  0  0  0  0  0  0
   -1.1780   10.2390   -8.2700 C   0  0  0  0  0  0  0  0  0  0  0  0
   -0.2150    8.6800   -6.6270 C   0  0  0  0  0  0  0  0  0  0  0  0
   -1.4960   13.5020   -5.3970 O   0  0  0  0  0  0  0  0  0  0  0  0
   -0.8210   13.6760   -3.1970 C   0  0  1  0  0  0  0  0  0  0  0  0
    0.4040   13.9250   -2.3780 C   0  0  0  0  0  0  0  0  0  0  0  0
   -2.1510    9.0970   -8.0150 C   0  0  0  0  0  0  0  0  0  0  0  0
   -1.7180    8.4790   -6.6970 C   0  0  0  0  0  0  0  0  0  0  0  0
   -2.5480   14.1390   -4.6050 N   0  0  0  0  0  0  0  0  0  0  0  0
   -1.8730   14.7110   -3.4100 C   0  0  1  0  0  0  0  0  0  0  0  0
    0.7270   14.9860   -1.8470 O   0  0  0  0  0  0  0  0  0  0  0  0
   -2.8470   14.9390   -2.2860 C   0  0  0  0  0  0  0  0  0  0  0  0
   -4.1520   15.3280   -2.5990 C   0  0  0  0  0  0  0  0  0  0  0  0
   -2.5080   14.7830   -0.9360 C   0  0  0  0  0  0  0  0  0  0  0  0
   -5.0930   15.5650   -1.6000 C   0  0  0  0  0  0  0  0  0  0  0  0
   -3.4490   15.0210    0.0680 C   0  0  0  0  0  0  0  0  0  0  0  0
   -4.7370   15.4120   -0.2690 C   0  0  0  0  0  0  0  0  0  0  0  0
  2  1  1  0
  2  3  1  6
  1  4  1  0
  4  5  2  0
  2  6  1  0
  4  7  1  0
  2  8  1  0
  6  9  2  0
  6 10  1  0
  7 11  1  0
  7 12  1  0
  8 13  1  6
  8 14  1  0
 10 15  1  0
 14 15  1  1
 11 16  1  0
 12 17  1  0
 16 17  1  0
 13 18  1  0
 14 19  1  0
 18 19  1  0
 15 20  2  0
 19 21  1  1
 21 22  2  0
 21 23  1  0
 22 24  1  0
 23 25  2  0
 24 26  2  0
 25 26  1  0
M  END
