diamond-x0711_0_A-diamond-x0962_2_B
     RDKit          3D

 21 22  0  0  0  0  0  0  0  0999 V2000
   -1.7040   15.0630   -2.4460 N   0  0  0  0  0  0  0  0  0  0  0  0
   -0.7190   13.8120   -3.0200 S   0  0  0  0  0  0  0  0  0  0  0  0
   -1.8470   12.7500   -3.8970 C   0  0  0  0  0  0  0  0  0  0  0  0
   -2.9240   14.9170   -1.6920 C   0  0  0  0  0  0  0  0  0  0  0  0
    0.2210   14.3780   -3.9650 O   0  0  0  0  0  0  0  0  0  0  0  0
   -0.2370   13.1200   -1.8440 O   0  0  0  0  0  0  0  0  0  0  0  0
   -4.1380   15.1460   -2.3410 C   0  0  0  0  0  0  0  0  0  0  0  0
   -2.9160   14.5690   -0.3320 C   0  0  0  0  0  0  0  0  0  0  0  0
   -5.3450   15.0320   -1.6410 C   0  0  0  0  0  0  0  0  0  0  0  0
   -4.1300   14.4530    0.3740 C   0  0  0  0  0  0  0  0  0  0  0  0
   -5.3570   14.6860   -0.2770 C   0  0  0  0  0  0  0  0  0  0  0  0
   -6.6940   14.5810    0.4060 C   0  0  0  0  0  0  0  0  0  0  0  0
   -6.8920   14.2940    1.7560 N   0  0  0  0  0  0  0  0  0  0  0  0
   -7.6870   14.7460   -0.3020 O   0  0  0  0  0  0  0  0  0  0  0  0
   -7.7010   14.8890    2.7440 C   0  0  0  0  0  0  0  0  0  0  0  0
   -8.9110   15.5800    2.6450 C   0  0  0  0  0  0  0  0  0  0  0  0
   -7.3420   14.8530    4.0600 N   0  0  0  0  0  0  0  0  0  0  0  0
   -9.7370   15.9110    1.5510 C   0  0  0  0  0  0  0  0  0  0  0  0
   -9.2300   15.9500    3.9300 N   0  0  0  0  0  0  0  0  0  0  0  0
   -8.2500   15.4880    4.7450 C   0  0  0  0  0  0  0  0  0  0  0  0
  -10.4460   16.2080    0.6860 N   0  0  0  0  0  0  0  0  0  0  0  0
  2  1  1  0
  2  3  1  0
  1  4  1  0
  2  5  2  0
  2  6  2  0
  4  7  2  0
  4  8  1  0
  7  9  1  0
  8 10  2  0
  9 11  2  0
 10 11  1  0
 11 12  1  0
 12 13  1  0
 12 14  2  0
 13 15  1  0
 15 16  2  0
 15 17  1  0
 16 18  1  0
 16 19  1  0
 17 20  2  0
 19 20  1  0
 18 21  3  0
M  END
