diamond-x0128_0_A-mac-x0182
     RDKit          3D

 31 34  0  0  0  0  0  0  0  0999 V2000
   -6.7590   14.5610    2.4750 N   0  0  0  0  0  0  0  0  0  0  0  0
   -7.8700   15.2140    2.9630 C   0  0  0  0  0  0  0  0  0  0  0  0
   -8.8170   15.6360    2.3100 O   0  0  0  0  0  0  0  0  0  0  0  0
   -6.0500   14.7160    1.2710 C   0  0  0  0  0  0  0  0  0  0  0  0
   -7.7120   15.3020    4.3320 N   0  0  0  0  0  0  0  0  0  0  0  0
   -6.7590   14.6110    0.0700 C   0  0  0  0  0  0  0  0  0  0  0  0
   -4.6750   14.9630    1.2310 C   0  0  0  0  0  0  0  0  0  0  0  0
   -6.0970   14.7410   -1.1550 C   0  0  0  0  0  0  0  0  0  0  0  0
   -4.0170   15.0920    0.0120 C   0  0  0  0  0  0  0  0  0  0  0  0
   -8.4760   16.0370    5.2640 C   0  0  0  0  0  0  0  0  0  0  0  0
   -4.7130   14.9780   -1.1880 C   0  0  0  0  0  0  0  0  0  0  0  0
   -9.1390   17.1900    4.8350 C   0  0  0  0  0  0  0  0  0  0  0  0
   -8.6270   15.6960    6.6030 C   0  0  0  0  0  0  0  0  0  0  0  0
   -3.9660   15.1010   -2.4900 C   0  0  0  0  0  0  0  0  0  0  0  0
   -9.9050   17.9840    5.6170 N   0  0  0  0  0  0  0  0  0  0  0  0
   -9.4100   16.4940    7.4400 C   0  0  0  0  0  0  0  0  0  0  0  0
   -3.7290   13.7370   -3.1770 C   0  0  0  0  0  0  0  0  0  0  0  0
  -10.0230   17.6180    6.9050 C   0  0  0  0  0  0  0  0  0  0  0  0
   -2.3050   13.1510   -3.0910 C   0  0  0  0  0  0  0  0  0  0  0  0
   -1.9730   12.3090   -4.2570 N   0  0  0  0  0  0  0  0  0  0  0  0
   -0.8220   11.2960   -4.2920 S   0  0  2  0  0  0  0  0  0  0  0  0
   -0.2200   10.5400   -3.2170 O   0  0  0  0  0  0  0  0  0  0  0  0
    0.4300   12.1310   -5.0390 N   0  0  0  0  0  0  0  0  0  0  0  0
   -1.1320   10.2490   -5.6440 C   0  0  0  0  0  0  0  0  0  0  0  0
    0.7540   11.5820   -6.2540 C   0  0  0  0  0  0  0  0  0  0  0  0
   -0.2070   10.5160   -6.6440 C   0  0  0  0  0  0  0  0  0  0  0  0
   -2.1210    9.2940   -5.7690 C   0  0  0  0  0  0  0  0  0  0  0  0
    1.7110   11.8820   -6.9270 O   0  0  0  0  0  0  0  0  0  0  0  0
   -2.1690    8.5850   -6.9690 C   0  0  0  0  0  0  0  0  0  0  0  0
   -0.2460    9.8170   -7.8400 C   0  0  0  0  0  0  0  0  0  0  0  0
   -1.2410    8.8440   -7.9970 C   0  0  0  0  0  0  0  0  0  0  0  0
  1  2  1  0
  2  3  2  0
  1  4  1  0
  2  5  1  0
  4  6  2  0
  4  7  1  0
  6  8  1  0
  7  9  2  0
  5 10  1  0
  8 11  2  0
  9 11  1  0
 10 12  2  0
 10 13  1  0
 11 14  1  0
 12 15  1  0
 13 16  2  0
 14 17  1  0
 15 18  2  0
 16 18  1  0
 17 19  1  0
 19 20  1  0
 20 21  2  0
 21 22  2  0
 21 23  1  6
 21 24  1  0
 23 25  1  0
 24 26  2  0
 25 26  1  0
 24 27  1  0
 25 28  2  0
 27 29  2  0
 26 30  1  0
 29 31  1  0
 30 31  2  0
M  END
