diamond-x0849_0_A-mac-x0231
     RDKit          3D

 27 30  0  0  0  0  0  0  0  0999 V2000
   -3.8600   15.1550   -2.8480 Br  0  0  0  0  0  0  0  0  0  0  0  0
   -3.6940   15.1170   -0.9650 C   0  0  0  0  0  0  0  0  0  0  0  0
   -2.4680   14.8560   -0.3540 C   0  0  0  0  0  0  0  0  0  0  0  0
   -4.8240   15.3530   -0.2100 C   0  0  0  0  0  0  0  0  0  0  0  0
   -2.4420   14.8390    1.0400 C   0  0  0  0  0  0  0  0  0  0  0  0
   -4.6740   15.3110    1.1520 C   0  0  0  0  0  0  0  0  0  0  0  0
   -1.2750   14.6170   -1.0510 C   0  0  0  0  0  0  0  0  0  0  0  0
   -3.5140   15.0600    1.7580 N   0  0  0  0  0  0  0  0  0  0  0  0
   -1.3450   14.6010    1.7110 N   0  0  0  0  0  0  0  0  0  0  0  0
   -0.1150   14.3780   -0.3610 C   0  0  0  0  0  0  0  0  0  0  0  0
    1.1870   14.1420   -1.0660 C   0  0  0  0  0  0  0  0  0  0  0  0
   -0.2260   14.3810    1.0290 C   0  0  0  0  0  0  0  0  0  0  0  0
    1.2620   13.5990   -2.4010 N   0  0  0  0  0  0  0  0  0  0  0  0
    1.1500   12.4580   -2.9860 C   0  0  0  0  0  0  0  0  0  0  0  0
    0.8580   11.2850   -2.3850 O   0  0  0  0  0  0  0  0  0  0  0  0
    1.3430   12.4740   -4.4540 C   0  0  0  0  0  0  0  0  0  0  0  0
    0.9720   13.9120   -4.6770 C   0  0  0  0  0  0  0  0  0  0  0  0
   -0.4200   14.2720   -4.9530 C   0  0  0  0  0  0  0  0  0  0  0  0
    1.9240   14.7840   -4.5240 N   0  0  0  0  0  0  0  0  0  0  0  0
   -0.7400   15.6240   -4.9710 C   0  0  0  0  0  0  0  0  0  0  0  0
    1.5990   16.0970   -4.6520 N   0  0  0  0  0  0  0  0  0  0  0  0
   -1.4140   13.3210   -5.1830 C   0  0  0  0  0  0  0  0  0  0  0  0
    0.3300   16.6100   -4.7320 C   0  0  0  0  0  0  0  0  0  0  0  0
   -2.0550   16.0390   -5.2140 C   0  0  0  0  0  0  0  0  0  0  0  0
   -2.7220   13.7270   -5.4280 C   0  0  0  0  0  0  0  0  0  0  0  0
    0.0920   17.8110   -4.6220 O   0  0  0  0  0  0  0  0  0  0  0  0
   -3.0490   15.0810   -5.4450 C   0  0  0  0  0  0  0  0  0  0  0  0
  1  2  1  0
  2  3  2  0
  2  4  1  0
  3  5  1  0
  4  6  2  0
  3  7  1  0
  5  8  2  0
  6  8  1  0
  5  9  1  0
  7 10  2  0
 10 11  1  0
  9 12  2  0
 10 12  1  0
 11 13  1  0
 13 14  2  3
 14 15  1  0
 14 16  1  0
 16 17  1  0
 17 18  1  0
 17 19  2  0
 18 20  2  0
 19 21  1  0
 18 22  1  0
 20 23  1  0
 21 23  1  0
 20 24  1  0
 22 25  2  0
 23 26  2  0
 24 27  2  0
 25 27  1  0
M  END
