diamond-x0900_0_A-mac-x0148
     RDKit          3D

 20 23  0  0  0  0  0  0  0  0999 V2000
   -6.5080   13.9420   -0.9920 O   0  0  0  0  0  0  0  0  0  0  0  0
   -5.4130   14.3340   -0.6290 C   0  0  0  0  0  0  0  0  0  0  0  0
   -4.1860   13.7010   -0.7850 N   0  0  0  0  0  0  0  0  0  0  0  0
   -5.1500   15.6090    0.0550 C   0  0  0  0  0  0  0  0  0  0  0  0
   -3.7030   15.8610   -0.2940 C   0  0  0  0  0  0  0  0  0  0  0  0
   -3.0410   14.5060   -0.3170 C   0  0  1  0  0  0  0  0  0  0  0  0
   -2.7460   14.3360    1.1980 C   0  0  0  0  0  0  0  0  0  0  0  0
   -1.6200   14.1490   -1.0210 C   0  0  1  0  0  0  0  0  0  0  0  0
   -1.4560   13.7050   -2.4240 N   0  0  0  0  0  0  0  0  0  0  0  0
   -0.4870   14.9260   -0.5800 N   0  0  0  0  0  0  0  0  0  0  0  0
   -1.4280   14.8330    1.6340 N   0  0  0  0  0  0  0  0  0  0  0  0
   -1.4750   14.6230   -3.6020 C   0  0  2  0  0  0  0  0  0  0  0  0
   -0.3680   12.7270   -2.5400 C   0  0  0  0  0  0  0  0  0  0  0  0
   -0.2530   14.6410    0.8080 C   0  0  0  0  0  0  0  0  0  0  0  0
   -2.7950   15.3240   -3.9750 C   0  0  0  0  0  0  0  0  0  0  0  0
   -1.1040   13.9850   -4.9670 C   0  0  2  0  0  0  0  0  0  0  0  0
   -0.3950   11.8980   -3.8150 C   0  0  0  0  0  0  0  0  0  0  0  0
   -2.4540   13.6930   -5.5800 C   0  0  0  0  0  0  0  0  0  0  0  0
   -3.2590   14.8230   -5.2460 O   0  0  0  0  0  0  0  0  0  0  0  0
   -0.1410   12.7960   -5.0030 C   0  0  0  0  0  0  0  0  0  0  0  0
  1  2  2  0
  2  3  1  0
  2  4  1  0
  4  5  1  0
  6  3  1  0
  6  5  1  1
  6  7  1  0
  6  8  1  0
  8  9  1  6
  8 10  1  0
  7 11  1  0
  9 12  1  0
  9 13  1  0
 10 14  1  0
 11 14  1  0
 12 15  1  6
 12 16  1  0
 13 17  1  0
 16 18  1  1
 15 19  1  0
 18 19  1  0
 16 20  1  0
 17 20  1  0
M  END
