diamond-x0844_0_A-mac-x0263
     RDKit          3D

 16 17  0  0  0  0  0  0  0  0999 V2000
   -7.0940   15.8900   -0.8160 O   0  0  0  0  0  0  0  0  0  0  0  0
   -6.3490   14.7620   -0.4480 C   0  0  2  0  0  0  0  0  0  0  0  0
   -5.7000   15.0470    0.8500 N   0  0  0  0  0  0  0  0  0  0  0  0
   -5.3590   14.5030   -1.5670 C   0  0  0  0  0  0  0  0  0  0  0  0
   -7.4100   13.7980   -0.2290 N   0  0  0  0  0  0  0  0  0  0  0  0
   -4.3500   14.8630    1.0560 C   0  0  0  0  0  0  0  0  0  0  0  0
   -4.0360   15.2110   -1.3130 C   0  0  2  0  0  0  0  0  0  0  0  0
   -7.7700   14.4450    1.0360 C   0  0  2  0  0  0  0  0  0  0  0  0
   -6.5300   14.4370    1.8180 N   0  0  0  0  0  0  0  0  0  0  0  0
   -2.7540   14.6260   -2.6650 Br  0  0  0  0  0  0  0  0  0  0  0  0
   -8.9770   13.9730    1.8090 C   0  0  0  0  0  0  0  0  0  0  0  0
   -3.4860   14.9320    0.0500 C   0  0  0  0  0  0  0  0  0  0  0  0
   -9.5300   15.1550    2.6010 C   0  0  0  0  0  0  0  0  0  0  0  0
  -10.9930   15.1010    2.9150 C   0  0  0  0  0  0  0  0  0  0  0  0
  -11.6820   14.1170    2.3170 O   0  0  0  0  0  0  0  0  0  0  0  0
  -11.5330   15.8880    3.6660 O   0  0  0  0  0  0  0  0  0  0  0  0
  2  1  1  6
  2  3  1  0
  2  4  1  0
  2  5  1  0
  3  6  1  0
  4  7  1  0
  5  8  1  0
  3  9  1  0
  8  9  1  0
  7 10  1  6
  8 11  1  1
  6 12  2  0
  7 12  1  0
 11 13  1  0
 13 14  1  0
 14 15  1  0
 14 16  2  0
M  END
