diamond-x0910_0_A-mac-x0439
     RDKit          3D

 20 22  0  0  0  0  0  0  0  0999 V2000
   -2.3860   15.0710   -1.9140 N   0  0  0  0  0  0  0  0  0  0  0  0
   -1.7130   14.9190   -0.7640 C   0  0  0  0  0  0  0  0  0  0  0  0
   -2.0380   15.4620    0.3890 N   0  0  0  0  0  0  0  0  0  0  0  0
   -0.5650   14.1540   -0.5910 N   0  0  0  0  0  0  0  0  0  0  0  0
    0.1780   13.3420   -1.5810 C   0  0  0  0  0  0  0  0  0  0  0  0
   -1.1250   15.0630    1.3230 N   0  0  0  0  0  0  0  0  0  0  0  0
   -0.2630   14.2870    0.7270 C   0  0  0  0  0  0  0  0  0  0  0  0
    1.5390   13.5770   -1.9160 N   0  0  0  0  0  0  0  0  0  0  0  0
    1.7570   14.4700   -2.7280 C   0  0  0  0  0  0  0  0  0  0  0  0
    3.0470   14.6130   -2.9650 O   0  0  0  0  0  0  0  0  0  0  0  0
    0.9020   15.4270   -3.4610 C   0  0  0  0  0  0  0  0  0  0  0  0
   -0.4370   15.4150   -3.5010 C   0  0  0  0  0  0  0  0  0  0  0  0
    1.4480   16.4490   -4.1580 N   0  0  0  0  0  0  0  0  0  0  0  0
   -0.9000   16.6380   -4.2180 C   0  0  1  0  0  0  0  0  0  0  0  0
    0.4670   17.1320   -4.6070 C   0  0  0  0  0  0  0  0  0  0  0  0
   -1.8360   16.7600   -5.3640 C   0  0  0  0  0  0  0  0  0  0  0  0
    0.5910   18.3360   -5.4290 C   0  0  0  0  0  0  0  0  0  0  0  0
   -3.1860   15.6950   -5.4670 Cl  0  0  0  0  0  0  0  0  0  0  0  0
   -1.6210   17.7130   -6.2840 C   0  0  0  0  0  0  0  0  0  0  0  0
   -0.4610   18.5940   -6.2270 C   0  0  0  0  0  0  0  0  0  0  0  0
  1  2  1  0
  2  3  2  0
  2  4  1  0
  4  5  1  0
  3  6  1  0
  4  7  1  0
  6  7  2  0
  5  8  1  0
  8  9  2  3
  9 10  1  0
  9 11  1  0
 11 12  2  0
 11 13  1  0
 14 12  1  6
 13 15  2  0
 14 15  1  0
 14 16  1  0
 15 17  1  0
 16 18  1  0
 16 19  2  0
 17 20  2  0
 19 20  1  0
M  END
