diamond-x0711_0_A-diamond-x0689_0_A
     RDKit          3D

 21 22  0  0  0  0  0  0  0  0999 V2000
   -1.8500   14.7460   -3.4760 N   0  0  0  0  0  0  0  0  0  0  0  0
   -0.4420   13.8280   -3.4940 S   0  0  0  0  0  0  0  0  0  0  0  0
   -1.0020   12.4270   -4.4300 C   0  0  0  0  0  0  0  0  0  0  0  0
   -2.8720   14.6670   -2.4970 C   0  0  0  0  0  0  0  0  0  0  0  0
    0.5560   14.5390   -4.2600 O   0  0  0  0  0  0  0  0  0  0  0  0
   -0.1550   13.3590   -2.1550 O   0  0  0  0  0  0  0  0  0  0  0  0
   -4.0220   15.4040   -2.6990 C   0  0  0  0  0  0  0  0  0  0  0  0
   -2.7410   13.8850   -1.3550 C   0  0  0  0  0  0  0  0  0  0  0  0
   -5.0580   15.4010   -1.7680 C   0  0  0  0  0  0  0  0  0  0  0  0
   -3.7690   13.8770   -0.4190 C   0  0  0  0  0  0  0  0  0  0  0  0
   -4.9150   14.6400   -0.6250 C   0  0  0  0  0  0  0  0  0  0  0  0
   -5.8810   14.5620    0.4580 C   0  0  0  0  0  0  0  0  0  0  0  0
   -5.1990   14.6000    1.6620 N   0  0  0  0  0  0  0  0  0  0  0  0
   -7.1040   14.4860    0.2790 O   0  0  0  0  0  0  0  0  0  0  0  0
   -3.9810   15.3860    1.7540 N   0  0  0  0  0  0  0  0  0  0  0  0
   -2.7030   14.9810    1.1980 C   0  0  0  0  0  0  0  0  0  0  0  0
   -2.4740   15.0720   -0.1220 N   0  0  0  0  0  0  0  0  0  0  0  0
   -1.7430   14.5400    2.0330 N   0  0  0  0  0  0  0  0  0  0  0  0
   -1.2410   14.7250   -0.5810 C   0  0  0  0  0  0  0  0  0  0  0  0
   -0.5330   14.1990    1.5290 C   0  0  0  0  0  0  0  0  0  0  0  0
   -0.2220   14.2770    0.2090 C   0  0  0  0  0  0  0  0  0  0  0  0
  2  1  1  0
  2  3  1  0
  1  4  1  0
  2  5  2  0
  2  6  2  0
  4  7  2  0
  4  8  1  0
  7  9  1  0
  8 10  2  0
  9 11  2  0
 10 11  1  0
 11 12  1  0
 12 13  1  0
 12 14  2  0
 13 15  1  0
 15 16  1  0
 16 17  2  0
 16 18  1  0
 17 19  1  0
 18 20  2  0
 19 21  2  0
 20 21  1  0
M  END
