diamond-x0844_0_A-mac-x0441
     RDKit          3D

 28 30  0  0  0  0  0  0  0  0999 V2000
   -7.5400   14.7630   -0.0840 O   0  0  0  0  0  0  0  0  0  0  0  0
   -6.3150   14.8990   -0.1210 C   0  0  0  0  0  0  0  0  0  0  0  0
   -5.5800   14.8370    1.0330 N   0  0  0  0  0  0  0  0  0  0  0  0
   -5.5880   15.1450   -1.4260 C   0  0  0  0  0  0  0  0  0  0  0  0
   -4.2310   14.9780    1.1130 C   0  0  0  0  0  0  0  0  0  0  0  0
   -4.0620   15.2710   -1.3500 C   0  0  2  0  0  0  0  0  0  0  0  0
   -3.4140   14.2670   -2.1470 O   0  0  0  0  0  0  0  0  0  0  0  0
   -3.4880   15.1750    0.0300 C   0  0  0  0  0  0  0  0  0  0  0  0
   -2.2820   14.7040   -2.9090 C   0  0  0  0  0  0  0  0  0  0  0  0
   -1.7800   13.5210   -3.7460 C   0  0  0  0  0  0  0  0  0  0  0  0
   -0.6350   13.8870   -4.7150 C   0  0  0  0  0  0  0  0  0  0  0  0
    0.4600   12.8010   -4.8420 C   0  0  1  0  0  0  0  0  0  0  0  0
    0.7910   12.1930   -3.4850 C   0  0  0  0  0  0  0  0  0  0  0  0
    0.1780   11.8080   -5.8890 N   0  0  0  0  0  0  0  0  0  0  0  0
    0.4640   10.8870   -3.3660 O   0  0  0  0  0  0  0  0  0  0  0  0
    1.2990   12.7390   -2.5230 O   0  0  0  0  0  0  0  0  0  0  0  0
    0.9500   11.8270   -7.0200 N   0  0  0  0  0  0  0  0  0  0  0  0
   -0.7680   10.8220   -5.9480 C   0  0  0  0  0  0  0  0  0  0  0  0
    0.4660   10.8320   -7.8030 C   0  0  0  0  0  0  0  0  0  0  0  0
   -0.6030   10.1850   -7.1560 C   0  0  0  0  0  0  0  0  0  0  0  0
   -1.8060   10.4500   -4.9500 C   0  0  0  0  0  0  0  0  0  0  0  0
    0.9470   10.4220   -9.1780 C   0  0  0  0  0  0  0  0  0  0  0  0
   -1.4310    9.0440   -7.6300 C   0  0  0  0  0  0  0  0  0  0  0  0
   -2.9400    9.7040   -5.6790 C   0  0  0  0  0  0  0  0  0  0  0  0
    1.6170    9.2400   -9.1500 F   0  0  0  0  0  0  0  0  0  0  0  0
   -0.1060   10.2080  -10.0040 F   0  0  0  0  0  0  0  0  0  0  0  0
    1.6940   11.3020   -9.8690 F   0  0  0  0  0  0  0  0  0  0  0  0
   -2.3960    8.5510   -6.5380 C   0  0  0  0  0  0  0  0  0  0  0  0
  1  2  2  0
  2  3  1  0
  2  4  1  0
  3  5  1  0
  4  6  1  0
  6  7  1  6
  5  8  2  0
  6  8  1  0
  7  9  1  0
  9 10  1  0
 10 11  1  0
 12 11  1  1
 12 13  1  0
 12 14  1  0
 13 15  1  0
 13 16  2  0
 14 17  1  0
 14 18  1  0
 17 19  2  0
 18 20  2  0
 19 20  1  0
 18 21  1  0
 19 22  1  0
 20 23  1  0
 21 24  1  0
 22 25  1  0
 22 26  1  0
 22 27  1  0
 23 28  1  0
 24 28  1  0
M  END
