diamond-x0724_0_A-mac-x0284
     RDKit          3D

 18 19  0  0  0  0  0  0  0  0999 V2000
   -8.2040   13.7590    4.2860 N   0  0  0  0  0  0  0  0  0  0  0  0
   -8.7050   13.9530    5.6430 C   0  0  0  0  0  0  0  0  0  0  0  0
   -8.3450   14.9740    3.4910 C   0  0  0  0  0  0  0  0  0  0  0  0
   -7.6140   14.8120    2.1910 C   0  0  0  0  0  0  0  0  0  0  0  0
   -6.2470   14.8440    1.9490 C   0  0  0  0  0  0  0  0  0  0  0  0
   -8.1610   14.6010    0.9110 C   0  0  0  0  0  0  0  0  0  0  0  0
   -7.2310   14.5190   -0.0520 N   0  0  0  0  0  0  0  0  0  0  0  0
   -6.0420   14.6730    0.5860 N   0  0  0  0  0  0  0  0  0  0  0  0
   -4.7760   14.6570   -0.1150 C   0  0  0  0  0  0  0  0  0  0  0  0
   -3.6050   14.6800    0.6510 C   0  0  0  0  0  0  0  0  0  0  0  0
   -4.6560   14.6230   -1.5310 C   0  0  0  0  0  0  0  0  0  0  0  0
   -2.3430   14.6660    0.0400 C   0  0  0  0  0  0  0  0  0  0  0  0
   -3.3650   14.6090   -2.1410 C   0  0  0  0  0  0  0  0  0  0  0  0
   -3.2260   14.5780   -3.5220 O   0  0  0  0  0  0  0  0  0  0  0  0
   -2.1940   14.6260   -1.3590 C   0  0  0  0  0  0  0  0  0  0  0  0
   -0.7660   14.6030   -1.8910 C   0  0  0  0  0  0  0  0  0  0  0  0
    0.2020   14.5770   -1.1450 O   0  0  0  0  0  0  0  0  0  0  0  0
   -0.5950   14.6010   -3.2330 O   0  0  0  0  0  0  0  0  0  0  0  0
  1  2  1  0
  1  3  1  0
  3  4  1  0
  4  5  2  0
  4  6  1  0
  6  7  2  0
  5  8  1  0
  7  8  1  0
  8  9  1  0
  9 10  2  0
  9 11  1  0
 10 12  1  0
 11 13  2  0
 13 14  1  0
 12 15  2  0
 13 15  1  0
 15 16  1  0
 16 17  2  0
 16 18  1  0
M  END
