diamond-x0852_0_B-diamond-x0626_0_A
     RDKit          3D

 23 24  0  0  0  0  0  0  0  0999 V2000
   -9.6910   17.7880    7.3160 N   0  0  0  0  0  0  0  0  0  0  0  0
   -9.4530   17.2850    6.2950 C   0  0  0  0  0  0  0  0  0  0  0  0
   -9.2230   16.6090    5.0560 C   0  0  0  0  0  0  0  0  0  0  0  0
   -8.3120   15.5470    4.9650 C   0  0  0  0  0  0  0  0  0  0  0  0
   -9.9410   17.0290    3.9200 C   0  0  0  0  0  0  0  0  0  0  0  0
   -7.6060   15.1350    6.0700 O   0  0  0  0  0  0  0  0  0  0  0  0
   -8.1250   14.9040    3.7530 C   0  0  0  0  0  0  0  0  0  0  0  0
   -9.7540   16.3870    2.6970 C   0  0  0  0  0  0  0  0  0  0  0  0
  -10.3700   16.6760    1.5020 O   0  0  0  0  0  0  0  0  0  0  0  0
   -8.8480   15.3290    2.6360 C   0  0  0  0  0  0  0  0  0  0  0  0
   -9.8730   16.0920    0.2990 C   0  0  0  0  0  0  0  0  0  0  0  0
   -9.7900   14.5670    0.3620 C   0  0  0  0  0  0  0  0  0  0  0  0
   -8.3790   13.9630    0.2080 C   0  0  0  0  0  0  0  0  0  0  0  0
   -7.3060   14.3230    1.2440 C   0  0  0  0  0  0  0  0  0  0  0  0
   -5.9980   14.7270    0.5980 C   0  0  0  0  0  0  0  0  0  0  0  0
   -4.8700   14.8870    1.3440 N   0  0  0  0  0  0  0  0  0  0  0  0
   -5.9290   14.9240   -0.6180 O   0  0  0  0  0  0  0  0  0  0  0  0
   -3.6000   14.7960    0.8760 C   0  0  0  0  0  0  0  0  0  0  0  0
   -2.4740   14.6670    1.5410 N   0  0  0  0  0  0  0  0  0  0  0  0
   -3.4840   14.8560   -0.8270 S   0  0  0  0  0  0  0  0  0  0  0  0
   -1.7880   14.6840   -0.6860 C   0  0  0  0  0  0  0  0  0  0  0  0
   -1.4340   14.6000    0.6450 C   0  0  0  0  0  0  0  0  0  0  0  0
   -0.0770   14.4460    1.1800 C   0  0  0  0  0  0  0  0  0  0  0  0
  1  2  3  0
  2  3  1  0
  3  4  2  0
  3  5  1  0
  4  6  1  0
  4  7  1  0
  5  8  2  0
  8  9  1  0
  7 10  2  0
  8 10  1  0
  9 11  1  0
 11 12  1  0
 12 13  1  0
 13 14  1  0
 14 15  1  0
 15 16  1  0
 15 17  2  0
 16 18  1  0
 18 19  2  0
 18 20  1  0
 20 21  1  0
 19 22  1  0
 21 22  2  0
 22 23  1  0
M  END
