diamond-x0681_0_A-diamond-x0471_0_A
     RDKit          3D

 23 25  0  0  0  0  0  0  0  0999 V2000
   -3.5480   15.3840   -2.9370 N   0  0  0  0  0  0  0  0  0  0  0  0
   -2.9750   14.7860   -1.8530 C   0  0  0  0  0  0  0  0  0  0  0  0
   -1.8090   14.4250   -1.8800 O   0  0  0  0  0  0  0  0  0  0  0  0
   -3.9470   14.6460   -0.7070 C   0  0  1  0  0  0  0  0  0  0  0  0
   -4.6130   13.3040   -0.7150 C   0  0  0  0  0  0  0  0  0  0  0  0
   -3.6020   15.1060    0.7350 C   0  0  0  0  0  0  0  0  0  0  0  0
   -5.6740   13.2160    0.0610 N   0  0  0  0  0  0  0  0  0  0  0  0
   -4.8350   14.8720    1.6450 C   0  0  0  0  0  0  0  0  0  0  0  0
   -4.3840   12.1760   -1.3390 N   0  0  0  0  0  0  0  0  0  0  0  0
   -5.9850   14.3960    0.7370 C   0  0  2  0  0  0  0  0  0  0  0  0
   -6.2200   11.9810   -0.0020 C   0  0  0  0  0  0  0  0  0  0  0  0
   -5.3970   11.3420   -0.8980 C   0  0  0  0  0  0  0  0  0  0  0  0
   -7.5070   14.5020    0.8920 C   0  0  0  0  0  0  0  0  0  0  0  0
   -5.9220   15.3390   -0.4340 C   0  0  0  0  0  0  0  0  0  0  0  0
   -8.3140   13.8030    1.9530 C   0  0  0  0  0  0  0  0  0  0  0  0
   -8.1150   15.2040   -0.0330 N   0  0  0  0  0  0  0  0  0  0  0  0
   -7.1230   15.7040   -0.8210 C   0  0  0  0  0  0  0  0  0  0  0  0
   -8.0060   14.3820    3.2390 N   0  0  0  0  0  0  0  0  0  0  0  0
   -8.8600   15.2360    3.8950 C   0  0  0  0  0  0  0  0  0  0  0  0
   -9.3220   16.2450    3.3690 O   0  0  0  0  0  0  0  0  0  0  0  0
   -9.2080   14.8690    5.3320 C   0  0  0  0  0  0  0  0  0  0  0  0
   -9.7690   13.4530    5.4530 C   0  0  0  0  0  0  0  0  0  0  0  0
   -8.0150   15.1010    6.2470 C   0  0  0  0  0  0  0  0  0  0  0  0
  1  2  1  0
  2  3  2  0
  4  2  1  6
  4  5  1  0
  4  6  1  0
  5  7  1  0
  6  8  1  0
  5  9  2  0
  7 10  1  0
 10  8  1  1
  7 11  1  0
  9 12  1  0
 11 12  2  0
 10 13  1  0
 10 14  1  0
 13 15  1  0
 13 16  2  0
 14 17  2  0
 16 17  1  0
 15 18  1  0
 18 19  1  0
 19 20  2  0
 19 21  1  0
 21 22  1  0
 21 23  1  0
M  END
