diamond-x0465_0_A-mac-x0584
     RDKit          3D

 31 35  0  0  0  0  0  0  0  0999 V2000
    2.0680   12.7350   -5.7330 C   0  0  0  0  0  0  0  0  0  0  0  0
    0.7920   12.0770   -5.2950 C   0  0  1  0  0  0  0  0  0  0  0  0
    0.5230   10.9320   -6.0220 O   0  0  0  0  0  0  0  0  0  0  0  0
    0.7460   11.8460   -3.7820 C   0  0  0  0  0  0  0  0  0  0  0  0
   -0.1310   10.8970   -3.2370 O   0  0  0  0  0  0  0  0  0  0  0  0
    1.9780   11.7500   -3.1350 O   0  0  0  0  0  0  0  0  0  0  0  0
   -0.7210   10.4530   -5.9460 C   0  0  0  0  0  0  0  0  0  0  0  0
    0.3400   13.1400   -3.4560 C   0  0  2  0  0  0  0  0  0  0  0  0
   -0.9050    9.3330   -6.7350 C   0  0  0  0  0  0  0  0  0  0  0  0
   -1.7730   10.9590   -5.1880 C   0  0  0  0  0  0  0  0  0  0  0  0
    1.5560   14.0860   -3.4960 C   0  0  0  0  0  0  0  0  0  0  0  0
    0.1690   13.5170   -2.0140 C   0  0  0  0  0  0  0  0  0  0  0  0
    0.1210    8.8650   -7.4600 F   0  0  0  0  0  0  0  0  0  0  0  0
   -2.1310    8.6950   -6.7860 C   0  0  0  0  0  0  0  0  0  0  0  0
   -3.0160   10.3220   -5.2320 C   0  0  0  0  0  0  0  0  0  0  0  0
    0.7000   14.8850   -2.5420 C   0  0  2  0  0  0  0  0  0  0  0  0
   -3.1930    9.1900   -6.0320 C   0  0  0  0  0  0  0  0  0  0  0  0
   -0.2860   15.8140   -3.2350 C   0  0  1  0  0  0  0  0  0  0  0  0
   -0.5290   15.4640   -4.7240 C   0  0  0  0  0  0  0  0  0  0  0  0
   -1.5620   15.6190   -2.5740 N   0  0  0  0  0  0  0  0  0  0  0  0
   -2.5810   15.1540   -3.5170 C   0  0  0  0  0  0  0  0  0  0  0  0
   -2.0410   15.4980   -4.8980 C   0  0  0  0  0  0  0  0  0  0  0  0
   -1.6240   15.4090   -1.2130 C   0  0  0  0  0  0  0  0  0  0  0  0
   -0.4640   15.2240   -0.4890 N   0  0  0  0  0  0  0  0  0  0  0  0
   -2.7380   15.3710   -0.5040 C   0  0  0  0  0  0  0  0  0  0  0  0
   -0.4570   14.9970    0.8500 C   0  0  0  0  0  0  0  0  0  0  0  0
   -2.6640   15.1350    0.9560 C   0  0  0  0  0  0  0  0  0  0  0  0
   -4.1280   15.5040   -0.7500 C   0  0  0  0  0  0  0  0  0  0  0  0
   -1.4900   14.9330    1.6140 N   0  0  0  0  0  0  0  0  0  0  0  0
   -3.8320   15.1500    1.5030 N   0  0  0  0  0  0  0  0  0  0  0  0
   -4.6990   15.3680    0.4450 C   0  0  0  0  0  0  0  0  0  0  0  0
  2  1  1  6
  2  3  1  0
  2  4  1  0
  4  5  1  0
  4  6  1  0
  3  7  1  0
  8  4  1  1
  7  9  2  0
  7 10  1  0
  8 11  1  0
  8 12  1  0
  9 13  1  0
  9 14  1  0
 10 15  2  0
 16 11  1  6
 12 16  1  0
 14 17  2  0
 15 17  1  0
 16 18  1  0
 18 19  1  6
 18 20  1  0
 20 21  1  0
 19 22  1  0
 21 22  1  0
 20 23  1  0
 23 24  1  0
 23 25  2  0
 24 26  1  0
 25 27  1  0
 25 28  1  0
 26 29  2  0
 27 29  1  0
 27 30  2  0
 28 31  2  0
 30 31  1  0
M  END
