diamond-x0290_0_A-mac-x0555
     RDKit          3D

 22 24  0  0  0  0  0  0  0  0999 V2000
   -4.6660   12.7500    1.9280 O   0  0  0  0  0  0  0  0  0  0  0  0
   -4.6000   13.8910    1.5830 C   0  0  0  0  0  0  0  0  0  0  0  0
   -3.6650   14.8460    1.7330 N   0  0  0  0  0  0  0  0  0  0  0  0
   -5.6440   14.2940    0.7540 C   0  0  0  0  0  0  0  0  0  0  0  0
   -2.4280   14.7030    1.1440 C   0  0  0  0  0  0  0  0  0  0  0  0
   -6.9290   14.3040    1.2020 C   0  0  0  0  0  0  0  0  0  0  0  0
   -5.2510   14.6350   -0.4900 C   0  0  0  0  0  0  0  0  0  0  0  0
   -1.3850   14.5700    1.9180 N   0  0  0  0  0  0  0  0  0  0  0  0
   -2.3280   14.6910   -0.2480 C   0  0  0  0  0  0  0  0  0  0  0  0
   -6.2430   14.9910   -1.3580 C   0  0  0  0  0  0  0  0  0  0  0  0
   -7.8560   14.6840    0.2790 C   0  0  0  0  0  0  0  0  0  0  0  0
   -3.9020   14.6160   -0.8710 C   0  0  0  0  0  0  0  0  0  0  0  0
   -0.2030   14.4310    1.3510 C   0  0  0  0  0  0  0  0  0  0  0  0
   -1.0740   14.5330   -0.8490 C   0  0  0  0  0  0  0  0  0  0  0  0
   -7.5360   15.0220   -0.9980 N   0  0  0  0  0  0  0  0  0  0  0  0
   -5.8520   15.3100   -2.6270 C   0  0  0  0  0  0  0  0  0  0  0  0
   -3.5270   14.9540   -2.1480 C   0  0  0  0  0  0  0  0  0  0  0  0
   -9.2700   14.7040    0.7310 C   0  0  0  0  0  0  0  0  0  0  0  0
   -0.8900   14.4960   -2.3370 C   0  0  0  0  0  0  0  0  0  0  0  0
    0.0200   14.4040   -0.0090 C   0  0  0  0  0  0  0  0  0  0  0  0
   -4.5090   15.2950   -3.0300 C   0  0  0  0  0  0  0  0  0  0  0  0
   -9.4310   13.6730    1.7520 N   0  0  0  0  0  0  0  0  0  0  0  0
  1  2  2  0
  2  3  1  0
  2  4  1  0
  3  5  1  0
  4  6  2  0
  4  7  1  0
  5  8  2  0
  5  9  1  0
  7 10  2  0
  6 11  1  0
  7 12  1  0
  8 13  1  0
  9 14  2  0
 10 15  1  0
 11 15  2  0
 10 16  1  0
 12 17  2  0
 11 18  1  0
 14 19  1  0
 13 20  2  0
 14 20  1  0
 16 21  2  0
 17 21  1  0
 18 22  1  0
M  END
