diamond-x0128_0_A-diamond-x0628_0_A
     RDKit          3D

 31 33  0  0  0  0  0  0  0  0999 V2000
   -6.6940   14.6390    2.4530 N   0  0  0  0  0  0  0  0  0  0  0  0
   -7.8540   15.2120    2.9540 C   0  0  0  0  0  0  0  0  0  0  0  0
   -8.8230   15.5840    2.3020 O   0  0  0  0  0  0  0  0  0  0  0  0
   -6.0880   14.7330    1.1770 C   0  0  0  0  0  0  0  0  0  0  0  0
   -7.7130   15.2900    4.3310 N   0  0  0  0  0  0  0  0  0  0  0  0
   -6.7710   14.6390   -0.0360 C   0  0  0  0  0  0  0  0  0  0  0  0
   -4.6980   14.9330    1.1490 C   0  0  0  0  0  0  0  0  0  0  0  0
   -6.0790   14.7340   -1.2560 C   0  0  0  0  0  0  0  0  0  0  0  0
   -4.0090   15.0270   -0.0640 C   0  0  0  0  0  0  0  0  0  0  0  0
   -8.4760   16.0310    5.2690 C   0  0  0  0  0  0  0  0  0  0  0  0
   -4.6880   14.9230   -1.2820 C   0  0  0  0  0  0  0  0  0  0  0  0
   -9.1420   17.1830    4.8410 C   0  0  0  0  0  0  0  0  0  0  0  0
   -8.6210   15.6970    6.6130 C   0  0  0  0  0  0  0  0  0  0  0  0
   -3.9100   15.0130   -2.5830 C   0  0  0  0  0  0  0  0  0  0  0  0
   -9.9050   17.9800    5.6280 N   0  0  0  0  0  0  0  0  0  0  0  0
   -9.4010   16.5000    7.4510 C   0  0  0  0  0  0  0  0  0  0  0  0
   -4.4440   14.0780   -3.6870 C   0  0  0  0  0  0  0  0  0  0  0  0
  -10.0160   17.6190    6.9160 C   0  0  0  0  0  0  0  0  0  0  0  0
   -3.7240   12.7100   -3.8340 C   0  0  0  0  0  0  0  0  0  0  0  0
   -2.1860   12.7290   -3.9040 C   0  0  0  0  0  0  0  0  0  0  0  0
   -1.5390   11.8320   -4.9310 C   0  0  0  0  0  0  0  0  0  0  0  0
   -1.9960   10.6940   -5.4400 N   0  0  0  0  0  0  0  0  0  0  0  0
   -0.3160   12.0910   -5.5050 N   0  0  0  0  0  0  0  0  0  0  0  0
    0.5870   13.2090   -5.2850 C   0  0  0  0  0  0  0  0  0  0  0  0
   -1.0090   10.3070   -6.3160 C   0  0  0  0  0  0  0  0  0  0  0  0
    0.0330   11.1370   -6.3850 N   0  0  0  0  0  0  0  0  0  0  0  0
   -1.0790    9.0730   -7.1210 C   0  0  0  0  0  0  0  0  0  0  0  0
    1.6450   12.9600   -4.2180 C   0  0  0  0  0  0  0  0  0  0  0  0
    1.0730   12.2630   -3.0100 C   0  0  0  0  0  0  0  0  0  0  0  0
    0.5480   11.1640   -2.9840 O   0  0  0  0  0  0  0  0  0  0  0  0
    1.1990   12.9880   -1.8860 O   0  0  0  0  0  0  0  0  0  0  0  0
  1  2  1  0
  2  3  2  0
  1  4  1  0
  2  5  1  0
  4  6  2  0
  4  7  1  0
  6  8  1  0
  7  9  2  0
  5 10  1  0
  8 11  2  0
  9 11  1  0
 10 12  2  0
 10 13  1  0
 11 14  1  0
 12 15  1  0
 13 16  2  0
 14 17  1  0
 15 18  2  0
 16 18  1  0
 17 19  1  0
 19 20  1  0
 20 21  1  0
 21 22  2  0
 21 23  1  0
 23 24  1  0
 22 25  1  0
 23 26  1  0
 25 26  2  0
 25 27  1  0
 24 28  1  0
 28 29  1  0
 29 30  2  0
 29 31  1  0
M  END
