diamond-x0910_0_A-mac-x0588
     RDKit          3D

 17 19  0  0  0  0  0  0  0  0999 V2000
   -2.1090   13.2930   -1.4760 N   0  0  0  0  0  0  0  0  0  0  0  0
   -1.6310   14.5140   -0.9320 C   0  0  1  0  0  0  0  0  0  0  0  0
   -2.3590   14.6440    0.3010 N   0  0  0  0  0  0  0  0  0  0  0  0
   -0.2390   14.3710   -0.6250 N   0  0  0  0  0  0  0  0  0  0  0  0
   -1.9570   15.4330   -1.9580 N   0  0  0  0  0  0  0  0  0  0  0  0
   -1.0860   15.3170   -3.1540 C   0  0  0  0  0  0  0  0  0  0  0  0
   -1.3650   15.2460    1.2420 N   0  0  0  0  0  0  0  0  0  0  0  0
   -0.0910   14.7200    0.7780 C   0  0  0  0  0  0  0  0  0  0  0  0
   -3.4580   15.5370    0.0670 C   0  0  2  0  0  0  0  0  0  0  0  0
   -3.3460   15.3330   -2.3110 C   0  0  0  0  0  0  0  0  0  0  0  0
   -4.4320   15.2980    1.0910 N   0  0  0  0  0  0  0  0  0  0  0  0
   -4.1690   15.1840   -1.1200 N   0  0  0  0  0  0  0  0  0  0  0  0
   -0.5050   16.6450   -3.6770 C   0  0  2  0  0  0  0  0  0  0  0  0
   -1.5190   17.4760   -4.3260 O   0  0  0  0  0  0  0  0  0  0  0  0
    0.5630   16.4220   -4.7410 C   0  0  0  0  0  0  0  0  0  0  0  0
    0.5870   17.7710   -5.4010 C   0  0  0  0  0  0  0  0  0  0  0  0
   -0.8900   18.1220   -5.4440 C   0  0  0  0  0  0  0  0  0  0  0  0
  2  1  1  6
  2  3  1  0
  2  4  1  0
  2  5  1  0
  5  6  1  0
  3  7  1  0
  4  8  1  0
  7  8  1  0
  3  9  1  0
  5 10  1  0
  9 11  1  1
  9 12  1  0
 10 12  1  0
 13  6  1  6
 13 14  1  0
 13 15  1  0
 15 16  1  0
 14 17  1  0
 16 17  1  0
M  END
