diamond-x0159_0_B-diamond-x0962_3_A
     RDKit          3D

 27 30  0  0  0  0  0  0  0  0999 V2000
    1.4740    9.1780  -10.0280 N   0  0  0  0  0  0  0  0  0  0  0  0
    1.7780    8.1260   -9.0560 C   0  0  2  0  0  0  0  0  0  0  0  0
    1.1810    6.7880   -9.5300 C   0  0  0  0  0  0  0  0  0  0  0  0
    2.2280    9.4170  -11.1280 C   0  0  0  0  0  0  0  0  0  0  0  0
    1.2170    8.4540   -7.6440 C   0  0  0  0  0  0  0  0  0  0  0  0
    2.0340   10.5390  -11.8830 N   0  0  0  0  0  0  0  0  0  0  0  0
    3.2020    8.6760  -11.6190 N   0  0  0  0  0  0  0  0  0  0  0  0
    1.3820    9.9110   -7.0840 C   0  0  0  0  0  0  0  0  0  0  0  0
    3.6550    9.3630  -12.7270 C   0  0  0  0  0  0  0  0  0  0  0  0
    2.9320   10.5400  -12.9100 C   0  0  0  0  0  0  0  0  0  0  0  0
    1.5230    5.6180   -8.6600 C   0  0  0  0  0  0  0  0  0  0  0  0
    0.4460   10.8510   -7.7660 C   0  0  1  0  0  0  0  0  0  0  0  0
    2.4170    4.6530   -9.1240 C   0  0  0  0  0  0  0  0  0  0  0  0
    0.9610    5.4800   -7.3860 C   0  0  0  0  0  0  0  0  0  0  0  0
    3.1630   11.4440  -13.9420 C   0  0  0  0  0  0  0  0  0  0  0  0
    4.6830    9.0580  -13.6310 C   0  0  0  0  0  0  0  0  0  0  0  0
    0.9180   11.2590   -9.0640 N   0  0  0  0  0  0  0  0  0  0  0  0
    2.7480    3.5710   -8.3360 C   0  0  0  0  0  0  0  0  0  0  0  0
    1.2960    4.3940   -6.6010 C   0  0  0  0  0  0  0  0  0  0  0  0
    4.1900   11.1240  -14.8290 C   0  0  0  0  0  0  0  0  0  0  0  0
    4.9400    9.9520  -14.6810 C   0  0  0  0  0  0  0  0  0  0  0  0
   -0.6930    9.9690   -7.8510 C   0  0  0  0  0  0  0  0  0  0  0  0
    2.1950    3.4400   -7.0820 C   0  0  0  0  0  0  0  0  0  0  0  0
   -0.8000    8.9520   -8.7570 N   0  0  0  0  0  0  0  0  0  0  0  0
   -1.8270    9.9150   -7.1000 C   0  0  0  0  0  0  0  0  0  0  0  0
   -1.9780    8.3280   -8.5150 C   0  0  0  0  0  0  0  0  0  0  0  0
   -2.6250    8.8910   -7.5170 N   0  0  0  0  0  0  0  0  0  0  0  0
  1  2  1  0
  2  3  1  6
  1  4  1  0
  2  5  1  0
  4  6  1  0
  4  7  2  0
  5  8  1  0
  7  9  1  0
  6 10  1  0
  9 10  2  0
  3 11  1  0
  8 12  1  0
 11 13  2  0
 11 14  1  0
 10 15  1  0
  9 16  1  0
 12 17  1  6
 13 18  1  0
 14 19  2  0
 15 20  2  0
 16 21  2  0
 20 21  1  0
 12 22  1  0
 18 23  2  0
 19 23  1  0
 22 24  1  0
 22 25  2  0
 24 26  1  0
 25 27  1  0
 26 27  2  0
M  END
