diamond-x0628_0_A-mac-x0124
     RDKit          3D

 24 26  0  0  0  0  0  0  0  0999 V2000
   -0.9050    8.8900   -7.3100 C   0  0  0  0  0  0  0  0  0  0  0  0
   -0.8740   10.1080   -6.4870 C   0  0  0  0  0  0  0  0  0  0  0  0
   -1.8550   10.4050   -5.5790 N   0  0  0  0  0  0  0  0  0  0  0  0
    0.1100   11.0050   -6.5670 N   0  0  0  0  0  0  0  0  0  0  0  0
   -0.2740   11.9130   -5.6550 N   0  0  0  0  0  0  0  0  0  0  0  0
   -1.4580   11.5510   -5.0610 C   0  0  0  0  0  0  0  0  0  0  0  0
   -2.1680   12.3220   -4.0130 C   0  0  0  0  0  0  0  0  0  0  0  0
    0.5660   13.0710   -5.4470 C   0  0  0  0  0  0  0  0  0  0  0  0
    1.6420   12.8920   -4.3800 C   0  0  0  0  0  0  0  0  0  0  0  0
    1.1230   12.2170   -3.1270 C   0  0  0  0  0  0  0  0  0  0  0  0
    0.5770   11.1230   -3.0590 O   0  0  0  0  0  0  0  0  0  0  0  0
    1.3590   13.0210   -2.0620 O   0  0  0  0  0  0  0  0  0  0  0  0
    1.2190   14.4370   -2.2880 C   0  0  0  0  0  0  0  0  0  0  0  0
   -0.0650   14.7350   -3.0690 C   0  0  0  0  0  0  0  0  0  0  0  0
   -1.2510   14.8330   -2.2400 N   0  0  0  0  0  0  0  0  0  0  0  0
   -2.5440   14.9920   -2.6920 C   0  0  0  0  0  0  0  0  0  0  0  0
   -1.2430   14.7850   -0.8750 C   0  0  0  0  0  0  0  0  0  0  0  0
   -3.3700   15.0540   -1.5880 C   0  0  0  0  0  0  0  0  0  0  0  0
   -2.5490   14.9250   -0.4310 C   0  0  0  0  0  0  0  0  0  0  0  0
   -0.1520   14.6380   -0.1220 N   0  0  0  0  0  0  0  0  0  0  0  0
   -2.7350   14.9120    0.9520 C   0  0  0  0  0  0  0  0  0  0  0  0
   -0.4560   14.6290    1.1830 C   0  0  0  0  0  0  0  0  0  0  0  0
   -3.9750   15.0640    1.5430 N   0  0  0  0  0  0  0  0  0  0  0  0
   -1.6680   14.7510    1.7580 N   0  0  0  0  0  0  0  0  0  0  0  0
  1  2  1  0
  2  3  1  0
  2  4  2  0
  4  5  1  0
  3  6  2  0
  5  6  1  0
  6  7  1  0
  5  8  1  0
  8  9  1  0
  9 10  1  0
 10 11  2  0
 10 12  1  0
 12 13  1  0
 13 14  1  0
 14 15  1  0
 15 16  1  0
 15 17  1  0
 16 18  2  0
 17 19  2  0
 18 19  1  0
 17 20  1  0
 19 21  1  0
 20 22  2  0
 21 23  1  0
 21 24  2  0
 22 24  1  0
M  END
