diamond-x0685_1_A-diamond-x0592_0_A
     RDKit          3D

 26 27  0  0  0  0  0  0  0  0999 V2000
   -1.1840   10.5200   -4.8970 N   0  0  0  0  0  0  0  0  0  0  0  0
   -1.4360   11.9170   -4.5270 C   0  0  0  0  0  0  0  0  0  0  0  0
   -0.2130   12.7210   -4.1030 C   0  0  0  0  0  0  0  0  0  0  0  0
   -1.3000   10.0600   -6.2950 C   0  0  0  0  0  0  0  0  0  0  0  0
   -0.1800    9.1410   -6.7890 C   0  0  0  0  0  0  0  0  0  0  0  0
   -1.5710   11.1680   -7.3190 C   0  0  0  0  0  0  0  0  0  0  0  0
    0.6410   12.0410   -2.6660 S   0  0  0  0  0  0  0  0  0  0  0  0
   -0.4940    8.4030   -8.0810 C   0  0  0  0  0  0  0  0  0  0  0  0
   -1.0730   10.7870   -8.7220 C   0  0  0  0  0  0  0  0  0  0  0  0
    2.2050   12.3050   -2.8970 O   0  0  0  0  0  0  0  0  0  0  0  0
    0.3420   10.4590   -2.5920 O   0  0  0  0  0  0  0  0  0  0  0  0
    0.1020   12.7360   -1.3190 O   0  0  0  0  0  0  0  0  0  0  0  0
   -1.2040    9.2980   -9.0800 C   0  0  0  0  0  0  0  0  0  0  0  0
    0.0810   14.1580   -1.2260 C   0  0  0  0  0  0  0  0  0  0  0  0
   -0.8920   14.5670   -0.1300 C   0  0  0  0  0  0  0  0  0  0  0  0
   -2.2760   14.6490   -0.6190 N   0  0  0  0  0  0  0  0  0  0  0  0
   -3.1720   14.7510    0.2890 C   0  0  0  0  0  0  0  0  0  0  0  0
   -2.9720   14.7930    1.6340 N   0  0  0  0  0  0  0  0  0  0  0  0
   -4.5860   14.8270   -0.0520 C   0  0  0  0  0  0  0  0  0  0  0  0
   -5.2980   15.1580   -1.2380 C   0  0  0  0  0  0  0  0  0  0  0  0
   -5.5950   14.5500    0.8500 C   0  0  0  0  0  0  0  0  0  0  0  0
   -6.6310   15.0910   -1.0830 N   0  0  0  0  0  0  0  0  0  0  0  0
   -6.7760   14.7170    0.2090 N   0  0  0  0  0  0  0  0  0  0  0  0
   -8.0980   14.5320    0.7860 C   0  0  0  0  0  0  0  0  0  0  0  0
   -8.0060   14.0470    2.2360 C   0  0  0  0  0  0  0  0  0  0  0  0
   -7.3230   14.9760    3.0770 O   0  0  0  0  0  0  0  0  0  0  0  0
  1  2  1  0
  2  3  1  0
  1  4  1  0
  4  5  1  0
  4  6  1  0
  3  7  1  0
  5  8  1  0
  6  9  1  0
  7 10  1  0
  7 11  1  0
  7 12  1  0
  8 13  1  0
  9 13  1  0
 12 14  1  0
 14 15  1  0
 15 16  1  0
 16 17  2  3
 17 18  1  0
 17 19  1  0
 19 20  1  0
 19 21  2  0
 20 22  2  0
 21 23  1  0
 22 23  1  0
 23 24  1  0
 24 25  1  0
 25 26  1  0
M  END
