diamond-x0282_0_A-mac-x0453
     RDKit          3D

 21 23  0  0  0  0  0  0  0  0999 V2000
   -7.4210   14.5350    0.2370 C   0  0  2  0  0  0  0  0  0  0  0  0
   -8.1570   13.3890   -0.1560 O   0  0  0  0  0  0  0  0  0  0  0  0
   -8.1540   15.0560    1.3840 N   0  0  0  0  0  0  0  0  0  0  0  0
   -7.2260   15.4910   -0.9700 C   0  0  0  0  0  0  0  0  0  0  0  0
   -5.9640   14.1980    0.5160 C   0  0  0  0  0  0  0  0  0  0  0  0
   -5.2830   14.6510    1.7840 C   0  0  0  0  0  0  0  0  0  0  0  0
   -5.4250   12.8590    0.0510 C   0  0  0  0  0  0  0  0  0  0  0  0
   -5.7740   15.4490   -1.4070 C   0  0  0  0  0  0  0  0  0  0  0  0
   -3.8720   14.0920    1.7960 C   0  0  0  0  0  0  0  0  0  0  0  0
   -4.0150   13.0670   -0.4580 C   0  0  0  0  0  0  0  0  0  0  0  0
   -4.6100   15.8020   -0.7320 C   0  0  0  0  0  0  0  0  0  0  0  0
   -5.4400   14.9920   -2.6590 N   0  0  0  0  0  0  0  0  0  0  0  0
   -3.4040   14.0570    0.4260 N   0  0  0  0  0  0  0  0  0  0  0  0
   -3.5880   15.5470   -1.6050 N   0  0  0  0  0  0  0  0  0  0  0  0
   -4.1350   15.0640   -2.7490 C   0  0  0  0  0  0  0  0  0  0  0  0
   -2.0610   14.3070    0.2700 C   0  0  0  0  0  0  0  0  0  0  0  0
   -1.5830   14.3770   -0.9820 N   0  0  0  0  0  0  0  0  0  0  0  0
   -1.3040   14.4720    1.3720 N   0  0  0  0  0  0  0  0  0  0  0  0
   -0.2900   14.6300   -1.1440 C   0  0  0  0  0  0  0  0  0  0  0  0
   -0.0150   14.7190    1.1440 C   0  0  0  0  0  0  0  0  0  0  0  0
    0.5520   14.8140   -0.1040 C   0  0  0  0  0  0  0  0  0  0  0  0
  1  2  1  0
  1  3  1  1
  1  4  1  0
  1  5  1  0
  5  6  1  0
  5  7  1  0
  4  8  1  0
  6  9  1  0
  7 10  1  0
  8 11  2  0
  8 12  1  0
  9 13  1  0
 10 13  1  0
 11 14  1  0
 12 15  2  0
 14 15  1  0
 13 16  1  0
 16 17  2  0
 16 18  1  0
 17 19  1  0
 18 20  2  0
 19 21  2  0
 20 21  1  0
M  END
