diamond-x0290_0_A-mac-x0565
     RDKit          3D

 22 24  0  0  0  0  0  0  0  0999 V2000
   -7.7500   13.8540    1.0350 N   0  0  0  0  0  0  0  0  0  0  0  0
   -8.5900   14.9880    0.6890 C   0  0  0  0  0  0  0  0  0  0  0  0
   -6.5650   14.2200    1.8320 C   0  0  0  0  0  0  0  0  0  0  0  0
   -5.3370   14.4910    0.9280 C   0  0  0  0  0  0  0  0  0  0  0  0
   -5.6700   14.7240   -0.3220 N   0  0  0  0  0  0  0  0  0  0  0  0
   -4.0950   14.4280    1.5920 N   0  0  0  0  0  0  0  0  0  0  0  0
   -2.8130   14.3350    0.9880 C   0  0  0  0  0  0  0  0  0  0  0  0
   -4.7580   14.9510   -1.3540 C   0  0  0  0  0  0  0  0  0  0  0  0
   -1.7650   14.6330    1.7940 N   0  0  0  0  0  0  0  0  0  0  0  0
   -2.6100   13.9580   -0.3360 C   0  0  0  0  0  0  0  0  0  0  0  0
   -3.4490   15.3540   -1.1170 C   0  0  0  0  0  0  0  0  0  0  0  0
   -5.1920   14.7430   -2.6780 C   0  0  0  0  0  0  0  0  0  0  0  0
   -0.5170   14.5530    1.2730 C   0  0  0  0  0  0  0  0  0  0  0  0
   -1.3070   13.8910   -0.8520 C   0  0  0  0  0  0  0  0  0  0  0  0
   -2.6140   15.5150   -2.1980 C   0  0  0  0  0  0  0  0  0  0  0  0
   -4.3270   14.9210   -3.7610 C   0  0  0  0  0  0  0  0  0  0  0  0
   -1.0590   13.4900   -2.2750 C   0  0  0  0  0  0  0  0  0  0  0  0
   -0.2440   14.1980   -0.0240 C   0  0  0  0  0  0  0  0  0  0  0  0
   -3.0380   15.3040   -3.4840 C   0  0  0  0  0  0  0  0  0  0  0  0
   -1.3080   15.8830   -2.1370 O   0  0  0  0  0  0  0  0  0  0  0  0
   -2.0540   15.5180   -4.3970 O   0  0  0  0  0  0  0  0  0  0  0  0
   -0.9470   15.8520   -3.5310 C   0  0  0  0  0  0  0  0  0  0  0  0
  1  2  1  0
  1  3  1  0
  3  4  1  0
  4  5  2  3
  4  6  1  0
  6  7  1  0
  5  8  1  0
  7  9  2  0
  7 10  1  0
  8 11  2  0
  8 12  1  0
  9 13  1  0
 10 14  2  0
 11 15  1  0
 12 16  2  0
 14 17  1  0
 13 18  2  0
 14 18  1  0
 15 19  2  0
 16 19  1  0
 15 20  1  0
 19 21  1  0
 20 22  1  0
 21 22  1  0
M  END
