diamond-x1015_0_A-diamond-x0524_0_A
     RDKit          3D

 31 34  0  0  0  0  0  0  0  0999 V2000
   -1.2620   14.5320   -4.1700 C   0  0  0  0  0  0  0  0  0  0  0  0
    0.0210   13.7900   -3.8060 C   0  0  2  0  0  0  0  0  0  0  0  0
   -0.1540   12.3520   -3.6920 N   0  0  0  0  0  0  0  0  0  0  0  0
    0.3990   14.1170   -2.3710 C   0  0  0  0  0  0  0  0  0  0  0  0
    0.4970   15.2300   -1.8870 O   0  0  0  0  0  0  0  0  0  0  0  0
    0.2800   11.8840   -2.4490 C   0  0  0  0  0  0  0  0  0  0  0  0
    0.6190   12.9650   -1.6980 N   0  0  0  0  0  0  0  0  0  0  0  0
   -0.2500   11.5170   -4.8050 C   0  0  0  0  0  0  0  0  0  0  0  0
    0.3650   10.7200   -2.0490 O   0  0  0  0  0  0  0  0  0  0  0  0
    0.4190   11.7940   -5.9990 C   0  0  0  0  0  0  0  0  0  0  0  0
   -1.0340   10.3710   -4.7230 C   0  0  0  0  0  0  0  0  0  0  0  0
    0.3090   10.9340   -7.0840 C   0  0  0  0  0  0  0  0  0  0  0  0
   -1.1420    9.5150   -5.8040 C   0  0  0  0  0  0  0  0  0  0  0  0
   -0.4730    9.7890   -6.9940 C   0  0  0  0  0  0  0  0  0  0  0  0
   -0.6290    8.9130   -8.0730 N   0  0  0  0  0  0  0  0  0  0  0  0
   -1.8780    9.2450   -8.4680 C   0  0  0  0  0  0  0  0  0  0  0  0
    0.4600    8.8360   -9.0210 C   0  0  0  0  0  0  0  0  0  0  0  0
   -3.0140    8.5080   -7.8000 C   0  0  0  0  0  0  0  0  0  0  0  0
   -2.0980   10.1490   -9.2550 O   0  0  0  0  0  0  0  0  0  0  0  0
    1.5580    7.9820   -8.8270 C   0  0  0  0  0  0  0  0  0  0  0  0
    0.4430    9.6250  -10.1770 C   0  0  0  0  0  0  0  0  0  0  0  0
    2.6040    7.9250   -9.7680 C   0  0  0  0  0  0  0  0  0  0  0  0
    1.4860    9.5640  -11.1090 C   0  0  0  0  0  0  0  0  0  0  0  0
    2.5830    8.7160  -10.9250 C   0  0  0  0  0  0  0  0  0  0  0  0
    3.6000    8.7020  -11.9010 N   0  0  0  0  0  0  0  0  0  0  0  0
    3.9100    9.5720  -12.9690 C   0  0  0  0  0  0  0  0  0  0  0  0
    3.2110   10.7600  -13.2270 C   0  0  0  0  0  0  0  0  0  0  0  0
    4.9740    9.2410  -13.8170 C   0  0  0  0  0  0  0  0  0  0  0  0
    3.5620   11.5860  -14.2970 C   0  0  0  0  0  0  0  0  0  0  0  0
    5.3260   10.0650  -14.8900 C   0  0  0  0  0  0  0  0  0  0  0  0
    4.6190   11.2380  -15.1280 C   0  0  0  0  0  0  0  0  0  0  0  0
  2  1  1  1
  2  3  1  0
  2  4  1  0
  4  5  2  0
  3  6  1  0
  4  7  1  0
  6  7  1  0
  3  8  1  0
  6  9  2  0
  8 10  2  0
  8 11  1  0
 10 12  1  0
 11 13  2  0
 12 14  2  0
 13 14  1  0
 14 15  1  0
 15 16  1  0
 15 17  1  0
 16 18  1  0
 16 19  2  0
 17 20  2  0
 17 21  1  0
 20 22  1  0
 21 23  2  0
 22 24  2  0
 23 24  1  0
 24 25  1  0
 25 26  1  0
 26 27  2  0
 26 28  1  0
 27 29  1  0
 28 30  2  0
 29 31  2  0
 30 31  1  0
M  END
