diamond-x0727_0_A-mac-x0328
     RDKit          3D

 24 25  0  0  0  0  0  0  0  0999 V2000
    0.1370   11.3700   -5.6170 N   0  0  0  0  0  0  0  0  0  0  0  0
    0.7910   12.4010   -4.8060 C   0  0  1  0  0  0  0  0  0  0  0  0
    0.0990   13.7440   -5.0920 C   0  0  0  0  0  0  0  0  0  0  0  0
    0.7140   11.0660   -6.8220 C   0  0  0  0  0  0  0  0  0  0  0  0
    1.6510   11.6950   -7.2310 O   0  0  0  0  0  0  0  0  0  0  0  0
    0.7110   11.9360   -3.3480 C   0  0  0  0  0  0  0  0  0  0  0  0
    0.1090    9.8800   -7.5610 C   0  0  0  0  0  0  0  0  0  0  0  0
    0.0660   10.9750   -2.9420 O   0  0  0  0  0  0  0  0  0  0  0  0
    1.4440   12.6830   -2.5010 O   0  0  0  0  0  0  0  0  0  0  0  0
   -0.1870   14.6350   -3.8820 C   0  0  0  0  0  0  0  0  0  0  0  0
   -1.2060   10.2690   -8.2490 C   0  0  0  0  0  0  0  0  0  0  0  0
   -0.2260    8.7100   -6.6240 C   0  0  0  0  0  0  0  0  0  0  0  0
   -1.5980   14.6510   -3.5880 O   0  0  0  0  0  0  0  0  0  0  0  0
   -2.1610    9.1090   -8.0120 C   0  0  0  0  0  0  0  0  0  0  0  0
   -1.7210    8.4800   -6.7030 C   0  0  0  0  0  0  0  0  0  0  0  0
   -1.8180   14.7580   -2.2530 C   0  0  0  0  0  0  0  0  0  0  0  0
   -0.9340   14.7370   -1.4170 O   0  0  0  0  0  0  0  0  0  0  0  0
   -3.2520   14.9110   -1.8850 C   0  0  0  0  0  0  0  0  0  0  0  0
   -3.5480   14.9220   -0.5120 C   0  0  0  0  0  0  0  0  0  0  0  0
   -4.2960   15.0400   -2.8110 C   0  0  0  0  0  0  0  0  0  0  0  0
   -4.8610   15.0560   -0.0700 C   0  0  0  0  0  0  0  0  0  0  0  0
   -5.6140   15.1740   -2.3640 C   0  0  0  0  0  0  0  0  0  0  0  0
   -5.8860   15.1800   -1.0010 C   0  0  0  0  0  0  0  0  0  0  0  0
   -7.1610   15.3060   -0.5420 O   0  0  0  0  0  0  0  0  0  0  0  0
  1  2  1  0
  2  3  1  1
  1  4  1  0
  4  5  2  0
  2  6  1  0
  4  7  1  0
  6  8  2  0
  6  9  1  0
  3 10  1  0
  7 11  1  0
  7 12  1  0
 10 13  1  0
 11 14  1  0
 12 15  1  0
 14 15  1  0
 13 16  1  0
 16 17  2  0
 16 18  1  0
 18 19  2  0
 18 20  1  0
 19 21  1  0
 20 22  2  0
 21 23  2  0
 22 23  1  0
 23 24  1  0
M  END
