diamond-x0910_1_A-mac-x0338
     RDKit          3D

 14 15  0  0  0  0  0  0  0  0999 V2000
   -5.8360   14.2830    1.4140 N   0  0  0  0  0  0  0  0  0  0  0  0
   -4.6190   14.0580    1.0300 C   0  0  0  0  0  0  0  0  0  0  0  0
   -3.7260   13.5500    1.9340 N   0  0  0  0  0  0  0  0  0  0  0  0
   -6.4970   14.8080    0.4050 C   0  0  0  0  0  0  0  0  0  0  0  0
   -7.8100   14.5770    0.1450 N   0  0  0  0  0  0  0  0  0  0  0  0
   -6.0290   15.6200   -0.5030 N   0  0  0  0  0  0  0  0  0  0  0  0
   -4.0970   14.3170   -0.3600 C   0  0  0  0  0  0  0  0  0  0  0  0
   -8.2060   15.2460   -0.9480 N   0  0  0  0  0  0  0  0  0  0  0  0
   -7.0860   15.8640   -1.3060 C   0  0  0  0  0  0  0  0  0  0  0  0
   -2.7700   14.6050   -0.4530 N   0  0  0  0  0  0  0  0  0  0  0  0
   -4.9210   14.2660   -1.4860 C   0  0  0  0  0  0  0  0  0  0  0  0
   -2.3370   14.8330   -1.7150 C   0  0  0  0  0  0  0  0  0  0  0  0
   -4.4750   14.5030   -2.7420 N   0  0  0  0  0  0  0  0  0  0  0  0
   -3.1650   14.7870   -2.8260 C   0  0  0  0  0  0  0  0  0  0  0  0
  1  2  2  3
  2  3  1  0
  1  4  1  0
  4  5  1  0
  4  6  2  0
  2  7  1  0
  5  8  1  0
  6  9  1  0
  8  9  2  0
  7 10  2  0
  7 11  1  0
 10 12  1  0
 11 13  2  0
 12 14  2  0
 13 14  1  0
M  END
