diamond-x0864_0_A-diamond-x0282_0_A
     RDKit          3D

 27 29  0  0  0  0  0  0  0  0999 V2000
    1.5530   11.4660   -7.1200 O   0  0  0  0  0  0  0  0  0  0  0  0
    0.4330   11.1150   -6.7830 C   0  0  0  0  0  0  0  0  0  0  0  0
   -0.2790   11.7670   -5.8100 N   0  0  0  0  0  0  0  0  0  0  0  0
   -0.2160    9.9490   -7.4000 C   0  0  0  0  0  0  0  0  0  0  0  0
    0.4410   12.8420   -5.1830 C   0  0  0  0  0  0  0  0  0  0  0  0
   -1.3440   11.1730   -5.1600 C   0  0  0  0  0  0  0  0  0  0  0  0
   -1.3200    9.4500   -6.8370 C   0  0  0  0  0  0  0  0  0  0  0  0
    0.6140   12.5210   -3.7300 C   0  0  0  0  0  0  0  0  0  0  0  0
   -2.1960    7.9740   -7.5640 Br  0  0  0  0  0  0  0  0  0  0  0  0
   -1.8730   10.0420   -5.6400 C   0  0  0  0  0  0  0  0  0  0  0  0
    0.5730   11.2200   -3.3440 O   0  0  0  0  0  0  0  0  0  0  0  0
    0.7810   13.4830   -2.9550 N   0  0  0  0  0  0  0  0  0  0  0  0
    0.9360   13.1070   -1.5990 C   0  0  0  0  0  0  0  0  0  0  0  0
    0.0060   13.8850   -0.7330 C   0  0  0  0  0  0  0  0  0  0  0  0
   -1.3070   13.5720   -0.6370 N   0  0  0  0  0  0  0  0  0  0  0  0
    0.5540   14.9000   -0.0720 C   0  0  0  0  0  0  0  0  0  0  0  0
   -0.2730   15.5840    0.7100 C   0  0  0  0  0  0  0  0  0  0  0  0
   -2.0720   14.3180    0.1760 C   0  0  0  0  0  0  0  0  0  0  0  0
   -3.4310   14.0590    0.3000 N   0  0  0  0  0  0  0  0  0  0  0  0
   -1.5710   15.3230    0.8700 N   0  0  0  0  0  0  0  0  0  0  0  0
   -3.8490   14.1490    1.6950 C   0  0  0  0  0  0  0  0  0  0  0  0
   -4.1760   14.8630   -0.7010 C   0  0  0  0  0  0  0  0  0  0  0  0
   -5.1430   14.9330    1.7680 C   0  0  0  0  0  0  0  0  0  0  0  0
   -5.7090   14.8090   -0.5620 C   0  0  0  0  0  0  0  0  0  0  0  0
   -6.0950   14.2550    0.8040 C   0  0  0  0  0  0  0  0  0  0  0  0
   -7.5760   14.3770    1.1920 C   0  0  0  0  0  0  0  0  0  0  0  0
   -8.4070   14.6060    0.0690 O   0  0  0  0  0  0  0  0  0  0  0  0
  1  2  2  0
  2  3  1  0
  2  4  1  0
  3  5  1  0
  3  6  1  0
  4  7  2  0
  5  8  1  0
  7  9  1  0
  6 10  2  0
  7 10  1  0
  8 11  1  0
  8 12  2  3
 12 13  1  0
 13 14  1  0
 14 15  2  0
 14 16  1  0
 16 17  2  0
 15 18  1  0
 18 19  1  0
 17 20  1  0
 18 20  2  0
 19 21  1  0
 19 22  1  0
 21 23  1  0
 22 24  1  0
 23 25  1  0
 24 25  1  0
 25 26  1  0
 26 27  1  0
M  END
