diamond-x0933_3_B-diamond-x0469_0_B
     RDKit          3D

 24 25  0  0  0  0  0  0  0  0999 V2000
    0.5530   34.6160   10.9450 N   0  0  0  0  0  0  0  0  0  0  0  0
   -0.1570   34.8570    9.7370 C   0  0  1  0  0  0  0  0  0  0  0  0
   -0.7520   36.2120    9.6890 N   0  0  0  0  0  0  0  0  0  0  0  0
    0.8300   34.4390    8.7220 N   0  0  0  0  0  0  0  0  0  0  0  0
   -2.1020   36.5370    9.0830 C   0  0  0  0  0  0  0  0  0  0  0  0
    1.2650   35.3580    7.6680 C   0  0  0  0  0  0  0  0  0  0  0  0
    0.1840   37.0680    8.9780 C   0  0  0  0  0  0  0  0  0  0  0  0
   -3.4530   36.1610    9.8010 C   0  0  0  0  0  0  0  0  0  0  0  0
    0.3600   36.5510    7.5640 C   0  0  0  0  0  0  0  0  0  0  0  0
   -4.7020   36.3030    8.8520 C   0  0  0  0  0  0  0  0  0  0  0  0
   -5.7600   35.1520    8.8530 C   0  0  0  0  0  0  0  0  0  0  0  0
   -7.0820   35.5160    8.3920 O   0  0  0  0  0  0  0  0  0  0  0  0
   -7.2500   36.4070    7.3530 C   0  0  0  0  0  0  0  0  0  0  0  0
   -8.5200   36.4680    6.7240 C   0  0  0  0  0  0  0  0  0  0  0  0
   -6.2410   37.2520    6.8930 C   0  0  0  0  0  0  0  0  0  0  0  0
   -9.5450   35.6400    7.1610 O   0  0  0  0  0  0  0  0  0  0  0  0
   -8.7610   37.3700    5.6570 C   0  0  0  0  0  0  0  0  0  0  0  0
   -6.4650   38.1450    5.8410 C   0  0  0  0  0  0  0  0  0  0  0  0
  -10.0100   37.3830    5.0980 O   0  0  0  0  0  0  0  0  0  0  0  0
   -5.3560   39.0490    5.3640 C   0  0  0  0  0  0  0  0  0  0  0  0
   -9.8540   34.6560    6.1700 C   0  0  0  0  0  0  0  0  0  0  0  0
   -7.7200   38.1960    5.2310 C   0  0  0  0  0  0  0  0  0  0  0  0
   -5.4280   40.3590    6.0020 N   0  0  0  0  0  0  0  0  0  0  0  0
  -10.3420   38.5240    4.3080 C   0  0  0  0  0  0  0  0  0  0  0  0
  2  1  1  1
  2  3  1  0
  2  4  1  0
  3  5  1  0
  4  6  1  0
  3  7  1  0
  5  8  1  0
  6  9  1  0
  7  9  1  0
  8 10  1  0
 10 11  1  0
 11 12  1  0
 12 13  1  0
 13 14  2  0
 13 15  1  0
 14 16  1  0
 14 17  1  0
 15 18  2  0
 17 19  1  0
 18 20  1  0
 16 21  1  0
 17 22  2  0
 18 22  1  0
 20 23  1  0
 19 24  1  0
M  END
