diamond-x0282_0_A-mac-x0326
     RDKit          3D

 29 32  0  0  0  0  0  0  0  0999 V2000
   -7.9940   14.4670    1.0630 C   0  0  0  0  0  0  0  0  0  0  0  0
   -8.6200   14.6760   -0.1990 O   0  0  0  0  0  0  0  0  0  0  0  0
   -6.5350   14.0190    0.8730 C   0  0  2  0  0  0  0  0  0  0  0  0
   -5.5440   14.7950    1.7500 C   0  0  0  0  0  0  0  0  0  0  0  0
   -5.9660   14.0190   -0.5650 C   0  0  1  0  0  0  0  0  0  0  0  0
   -5.7280   15.3640   -1.2880 C   0  0  0  0  0  0  0  0  0  0  0  0
   -4.2350   14.0350    1.8630 C   0  0  0  0  0  0  0  0  0  0  0  0
   -4.5900   13.2790   -0.5110 C   0  0  0  0  0  0  0  0  0  0  0  0
   -3.7310   13.8100    0.5620 N   0  0  0  0  0  0  0  0  0  0  0  0
   -4.2510   15.4620   -1.5140 C   0  0  0  0  0  0  0  0  0  0  0  0
   -2.3610   13.8830    0.4010 C   0  0  0  0  0  0  0  0  0  0  0  0
   -3.6690   15.1380   -2.7550 C   0  0  0  0  0  0  0  0  0  0  0  0
   -3.4510   15.8590   -0.4570 C   0  0  0  0  0  0  0  0  0  0  0  0
   -1.8910   13.5290   -0.7930 N   0  0  0  0  0  0  0  0  0  0  0  0
   -1.5760   14.3040    1.4300 N   0  0  0  0  0  0  0  0  0  0  0  0
   -2.2700   15.2060   -2.9120 C   0  0  0  0  0  0  0  0  0  0  0  0
   -2.0700   15.9380   -0.5900 C   0  0  0  0  0  0  0  0  0  0  0  0
   -0.5790   13.6060   -0.9920 C   0  0  0  0  0  0  0  0  0  0  0  0
   -0.2570   14.3660    1.1660 C   0  0  0  0  0  0  0  0  0  0  0  0
   -1.5490   14.9010   -4.0630 N   0  0  0  0  0  0  0  0  0  0  0  0
   -1.5080   15.6060   -1.8200 C   0  0  0  0  0  0  0  0  0  0  0  0
    0.2920   14.0270   -0.0490 C   0  0  0  0  0  0  0  0  0  0  0  0
   -0.2580   15.0620   -3.8320 C   0  0  0  0  0  0  0  0  0  0  0  0
    0.1450   15.6010   -2.2590 S   0  0  0  0  0  0  0  0  0  0  0  0
    0.8290   14.8020   -4.8340 C   0  0  0  0  0  0  0  0  0  0  0  0
    0.9900   13.3210   -5.2000 C   0  0  0  0  0  0  0  0  0  0  0  0
    1.0630   12.3900   -4.0200 C   0  0  0  0  0  0  0  0  0  0  0  0
    0.0820   11.4620   -4.0250 O   0  0  0  0  0  0  0  0  0  0  0  0
    1.8930   12.4000   -3.1230 O   0  0  0  0  0  0  0  0  0  0  0  0
  1  2  1  0
  3  1  1  6
  3  4  1  0
  3  5  1  0
  5  6  1  1
  4  7  1  0
  5  8  1  0
  7  9  1  0
  8  9  1  0
  6 10  1  0
  9 11  1  0
 10 12  2  0
 10 13  1  0
 11 14  2  0
 11 15  1  0
 12 16  1  0
 13 17  2  0
 14 18  1  0
 15 19  2  0
 16 20  1  0
 16 21  2  0
 17 21  1  0
 18 22  2  0
 19 22  1  0
 20 23  2  0
 21 24  1  0
 23 24  1  0
 23 25  1  0
 25 26  1  0
 26 27  1  0
 27 28  1  0
 27 29  2  0
M  END
