diamond-x0969_0_A-mac-x0161
     RDKit          3D

 22 25  0  0  0  0  0  0  0  0999 V2000
   -6.5990   14.7640    2.2740 N   0  0  0  0  0  0  0  0  0  0  0  0
   -6.2140   14.7800    0.9850 C   0  0  0  0  0  0  0  0  0  0  0  0
   -7.1230   14.8130   -0.0380 N   0  0  0  0  0  0  0  0  0  0  0  0
   -4.9700   14.7700    0.3820 C   0  0  0  0  0  0  0  0  0  0  0  0
   -6.5550   14.8260   -1.2600 N   0  0  0  0  0  0  0  0  0  0  0  0
   -5.2400   14.8000   -0.9940 C   0  0  0  0  0  0  0  0  0  0  0  0
   -3.5900   14.7330    0.9480 C   0  0  0  0  0  0  0  0  0  0  0  0
   -4.1760   14.7960   -2.0460 C   0  0  0  0  0  0  0  0  0  0  0  0
   -2.3990   14.9430   -0.0850 C   0  0  1  0  0  0  0  0  0  0  0  0
   -2.7980   15.3870   -1.5600 C   0  0  1  0  0  0  0  0  0  0  0  0
   -1.4230   15.8930    0.5650 N   0  0  0  0  0  0  0  0  0  0  0  0
   -1.4680   13.7400   -0.1700 C   0  0  0  0  0  0  0  0  0  0  0  0
   -1.6630   15.1710   -2.6700 C   0  0  0  0  0  0  0  0  0  0  0  0
   -0.1380   14.2980   -0.3280 N   0  0  0  0  0  0  0  0  0  0  0  0
   -0.1830   15.1670    0.7940 C   0  0  0  0  0  0  0  0  0  0  0  0
   -1.2510   13.7800   -3.1460 C   0  0  0  0  0  0  0  0  0  0  0  0
   -1.5950   12.9660   -4.2200 C   0  0  0  0  0  0  0  0  0  0  0  0
   -0.3210   13.1030   -2.4000 O   0  0  0  0  0  0  0  0  0  0  0  0
   -0.0520   11.8580   -2.9630 N   0  0  0  0  0  0  0  0  0  0  0  0
   -0.8190   11.7940   -4.0500 C   0  0  0  0  0  0  0  0  0  0  0  0
   -0.8070   10.6970   -4.8550 O   0  0  0  0  0  0  0  0  0  0  0  0
   -1.8180   10.6560   -5.8570 C   0  0  0  0  0  0  0  0  0  0  0  0
  1  2  1  0
  2  3  1  0
  2  4  2  0
  3  5  1  0
  4  6  1  0
  5  6  2  0
  4  7  1  0
  6  8  1  0
  9  7  1  1
  8 10  1  0
  9 10  1  0
  9 11  1  0
  9 12  1  0
 10 13  1  6
 12 14  1  0
 11 15  1  0
 14 15  1  0
 13 16  1  0
 16 17  2  0
 16 18  1  0
 18 19  1  0
 17 20  1  0
 19 20  2  0
 20 21  1  0
 21 22  1  0
M  END
