diamond-x0950_1_A-diamond-x0711_0_A
     RDKit          3D

 18 19  0  0  0  0  0  0  0  0999 V2000
   -0.3750   13.5340   -4.0080 C   0  0  0  0  0  0  0  0  0  0  0  0
    0.6320   12.5870   -4.5950 C   0  0  2  0  0  0  0  0  0  0  0  0
    0.0720   11.7780   -5.5980 O   0  0  0  0  0  0  0  0  0  0  0  0
   -0.0570   13.8470   -2.2830 S   0  0  1  0  0  0  0  0  0  0  0  0
    0.8100   11.8890   -3.2390 C   0  0  0  0  0  0  0  0  0  0  0  0
    1.1570   12.8500   -2.4130 N   0  0  0  0  0  0  0  0  0  0  0  0
   -1.4530   14.5600   -2.9100 N   0  0  0  0  0  0  0  0  0  0  0  0
   -0.4760   14.6100   -0.8290 C   0  0  0  0  0  0  0  0  0  0  0  0
    0.5810   10.7050   -3.0030 O   0  0  0  0  0  0  0  0  0  0  0  0
   -2.6590   14.6110   -2.0970 C   0  0  0  0  0  0  0  0  0  0  0  0
   -3.8760   15.0950   -2.6210 C   0  0  0  0  0  0  0  0  0  0  0  0
   -2.6990   14.1900   -0.7460 C   0  0  0  0  0  0  0  0  0  0  0  0
   -5.0550   15.1380   -1.8420 C   0  0  0  0  0  0  0  0  0  0  0  0
   -3.8650   14.2280    0.0370 C   0  0  0  0  0  0  0  0  0  0  0  0
   -5.0530   14.6990   -0.5060 C   0  0  0  0  0  0  0  0  0  0  0  0
   -6.3290   14.7450    0.2780 C   0  0  0  0  0  0  0  0  0  0  0  0
   -6.2870   14.8300    1.6550 N   0  0  0  0  0  0  0  0  0  0  0  0
   -7.4200   14.7070   -0.2810 O   0  0  0  0  0  0  0  0  0  0  0  0
  1  2  1  0
  2  3  1  6
  1  4  2  0
  2  5  1  0
  4  6  2  0
  5  6  1  0
  4  7  1  0
  4  8  1  6
  5  9  2  0
  7 10  1  0
 10 11  2  0
 10 12  1  0
 11 13  1  0
 12 14  2  0
 13 15  2  0
 14 15  1  0
 15 16  1  0
 16 17  1  0
 16 18  2  0
M  END
