diamond-x0574_0_A-diamond-x0685_0_A
     RDKit          3D

 15 16  0  0  0  0  0  0  0  0999 V2000
    0.1450   14.0740    2.0740 N   0  0  0  0  0  0  0  0  0  0  0  0
   -0.9360   14.3150    1.3640 C   0  0  0  0  0  0  0  0  0  0  0  0
   -2.0590   14.3520    1.9590 N   0  0  0  0  0  0  0  0  0  0  0  0
   -0.9700   14.5810   -0.3260 S   0  0  0  0  0  0  0  0  0  0  0  0
   -3.0640   14.5760    1.0810 C   0  0  0  0  0  0  0  0  0  0  0  0
   -2.7010   14.7360   -0.2440 C   0  0  0  0  0  0  0  0  0  0  0  0
   -4.3980   14.6420    1.4520 C   0  0  0  0  0  0  0  0  0  0  0  0
   -3.6990   14.9720   -1.2110 C   0  0  0  0  0  0  0  0  0  0  0  0
   -3.3360   15.1400   -2.5720 C   0  0  0  0  0  0  0  0  0  0  0  0
   -5.3860   14.8580    0.5310 C   0  0  0  0  0  0  0  0  0  0  0  0
   -5.0460   15.0300   -0.8050 C   0  0  0  0  0  0  0  0  0  0  0  0
   -6.6990   14.9050    0.8800 O   0  0  0  0  0  0  0  0  0  0  0  0
   -3.0490   15.2810   -3.6840 N   0  0  0  0  0  0  0  0  0  0  0  0
   -6.9380   14.4550    2.2220 C   0  0  0  0  0  0  0  0  0  0  0  0
   -8.3120   13.8530    2.4200 C   0  0  0  0  0  0  0  0  0  0  0  0
  1  2  1  0
  2  3  2  0
  2  4  1  0
  3  5  1  0
  4  6  1  0
  5  6  2  0
  5  7  1  0
  6  8  1  0
  8  9  1  0
  7 10  2  0
  8 11  2  0
 10 11  1  0
 10 12  1  0
  9 13  3  0
 12 14  1  0
 14 15  1  0
M  END
