diamond-x0895_1_A-mac-x0283
     RDKit          3D

 10 11  0  0  0  0  0  0  0  0999 V2000
   -1.7410   14.8350    1.6430 O   0  0  0  0  0  0  0  0  0  0  0  0
   -2.7130   14.8600    0.9000 C   0  0  0  0  0  0  0  0  0  0  0  0
   -2.8350   14.3250   -0.4910 C   0  0  0  0  0  0  0  0  0  0  0  0
   -3.9680   15.3800    1.1420 N   0  0  0  0  0  0  0  0  0  0  0  0
   -4.1800   13.7250   -0.3940 N   0  0  0  0  0  0  0  0  0  0  0  0
   -4.9570   14.7740    0.2610 C   0  0  1  0  0  0  0  0  0  0  0  0
   -6.1860   14.3150    1.0770 C   0  0  0  0  0  0  0  0  0  0  0  0
   -5.5880   15.6870   -0.7820 C   0  0  0  0  0  0  0  0  0  0  0  0
   -7.4000   14.6010    0.2940 N   0  0  0  0  0  0  0  0  0  0  0  0
   -6.9350   15.2070   -0.9570 O   0  0  0  0  0  0  0  0  0  0  0  0
  1  2  2  0
  2  3  1  0
  2  4  1  0
  3  5  1  0
  6  4  1  0
  5  6  1  0
  6  7  1  1
  6  8  1  0
  7  9  1  0
  8 10  1  0
  9 10  1  0
M  END
