diamond-x0438_0_A-mac-x0213
     RDKit          3D

 29 32  0  0  0  0  0  0  0  0999 V2000
   -8.1660   15.4370    3.7300 C   0  0  0  0  0  0  0  0  0  0  0  0
   -9.4210   15.3230    2.4720 S   0  0  0  0  0  0  0  0  0  0  0  0
  -10.6010   14.7450    3.0970 O   0  0  0  0  0  0  0  0  0  0  0  0
   -8.7970   14.1270    1.2970 C   0  0  0  0  0  0  0  0  0  0  0  0
   -9.5310   16.6020    1.8140 O   0  0  0  0  0  0  0  0  0  0  0  0
   -7.3970   14.3950    0.8660 C   0  0  0  0  0  0  0  0  0  0  0  0
   -7.0050   14.7720   -0.4090 N   0  0  0  0  0  0  0  0  0  0  0  0
   -6.3530   14.2960    1.6450 N   0  0  0  0  0  0  0  0  0  0  0  0
   -5.2630   14.6010    0.8810 C   0  0  0  0  0  0  0  0  0  0  0  0
   -5.6330   14.9060   -0.4170 C   0  0  0  0  0  0  0  0  0  0  0  0
   -4.6970   15.2500   -1.3990 C   0  0  0  0  0  0  0  0  0  0  0  0
   -3.9250   14.6270    1.2560 C   0  0  0  0  0  0  0  0  0  0  0  0
   -3.3410   15.2630   -1.0000 C   0  0  0  0  0  0  0  0  0  0  0  0
   -2.9420   14.9530    0.3310 C   0  0  0  0  0  0  0  0  0  0  0  0
   -1.5110   14.9360    0.8730 C   0  0  0  0  0  0  0  0  0  0  0  0
   -0.6050   13.8060    0.4160 C   0  0  0  0  0  0  0  0  0  0  0  0
    0.2320   14.0850   -0.8210 C   0  0  0  0  0  0  0  0  0  0  0  0
    0.3910   12.8380   -1.5270 N   0  0  0  0  0  0  0  0  0  0  0  0
    0.3380   12.6650   -2.7980 C   0  0  0  0  0  0  0  0  0  0  0  0
    0.4780   11.4440   -3.3360 O   0  0  0  0  0  0  0  0  0  0  0  0
    0.1130   13.7290   -3.8800 C   0  0  0  0  0  0  0  0  0  0  0  0
   -1.3560   14.1990   -3.9090 C   0  0  0  0  0  0  0  0  0  0  0  0
    0.9670   15.0090   -3.7400 C   0  0  0  0  0  0  0  0  0  0  0  0
   -1.2300   15.5700   -4.5060 C   0  0  0  0  0  0  0  0  0  0  0  0
    0.0880   16.0310   -4.4110 C   0  0  0  0  0  0  0  0  0  0  0  0
   -2.2190   16.3470   -5.0920 C   0  0  0  0  0  0  0  0  0  0  0  0
    0.4390   17.2800   -4.8990 C   0  0  0  0  0  0  0  0  0  0  0  0
   -1.8690   17.6070   -5.5870 C   0  0  0  0  0  0  0  0  0  0  0  0
   -0.5490   18.0680   -5.4900 C   0  0  0  0  0  0  0  0  0  0  0  0
  2  1  1  0
  2  3  2  0
  2  4  1  0
  2  5  2  0
  4  6  1  0
  6  7  1  0
  6  8  2  0
  8  9  1  0
  7 10  1  0
  9 10  2  0
 10 11  1  0
  9 12  1  0
 11 13  2  0
 12 14  2  0
 13 14  1  0
 14 15  1  0
 15 16  1  0
 16 17  1  0
 17 18  1  0
 18 19  2  3
 19 20  1  0
 19 21  1  0
 21 22  1  0
 21 23  1  0
 22 24  1  0
 23 25  1  0
 24 25  2  0
 24 26  1  0
 25 27  1  0
 26 28  2  0
 27 29  2  0
 28 29  1  0
M  END
