diamond-x0900_0_A-diamond-x0849_0_A
     RDKit          3D

 12 13  0  0  0  0  0  0  0  0999 V2000
   -6.5520   14.9260   -0.9230 O   0  0  0  0  0  0  0  0  0  0  0  0
   -5.4440   14.8660   -0.3980 C   0  0  0  0  0  0  0  0  0  0  0  0
   -4.1720   14.7460   -0.9810 N   0  0  0  0  0  0  0  0  0  0  0  0
   -5.1840   14.9110    1.0760 C   0  0  0  0  0  0  0  0  0  0  0  0
   -3.8860   15.0210   -2.8100 Br  0  0  0  0  0  0  0  0  0  0  0  0
   -3.8950   15.7220    1.0760 C   0  0  0  0  0  0  0  0  0  0  0  0
   -3.1020   14.9640    0.0010 C   0  0  2  0  0  0  0  0  0  0  0  0
   -1.8270   15.6440   -0.6320 C   0  0  0  0  0  0  0  0  0  0  0  0
   -2.6000   13.7470    0.7440 C   0  0  0  0  0  0  0  0  0  0  0  0
   -1.5590   14.1550    1.6790 N   0  0  0  0  0  0  0  0  0  0  0  0
   -0.4850   15.3320    0.0140 C   0  0  0  0  0  0  0  0  0  0  0  0
   -0.4300   14.6230    1.1260 C   0  0  0  0  0  0  0  0  0  0  0  0
  1  2  2  0
  2  3  1  0
  2  4  1  0
  3  5  1  0
  4  6  1  0
  7  3  1  0
  7  6  1  1
  7  8  1  0
  7  9  1  0
  9 10  1  0
  8 11  1  0
 10 12  1  0
 11 12  2  0
M  END
