diamond-x0438_0_A-mac-x0204
     RDKit          3D

 26 28  0  0  0  0  0  0  0  0999 V2000
   -8.1200   15.5320    3.8660 C   0  0  0  0  0  0  0  0  0  0  0  0
   -9.3430   15.3140    2.5830 S   0  0  0  0  0  0  0  0  0  0  0  0
  -10.5440   14.7670    3.1890 O   0  0  0  0  0  0  0  0  0  0  0  0
   -8.7010   14.1270    1.4080 C   0  0  0  0  0  0  0  0  0  0  0  0
   -9.4580   16.5620    1.8580 O   0  0  0  0  0  0  0  0  0  0  0  0
   -7.3140   14.3530    0.9160 C   0  0  0  0  0  0  0  0  0  0  0  0
   -7.0520   14.8740   -0.3340 N   0  0  0  0  0  0  0  0  0  0  0  0
   -6.1850   14.0980    1.5370 N   0  0  0  0  0  0  0  0  0  0  0  0
   -5.1710   14.4400    0.6780 C   0  0  0  0  0  0  0  0  0  0  0  0
   -5.6860   14.9360   -0.5070 C   0  0  0  0  0  0  0  0  0  0  0  0
   -4.8810   15.3600   -1.5610 C   0  0  0  0  0  0  0  0  0  0  0  0
   -3.7820   14.3430    0.8530 C   0  0  0  0  0  0  0  0  0  0  0  0
   -3.4920   15.2500   -1.3800 C   0  0  0  0  0  0  0  0  0  0  0  0
   -2.9220   14.7420   -0.1910 C   0  0  0  0  0  0  0  0  0  0  0  0
   -1.4090   14.6020   -0.0070 C   0  0  0  0  0  0  0  0  0  0  0  0
   -0.7390   13.5680   -0.9420 C   0  0  0  0  0  0  0  0  0  0  0  0
   -0.1380   14.0270   -2.3050 C   0  0  0  0  0  0  0  0  0  0  0  0
    0.8630   13.0730   -2.6280 O   0  0  0  0  0  0  0  0  0  0  0  0
    0.5840   15.2330   -2.1540 O   0  0  0  0  0  0  0  0  0  0  0  0
   -1.1020   14.0550   -3.4790 C   0  0  0  0  0  0  0  0  0  0  0  0
   -1.4090   15.2490   -4.1620 C   0  0  0  0  0  0  0  0  0  0  0  0
   -1.7380   12.9000   -3.9450 C   0  0  0  0  0  0  0  0  0  0  0  0
   -2.3020   15.2310   -5.2290 C   0  0  0  0  0  0  0  0  0  0  0  0
   -2.6110   12.8520   -4.9850 N   0  0  0  0  0  0  0  0  0  0  0  0
   -2.6250   16.3680   -5.9100 O   0  0  0  0  0  0  0  0  0  0  0  0
   -2.8720   14.0280   -5.6010 C   0  0  0  0  0  0  0  0  0  0  0  0
  2  1  1  0
  2  3  2  0
  2  4  1  0
  2  5  2  0
  4  6  1  0
  6  7  1  0
  6  8  2  0
  8  9  1  0
  7 10  1  0
  9 10  2  0
 10 11  1  0
  9 12  1  0
 11 13  2  0
 12 14  2  0
 13 14  1  0
 14 15  1  0
 15 16  1  0
 16 17  1  0
 17 18  1  0
 17 19  1  0
 17 20  1  0
 20 21  2  0
 20 22  1  0
 21 23  1  0
 22 24  2  0
 23 25  1  0
 23 26  2  0
 24 26  1  0
M  END
