diamond-x0967_0_A-diamond-x0685_0_A
     RDKit          3D

 14 15  0  0  0  0  0  0  0  0999 V2000
   -5.1650   15.2190    2.2550 N   0  0  0  0  0  0  0  0  0  0  0  0
   -6.4750   14.8170    2.8180 C   0  0  0  0  0  0  0  0  0  0  0  0
   -6.7170   13.3080    2.6980 C   0  0  0  0  0  0  0  0  0  0  0  0
   -4.9220   15.0810    0.8790 C   0  0  0  0  0  0  0  0  0  0  0  0
   -6.0930   14.8100    0.1860 C   0  0  0  0  0  0  0  0  0  0  0  0
   -3.7340   15.1770    0.1370 C   0  0  0  0  0  0  0  0  0  0  0  0
   -6.0790   14.6460   -1.1920 C   0  0  0  0  0  0  0  0  0  0  0  0
   -7.3190   14.6980    0.8630 C   0  0  0  0  0  0  0  0  0  0  0  0
   -3.8170   14.9910   -1.2490 C   0  0  0  0  0  0  0  0  0  0  0  0
   -7.2040   14.3900   -1.8520 N   0  0  0  0  0  0  0  0  0  0  0  0
   -8.4760   14.4370    0.1860 C   0  0  0  0  0  0  0  0  0  0  0  0
   -4.9600   14.7340   -1.8910 N   0  0  0  0  0  0  0  0  0  0  0  0
   -2.6970   15.0620   -2.0770 N   0  0  0  0  0  0  0  0  0  0  0  0
   -8.3650   14.2930   -1.1700 C   0  0  0  0  0  0  0  0  0  0  0  0
  1  2  1  0
  2  3  1  0
  1  4  1  0
  4  5  2  0
  4  6  1  0
  5  7  1  0
  5  8  1  0
  6  9  2  0
  7 10  1  0
  8 11  2  0
  7 12  2  0
  9 12  1  0
  9 13  1  0
 10 14  2  0
 11 14  1  0
M  END
