diamond-x0104_0_A-mac-x0277
     RDKit          3D

 30 32  0  0  0  0  0  0  0  0999 V2000
   -6.8540   14.4930    2.6320 N   0  0  0  0  0  0  0  0  0  0  0  0
   -8.0320   15.0200    3.1480 C   0  0  0  0  0  0  0  0  0  0  0  0
   -7.9870   15.0610    4.5340 N   0  0  0  0  0  0  0  0  0  0  0  0
   -6.3070   14.7150    1.3510 C   0  0  0  0  0  0  0  0  0  0  0  0
   -8.9800   15.3950    2.4640 O   0  0  0  0  0  0  0  0  0  0  0  0
   -4.9620   14.9750    1.0850 C   0  0  0  0  0  0  0  0  0  0  0  0
   -7.1700   14.6790    0.2630 C   0  0  0  0  0  0  0  0  0  0  0  0
   -4.4600   15.2010   -0.1590 N   0  0  0  0  0  0  0  0  0  0  0  0
   -6.6780   14.9120   -1.0210 C   0  0  0  0  0  0  0  0  0  0  0  0
   -9.0940   15.0790    5.3550 C   0  0  0  0  0  0  0  0  0  0  0  0
   -5.3290   15.1720   -1.1910 C   0  0  0  0  0  0  0  0  0  0  0  0
   -9.2410   15.2050    6.7170 C   0  0  0  0  0  0  0  0  0  0  0  0
  -10.5900   14.9110    4.5540 S   0  0  0  0  0  0  0  0  0  0  0  0
   -4.7780   15.4260   -2.4130 O   0  0  0  0  0  0  0  0  0  0  0  0
  -11.4590   15.0060    6.0290 C   0  0  0  0  0  0  0  0  0  0  0  0
  -10.6170   15.1630    7.1080 C   0  0  0  0  0  0  0  0  0  0  0  0
   -3.5880   14.7790   -2.8400 C   0  0  0  0  0  0  0  0  0  0  0  0
   -3.5720   14.5340   -4.3590 C   0  0  0  0  0  0  0  0  0  0  0  0
   -2.8290   15.5970   -5.1870 C   0  0  0  0  0  0  0  0  0  0  0  0
   -1.3490   15.6370   -4.9420 C   0  0  0  0  0  0  0  0  0  0  0  0
   -0.6930   14.4160   -4.7040 C   0  0  0  0  0  0  0  0  0  0  0  0
   -0.5910   16.8130   -4.9360 C   0  0  0  0  0  0  0  0  0  0  0  0
   -1.3040   18.3610   -5.2270 Cl  0  0  0  0  0  0  0  0  0  0  0  0
    0.6830   14.3550   -4.4590 C   0  0  0  0  0  0  0  0  0  0  0  0
    0.7790   16.7650   -4.6900 C   0  0  0  0  0  0  0  0  0  0  0  0
    1.3460   13.0270   -4.2050 C   0  0  0  0  0  0  0  0  0  0  0  0
    1.4140   15.5430   -4.4520 C   0  0  0  0  0  0  0  0  0  0  0  0
    0.9420   12.4410   -2.8740 C   0  0  0  0  0  0  0  0  0  0  0  0
    0.4430   11.1930   -2.9700 O   0  0  0  0  0  0  0  0  0  0  0  0
    1.0330   13.0040   -1.7970 O   0  0  0  0  0  0  0  0  0  0  0  0
  1  2  1  0
  2  3  1  0
  1  4  1  0
  2  5  2  0
  4  6  2  0
  4  7  1  0
  6  8  1  0
  7  9  2  0
  3 10  1  0
  8 11  2  0
  9 11  1  0
 10 12  2  0
 10 13  1  0
 11 14  1  0
 13 15  1  0
 12 16  1  0
 15 16  2  0
 14 17  1  0
 17 18  1  0
 18 19  1  0
 19 20  1  0
 20 21  2  0
 20 22  1  0
 22 23  1  0
 21 24  1  0
 22 25  2  0
 24 26  1  0
 24 27  2  0
 25 27  1  0
 26 28  1  0
 28 29  1  0
 28 30  2  0
M  END
