diamond-x0685_0_A-mac-x0358
     RDKit          3D

 22 23  0  0  0  0  0  0  0  0999 V2000
   -6.3400   15.0270    2.5380 N   0  0  0  0  0  0  0  0  0  0  0  0
   -7.7640   14.7370    2.5540 C   0  0  0  0  0  0  0  0  0  0  0  0
   -8.0370   13.3300    3.0540 C   0  0  0  0  0  0  0  0  0  0  0  0
   -5.6600   15.0780    1.3210 C   0  0  0  0  0  0  0  0  0  0  0  0
   -4.2730   15.2410    1.3510 C   0  0  0  0  0  0  0  0  0  0  0  0
   -6.3420   14.9860    0.1700 N   0  0  0  0  0  0  0  0  0  0  0  0
   -3.5750   15.3190    0.1560 C   0  0  0  0  0  0  0  0  0  0  0  0
   -5.6460   15.0710   -0.9740 C   0  0  0  0  0  0  0  0  0  0  0  0
   -4.2830   15.2380   -1.0320 C   0  0  0  0  0  0  0  0  0  0  0  0
   -3.6450   15.3050   -2.2870 C   0  0  0  0  0  0  0  0  0  0  0  0
   -3.0920   15.0980   -3.3050 C   0  0  0  0  0  0  0  0  0  0  0  0
   -2.4230   14.3940   -4.3080 C   0  0  0  0  0  0  0  0  0  0  0  0
   -3.0440   13.9760   -5.4730 C   0  0  0  0  0  0  0  0  0  0  0  0
   -1.1050   14.0800   -4.0350 C   0  0  0  0  0  0  0  0  0  0  0  0
   -0.3640   13.3060   -4.8980 C   0  0  0  0  0  0  0  0  0  0  0  0
   -2.3140   13.1990   -6.3560 C   0  0  0  0  0  0  0  0  0  0  0  0
    1.0430   12.9880   -4.4930 C   0  0  0  0  0  0  0  0  0  0  0  0
   -0.9890   12.8630   -6.0560 C   0  0  0  0  0  0  0  0  0  0  0  0
    1.0650   12.2370   -3.1800 C   0  0  0  0  0  0  0  0  0  0  0  0
   -0.3370   12.0730   -6.9500 O   0  0  0  0  0  0  0  0  0  0  0  0
    1.6580   12.9170   -2.1850 O   0  0  0  0  0  0  0  0  0  0  0  0
    0.5930   11.1310   -2.9660 O   0  0  0  0  0  0  0  0  0  0  0  0
  1  2  1  0
  2  3  1  0
  1  4  1  0
  4  5  2  0
  4  6  1  0
  5  7  1  0
  6  8  2  0
  7  9  2  0
  8  9  1  0
  9 10  1  0
 10 11  3  0
 11 12  1  0
 12 13  2  0
 12 14  1  0
 14 15  2  0
 13 16  1  0
 15 17  1  0
 15 18  1  0
 16 18  2  0
 17 19  1  0
 18 20  1  0
 19 21  1  0
 19 22  2  0
M  END
