diamond-x0685_0_A-mac-x0115
     RDKit          3D

 27 29  0  0  0  0  0  0  0  0999 V2000
   -6.6720   14.6920    2.8910 N   0  0  0  0  0  0  0  0  0  0  0  0
   -8.0990   14.6130    2.7240 C   0  0  0  0  0  0  0  0  0  0  0  0
   -8.5430   13.1980    3.0360 C   0  0  0  0  0  0  0  0  0  0  0  0
   -5.9100   14.8380    1.7390 C   0  0  0  0  0  0  0  0  0  0  0  0
   -4.5940   15.0150    2.0260 C   0  0  0  0  0  0  0  0  0  0  0  0
   -6.3950   14.8180    0.4520 N   0  0  0  0  0  0  0  0  0  0  0  0
   -3.7360   15.1760    1.0130 C   0  0  0  0  0  0  0  0  0  0  0  0
   -5.4950   14.9900   -0.5750 C   0  0  0  0  0  0  0  0  0  0  0  0
   -4.1580   15.1680   -0.2930 C   0  0  0  0  0  0  0  0  0  0  0  0
   -2.9910   15.3480   -1.0700 C   0  0  0  0  0  0  0  0  0  0  0  0
   -2.1980   15.7490   -0.1760 N   0  0  0  0  0  0  0  0  0  0  0  0
   -2.4380   14.9650   -2.3970 C   0  0  0  0  0  0  0  0  0  0  0  0
   -0.9290   15.6570   -0.7450 C   0  0  2  0  0  0  0  0  0  0  0  0
   -1.1030   15.0610   -2.0940 C   0  0  0  0  0  0  0  0  0  0  0  0
   -3.1920   14.5870   -3.4760 N   0  0  0  0  0  0  0  0  0  0  0  0
    0.1160   14.7760   -2.7250 N   0  0  0  0  0  0  0  0  0  0  0  0
   -0.1270   14.7890    0.1480 C   0  0  0  0  0  0  0  0  0  0  0  0
    0.1940   14.5060   -4.1760 C   0  0  0  0  0  0  0  0  0  0  0  0
   -0.3930   14.5430    1.3250 O   0  0  0  0  0  0  0  0  0  0  0  0
    1.1810   14.3240   -1.8780 C   0  0  0  0  0  0  0  0  0  0  0  0
    0.9470   14.2780   -0.5130 N   0  0  0  0  0  0  0  0  0  0  0  0
    0.5850   15.7590   -4.9530 C   0  0  0  0  0  0  0  0  0  0  0  0
    2.7100   13.8260   -2.3360 S   0  0  0  0  0  0  0  0  0  0  0  0
   -0.6240   16.4420   -5.3080 O   0  0  0  0  0  0  0  0  0  0  0  0
   -0.4300   17.7460   -5.8640 C   0  0  0  0  0  0  0  0  0  0  0  0
   -1.4260   18.7060   -5.2390 C   0  0  0  0  0  0  0  0  0  0  0  0
    1.0030   18.1620   -5.5830 C   0  0  0  0  0  0  0  0  0  0  0  0
  1  2  1  0
  2  3  1  0
  1  4  1  0
  4  5  2  0
  4  6  1  0
  5  7  1  0
  6  8  2  0
  7  9  2  0
  8  9  1  0
  9 10  1  0
 10 11  2  0
 10 12  1  0
 13 11  1  1
 12 14  2  0
 13 14  1  0
 12 15  1  0
 14 16  1  0
 13 17  1  0
 16 18  1  0
 17 19  2  0
 16 20  1  0
 17 21  1  0
 20 21  1  0
 18 22  1  0
 20 23  2  0
 22 24  1  0
 24 25  1  0
 25 26  1  0
 25 27  1  0
M  END
