diamond-x0722_0_A-mac-x0576
     RDKit          3D

 17 18  0  0  0  0  0  0  0  0999 V2000
   -4.2840   15.7430    2.3190 C   0  0  0  0  0  0  0  0  0  0  0  0
   -4.0590   15.2290    0.9030 C   0  0  2  0  0  0  0  0  0  0  0  0
   -5.1090   15.8000   -0.0210 C   0  0  0  0  0  0  0  0  0  0  0  0
   -4.4550   13.7950    0.8260 C   0  0  0  0  0  0  0  0  0  0  0  0
   -2.6410   15.5570    0.3050 C   0  0  1  0  0  0  0  0  0  0  0  0
   -5.3280   15.2200   -1.3830 C   0  0  0  0  0  0  0  0  0  0  0  0
   -1.5610   15.5380    1.3080 N   0  0  0  0  0  0  0  0  0  0  0  0
   -2.1520   14.5240   -0.7670 C   0  0  1  0  0  0  0  0  0  0  0  0
   -4.0610   13.1370   -0.2370 C   0  0  0  0  0  0  0  0  0  0  0  0
   -1.5980   15.2370   -2.0050 C   0  0  0  0  0  0  0  0  0  0  0  0
   -6.5790   14.4050   -1.2580 C   0  0  0  0  0  0  0  0  0  0  0  0
   -1.0380   13.8700   -0.0150 N   0  0  0  0  0  0  0  0  0  0  0  0
   -3.2970   13.7340   -1.1860 N   0  0  0  0  0  0  0  0  0  0  0  0
   -1.3420   14.1320    1.3630 C   0  0  0  0  0  0  0  0  0  0  0  0
   -7.7020   14.8310   -1.4510 O   0  0  0  0  0  0  0  0  0  0  0  0
    0.2770   14.4260   -0.2360 C   0  0  0  0  0  0  0  0  0  0  0  0
   -6.3820   13.1180   -0.8510 N   0  0  0  0  0  0  0  0  0  0  0  0
  2  1  1  1
  2  3  1  0
  2  4  1  0
  2  5  1  0
  3  6  1  0
  5  7  1  1
  5  8  1  0
  4  9  2  0
  8 10  1  6
  6 11  1  0
  8 12  1  0
  8 13  1  0
  9 13  1  0
  7 14  1  0
 12 14  1  0
 11 15  2  0
 12 16  1  0
 11 17  1  0
M  END
