diamond-x0681_0_A-diamond-x0910_1_A
     RDKit          3D

 13 14  0  0  0  0  0  0  0  0999 V2000
   -4.4220   15.4970   -2.4380 N   0  0  0  0  0  0  0  0  0  0  0  0
   -3.3620   14.8960   -1.8300 C   0  0  0  0  0  0  0  0  0  0  0  0
   -2.2970   14.7590   -2.4210 O   0  0  0  0  0  0  0  0  0  0  0  0
   -3.6380   14.4220   -0.4070 C   0  0  2  0  0  0  0  0  0  0  0  0
   -4.6550   13.3260   -0.4980 C   0  0  0  0  0  0  0  0  0  0  0  0
   -4.1360   15.5530    0.5090 C   0  0  0  0  0  0  0  0  0  0  0  0
   -5.6480   13.1570    0.4290 N   0  0  0  0  0  0  0  0  0  0  0  0
   -4.6700   14.9740    1.8140 C   0  0  0  0  0  0  0  0  0  0  0  0
   -4.7500   12.4060   -1.4380 N   0  0  0  0  0  0  0  0  0  0  0  0
   -5.8390   13.9870    1.5870 C   0  0  1  0  0  0  0  0  0  0  0  0
   -6.4020   12.0890    0.0670 C   0  0  0  0  0  0  0  0  0  0  0  0
   -5.8340   11.6370   -1.0910 C   0  0  0  0  0  0  0  0  0  0  0  0
   -7.1620   14.6110    1.4540 N   0  0  0  0  0  0  0  0  0  0  0  0
  1  2  1  0
  2  3  2  0
  4  2  1  6
  4  5  1  0
  4  6  1  0
  5  7  1  0
  6  8  1  0
  5  9  2  0
  7 10  1  0
  8 10  1  0
  7 11  1  0
  9 12  1  0
 11 12  2  0
 10 13  1  6
M  END
