diamond-x0421_0_A-mac-x0375
     RDKit          3D

 24 26  0  0  0  0  0  0  0  0999 V2000
   -3.6390   15.1940   -2.7820 N   0  0  0  0  0  0  0  0  0  0  0  0
   -2.7730   14.8580   -1.7750 C   0  0  0  0  0  0  0  0  0  0  0  0
   -1.5350   14.5700   -2.0110 N   0  0  0  0  0  0  0  0  0  0  0  0
   -3.4270   14.8750   -0.4650 C   0  0  0  0  0  0  0  0  0  0  0  0
   -0.9130   14.5570   -3.3350 C   0  0  0  0  0  0  0  0  0  0  0  0
   -2.8580   15.0310    0.7830 C   0  0  0  0  0  0  0  0  0  0  0  0
   -4.8110   14.7140   -0.3270 N   0  0  0  0  0  0  0  0  0  0  0  0
    0.6230   14.5090   -3.1890 C   0  0  0  0  0  0  0  0  0  0  0  0
   -3.8860   14.9610    1.6730 N   0  0  0  0  0  0  0  0  0  0  0  0
   -5.0320   14.7700    0.9720 C   0  0  0  0  0  0  0  0  0  0  0  0
    1.0430   13.2190   -2.6850 O   0  0  0  0  0  0  0  0  0  0  0  0
   -6.4170   14.6320    1.6570 C   0  0  0  0  0  0  0  0  0  0  0  0
    0.8330   12.1530   -3.5210 C   0  0  0  0  0  0  0  0  0  0  0  0
   -7.6760   14.6450    0.8330 C   0  0  0  0  0  0  0  0  0  0  0  0
   -7.1970   13.3650    1.4570 C   0  0  0  0  0  0  0  0  0  0  0  0
    0.6080   11.0190   -3.1250 O   0  0  0  0  0  0  0  0  0  0  0  0
    0.9320   12.6050   -4.9800 C   0  0  0  0  0  0  0  0  0  0  0  0
    0.7530   11.5830   -5.9570 O   0  0  0  0  0  0  0  0  0  0  0  0
   -0.4190   10.8790   -5.9840 C   0  0  0  0  0  0  0  0  0  0  0  0
   -0.3740    9.7160   -6.7610 C   0  0  0  0  0  0  0  0  0  0  0  0
   -1.6050   11.2090   -5.3290 C   0  0  0  0  0  0  0  0  0  0  0  0
   -1.4930    8.8910   -6.8820 C   0  0  0  0  0  0  0  0  0  0  0  0
   -2.7290   10.3820   -5.4520 C   0  0  0  0  0  0  0  0  0  0  0  0
   -2.6720    9.2280   -6.2240 C   0  0  0  0  0  0  0  0  0  0  0  0
  1  2  1  0
  2  3  2  3
  2  4  1  0
  3  5  1  0
  4  6  2  0
  4  7  1  0
  5  8  1  0
  6  9  1  0
  7 10  2  0
  9 10  1  0
  8 11  1  0
 10 12  1  0
 11 13  1  0
 12 14  1  0
 12 15  1  0
 14 15  1  0
 13 16  2  0
 13 17  1  0
 17 18  1  0
 18 19  1  0
 19 20  2  0
 19 21  1  0
 20 22  1  0
 21 23  2  0
 22 24  2  0
 23 24  1  0
M  END
