diamond-x0685_1_A-mac-x0555
     RDKit          3D

 26 28  0  0  0  0  0  0  0  0999 V2000
   -1.0840   10.5620   -4.9140 N   0  0  0  0  0  0  0  0  0  0  0  0
   -1.4120   11.9590   -4.5750 C   0  0  0  0  0  0  0  0  0  0  0  0
   -0.1760   12.7130   -4.0880 C   0  0  0  0  0  0  0  0  0  0  0  0
   -1.3010   10.1130   -6.3080 C   0  0  0  0  0  0  0  0  0  0  0  0
   -0.1980    9.1490   -6.7650 C   0  0  0  0  0  0  0  0  0  0  0  0
   -1.5800   11.2000   -7.3610 C   0  0  0  0  0  0  0  0  0  0  0  0
    0.5440   12.1220   -2.5480 S   0  0  0  0  0  0  0  0  0  0  0  0
   -0.5820    8.3860   -8.0150 C   0  0  0  0  0  0  0  0  0  0  0  0
   -1.0600   10.8100   -8.7460 C   0  0  0  0  0  0  0  0  0  0  0  0
    2.1070   12.4590   -2.6860 O   0  0  0  0  0  0  0  0  0  0  0  0
    0.3440   10.5190   -2.5240 O   0  0  0  0  0  0  0  0  0  0  0  0
   -0.1540   12.7850   -1.2390 O   0  0  0  0  0  0  0  0  0  0  0  0
   -1.2230    9.3130   -9.0470 C   0  0  0  0  0  0  0  0  0  0  0  0
   -0.5710   14.1690   -1.1460 C   0  0  0  0  0  0  0  0  0  0  0  0
   -1.6290   14.5820   -2.1920 C   0  0  0  0  0  0  0  0  0  0  0  0
   -3.0990   14.7220   -1.7670 C   0  0  0  0  0  0  0  0  0  0  0  0
   -4.0590   14.9560   -2.7560 C   0  0  0  0  0  0  0  0  0  0  0  0
   -3.5620   14.6100   -0.4500 C   0  0  0  0  0  0  0  0  0  0  0  0
   -4.9430   14.6980   -0.1600 C   0  0  0  0  0  0  0  0  0  0  0  0
   -5.4260   15.0480   -2.4490 C   0  0  0  0  0  0  0  0  0  0  0  0
   -5.4050   14.5650    1.1330 C   0  0  0  0  0  0  0  0  0  0  0  0
   -5.8960   14.9100   -1.1620 C   0  0  0  0  0  0  0  0  0  0  0  0
   -6.7630   14.6130    1.4470 C   0  0  0  0  0  0  0  0  0  0  0  0
   -7.2210   14.9730   -0.9050 N   0  0  0  0  0  0  0  0  0  0  0  0
   -7.1810   14.4620    2.7660 N   0  0  0  0  0  0  0  0  0  0  0  0
   -7.6260   14.8190    0.3780 C   0  0  0  0  0  0  0  0  0  0  0  0
  1  2  1  0
  2  3  1  0
  1  4  1  0
  4  5  1  0
  4  6  1  0
  3  7  1  0
  5  8  1  0
  6  9  1  0
  7 10  1  0
  7 11  1  0
  7 12  1  0
  8 13  1  0
  9 13  1  0
 12 14  1  0
 14 15  1  0
 15 16  1  0
 16 17  2  0
 16 18  1  0
 18 19  2  0
 17 20  1  0
 19 21  1  0
 19 22  1  0
 20 22  2  0
 21 23  2  0
 22 24  1  0
 23 25  1  0
 23 26  1  0
 24 26  2  0
M  END
