diamond-x0290_0_A-mac-x0139
     RDKit          3D

 22 23  0  0  0  0  0  0  0  0999 V2000
   -7.6720   13.5480    0.8730 N   0  0  0  0  0  0  0  0  0  0  0  0
   -8.3970   14.8110    0.8100 C   0  0  0  0  0  0  0  0  0  0  0  0
   -6.3580   13.7000    1.5620 C   0  0  0  0  0  0  0  0  0  0  0  0
   -5.1830   13.6850    0.5580 C   0  0  0  0  0  0  0  0  0  0  0  0
   -5.4170   13.7320   -0.6450 O   0  0  0  0  0  0  0  0  0  0  0  0
   -3.9280   13.6410    1.1300 N   0  0  0  0  0  0  0  0  0  0  0  0
   -2.9950   14.6980    0.9860 C   0  0  1  0  0  0  0  0  0  0  0  0
   -1.8750   14.5430    1.8880 N   0  0  0  0  0  0  0  0  0  0  0  0
   -2.6750   14.9650   -0.4480 C   0  0  0  0  0  0  0  0  0  0  0  0
   -4.0990   15.5800    1.2970 N   0  0  0  0  0  0  0  0  0  0  0  0
   -0.7420   14.3190    1.2950 C   0  0  0  0  0  0  0  0  0  0  0  0
   -1.4410   14.5420   -1.0490 C   0  0  0  0  0  0  0  0  0  0  0  0
   -3.6480   15.6260   -1.0350 C   0  0  0  0  0  0  0  0  0  0  0  0
   -4.4690   15.9530    0.1070 C   0  0  0  0  0  0  0  0  0  0  0  0
   -1.3600   14.5770   -2.5730 C   0  0  2  0  0  0  0  0  0  0  0  0
   -0.4630   14.2140   -0.1740 C   0  0  0  0  0  0  0  0  0  0  0  0
   -2.1680   13.5310   -3.3290 C   0  0  0  0  0  0  0  0  0  0  0  0
    0.0760   14.7620   -3.1220 C   0  0  0  0  0  0  0  0  0  0  0  0
    0.6160   13.5790   -3.9270 C   0  0  0  0  0  0  0  0  0  0  0  0
    0.9410   12.4510   -2.9970 C   0  0  0  0  0  0  0  0  0  0  0  0
    1.5420   12.5290   -1.9560 O   0  0  0  0  0  0  0  0  0  0  0  0
    0.4920   11.2620   -3.4340 O   0  0  0  0  0  0  0  0  0  0  0  0
  1  2  1  0
  1  3  1  0
  3  4  1  0
  4  5  2  0
  4  6  1  0
  7  6  1  6
  7  8  1  0
  7  9  1  0
  7 10  1  0
  8 11  2  0
  9 12  1  0
  9 13  2  0
 10 14  2  0
 13 14  1  0
 12 15  1  0
 11 16  1  0
 12 16  2  0
 15 17  1  6
 15 18  1  0
 18 19  1  0
 19 20  1  0
 20 21  2  0
 20 22  1  0
M  END
