diamond-x1018_0_A-mac-x0527
     RDKit          3D

 20 22  0  0  0  0  0  0  0  0999 V2000
   -7.9200   14.6360   -0.6480 Cl  0  0  0  0  0  0  0  0  0  0  0  0
   -6.2010   14.5110   -0.4920 C   0  0  0  0  0  0  0  0  0  0  0  0
   -5.7720   13.9710    0.6820 C   0  0  0  0  0  0  0  0  0  0  0  0
   -5.2430   14.9710   -1.4800 N   0  0  0  0  0  0  0  0  0  0  0  0
   -4.7490   14.5540   -2.8070 C   0  0  0  0  0  0  0  0  0  0  0  0
   -4.1100   15.3840   -0.8310 N   0  0  0  0  0  0  0  0  0  0  0  0
   -4.3650   13.8350    0.9200 C   0  0  0  0  0  0  0  0  0  0  0  0
   -5.4010   14.5350   -3.8310 O   0  0  0  0  0  0  0  0  0  0  0  0
   -3.3700   14.1830   -2.9350 N   0  0  0  0  0  0  0  0  0  0  0  0
   -3.0910   15.5320   -1.7180 N   0  0  0  0  0  0  0  0  0  0  0  0
   -3.6090   14.5640    0.1320 C   0  0  0  0  0  0  0  0  0  0  0  0
   -2.3930   14.6180   -3.9730 C   0  0  0  0  0  0  0  0  0  0  0  0
   -2.2900   14.6980    0.0230 N   0  0  0  0  0  0  0  0  0  0  0  0
   -2.1000   14.8430   -1.3160 N   0  0  0  0  0  0  0  0  0  0  0  0
   -1.7490   13.4440   -4.7270 C   0  0  0  0  0  0  0  0  0  0  0  0
   -2.5650   12.4290   -5.2370 C   0  0  0  0  0  0  0  0  0  0  0  0
   -0.3530   13.3220   -4.9350 C   0  0  0  0  0  0  0  0  0  0  0  0
   -2.0350   11.3300   -5.9080 C   0  0  0  0  0  0  0  0  0  0  0  0
    0.1770   12.2150   -5.6190 C   0  0  0  0  0  0  0  0  0  0  0  0
   -0.6650   11.2180   -6.1010 C   0  0  0  0  0  0  0  0  0  0  0  0
  1  2  1  0
  2  3  2  0
  2  4  1  0
  4  5  1  0
  4  6  1  0
  3  7  1  0
  5  8  2  0
  5  9  1  0
  6 10  1  0
  6 11  1  0
  7 11  2  0
  9 12  1  0
 11 13  1  0
 10 14  2  0
 13 14  1  0
 12 15  1  0
 15 16  2  0
 15 17  1  0
 16 18  1  0
 17 19  2  0
 18 20  2  0
 19 20  1  0
M  END
