diamond-x0438_0_A-diamond-x0766_0_A
     RDKit          3D

 25 28  0  0  0  0  0  0  0  0999 V2000
   -8.1590   15.6080    3.9070 C   0  0  0  0  0  0  0  0  0  0  0  0
   -9.2720   15.3670    2.5340 S   0  0  0  0  0  0  0  0  0  0  0  0
  -10.4830   14.7900    3.1000 O   0  0  0  0  0  0  0  0  0  0  0  0
   -8.5590   14.1000    1.5250 C   0  0  0  0  0  0  0  0  0  0  0  0
   -9.3910   16.5770    1.7600 O   0  0  0  0  0  0  0  0  0  0  0  0
   -7.2740   14.4230    0.8230 C   0  0  0  0  0  0  0  0  0  0  0  0
   -7.2040   14.7720   -0.4400 N   0  0  0  0  0  0  0  0  0  0  0  0
   -6.0630   14.3280    1.5010 N   0  0  0  0  0  0  0  0  0  0  0  0
   -5.1610   14.5700    0.5930 C   0  0  0  0  0  0  0  0  0  0  0  0
   -5.8520   14.8080   -0.6860 C   0  0  0  0  0  0  0  0  0  0  0  0
   -5.1760   14.9760   -1.8280 C   0  0  0  0  0  0  0  0  0  0  0  0
   -3.6810   14.5900    0.6820 C   0  0  0  0  0  0  0  0  0  0  0  0
   -3.7430   14.8620   -1.7500 C   0  0  0  0  0  0  0  0  0  0  0  0
   -3.0260   14.7120   -0.4910 C   0  0  0  0  0  0  0  0  0  0  0  0
   -2.8080   14.8260   -2.7250 C   0  0  0  0  0  0  0  0  0  0  0  0
   -1.6050   14.6790   -0.7770 C   0  0  0  0  0  0  0  0  0  0  0  0
   -1.4670   14.6940   -2.1270 C   0  0  0  0  0  0  0  0  0  0  0  0
   -0.1840   14.6060   -2.9250 C   0  0  1  0  0  0  0  0  0  0  0  0
    0.0990   13.3290   -3.7500 C   0  0  2  0  0  0  0  0  0  0  0  0
    0.1920   15.7430   -3.8700 C   0  0  0  0  0  0  0  0  0  0  0  0
    0.5780   12.2110   -2.8580 C   0  0  0  0  0  0  0  0  0  0  0  0
    1.2330   13.7110   -4.7220 C   0  0  0  0  0  0  0  0  0  0  0  0
    1.4340   15.2200   -4.5710 C   0  0  0  0  0  0  0  0  0  0  0  0
    1.3070   12.3340   -1.9020 O   0  0  0  0  0  0  0  0  0  0  0  0
    0.1140   10.9980   -3.2120 O   0  0  0  0  0  0  0  0  0  0  0  0
  2  1  1  0
  2  3  2  0
  2  4  1  0
  2  5  2  0
  4  6  1  0
  6  7  2  0
  6  8  1  0
  8  9  2  0
  7 10  1  0
  9 10  1  0
 10 11  2  0
  9 12  1  0
 11 13  1  0
 12 14  2  0
 13 14  1  0
 13 15  2  0
 14 16  1  0
 15 17  1  0
 16 17  2  0
 18 17  1  6
 18 19  1  0
 18 20  1  0
 19 21  1  1
 19 22  1  0
 20 23  1  0
 22 23  1  0
 21 24  2  0
 21 25  1  0
M  END
