diamond-x0685_1_A-mac-x0394
     RDKit          3D

 21 22  0  0  0  0  0  0  0  0999 V2000
   -1.3520   10.7270   -5.0760 N   0  0  0  0  0  0  0  0  0  0  0  0
   -0.2670   11.7290   -5.0880 C   0  0  0  0  0  0  0  0  0  0  0  0
   -0.3480   12.6980   -3.9070 C   0  0  1  0  0  0  0  0  0  0  0  0
   -1.4970   10.0270   -6.3560 C   0  0  0  0  0  0  0  0  0  0  0  0
   -0.2420    9.2290   -6.7280 C   0  0  0  0  0  0  0  0  0  0  0  0
   -1.8320   11.0290   -7.4690 C   0  0  0  0  0  0  0  0  0  0  0  0
    0.7800   12.1870   -2.5790 S   0  0  0  0  0  0  0  0  0  0  0  0
   -0.3570    8.4260   -8.0150 C   0  0  0  0  0  0  0  0  0  0  0  0
   -1.0660   10.7280   -8.7630 C   0  0  0  0  0  0  0  0  0  0  0  0
   -0.4450   14.1790   -4.2650 C   0  0  0  0  0  0  0  0  0  0  0  0
    2.2890   12.4860   -3.0100 O   0  0  0  0  0  0  0  0  0  0  0  0
    0.5440   10.5990   -2.4150 O   0  0  0  0  0  0  0  0  0  0  0  0
    0.3800   12.8930   -1.2010 O   0  0  0  0  0  0  0  0  0  0  0  0
   -1.0120    9.2370   -9.1190 C   0  0  0  0  0  0  0  0  0  0  0  0
   -1.6650   14.4590   -4.8420 C   0  0  0  0  0  0  0  0  0  0  0  0
    0.4750   15.2660   -4.1030 C   0  0  0  0  0  0  0  0  0  0  0  0
   -2.0250   15.7070   -5.2530 C   0  0  0  0  0  0  0  0  0  0  0  0
    0.0670   16.5640   -4.5410 C   0  0  0  0  0  0  0  0  0  0  0  0
    1.0330   17.9630   -4.4090 Cl  0  0  0  0  0  0  0  0  0  0  0  0
   -3.5720   15.8670   -5.9510 Cl  0  0  0  0  0  0  0  0  0  0  0  0
   -1.1750   16.7750   -5.1120 C   0  0  0  0  0  0  0  0  0  0  0  0
  1  2  1  0
  3  2  1  6
  1  4  1  0
  4  5  1  0
  4  6  1  0
  3  7  1  0
  5  8  1  0
  6  9  1  0
  3 10  1  0
  7 11  1  0
  7 12  1  0
  7 13  1  0
  8 14  1  0
  9 14  1  0
 10 15  2  0
 10 16  1  0
 15 17  1  0
 16 18  2  0
 18 19  1  0
 17 20  1  0
 17 21  2  0
 18 21  1  0
M  END
