diamond-x0290_0_A-mac-x0381
     RDKit          3D

 27 29  0  0  0  0  0  0  0  0999 V2000
   -7.6890   13.2570    1.0700 N   0  0  0  0  0  0  0  0  0  0  0  0
   -8.9060   13.7340    0.4150 C   0  0  0  0  0  0  0  0  0  0  0  0
   -6.8180   14.4020    1.3900 C   0  0  2  0  0  0  0  0  0  0  0  0
   -5.3940   14.2720    0.7220 C   0  0  0  0  0  0  0  0  0  0  0  0
   -7.0080   14.9620    2.8190 C   0  0  0  0  0  0  0  0  0  0  0  0
   -5.3240   13.8440   -0.4260 O   0  0  0  0  0  0  0  0  0  0  0  0
   -4.2760   14.6650    1.4420 N   0  0  0  0  0  0  0  0  0  0  0  0
   -8.0480   14.4300    3.8220 C   0  0  0  0  0  0  0  0  0  0  0  0
   -8.0640   12.9860    3.8990 N   0  0  0  0  0  0  0  0  0  0  0  0
   -7.6360   14.7960    5.1610 N   0  0  0  0  0  0  0  0  0  0  0  0
   -2.9680   14.6260    0.9040 C   0  0  0  0  0  0  0  0  0  0  0  0
   -9.4120   15.0190    3.4240 C   0  0  0  0  0  0  0  0  0  0  0  0
   -1.9420   14.5680    1.8010 N   0  0  0  0  0  0  0  0  0  0  0  0
   -2.7350   14.6390   -0.4640 C   0  0  0  0  0  0  0  0  0  0  0  0
   -9.5890   15.7220    2.2110 C   0  0  0  0  0  0  0  0  0  0  0  0
  -10.5450   14.8850    4.2490 C   0  0  0  0  0  0  0  0  0  0  0  0
   -0.6790   14.5200    1.3080 C   0  0  0  0  0  0  0  0  0  0  0  0
   -1.4210   14.5890   -0.9500 C   0  0  0  0  0  0  0  0  0  0  0  0
  -10.8210   16.2660    1.8190 C   0  0  0  0  0  0  0  0  0  0  0  0
  -11.7860   15.4230    3.8760 C   0  0  0  0  0  0  0  0  0  0  0  0
   -1.1610   14.6010   -2.4250 C   0  0  0  0  0  0  0  0  0  0  0  0
   -0.3710   14.5290   -0.0370 C   0  0  0  0  0  0  0  0  0  0  0  0
  -11.9430   16.1140    2.6630 C   0  0  0  0  0  0  0  0  0  0  0  0
  -10.9620   16.9550    0.6040 C   0  0  0  0  0  0  0  0  0  0  0  0
  -13.1780   16.6550    2.2660 C   0  0  0  0  0  0  0  0  0  0  0  0
  -12.1930   17.4820    0.2210 C   0  0  0  0  0  0  0  0  0  0  0  0
  -13.3030   17.3310    1.0530 C   0  0  0  0  0  0  0  0  0  0  0  0
  1  2  1  0
  1  3  1  0
  3  4  1  0
  3  5  1  1
  4  6  2  0
  4  7  1  0
  5  8  1  0
  8  9  1  0
  8 10  1  0
  7 11  1  0
  8 12  1  0
 11 13  2  0
 11 14  1  0
 12 15  2  0
 12 16  1  0
 13 17  1  0
 14 18  2  0
 15 19  1  0
 16 20  2  0
 18 21  1  0
 17 22  2  0
 18 22  1  0
 19 23  2  0
 20 23  1  0
 19 24  1  0
 23 25  1  0
 24 26  2  0
 25 27  2  0
 26 27  1  0
M  END
