diamond-x0724_0_A-diamond-x0727_0_A
     RDKit          3D

 30 32  0  0  0  0  0  0  0  0999 V2000
   -8.5960   13.7960    4.2950 N   0  0  0  0  0  0  0  0  0  0  0  0
   -8.4880   13.9320    5.7400 C   0  0  0  0  0  0  0  0  0  0  0  0
   -8.3760   15.0820    3.6360 C   0  0  0  0  0  0  0  0  0  0  0  0
   -7.7280   14.8550    2.3110 C   0  0  0  0  0  0  0  0  0  0  0  0
   -6.3900   14.9300    2.0110 C   0  0  0  0  0  0  0  0  0  0  0  0
   -8.3130   14.5260    1.0710 C   0  0  0  0  0  0  0  0  0  0  0  0
   -7.4150   14.4070    0.0850 N   0  0  0  0  0  0  0  0  0  0  0  0
   -6.2130   14.6610    0.6770 N   0  0  0  0  0  0  0  0  0  0  0  0
   -4.9770   14.6410   -0.0350 C   0  0  0  0  0  0  0  0  0  0  0  0
   -3.7540   14.7470    0.6460 C   0  0  0  0  0  0  0  0  0  0  0  0
   -4.9710   14.5130   -1.4300 C   0  0  0  0  0  0  0  0  0  0  0  0
   -2.5480   14.7160   -0.0590 C   0  0  0  0  0  0  0  0  0  0  0  0
   -3.7620   14.4830   -2.1300 C   0  0  0  0  0  0  0  0  0  0  0  0
   -2.5400   14.5800   -1.4550 C   0  0  0  0  0  0  0  0  0  0  0  0
   -1.2360   14.5280   -2.2290 C   0  0  0  0  0  0  0  0  0  0  0  0
    0.0440   14.3780   -1.3850 C   0  0  0  0  0  0  0  0  0  0  0  0
    1.3080   14.0920   -2.2100 C   0  0  0  0  0  0  0  0  0  0  0  0
    1.5440   12.6750   -2.3470 O   0  0  0  0  0  0  0  0  0  0  0  0
    0.7900   11.9380   -3.2280 C   0  0  0  0  0  0  0  0  0  0  0  0
    0.9390   12.3880   -4.6940 C   0  0  1  0  0  0  0  0  0  0  0  0
    0.0940   10.9880   -2.8930 O   0  0  0  0  0  0  0  0  0  0  0  0
    0.1630   11.4690   -5.5390 N   0  0  0  0  0  0  0  0  0  0  0  0
    0.4650   13.8090   -4.9270 C   0  0  0  0  0  0  0  0  0  0  0  0
    0.7020   11.1360   -6.7590 C   0  0  0  0  0  0  0  0  0  0  0  0
    1.6460   11.7400   -7.1950 O   0  0  0  0  0  0  0  0  0  0  0  0
    0.0590    9.9520   -7.4840 C   0  0  0  0  0  0  0  0  0  0  0  0
   -1.2270   10.3360   -8.2120 C   0  0  0  0  0  0  0  0  0  0  0  0
   -0.3160    8.8170   -6.5110 C   0  0  0  0  0  0  0  0  0  0  0  0
   -2.1910    9.1750   -8.0000 C   0  0  0  0  0  0  0  0  0  0  0  0
   -1.8100    8.5690   -6.6620 C   0  0  0  0  0  0  0  0  0  0  0  0
  1  2  1  0
  1  3  1  0
  3  4  1  0
  4  5  2  0
  4  6  1  0
  6  7  2  0
  5  8  1  0
  7  8  1  0
  8  9  1  0
  9 10  2  0
  9 11  1  0
 10 12  1  0
 11 13  2  0
 12 14  2  0
 13 14  1  0
 14 15  1  0
 15 16  1  0
 16 17  1  0
 17 18  1  0
 18 19  1  0
 19 20  1  0
 19 21  2  0
 20 22  1  0
 20 23  1  1
 22 24  1  0
 24 25  2  0
 24 26  1  0
 26 27  1  0
 26 28  1  0
 27 29  1  0
 28 30  1  0
 29 30  1  0
M  END
