diamond-x0844_0_A-diamond-x0685_0_A
     RDKit          3D

 12 12  0  0  0  0  0  0  0  0999 V2000
   -7.5950   14.7690   -0.0610 O   0  0  0  0  0  0  0  0  0  0  0  0
   -6.3720   14.8410    0.0480 C   0  0  0  0  0  0  0  0  0  0  0  0
   -5.6210   14.8080    1.2450 N   0  0  0  0  0  0  0  0  0  0  0  0
   -5.5710   14.9730   -1.2020 C   0  0  0  0  0  0  0  0  0  0  0  0
   -6.2560   14.9830    2.5020 N   0  0  0  0  0  0  0  0  0  0  0  0
   -4.2450   14.9120    1.2530 C   0  0  0  0  0  0  0  0  0  0  0  0
   -4.2360   15.0570   -1.1540 C   0  0  0  0  0  0  0  0  0  0  0  0
   -3.4930   15.1650   -2.3700 C   0  0  0  0  0  0  0  0  0  0  0  0
   -7.7000   14.7960    2.5580 C   0  0  0  0  0  0  0  0  0  0  0  0
   -3.5490   15.0330    0.1210 C   0  0  0  0  0  0  0  0  0  0  0  0
   -8.0840   13.3720    2.9170 C   0  0  0  0  0  0  0  0  0  0  0  0
   -2.9210   15.2450   -3.3740 N   0  0  0  0  0  0  0  0  0  0  0  0
  1  2  2  0
  2  3  1  0
  2  4  1  0
  3  5  1  0
  3  6  1  0
  4  7  2  0
  7  8  1  0
  5  9  1  0
  6 10  2  0
  7 10  1  0
  9 11  1  0
  8 12  3  0
M  END
