diamond-x0689_0_A-mac-x0402
     RDKit          3D

 19 21  0  0  0  0  0  0  0  0999 V2000
   -3.1760   16.2500    0.8560 N   0  0  0  0  0  0  0  0  0  0  0  0
   -4.1820   15.6420    1.6210 C   0  0  0  0  0  0  0  0  0  0  0  0
   -5.4900   15.3010    1.1360 N   0  0  0  0  0  0  0  0  0  0  0  0
   -2.0430   15.5250    0.6080 C   0  0  0  0  0  0  0  0  0  0  0  0
   -1.5620   15.5890   -0.6320 N   0  0  0  0  0  0  0  0  0  0  0  0
   -1.4890   14.8050    1.6090 N   0  0  0  0  0  0  0  0  0  0  0  0
   -0.4580   14.9000   -0.8970 C   0  0  0  0  0  0  0  0  0  0  0  0
   -0.3720   14.1330    1.2840 C   0  0  0  0  0  0  0  0  0  0  0  0
   -5.9100   14.3440    2.0700 C   0  0  1  0  0  0  0  0  0  0  0  0
   -5.6170   14.6920   -0.1680 C   0  0  2  0  0  0  0  0  0  0  0  0
   -7.2660   13.9080    1.9440 N   0  0  0  0  0  0  0  0  0  0  0  0
    0.1840   14.1490    0.0300 C   0  0  0  0  0  0  0  0  0  0  0  0
   -4.6060   13.5210   -0.0780 C   0  0  2  0  0  0  0  0  0  0  0  0
   -4.7510   13.0080    1.6640 S   0  0  0  0  0  0  0  0  0  0  0  0
   -5.4350   15.5080   -1.4270 C   0  0  0  0  0  0  0  0  0  0  0  0
   -4.4610   15.2720   -2.3200 C   0  0  0  0  0  0  0  0  0  0  0  0
   -3.2380   13.8750   -0.6680 C   0  0  0  0  0  0  0  0  0  0  0  0
   -3.4540   14.1880   -2.1610 C   0  0  2  0  0  0  0  0  0  0  0  0
   -1.9790   14.6990   -3.0500 Cl  0  0  0  0  0  0  0  0  0  0  0  0
  1  2  1  0
  2  3  1  0
  1  4  1  0
  4  5  2  0
  4  6  1  0
  5  7  1  0
  6  8  2  0
  3  9  1  0
  3 10  1  0
  9 11  1  6
  7 12  2  0
  8 12  1  0
 10 13  1  0
  9 14  1  0
 13 14  1  0
 10 15  1  6
 15 16  2  0
 13 17  1  1
 16 18  1  0
 17 18  1  0
 18 19  1  1
M  END
