diamond-x0685_1_A-diamond-x0662_0_A
     RDKit          3D

 24 25  0  0  0  0  0  0  0  0999 V2000
   -0.0800   11.4250   -5.9740 C   0  0  0  0  0  0  0  0  0  0  0  0
   -0.9500   11.6710   -4.7760 C   0  0  0  0  0  0  0  0  0  0  0  0
   -0.3670   12.7230   -3.8300 C   0  0  0  0  0  0  0  0  0  0  0  0
    1.1070   12.0460   -5.9710 C   0  0  0  0  0  0  0  0  0  0  0  0
   -0.5320   10.5460   -7.1280 C   0  0  1  0  0  0  0  0  0  0  0  0
    1.7080   12.8040   -5.1920 O   0  0  0  0  0  0  0  0  0  0  0  0
   -0.3820    9.0130   -7.1420 C   0  0  0  0  0  0  0  0  0  0  0  0
   -1.6930   10.8990   -8.0490 C   0  0  0  0  0  0  0  0  0  0  0  0
    0.7510   12.0580   -2.6080 S   0  0  0  0  0  0  0  0  0  0  0  0
    0.2260    8.6620   -8.5150 C   0  0  0  0  0  0  0  0  0  0  0  0
   -1.2320   10.5320   -9.4630 C   0  0  0  0  0  0  0  0  0  0  0  0
    2.2580   12.3520   -3.0570 O   0  0  0  0  0  0  0  0  0  0  0  0
    0.4270   10.4910   -2.4330 O   0  0  0  0  0  0  0  0  0  0  0  0
    0.4800   12.8370   -1.2300 O   0  0  0  0  0  0  0  0  0  0  0  0
    0.1950    9.9310   -9.4200 C   0  0  2  0  0  0  0  0  0  0  0  0
    0.7680    9.8020  -10.7920 N   0  0  0  0  0  0  0  0  0  0  0  0
    2.0020    9.2400  -11.1360 C   0  0  0  0  0  0  0  0  0  0  0  0
    2.5040    8.3030  -10.5270 O   0  0  0  0  0  0  0  0  0  0  0  0
    2.7060    9.8340  -12.3220 C   0  0  0  0  0  0  0  0  0  0  0  0
    2.5060   11.1000  -12.9560 C   0  0  0  0  0  0  0  0  0  0  0  0
    3.7000    9.1600  -12.9540 N   0  0  0  0  0  0  0  0  0  0  0  0
    4.1060    9.9750  -13.9450 N   0  0  0  0  0  0  0  0  0  0  0  0
    3.4180   11.1550  -13.9880 C   0  0  0  0  0  0  0  0  0  0  0  0
    5.1770    9.5500  -14.8200 C   0  0  0  0  0  0  0  0  0  0  0  0
  1  2  1  0
  2  3  1  0
  1  4  2  3
  5  1  1  1
  4  6  1  0
  5  7  1  0
  5  8  1  0
  3  9  1  0
  7 10  1  0
  8 11  1  0
  9 12  1  0
  9 13  1  0
  9 14  1  0
 10 15  1  0
 11 15  1  0
 15 16  1  6
 16 17  1  0
 17 18  2  0
 17 19  1  0
 19 20  1  0
 19 21  2  0
 21 22  1  0
 20 23  2  0
 22 23  1  0
 22 24  1  0
M  CHG  1   6  -1
M  END
