diamond-x0895_0_A-diamond-x0805_0_A
     RDKit          3D

 23 25  0  0  0  0  0  0  0  0999 V2000
   -1.3150   14.4500    2.0720 O   0  0  0  0  0  0  0  0  0  0  0  0
   -2.3470   14.7210    1.5210 C   0  0  0  0  0  0  0  0  0  0  0  0
   -3.7160   15.0230    2.1260 C   0  0  0  0  0  0  0  0  0  0  0  0
   -2.5560   14.8460    0.1810 N   0  0  0  0  0  0  0  0  0  0  0  0
   -4.1920   15.9740    1.1410 N   0  0  0  0  0  0  0  0  0  0  0  0
   -3.8070   15.3330    0.0160 C   0  0  0  0  0  0  0  0  0  0  0  0
   -4.4790   15.1540   -1.0630 C   0  0  0  0  0  0  0  0  0  0  0  0
   -5.8540   15.6490   -1.2950 C   0  0  0  0  0  0  0  0  0  0  0  0
   -3.7950   14.3880   -2.0670 C   0  0  0  0  0  0  0  0  0  0  0  0
   -4.4370   13.4050   -2.7820 C   0  0  0  0  0  0  0  0  0  0  0  0
   -2.4600   14.6470   -2.2960 C   0  0  0  0  0  0  0  0  0  0  0  0
   -3.7260   12.6860   -3.7310 C   0  0  0  0  0  0  0  0  0  0  0  0
   -1.7160   13.9550   -3.2320 C   0  0  0  0  0  0  0  0  0  0  0  0
   -2.3680   12.9560   -3.9610 C   0  0  0  0  0  0  0  0  0  0  0  0
   -0.2680   14.4020   -3.3190 C   0  0  1  0  0  0  0  0  0  0  0  0
    0.8170   13.3220   -3.2380 C   0  0  1  0  0  0  0  0  0  0  0  0
    0.1080   15.3610   -4.4300 C   0  0  0  0  0  0  0  0  0  0  0  0
    0.4880   12.1420   -2.3880 C   0  0  0  0  0  0  0  0  0  0  0  0
    1.4000   13.0490   -4.5910 C   0  0  0  0  0  0  0  0  0  0  0  0
    1.6080   15.4450   -4.6240 C   0  0  0  0  0  0  0  0  0  0  0  0
    0.4130   10.9560   -3.0250 O   0  0  0  0  0  0  0  0  0  0  0  0
    0.3010   12.2430   -1.1970 O   0  0  0  0  0  0  0  0  0  0  0  0
    2.2480   14.1650   -4.8120 O   0  0  0  0  0  0  0  0  0  0  0  0
  1  2  2  0
  2  3  1  0
  2  4  1  0
  3  5  1  0
  4  6  1  0
  5  6  1  0
  6  7  2  3
  7  8  1  0
  7  9  1  0
  9 10  2  0
  9 11  1  0
 10 12  1  0
 11 13  2  0
 12 14  2  0
 13 14  1  0
 15 13  1  6
 15 16  1  0
 15 17  1  0
 16 18  1  6
 16 19  1  0
 17 20  1  0
 18 21  1  0
 18 22  2  0
 19 23  1  0
 20 23  1  0
M  END
