diamond-x0727_0_A-mac-x0394
     RDKit          3D

 21 22  0  0  0  0  0  0  0  0999 V2000
    0.1350   11.8600   -5.4070 N   0  0  0  0  0  0  0  0  0  0  0  0
    0.8750   12.8110   -4.5480 C   0  0  2  0  0  0  0  0  0  0  0  0
    2.3190   13.0450   -4.9190 C   0  0  0  0  0  0  0  0  0  0  0  0
    0.5390   11.2410   -6.5660 C   0  0  0  0  0  0  0  0  0  0  0  0
    1.5610   11.4650   -7.1840 O   0  0  0  0  0  0  0  0  0  0  0  0
    0.7400   12.1720   -3.1350 C   0  0  0  0  0  0  0  0  0  0  0  0
   -0.4910   10.2030   -6.9770 C   0  0  0  0  0  0  0  0  0  0  0  0
    0.1730   14.1880   -4.7100 C   0  0  0  0  0  0  0  0  0  0  0  0
    0.1810   11.1080   -2.8760 O   0  0  0  0  0  0  0  0  0  0  0  0
    1.3130   12.8800   -2.1450 O   0  0  0  0  0  0  0  0  0  0  0  0
   -0.9440   10.1590   -8.4200 C   0  0  0  0  0  0  0  0  0  0  0  0
   -0.1410    8.7530   -6.7020 C   0  0  0  0  0  0  0  0  0  0  0  0
   -1.1990   14.2490   -4.9670 C   0  0  0  0  0  0  0  0  0  0  0  0
    0.8690   15.4300   -4.6160 C   0  0  0  0  0  0  0  0  0  0  0  0
   -1.8900    8.9550   -8.3850 C   0  0  0  0  0  0  0  0  0  0  0  0
   -1.3840    8.0610   -7.2370 C   0  0  0  0  0  0  0  0  0  0  0  0
   -1.8540   15.4670   -5.1270 C   0  0  0  0  0  0  0  0  0  0  0  0
    0.1790   16.6430   -4.7830 C   0  0  0  0  0  0  0  0  0  0  0  0
    0.9790   18.1420   -4.6820 Cl  0  0  0  0  0  0  0  0  0  0  0  0
   -3.5350   15.4630   -5.4520 Cl  0  0  0  0  0  0  0  0  0  0  0  0
   -1.1770   16.6650   -5.0380 C   0  0  0  0  0  0  0  0  0  0  0  0
  1  2  1  0
  2  3  1  6
  1  4  1  0
  4  5  2  0
  2  6  1  0
  4  7  1  0
  2  8  1  0
  6  9  2  0
  6 10  1  0
  7 11  1  0
  7 12  1  0
  8 13  2  0
  8 14  1  0
 11 15  1  0
 12 16  1  0
 15 16  1  0
 13 17  1  0
 14 18  2  0
 18 19  1  0
 17 20  1  0
 17 21  2  0
 18 21  1  0
M  END
