diamond-x0926_0_A-mac-x0415
     RDKit          3D

 23 25  0  0  0  0  0  0  0  0999 V2000
   -6.5190   14.8270   -0.9020 O   0  0  0  0  0  0  0  0  0  0  0  0
   -5.3240   14.8340   -0.6100 C   0  0  0  0  0  0  0  0  0  0  0  0
   -4.9300   15.0420    0.7960 C   0  0  0  0  0  0  0  0  0  0  0  0
   -4.2370   14.6640   -1.4760 N   0  0  0  0  0  0  0  0  0  0  0  0
   -4.3450   13.9370   -2.7460 C   0  0  0  0  0  0  0  0  0  0  0  0
   -3.0230   15.2740   -1.2560 N   0  0  0  0  0  0  0  0  0  0  0  0
   -3.6920   15.4210    1.0960 C   0  0  0  0  0  0  0  0  0  0  0  0
   -4.7350   14.9420   -3.8120 C   0  0  0  0  0  0  0  0  0  0  0  0
   -2.7800   15.6210   -0.0400 C   0  0  0  0  0  0  0  0  0  0  0  0
   -3.9580   15.0630   -5.0300 O   0  0  0  0  0  0  0  0  0  0  0  0
   -2.6220   15.3570   -4.9480 C   0  0  0  0  0  0  0  0  0  0  0  0
   -2.2170   16.6620   -5.5250 C   0  0  0  0  0  0  0  0  0  0  0  0
   -1.7060   14.5530   -4.3920 C   0  0  0  0  0  0  0  0  0  0  0  0
   -0.3600   15.0030   -4.3610 C   0  0  0  0  0  0  0  0  0  0  0  0
   -1.0220   17.2170   -5.2050 C   0  0  0  0  0  0  0  0  0  0  0  0
    0.7680   14.3160   -4.3950 C   0  0  0  0  0  0  0  0  0  0  0  0
   -0.1610   16.4740   -4.2430 C   0  0  2  0  0  0  0  0  0  0  0  0
    1.0980   12.8780   -4.4590 C   0  0  0  0  0  0  0  0  0  0  0  0
    1.7250   15.4130   -4.3530 C   0  0  0  0  0  0  0  0  0  0  0  0
    1.2820   16.6380   -4.3030 N   0  0  0  0  0  0  0  0  0  0  0  0
    0.8700   12.2680   -3.0880 C   0  0  0  0  0  0  0  0  0  0  0  0
    0.1080   11.1570   -3.1200 O   0  0  0  0  0  0  0  0  0  0  0  0
    1.2850   12.6790   -2.0210 O   0  0  0  0  0  0  0  0  0  0  0  0
  1  2  2  0
  2  3  1  0
  2  4  1  0
  4  5  1  0
  4  6  1  0
  3  7  2  0
  5  8  1  0
  6  9  2  0
  7  9  1  0
  8 10  1  0
 10 11  1  0
 11 12  1  0
 11 13  2  0
 13 14  1  0
 12 15  2  0
 14 16  2  0
 14 17  1  0
 17 15  1  6
 16 18  1  0
 16 19  1  0
 17 20  1  0
 19 20  2  0
 18 21  1  0
 21 22  1  0
 21 23  2  0
M  END
