diamond-x0159_0_B-mac-x0417
     RDKit          3D

 33 37  0  0  0  0  0  0  0  0999 V2000
    1.0520    9.1960  -10.3490 N   0  0  0  0  0  0  0  0  0  0  0  0
    0.9130    8.0980   -9.3940 C   0  0  1  0  0  0  0  0  0  0  0  0
    1.5300    6.7700   -9.8470 C   0  0  0  0  0  0  0  0  0  0  0  0
    1.9740    9.3910  -11.3180 C   0  0  0  0  0  0  0  0  0  0  0  0
    1.3180    8.5870   -8.0250 C   0  0  0  0  0  0  0  0  0  0  0  0
    1.8970   10.5300  -12.0570 N   0  0  0  0  0  0  0  0  0  0  0  0
    2.9840    8.6350  -11.6980 N   0  0  0  0  0  0  0  0  0  0  0  0
    1.4370   10.1030   -7.9470 C   0  0  0  0  0  0  0  0  0  0  0  0
    3.5740    9.3360  -12.7400 C   0  0  0  0  0  0  0  0  0  0  0  0
    2.8970   10.5330  -12.9750 C   0  0  0  0  0  0  0  0  0  0  0  0
    1.6950    5.6750   -8.8240 C   0  0  0  0  0  0  0  0  0  0  0  0
    2.5330    4.6120   -9.1480 C   0  0  0  0  0  0  0  0  0  0  0  0
    1.0460    5.6890   -7.5770 C   0  0  0  0  0  0  0  0  0  0  0  0
    3.2490   11.4540  -13.9550 C   0  0  0  0  0  0  0  0  0  0  0  0
    4.6860    9.0300  -13.5400 C   0  0  0  0  0  0  0  0  0  0  0  0
    0.4310   10.6720   -7.1170 C   0  0  0  0  0  0  0  0  0  0  0  0
    2.7330    3.5770   -8.2590 C   0  0  0  0  0  0  0  0  0  0  0  0
    1.2550    4.6390   -6.6840 C   0  0  0  0  0  0  0  0  0  0  0  0
    4.3530   11.1350  -14.7410 C   0  0  0  0  0  0  0  0  0  0  0  0
    5.0630    9.9420  -14.5400 C   0  0  0  0  0  0  0  0  0  0  0  0
    0.7680   11.5600   -6.2440 N   0  0  0  0  0  0  0  0  0  0  0  0
   -0.9770   10.2400   -7.2160 C   0  0  2  0  0  0  0  0  0  0  0  0
    2.1020    3.5960   -7.0430 C   0  0  0  0  0  0  0  0  0  0  0  0
   -0.3620   11.7640   -5.5370 C   0  0  0  0  0  0  0  0  0  0  0  0
   -1.3820   11.0100   -6.0060 C   0  0  0  0  0  0  0  0  0  0  0  0
   -1.4010    8.8110   -7.1560 C   0  0  0  0  0  0  0  0  0  0  0  0
   -0.2900   12.7020   -4.3810 C   0  0  0  0  0  0  0  0  0  0  0  0
   -2.5160    8.5220   -6.4830 C   0  0  0  0  0  0  0  0  0  0  0  0
   -2.7310   10.8100   -5.5910 C   0  0  0  0  0  0  0  0  0  0  0  0
    0.4920   12.0710   -3.2540 C   0  0  0  0  0  0  0  0  0  0  0  0
   -3.2750    9.5880   -5.8320 C   0  0  0  0  0  0  0  0  0  0  0  0
    1.2330   12.9470   -2.5490 O   0  0  0  0  0  0  0  0  0  0  0  0
    0.5080   10.8960   -2.9360 O   0  0  0  0  0  0  0  0  0  0  0  0
  1  2  1  0
  2  3  1  6
  1  4  1  0
  2  5  1  0
  4  6  1  0
  4  7  2  0
  5  8  1  0
  7  9  1  0
  6 10  1  0
  9 10  2  0
  3 11  1  0
 11 12  2  0
 11 13  1  0
 10 14  1  0
  9 15  1  0
  8 16  1  0
 12 17  1  0
 13 18  2  0
 14 19  2  0
 15 20  2  0
 19 20  1  0
 16 21  2  0
 16 22  1  0
 17 23  2  0
 18 23  1  0
 21 24  1  0
 22 25  1  0
 24 25  2  0
 22 26  1  1
 24 27  1  0
 26 28  2  0
 25 29  1  0
 27 30  1  0
 28 31  1  0
 29 31  2  0
 30 32  1  0
 30 33  2  0
M  END
