diamond-x0895_0_A-diamond-x0421_0_A
     RDKit          3D

 11 12  0  0  0  0  0  0  0  0999 V2000
   -1.4170   14.6240    1.9620 O   0  0  0  0  0  0  0  0  0  0  0  0
   -2.4480   14.6770    1.3260 C   0  0  0  0  0  0  0  0  0  0  0  0
   -3.8500   14.4710    1.8100 C   0  0  0  0  0  0  0  0  0  0  0  0
   -2.5170   14.9550    0.0060 N   0  0  0  0  0  0  0  0  0  0  0  0
   -4.7080   14.5260    0.5680 C   0  0  0  0  0  0  0  0  0  0  0  0
   -3.8460   15.2620   -0.4680 C   0  0  2  0  0  0  0  0  0  0  0  0
   -3.7800   14.8500   -1.9410 C   0  0  0  0  0  0  0  0  0  0  0  0
   -6.2140   14.7950    0.6930 C   0  0  0  0  0  0  0  0  0  0  0  0
   -5.7450   13.4270    0.3400 C   0  0  0  0  0  0  0  0  0  0  0  0
   -4.8980   14.9180   -2.7050 N   0  0  0  0  0  0  0  0  0  0  0  0
   -2.7110   14.4860   -2.4450 O   0  0  0  0  0  0  0  0  0  0  0  0
  1  2  2  0
  2  3  1  0
  2  4  1  0
  5  3  1  0
  4  6  1  0
  5  6  1  0
  6  7  1  6
  5  8  1  0
  5  9  1  0
  8  9  1  0
  7 10  1  0
  7 11  2  0
M  END
