diamond-x0849_0_A-mac-x0348
     RDKit          3D

 27 30  0  0  0  0  0  0  0  0999 V2000
   -3.8240   15.1860   -2.8040 Br  0  0  0  0  0  0  0  0  0  0  0  0
   -3.7230   15.1430   -0.9150 C   0  0  0  0  0  0  0  0  0  0  0  0
   -2.5240   14.8970   -0.2510 C   0  0  0  0  0  0  0  0  0  0  0  0
   -4.8830   15.3610   -0.2070 C   0  0  0  0  0  0  0  0  0  0  0  0
   -2.5380   14.8720    1.1410 C   0  0  0  0  0  0  0  0  0  0  0  0
   -4.7790   15.3160    1.1570 C   0  0  0  0  0  0  0  0  0  0  0  0
   -1.3080   14.6760   -0.8860 C   0  0  0  0  0  0  0  0  0  0  0  0
   -3.6410   15.0810    1.8080 N   0  0  0  0  0  0  0  0  0  0  0  0
   -1.4610   14.6410    1.8600 N   0  0  0  0  0  0  0  0  0  0  0  0
   -0.1900   14.4500   -0.1440 C   0  0  0  0  0  0  0  0  0  0  0  0
    1.0680   14.2300   -0.8400 C   0  0  0  0  0  0  0  0  0  0  0  0
   -0.3100   14.4380    1.2280 C   0  0  0  0  0  0  0  0  0  0  0  0
    0.8940   13.9190   -2.2000 N   0  0  0  0  0  0  0  0  0  0  0  0
    0.5700   12.8650   -2.8260 C   0  0  0  0  0  0  0  0  0  0  0  0
    0.4970   13.0230   -4.2760 C   0  0  0  0  0  0  0  0  0  0  0  0
    0.2980   11.6590   -2.2680 O   0  0  0  0  0  0  0  0  0  0  0  0
    1.1090   14.4130   -4.4240 C   0  0  0  0  0  0  0  0  0  0  0  0
    0.2620   15.5190   -4.9390 C   0  0  0  0  0  0  0  0  0  0  0  0
    0.7710   16.7390   -5.2650 C   0  0  0  0  0  0  0  0  0  0  0  0
   -1.1310   15.5810   -5.2210 C   0  0  0  0  0  0  0  0  0  0  0  0
   -0.1970   17.5300   -5.7420 N   0  0  0  0  0  0  0  0  0  0  0  0
   -1.3800   16.8650   -5.7360 C   0  0  0  0  0  0  0  0  0  0  0  0
   -2.2030   14.6780   -5.1090 C   0  0  0  0  0  0  0  0  0  0  0  0
    0.0500   18.8650   -6.1950 C   0  0  0  0  0  0  0  0  0  0  0  0
   -3.4670   15.0700   -5.5250 C   0  0  0  0  0  0  0  0  0  0  0  0
   -2.6370   17.2610   -6.1490 C   0  0  0  0  0  0  0  0  0  0  0  0
   -3.6670   16.3280   -6.0360 C   0  0  0  0  0  0  0  0  0  0  0  0
  1  2  1  0
  2  3  2  0
  2  4  1  0
  3  5  1  0
  4  6  2  0
  3  7  1  0
  5  8  2  0
  6  8  1  0
  5  9  1  0
  7 10  2  0
 10 11  1  0
  9 12  2  0
 10 12  1  0
 11 13  1  0
 13 14  2  3
 14 15  1  0
 14 16  1  0
 15 17  1  0
 17 18  1  0
 18 19  2  0
 18 20  1  0
 19 21  1  0
 20 22  2  0
 21 22  1  0
 20 23  1  0
 21 24  1  0
 23 25  2  0
 22 26  1  0
 25 27  1  0
 26 27  2  0
M  END
