diamond-x0742_0_A-diamond-x0962_1_A
     RDKit          3D

 22 25  0  0  0  0  0  0  0  0999 V2000
   -5.6970   12.3840   -0.0270 C   0  0  0  0  0  0  0  0  0  0  0  0
   -6.7210   11.7940    0.9050 C   0  0  0  0  0  0  0  0  0  0  0  0
   -5.5000   11.8460   -1.1290 O   0  0  0  0  0  0  0  0  0  0  0  0
   -4.8810   13.6260    0.4130 C   0  0  2  0  0  0  0  0  0  0  0  0
   -4.2790   13.3530    1.7330 C   0  0  0  0  0  0  0  0  0  0  0  0
   -5.6140   15.0090    0.6300 C   0  0  0  0  0  0  0  0  0  0  0  0
   -3.9190   14.1920   -0.6110 C   0  0  1  0  0  0  0  0  0  0  0  0
   -4.9370   14.9030   -1.4930 C   0  0  2  0  0  0  0  0  0  0  0  0
   -2.4730   14.3770   -0.3030 C   0  0  0  0  0  0  0  0  0  0  0  0
   -3.3180   14.4790    2.0210 C   0  0  0  0  0  0  0  0  0  0  0  0
   -4.9610   15.9500   -0.4290 C   0  0  0  0  0  0  0  0  0  0  0  0
   -1.4040   14.4310   -1.1930 C   0  0  0  0  0  0  0  0  0  0  0  0
   -2.2160   14.5320    1.0410 C   0  0  0  0  0  0  0  0  0  0  0  0
   -6.3810   14.5820   -1.3020 C   0  0  0  0  0  0  0  0  0  0  0  0
   -4.4380   15.3810   -2.7830 N   0  0  0  0  0  0  0  0  0  0  0  0
   -1.0270   14.7420    1.5650 N   0  0  0  0  0  0  0  0  0  0  0  0
   -0.1370   14.6650   -0.6760 C   0  0  0  0  0  0  0  0  0  0  0  0
   -6.8720   14.4850   -0.0020 N   0  0  0  0  0  0  0  0  0  0  0  0
   -7.4920   14.3370   -2.0690 C   0  0  0  0  0  0  0  0  0  0  0  0
   -0.0250   14.8200    0.6940 C   0  0  0  0  0  0  0  0  0  0  0  0
   -8.1890   14.2010   -0.0410 C   0  0  0  0  0  0  0  0  0  0  0  0
   -8.5970   14.1020   -1.2760 N   0  0  0  0  0  0  0  0  0  0  0  0
  1  2  1  0
  1  3  2  0
  4  1  1  6
  4  5  1  0
  4  6  1  0
  4  7  1  0
  7  8  1  0
  7  9  1  1
  5 10  1  0
  6 11  1  0
  8 11  1  0
  9 12  1  0
  9 13  2  0
 10 13  1  0
  8 14  1  0
  8 15  1  6
 13 16  1  0
 12 17  2  0
 14 18  1  0
 14 19  2  0
 16 20  2  0
 17 20  1  0
 18 21  1  0
 19 22  1  0
 21 22  2  0
M  END
