diamond-x0685_1_A-mac-x0188
     RDKit          3D

 24 26  0  0  0  0  0  0  0  0999 V2000
   -1.2890   10.8250   -5.0800 N   0  0  0  0  0  0  0  0  0  0  0  0
   -2.2800   11.8850   -5.2190 C   0  0  0  0  0  0  0  0  0  0  0  0
   -1.5520   13.2180   -5.4860 C   0  0  2  0  0  0  0  0  0  0  0  0
   -0.6670   10.4300   -6.3460 C   0  0  0  0  0  0  0  0  0  0  0  0
   -0.6220    8.9340   -6.4630 C   0  0  0  0  0  0  0  0  0  0  0  0
   -1.5210   11.0030   -7.4710 C   0  0  0  0  0  0  0  0  0  0  0  0
    0.1130    8.6350   -7.7790 C   0  0  0  0  0  0  0  0  0  0  0  0
   -1.0280   10.5790   -8.8110 C   0  0  0  0  0  0  0  0  0  0  0  0
   -0.2250   13.1160   -4.7940 C   0  0  0  0  0  0  0  0  0  0  0  0
   -2.2180   14.3010   -4.7710 N   0  0  0  0  0  0  0  0  0  0  0  0
   -0.8020    9.0910   -8.9030 C   0  0  0  0  0  0  0  0  0  0  0  0
   -1.5680   14.3980   -3.4670 C   0  0  2  0  0  0  0  0  0  0  0  0
   -0.7620   13.0760   -3.3850 C   0  0  2  0  0  0  0  0  0  0  0  0
    0.3920   12.7320   -2.2930 S   0  0  0  0  0  0  0  0  0  0  0  0
   -2.5230   14.7130   -2.3940 C   0  0  0  0  0  0  0  0  0  0  0  0
    1.5940   13.1460   -3.1090 O   0  0  0  0  0  0  0  0  0  0  0  0
   -0.5580   12.7690   -1.1200 O   0  0  0  0  0  0  0  0  0  0  0  0
    0.9950   11.6250   -1.7140 O   0  0  0  0  0  0  0  0  0  0  0  0
    0.8940   14.4580   -1.4800 O   0  0  0  0  0  0  0  0  0  0  0  0
   -3.7990   15.1180   -2.7630 C   0  0  0  0  0  0  0  0  0  0  0  0
   -2.2790   14.6560   -1.0350 C   0  0  0  0  0  0  0  0  0  0  0  0
   -4.7710   15.4490   -1.8490 C   0  0  0  0  0  0  0  0  0  0  0  0
   -3.2620   14.9920   -0.1210 C   0  0  0  0  0  0  0  0  0  0  0  0
   -4.5350   15.3990   -0.4970 C   0  0  0  0  0  0  0  0  0  0  0  0
  1  2  1  0
  3  2  1  1
  1  4  1  0
  4  5  1  0
  4  6  1  0
  5  7  1  0
  6  8  1  0
  3  9  1  0
  3 10  1  0
  7 11  1  0
  8 11  1  0
 10 12  1  0
  9 13  1  0
 12 13  1  0
 13 14  1  1
 12 15  1  1
 14 16  1  0
 14 17  1  0
 14 18  1  0
 14 19  2  0
 15 20  2  0
 15 21  1  0
 20 22  1  0
 21 23  2  0
 22 24  2  0
 23 24  1  0
M  END
