diamond-x0766_0_A-mac-x0451
     RDKit          3D

 19 21  0  0  0  0  0  0  0  0999 V2000
    0.6060   12.2720   -2.4160 C   0  0  0  0  0  0  0  0  0  0  0  0
    0.2990   11.1700   -3.1150 O   0  0  0  0  0  0  0  0  0  0  0  0
    0.6220   12.2740   -1.2110 O   0  0  0  0  0  0  0  0  0  0  0  0
    0.9220   13.5190   -3.1610 C   0  0  1  0  0  0  0  0  0  0  0  0
    1.0650   13.4530   -4.6750 C   0  0  0  0  0  0  0  0  0  0  0  0
    0.0040   14.7400   -2.8540 C   0  0  1  0  0  0  0  0  0  0  0  0
    1.1020   14.9390   -4.9770 C   0  0  0  0  0  0  0  0  0  0  0  0
   -0.1130   15.4430   -4.2100 C   0  0  0  0  0  0  0  0  0  0  0  0
   -1.2210   14.6310   -1.9280 C   0  0  0  0  0  0  0  0  0  0  0  0
   -2.5390   14.3650   -2.1350 C   0  0  0  0  0  0  0  0  0  0  0  0
   -0.9590   14.9000   -0.5140 C   0  0  0  0  0  0  0  0  0  0  0  0
   -3.0630   14.1150   -3.3260 F   0  0  0  0  0  0  0  0  0  0  0  0
   -2.0300   14.8850    0.2970 C   0  0  0  0  0  0  0  0  0  0  0  0
   -3.3830   14.4820   -0.6290 S   0  0  1  0  0  0  0  0  0  0  0  0
   -4.6700   15.5870   -0.8120 C   0  0  0  0  0  0  0  0  0  0  0  0
   -4.5100   13.1520    0.4550 S   0  0  0  0  0  0  0  0  0  0  0  0
   -5.8920   14.3220    0.7190 C   0  0  2  0  0  0  0  0  0  0  0  0
   -5.3680   15.6170    0.4590 N   0  0  0  0  0  0  0  0  0  0  0  0
   -6.4230   14.3820    2.0600 N   0  0  0  0  0  0  0  0  0  0  0  0
  1  2  1  0
  1  3  2  0
  4  1  1  6
  4  5  1  0
  4  6  1  0
  5  7  1  0
  6  8  1  0
  7  8  1  0
  6  9  1  6
  9 10  2  0
  9 11  1  0
 10 12  1  0
 11 13  2  0
 14 10  1  0
 14 13  1  1
 14 15  1  0
 14 16  1  0
 16 17  1  0
 15 18  1  0
 17 18  1  0
 17 19  1  1
M  END
