diamond-x0685_0_A-diamond-x0855_0_A
     RDKit          3D

 24 25  0  0  0  0  0  0  0  0999 V2000
   -5.9790   15.0720    2.6200 N   0  0  0  0  0  0  0  0  0  0  0  0
   -7.3350   14.5730    2.8100 C   0  0  0  0  0  0  0  0  0  0  0  0
   -7.4140   13.0540    2.8150 C   0  0  0  0  0  0  0  0  0  0  0  0
   -5.3190   15.0370    1.4040 C   0  0  0  0  0  0  0  0  0  0  0  0
   -3.9410   15.0800    1.3380 C   0  0  0  0  0  0  0  0  0  0  0  0
   -6.0990   14.9770    0.3020 N   0  0  0  0  0  0  0  0  0  0  0  0
   -3.3190   15.0740    0.1070 C   0  0  0  0  0  0  0  0  0  0  0  0
   -5.4700   14.9760   -0.8990 C   0  0  0  0  0  0  0  0  0  0  0  0
   -4.0940   15.0260   -1.0440 C   0  0  0  0  0  0  0  0  0  0  0  0
   -3.4430   15.0330   -2.3060 C   0  0  0  0  0  0  0  0  0  0  0  0
   -2.8080   15.0370   -3.3220 C   0  0  0  0  0  0  0  0  0  0  0  0
   -1.9300   15.0110   -4.4990 C   0  0  0  0  0  0  0  0  0  0  0  0
   -0.4800   14.7980   -4.0320 C   0  0  0  0  0  0  0  0  0  0  0  0
    0.4380   14.0900   -5.0420 C   0  0  0  0  0  0  0  0  0  0  0  0
    0.6760   12.5800   -4.8100 C   0  0  1  0  0  0  0  0  0  0  0  0
    0.9700   12.2680   -3.3470 C   0  0  0  0  0  0  0  0  0  0  0  0
   -0.4020   11.7160   -5.2490 N   0  0  0  0  0  0  0  0  0  0  0  0
    1.5620   13.2320   -2.6100 O   0  0  0  0  0  0  0  0  0  0  0  0
    0.6830   11.1850   -2.8480 O   0  0  0  0  0  0  0  0  0  0  0  0
   -0.3300   10.7300   -6.1860 C   0  0  0  0  0  0  0  0  0  0  0  0
   -1.6370   11.8520   -4.7000 N   0  0  0  0  0  0  0  0  0  0  0  0
   -1.5830   10.1910   -6.2410 C   0  0  0  0  0  0  0  0  0  0  0  0
   -2.3570   10.9060   -5.3190 C   0  0  0  0  0  0  0  0  0  0  0  0
   -2.1750    8.7850   -7.3120 Br  0  0  0  0  0  0  0  0  0  0  0  0
  1  2  1  0
  2  3  1  0
  1  4  1  0
  4  5  2  0
  4  6  1  0
  5  7  1  0
  6  8  2  0
  7  9  2  0
  8  9  1  0
  9 10  1  0
 10 11  3  0
 11 12  1  0
 12 13  1  0
 13 14  1  0
 15 14  1  1
 15 16  1  0
 15 17  1  0
 16 18  1  0
 16 19  2  0
 17 20  1  0
 17 21  1  0
 20 22  2  0
 21 23  2  0
 22 23  1  0
 22 24  1  0
M  END
