diamond-x0628_0_A-diamond-x0689_0_A
     RDKit          3D

 21 22  0  0  0  0  0  0  0  0999 V2000
   -0.8640    8.9900   -7.3000 C   0  0  0  0  0  0  0  0  0  0  0  0
   -0.8280   10.1980   -6.4560 C   0  0  0  0  0  0  0  0  0  0  0  0
   -1.8130   10.5050   -5.5590 N   0  0  0  0  0  0  0  0  0  0  0  0
    0.1730   11.0810   -6.5080 N   0  0  0  0  0  0  0  0  0  0  0  0
   -0.2040   11.9870   -5.5910 N   0  0  0  0  0  0  0  0  0  0  0  0
   -1.4030   11.6390   -5.0190 C   0  0  0  0  0  0  0  0  0  0  0  0
   -2.1100   12.4130   -3.9730 C   0  0  0  0  0  0  0  0  0  0  0  0
    0.6590   13.1370   -5.3480 C   0  0  0  0  0  0  0  0  0  0  0  0
    1.6600   12.9270   -4.2130 C   0  0  0  0  0  0  0  0  0  0  0  0
    0.9280   12.4000   -3.0120 C   0  0  0  0  0  0  0  0  0  0  0  0
    0.8980   11.2270   -2.6570 O   0  0  0  0  0  0  0  0  0  0  0  0
    0.2780   13.4100   -2.4060 O   0  0  0  0  0  0  0  0  0  0  0  0
    0.8570   14.1020   -1.2930 C   0  0  0  0  0  0  0  0  0  0  0  0
   -0.3130   14.3820   -0.4250 C   0  0  0  0  0  0  0  0  0  0  0  0
   -1.5190   14.6410   -1.0030 C   0  0  0  0  0  0  0  0  0  0  0  0
   -0.3280   14.4060    0.9600 C   0  0  0  0  0  0  0  0  0  0  0  0
   -2.6330   14.9100   -0.3180 N   0  0  0  0  0  0  0  0  0  0  0  0
   -1.4180   14.6680    1.6950 N   0  0  0  0  0  0  0  0  0  0  0  0
   -2.5340   14.9180    1.0130 C   0  0  0  0  0  0  0  0  0  0  0  0
   -3.6360   15.2050    1.7690 N   0  0  0  0  0  0  0  0  0  0  0  0
   -4.8750   15.0370    1.0630 C   0  0  0  0  0  0  0  0  0  0  0  0
  1  2  1  0
  2  3  1  0
  2  4  2  0
  4  5  1  0
  3  6  2  0
  5  6  1  0
  6  7  1  0
  5  8  1  0
  8  9  1  0
  9 10  1  0
 10 11  2  0
 10 12  1  0
 12 13  1  0
 13 14  1  0
 14 15  2  0
 14 16  1  0
 15 17  1  0
 16 18  2  0
 17 19  2  0
 18 19  1  0
 19 20  1  0
 20 21  1  0
M  END
