diamond-x0855_0_A-diamond-x0950_1_A
     RDKit          3D

 12 12  0  0  0  0  0  0  0  0999 V2000
    1.4490   12.9820   -2.5910 O   0  0  0  0  0  0  0  0  0  0  0  0
    0.8790   12.0630   -3.4040 C   0  0  0  0  0  0  0  0  0  0  0  0
    0.6780   12.5160   -4.8680 C   0  0  1  0  0  0  0  0  0  0  0  0
    0.5710   10.9750   -2.9410 O   0  0  0  0  0  0  0  0  0  0  0  0
    0.5920   14.0330   -4.9530 C   0  0  0  0  0  0  0  0  0  0  0  0
    1.7590   12.1560   -5.7250 O   0  0  0  0  0  0  0  0  0  0  0  0
   -0.4730   11.7760   -5.3870 N   0  0  0  0  0  0  0  0  0  0  0  0
   -0.4510   10.6310   -6.1240 C   0  0  0  0  0  0  0  0  0  0  0  0
   -1.7320   12.2180   -5.1410 N   0  0  0  0  0  0  0  0  0  0  0  0
   -1.7470   10.3080   -6.3540 C   0  0  0  0  0  0  0  0  0  0  0  0
   -2.5060   11.3030   -5.7410 C   0  0  0  0  0  0  0  0  0  0  0  0
   -2.3980    8.8350   -7.2980 Br  0  0  0  0  0  0  0  0  0  0  0  0
  1  2  1  0
  2  3  1  0
  2  4  2  0
  3  5  1  1
  3  6  1  0
  3  7  1  0
  7  8  1  0
  7  9  1  0
  8 10  2  0
  9 11  2  0
 10 11  1  0
 10 12  1  0
M  END
