diamond-x0796_0_B-diamond-x0737_0_B
     RDKit          3D

 23 25  0  0  0  0  0  0  0  0999 V2000
   12.3440   11.8740   11.7450 N   0  0  0  0  0  0  0  0  0  0  0  0
   11.4770   12.7960   12.6650 S   0  0  0  0  0  0  0  0  0  0  0  0
   10.4200   13.3820   11.8960 O   0  0  0  0  0  0  0  0  0  0  0  0
   13.4830   11.4900   12.1040 C   0  0  0  0  0  0  0  0  0  0  0  0
   11.2230   12.0210   13.8590 O   0  0  0  0  0  0  0  0  0  0  0  0
   14.2330   10.6530   11.3450 N   0  0  0  0  0  0  0  0  0  0  0  0
   14.0810   11.9660   13.5050 C   0  0  1  0  0  0  0  0  0  0  0  0
   15.5310   10.3160   11.6660 C   0  0  0  0  0  0  0  0  0  0  0  0
   15.6180   12.2790   13.2920 C   0  0  1  0  0  0  0  0  0  0  0  0
   13.3330   13.1390   14.0670 N   0  0  0  0  0  0  0  0  0  0  0  0
   13.8220   10.8620   14.5600 C   0  0  0  0  0  0  0  0  0  0  0  0
   15.9750   13.5770   12.4680 C   0  0  0  0  0  0  0  0  0  0  0  0
   16.3090   12.3450   14.6810 C   0  0  0  0  0  0  0  0  0  0  0  0
   16.2650   11.0630   12.5920 C   0  0  0  0  0  0  0  0  0  0  0  0
   12.7620   11.3770   15.5310 C   0  0  0  0  0  0  0  0  0  0  0  0
   12.8210   12.8810   15.4080 C   0  0  0  0  0  0  0  0  0  0  0  0
   16.1020    9.2110   11.0440 C   0  0  0  0  0  0  0  0  0  0  0  0
   15.1980   14.7140   12.6390 N   0  0  0  0  0  0  0  0  0  0  0  0
   16.9520   13.5940   11.7060 O   0  0  0  0  0  0  0  0  0  0  0  0
   17.5850   10.6780   12.8630 C   0  0  0  0  0  0  0  0  0  0  0  0
   17.4070    8.8410   11.3190 C   0  0  0  0  0  0  0  0  0  0  0  0
   15.7810   16.0290   12.4760 C   0  0  0  0  0  0  0  0  0  0  0  0
   18.1500    9.5780   12.2300 C   0  0  0  0  0  0  0  0  0  0  0  0
  1  2  1  0
  2  3  2  0
  1  4  2  3
  2  5  2  0
  4  6  1  0
  7  4  1  0
  6  8  1  0
  7  9  1  0
  7 10  1  0
  7 11  1  1
  9 12  1  0
  9 13  1  1
  8 14  2  0
  9 14  1  0
 11 15  1  0
 10 16  1  0
 15 16  1  0
  8 17  1  0
 12 18  1  0
 12 19  2  0
 14 20  1  0
 17 21  2  0
 18 22  1  0
 20 23  2  0
 21 23  1  0
M  END
