diamond-x0421_0_A-mac-x0255
     RDKit          3D

 26 29  0  0  0  0  0  0  0  0999 V2000
   -3.7420   15.0050   -2.9340 N   0  0  0  0  0  0  0  0  0  0  0  0
   -2.8580   14.9120   -1.8940 C   0  0  0  0  0  0  0  0  0  0  0  0
   -1.5920   14.8360   -2.1640 N   0  0  0  0  0  0  0  0  0  0  0  0
   -3.5140   14.9130   -0.5860 C   0  0  0  0  0  0  0  0  0  0  0  0
   -0.5570   14.7610   -1.1290 C   0  0  0  0  0  0  0  0  0  0  0  0
   -2.9010   15.0640    0.6470 C   0  0  0  0  0  0  0  0  0  0  0  0
   -4.8840   14.7510   -0.3980 N   0  0  0  0  0  0  0  0  0  0  0  0
   -0.0980   13.3270   -0.9240 C   0  0  0  0  0  0  0  0  0  0  0  0
   -3.8980   14.9860    1.5580 N   0  0  0  0  0  0  0  0  0  0  0  0
   -5.0670   14.7970    0.8990 C   0  0  0  0  0  0  0  0  0  0  0  0
    1.0340   13.0090   -1.7540 O   0  0  0  0  0  0  0  0  0  0  0  0
   -6.4290   14.6540    1.6260 C   0  0  0  0  0  0  0  0  0  0  0  0
    0.8100   12.1760   -2.8000 C   0  0  0  0  0  0  0  0  0  0  0  0
   -7.7040   14.6580    0.8300 C   0  0  0  0  0  0  0  0  0  0  0  0
   -7.2140   13.3840    1.4550 C   0  0  0  0  0  0  0  0  0  0  0  0
    0.2890   11.0690   -2.7110 O   0  0  0  0  0  0  0  0  0  0  0  0
    1.2960   12.7670   -4.1070 C   0  0  0  0  0  0  0  0  0  0  0  0
    0.6310   14.0700   -4.4600 C   0  0  0  0  0  0  0  0  0  0  0  0
    1.2050   15.3080   -4.6400 C   0  0  0  0  0  0  0  0  0  0  0  0
   -1.0600   14.1350   -4.7010 S   0  0  0  0  0  0  0  0  0  0  0  0
    0.2600   16.3280   -4.9890 C   0  0  0  0  0  0  0  0  0  0  0  0
   -1.0390   15.8160   -5.0560 C   0  0  0  0  0  0  0  0  0  0  0  0
    0.4520   17.6980   -5.2630 C   0  0  0  0  0  0  0  0  0  0  0  0
   -2.1400   16.6350   -5.3860 C   0  0  0  0  0  0  0  0  0  0  0  0
   -0.6330   18.5070   -5.5940 C   0  0  0  0  0  0  0  0  0  0  0  0
   -1.9100   17.9850   -5.6560 C   0  0  0  0  0  0  0  0  0  0  0  0
  1  2  1  0
  2  3  2  3
  2  4  1  0
  3  5  1  0
  4  6  2  0
  4  7  1  0
  5  8  1  0
  6  9  1  0
  7 10  2  0
  9 10  1  0
  8 11  1  0
 10 12  1  0
 11 13  1  0
 12 14  1  0
 12 15  1  0
 14 15  1  0
 13 16  2  0
 13 17  1  0
 17 18  1  0
 18 19  2  0
 18 20  1  0
 19 21  1  0
 20 22  1  0
 21 22  2  0
 21 23  1  0
 22 24  1  0
 23 25  2  0
 24 26  2  0
 25 26  1  0
M  END
