diamond-x0158_0_B-diamond-x0423_0_B
     RDKit          3D

 30 32  0  0  0  0  0  0  0  0999 V2000
   17.8060   17.5110   11.3380 C   0  0  0  0  0  0  0  0  0  0  0  0
   16.5900   17.3360   12.2380 C   0  0  2  0  0  0  0  0  0  0  0  0
   15.9320   16.0580   12.0290 O   0  0  0  0  0  0  0  0  0  0  0  0
   15.6020   18.4720   11.9850 C   0  0  0  0  0  0  0  0  0  0  0  0
   15.8520   15.2110   13.1070 C   0  0  0  0  0  0  0  0  0  0  0  0
   14.6280   18.7180   13.1360 C   0  0  0  0  0  0  0  0  0  0  0  0
   15.8410   15.5920   14.2680 O   0  0  0  0  0  0  0  0  0  0  0  0
   15.7890   13.7160   12.7320 C   0  0  0  0  0  0  0  0  0  0  0  0
   13.4690   19.5080   12.6870 N   0  0  0  0  0  0  0  0  0  0  0  0
   14.5020   13.0320   13.0660 N   0  0  0  0  0  0  0  0  0  0  0  0
   12.2600   19.2820   13.3080 C   0  0  0  0  0  0  0  0  0  0  0  0
   13.7520   20.8780   12.3330 N   0  0  0  0  0  0  0  0  0  0  0  0
   14.3010   11.7530   12.3680 C   0  0  0  0  0  0  0  0  0  0  0  0
   13.3970   13.9290   12.8000 C   0  0  0  0  0  0  0  0  0  0  0  0
   11.8160   20.0810   14.2510 C   0  0  0  0  0  0  0  0  0  0  0  0
   13.1720   21.8710   13.2780 C   0  0  2  0  0  0  0  0  0  0  0  0
   13.2360   10.8480   12.9680 C   0  0  0  0  0  0  0  0  0  0  0  0
   12.0890   13.4970   13.4180 C   0  0  0  0  0  0  0  0  0  0  0  0
   14.0990   22.9720   13.5050 N   0  0  0  0  0  0  0  0  0  0  0  0
   12.6640   21.2460   14.5930 C   0  0  0  0  0  0  0  0  0  0  0  0
   11.7660   11.7280   13.4790 S   0  0  0  0  0  0  0  0  0  0  0  0
   13.4620   24.1340   14.1300 C   0  0  0  0  0  0  0  0  0  0  0  0
   14.9100   23.3250   12.3490 C   0  0  0  0  0  0  0  0  0  0  0  0
   11.5440   11.3700   14.8700 O   0  0  0  0  0  0  0  0  0  0  0  0
   10.6940   11.4400   12.5430 O   0  0  0  0  0  0  0  0  0  0  0  0
   14.4110   25.3620   14.2240 C   0  0  1  0  0  0  0  0  0  0  0  0
   16.0940   24.1970   12.7870 C   0  0  0  0  0  0  0  0  0  0  0  0
   14.2420   26.1970   15.4120 N   0  0  0  0  0  0  0  0  0  0  0  0
   15.8580   24.8800   14.1330 C   0  0  0  0  0  0  0  0  0  0  0  0
   12.9420   26.8420   15.4610 C   0  0  0  0  0  0  0  0  0  0  0  0
  2  1  1  6
  2  3  1  0
  2  4  1  0
  3  5  1  0
  4  6  1  0
  5  7  2  0
  5  8  1  0
  6  9  1  0
  8 10  1  0
  9 11  1  0
  9 12  1  0
 10 13  1  0
 10 14  1  0
 11 15  2  0
 12 16  1  0
 13 17  1  0
 14 18  1  0
 16 19  1  1
 15 20  1  0
 16 20  1  0
 21 17  1  0
 18 21  1  0
 19 22  1  0
 19 23  1  0
 21 24  2  0
 21 25  2  0
 22 26  1  0
 23 27  1  0
 26 28  1  1
 26 29  1  0
 27 29  1  0
 28 30  1  0
M  END
