diamond-x0727_0_A-mac-x0271
     RDKit          3D

 28 30  0  0  0  0  0  0  0  0999 V2000
    0.1530   11.4520   -5.6010 N   0  0  0  0  0  0  0  0  0  0  0  0
    0.9040   12.3750   -4.7430 C   0  0  1  0  0  0  0  0  0  0  0  0
    0.4420   13.8190   -4.9710 C   0  0  0  0  0  0  0  0  0  0  0  0
    0.7030   11.1030   -6.8020 C   0  0  0  0  0  0  0  0  0  0  0  0
    1.6560   11.7000   -7.2190 O   0  0  0  0  0  0  0  0  0  0  0  0
    0.7030   11.9000   -3.2990 C   0  0  0  0  0  0  0  0  0  0  0  0
    0.0690    9.9230   -7.5230 C   0  0  0  0  0  0  0  0  0  0  0  0
    0.0760   10.9040   -2.9620 O   0  0  0  0  0  0  0  0  0  0  0  0
    1.2850   12.6760   -2.3690 O   0  0  0  0  0  0  0  0  0  0  0  0
   -1.0860   13.9350   -4.9670 C   0  0  0  0  0  0  0  0  0  0  0  0
   -1.2490   10.2930   -8.2190 C   0  0  0  0  0  0  0  0  0  0  0  0
   -0.2570    8.7410   -6.5910 C   0  0  0  0  0  0  0  0  0  0  0  0
   -1.6080   15.1020   -4.1250 C   0  0  0  0  0  0  0  0  0  0  0  0
   -2.1390    9.0700   -8.0500 C   0  0  0  0  0  0  0  0  0  0  0  0
   -1.7570    8.5230   -6.6830 C   0  0  0  0  0  0  0  0  0  0  0  0
   -2.4480   14.6610   -2.9230 C   0  0  0  0  0  0  0  0  0  0  0  0
   -3.6680   15.4030   -2.9370 O   0  0  0  0  0  0  0  0  0  0  0  0
   -4.3580   15.2530   -1.7660 C   0  0  0  0  0  0  0  0  0  0  0  0
   -5.7450   15.1780   -1.8180 C   0  0  0  0  0  0  0  0  0  0  0  0
   -3.6820   15.1780   -0.5420 C   0  0  0  0  0  0  0  0  0  0  0  0
   -6.4510   15.0310   -0.6270 C   0  0  0  0  0  0  0  0  0  0  0  0
   -4.4040   15.0330    0.6480 C   0  0  0  0  0  0  0  0  0  0  0  0
   -5.8030   14.9580    0.6060 C   0  0  0  0  0  0  0  0  0  0  0  0
   -7.8600   14.9580   -0.7070 O   0  0  0  0  0  0  0  0  0  0  0  0
   -6.6180   14.8090    1.8070 C   0  0  0  0  0  0  0  0  0  0  0  0
   -8.6470   14.9000    0.4390 C   0  0  0  0  0  0  0  0  0  0  0  0
   -9.8710   14.9490    0.4140 O   0  0  0  0  0  0  0  0  0  0  0  0
   -7.9470   14.7790    1.7210 C   0  0  0  0  0  0  0  0  0  0  0  0
  1  2  1  0
  2  3  1  1
  1  4  1  0
  4  5  2  0
  2  6  1  0
  4  7  1  0
  6  8  2  0
  6  9  1  0
  3 10  1  0
  7 11  1  0
  7 12  1  0
 10 13  1  0
 11 14  1  0
 12 15  1  0
 14 15  1  0
 13 16  1  0
 16 17  1  0
 17 18  1  0
 18 19  2  0
 18 20  1  0
 19 21  1  0
 20 22  2  0
 21 23  2  0
 22 23  1  0
 21 24  1  0
 23 25  1  0
 24 26  1  0
 26 27  2  0
 25 28  2  0
 26 28  1  0
M  END
