diamond-x0855_0_A-mac-x0358
     RDKit          3D

 17 18  0  0  0  0  0  0  0  0999 V2000
    1.2710   13.4600   -2.4310 O   0  0  0  0  0  0  0  0  0  0  0  0
    1.1000   12.5920   -3.4540 C   0  0  0  0  0  0  0  0  0  0  0  0
   -0.3230   12.4760   -3.8820 C   0  0  2  0  0  0  0  0  0  0  0  0
    2.0540   12.0050   -3.8790 O   0  0  0  0  0  0  0  0  0  0  0  0
   -0.7330   11.3310   -4.6540 N   0  0  0  0  0  0  0  0  0  0  0  0
   -1.1350   13.5540   -4.5370 C   0  0  0  0  0  0  0  0  0  0  0  0
   -0.2910   10.8070   -5.8430 C   0  0  0  0  0  0  0  0  0  0  0  0
   -1.7690   10.6540   -4.1210 N   0  0  0  0  0  0  0  0  0  0  0  0
   -2.1870   13.1170   -5.3430 C   0  0  0  0  0  0  0  0  0  0  0  0
   -0.9340   14.9280   -4.3870 C   0  0  0  0  0  0  0  0  0  0  0  0
   -2.3850   11.7790   -5.4990 O   0  0  0  0  0  0  0  0  0  0  0  0
   -1.1180    9.7320   -6.0650 C   0  0  0  0  0  0  0  0  0  0  0  0
   -1.9960    9.6850   -4.9870 C   0  0  0  0  0  0  0  0  0  0  0  0
   -3.0390   13.9890   -5.9840 C   0  0  0  0  0  0  0  0  0  0  0  0
   -1.7970   15.8210   -5.0350 C   0  0  0  0  0  0  0  0  0  0  0  0
   -1.1530    8.5230   -7.4790 Br  0  0  0  0  0  0  0  0  0  0  0  0
   -2.8490   15.3490   -5.8290 C   0  0  0  0  0  0  0  0  0  0  0  0
  1  2  1  0
  3  2  1  6
  2  4  2  0
  3  5  1  0
  3  6  1  0
  5  7  1  0
  5  8  1  0
  6  9  2  0
  6 10  1  0
  9 11  1  0
  7 12  2  0
  8 13  2  0
 12 13  1  0
  9 14  1  0
 10 15  2  0
 12 16  1  0
 14 17  2  0
 15 17  1  0
M  END
