diamond-x0905_0_A-mac-x0204
     RDKit          3D

 19 20  0  0  0  0  0  0  0  0999 V2000
   -6.9690   14.9220   -0.8260 O   0  0  0  0  0  0  0  0  0  0  0  0
   -5.6650   15.0940   -0.4950 C   0  0  0  0  0  0  0  0  0  0  0  0
   -5.4480   15.1190    0.8260 N   0  0  0  0  0  0  0  0  0  0  0  0
   -4.6950   15.2260   -1.4620 C   0  0  0  0  0  0  0  0  0  0  0  0
   -4.1680   15.2920    1.2120 C   0  0  0  0  0  0  0  0  0  0  0  0
   -3.3740   15.3970   -1.0310 C   0  0  0  0  0  0  0  0  0  0  0  0
   -2.2570   15.5360   -2.0050 C   0  0  0  0  0  0  0  0  0  0  0  0
   -3.1130   15.4330    0.3350 C   0  0  0  0  0  0  0  0  0  0  0  0
   -0.8470   15.1460   -1.5040 C   0  0  0  0  0  0  0  0  0  0  0  0
   -0.0680   14.4040   -2.5980 C   0  0  0  0  0  0  0  0  0  0  0  0
    0.4160   13.1600   -2.0980 O   0  0  0  0  0  0  0  0  0  0  0  0
    1.0800   15.1460   -2.9490 O   0  0  0  0  0  0  0  0  0  0  0  0
   -1.0220   14.1940   -3.7420 C   0  0  0  0  0  0  0  0  0  0  0  0
   -1.5360   15.3090   -4.4230 C   0  0  0  0  0  0  0  0  0  0  0  0
   -1.4550   12.9400   -4.1720 C   0  0  0  0  0  0  0  0  0  0  0  0
   -2.4310   15.1400   -5.4570 C   0  0  0  0  0  0  0  0  0  0  0  0
   -2.3310   12.7450   -5.1900 N   0  0  0  0  0  0  0  0  0  0  0  0
   -2.9090   16.2540   -6.0860 O   0  0  0  0  0  0  0  0  0  0  0  0
   -2.8010   13.8510   -5.8090 C   0  0  0  0  0  0  0  0  0  0  0  0
  1  2  1  0
  2  3  2  0
  2  4  1  0
  3  5  1  0
  4  6  2  0
  6  7  1  0
  5  8  2  0
  6  8  1  0
  7  9  1  0
  9 10  1  0
 10 11  1  0
 10 12  1  0
 10 13  1  0
 13 14  2  0
 13 15  1  0
 14 16  1  0
 15 17  2  0
 16 18  1  0
 16 19  2  0
 17 19  1  0
M  END
