diamond-x0631_0_A-diamond-x1012_0_A
     RDKit          3D

 31 33  0  0  0  0  0  0  0  0999 V2000
   -2.9780    8.5070   -7.9840 C   0  0  0  0  0  0  0  0  0  0  0  0
   -1.6020    8.0760   -7.5290 C   0  0  0  0  0  0  0  0  0  0  0  0
   -0.8110    9.2350   -6.9180 C   0  0  1  0  0  0  0  0  0  0  0  0
   -0.8370    9.0630   -5.3670 C   0  0  0  0  0  0  0  0  0  0  0  0
    0.5310    9.5530   -7.4460 N   0  0  0  0  0  0  0  0  0  0  0  0
   -0.2730   10.2080   -4.5010 C   0  0  0  0  0  0  0  0  0  0  0  0
    0.8030   10.9370   -7.3140 N   0  0  0  0  0  0  0  0  0  0  0  0
    0.8220    9.1500   -8.8060 N   0  0  0  0  0  0  0  0  0  0  0  0
   -1.2250   10.9520   -3.5820 C   0  0  0  0  0  0  0  0  0  0  0  0
    1.1400   11.3930   -8.6340 N   0  0  0  0  0  0  0  0  0  0  0  0
    0.7080   10.3880   -9.5590 C   0  0  1  0  0  0  0  0  0  0  0  0
    1.3670   10.5530  -10.8420 N   0  0  0  0  0  0  0  0  0  0  0  0
   -0.5070   11.3850   -2.4000 O   0  0  0  0  0  0  0  0  0  0  0  0
    2.1320    9.5810  -11.6210 C   0  0  2  0  0  0  0  0  0  0  0  0
    0.3210   12.4750   -2.4960 C   0  0  0  0  0  0  0  0  0  0  0  0
    2.8190    8.6420  -10.7910 O   0  0  0  0  0  0  0  0  0  0  0  0
    1.2340   12.7080   -1.7240 O   0  0  0  0  0  0  0  0  0  0  0  0
    3.0880   10.1220  -12.7260 C   0  0  1  0  0  0  0  0  0  0  0  0
    0.0260   13.4190   -3.6470 C   0  0  0  0  0  0  0  0  0  0  0  0
    3.2030    9.2760  -13.8740 O   0  0  0  0  0  0  0  0  0  0  0  0
    2.7040   11.4630  -13.3330 C   0  0  0  0  0  0  0  0  0  0  0  0
   -1.3980   13.9600   -3.5230 C   0  0  0  0  0  0  0  0  0  0  0  0
    1.0500   14.5560   -3.8020 C   0  0  0  0  0  0  0  0  0  0  0  0
    3.5800   11.5070  -14.5660 C   0  0  0  0  0  0  0  0  0  0  0  0
    4.0590   10.0700  -14.7100 C   0  0  0  0  0  0  0  0  0  0  0  0
   -1.7510   14.8310   -4.7170 C   0  0  0  0  0  0  0  0  0  0  0  0
    0.6550   15.5710   -4.8720 C   0  0  0  0  0  0  0  0  0  0  0  0
   -0.7740   15.9110   -4.8900 N   0  0  0  0  0  0  0  0  0  0  0  0
   -1.2410   17.2030   -4.7970 C   0  0  0  0  0  0  0  0  0  0  0  0
   -0.3090   18.1760   -4.7020 N   0  0  0  0  0  0  0  0  0  0  0  0
   -2.4210   17.5070   -4.7800 O   0  0  0  0  0  0  0  0  0  0  0  0
  1  2  1  0
  3  2  1  6
  3  4  1  0
  3  5  1  0
  4  6  1  0
  5  7  1  0
  5  8  1  0
  6  9  1  0
  7 10  1  0
  8 11  1  0
 10 11  1  0
 11 12  1  6
  9 13  1  0
 12 14  1  0
 13 15  1  0
 14 16  1  1
 15 17  2  0
 14 18  1  0
 15 19  1  0
 18 20  1  0
 18 21  1  6
 19 22  1  0
 19 23  1  0
 21 24  1  0
 20 25  1  0
 24 25  1  0
 22 26  1  0
 23 27  1  0
 26 28  1  0
 27 28  1  0
 28 29  1  0
 29 30  1  0
 29 31  2  0
M  END
