diamond-x0626_0_A-mac-x0472
     RDKit          3D

 20 21  0  0  0  0  0  0  0  0999 V2000
   -4.8880   14.5120    1.1270 N   0  0  0  0  0  0  0  0  0  0  0  0
   -6.1210   14.6760    0.5360 C   0  0  0  0  0  0  0  0  0  0  0  0
   -6.2860   15.0590   -0.6130 O   0  0  0  0  0  0  0  0  0  0  0  0
   -3.6590   14.6150    0.5610 C   0  0  0  0  0  0  0  0  0  0  0  0
   -7.2530   14.3340    1.4860 C   0  0  0  0  0  0  0  0  0  0  0  0
   -2.6750   14.2770    1.3330 N   0  0  0  0  0  0  0  0  0  0  0  0
   -3.2800   15.1260   -0.8160 C   0  0  1  0  0  0  0  0  0  0  0  0
   -8.6130   14.6460    0.8870 C   0  0  0  0  0  0  0  0  0  0  0  0
   -1.7990   14.8800   -0.6420 C   0  0  0  0  0  0  0  0  0  0  0  0
   -1.5500   14.4430    0.5880 C   0  0  0  0  0  0  0  0  0  0  0  0
   -3.7590   14.3760   -2.3620 S   0  0  0  0  0  0  0  0  0  0  0  0
   -0.2240   14.1310    1.1720 C   0  0  0  0  0  0  0  0  0  0  0  0
   -4.8980   15.1200   -2.8520 O   0  0  0  0  0  0  0  0  0  0  0  0
   -2.5910   14.3140   -3.2350 O   0  0  0  0  0  0  0  0  0  0  0  0
   -4.3270   12.7080   -2.1860 C   0  0  0  0  0  0  0  0  0  0  0  0
   -3.5280   11.6480   -2.6240 C   0  0  0  0  0  0  0  0  0  0  0  0
   -5.5800   12.4790   -1.6200 C   0  0  0  0  0  0  0  0  0  0  0  0
   -4.0000   10.3450   -2.4990 C   0  0  0  0  0  0  0  0  0  0  0  0
   -6.0430   11.1760   -1.4960 C   0  0  0  0  0  0  0  0  0  0  0  0
   -5.2590   10.1140   -1.9370 C   0  0  0  0  0  0  0  0  0  0  0  0
  1  2  1  0
  2  3  2  0
  1  4  1  0
  2  5  1  0
  4  6  2  0
  4  7  1  0
  5  8  1  0
  7  9  1  0
  6 10  1  0
  9 10  2  0
  7 11  1  6
 10 12  1  0
 11 13  2  0
 11 14  2  0
 11 15  1  0
 15 16  2  0
 15 17  1  0
 16 18  1  0
 17 19  2  0
 18 20  2  0
 19 20  1  0
M  END
