diamond-x0969_0_A-mac-x0496
     RDKit          3D

 22 25  0  0  0  0  0  0  0  0999 V2000
   -7.1460   14.4140    1.4400 N   0  0  0  0  0  0  0  0  0  0  0  0
   -8.3320   13.9770    2.1490 C   0  0  0  0  0  0  0  0  0  0  0  0
   -9.1310   15.1340    2.6520 C   0  0  0  0  0  0  0  0  0  0  0  0
   -5.9320   13.7060    1.4290 C   0  0  0  0  0  0  0  0  0  0  0  0
   -7.1740   14.9440    0.2070 C   0  0  0  0  0  0  0  0  0  0  0  0
   -5.6770   12.7640    2.0550 O   0  0  0  0  0  0  0  0  0  0  0  0
   -7.9740   15.5230   -0.6160 N   0  0  0  0  0  0  0  0  0  0  0  0
   -5.9660   14.8510   -0.3530 N   0  0  0  0  0  0  0  0  0  0  0  0
   -5.0340   14.2400    0.3580 C   0  0  0  0  0  0  0  0  0  0  0  0
   -7.1760   15.8350   -1.7530 N   0  0  0  0  0  0  0  0  0  0  0  0
   -5.9470   15.4190   -1.5340 C   0  0  0  0  0  0  0  0  0  0  0  0
   -3.7570   14.2830   -0.0920 C   0  0  0  0  0  0  0  0  0  0  0  0
  -10.2570   15.5080    1.9620 O   0  0  0  0  0  0  0  0  0  0  0  0
   -8.9100   15.8800    3.7060 N   0  0  0  0  0  0  0  0  0  0  0  0
   -4.6750   15.3960   -2.1310 C   0  0  0  0  0  0  0  0  0  0  0  0
   -3.6170   14.8940   -1.4590 C   0  0  0  0  0  0  0  0  0  0  0  0
   -9.9460   16.7670    3.6770 C   0  0  0  0  0  0  0  0  0  0  0  0
  -10.7970   16.5970    2.6560 N   0  0  0  0  0  0  0  0  0  0  0  0
  -10.1040   17.8210    4.7020 C   0  0  0  0  0  0  0  0  0  0  0  0
   -2.3850   14.9360   -2.2700 C   0  0  0  0  0  0  0  0  0  0  0  0
   -1.2460   14.7410   -1.9120 O   0  0  0  0  0  0  0  0  0  0  0  0
   -2.6690   15.2270   -3.5530 O   0  0  0  0  0  0  0  0  0  0  0  0
  1  2  1  0
  2  3  1  0
  1  4  1  0
  1  5  1  0
  4  6  2  0
  5  7  2  0
  5  8  1  0
  4  9  1  0
  8  9  1  0
  7 10  1  0
  8 11  1  0
 10 11  2  0
  9 12  2  0
  3 13  1  0
  3 14  2  0
 11 15  1  0
 12 16  1  0
 15 16  2  0
 14 17  1  0
 13 18  1  0
 17 18  2  0
 17 19  1  0
 16 20  1  0
 20 21  2  0
 20 22  1  0
M  END
