diamond-x0852_0_B-mac-x0433
     RDKit          3D

 21 22  0  0  0  0  0  0  0  0999 V2000
   -9.6940   17.8480    7.2600 N   0  0  0  0  0  0  0  0  0  0  0  0
   -9.4490   17.3080    6.2590 C   0  0  0  0  0  0  0  0  0  0  0  0
   -9.2020   16.5760    5.0540 C   0  0  0  0  0  0  0  0  0  0  0  0
   -8.2570   15.5380    5.0110 C   0  0  0  0  0  0  0  0  0  0  0  0
   -9.9290   16.9040    3.8980 C   0  0  0  0  0  0  0  0  0  0  0  0
   -7.5370   15.2070    6.1280 O   0  0  0  0  0  0  0  0  0  0  0  0
   -8.0510   14.8370    3.8340 C   0  0  0  0  0  0  0  0  0  0  0  0
   -9.7200   16.1970    2.7150 C   0  0  0  0  0  0  0  0  0  0  0  0
  -10.4630   16.5580    1.6260 O   0  0  0  0  0  0  0  0  0  0  0  0
   -8.7810   15.1670    2.6990 C   0  0  0  0  0  0  0  0  0  0  0  0
  -10.5240   15.5340    0.6310 C   0  0  0  0  0  0  0  0  0  0  0  0
   -9.1940   15.4660   -0.1100 C   0  0  0  0  0  0  0  0  0  0  0  0
   -8.0870   14.6920    0.6230 C   0  0  0  0  0  0  0  0  0  0  0  0
   -6.7600   14.8340   -0.0520 C   0  0  0  0  0  0  0  0  0  0  0  0
   -6.7940   14.8620   -1.3790 N   0  0  0  0  0  0  0  0  0  0  0  0
   -5.5830   14.9370    0.6650 C   0  0  0  0  0  0  0  0  0  0  0  0
   -4.4300   15.0760   -0.0810 C   0  0  0  0  0  0  0  0  0  0  0  0
   -5.6510   14.9930   -2.0170 C   0  0  0  0  0  0  0  0  0  0  0  0
   -3.1130   15.2000    0.6180 C   0  0  0  0  0  0  0  0  0  0  0  0
   -5.7430   15.0050   -3.3870 N   0  0  0  0  0  0  0  0  0  0  0  0
   -4.4530   15.1040   -1.4350 N   0  0  0  0  0  0  0  0  0  0  0  0
  1  2  3  0
  2  3  1  0
  3  4  2  0
  3  5  1  0
  4  6  1  0
  4  7  1  0
  5  8  2  0
  8  9  1  0
  7 10  2  0
  8 10  1  0
  9 11  1  0
 11 12  1  0
 12 13  1  0
 13 14  1  0
 14 15  2  0
 14 16  1  0
 16 17  2  0
 15 18  1  0
 17 19  1  0
 18 20  1  0
 17 21  1  0
 18 21  2  0
M  END
