diamond-x0253_0_A-mac-x0283
     RDKit          3D

 27 29  0  0  0  0  0  0  0  0999 V2000
    0.4590   11.9380   -5.3700 N   0  0  0  0  0  0  0  0  0  0  0  0
    1.1050   11.6670   -6.5450 C   0  0  0  0  0  0  0  0  0  0  0  0
    2.1980   12.1650   -6.7080 O   0  0  0  0  0  0  0  0  0  0  0  0
    1.2590   12.5710   -4.3290 C   0  0  0  0  0  0  0  0  0  0  0  0
    0.6580   12.4520   -2.9450 C   0  0  0  0  0  0  0  0  0  0  0  0
    0.4720   10.7450   -7.5370 C   0  0  0  0  0  0  0  0  0  0  0  0
    0.6800   13.4850   -2.1830 N   0  0  0  0  0  0  0  0  0  0  0  0
    0.1150   11.2600   -2.6110 O   0  0  0  0  0  0  0  0  0  0  0  0
   -0.5090    9.8280   -7.1350 C   0  0  0  0  0  0  0  0  0  0  0  0
    0.8540   10.7790   -8.8870 C   0  0  0  0  0  0  0  0  0  0  0  0
    0.0570   13.4290   -0.8620 C   0  0  0  0  0  0  0  0  0  0  0  0
   -1.1010    8.9640   -8.0660 C   0  0  0  0  0  0  0  0  0  0  0  0
    0.2720    9.9240   -9.8130 C   0  0  0  0  0  0  0  0  0  0  0  0
   -2.1530    7.9930   -7.6140 C   0  0  0  0  0  0  0  0  0  0  0  0
   -0.5650   14.7990   -0.6230 C   0  0  0  0  0  0  0  0  0  0  0  0
   -0.7040    9.0180   -9.4070 C   0  0  0  0  0  0  0  0  0  0  0  0
   -1.6080   14.8210    0.4980 C   0  0  0  0  0  0  0  0  0  0  0  0
   -3.0430   14.8970   -0.0080 C   0  0  0  0  0  0  0  0  0  0  0  0
   -3.3710   15.0850   -1.3690 C   0  0  0  0  0  0  0  0  0  0  0  0
   -4.0690   14.7680    0.9360 C   0  0  0  0  0  0  0  0  0  0  0  0
   -5.4110   14.8120    0.5200 C   0  0  0  0  0  0  0  0  0  0  0  0
   -4.7070   15.1390   -1.8040 C   0  0  0  0  0  0  0  0  0  0  0  0
   -6.6950   14.7170    1.1170 C   0  0  0  0  0  0  0  0  0  0  0  0
   -5.6820   14.9930   -0.8210 C   0  0  0  0  0  0  0  0  0  0  0  0
   -6.9040   14.5450    2.4370 N   0  0  0  0  0  0  0  0  0  0  0  0
   -7.6720   14.8250    0.2120 N   0  0  0  0  0  0  0  0  0  0  0  0
   -7.0320   15.0010   -1.0050 O   0  0  0  0  0  0  0  0  0  0  0  0
  1  2  1  0
  2  3  2  0
  1  4  1  0
  4  5  1  0
  2  6  1  0
  5  7  2  3
  5  8  1  0
  6  9  2  0
  6 10  1  0
  7 11  1  0
  9 12  1  0
 10 13  2  0
 12 14  1  0
 11 15  1  0
 12 16  2  0
 13 16  1  0
 15 17  1  0
 17 18  1  0
 18 19  2  0
 18 20  1  0
 20 21  2  0
 19 22  1  0
 21 23  1  0
 21 24  1  0
 22 24  2  0
 23 25  1  0
 23 26  2  0
 24 27  1  0
 26 27  1  0
M  END
