diamond-x0967_0_A-mac-x0139
     RDKit          3D

 22 24  0  0  0  0  0  0  0  0999 V2000
   -2.2950   15.2120   -3.4230 C   0  0  0  0  0  0  0  0  0  0  0  0
   -1.3080   14.5640   -2.5590 N   0  0  0  0  0  0  0  0  0  0  0  0
    0.0500   14.7230   -3.1100 C   0  0  0  0  0  0  0  0  0  0  0  0
   -1.4680   14.9460   -1.1460 C   0  0  1  0  0  0  0  0  0  0  0  0
    0.4990   13.4800   -3.8840 C   0  0  0  0  0  0  0  0  0  0  0  0
   -2.9140   15.0380   -0.5080 C   0  0  1  0  0  0  0  0  0  0  0  0
   -0.4940   14.2200   -0.3330 N   0  0  0  0  0  0  0  0  0  0  0  0
    1.1160   12.4540   -2.9820 C   0  0  0  0  0  0  0  0  0  0  0  0
   -3.9750   15.7330   -1.4000 C   0  0  0  0  0  0  0  0  0  0  0  0
   -3.6330   13.8140    0.1580 C   0  0  0  0  0  0  0  0  0  0  0  0
   -2.5300   15.8350    0.7120 C   0  0  0  0  0  0  0  0  0  0  0  0
   -0.3430   14.7360    0.9970 C   0  0  0  0  0  0  0  0  0  0  0  0
    2.0010   12.6300   -2.1770 O   0  0  0  0  0  0  0  0  0  0  0  0
    0.5810   11.2230   -3.1250 O   0  0  0  0  0  0  0  0  0  0  0  0
   -5.1170   14.0740    0.3390 C   0  0  0  0  0  0  0  0  0  0  0  0
   -5.0680   14.8940   -1.8070 N   0  0  0  0  0  0  0  0  0  0  0  0
   -1.6340   15.0610    1.5720 N   0  0  0  0  0  0  0  0  0  0  0  0
   -5.8090   14.6210   -0.7040 C   0  0  0  0  0  0  0  0  0  0  0  0
   -5.8170   13.7940    1.5000 C   0  0  0  0  0  0  0  0  0  0  0  0
   -7.1220   14.8990   -0.6870 N   0  0  0  0  0  0  0  0  0  0  0  0
   -7.1790   14.0700    1.5720 C   0  0  0  0  0  0  0  0  0  0  0  0
   -7.7840   14.6180    0.4540 C   0  0  0  0  0  0  0  0  0  0  0  0
  1  2  1  0
  2  3  1  0
  4  2  1  6
  3  5  1  0
  4  6  1  0
  4  7  1  0
  5  8  1  0
  6  9  1  6
  6 10  1  0
  6 11  1  0
  7 12  1  0
  8 13  2  0
  8 14  1  0
 10 15  1  0
  9 16  1  0
 11 17  1  0
 12 17  1  0
 15 18  2  0
 16 18  1  0
 15 19  1  0
 18 20  1  0
 19 21  2  0
 20 22  2  0
 21 22  1  0
M  END
