diamond-x0711_0_A-mac-x0345
     RDKit          3D

 15 15  0  0  0  0  0  0  0  0999 V2000
   -1.3910   15.0250   -2.3670 N   0  0  0  0  0  0  0  0  0  0  0  0
   -0.4930   13.8160   -3.0900 S   0  0  0  0  0  0  0  0  0  0  0  0
   -1.7030   12.8470   -3.9640 C   0  0  0  0  0  0  0  0  0  0  0  0
   -2.6730   14.9170   -1.7500 C   0  0  0  0  0  0  0  0  0  0  0  0
    0.3010   14.5120   -4.0810 O   0  0  0  0  0  0  0  0  0  0  0  0
    0.1340   13.0160   -2.0680 O   0  0  0  0  0  0  0  0  0  0  0  0
   -3.8580   15.1290   -2.4480 C   0  0  0  0  0  0  0  0  0  0  0  0
   -2.7280   14.6010   -0.3860 C   0  0  0  0  0  0  0  0  0  0  0  0
   -5.1000   15.0360   -1.8160 C   0  0  0  0  0  0  0  0  0  0  0  0
   -3.9580   14.5020    0.2680 C   0  0  0  0  0  0  0  0  0  0  0  0
   -6.2300   15.2700   -2.6150 N   0  0  0  0  0  0  0  0  0  0  0  0
   -5.1520   14.7170   -0.4350 C   0  0  0  0  0  0  0  0  0  0  0  0
   -6.4600   14.6080    0.2880 C   0  0  0  0  0  0  0  0  0  0  0  0
   -6.4530   14.6640    1.6620 N   0  0  0  0  0  0  0  0  0  0  0  0
   -7.5200   14.4770   -0.3150 O   0  0  0  0  0  0  0  0  0  0  0  0
  2  1  1  0
  2  3  1  0
  1  4  1  0
  2  5  2  0
  2  6  2  0
  4  7  2  0
  4  8  1  0
  7  9  1  0
  8 10  2  0
  9 11  1  0
  9 12  2  0
 10 12  1  0
 12 13  1  0
 13 14  1  0
 13 15  2  0
M  END
