diamond-x0421_0_A-mac-x0306
     RDKit          3D

 11 12  0  0  0  0  0  0  0  0999 V2000
   -3.7690   15.1300   -2.8550 N   0  0  0  0  0  0  0  0  0  0  0  0
   -2.8910   14.9170   -1.8350 C   0  0  0  0  0  0  0  0  0  0  0  0
   -1.6910   14.7550   -2.0330 O   0  0  0  0  0  0  0  0  0  0  0  0
   -3.5150   14.9010   -0.5140 C   0  0  0  0  0  0  0  0  0  0  0  0
   -2.8770   15.0290    0.7070 C   0  0  0  0  0  0  0  0  0  0  0  0
   -4.8820   14.7440   -0.3230 N   0  0  0  0  0  0  0  0  0  0  0  0
   -3.8640   14.9460    1.6380 N   0  0  0  0  0  0  0  0  0  0  0  0
   -5.0430   14.7730    0.9820 C   0  0  0  0  0  0  0  0  0  0  0  0
   -6.4020   14.6310    1.7100 C   0  0  0  0  0  0  0  0  0  0  0  0
   -7.6850   14.6530    0.9220 C   0  0  0  0  0  0  0  0  0  0  0  0
   -7.1890   13.3670    1.5190 C   0  0  0  0  0  0  0  0  0  0  0  0
  1  2  1  0
  2  3  2  0
  2  4  1  0
  4  5  2  0
  4  6  1  0
  5  7  1  0
  6  8  2  0
  7  8  1  0
  8  9  1  0
  9 10  1  0
  9 11  1  0
 10 11  1  0
M  END
