diamond-x0900_1_A-diamond-x0591_0_A
     RDKit          3D

 22 23  0  0  0  0  0  0  0  0999 V2000
   -0.9440    9.9750   -9.6570 O   0  0  0  0  0  0  0  0  0  0  0  0
   -0.8250    9.6050   -8.5010 C   0  0  0  0  0  0  0  0  0  0  0  0
    0.1560    8.7700   -8.0240 N   0  0  0  0  0  0  0  0  0  0  0  0
   -1.6940    9.9490   -7.3140 C   0  0  2  0  0  0  0  0  0  0  0  0
   -1.1580   11.1750   -6.5480 C   0  0  0  0  0  0  0  0  0  0  0  0
   -1.6540    8.6190   -6.5410 C   0  0  0  0  0  0  0  0  0  0  0  0
   -0.3030    8.0120   -6.8940 C   0  0  0  0  0  0  0  0  0  0  0  0
   -2.1820   12.2940   -6.3070 C   0  0  0  0  0  0  0  0  0  0  0  0
   -1.7770   13.1450   -5.1660 N   0  0  0  0  0  0  0  0  0  0  0  0
   -2.3920   14.5400   -5.0500 S   0  0  1  0  0  0  0  0  0  0  0  0
   -1.0110   15.4300   -4.7380 N   0  0  0  0  0  0  0  0  0  0  0  0
   -3.0180   15.2960   -6.1070 O   0  0  0  0  0  0  0  0  0  0  0  0
   -3.4470   14.5990   -3.6380 C   0  0  0  0  0  0  0  0  0  0  0  0
   -2.9650   14.4110   -2.3400 C   0  0  0  0  0  0  0  0  0  0  0  0
   -4.7940   14.8410   -3.8580 C   0  0  0  0  0  0  0  0  0  0  0  0
   -3.8540   14.4710   -1.2540 C   0  0  0  0  0  0  0  0  0  0  0  0
   -5.6760   14.9030   -2.7830 C   0  0  0  0  0  0  0  0  0  0  0  0
   -5.2210   14.7190   -1.4790 C   0  0  0  0  0  0  0  0  0  0  0  0
   -6.2340   14.7950   -0.3880 C   0  0  0  0  0  0  0  0  0  0  0  0
   -5.7960   14.6120    0.9020 N   0  0  0  0  0  0  0  0  0  0  0  0
   -7.4090   15.0060   -0.6640 O   0  0  0  0  0  0  0  0  0  0  0  0
   -6.7550   14.4850    1.9730 C   0  0  0  0  0  0  0  0  0  0  0  0
  1  2  2  0
  2  3  1  0
  2  4  1  0
  4  5  1  1
  4  6  1  0
  3  7  1  0
  6  7  1  0
  5  8  1  0
  8  9  1  0
  9 10  2  0
 10 11  1  1
 10 12  2  0
 10 13  1  0
 13 14  2  0
 13 15  1  0
 14 16  1  0
 15 17  2  0
 16 18  2  0
 17 18  1  0
 18 19  1  0
 19 20  1  0
 19 21  2  0
 20 22  1  0
M  END
