diamond-x0967_0_A-mac-x0590
     RDKit          3D

 23 26  0  0  0  0  0  0  0  0999 V2000
   -3.7150   16.4590    1.2850 N   0  0  0  0  0  0  0  0  0  0  0  0
   -3.6600   15.0640    0.8620 C   0  0  1  0  0  0  0  0  0  0  0  0
   -5.0840   14.7510    0.5480 C   0  0  0  0  0  0  0  0  0  0  0  0
   -2.5840   14.8900   -0.2950 C   0  0  2  0  0  0  0  0  0  0  0  0
   -5.5150   14.5220   -0.7490 C   0  0  0  0  0  0  0  0  0  0  0  0
   -6.0050   14.7050    1.6050 C   0  0  0  0  0  0  0  0  0  0  0  0
   -3.2590   15.0500   -1.7160 C   0  0  1  0  0  0  0  0  0  0  0  0
   -1.8580   13.6050   -0.0300 N   0  0  0  0  0  0  0  0  0  0  0  0
   -1.4130   15.8680   -0.1400 C   0  0  0  0  0  0  0  0  0  0  0  0
   -2.3500   14.8570   -3.0060 C   0  0  0  0  0  0  0  0  0  0  0  0
   -6.8140   14.2630   -1.0160 N   0  0  0  0  0  0  0  0  0  0  0  0
   -7.3350   14.4390    1.3530 C   0  0  0  0  0  0  0  0  0  0  0  0
   -4.6340   14.5510   -1.8140 N   0  0  0  0  0  0  0  0  0  0  0  0
   -0.1870   15.0940   -0.1400 N   0  0  0  0  0  0  0  0  0  0  0  0
   -0.6070   13.9740    0.6190 C   0  0  0  0  0  0  0  0  0  0  0  0
   -1.7830   13.4550   -3.4010 C   0  0  0  0  0  0  0  0  0  0  0  0
   -7.6900   14.2280    0.0290 C   0  0  0  0  0  0  0  0  0  0  0  0
   -0.7570   13.5480   -4.5670 C   0  0  0  0  0  0  0  0  0  0  0  0
    0.2140   12.3420   -4.6890 C   0  0  2  0  0  0  0  0  0  0  0  0
    0.7840   11.9340   -3.3260 C   0  0  0  0  0  0  0  0  0  0  0  0
    1.4660   12.6540   -5.5030 C   0  0  0  0  0  0  0  0  0  0  0  0
    2.5240   12.9820   -4.4710 C   0  0  0  0  0  0  0  0  0  0  0  0
    2.1850   12.2590   -3.2920 O   0  0  0  0  0  0  0  0  0  0  0  0
  2  1  1  6
  2  3  1  0
  2  4  1  0
  3  5  2  0
  3  6  1  0
  4  7  1  0
  4  8  1  0
  4  9  1  1
  7 10  1  6
  5 11  1  0
  6 12  2  0
  5 13  1  0
  7 13  1  0
  9 14  1  0
  8 15  1  0
 14 15  1  0
 10 16  1  0
 11 17  2  0
 12 17  1  0
 16 18  1  0
 19 18  1  1
 19 20  1  0
 19 21  1  0
 21 22  1  0
 20 23  1  0
 22 23  1  0
M  END
