diamond-x0962_1_A-diamond-x0805_0_A
     RDKit          3D

 23 25  0  0  0  0  0  0  0  0999 V2000
   -4.3400   16.1790   -1.1230 N   0  0  0  0  0  0  0  0  0  0  0  0
   -4.1240   14.9920   -0.3970 C   0  0  1  0  0  0  0  0  0  0  0  0
   -3.1460   15.3310    0.7390 C   0  0  0  0  0  0  0  0  0  0  0  0
   -5.4970   14.7310    0.1400 C   0  0  0  0  0  0  0  0  0  0  0  0
   -3.5680   14.1030   -1.4970 C   0  0  0  0  0  0  0  0  0  0  0  0
   -5.7690   14.4970    1.4680 N   0  0  0  0  0  0  0  0  0  0  0  0
   -6.7430   14.6700   -0.4590 C   0  0  0  0  0  0  0  0  0  0  0  0
   -4.2640   12.9950   -1.9390 C   0  0  0  0  0  0  0  0  0  0  0  0
   -2.3190   14.4140   -2.1180 C   0  0  0  0  0  0  0  0  0  0  0  0
   -7.1050   14.3150    1.6100 C   0  0  0  0  0  0  0  0  0  0  0  0
   -7.7280   14.4120    0.4600 N   0  0  0  0  0  0  0  0  0  0  0  0
   -3.7610   12.2120   -2.9630 C   0  0  0  0  0  0  0  0  0  0  0  0
   -1.7940   13.6250   -3.1670 C   0  0  0  0  0  0  0  0  0  0  0  0
   -2.5470   12.5260   -3.5660 C   0  0  0  0  0  0  0  0  0  0  0  0
   -0.4510   13.9460   -3.8500 C   0  0  2  0  0  0  0  0  0  0  0  0
    0.7500   13.2550   -3.2660 C   0  0  1  0  0  0  0  0  0  0  0  0
   -0.0240   15.4050   -3.9160 C   0  0  0  0  0  0  0  0  0  0  0  0
    0.5010   12.0400   -2.4410 C   0  0  0  0  0  0  0  0  0  0  0  0
    1.8940   13.2060   -4.2300 C   0  0  0  0  0  0  0  0  0  0  0  0
    1.3250   15.5510   -4.6380 C   0  0  0  0  0  0  0  0  0  0  0  0
    0.4290   10.8440   -3.0390 O   0  0  0  0  0  0  0  0  0  0  0  0
    0.3590   12.1560   -1.2420 O   0  0  0  0  0  0  0  0  0  0  0  0
    2.3440   14.5560   -4.3150 O   0  0  0  0  0  0  0  0  0  0  0  0
  2  1  1  0
  2  3  1  1
  2  4  1  0
  2  5  1  0
  4  6  1  0
  4  7  2  0
  5  8  2  0
  5  9  1  0
  6 10  1  0
  7 11  1  0
 10 11  2  0
  8 12  1  0
  9 13  2  0
 12 14  2  0
 13 14  1  0
 15 13  1  1
 15 16  1  0
 15 17  1  0
 16 18  1  6
 16 19  1  0
 17 20  1  0
 18 21  1  0
 18 22  2  0
 19 23  1  0
 20 23  1  0
M  END
