diamond-x0864_0_A-diamond-x0104_0_A
     RDKit          3D

 32 34  0  0  0  0  0  0  0  0999 V2000
    1.3950   12.0710   -6.4770 O   0  0  0  0  0  0  0  0  0  0  0  0
    0.3270   11.4950   -6.2680 C   0  0  0  0  0  0  0  0  0  0  0  0
   -0.5820   11.8570   -5.2640 N   0  0  0  0  0  0  0  0  0  0  0  0
   -0.0460   10.3320   -7.1160 C   0  0  0  0  0  0  0  0  0  0  0  0
   -0.2850   12.8470   -4.2050 C   0  0  1  0  0  0  0  0  0  0  0  0
   -1.6950   11.0790   -5.0040 C   0  0  0  0  0  0  0  0  0  0  0  0
   -1.1630    9.6390   -6.8410 C   0  0  0  0  0  0  0  0  0  0  0  0
    0.7250   12.3580   -3.1530 C   0  0  0  0  0  0  0  0  0  0  0  0
   -1.7060    8.1670   -7.8470 Br  0  0  0  0  0  0  0  0  0  0  0  0
   -0.0650   14.3130   -4.6370 C   0  0  0  0  0  0  0  0  0  0  0  0
   -2.0000   10.0140   -5.7370 C   0  0  0  0  0  0  0  0  0  0  0  0
    0.6970   11.0340   -2.9060 O   0  0  0  0  0  0  0  0  0  0  0  0
    1.4960   13.0980   -2.5620 O   0  0  0  0  0  0  0  0  0  0  0  0
   -0.9440   15.3300   -3.8710 C   0  0  0  0  0  0  0  0  0  0  0  0
   -2.4750   15.0790   -3.8860 C   0  0  0  0  0  0  0  0  0  0  0  0
   -3.0790   14.7800   -2.4980 C   0  0  0  0  0  0  0  0  0  0  0  0
   -4.4810   15.0900   -2.4060 O   0  0  0  0  0  0  0  0  0  0  0  0
   -5.0430   14.9480   -1.1440 C   0  0  0  0  0  0  0  0  0  0  0  0
   -4.2530   14.8640   -0.0560 N   0  0  0  0  0  0  0  0  0  0  0  0
   -6.4320   14.8970   -1.0730 C   0  0  0  0  0  0  0  0  0  0  0  0
   -4.8670   14.7280    1.1510 C   0  0  0  0  0  0  0  0  0  0  0  0
   -7.0390   14.7510    0.1810 C   0  0  0  0  0  0  0  0  0  0  0  0
   -6.2490   14.6660    1.3330 C   0  0  0  0  0  0  0  0  0  0  0  0
   -6.8830   14.5240    2.5930 N   0  0  0  0  0  0  0  0  0  0  0  0
   -8.0620   15.0730    3.0760 C   0  0  0  0  0  0  0  0  0  0  0  0
   -8.0160   15.1180    4.4660 N   0  0  0  0  0  0  0  0  0  0  0  0
   -8.9960   15.4550    2.3820 O   0  0  0  0  0  0  0  0  0  0  0  0
   -9.1170   15.1140    5.3000 C   0  0  0  0  0  0  0  0  0  0  0  0
   -9.2520   15.2210    6.6640 C   0  0  0  0  0  0  0  0  0  0  0  0
  -10.6210   14.9410    4.5130 S   0  0  0  0  0  0  0  0  0  0  0  0
  -11.4730   15.0080    5.9980 C   0  0  0  0  0  0  0  0  0  0  0  0
  -10.6210   15.1600    7.0740 C   0  0  0  0  0  0  0  0  0  0  0  0
  1  2  2  0
  2  3  1  0
  2  4  1  0
  3  5  1  0
  3  6  1  0
  4  7  2  0
  5  8  1  0
  7  9  1  0
  5 10  1  6
  6 11  2  0
  7 11  1  0
  8 12  1  0
  8 13  2  0
 10 14  1  0
 14 15  1  0
 15 16  1  0
 16 17  1  0
 17 18  1  0
 18 19  2  0
 18 20  1  0
 19 21  1  0
 20 22  2  0
 21 23  2  0
 22 23  1  0
 23 24  1  0
 24 25  1  0
 25 26  1  0
 25 27  2  0
 26 28  1  0
 28 29  2  0
 28 30  1  0
 30 31  1  0
 29 32  1  0
 31 32  2  0
M  END
