diamond-x0950_1_A-mac-x0178
     RDKit          3D

 16 16  0  0  0  0  0  0  0  0999 V2000
    2.2700   13.1830   -4.9010 C   0  0  0  0  0  0  0  0  0  0  0  0
    1.5320   12.0340   -4.2440 C   0  0  2  0  0  0  0  0  0  0  0  0
    0.6720   11.5060   -5.2670 O   0  0  0  0  0  0  0  0  0  0  0  0
    0.6680   12.5420   -3.0640 C   0  0  0  0  0  0  0  0  0  0  0  0
   -0.2520   11.5590   -2.6130 O   0  0  0  0  0  0  0  0  0  0  0  0
    1.4960   12.8620   -1.9610 O   0  0  0  0  0  0  0  0  0  0  0  0
    0.0230   13.7810   -3.6750 C   0  0  0  0  0  0  0  0  0  0  0  0
    0.6980   15.0220   -3.6150 C   0  0  0  0  0  0  0  0  0  0  0  0
   -1.2200   13.7270   -4.3300 C   0  0  0  0  0  0  0  0  0  0  0  0
    0.1580   16.1630   -4.2050 C   0  0  0  0  0  0  0  0  0  0  0  0
   -1.7670   14.8700   -4.9230 C   0  0  0  0  0  0  0  0  0  0  0  0
   -1.0680   16.0780   -4.8630 C   0  0  0  0  0  0  0  0  0  0  0  0
   -1.7260   17.5320   -5.6400 S   0  0  0  0  0  0  0  0  0  0  0  0
   -0.3450   18.1770   -6.3500 N   0  0  0  0  0  0  0  0  0  0  0  0
   -2.6100   17.1290   -6.7040 O   0  0  0  0  0  0  0  0  0  0  0  0
   -2.1120   18.4930   -4.6510 O   0  0  0  0  0  0  0  0  0  0  0  0
  2  1  1  6
  2  3  1  0
  2  4  1  0
  4  5  1  0
  4  6  1  0
  4  7  1  0
  7  8  2  0
  7  9  1  0
  8 10  1  0
  9 11  2  0
 10 12  2  0
 11 12  1  0
 12 13  1  0
 13 14  1  0
 13 15  2  0
 13 16  2  0
M  END
