diamond-x0766_0_A-mac-x0412
     RDKit          3D

 22 25  0  0  0  0  0  0  0  0999 V2000
    0.4240   12.1460   -2.4690 C   0  0  0  0  0  0  0  0  0  0  0  0
    0.1770   10.9180   -2.9580 O   0  0  0  0  0  0  0  0  0  0  0  0
    0.6010   12.3450   -1.2850 O   0  0  0  0  0  0  0  0  0  0  0  0
    0.3970   13.2330   -3.4830 C   0  0  2  0  0  0  0  0  0  0  0  0
    1.6610   13.5000   -4.2980 C   0  0  0  0  0  0  0  0  0  0  0  0
    0.0500   14.5450   -2.7610 C   0  0  1  0  0  0  0  0  0  0  0  0
    1.6870   15.0140   -4.4850 C   0  0  0  0  0  0  0  0  0  0  0  0
    0.4820   15.6010   -3.7690 C   0  0  0  0  0  0  0  0  0  0  0  0
   -1.4030   14.6950   -2.4450 C   0  0  0  0  0  0  0  0  0  0  0  0
   -2.3210   14.8590   -3.4160 C   0  0  0  0  0  0  0  0  0  0  0  0
   -1.9330   14.6690   -0.9940 C   0  0  0  0  0  0  0  0  0  0  0  0
   -3.3050   14.8040   -0.9000 C   0  0  0  0  0  0  0  0  0  0  0  0
   -3.7640   14.9000   -2.5280 S   0  0  0  0  0  0  0  0  0  0  0  0
   -4.4310   14.8830    0.0510 C   0  0  0  0  0  0  0  0  0  0  0  0
   -5.4410   14.9630   -2.9290 C   0  0  0  0  0  0  0  0  0  0  0  0
   -5.8460   14.8440   -0.4820 C   0  0  0  0  0  0  0  0  0  0  0  0
   -4.2900   14.9950    1.3800 C   0  0  0  0  0  0  0  0  0  0  0  0
   -6.2990   14.8940   -1.7670 C   0  0  0  0  0  0  0  0  0  0  0  0
   -7.0010   14.7200    0.4470 C   0  0  0  0  0  0  0  0  0  0  0  0
   -5.5460   15.0580    2.1630 C   0  0  0  0  0  0  0  0  0  0  0  0
   -8.1200   14.4740    0.0120 O   0  0  0  0  0  0  0  0  0  0  0  0
   -6.7550   14.9180    1.7600 N   0  0  0  0  0  0  0  0  0  0  0  0
  1  2  1  0
  1  3  2  0
  4  1  1  1
  4  5  1  0
  4  6  1  0
  5  7  1  0
  6  8  1  0
  7  8  1  0
  6  9  1  6
  9 10  2  0
  9 11  1  0
 11 12  2  0
 10 13  1  0
 12 13  1  0
 12 14  1  0
 13 15  2  0
 14 16  1  0
 14 17  2  0
 15 18  1  0
 16 18  2  0
 16 19  1  0
 17 20  1  0
 19 21  2  0
 19 22  1  0
 20 22  2  0
M  END
