diamond-x1018_0_A-mac-x0178
     RDKit          3D

 24 26  0  0  0  0  0  0  0  0999 V2000
   -8.3250   14.4580    0.7580 Cl  0  0  0  0  0  0  0  0  0  0  0  0
   -6.6460   14.6520    0.3830 C   0  0  0  0  0  0  0  0  0  0  0  0
   -5.6490   14.3870    1.4390 C   0  0  0  0  0  0  0  0  0  0  0  0
   -6.3760   15.0300   -0.8270 N   0  0  0  0  0  0  0  0  0  0  0  0
   -5.0510   15.2090   -1.1370 N   0  0  0  0  0  0  0  0  0  0  0  0
   -4.3690   14.6660    1.1560 C   0  0  0  0  0  0  0  0  0  0  0  0
   -4.6330   14.6100   -2.3200 N   0  0  0  0  0  0  0  0  0  0  0  0
   -3.9570   15.2300   -0.1630 C   0  0  1  0  0  0  0  0  0  0  0  0
   -2.8670   14.4970   -0.8240 N   0  0  0  0  0  0  0  0  0  0  0  0
   -3.5620   13.7640   -1.8800 N   0  0  0  0  0  0  0  0  0  0  0  0
   -2.7220   13.2270   -2.9970 C   0  0  0  0  0  0  0  0  0  0  0  0
   -1.6140   14.1590   -3.4710 C   0  0  0  0  0  0  0  0  0  0  0  0
   -0.2350   13.9830   -3.1760 C   0  0  0  0  0  0  0  0  0  0  0  0
   -2.0150   15.2640   -4.2420 C   0  0  0  0  0  0  0  0  0  0  0  0
    0.2550   12.8310   -2.3580 C   0  0  0  0  0  0  0  0  0  0  0  0
   -1.0860   16.1870   -4.7110 C   0  0  0  0  0  0  0  0  0  0  0  0
    0.6960   14.9300   -3.6660 C   0  0  0  0  0  0  0  0  0  0  0  0
   -1.6560   17.5780   -5.6650 S   0  0  0  0  0  0  0  0  0  0  0  0
    0.5430   12.8570   -1.1740 O   0  0  0  0  0  0  0  0  0  0  0  0
    0.3600   11.6890   -3.0550 O   0  0  0  0  0  0  0  0  0  0  0  0
    0.2760   16.0290   -4.4290 C   0  0  0  0  0  0  0  0  0  0  0  0
   -0.2430   18.1420   -6.3730 N   0  0  0  0  0  0  0  0  0  0  0  0
   -2.4970   17.1100   -6.7390 O   0  0  0  0  0  0  0  0  0  0  0  0
   -2.1110   18.5960   -4.7590 O   0  0  0  0  0  0  0  0  0  0  0  0
  1  2  1  0
  2  3  1  0
  2  4  2  0
  4  5  1  0
  3  6  2  0
  5  7  1  0
  5  8  1  0
  8  6  1  1
  8  9  1  0
  7 10  1  0
  9 10  1  0
 10 11  1  0
 11 12  1  0
 12 13  2  0
 12 14  1  0
 13 15  1  0
 14 16  2  0
 13 17  1  0
 16 18  1  0
 15 19  2  0
 15 20  1  0
 16 21  1  0
 17 21  2  0
 18 22  1  0
 18 23  2  0
 18 24  2  0
M  END
