diamond-x0855_0_A-mac-x0223
     RDKit          3D

 19 20  0  0  0  0  0  0  0  0999 V2000
    2.0570   13.1860   -3.2500 O   0  0  0  0  0  0  0  0  0  0  0  0
    1.0090   12.3600   -3.3530 C   0  0  0  0  0  0  0  0  0  0  0  0
   -0.2120   12.8610   -4.0760 C   0  0  2  0  0  0  0  0  0  0  0  0
    1.0770   11.2560   -2.8350 O   0  0  0  0  0  0  0  0  0  0  0  0
   -0.8570   11.8520   -4.9150 N   0  0  0  0  0  0  0  0  0  0  0  0
   -0.5960   14.3290   -4.3470 C   0  0  0  0  0  0  0  0  0  0  0  0
   -0.3320   11.0270   -5.8850 C   0  0  0  0  0  0  0  0  0  0  0  0
   -2.1810   11.6630   -4.7220 N   0  0  0  0  0  0  0  0  0  0  0  0
   -1.9620   14.5360   -4.5750 C   0  0  0  0  0  0  0  0  0  0  0  0
    0.2680   15.4680   -4.3630 C   0  0  0  0  0  0  0  0  0  0  0  0
   -1.4000   10.2680   -6.3080 C   0  0  0  0  0  0  0  0  0  0  0  0
   -2.5030   10.6990   -5.5710 C   0  0  0  0  0  0  0  0  0  0  0  0
   -0.2810   16.7570   -4.5900 C   0  0  0  0  0  0  0  0  0  0  0  0
   -2.4900   15.7910   -4.8030 C   0  0  0  0  0  0  0  0  0  0  0  0
   -1.4600    8.9180   -7.5890 Br  0  0  0  0  0  0  0  0  0  0  0  0
    0.3910   17.9470   -4.6180 O   0  0  0  0  0  0  0  0  0  0  0  0
   -1.6560   16.8870   -4.8020 C   0  0  0  0  0  0  0  0  0  0  0  0
    1.1530   18.2430   -5.7630 C   0  0  0  0  0  0  0  0  0  0  0  0
   -2.1930   18.1280   -4.9960 O   0  0  0  0  0  0  0  0  0  0  0  0
  1  2  1  0
  3  2  1  6
  2  4  2  0
  3  5  1  0
  3  6  1  0
  5  7  1  0
  5  8  1  0
  6  9  2  0
  6 10  1  0
  7 11  2  0
  8 12  2  0
 11 12  1  0
 10 13  2  0
  9 14  1  0
 11 15  1  0
 13 16  1  0
 13 17  1  0
 14 17  2  0
 16 18  1  0
 17 19  1  0
M  END
