diamond-x0282_0_A-diamond-x0864_0_A
     RDKit          3D

 27 29  0  0  0  0  0  0  0  0999 V2000
   -7.2190   13.3780    0.2970 C   0  0  0  0  0  0  0  0  0  0  0  0
   -8.6030   13.6700    0.1290 O   0  0  0  0  0  0  0  0  0  0  0  0
   -6.5240   14.7000    0.5830 C   0  0  0  0  0  0  0  0  0  0  0  0
   -5.6420   14.6350    1.8290 C   0  0  0  0  0  0  0  0  0  0  0  0
   -5.7670   15.2650   -0.6460 C   0  0  0  0  0  0  0  0  0  0  0  0
   -4.2710   14.0440    1.5360 C   0  0  0  0  0  0  0  0  0  0  0  0
   -4.3390   14.7370   -0.8070 C   0  0  0  0  0  0  0  0  0  0  0  0
   -3.6460   14.7760    0.4670 N   0  0  0  0  0  0  0  0  0  0  0  0
   -2.3190   14.5150    0.4210 C   0  0  0  0  0  0  0  0  0  0  0  0
   -1.9350   13.7610   -0.5970 N   0  0  0  0  0  0  0  0  0  0  0  0
   -1.4740   14.9900    1.3610 N   0  0  0  0  0  0  0  0  0  0  0  0
   -0.6420   13.4840   -0.6660 C   0  0  0  0  0  0  0  0  0  0  0  0
   -0.1850   14.6730    1.1890 C   0  0  0  0  0  0  0  0  0  0  0  0
   -0.1520   12.6070   -1.7300 C   0  0  0  0  0  0  0  0  0  0  0  0
    0.2510   13.9210    0.1690 C   0  0  0  0  0  0  0  0  0  0  0  0
    0.1450   13.2430   -2.9490 N   0  0  0  0  0  0  0  0  0  0  0  0
    0.5060   12.3730   -3.7540 C   0  0  0  0  0  0  0  0  0  0  0  0
    0.8080   12.6850   -5.1740 C   0  0  0  0  0  0  0  0  0  0  0  0
    0.6130   11.0680   -3.4210 O   0  0  0  0  0  0  0  0  0  0  0  0
   -0.1360   11.8810   -5.9330 N   0  0  0  0  0  0  0  0  0  0  0  0
   -1.2530   11.3840   -5.2800 C   0  0  0  0  0  0  0  0  0  0  0  0
    0.4900   11.1450   -6.9050 C   0  0  0  0  0  0  0  0  0  0  0  0
    1.5900   11.4040   -7.3230 O   0  0  0  0  0  0  0  0  0  0  0  0
   -1.8560   10.2590   -5.6920 C   0  0  0  0  0  0  0  0  0  0  0  0
   -0.2220    9.9660   -7.4280 C   0  0  0  0  0  0  0  0  0  0  0  0
   -1.3380    9.5520   -6.8380 C   0  0  0  0  0  0  0  0  0  0  0  0
   -2.2740    8.0630   -7.4580 Br  0  0  0  0  0  0  0  0  0  0  0  0
  1  2  1  0
  1  3  1  0
  3  4  1  0
  3  5  1  0
  4  6  1  0
  5  7  1  0
  6  8  1  0
  7  8  1  0
  8  9  1  0
  9 10  2  0
  9 11  1  0
 10 12  1  0
 11 13  2  0
 12 14  1  0
 12 15  2  0
 13 15  1  0
 14 16  1  0
 16 17  2  3
 17 18  1  0
 17 19  1  0
 18 20  1  0
 20 21  1  0
 20 22  1  0
 22 23  2  0
 21 24  2  0
 22 25  1  0
 24 26  1  0
 25 26  2  0
 26 27  1  0
M  END
