diamond-x0849_0_A-mac-x0375
     RDKit          3D

 24 26  0  0  0  0  0  0  0  0999 V2000
   -3.7740   15.1660   -2.8700 Br  0  0  0  0  0  0  0  0  0  0  0  0
   -3.6560   15.1080   -0.9770 C   0  0  0  0  0  0  0  0  0  0  0  0
   -2.4350   14.9080   -0.3340 C   0  0  0  0  0  0  0  0  0  0  0  0
   -4.8160   15.2710   -0.2480 C   0  0  0  0  0  0  0  0  0  0  0  0
   -2.4380   14.8690    1.0620 C   0  0  0  0  0  0  0  0  0  0  0  0
   -4.6960   15.2180    1.1180 C   0  0  0  0  0  0  0  0  0  0  0  0
   -1.2180   14.7520   -0.9960 C   0  0  0  0  0  0  0  0  0  0  0  0
   -3.5380   15.0210    1.7520 N   0  0  0  0  0  0  0  0  0  0  0  0
   -1.3400   14.6790    1.7490 N   0  0  0  0  0  0  0  0  0  0  0  0
   -0.0590   14.5660   -0.2860 C   0  0  0  0  0  0  0  0  0  0  0  0
    1.2240   14.4090   -1.0260 C   0  0  0  0  0  0  0  0  0  0  0  0
   -0.1920   14.5390    1.1000 C   0  0  0  0  0  0  0  0  0  0  0  0
    1.0470   14.1240   -2.5060 C   0  0  0  0  0  0  0  0  0  0  0  0
    1.6600   12.8570   -2.7790 O   0  0  0  0  0  0  0  0  0  0  0  0
    0.9340   12.0050   -3.5410 C   0  0  0  0  0  0  0  0  0  0  0  0
    0.4920   10.9300   -3.1520 O   0  0  0  0  0  0  0  0  0  0  0  0
    0.7540   12.5620   -4.9490 C   0  0  0  0  0  0  0  0  0  0  0  0
    0.7130   11.6040   -5.9940 O   0  0  0  0  0  0  0  0  0  0  0  0
   -0.3840   10.7960   -6.1240 C   0  0  0  0  0  0  0  0  0  0  0  0
   -0.3910    9.5110   -6.6720 C   0  0  0  0  0  0  0  0  0  0  0  0
   -1.5810   11.3400   -5.6610 C   0  0  0  0  0  0  0  0  0  0  0  0
   -1.5790    8.7830   -6.7480 C   0  0  0  0  0  0  0  0  0  0  0  0
   -2.7690   10.6130   -5.7400 C   0  0  0  0  0  0  0  0  0  0  0  0
   -2.7670    9.3330   -6.2830 C   0  0  0  0  0  0  0  0  0  0  0  0
  1  2  1  0
  2  3  2  0
  2  4  1  0
  3  5  1  0
  4  6  2  0
  3  7  1  0
  5  8  2  0
  6  8  1  0
  5  9  1  0
  7 10  2  0
 10 11  1  0
  9 12  2  0
 10 12  1  0
 11 13  1  0
 13 14  1  0
 14 15  1  0
 15 16  2  0
 15 17  1  0
 17 18  1  0
 18 19  1  0
 19 20  2  0
 19 21  1  0
 20 22  1  0
 21 23  2  0
 22 24  2  0
 23 24  1  0
M  END
