diamond-x0471_0_A-mac-x0451
     RDKit          3D

 18 19  0  0  0  0  0  0  0  0999 V2000
   -8.8690   14.0800    2.5870 N   0  0  0  0  0  0  0  0  0  0  0  0
   -9.0280   14.9860    3.6180 C   0  0  0  0  0  0  0  0  0  0  0  0
   -9.3790   16.1490    3.4240 O   0  0  0  0  0  0  0  0  0  0  0  0
   -8.9490   14.4990    1.1940 C   0  0  0  0  0  0  0  0  0  0  0  0
   -8.7520   14.4500    5.0230 C   0  0  0  0  0  0  0  0  0  0  0  0
   -7.5630   14.6440    0.6640 C   0  0  0  0  0  0  0  0  0  0  0  0
   -9.9600   13.6890    5.5630 C   0  0  0  0  0  0  0  0  0  0  0  0
   -8.3230   15.5610    5.9820 C   0  0  0  0  0  0  0  0  0  0  0  0
   -7.1710   14.6090   -0.6010 N   0  0  0  0  0  0  0  0  0  0  0  0
   -6.4980   14.8480    1.4910 N   0  0  0  0  0  0  0  0  0  0  0  0
   -6.5740   14.9650    2.8940 N   0  0  0  0  0  0  0  0  0  0  0  0
   -5.3530   14.9370    0.7420 C   0  0  0  0  0  0  0  0  0  0  0  0
   -5.8020   14.7930   -0.5660 C   0  0  0  0  0  0  0  0  0  0  0  0
   -4.8740   14.8470   -1.6200 C   0  0  0  0  0  0  0  0  0  0  0  0
   -4.0070   15.1290    1.0800 C   0  0  0  0  0  0  0  0  0  0  0  0
   -3.5260   15.0340   -1.3000 C   0  0  0  0  0  0  0  0  0  0  0  0
   -3.0990   15.1700    0.0220 C   0  0  0  0  0  0  0  0  0  0  0  0
   -2.6090   15.0800   -2.2910 F   0  0  0  0  0  0  0  0  0  0  0  0
  1  2  1  0
  2  3  2  0
  1  4  1  0
  2  5  1  0
  4  6  1  0
  5  7  1  0
  5  8  1  0
  6  9  2  0
  6 10  1  0
 10 11  1  0
 10 12  1  0
  9 13  1  0
 12 13  2  0
 13 14  1  0
 12 15  1  0
 14 16  2  0
 15 17  2  0
 16 17  1  0
 16 18  1  0
M  END
