diamond-x0371_0_A-mac-x0346
     RDKit          3D

 23 26  0  0  0  0  0  0  0  0999 V2000
   -8.9730   15.9010    1.1770 N   0  0  0  0  0  0  0  0  0  0  0  0
   -9.4220   16.0970    2.6870 C   0  0  0  0  0  0  0  0  0  0  0  0
  -10.5240   16.5970    2.7390 O   0  0  0  0  0  0  0  0  0  0  0  0
   -8.5410   14.7450    0.3850 C   0  0  1  0  0  0  0  0  0  0  0  0
   -8.5880   14.8760   -0.9920 N   0  0  0  0  0  0  0  0  0  0  0  0
   -7.2250   15.1650    0.5460 C   0  0  0  0  0  0  0  0  0  0  0  0
   -8.8750   15.6820    4.0740 C   0  0  0  0  0  0  0  0  0  0  0  0
   -7.3520   14.7850   -1.8700 C   0  0  0  0  0  0  0  0  0  0  0  0
   -6.0960   14.9940   -0.5740 C   0  0  0  0  0  0  0  0  0  0  0  0
   -8.0780   14.6240    4.5420 O   0  0  0  0  0  0  0  0  0  0  0  0
   -9.1650   16.4570    5.3000 C   0  0  0  0  0  0  0  0  0  0  0  0
   -6.7050   15.1170    1.3840 C   0  0  0  0  0  0  0  0  0  0  0  0
   -7.7560   14.7580   -3.0410 O   0  0  0  0  0  0  0  0  0  0  0  0
   -6.1910   15.0680    2.2130 N   0  0  0  0  0  0  0  0  0  0  0  0
   -4.7140   15.5150    0.5110 C   0  0  0  0  0  0  0  0  0  0  0  0
   -8.5370   15.8600    6.4500 C   0  0  0  0  0  0  0  0  0  0  0  0
   -7.8940   14.7180    5.9220 C   0  0  0  0  0  0  0  0  0  0  0  0
   -5.6320   14.6740   -1.8110 C   0  0  0  0  0  0  0  0  0  0  0  0
   -3.6530   15.8430    0.5750 C   0  0  0  0  0  0  0  0  0  0  0  0
   -4.1890   14.5970   -1.6940 C   0  0  0  0  0  0  0  0  0  0  0  0
   -5.4490   15.2930    1.3600 C   0  0  0  0  0  0  0  0  0  0  0  0
   -5.3580   14.7920   -2.5650 O   0  0  0  0  0  0  0  0  0  0  0  0
   -3.3810   14.9610   -0.7630 C   0  0  0  0  0  0  0  0  0  0  0  0
  1  2  1  0
  2  3  2  0
  4  1  1  1
  4  5  1  0
  4  6  1  0
  2  7  1  0
  5  8  1  0
  6  9  1  0
  7 10  1  0
  7 11  2  0
  6 12  2  0
  8 13  2  0
 12 14  1  0
  9 15  1  0
 11 16  1  0
 10 17  1  0
 16 17  2  0
  8 18  1  0
  9 18  2  0
 15 19  2  0
 18 20  1  0
 14 21  2  0
 15 21  1  0
 20 22  1  0
 19 23  1  0
 20 23  2  0
M  END
