diamond-x0421_0_A-mac-x0455
     RDKit          3D

 22 24  0  0  0  0  0  0  0  0999 V2000
   -3.7450   15.3890   -2.8710 N   0  0  0  0  0  0  0  0  0  0  0  0
   -2.9250   14.8210   -1.9340 C   0  0  0  0  0  0  0  0  0  0  0  0
   -1.7480   14.3130   -2.0010 N   0  0  0  0  0  0  0  0  0  0  0  0
   -3.5490   14.8270   -0.5950 C   0  0  0  0  0  0  0  0  0  0  0  0
   -0.8980   14.2270   -3.2070 C   0  0  1  0  0  0  0  0  0  0  0  0
   -2.9010   14.9580    0.6280 C   0  0  0  0  0  0  0  0  0  0  0  0
   -4.9180   14.6930   -0.3820 N   0  0  0  0  0  0  0  0  0  0  0  0
   -0.9730   15.4390   -4.0110 O   0  0  0  0  0  0  0  0  0  0  0  0
    0.5390   14.2660   -2.5950 C   0  0  0  0  0  0  0  0  0  0  0  0
   -3.8800   14.8980    1.5710 N   0  0  0  0  0  0  0  0  0  0  0  0
   -5.0660   14.7390    0.9280 C   0  0  0  0  0  0  0  0  0  0  0  0
   -1.0060   13.0350   -4.1820 C   0  0  0  0  0  0  0  0  0  0  0  0
    1.3410   15.1790   -2.6300 O   0  0  0  0  0  0  0  0  0  0  0  0
    0.8300   13.0870   -1.9730 O   0  0  0  0  0  0  0  0  0  0  0  0
   -6.4170   14.6220    1.6740 C   0  0  0  0  0  0  0  0  0  0  0  0
   -2.1010   12.1470   -4.1690 C   0  0  0  0  0  0  0  0  0  0  0  0
    0.0170   12.7980   -5.1280 C   0  0  0  0  0  0  0  0  0  0  0  0
   -7.7040   14.6620    0.8950 C   0  0  0  0  0  0  0  0  0  0  0  0
   -7.2350   13.3720    1.5040 C   0  0  0  0  0  0  0  0  0  0  0  0
   -2.1610   11.0700   -5.0640 C   0  0  0  0  0  0  0  0  0  0  0  0
   -0.0470   11.7240   -6.0180 C   0  0  0  0  0  0  0  0  0  0  0  0
   -1.1380   10.8580   -5.9850 C   0  0  0  0  0  0  0  0  0  0  0  0
  1  2  1  0
  2  3  2  3
  2  4  1  0
  5  3  1  0
  4  6  2  0
  4  7  1  0
  5  8  1  6
  5  9  1  0
  6 10  1  0
  7 11  2  0
 10 11  1  0
  5 12  1  0
  9 13  2  0
  9 14  1  0
 11 15  1  0
 12 16  2  0
 12 17  1  0
 15 18  1  0
 15 19  1  0
 18 19  1  0
 16 20  1  0
 17 21  2  0
 20 22  2  0
 21 22  1  0
M  END
