diamond-x0104_0_A-mac-x0397
     RDKit          3D

 20 22  0  0  0  0  0  0  0  0999 V2000
   -7.0680   14.4560    2.5320 N   0  0  0  0  0  0  0  0  0  0  0  0
   -8.1060   15.0690    3.1710 C   0  0  0  0  0  0  0  0  0  0  0  0
   -8.0010   15.0240    4.5260 N   0  0  0  0  0  0  0  0  0  0  0  0
   -6.3990   14.6640    1.3590 C   0  0  0  0  0  0  0  0  0  0  0  0
   -9.0050   15.5760    2.5050 O   0  0  0  0  0  0  0  0  0  0  0  0
   -5.0640   14.6940    1.4100 C   0  0  0  0  0  0  0  0  0  0  0  0
   -7.0110   14.8620    0.0520 C   0  0  0  0  0  0  0  0  0  0  0  0
   -4.2390   14.8770    0.3280 N   0  0  0  0  0  0  0  0  0  0  0  0
   -6.2550   14.7520   -1.0590 C   0  0  0  0  0  0  0  0  0  0  0  0
   -9.0870   15.0550    5.3810 C   0  0  0  0  0  0  0  0  0  0  0  0
   -4.7820   14.4030   -0.9700 C   0  0  1  0  0  0  0  0  0  0  0  0
   -9.2080   15.1890    6.7430 C   0  0  0  0  0  0  0  0  0  0  0  0
  -10.5980   14.8960    4.6070 S   0  0  0  0  0  0  0  0  0  0  0  0
   -2.8930   14.6680    0.5280 C   0  0  0  0  0  0  0  0  0  0  0  0
  -11.4400   15.0030    6.0940 C   0  0  0  0  0  0  0  0  0  0  0  0
  -10.5780   15.1570    7.1560 C   0  0  0  0  0  0  0  0  0  0  0  0
   -3.7990   14.7470   -2.0910 C   0  0  0  0  0  0  0  0  0  0  0  0
   -2.0140   14.6400   -0.4700 C   0  0  0  0  0  0  0  0  0  0  0  0
   -2.4900   14.8440   -1.8140 C   0  0  0  0  0  0  0  0  0  0  0  0
   -4.2740   14.9550   -3.4780 C   0  0  0  0  0  0  0  0  0  0  0  0
  1  2  1  0
  2  3  1  0
  1  4  1  0
  2  5  2  0
  4  6  2  0
  4  7  1  0
  6  8  1  0
  7  9  2  0
  3 10  1  0
  8 11  1  0
 11  9  1  6
 10 12  2  0
 10 13  1  0
  8 14  1  0
 13 15  1  0
 12 16  1  0
 15 16  2  0
 11 17  1  0
 14 18  2  0
 17 19  2  0
 18 19  1  0
 17 20  1  0
M  END
