diamond-x0900_0_A-diamond-x0766_0_A
     RDKit          3D

 18 20  0  0  0  0  0  0  0  0999 V2000
   -5.9220   14.1460   -1.5130 O   0  0  0  0  0  0  0  0  0  0  0  0
   -5.0750   14.3890   -0.6610 C   0  0  0  0  0  0  0  0  0  0  0  0
   -3.5970   14.8110   -0.8140 C   0  0  2  0  0  0  0  0  0  0  0  0
   -5.3680   14.3580    0.8300 C   0  0  0  0  0  0  0  0  0  0  0  0
   -4.2760   15.3000    1.3460 C   0  0  0  0  0  0  0  0  0  0  0  0
   -3.8490   15.9870    0.0670 C   0  0  0  0  0  0  0  0  0  0  0  0
   -2.8930   15.0990   -2.1600 C   0  0  0  0  0  0  0  0  0  0  0  0
   -2.5530   14.0320   -0.0930 C   0  0  0  0  0  0  0  0  0  0  0  0
   -1.6040   14.5980   -2.1010 C   0  0  0  0  0  0  0  0  0  0  0  0
   -1.4440   13.9520   -0.8240 C   0  0  0  0  0  0  0  0  0  0  0  0
   -0.4160   14.5870   -3.0480 C   0  0  1  0  0  0  0  0  0  0  0  0
   -0.0330   13.2900   -3.7830 C   0  0  2  0  0  0  0  0  0  0  0  0
   -0.1330   15.7040   -4.0440 C   0  0  0  0  0  0  0  0  0  0  0  0
    0.4560   12.2350   -2.8060 C   0  0  0  0  0  0  0  0  0  0  0  0
    1.1100   13.7200   -4.7340 C   0  0  0  0  0  0  0  0  0  0  0  0
    1.2040   15.2500   -4.6350 C   0  0  0  0  0  0  0  0  0  0  0  0
    1.3340   12.4180   -1.9880 O   0  0  0  0  0  0  0  0  0  0  0  0
   -0.1750   11.0430   -2.9030 O   0  0  0  0  0  0  0  0  0  0  0  0
  1  2  2  0
  3  2  1  0
  2  4  1  0
  4  5  1  0
  3  6  1  1
  5  6  1  0
  3  7  1  0
  3  8  1  0
  7  9  2  0
  8 10  2  0
  9 10  1  0
 11  9  1  6
 11 12  1  0
 11 13  1  0
 12 14  1  1
 12 15  1  0
 13 16  1  0
 15 16  1  0
 14 17  2  0
 14 18  1  0
M  END
