diamond-x0471_0_A-diamond-x0574_0_A
     RDKit          3D

 23 25  0  0  0  0  0  0  0  0999 V2000
   -8.8180   14.0170    2.7970 N   0  0  0  0  0  0  0  0  0  0  0  0
   -9.1580   15.0980    3.5950 C   0  0  0  0  0  0  0  0  0  0  0  0
   -9.3760   16.2050    3.1150 O   0  0  0  0  0  0  0  0  0  0  0  0
   -8.8710   14.1050    1.3430 C   0  0  0  0  0  0  0  0  0  0  0  0
   -9.2720   14.8220    5.0990 C   0  0  0  0  0  0  0  0  0  0  0  0
   -7.5310   14.4930    0.8100 C   0  0  0  0  0  0  0  0  0  0  0  0
   -9.6070   13.3600    5.3850 C   0  0  0  0  0  0  0  0  0  0  0  0
   -8.0260   15.2720    5.8580 C   0  0  0  0  0  0  0  0  0  0  0  0
   -7.2150   14.4880   -0.5440 N   0  0  0  0  0  0  0  0  0  0  0  0
   -6.4990   14.8820    1.5230 N   0  0  0  0  0  0  0  0  0  0  0  0
   -5.4990   15.1460    0.6190 C   0  0  0  0  0  0  0  0  0  0  0  0
   -5.9140   14.8970   -0.6530 C   0  0  0  0  0  0  0  0  0  0  0  0
   -5.1490   15.0330   -1.8160 C   0  0  0  0  0  0  0  0  0  0  0  0
   -4.1180   15.6340    0.9340 C   0  0  1  0  0  0  0  0  0  0  0  0
   -3.9150   15.1830    2.2870 O   0  0  0  0  0  0  0  0  0  0  0  0
   -3.8210   15.0120   -1.5810 C   0  0  0  0  0  0  0  0  0  0  0  0
   -3.2360   14.8840   -0.1580 C   0  0  1  0  0  0  0  0  0  0  0  0
   -5.1220   14.8610    2.9960 C   0  0  0  0  0  0  0  0  0  0  0  0
   -1.3650   14.8830   -0.3320 S   0  0  0  0  0  0  0  0  0  0  0  0
   -3.1280   13.5550    0.5040 C   0  0  0  0  0  0  0  0  0  0  0  0
   -2.3730   13.8750    1.7480 N   0  0  0  0  0  0  0  0  0  0  0  0
   -1.1300   14.4470    1.3490 C   0  0  1  0  0  0  0  0  0  0  0  0
   -0.1000   13.4690    1.5060 N   0  0  0  0  0  0  0  0  0  0  0  0
  1  2  1  0
  2  3  2  0
  1  4  1  0
  2  5  1  0
  4  6  1  0
  5  7  1  0
  5  8  1  0
  6  9  1  0
  6 10  2  0
 10 11  1  0
  9 12  1  0
 11 12  2  0
 12 13  1  0
 11 14  1  0
 14 15  1  1
 13 16  2  0
 14 17  1  0
 17 16  1  6
 15 18  1  0
 17 19  1  0
 17 20  1  0
 20 21  1  0
 19 22  1  0
 21 22  1  0
 22 23  1  6
M  END
