diamond-x0933_0_A-mac-x0433
     RDKit          3D

  9  9  0  0  0  0  0  0  0  0999 V2000
   -6.1700   14.8020    2.0740 N   0  0  0  0  0  0  0  0  0  0  0  0
   -5.1730   14.3280    1.1770 C   0  0  2  0  0  0  0  0  0  0  0  0
   -4.1020   15.2560    1.3740 N   0  0  0  0  0  0  0  0  0  0  0  0
   -5.7140   14.4220   -0.1710 N   0  0  0  0  0  0  0  0  0  0  0  0
   -7.1440   14.7990   -0.1670 C   0  0  0  0  0  0  0  0  0  0  0  0
   -4.9120   15.2670   -1.0620 C   0  0  2  0  0  0  0  0  0  0  0  0
   -2.9890   14.9140    0.5070 C   0  0  0  0  0  0  0  0  0  0  0  0
   -5.4540   15.0700   -2.4080 N   0  0  0  0  0  0  0  0  0  0  0  0
   -3.4220   14.9250   -0.9560 C   0  0  0  0  0  0  0  0  0  0  0  0
  2  1  1  1
  2  3  1  0
  2  4  1  0
  4  5  1  0
  4  6  1  0
  3  7  1  0
  6  8  1  6
  6  9  1  0
  7  9  1  0
M  END
