diamond-x0662_0_A-diamond-x0766_0_A
     RDKit          3D

 32 35  0  0  0  0  0  0  0  0999 V2000
    5.3570    9.5430  -15.0520 C   0  0  0  0  0  0  0  0  0  0  0  0
    4.3140    9.9930  -14.1650 N   0  0  0  0  0  0  0  0  0  0  0  0
    3.6390   11.1790  -14.2070 C   0  0  0  0  0  0  0  0  0  0  0  0
    3.9280    9.1930  -13.1640 N   0  0  0  0  0  0  0  0  0  0  0  0
    2.7540   11.1420  -13.1540 C   0  0  0  0  0  0  0  0  0  0  0  0
    2.9660    9.8760  -12.5190 C   0  0  0  0  0  0  0  0  0  0  0  0
    2.2690    9.3490  -11.3250 C   0  0  0  0  0  0  0  0  0  0  0  0
    2.3860    8.1610  -11.0210 O   0  0  0  0  0  0  0  0  0  0  0  0
    1.4990   10.1530  -10.5080 N   0  0  0  0  0  0  0  0  0  0  0  0
    0.6870    9.8720   -9.3790 C   0  0  0  0  0  0  0  0  0  0  0  0
   -0.1300    8.7530   -9.2400 C   0  0  0  0  0  0  0  0  0  0  0  0
    0.7070   10.7970   -8.3340 C   0  0  0  0  0  0  0  0  0  0  0  0
   -0.9010    8.5800   -8.0800 C   0  0  0  0  0  0  0  0  0  0  0  0
   -0.0580   10.6630   -7.1620 C   0  0  0  0  0  0  0  0  0  0  0  0
   -0.0230   11.7250   -6.0690 C   0  0  0  0  0  0  0  0  0  0  0  0
   -0.8680    9.5270   -7.0480 C   0  0  0  0  0  0  0  0  0  0  0  0
   -0.1500   11.5310   -4.8070 N   0  0  0  0  0  0  0  0  0  0  0  0
    0.1450   12.8190   -6.6070 O   0  0  0  0  0  0  0  0  0  0  0  0
   -0.3270   10.3160   -4.0580 C   0  0  0  0  0  0  0  0  0  0  0  0
    0.2150   10.6150   -2.7390 O   0  0  0  0  0  0  0  0  0  0  0  0
    0.4530   11.9470   -2.4280 C   0  0  0  0  0  0  0  0  0  0  0  0
    0.7690   12.3450   -1.3270 O   0  0  0  0  0  0  0  0  0  0  0  0
    0.2410   12.9790   -3.5430 C   0  0  2  0  0  0  0  0  0  0  0  0
    1.5340   13.2470   -4.3330 C   0  0  0  0  0  0  0  0  0  0  0  0
   -0.0080   14.3480   -2.8770 C   0  0  1  0  0  0  0  0  0  0  0  0
    1.5090   14.7430   -4.6890 C   0  0  0  0  0  0  0  0  0  0  0  0
    0.3430   15.3700   -3.9460 C   0  0  0  0  0  0  0  0  0  0  0  0
   -1.3440   14.5540   -2.1940 C   0  0  0  0  0  0  0  0  0  0  0  0
   -2.5910   14.6460   -2.7990 C   0  0  0  0  0  0  0  0  0  0  0  0
   -1.4720   14.6880   -0.7720 C   0  0  0  0  0  0  0  0  0  0  0  0
   -2.7690   14.8690   -0.3580 C   0  0  0  0  0  0  0  0  0  0  0  0
   -3.8560   14.8870   -1.6700 S   0  0  0  0  0  0  0  0  0  0  0  0
  1  2  1  0
  2  3  1  0
  2  4  1  0
  3  5  2  0
  4  6  2  0
  5  6  1  0
  6  7  1  0
  7  8  2  0
  7  9  1  0
  9 10  1  0
 10 11  2  0
 10 12  1  0
 11 13  1  0
 12 14  2  0
 14 15  1  0
 13 16  2  0
 14 16  1  0
 15 17  2  3
 15 18  1  0
 17 19  1  0
 19 20  1  0
 20 21  1  0
 21 22  2  0
 23 21  1  1
 23 24  1  0
 23 25  1  0
 24 26  1  0
 25 27  1  0
 26 27  1  0
 25 28  1  6
 28 29  2  0
 28 30  1  0
 30 31  2  0
 29 32  1  0
 31 32  1  0
M  CHG  1  18  -1
M  END
