diamond-x0910_0_A-mac-x0472
     RDKit          3D

 20 22  0  0  0  0  0  0  0  0999 V2000
   -2.6430   14.8950   -1.1930 N   0  0  0  0  0  0  0  0  0  0  0  0
   -3.3870   14.4070   -2.6280 S   0  0  0  0  0  0  0  0  0  0  0  0
   -4.4660   15.3400   -2.8780 O   0  0  0  0  0  0  0  0  0  0  0  0
   -1.2840   14.7520   -0.7810 C   0  0  0  0  0  0  0  0  0  0  0  0
   -3.3700   14.9790    0.0180 C   0  0  0  0  0  0  0  0  0  0  0  0
   -2.3750   14.2450   -3.6600 O   0  0  0  0  0  0  0  0  0  0  0  0
   -0.9720   14.9680    0.5320 N   0  0  0  0  0  0  0  0  0  0  0  0
   -0.2170   14.4480   -1.4520 N   0  0  0  0  0  0  0  0  0  0  0  0
   -4.1300   12.8150   -2.3620 C   0  0  0  0  0  0  0  0  0  0  0  0
   -2.6990   14.6480    1.0920 N   0  0  0  0  0  0  0  0  0  0  0  0
   -4.9650   15.4660    0.2740 S   0  0  0  0  0  0  0  0  0  0  0  0
    0.3090   14.8110    0.7580 N   0  0  0  0  0  0  0  0  0  0  0  0
    0.7300   14.4960   -0.4710 C   0  0  0  0  0  0  0  0  0  0  0  0
   -3.4580   11.6610   -2.7780 C   0  0  0  0  0  0  0  0  0  0  0  0
   -5.3870   12.7280   -1.7490 C   0  0  0  0  0  0  0  0  0  0  0  0
   -4.6410   15.1950    1.9370 C   0  0  0  0  0  0  0  0  0  0  0  0
   -3.4340   14.7720    2.2180 N   0  0  0  0  0  0  0  0  0  0  0  0
   -4.0540   10.4160   -2.5880 C   0  0  0  0  0  0  0  0  0  0  0  0
   -5.9740   11.4780   -1.5610 C   0  0  0  0  0  0  0  0  0  0  0  0
   -5.3120   10.3280   -1.9830 C   0  0  0  0  0  0  0  0  0  0  0  0
  2  1  1  0
  2  3  2  0
  1  4  1  0
  1  5  1  0
  2  6  2  0
  4  7  1  0
  4  8  2  0
  2  9  1  0
  5 10  2  0
  5 11  1  0
  7 12  1  0
  8 13  1  0
 12 13  2  0
  9 14  2  0
  9 15  1  0
 11 16  1  0
 10 17  1  0
 16 17  2  0
 14 18  1  0
 15 19  2  0
 18 20  2  0
 19 20  1  0
M  END
