diamond-x0852_0_B-diamond-x0844_0_A
     RDKit          3D

 20 21  0  0  0  0  0  0  0  0999 V2000
   -9.7430   17.7980    7.1620 N   0  0  0  0  0  0  0  0  0  0  0  0
   -9.4660   17.2670    6.1640 C   0  0  0  0  0  0  0  0  0  0  0  0
   -9.1650   16.5420    4.9650 C   0  0  0  0  0  0  0  0  0  0  0  0
   -8.2030   15.5190    4.9610 C   0  0  0  0  0  0  0  0  0  0  0  0
   -9.8490   16.8600    3.7710 C   0  0  0  0  0  0  0  0  0  0  0  0
   -7.5260   15.1950    6.1040 O   0  0  0  0  0  0  0  0  0  0  0  0
   -7.9280   14.8220    3.8000 C   0  0  0  0  0  0  0  0  0  0  0  0
   -9.5650   16.1490    2.5970 C   0  0  0  0  0  0  0  0  0  0  0  0
  -10.1170   16.3050    1.3480 O   0  0  0  0  0  0  0  0  0  0  0  0
   -8.6060   15.1380    2.6320 C   0  0  0  0  0  0  0  0  0  0  0  0
   -9.6690   15.3350    0.3770 C   0  0  0  0  0  0  0  0  0  0  0  0
   -8.8510   16.0670   -0.6790 C   0  0  0  0  0  0  0  0  0  0  0  0
   -7.6120   15.3890   -1.1130 N   0  0  0  0  0  0  0  0  0  0  0  0
   -6.5470   14.9790   -0.4770 C   0  0  0  0  0  0  0  0  0  0  0  0
   -6.1100   14.9610    0.8370 N   0  0  0  0  0  0  0  0  0  0  0  0
   -5.4990   14.4160   -1.4100 C   0  0  0  0  0  0  0  0  0  0  0  0
   -4.7820   15.1890    1.1570 C   0  0  0  0  0  0  0  0  0  0  0  0
   -4.2280   15.2200   -1.2200 C   0  0  2  0  0  0  0  0  0  0  0  0
   -2.7640   14.4850   -2.2880 Br  0  0  0  0  0  0  0  0  0  0  0  0
   -3.8290   15.3160    0.2210 C   0  0  0  0  0  0  0  0  0  0  0  0
  1  2  3  0
  2  3  1  0
  3  4  2  0
  3  5  1  0
  4  6  1  0
  4  7  1  0
  5  8  2  0
  8  9  1  0
  7 10  2  0
  8 10  1  0
  9 11  1  0
 11 12  1  0
 12 13  1  0
 13 14  2  3
 14 15  1  0
 14 16  1  0
 15 17  1  0
 16 18  1  0
 18 19  1  6
 17 20  2  0
 18 20  1  0
M  END
