diamond-x0837_0_A-mac-x0283
     RDKit          3D

 12 13  0  0  0  0  0  0  0  0999 V2000
   -6.0820   12.8610    1.2900 O   0  0  0  0  0  0  0  0  0  0  0  0
   -6.2160   14.1380    0.7540 C   0  0  1  0  0  0  0  0  0  0  0  0
   -5.4670   14.9870    1.6390 N   0  0  0  0  0  0  0  0  0  0  0  0
   -5.8350   14.1750   -0.7010 C   0  0  2  0  0  0  0  0  0  0  0  0
   -7.6910   14.4650    0.7280 C   0  0  1  0  0  0  0  0  0  0  0  0
   -8.1200   15.0710    1.9750 N   0  0  0  0  0  0  0  0  0  0  0  0
   -4.2440   15.4570    1.3060 C   0  0  0  0  0  0  0  0  0  0  0  0
   -4.2910   14.2860   -0.8430 C   0  0  1  0  0  0  0  0  0  0  0  0
   -7.8410   15.3970   -0.3740 N   0  0  0  0  0  0  0  0  0  0  0  0
   -6.5760   15.3300   -1.1540 O   0  0  0  0  0  0  0  0  0  0  0  0
   -3.6090   14.8940   -2.8380 I   0  0  0  0  0  0  0  0  0  0  0  0
   -3.6340   15.1650    0.1680 C   0  0  0  0  0  0  0  0  0  0  0  0
  2  1  1  1
  2  3  1  0
  2  4  1  0
  2  5  1  0
  5  6  1  1
  3  7  1  0
  4  8  1  0
  5  9  1  0
  4 10  1  1
  9 10  1  0
  8 11  1  6
  7 12  2  0
  8 12  1  0
M  END
