diamond-x0104_0_A-mac-x0303
     RDKit          3D

 23 25  0  0  0  0  0  0  0  0999 V2000
   -6.6260   14.9650    2.9010 N   0  0  0  0  0  0  0  0  0  0  0  0
   -7.9400   14.6450    3.3680 C   0  0  1  0  0  0  0  0  0  0  0  0
   -8.4040   15.6170    4.3550 N   0  0  0  0  0  0  0  0  0  0  0  0
   -6.0450   14.7890    1.6780 C   0  0  0  0  0  0  0  0  0  0  0  0
   -8.9280   14.3280    2.2100 C   0  0  0  0  0  0  0  0  0  0  0  0
   -4.6090   14.6390    1.5590 C   0  0  0  0  0  0  0  0  0  0  0  0
   -6.6060   14.7260    0.4490 C   0  0  0  0  0  0  0  0  0  0  0  0
   -8.8860   13.0090    1.8250 N   0  0  0  0  0  0  0  0  0  0  0  0
   -9.6930   15.1190    1.6610 O   0  0  0  0  0  0  0  0  0  0  0  0
   -5.5070   14.5160   -0.5770 C   0  0  1  0  0  0  0  0  0  0  0  0
   -9.4410   15.3630    5.2060 C   0  0  0  0  0  0  0  0  0  0  0  0
   -4.2780   14.4750    0.2990 C   0  0  0  0  0  0  0  0  0  0  0  0
   -5.6320   13.2760   -1.4470 C   0  0  0  0  0  0  0  0  0  0  0  0
   -3.0280   14.2950   -0.2010 N   0  0  0  0  0  0  0  0  0  0  0  0
   -9.3350   15.3360    6.5870 C   0  0  0  0  0  0  0  0  0  0  0  0
  -11.0560   15.0340    4.7260 S   0  0  0  0  0  0  0  0  0  0  0  0
   -5.2430   15.5460   -1.6240 C   0  0  0  0  0  0  0  0  0  0  0  0
   -5.3200   13.5860   -2.8190 O   0  0  0  0  0  0  0  0  0  0  0  0
  -11.5930   14.8630    6.3330 C   0  0  0  0  0  0  0  0  0  0  0  0
  -10.5740   15.0490    7.2370 C   0  0  0  0  0  0  0  0  0  0  0  0
   -3.9620   15.7120   -2.0100 C   0  0  0  0  0  0  0  0  0  0  0  0
   -2.9090   14.9050   -1.3250 C   0  0  0  0  0  0  0  0  0  0  0  0
   -3.9360   13.7710   -3.1150 C   0  0  0  0  0  0  0  0  0  0  0  0
  2  1  1  6
  2  3  1  0
  1  4  1  0
  2  5  1  0
  4  6  1  0
  4  7  2  0
  5  8  1  0
  5  9  2  0
  7 10  1  0
  3 11  1  0
  6 12  2  0
 10 12  1  0
 10 13  1  6
 12 14  1  0
 11 15  2  0
 11 16  1  0
 10 17  1  0
 13 18  1  0
 16 19  1  0
 15 20  1  0
 19 20  2  0
 17 21  2  0
 14 22  2  0
 21 22  1  0
 18 23  1  0
M  END
