
     RDKit          3D

  6  6  0  0  0  0  0  0  0  0999 V2000
  -12.6370   21.3660   -2.9800 N   0  0  0  0  0  0  0  0  0  0  0  0
  -12.5610   22.4190   -2.1710 C   0  0  0  0  0  0  0  0  0  0  0  0
  -13.0910   23.7860   -0.5760 C   0  0  0  0  0  0  0  0  0  0  0  0
  -11.5710   23.2980   -2.1050 N   0  0  0  0  0  0  0  0  0  0  0  0
  -11.8860   24.1770   -1.0840 N   0  0  0  0  0  0  0  0  0  0  0  0
  -13.5120   22.6990   -1.2450 N   0  0  0  0  0  0  0  0  0  0  0  0
  1  2  1  0
  2  4  2  0
  2  6  1  0
  4  5  1  0
  6  3  1  0
  3  5  2  0
M  END
