diamond-x0837_0_A-mac-x0387
     RDKit          3D

 18 20  0  0  0  0  0  0  0  0999 V2000
   -8.1140   14.2620   -0.3350 O   0  0  0  0  0  0  0  0  0  0  0  0
   -6.8910   14.2530   -0.3740 C   0  0  0  0  0  0  0  0  0  0  0  0
   -6.1680   14.2310    0.7650 N   0  0  0  0  0  0  0  0  0  0  0  0
   -6.0720   14.2990   -1.6460 C   0  0  0  0  0  0  0  0  0  0  0  0
   -5.3100   15.2220    0.9660 C   0  0  0  0  0  0  0  0  0  0  0  0
   -5.0170   15.3940   -1.5700 C   0  0  1  0  0  0  0  0  0  0  0  0
   -4.7610   15.8080   -0.1010 C   0  0  0  0  0  0  0  0  0  0  0  0
   -3.6160   15.0080   -1.7230 C   0  0  0  0  0  0  0  0  0  0  0  0
   -2.6280   14.7160   -2.6820 C   0  0  0  0  0  0  0  0  0  0  0  0
   -3.3480   14.9800   -0.4480 C   0  0  0  0  0  0  0  0  0  0  0  0
   -2.2080   14.6890    0.0720 C   0  0  0  0  0  0  0  0  0  0  0  0
   -1.3330   14.3840   -2.1530 C   0  0  0  0  0  0  0  0  0  0  0  0
   -2.1770   14.7270    1.4170 C   0  0  0  0  0  0  0  0  0  0  0  0
   -1.1360   14.3710   -0.7270 C   0  0  0  0  0  0  0  0  0  0  0  0
   -3.3050   15.0740    2.1410 N   0  0  0  0  0  0  0  0  0  0  0  0
    0.0210   14.0720   -0.0080 C   0  0  0  0  0  0  0  0  0  0  0  0
   -1.1430   14.4550    2.0950 N   0  0  0  0  0  0  0  0  0  0  0  0
   -0.0900   14.1340    1.3960 C   0  0  0  0  0  0  0  0  0  0  0  0
  1  2  2  0
  2  3  1  0
  2  4  1  0
  3  5  1  0
  4  6  1  0
  5  7  2  0
  6  7  1  0
  6  8  1  1
  8  9  2  0
  8 10  1  0
 10 11  2  0
  9 12  1  0
 11 13  1  0
 11 14  1  0
 12 14  2  0
 13 15  1  0
 14 16  1  0
 13 17  2  0
 16 18  2  0
 17 18  1  0
M  END
