diamond-x0159_0_B-mac-x0509
     RDKit          3D

 28 32  0  0  0  0  0  0  0  0999 V2000
    2.3730    8.3730  -10.4570 N   0  0  0  0  0  0  0  0  0  0  0  0
    2.7970    9.0350  -11.5260 C   0  0  0  0  0  0  0  0  0  0  0  0
    2.2950   10.2520  -11.9290 N   0  0  0  0  0  0  0  0  0  0  0  0
    3.7380    8.5950  -12.2950 N   0  0  0  0  0  0  0  0  0  0  0  0
    3.8880    9.5490  -13.2470 C   0  0  0  0  0  0  0  0  0  0  0  0
    3.0010   10.6120  -13.0620 C   0  0  0  0  0  0  0  0  0  0  0  0
    1.2300   10.9880  -11.2440 C   0  0  0  0  0  0  0  0  0  0  0  0
    2.9750   11.7090  -13.9190 C   0  0  0  0  0  0  0  0  0  0  0  0
    4.7850    9.5590  -14.3120 C   0  0  0  0  0  0  0  0  0  0  0  0
    0.8140   10.1540  -10.0470 C   0  0  0  0  0  0  0  0  0  0  0  0
    3.8840   11.7020  -14.9840 C   0  0  0  0  0  0  0  0  0  0  0  0
    4.7750   10.6460  -15.1790 C   0  0  0  0  0  0  0  0  0  0  0  0
   -0.1180   10.5450   -9.0890 C   0  0  0  0  0  0  0  0  0  0  0  0
    1.4270    8.9040   -9.9220 C   0  0  0  0  0  0  0  0  0  0  0  0
   -0.3870    9.6540   -8.0510 C   0  0  0  0  0  0  0  0  0  0  0  0
    1.1810    7.9960   -8.8960 C   0  0  0  0  0  0  0  0  0  0  0  0
   -1.3310    9.8090   -6.9020 C   0  0  0  0  0  0  0  0  0  0  0  0
    0.2500    8.4030   -7.9530 C   0  0  0  0  0  0  0  0  0  0  0  0
    1.9880    6.7200   -9.0080 C   0  0  0  0  0  0  0  0  0  0  0  0
   -1.3820    8.3820   -6.3710 C   0  0  0  0  0  0  0  0  0  0  0  0
   -0.2290    7.7580   -6.8170 N   0  0  0  0  0  0  0  0  0  0  0  0
    1.5880    5.4590   -8.3260 C   0  0  0  0  0  0  0  0  0  0  0  0
   -2.2690    7.8960   -5.6920 O   0  0  0  0  0  0  0  0  0  0  0  0
    1.9830    4.2600   -8.9290 C   0  0  0  0  0  0  0  0  0  0  0  0
    0.8540    5.4240   -7.1460 C   0  0  0  0  0  0  0  0  0  0  0  0
    1.6490    3.0440   -8.3650 C   0  0  0  0  0  0  0  0  0  0  0  0
    0.5180    4.2030   -6.5860 C   0  0  0  0  0  0  0  0  0  0  0  0
    0.9140    3.0150   -7.1960 C   0  0  0  0  0  0  0  0  0  0  0  0
  1  2  1  0
  2  3  1  0
  2  4  2  0
  4  5  1  0
  3  6  1  0
  5  6  2  0
  3  7  1  0
  6  8  1  0
  5  9  1  0
  7 10  1  0
  8 11  2  0
  9 12  2  0
 11 12  1  0
 10 13  2  0
 10 14  1  0
 13 15  1  0
 14 16  2  0
 15 17  1  0
 15 18  2  0
 16 18  1  0
 16 19  1  0
 17 20  1  0
 18 21  1  0
 20 21  1  0
 19 22  1  0
 20 23  2  0
 22 24  2  0
 22 25  1  0
 24 26  1  0
 25 27  2  0
 26 28  2  0
 27 28  1  0
M  END
