diamond-x0685_0_A-mac-x0284
     RDKit          3D

 20 21  0  0  0  0  0  0  0  0999 V2000
   -6.5260   14.9870    3.1500 N   0  0  0  0  0  0  0  0  0  0  0  0
   -7.9270   14.6680    3.2740 C   0  0  0  0  0  0  0  0  0  0  0  0
   -8.1730   13.1950    3.0130 C   0  0  0  0  0  0  0  0  0  0  0  0
   -6.0140   15.0180    1.8840 C   0  0  0  0  0  0  0  0  0  0  0  0
   -4.7280   15.4400    1.5810 C   0  0  0  0  0  0  0  0  0  0  0  0
   -6.9050   14.6300    0.9640 N   0  0  0  0  0  0  0  0  0  0  0  0
   -4.3750   15.4750    0.2410 C   0  0  0  0  0  0  0  0  0  0  0  0
   -6.5380   14.6690   -0.3100 C   0  0  0  0  0  0  0  0  0  0  0  0
   -5.3140   15.0810   -0.7130 C   0  0  0  0  0  0  0  0  0  0  0  0
   -4.9900   15.1070   -2.1240 C   0  0  0  0  0  0  0  0  0  0  0  0
   -3.5590   14.9500   -2.1800 C   0  0  0  0  0  0  0  0  0  0  0  0
   -2.8020   14.8270   -0.9880 C   0  0  0  0  0  0  0  0  0  0  0  0
   -2.9790   14.9200   -3.4360 C   0  0  0  0  0  0  0  0  0  0  0  0
   -3.3470   14.8560    0.4210 C   0  0  0  0  0  0  0  0  0  0  0  0
   -1.4500   14.6630   -1.1080 C   0  0  0  0  0  0  0  0  0  0  0  0
   -1.6220   14.7590   -3.5330 C   0  0  0  0  0  0  0  0  0  0  0  0
   -0.8770   14.6300   -2.3640 C   0  0  0  0  0  0  0  0  0  0  0  0
    0.5560   14.4520   -2.4660 C   0  0  0  0  0  0  0  0  0  0  0  0
    1.3070   14.6700   -1.5410 O   0  0  0  0  0  0  0  0  0  0  0  0
    0.9260   14.0180   -3.6800 O   0  0  0  0  0  0  0  0  0  0  0  0
  1  2  1  0
  2  3  1  0
  1  4  1  0
  4  5  2  0
  4  6  1  0
  5  7  1  0
  6  8  2  0
  7  9  2  0
  8  9  1  0
  9 10  1  0
 10 11  1  0
 11 12  2  0
 11 13  1  0
 12 14  1  0
 12 15  1  0
 13 16  2  0
 15 17  2  0
 16 17  1  0
 17 18  1  0
 18 19  2  0
 18 20  1  0
M  END
