diamond-x0766_0_A-mac-x0397
     RDKit          3D

 19 21  0  0  0  0  0  0  0  0999 V2000
    0.2310   12.5200   -2.5600 C   0  0  0  0  0  0  0  0  0  0  0  0
   -0.0970   11.2170   -2.5480 O   0  0  0  0  0  0  0  0  0  0  0  0
    0.9490   12.9640   -1.6860 O   0  0  0  0  0  0  0  0  0  0  0  0
   -0.3330   13.3220   -3.7190 C   0  0  2  0  0  0  0  0  0  0  0  0
    0.7740   13.5980   -4.7610 C   0  0  0  0  0  0  0  0  0  0  0  0
   -0.8440   14.7780   -3.4410 C   0  0  2  0  0  0  0  0  0  0  0  0
    1.4220   14.9180   -4.3210 C   0  0  0  0  0  0  0  0  0  0  0  0
    0.5020   15.4950   -3.2440 C   0  0  0  0  0  0  0  0  0  0  0  0
   -1.9630   15.2240   -2.3950 C   0  0  1  0  0  0  0  0  0  0  0  0
   -3.4850   14.8810   -2.5520 C   0  0  1  0  0  0  0  0  0  0  0  0
   -1.7260   15.0340   -0.8460 C   0  0  0  0  0  0  0  0  0  0  0  0
   -4.3050   14.5560   -4.0890 Cl  0  0  0  0  0  0  0  0  0  0  0  0
   -3.1410   14.7040   -0.2290 C   0  0  2  0  0  0  0  0  0  0  0  0
   -3.7340   13.5100   -1.4080 S   0  0  0  0  0  0  0  0  0  0  0  0
   -4.2310   15.7780   -0.1790 C   0  0  0  0  0  0  0  0  0  0  0  0
   -3.3250   14.2480    1.5130 S   0  0  0  0  0  0  0  0  0  0  0  0
   -5.1330   14.2790    1.3410 C   0  0  2  0  0  0  0  0  0  0  0  0
   -5.4810   15.0840    0.2020 N   0  0  0  0  0  0  0  0  0  0  0  0
   -5.8400   14.9590    2.3890 N   0  0  0  0  0  0  0  0  0  0  0  0
  1  2  1  0
  1  3  2  0
  4  1  1  1
  4  5  1  0
  4  6  1  0
  5  7  1  0
  6  8  1  1
  7  8  1  0
  6  9  1  0
  9 10  1  0
  9 11  1  1
 10 12  1  6
 13 11  1  6
 10 14  1  0
 13 14  1  0
 13 15  1  0
 13 16  1  0
 16 17  1  0
 15 18  1  0
 17 18  1  0
 17 19  1  1
M  END
