diamond-x0905_0_A-diamond-x0711_0_A
     RDKit          3D

 14 14  0  0  0  0  0  0  0  0999 V2000
   -6.7860   14.9450   -0.7260 N   0  0  0  0  0  0  0  0  0  0  0  0
   -7.4450   14.7040    0.3490 C   0  0  0  0  0  0  0  0  0  0  0  0
   -7.0000   14.4630    1.6170 N   0  0  0  0  0  0  0  0  0  0  0  0
   -5.4040   14.9620   -0.6070 C   0  0  0  0  0  0  0  0  0  0  0  0
   -4.9240   14.9070    0.6510 N   0  0  0  0  0  0  0  0  0  0  0  0
   -4.5970   15.0250   -1.7320 C   0  0  0  0  0  0  0  0  0  0  0  0
   -3.5920   14.9060    0.8030 C   0  0  0  0  0  0  0  0  0  0  0  0
   -3.2140   15.0230   -1.5500 C   0  0  0  0  0  0  0  0  0  0  0  0
   -2.3590   15.0940   -2.7230 N   0  0  0  0  0  0  0  0  0  0  0  0
   -2.6970   14.9580   -0.2540 C   0  0  0  0  0  0  0  0  0  0  0  0
   -0.9260   14.1840   -2.9440 S   0  0  0  0  0  0  0  0  0  0  0  0
   -1.5180   12.8500   -3.9580 C   0  0  0  0  0  0  0  0  0  0  0  0
    0.0180   14.9540   -3.7230 O   0  0  0  0  0  0  0  0  0  0  0  0
   -0.5420   13.6210   -1.6670 O   0  0  0  0  0  0  0  0  0  0  0  0
  1  2  2  3
  2  3  1  0
  1  4  1  0
  4  5  2  0
  4  6  1  0
  5  7  1  0
  6  8  2  0
  8  9  1  0
  7 10  2  0
  8 10  1  0
 11  9  1  0
 11 12  1  0
 11 13  2  0
 11 14  2  0
M  END
