diamond-x0371_0_A-mac-x0341
     RDKit          3D

 19 21  0  0  0  0  0  0  0  0999 V2000
   -8.1500   14.5400    2.9250 N   0  0  0  0  0  0  0  0  0  0  0  0
   -8.8270   15.5380    3.5880 C   0  0  0  0  0  0  0  0  0  0  0  0
   -9.5310   16.3560    2.9990 O   0  0  0  0  0  0  0  0  0  0  0  0
   -8.3050   14.3030    1.5150 C   0  0  0  0  0  0  0  0  0  0  0  0
   -7.0150   14.5300    0.8560 C   0  0  0  0  0  0  0  0  0  0  0  0
   -8.6390   15.5290    5.0210 C   0  0  0  0  0  0  0  0  0  0  0  0
   -5.8010   14.4720    1.4950 N   0  0  0  0  0  0  0  0  0  0  0  0
   -6.8010   14.8460   -0.5430 N   0  0  0  0  0  0  0  0  0  0  0  0
   -8.0430   14.4460    5.6070 O   0  0  0  0  0  0  0  0  0  0  0  0
   -8.9620   16.4550    5.9910 C   0  0  0  0  0  0  0  0  0  0  0  0
   -7.7420   14.9570   -1.3530 O   0  0  0  0  0  0  0  0  0  0  0  0
   -5.4870   14.9710   -0.7370 C   0  0  0  0  0  0  0  0  0  0  0  0
   -4.8640   14.7450    0.5070 C   0  0  0  0  0  0  0  0  0  0  0  0
   -8.5380   15.9070    7.2280 C   0  0  0  0  0  0  0  0  0  0  0  0
   -7.9870   14.6850    6.9390 C   0  0  0  0  0  0  0  0  0  0  0  0
   -3.4790   14.8060    0.6050 C   0  0  0  0  0  0  0  0  0  0  0  0
   -4.7900   15.2640   -1.8970 C   0  0  0  0  0  0  0  0  0  0  0  0
   -2.7690   15.0930   -0.5630 C   0  0  0  0  0  0  0  0  0  0  0  0
   -3.4080   15.3170   -1.7900 C   0  0  0  0  0  0  0  0  0  0  0  0
  1  2  1  0
  2  3  2  0
  1  4  1  0
  4  5  1  0
  2  6  1  0
  5  7  1  0
  5  8  2  0
  6  9  1  0
  6 10  2  0
  8 11  1  0
  8 12  1  0
  7 13  1  0
 12 13  2  0
 10 14  1  0
  9 15  1  0
 14 15  2  0
 13 16  1  0
 12 17  1  0
 16 18  2  0
 17 19  2  0
 18 19  1  0
M  CHG  2   8   1  11  -1
M  END
