diamond-x0290_0_A-mac-x0231
     RDKit          3D

 28 30  0  0  0  0  0  0  0  0999 V2000
   -7.7650   13.8210    0.9080 N   0  0  0  0  0  0  0  0  0  0  0  0
   -8.6310   14.9700    0.7140 C   0  0  0  0  0  0  0  0  0  0  0  0
   -6.5580   14.1260    1.6980 C   0  0  0  0  0  0  0  0  0  0  0  0
   -5.3410   14.5180    0.8520 C   0  0  0  0  0  0  0  0  0  0  0  0
   -5.4400   14.6110   -0.3770 O   0  0  0  0  0  0  0  0  0  0  0  0
   -4.1290   14.7600    1.4200 N   0  0  0  0  0  0  0  0  0  0  0  0
   -2.8620   14.5140    0.8950 C   0  0  0  0  0  0  0  0  0  0  0  0
   -1.7510   14.7830    1.6000 N   0  0  0  0  0  0  0  0  0  0  0  0
   -2.8220   13.9700   -0.3860 C   0  0  0  0  0  0  0  0  0  0  0  0
   -0.5650   14.5080    1.0180 C   0  0  0  0  0  0  0  0  0  0  0  0
   -1.5940   13.6740   -0.9950 C   0  0  0  0  0  0  0  0  0  0  0  0
   -1.5760   13.0510   -2.4140 C   0  0  0  0  0  0  0  0  0  0  0  0
   -0.4340   13.9650   -0.2530 C   0  0  0  0  0  0  0  0  0  0  0  0
   -1.6120   14.0970   -3.4840 C   0  0  0  0  0  0  0  0  0  0  0  0
   -0.4980   14.7940   -3.9390 C   0  0  0  0  0  0  0  0  0  0  0  0
   -2.8910   14.3830   -4.0210 C   0  0  0  0  0  0  0  0  0  0  0  0
    0.9230   14.5890   -3.5240 C   0  0  0  0  0  0  0  0  0  0  0  0
   -0.7050   15.8040   -4.8670 C   0  0  0  0  0  0  0  0  0  0  0  0
   -3.0760   15.3690   -4.9710 C   0  0  0  0  0  0  0  0  0  0  0  0
    1.3070   13.5900   -2.4680 C   0  0  0  0  0  0  0  0  0  0  0  0
    0.4350   16.6070   -5.3080 C   0  0  0  0  0  0  0  0  0  0  0  0
    1.9250   15.2210   -4.0300 N   0  0  0  0  0  0  0  0  0  0  0  0
   -1.9780   16.0920   -5.3840 C   0  0  0  0  0  0  0  0  0  0  0  0
    1.6950   12.2680   -3.0020 C   0  0  0  0  0  0  0  0  0  0  0  0
    0.2760   17.6650   -5.8970 O   0  0  0  0  0  0  0  0  0  0  0  0
    1.6650   16.1300   -4.9840 N   0  0  0  0  0  0  0  0  0  0  0  0
    0.7360   11.3040   -2.9990 O   0  0  0  0  0  0  0  0  0  0  0  0
    2.8070   12.0690   -3.3870 O   0  0  0  0  0  0  0  0  0  0  0  0
  1  2  1  0
  1  3  1  0
  3  4  1  0
  4  5  2  0
  4  6  1  0
  6  7  1  0
  7  8  2  0
  7  9  1  0
  8 10  1  0
  9 11  2  0
 11 12  1  0
 10 13  2  0
 11 13  1  0
 12 14  1  0
 14 15  1  0
 14 16  2  0
 15 17  1  0
 15 18  2  0
 16 19  1  0
 17 20  1  0
 18 21  1  0
 17 22  2  0
 18 23  1  0
 19 23  2  0
 20 24  1  0
 21 25  2  0
 21 26  1  0
 22 26  1  0
 24 27  1  0
 24 28  2  0
M  END
