diamond-x0685_0_A-mac-x0441
     RDKit          3D

 31 33  0  0  0  0  0  0  0  0999 V2000
   -6.2980   15.0510    2.4470 N   0  0  0  0  0  0  0  0  0  0  0  0
   -7.6830   14.6230    2.4270 C   0  0  0  0  0  0  0  0  0  0  0  0
   -7.8520   13.2690    3.0910 C   0  0  0  0  0  0  0  0  0  0  0  0
   -5.5330   15.0520    1.2910 C   0  0  0  0  0  0  0  0  0  0  0  0
   -4.1430   15.1570    1.3140 C   0  0  0  0  0  0  0  0  0  0  0  0
   -6.2310   14.9590    0.1480 N   0  0  0  0  0  0  0  0  0  0  0  0
   -3.4480   15.1760    0.1130 C   0  0  0  0  0  0  0  0  0  0  0  0
   -5.5350   14.9850   -1.0060 C   0  0  0  0  0  0  0  0  0  0  0  0
   -4.1580   15.0940   -1.0780 C   0  0  0  0  0  0  0  0  0  0  0  0
   -3.5070   15.1200   -2.3430 C   0  0  0  0  0  0  0  0  0  0  0  0
   -2.9710   15.1950   -3.4140 C   0  0  0  0  0  0  0  0  0  0  0  0
   -2.2680   15.3220   -4.6990 C   0  0  0  0  0  0  0  0  0  0  0  0
   -1.5640   14.0160   -5.0850 C   0  0  0  0  0  0  0  0  0  0  0  0
   -0.0300   14.0970   -4.9520 C   0  0  0  0  0  0  0  0  0  0  0  0
    0.6990   12.7350   -4.8870 C   0  0  1  0  0  0  0  0  0  0  0  0
    0.7240   12.1930   -3.4710 C   0  0  0  0  0  0  0  0  0  0  0  0
    0.3400   11.7770   -5.9360 N   0  0  0  0  0  0  0  0  0  0  0  0
    0.3630   10.9140   -3.2890 O   0  0  0  0  0  0  0  0  0  0  0  0
    1.0620   12.8520   -2.4970 O   0  0  0  0  0  0  0  0  0  0  0  0
    1.0710   11.7500   -7.0790 N   0  0  0  0  0  0  0  0  0  0  0  0
   -0.6720   10.8440   -5.9690 C   0  0  0  0  0  0  0  0  0  0  0  0
    0.5150   10.7930   -7.8490 C   0  0  0  0  0  0  0  0  0  0  0  0
   -0.5730   10.2030   -7.1820 C   0  0  0  0  0  0  0  0  0  0  0  0
   -1.7020   10.5390   -4.9380 C   0  0  0  0  0  0  0  0  0  0  0  0
    0.9600   10.3820   -9.2300 C   0  0  0  0  0  0  0  0  0  0  0  0
   -1.4740    9.1120   -7.6350 C   0  0  0  0  0  0  0  0  0  0  0  0
   -2.8700    9.7890   -5.6110 C   0  0  0  0  0  0  0  0  0  0  0  0
    1.6520    9.2150   -9.2540 F   0  0  0  0  0  0  0  0  0  0  0  0
   -0.1130   10.1890  -10.0370 F   0  0  0  0  0  0  0  0  0  0  0  0
    1.6860   11.3010   -9.8960 F   0  0  0  0  0  0  0  0  0  0  0  0
   -2.3790    8.6250   -6.4900 C   0  0  0  0  0  0  0  0  0  0  0  0
  1  2  1  0
  2  3  1  0
  1  4  1  0
  4  5  2  0
  4  6  1  0
  5  7  1  0
  6  8  2  0
  7  9  2  0
  8  9  1  0
  9 10  1  0
 10 11  3  0
 11 12  1  0
 12 13  1  0
 13 14  1  0
 15 14  1  1
 15 16  1  0
 15 17  1  0
 16 18  1  0
 16 19  2  0
 17 20  1  0
 17 21  1  0
 20 22  2  0
 21 23  2  0
 22 23  1  0
 21 24  1  0
 22 25  1  0
 23 26  1  0
 24 27  1  0
 25 28  1  0
 25 29  1  0
 25 30  1  0
 26 31  1  0
 27 31  1  0
M  END
