diamond-x0742_0_A-mac-x0341
     RDKit          3D

 18 20  0  0  0  0  0  0  0  0999 V2000
   -5.2850   12.3950   -0.7160 C   0  0  0  0  0  0  0  0  0  0  0  0
   -6.2540   11.7980    0.2720 C   0  0  0  0  0  0  0  0  0  0  0  0
   -4.8060   11.6890   -1.6100 O   0  0  0  0  0  0  0  0  0  0  0  0
   -4.9480   13.8950   -0.6260 C   0  0  2  0  0  0  0  0  0  0  0  0
   -4.9760   14.6020    0.7500 C   0  0  1  0  0  0  0  0  0  0  0  0
   -6.1760   14.5960   -1.1430 C   0  0  0  0  0  0  0  0  0  0  0  0
   -3.6350   14.2570   -1.3450 C   0  0  0  0  0  0  0  0  0  0  0  0
   -6.2880   15.0350   -2.2780 O   0  0  0  0  0  0  0  0  0  0  0  0
   -6.4360   14.5680    1.2400 C   0  0  1  0  0  0  0  0  0  0  0  0
   -2.4200   14.2900   -0.4230 C   0  0  0  0  0  0  0  0  0  0  0  0
   -3.8510   14.1950    1.6680 C   0  0  0  0  0  0  0  0  0  0  0  0
   -7.2520   14.6750   -0.0760 C   0  0  0  0  0  0  0  0  0  0  0  0
   -6.8500   13.4650    2.0750 N   0  0  0  0  0  0  0  0  0  0  0  0
   -1.1260   14.3530   -0.9620 C   0  0  0  0  0  0  0  0  0  0  0  0
   -2.5280   14.2670    0.9710 C   0  0  0  0  0  0  0  0  0  0  0  0
   -1.4720   14.3100    1.8010 N   0  0  0  0  0  0  0  0  0  0  0  0
   -0.0260   14.3930   -0.1100 C   0  0  0  0  0  0  0  0  0  0  0  0
   -0.2580   14.3710    1.2520 C   0  0  0  0  0  0  0  0  0  0  0  0
  1  2  1  0
  1  3  2  0
  4  1  1  1
  4  5  1  0
  4  6  1  0
  4  7  1  0
  6  8  2  0
  5  9  1  0
  7 10  1  0
  5 11  1  1
  6 12  1  0
  9 12  1  0
  9 13  1  6
 10 14  2  0
 10 15  1  0
 11 15  1  0
 15 16  2  0
 14 17  1  0
 16 18  1  0
 17 18  2  0
M  END
