diamond-x0900_0_A-diamond-x0421_0_A
     RDKit          3D

 11 12  0  0  0  0  0  0  0  0999 V2000
   -7.4690   15.3320   -0.9500 O   0  0  0  0  0  0  0  0  0  0  0  0
   -6.3430   15.0040   -0.6540 C   0  0  0  0  0  0  0  0  0  0  0  0
   -5.2720   14.8690   -1.4730 N   0  0  0  0  0  0  0  0  0  0  0  0
   -5.8600   14.6510    0.6860 C   0  0  0  0  0  0  0  0  0  0  0  0
   -4.3530   14.9410    0.6690 C   0  0  0  0  0  0  0  0  0  0  0  0
   -4.1100   14.3880   -0.7580 C   0  0  2  0  0  0  0  0  0  0  0  0
   -6.7690   14.7400    1.8910 C   0  0  0  0  0  0  0  0  0  0  0  0
   -6.4190   13.3940    1.3290 C   0  0  0  0  0  0  0  0  0  0  0  0
   -2.8640   14.8130   -1.5530 C   0  0  0  0  0  0  0  0  0  0  0  0
   -3.1320   15.2560   -2.8210 N   0  0  0  0  0  0  0  0  0  0  0  0
   -1.7120   14.7550   -1.1390 O   0  0  0  0  0  0  0  0  0  0  0  0
  1  2  2  0
  2  3  1  0
  4  2  1  0
  4  5  1  0
  3  6  1  0
  5  6  1  0
  4  7  1  0
  4  8  1  0
  7  8  1  0
  6  9  1  6
  9 10  1  0
  9 11  2  0
M  END
