diamond-x0282_0_A-mac-x0375
     RDKit          3D

 26 28  0  0  0  0  0  0  0  0999 V2000
   -7.7410   14.4340    1.1310 C   0  0  0  0  0  0  0  0  0  0  0  0
   -8.5420   14.6000   -0.0260 O   0  0  0  0  0  0  0  0  0  0  0  0
   -6.2560   14.3130    0.7730 C   0  0  0  0  0  0  0  0  0  0  0  0
   -5.3340   14.8870    1.8250 C   0  0  0  0  0  0  0  0  0  0  0  0
   -5.7900   14.9130   -0.5580 C   0  0  0  0  0  0  0  0  0  0  0  0
   -3.9990   14.2110    1.6870 C   0  0  0  0  0  0  0  0  0  0  0  0
   -4.3380   14.5000   -0.8420 C   0  0  0  0  0  0  0  0  0  0  0  0
   -3.5120   14.5680    0.3760 N   0  0  0  0  0  0  0  0  0  0  0  0
   -2.1490   14.5410    0.2350 C   0  0  0  0  0  0  0  0  0  0  0  0
   -1.6680   14.4410   -1.0100 N   0  0  0  0  0  0  0  0  0  0  0  0
   -1.3920   14.6140    1.3450 N   0  0  0  0  0  0  0  0  0  0  0  0
   -0.3460   14.4220   -1.1780 C   0  0  0  0  0  0  0  0  0  0  0  0
   -0.0760   14.6040    1.1300 C   0  0  0  0  0  0  0  0  0  0  0  0
    0.2100   14.2970   -2.5760 C   0  0  0  0  0  0  0  0  0  0  0  0
    0.4940   14.5130   -0.1260 C   0  0  0  0  0  0  0  0  0  0  0  0
    1.1430   13.1910   -2.6050 O   0  0  0  0  0  0  0  0  0  0  0  0
    0.8320   12.1700   -3.4470 C   0  0  0  0  0  0  0  0  0  0  0  0
    0.6110   11.0170   -3.0890 O   0  0  0  0  0  0  0  0  0  0  0  0
    0.7920   12.6380   -4.9040 C   0  0  0  0  0  0  0  0  0  0  0  0
    0.7560   11.6340   -5.9080 O   0  0  0  0  0  0  0  0  0  0  0  0
   -0.3390   10.8180   -6.0330 C   0  0  0  0  0  0  0  0  0  0  0  0
   -0.3720    9.6360   -6.7740 C   0  0  0  0  0  0  0  0  0  0  0  0
   -1.4920   11.2280   -5.3570 C   0  0  0  0  0  0  0  0  0  0  0  0
   -1.5390    8.8740   -6.8370 C   0  0  0  0  0  0  0  0  0  0  0  0
   -2.6600   10.4670   -5.4210 C   0  0  0  0  0  0  0  0  0  0  0  0
   -2.6840    9.2880   -6.1610 C   0  0  0  0  0  0  0  0  0  0  0  0
  1  2  1  0
  1  3  1  0
  3  4  1  0
  3  5  1  0
  4  6  1  0
  5  7  1  0
  6  8  1  0
  7  8  1  0
  8  9  1  0
  9 10  2  0
  9 11  1  0
 10 12  1  0
 11 13  2  0
 12 14  1  0
 12 15  2  0
 13 15  1  0
 14 16  1  0
 16 17  1  0
 17 18  2  0
 17 19  1  0
 19 20  1  0
 20 21  1  0
 21 22  2  0
 21 23  1  0
 22 24  1  0
 23 25  2  0
 24 26  2  0
 25 26  1  0
M  END
