diamond-x0471_0_A-diamond-x1012_0_A
     RDKit          3D

 30 32  0  0  0  0  0  0  0  0999 V2000
   -8.8450   13.9880    2.8780 N   0  0  0  0  0  0  0  0  0  0  0  0
   -8.9600   14.9620    3.8410 C   0  0  0  0  0  0  0  0  0  0  0  0
   -9.2620   16.1220    3.5730 O   0  0  0  0  0  0  0  0  0  0  0  0
   -8.9800   14.3390    1.4890 C   0  0  0  0  0  0  0  0  0  0  0  0
   -8.6880   14.4510    5.2510 C   0  0  0  0  0  0  0  0  0  0  0  0
   -7.6200   14.5650    0.9470 C   0  0  0  0  0  0  0  0  0  0  0  0
   -9.9100   13.6800    5.7630 C   0  0  0  0  0  0  0  0  0  0  0  0
   -8.3290   15.5950    6.1940 C   0  0  0  0  0  0  0  0  0  0  0  0
   -7.4130   14.6660   -0.3980 N   0  0  0  0  0  0  0  0  0  0  0  0
   -6.4880   14.7000    1.6140 N   0  0  0  0  0  0  0  0  0  0  0  0
   -5.5160   14.8950    0.6600 C   0  0  0  0  0  0  0  0  0  0  0  0
   -6.0880   14.8730   -0.6020 C   0  0  0  0  0  0  0  0  0  0  0  0
   -5.3790   15.0340   -1.7630 C   0  0  0  0  0  0  0  0  0  0  0  0
   -4.1270   15.1010    0.7840 C   0  0  0  0  0  0  0  0  0  0  0  0
   -4.0120   15.2250   -1.6540 C   0  0  0  0  0  0  0  0  0  0  0  0
   -3.3790   15.2660   -0.3940 C   0  0  0  0  0  0  0  0  0  0  0  0
   -3.2900   15.3730   -2.9560 C   0  0  0  0  0  0  0  0  0  0  0  0
   -1.9880   16.1040   -2.8370 C   0  0  0  0  0  0  0  0  0  0  0  0
   -1.9140   17.1920   -3.8000 N   0  0  0  0  0  0  0  0  0  0  0  0
   -1.2010   17.0260   -4.8050 C   0  0  0  0  0  0  0  0  0  0  0  0
   -0.9670   17.9440   -5.7680 N   0  0  0  0  0  0  0  0  0  0  0  0
   -0.5720   15.8070   -4.9780 N   0  0  0  0  0  0  0  0  0  0  0  0
   -1.4250   14.5950   -5.0430 C   0  0  0  0  0  0  0  0  0  0  0  0
    0.8600   15.6090   -4.6920 C   0  0  0  0  0  0  0  0  0  0  0  0
   -1.1910   13.6190   -3.8920 C   0  0  0  0  0  0  0  0  0  0  0  0
    1.0970   14.6650   -3.5090 C   0  0  0  0  0  0  0  0  0  0  0  0
    0.2930   13.3580   -3.6410 C   0  0  0  0  0  0  0  0  0  0  0  0
    0.3760   12.4320   -2.4390 C   0  0  0  0  0  0  0  0  0  0  0  0
    0.1220   11.1490   -2.7280 O   0  0  0  0  0  0  0  0  0  0  0  0
    0.6280   12.7520   -1.2870 O   0  0  0  0  0  0  0  0  0  0  0  0
  1  2  1  0
  2  3  2  0
  1  4  1  0
  2  5  1  0
  4  6  1  0
  5  7  1  0
  5  8  1  0
  6  9  1  0
  6 10  2  0
 10 11  1  0
  9 12  1  0
 11 12  2  0
 12 13  1  0
 11 14  1  0
 13 15  2  0
 14 16  2  0
 15 16  1  0
 15 17  1  0
 17 18  1  0
 18 19  1  0
 19 20  2  3
 20 21  1  0
 20 22  1  0
 22 23  1  0
 22 24  1  0
 23 25  1  0
 24 26  1  0
 25 27  1  0
 26 27  1  0
 27 28  1  0
 28 29  1  0
 28 30  2  0
M  END
