diamond-x0969_0_A-diamond-x0628_0_A
     RDKit          3D

 24 26  0  0  0  0  0  0  0  0999 V2000
   -6.6680   14.8620    2.4890 N   0  0  0  0  0  0  0  0  0  0  0  0
   -6.5220   14.7940    1.1490 C   0  0  0  0  0  0  0  0  0  0  0  0
   -7.4960   14.6900    0.2760 N   0  0  0  0  0  0  0  0  0  0  0  0
   -5.3030   14.8330    0.4800 N   0  0  0  0  0  0  0  0  0  0  0  0
   -6.9480   14.6560   -0.9820 N   0  0  0  0  0  0  0  0  0  0  0  0
   -5.6420   14.7350   -0.8580 C   0  0  0  0  0  0  0  0  0  0  0  0
   -3.9830   14.9390    0.9260 C   0  0  0  0  0  0  0  0  0  0  0  0
   -4.5920   14.7210   -1.8120 C   0  0  0  0  0  0  0  0  0  0  0  0
   -2.9840   14.9140    0.0210 C   0  0  0  0  0  0  0  0  0  0  0  0
   -3.3050   14.7850   -1.4110 C   0  0  0  0  0  0  0  0  0  0  0  0
   -2.1600   14.7130   -2.4120 C   0  0  0  0  0  0  0  0  0  0  0  0
   -1.7570   13.2680   -2.8160 C   0  0  0  0  0  0  0  0  0  0  0  0
   -2.4260   12.6550   -4.0590 C   0  0  0  0  0  0  0  0  0  0  0  0
   -1.5930   11.8310   -5.0070 C   0  0  0  0  0  0  0  0  0  0  0  0
   -1.9730   10.6740   -5.5300 N   0  0  0  0  0  0  0  0  0  0  0  0
   -0.3340   12.1230   -5.4870 N   0  0  0  0  0  0  0  0  0  0  0  0
    0.5320   13.2580   -5.2330 C   0  0  0  0  0  0  0  0  0  0  0  0
   -0.9190   10.2980   -6.3210 C   0  0  0  0  0  0  0  0  0  0  0  0
    0.1000   11.1570   -6.3250 N   0  0  0  0  0  0  0  0  0  0  0  0
   -0.9060    9.0480   -7.1060 C   0  0  0  0  0  0  0  0  0  0  0  0
    1.6520   12.9440   -4.2320 C   0  0  0  0  0  0  0  0  0  0  0  0
    1.1280   12.2350   -3.0120 C   0  0  0  0  0  0  0  0  0  0  0  0
    0.6280   11.1210   -2.9950 O   0  0  0  0  0  0  0  0  0  0  0  0
    1.2550   12.9570   -1.8810 O   0  0  0  0  0  0  0  0  0  0  0  0
  1  2  1  0
  2  3  2  0
  2  4  1  0
  3  5  1  0
  4  6  1  0
  5  6  2  0
  4  7  1  0
  6  8  1  0
  7  9  2  0
  8 10  2  0
  9 10  1  0
 10 11  1  0
 11 12  1  0
 12 13  1  0
 13 14  1  0
 14 15  2  0
 14 16  1  0
 16 17  1  0
 15 18  1  0
 16 19  1  0
 18 19  2  0
 18 20  1  0
 17 21  1  0
 21 22  1  0
 22 23  2  0
 22 24  1  0
M  END
