diamond-x0253_0_A-diamond-x1018_0_A
     RDKit          3D

 27 29  0  0  0  0  0  0  0  0999 V2000
    0.4860   11.9440   -5.4500 N   0  0  0  0  0  0  0  0  0  0  0  0
    1.1020   11.6190   -6.6100 C   0  0  0  0  0  0  0  0  0  0  0  0
    2.2030   12.0750   -6.7750 O   0  0  0  0  0  0  0  0  0  0  0  0
    1.3330   12.7090   -4.5560 C   0  0  0  0  0  0  0  0  0  0  0  0
    0.8390   12.6690   -3.1300 C   0  0  0  0  0  0  0  0  0  0  0  0
    0.4490   10.7060   -7.5810 C   0  0  0  0  0  0  0  0  0  0  0  0
    0.8760   13.6540   -2.3280 N   0  0  0  0  0  0  0  0  0  0  0  0
    0.3140   11.4830   -2.7200 O   0  0  0  0  0  0  0  0  0  0  0  0
   -0.5240    9.7970   -7.1660 C   0  0  0  0  0  0  0  0  0  0  0  0
    0.8190   10.7550   -8.9320 C   0  0  0  0  0  0  0  0  0  0  0  0
    0.3690   13.6300   -0.9930 C   0  0  0  0  0  0  0  0  0  0  0  0
   -1.1290    8.9410   -8.0900 C   0  0  0  0  0  0  0  0  0  0  0  0
    0.2220    9.9070   -9.8570 C   0  0  0  0  0  0  0  0  0  0  0  0
   -2.1780    7.9640   -7.6400 C   0  0  0  0  0  0  0  0  0  0  0  0
   -1.1420   13.6470   -1.0740 C   0  0  0  0  0  0  0  0  0  0  0  0
   -0.7480    9.0020   -9.4400 C   0  0  0  0  0  0  0  0  0  0  0  0
   -1.7530   14.5490   -0.0160 C   0  0  0  0  0  0  0  0  0  0  0  0
   -3.0630   15.0680   -0.4410 N   0  0  0  0  0  0  0  0  0  0  0  0
   -3.2580   15.0750   -1.8880 N   0  0  0  0  0  0  0  0  0  0  0  0
   -4.1110   14.1590   -0.0000 C   0  0  2  0  0  0  0  0  0  0  0  0
   -4.6740   15.0530   -2.0990 N   0  0  0  0  0  0  0  0  0  0  0  0
   -5.1620   14.3380   -1.0060 N   0  0  0  0  0  0  0  0  0  0  0  0
   -4.5730   14.4630    1.3760 C   0  0  0  0  0  0  0  0  0  0  0  0
   -6.4970   14.4700   -0.7210 N   0  0  0  0  0  0  0  0  0  0  0  0
   -5.8540   14.6840    1.6650 C   0  0  0  0  0  0  0  0  0  0  0  0
   -6.8140   14.6210    0.5330 C   0  0  0  0  0  0  0  0  0  0  0  0
   -8.5150   14.7550    0.8620 Cl  0  0  0  0  0  0  0  0  0  0  0  0
  1  2  1  0
  2  3  2  0
  1  4  1  0
  4  5  1  0
  2  6  1  0
  5  7  2  3
  5  8  1  0
  6  9  2  0
  6 10  1  0
  7 11  1  0
  9 12  1  0
 10 13  2  0
 12 14  1  0
 11 15  1  0
 12 16  2  0
 13 16  1  0
 15 17  1  0
 17 18  1  0
 18 19  1  0
 18 20  1  0
 19 21  1  0
 20 22  1  0
 21 22  1  0
 20 23  1  1
 22 24  1  0
 23 25  2  0
 24 26  2  0
 25 26  1  0
 26 27  1  0
M  END
