diamond-x0159_0_B-mac-x0357
     RDKit          3D

 32 35  0  0  0  0  0  0  0  0999 V2000
    1.4190    9.1960  -10.1610 N   0  0  0  0  0  0  0  0  0  0  0  0
    1.0070    7.9120   -9.6060 C   0  0  1  0  0  0  0  0  0  0  0  0
    2.2060    7.0490   -9.1780 C   0  0  0  0  0  0  0  0  0  0  0  0
    2.2280    9.3610  -11.2130 C   0  0  0  0  0  0  0  0  0  0  0  0
    0.0660    8.3300   -8.4710 C   0  0  0  0  0  0  0  0  0  0  0  0
    2.0450   10.5020  -11.9400 N   0  0  0  0  0  0  0  0  0  0  0  0
    3.2070    8.6280  -11.7020 N   0  0  0  0  0  0  0  0  0  0  0  0
    0.7730    9.2810   -7.5090 C   0  0  0  0  0  0  0  0  0  0  0  0
    3.6770    9.3430  -12.7860 C   0  0  0  0  0  0  0  0  0  0  0  0
    2.9550   10.5260  -12.9500 C   0  0  0  0  0  0  0  0  0  0  0  0
    1.9280    5.7430   -8.4700 C   0  0  0  0  0  0  0  0  0  0  0  0
    0.9050   10.7190   -8.0440 C   0  0  0  0  0  0  0  0  0  0  0  0
    2.5260    4.5720   -8.9410 C   0  0  0  0  0  0  0  0  0  0  0  0
    1.0840    5.6700   -7.3460 C   0  0  0  0  0  0  0  0  0  0  0  0
    3.1990   11.4570  -13.9560 C   0  0  0  0  0  0  0  0  0  0  0  0
    4.7190    9.0570  -13.6830 C   0  0  0  0  0  0  0  0  0  0  0  0
    1.5680   11.5190   -7.0470 O   0  0  0  0  0  0  0  0  0  0  0  0
    2.2930    3.3570   -8.3230 C   0  0  0  0  0  0  0  0  0  0  0  0
    0.8510    4.4480   -6.7280 C   0  0  0  0  0  0  0  0  0  0  0  0
    4.2390   11.1550  -14.8350 C   0  0  0  0  0  0  0  0  0  0  0  0
    4.9900    9.9770  -14.7060 C   0  0  0  0  0  0  0  0  0  0  0  0
    1.4560    3.2930   -7.2250 C   0  0  0  0  0  0  0  0  0  0  0  0
    0.6890   11.7400   -6.0320 C   0  0  0  0  0  0  0  0  0  0  0  0
    1.0290   12.4760   -4.8810 C   0  0  0  0  0  0  0  0  0  0  0  0
   -0.5780   11.1810   -6.2080 C   0  0  0  0  0  0  0  0  0  0  0  0
    2.4000   13.0720   -4.7070 C   0  0  0  0  0  0  0  0  0  0  0  0
    0.0210   12.6160   -3.9090 C   0  0  0  0  0  0  0  0  0  0  0  0
   -1.5490   11.3330   -5.2410 C   0  0  0  0  0  0  0  0  0  0  0  0
    0.1940   13.3480   -2.6400 C   0  0  0  0  0  0  0  0  0  0  0  0
   -1.2520   12.0500   -4.0890 C   0  0  0  0  0  0  0  0  0  0  0  0
   -0.4560   14.3050   -2.2660 O   0  0  0  0  0  0  0  0  0  0  0  0
    1.1860   12.8420   -1.8930 O   0  0  0  0  0  0  0  0  0  0  0  0
  1  2  1  0
  2  3  1  1
  1  4  1  0
  2  5  1  0
  4  6  1  0
  4  7  2  0
  5  8  1  0
  7  9  1  0
  6 10  1  0
  9 10  2  0
  3 11  1  0
  8 12  1  0
 11 13  2  0
 11 14  1  0
 10 15  1  0
  9 16  1  0
 12 17  1  0
 13 18  1  0
 14 19  2  0
 15 20  2  0
 16 21  2  0
 20 21  1  0
 18 22  2  0
 19 22  1  0
 17 23  1  0
 23 24  2  0
 23 25  1  0
 24 26  1  0
 24 27  1  0
 25 28  2  0
 27 29  1  0
 27 30  2  0
 28 30  1  0
 29 31  2  0
 29 32  1  0
M  END
