diamond-x0724_0_A-diamond-x0711_0_A
     RDKit          3D

 22 23  0  0  0  0  0  0  0  0999 V2000
   -8.8760   13.9290    4.5680 N   0  0  0  0  0  0  0  0  0  0  0  0
   -8.7040   13.6580    5.9850 C   0  0  0  0  0  0  0  0  0  0  0  0
   -8.1460   15.1320    4.2030 C   0  0  0  0  0  0  0  0  0  0  0  0
   -7.5290   14.9100    2.8760 C   0  0  0  0  0  0  0  0  0  0  0  0
   -6.1970   15.0420    2.5320 C   0  0  0  0  0  0  0  0  0  0  0  0
   -8.1510   14.5320    1.6870 C   0  0  0  0  0  0  0  0  0  0  0  0
   -7.2860   14.4410    0.6940 N   0  0  0  0  0  0  0  0  0  0  0  0
   -6.0680   14.7580    1.2090 N   0  0  0  0  0  0  0  0  0  0  0  0
   -4.9250   14.7760    0.3670 C   0  0  0  0  0  0  0  0  0  0  0  0
   -3.5890   14.9650    0.7570 C   0  0  0  0  0  0  0  0  0  0  0  0
   -5.2240   14.6020   -0.9340 C   0  0  0  0  0  0  0  0  0  0  0  0
   -6.6370   14.3760   -1.2410 C   0  0  0  0  0  0  0  0  0  0  0  0
   -2.5810   14.9890   -0.2300 C   0  0  0  0  0  0  0  0  0  0  0  0
   -4.2400   14.6310   -1.9420 C   0  0  0  0  0  0  0  0  0  0  0  0
   -7.1730   13.2800   -0.6320 N   0  0  0  0  0  0  0  0  0  0  0  0
   -7.2960   15.1200   -1.9250 O   0  0  0  0  0  0  0  0  0  0  0  0
   -2.9060   14.8360   -1.5920 C   0  0  0  0  0  0  0  0  0  0  0  0
   -1.9460   14.8970   -2.6590 N   0  0  0  0  0  0  0  0  0  0  0  0
   -0.6250   13.8780   -2.9050 S   0  0  0  0  0  0  0  0  0  0  0  0
   -1.3360   12.6010   -3.9270 C   0  0  0  0  0  0  0  0  0  0  0  0
    0.2740   14.6370   -3.7550 O   0  0  0  0  0  0  0  0  0  0  0  0
   -0.1650   13.2960   -1.6640 O   0  0  0  0  0  0  0  0  0  0  0  0
  1  2  1  0
  1  3  1  0
  3  4  1  0
  4  5  2  0
  4  6  1  0
  6  7  2  0
  5  8  1  0
  7  8  1  0
  8  9  1  0
  9 10  2  0
  9 11  1  0
 11 12  1  0
 10 13  1  0
 11 14  2  0
 12 15  1  0
 12 16  2  0
 13 17  2  0
 14 17  1  0
 17 18  1  0
 19 18  1  0
 19 20  1  0
 19 21  2  0
 19 22  2  0
M  END
