diamond-x0681_0_A-mac-x0345
     RDKit          3D

 13 14  0  0  0  0  0  0  0  0999 V2000
   -3.9370   15.4520   -3.0790 N   0  0  0  0  0  0  0  0  0  0  0  0
   -3.3830   14.9850   -1.9290 C   0  0  0  0  0  0  0  0  0  0  0  0
   -2.2040   14.6520   -1.9010 O   0  0  0  0  0  0  0  0  0  0  0  0
   -4.3650   14.9280   -0.7720 C   0  0  1  0  0  0  0  0  0  0  0  0
   -5.0010   13.5770   -0.7180 C   0  0  0  0  0  0  0  0  0  0  0  0
   -3.7830   15.4030    0.5660 C   0  0  0  0  0  0  0  0  0  0  0  0
   -5.6400   13.1610    0.3870 N   0  0  0  0  0  0  0  0  0  0  0  0
   -4.5150   14.8670    1.8030 C   0  0  0  0  0  0  0  0  0  0  0  0
   -5.0540   12.6500   -1.6560 N   0  0  0  0  0  0  0  0  0  0  0  0
   -5.7490   13.9350    1.5690 C   0  0  1  0  0  0  0  0  0  0  0  0
   -6.1430   11.9210    0.1770 C   0  0  0  0  0  0  0  0  0  0  0  0
   -5.7680   11.6170   -1.1040 C   0  0  0  0  0  0  0  0  0  0  0  0
   -7.1070   14.6360    1.6070 C   0  0  0  0  0  0  0  0  0  0  0  0
  1  2  1  0
  2  3  2  0
  4  2  1  6
  4  5  1  0
  4  6  1  0
  5  7  1  0
  6  8  1  0
  5  9  2  0
  7 10  1  0
  8 10  1  0
  7 11  1  0
  9 12  1  0
 11 12  2  0
 10 13  1  6
M  END
