diamond-x0849_0_A-mac-x0398
     RDKit          3D

 15 16  0  0  0  0  0  0  0  0999 V2000
   -3.3550   15.1650   -2.6050 C   0  0  0  0  0  0  0  0  0  0  0  0
   -2.0850   15.1690   -3.0370 O   0  0  0  0  0  0  0  0  0  0  0  0
   -4.2870   15.2540   -3.3780 O   0  0  0  0  0  0  0  0  0  0  0  0
   -3.4240   15.0390   -1.1350 C   0  0  0  0  0  0  0  0  0  0  0  0
   -2.2450   14.8410   -0.3640 C   0  0  0  0  0  0  0  0  0  0  0  0
   -4.6640   15.1090   -0.5090 C   0  0  0  0  0  0  0  0  0  0  0  0
   -5.8260   15.2960   -1.2330 O   0  0  0  0  0  0  0  0  0  0  0  0
   -2.4100   14.7310    1.0210 C   0  0  0  0  0  0  0  0  0  0  0  0
   -4.6780   14.9740    0.8860 C   0  0  0  0  0  0  0  0  0  0  0  0
   -0.9210   14.7470   -0.8650 C   0  0  0  0  0  0  0  0  0  0  0  0
   -5.8590   15.0000    1.6500 N   0  0  0  0  0  0  0  0  0  0  0  0
   -3.5810   14.8000    1.6010 N   0  0  0  0  0  0  0  0  0  0  0  0
   -1.3990   14.5480    1.8370 N   0  0  0  0  0  0  0  0  0  0  0  0
    0.1360   14.5600    0.0080 C   0  0  0  0  0  0  0  0  0  0  0  0
   -0.1680   14.4690    1.3450 C   0  0  0  0  0  0  0  0  0  0  0  0
  1  2  1  0
  1  3  2  0
  1  4  1  0
  4  5  2  0
  4  6  1  0
  6  7  1  0
  5  8  1  0
  6  9  2  0
  5 10  1  0
  9 11  1  0
  8 12  2  0
  9 12  1  0
  8 13  1  0
 10 14  2  0
 13 15  2  0
 14 15  1  0
M  END
