diamond-x0465_0_A-mac-x0333
     RDKit          3D

 26 28  0  0  0  0  0  0  0  0999 V2000
    2.0740   13.1970   -4.8330 C   0  0  0  0  0  0  0  0  0  0  0  0
    0.7410   12.5090   -4.5720 C   0  0  1  0  0  0  0  0  0  0  0  0
    0.6820   11.4250   -5.5250 O   0  0  0  0  0  0  0  0  0  0  0  0
    0.7160   11.9750   -3.1300 C   0  0  0  0  0  0  0  0  0  0  0  0
    0.9660   12.7090   -2.0990 N   0  0  0  0  0  0  0  0  0  0  0  0
    0.4080   10.6630   -2.9910 O   0  0  0  0  0  0  0  0  0  0  0  0
   -0.5250   10.7850   -5.6710 C   0  0  0  0  0  0  0  0  0  0  0  0
    1.3020   14.1300   -2.2290 C   0  0  0  0  0  0  0  0  0  0  0  0
   -0.6790    9.7300   -6.5810 C   0  0  0  0  0  0  0  0  0  0  0  0
   -1.6160   11.1870   -4.9000 C   0  0  0  0  0  0  0  0  0  0  0  0
    0.3550    9.3280   -7.3360 F   0  0  0  0  0  0  0  0  0  0  0  0
    0.0440   14.9980   -2.1340 C   0  0  0  0  0  0  0  0  0  0  0  0
   -1.8950    9.0780   -6.7260 C   0  0  0  0  0  0  0  0  0  0  0  0
   -2.8450   10.5310   -5.0440 C   0  0  0  0  0  0  0  0  0  0  0  0
   -1.2560   14.2380   -2.4350 C   0  0  0  0  0  0  0  0  0  0  0  0
   -2.9840    9.4780   -5.9560 C   0  0  0  0  0  0  0  0  0  0  0  0
   -2.3400   15.1590   -2.6220 O   0  0  0  0  0  0  0  0  0  0  0  0
   -3.3750   15.0970   -1.7180 C   0  0  0  0  0  0  0  0  0  0  0  0
   -4.7380   15.0990   -2.0320 C   0  0  0  0  0  0  0  0  0  0  0  0
   -2.9670   15.0280   -0.3670 C   0  0  0  0  0  0  0  0  0  0  0  0
   -5.6360   15.0280   -0.9830 C   0  0  0  0  0  0  0  0  0  0  0  0
   -3.8970   14.9610    0.6740 C   0  0  0  0  0  0  0  0  0  0  0  0
   -5.2260   14.9620    0.3260 C   0  0  0  0  0  0  0  0  0  0  0  0
   -6.9950   15.0090   -1.0850 O   0  0  0  0  0  0  0  0  0  0  0  0
   -6.2800   14.8980    1.1860 O   0  0  0  0  0  0  0  0  0  0  0  0
   -7.3370   14.6090    0.2560 C   0  0  0  0  0  0  0  0  0  0  0  0
  2  1  1  6
  2  3  1  0
  2  4  1  0
  4  5  2  3
  4  6  1  0
  3  7  1  0
  5  8  1  0
  7  9  2  0
  7 10  1  0
  9 11  1  0
  8 12  1  0
  9 13  1  0
 10 14  2  0
 12 15  1  0
 13 16  2  0
 14 16  1  0
 15 17  1  0
 17 18  1  0
 18 19  2  0
 18 20  1  0
 19 21  1  0
 20 22  2  0
 21 23  2  0
 22 23  1  0
 21 24  1  0
 23 25  1  0
 24 26  1  0
 25 26  1  0
M  END
