diamond-x0844_0_A-diamond-x0711_0_A
     RDKit          3D

 14 14  0  0  0  0  0  0  0  0999 V2000
   -6.9650   14.8680   -0.1870 N   0  0  0  0  0  0  0  0  0  0  0  0
   -7.3130   14.5420    0.9980 C   0  0  0  0  0  0  0  0  0  0  0  0
   -8.5080   14.3710    1.5730 N   0  0  0  0  0  0  0  0  0  0  0  0
   -5.5970   14.9230   -0.2610 C   0  0  0  0  0  0  0  0  0  0  0  0
   -5.0100   14.9720    0.9440 N   0  0  0  0  0  0  0  0  0  0  0  0
   -4.9000   14.9170   -1.4590 C   0  0  0  0  0  0  0  0  0  0  0  0
   -3.6770   15.0150    0.9860 C   0  0  0  0  0  0  0  0  0  0  0  0
   -3.4990   14.9600   -1.3920 C   0  0  0  0  0  0  0  0  0  0  0  0
   -2.7780   14.9520   -2.5920 O   0  0  0  0  0  0  0  0  0  0  0  0
   -2.8830   15.0050   -0.1430 C   0  0  0  0  0  0  0  0  0  0  0  0
   -1.2590   14.2950   -2.8490 S   0  0  0  0  0  0  0  0  0  0  0  0
   -1.7310   12.9660   -3.9370 C   0  0  0  0  0  0  0  0  0  0  0  0
   -0.4010   15.1780   -3.6240 O   0  0  0  0  0  0  0  0  0  0  0  0
   -0.7450   13.6770   -1.6410 O   0  0  0  0  0  0  0  0  0  0  0  0
  1  2  2  3
  2  3  1  0
  1  4  1  0
  4  5  2  0
  4  6  1  0
  5  7  1  0
  6  8  2  0
  8  9  1  0
  7 10  2  0
  8 10  1  0
 11  9  1  0
 11 12  1  0
 11 13  2  0
 11 14  2  0
M  END
