diamond-x0722_0_A-mac-x0271
     RDKit          3D

 24 26  0  0  0  0  0  0  0  0999 V2000
   -4.4720   15.5560    1.7810 C   0  0  0  0  0  0  0  0  0  0  0  0
   -3.2360   15.0320    1.1630 C   0  0  0  0  0  0  0  0  0  0  0  0
   -2.2000   14.8770    1.9310 N   0  0  0  0  0  0  0  0  0  0  0  0
   -2.9110   14.6340   -0.1740 C   0  0  0  0  0  0  0  0  0  0  0  0
   -3.7440   14.6240   -1.3620 C   0  0  1  0  0  0  0  0  0  0  0  0
   -1.6280   14.2520   -0.1390 C   0  0  0  0  0  0  0  0  0  0  0  0
   -1.2620   14.4140    1.1330 N   0  0  0  0  0  0  0  0  0  0  0  0
    0.0060   14.1330    1.6460 C   0  0  0  0  0  0  0  0  0  0  0  0
   -0.7270   13.7520   -1.2010 C   0  0  0  0  0  0  0  0  0  0  0  0
   -4.4180   13.3600   -1.8330 C   0  0  0  0  0  0  0  0  0  0  0  0
   -4.9940   14.8920   -0.9070 C   0  0  0  0  0  0  0  0  0  0  0  0
   -5.1690   13.3200   -2.8020 O   0  0  0  0  0  0  0  0  0  0  0  0
   -4.2880   12.2470   -1.0540 N   0  0  0  0  0  0  0  0  0  0  0  0
   -5.7650   15.3240   -1.9020 C   0  0  0  0  0  0  0  0  0  0  0  0
   -5.3920   14.6720    0.3750 C   0  0  0  0  0  0  0  0  0  0  0  0
   -5.1480   15.4470   -3.1120 O   0  0  0  0  0  0  0  0  0  0  0  0
   -7.0660   15.5810   -1.6720 C   0  0  0  0  0  0  0  0  0  0  0  0
   -6.6810   14.9010    0.6600 C   0  0  0  0  0  0  0  0  0  0  0  0
   -7.5020   15.3540   -0.3800 C   0  0  0  0  0  0  0  0  0  0  0  0
   -7.2130   14.6970    1.9830 C   0  0  0  0  0  0  0  0  0  0  0  0
   -8.5170   14.7940    2.1470 C   0  0  0  0  0  0  0  0  0  0  0  0
   -8.8370   15.6010   -0.1270 O   0  0  0  0  0  0  0  0  0  0  0  0
   -9.4070   15.0970    1.0190 C   0  0  0  0  0  0  0  0  0  0  0  0
  -10.6020   14.9040    1.0980 O   0  0  0  0  0  0  0  0  0  0  0  0
  1  2  1  0
  2  3  2  0
  2  4  1  0
  4  5  1  0
  4  6  2  0
  3  7  1  0
  6  7  1  0
  7  8  1  0
  6  9  1  0
  5 10  1  1
  5 11  1  0
 10 12  2  0
 10 13  1  0
 11 14  2  0
 11 15  1  0
 14 16  1  0
 14 17  1  0
 15 18  2  0
 17 19  2  0
 18 19  1  0
 18 20  1  0
 20 21  2  0
 19 22  1  0
 21 23  1  0
 22 23  1  0
 23 24  2  0
M  END
