diamond-x0910_1_A-mac-x0341
     RDKit          3D

 12 13  0  0  0  0  0  0  0  0999 V2000
   -7.6180   14.4070    1.3300 N   0  0  0  0  0  0  0  0  0  0  0  0
   -6.6010   14.2740    0.3070 C   0  0  1  0  0  0  0  0  0  0  0  0
   -6.7060   15.2980   -0.8140 N   0  0  2  0  0  0  0  0  0  0  0  0
   -5.3450   14.5460    0.9440 N   0  0  0  0  0  0  0  0  0  0  0  0
   -6.6680   14.8010   -2.0550 O   0  0  0  0  0  0  0  0  0  0  0  0
   -5.4860   16.1210   -0.6740 N   0  0  0  0  0  0  0  0  0  0  0  0
   -4.5780   15.1570   -0.1270 C   0  0  0  0  0  0  0  0  0  0  0  0
   -3.2490   15.6830    0.3790 C   0  0  0  0  0  0  0  0  0  0  0  0
   -4.3660   14.2780   -1.3160 C   0  0  0  0  0  0  0  0  0  0  0  0
   -2.1740   15.8010   -0.4290 C   0  0  0  0  0  0  0  0  0  0  0  0
   -3.3070   14.4130   -2.1240 C   0  0  0  0  0  0  0  0  0  0  0  0
   -2.2420   15.4360   -1.8830 C   0  0  0  0  0  0  0  0  0  0  0  0
  2  1  1  1
  2  3  1  0
  2  4  1  0
  3  5  1  6
  3  6  1  0
  4  7  1  0
  6  7  1  0
  7  8  1  0
  7  9  1  0
  8 10  2  0
  9 11  2  0
 10 12  1  0
 11 12  1  0
M  CHG  2   3   1   5  -1
M  END
