diamond-x0864_0_A-diamond-x0371_0_A
     RDKit          3D

 33 36  0  0  0  0  0  0  0  0999 V2000
    1.4770   11.9600   -6.7650 O   0  0  0  0  0  0  0  0  0  0  0  0
    0.4830   11.3890   -6.3390 C   0  0  0  0  0  0  0  0  0  0  0  0
   -0.1470   11.7020   -5.1340 N   0  0  0  0  0  0  0  0  0  0  0  0
   -0.0970   10.2730   -7.1210 C   0  0  0  0  0  0  0  0  0  0  0  0
    0.6630   12.3830   -4.1210 C   0  0  0  0  0  0  0  0  0  0  0  0
   -1.3640   11.1360   -4.7960 C   0  0  0  0  0  0  0  0  0  0  0  0
   -1.2380    9.6990   -6.7250 C   0  0  0  0  0  0  0  0  0  0  0  0
    0.5460   11.8260   -2.6910 C   0  0  0  0  0  0  0  0  0  0  0  0
   -2.0090    8.2820   -7.6610 Br  0  0  0  0  0  0  0  0  0  0  0  0
   -1.9140   10.1710   -5.5400 C   0  0  0  0  0  0  0  0  0  0  0  0
    0.2890   10.4880   -2.5870 O   0  0  0  0  0  0  0  0  0  0  0  0
    0.6650   12.4550   -1.5820 N   0  0  0  0  0  0  0  0  0  0  0  0
    0.9620   13.8800   -1.5610 C   0  0  0  0  0  0  0  0  0  0  0  0
   -0.3410   14.6610   -1.6870 C   0  0  0  0  0  0  0  0  0  0  0  0
   -1.1880   14.6930   -0.4020 C   0  0  0  0  0  0  0  0  0  0  0  0
   -2.7020   14.8100   -0.5180 C   0  0  0  0  0  0  0  0  0  0  0  0
   -3.4470   14.5230    0.6320 C   0  0  0  0  0  0  0  0  0  0  0  0
   -3.3760   15.1740   -1.7060 C   0  0  0  0  0  0  0  0  0  0  0  0
   -4.8290   14.5940    0.5390 C   0  0  0  0  0  0  0  0  0  0  0  0
   -4.7780   15.2450   -1.7680 C   0  0  0  0  0  0  0  0  0  0  0  0
   -5.8000   14.3630    1.4570 N   0  0  0  0  0  0  0  0  0  0  0  0
   -5.5130   14.9400   -0.6200 C   0  0  0  0  0  0  0  0  0  0  0  0
   -7.0150   14.5530    0.8550 C   0  0  0  0  0  0  0  0  0  0  0  0
   -6.8720   14.9110   -0.4090 N   0  0  0  0  0  0  0  0  0  0  0  0
   -8.2700   14.3550    1.6110 C   0  0  0  0  0  0  0  0  0  0  0  0
   -8.0160   14.6030    3.0050 N   0  0  0  0  0  0  0  0  0  0  0  0
   -8.7450   15.5570    3.6680 C   0  0  0  0  0  0  0  0  0  0  0  0
   -9.4570   16.3610    3.0650 O   0  0  0  0  0  0  0  0  0  0  0  0
   -8.6140   15.5280    5.1000 C   0  0  0  0  0  0  0  0  0  0  0  0
   -8.0480   14.4360    5.6950 O   0  0  0  0  0  0  0  0  0  0  0  0
   -8.9720   16.4460    6.0630 C   0  0  0  0  0  0  0  0  0  0  0  0
   -8.6040   15.8830    7.3100 C   0  0  0  0  0  0  0  0  0  0  0  0
   -8.0450   14.6600    7.0290 C   0  0  0  0  0  0  0  0  0  0  0  0
  1  2  2  0
  2  3  1  0
  2  4  1  0
  3  5  1  0
  3  6  1  0
  4  7  2  0
  5  8  1  0
  7  9  1  0
  6 10  2  0
  7 10  1  0
  8 11  1  0
  8 12  2  3
 12 13  1  0
 13 14  1  0
 14 15  1  0
 15 16  1  0
 16 17  2  0
 16 18  1  0
 17 19  1  0
 18 20  2  0
 19 21  1  0
 19 22  2  0
 20 22  1  0
 21 23  1  0
 22 24  1  0
 23 24  2  0
 23 25  1  0
 25 26  1  0
 26 27  1  0
 27 28  2  0
 27 29  1  0
 29 30  1  0
 29 31  2  0
 31 32  1  0
 30 33  1  0
 32 33  2  0
M  END
