diamond-x0371_0_A-mac-x0379
     RDKit          3D

 22 24  0  0  0  0  0  0  0  0999 V2000
   -8.1110   14.6310    2.6960 N   0  0  0  0  0  0  0  0  0  0  0  0
   -8.8260   15.5510    3.4470 C   0  0  0  0  0  0  0  0  0  0  0  0
   -9.5680   16.3530    2.8890 O   0  0  0  0  0  0  0  0  0  0  0  0
   -8.3530   14.5070    1.2670 C   0  0  0  0  0  0  0  0  0  0  0  0
   -7.0550   14.6310    0.5340 C   0  0  0  0  0  0  0  0  0  0  0  0
   -8.6500   15.5050    4.8950 C   0  0  0  0  0  0  0  0  0  0  0  0
   -5.8580   14.6140    1.1880 N   0  0  0  0  0  0  0  0  0  0  0  0
   -6.8550   14.7690   -0.7870 N   0  0  0  0  0  0  0  0  0  0  0  0
   -8.0640   14.4000    5.4510 O   0  0  0  0  0  0  0  0  0  0  0  0
   -8.9680   16.3930    5.9100 C   0  0  0  0  0  0  0  0  0  0  0  0
   -5.4760   14.8300   -0.9690 C   0  0  0  0  0  0  0  0  0  0  0  0
   -4.8690   14.7390    0.2590 C   0  0  0  0  0  0  0  0  0  0  0  0
   -8.5540   15.7940    7.1290 C   0  0  0  0  0  0  0  0  0  0  0  0
   -8.0080   14.5830    6.7930 C   0  0  0  0  0  0  0  0  0  0  0  0
   -3.5220   14.7690    0.4410 C   0  0  0  0  0  0  0  0  0  0  0  0
   -4.6450   14.9550   -2.1370 C   0  0  0  0  0  0  0  0  0  0  0  0
   -2.9480   14.6770    1.7640 C   0  0  0  0  0  0  0  0  0  0  0  0
   -2.7090   14.8780   -0.6770 C   0  0  0  0  0  0  0  0  0  0  0  0
   -3.2200   14.9660   -1.9630 C   0  0  0  0  0  0  0  0  0  0  0  0
   -2.1450   15.0540   -3.0370 C   0  0  0  0  0  0  0  0  0  0  0  0
   -2.3550   15.0880   -4.2360 O   0  0  0  0  0  0  0  0  0  0  0  0
   -0.8720   15.0830   -2.5400 O   0  0  0  0  0  0  0  0  0  0  0  0
  1  2  1  0
  2  3  2  0
  1  4  1  0
  4  5  1  0
  2  6  1  0
  5  7  1  0
  5  8  2  0
  6  9  1  0
  6 10  2  0
  8 11  1  0
  7 12  1  0
 11 12  2  0
 10 13  1  0
  9 14  1  0
 13 14  2  0
 12 15  1  0
 11 16  1  0
 15 17  1  0
 15 18  2  0
 16 19  2  0
 18 19  1  0
 19 20  1  0
 20 21  2  0
 20 22  1  0
M  END
