diamond-x0969_0_A-mac-x0282
     RDKit          3D

 15 17  0  0  0  0  0  0  0  0999 V2000
   -6.5960   14.9350    2.5350 N   0  0  0  0  0  0  0  0  0  0  0  0
   -6.3160   14.8790    1.2290 C   0  0  0  0  0  0  0  0  0  0  0  0
   -7.2490   14.4500    0.3270 N   0  0  0  0  0  0  0  0  0  0  0  0
   -5.1790   15.1980    0.4920 C   0  0  0  0  0  0  0  0  0  0  0  0
   -6.8190   14.4540   -0.9430 N   0  0  0  0  0  0  0  0  0  0  0  0
   -5.5670   14.9000   -0.8380 C   0  0  0  0  0  0  0  0  0  0  0  0
   -3.8000   15.7310    0.8270 C   0  0  0  0  0  0  0  0  0  0  0  0
   -4.6520   15.0780   -1.9020 C   0  0  0  0  0  0  0  0  0  0  0  0
   -2.7610   15.1790   -0.2250 C   0  0  1  0  0  0  0  0  0  0  0  0
   -3.3410   15.1990   -1.6460 C   0  0  0  0  0  0  0  0  0  0  0  0
   -1.3500   15.7790   -0.3570 C   0  0  0  0  0  0  0  0  0  0  0  0
   -2.4870   13.7840    0.3440 C   0  0  0  0  0  0  0  0  0  0  0  0
   -0.2820   15.3100    0.3190 C   0  0  0  0  0  0  0  0  0  0  0  0
   -1.7390   13.9470    1.5980 N   0  0  0  0  0  0  0  0  0  0  0  0
   -0.3580   14.1940    1.2770 C   0  0  0  0  0  0  0  0  0  0  0  0
  1  2  1  0
  2  3  1  0
  2  4  2  0
  3  5  1  0
  4  6  1  0
  5  6  2  0
  4  7  1  0
  6  8  1  0
  9  7  1  1
  8 10  2  0
  9 10  1  0
  9 11  1  0
  9 12  1  0
 11 13  2  0
 12 14  1  0
 13 15  1  0
 14 15  1  0
M  END
