diamond-x0253_0_A-mac-x0379
     RDKit          3D

 24 25  0  0  0  0  0  0  0  0999 V2000
    0.4140   11.8790   -5.4020 N   0  0  0  0  0  0  0  0  0  0  0  0
    1.0770   11.6130   -6.5680 C   0  0  0  0  0  0  0  0  0  0  0  0
    2.1820   12.1050   -6.6730 O   0  0  0  0  0  0  0  0  0  0  0  0
    0.9980   12.7150   -4.3580 C   0  0  0  0  0  0  0  0  0  0  0  0
    0.7680   12.1630   -2.9600 C   0  0  0  0  0  0  0  0  0  0  0  0
    0.4920   10.7390   -7.6130 C   0  0  0  0  0  0  0  0  0  0  0  0
    0.8230   12.9130   -1.9250 N   0  0  0  0  0  0  0  0  0  0  0  0
    0.5070   10.8420   -2.8780 O   0  0  0  0  0  0  0  0  0  0  0  0
   -0.4830    9.8300   -7.1900 C   0  0  0  0  0  0  0  0  0  0  0  0
    0.8610   10.7760   -8.9630 C   0  0  0  0  0  0  0  0  0  0  0  0
    1.0760   14.3340   -2.1370 C   0  0  0  0  0  0  0  0  0  0  0  0
   -1.0910    8.9660   -8.1010 C   0  0  0  0  0  0  0  0  0  0  0  0
    0.2610    9.9160   -9.8750 C   0  0  0  0  0  0  0  0  0  0  0  0
   -2.1380    7.9950   -7.6440 C   0  0  0  0  0  0  0  0  0  0  0  0
   -0.1110   15.1470   -2.0970 O   0  0  0  0  0  0  0  0  0  0  0  0
   -0.7120    9.0150   -9.4500 C   0  0  0  0  0  0  0  0  0  0  0  0
   -1.0920   14.8790   -3.0180 C   0  0  0  0  0  0  0  0  0  0  0  0
   -0.9030   14.6670   -4.2080 O   0  0  0  0  0  0  0  0  0  0  0  0
   -2.3960   14.9160   -2.3870 C   0  0  0  0  0  0  0  0  0  0  0  0
   -3.6330   15.0740   -2.9680 C   0  0  0  0  0  0  0  0  0  0  0  0
   -2.5980   14.7670   -0.6830 S   0  0  0  0  0  0  0  0  0  0  0  0
   -4.2950   14.9390   -0.8760 C   0  0  0  0  0  0  0  0  0  0  0  0
   -4.7120   15.0850   -2.1120 N   0  0  0  0  0  0  0  0  0  0  0  0
   -5.1940   14.9170    0.3080 C   0  0  0  0  0  0  0  0  0  0  0  0
  1  2  1  0
  2  3  2  0
  1  4  1  0
  4  5  1  0
  2  6  1  0
  5  7  2  3
  5  8  1  0
  6  9  2  0
  6 10  1  0
  7 11  1  0
  9 12  1  0
 10 13  2  0
 12 14  1  0
 11 15  1  0
 12 16  2  0
 13 16  1  0
 15 17  1  0
 17 18  2  0
 17 19  1  0
 19 20  2  0
 19 21  1  0
 21 22  1  0
 20 23  1  0
 22 23  2  0
 22 24  1  0
M  END
