diamond-x0724_0_A-mac-x0277
     RDKit          3D

 28 30  0  0  0  0  0  0  0  0999 V2000
   -8.2660   13.7810    4.4140 N   0  0  0  0  0  0  0  0  0  0  0  0
   -8.7210   13.9690    5.7830 C   0  0  0  0  0  0  0  0  0  0  0  0
   -8.4820   14.9840    3.6240 C   0  0  0  0  0  0  0  0  0  0  0  0
   -7.7720   14.8260    2.3240 C   0  0  0  0  0  0  0  0  0  0  0  0
   -6.4140   14.8350    2.0880 C   0  0  0  0  0  0  0  0  0  0  0  0
   -8.3290   14.6390    1.0440 C   0  0  0  0  0  0  0  0  0  0  0  0
   -7.4060   14.5450    0.0810 N   0  0  0  0  0  0  0  0  0  0  0  0
   -6.2190   14.6720    0.7300 N   0  0  0  0  0  0  0  0  0  0  0  0
   -4.9680   14.6420    0.0490 C   0  0  0  0  0  0  0  0  0  0  0  0
   -3.8090   14.9030    0.7960 C   0  0  0  0  0  0  0  0  0  0  0  0
   -4.8550   14.3660   -1.3260 C   0  0  0  0  0  0  0  0  0  0  0  0
   -2.5620   14.8880    0.1840 C   0  0  0  0  0  0  0  0  0  0  0  0
   -3.5870   14.3500   -1.9430 C   0  0  0  0  0  0  0  0  0  0  0  0
   -3.4220   14.0520   -3.4130 C   0  0  0  0  0  0  0  0  0  0  0  0
   -2.4510   14.6150   -1.1740 C   0  0  0  0  0  0  0  0  0  0  0  0
   -3.7520   15.2780   -4.2500 C   0  0  0  0  0  0  0  0  0  0  0  0
   -2.8050   15.5660   -5.4200 C   0  0  0  0  0  0  0  0  0  0  0  0
   -1.3370   15.6200   -5.0520 C   0  0  0  0  0  0  0  0  0  0  0  0
   -0.6660   14.4060   -4.8190 C   0  0  0  0  0  0  0  0  0  0  0  0
   -0.6100   16.8140   -4.9380 C   0  0  0  0  0  0  0  0  0  0  0  0
   -1.3390   18.3540   -5.2160 Cl  0  0  0  0  0  0  0  0  0  0  0  0
    0.6910   14.3750   -4.4770 C   0  0  0  0  0  0  0  0  0  0  0  0
    0.7410   16.7920   -4.5960 C   0  0  0  0  0  0  0  0  0  0  0  0
    1.3830   13.0540   -4.2310 C   0  0  0  0  0  0  0  0  0  0  0  0
    1.3890   15.5770   -4.3650 C   0  0  0  0  0  0  0  0  0  0  0  0
    0.9580   12.3950   -2.9430 C   0  0  0  0  0  0  0  0  0  0  0  0
    0.2690   11.2540   -3.1610 O   0  0  0  0  0  0  0  0  0  0  0  0
    1.1610   12.7720   -1.8060 O   0  0  0  0  0  0  0  0  0  0  0  0
  1  2  1  0
  1  3  1  0
  3  4  1  0
  4  5  2  0
  4  6  1  0
  6  7  2  0
  5  8  1  0
  7  8  1  0
  8  9  1  0
  9 10  2  0
  9 11  1  0
 10 12  1  0
 11 13  2  0
 13 14  1  0
 12 15  2  0
 13 15  1  0
 14 16  1  0
 16 17  1  0
 17 18  1  0
 18 19  2  0
 18 20  1  0
 20 21  1  0
 19 22  1  0
 20 23  2  0
 22 24  1  0
 22 25  2  0
 23 25  1  0
 24 26  1  0
 26 27  1  0
 26 28  2  0
M  END
