diamond-x0471_0_A-mac-x0397
     RDKit          3D

 18 19  0  0  0  0  0  0  0  0999 V2000
   -9.0300   14.1300    2.7930 N   0  0  0  0  0  0  0  0  0  0  0  0
   -9.2500   15.1610    3.6720 C   0  0  0  0  0  0  0  0  0  0  0  0
   -9.4350   16.3070    3.2780 O   0  0  0  0  0  0  0  0  0  0  0  0
   -9.1320   14.3550    1.3620 C   0  0  0  0  0  0  0  0  0  0  0  0
   -9.2940   14.8250    5.1610 C   0  0  0  0  0  0  0  0  0  0  0  0
   -7.7630   14.5780    0.8190 C   0  0  0  0  0  0  0  0  0  0  0  0
   -9.6280   13.3590    5.4170 C   0  0  0  0  0  0  0  0  0  0  0  0
   -8.0300   15.2740    5.8820 C   0  0  0  0  0  0  0  0  0  0  0  0
   -7.3890   14.5920   -0.4450 N   0  0  0  0  0  0  0  0  0  0  0  0
   -6.7080   14.8040    1.6380 N   0  0  0  0  0  0  0  0  0  0  0  0
   -6.7910   14.8650    3.0430 N   0  0  0  0  0  0  0  0  0  0  0  0
   -5.5680   14.9650    0.8840 C   0  0  0  0  0  0  0  0  0  0  0  0
   -6.0330   14.8320   -0.4170 C   0  0  0  0  0  0  0  0  0  0  0  0
   -5.1170   14.9560   -1.4520 C   0  0  0  0  0  0  0  0  0  0  0  0
   -4.2190   15.2070    1.1910 C   0  0  0  0  0  0  0  0  0  0  0  0
   -5.8020   14.7830   -2.9920 Cl  0  0  0  0  0  0  0  0  0  0  0  0
   -3.7640   15.1970   -1.2040 C   0  0  0  0  0  0  0  0  0  0  0  0
   -3.3280   15.3150    0.1200 C   0  0  0  0  0  0  0  0  0  0  0  0
  1  2  1  0
  2  3  2  0
  1  4  1  0
  2  5  1  0
  4  6  1  0
  5  7  1  0
  5  8  1  0
  6  9  2  0
  6 10  1  0
 10 11  1  0
 10 12  1  0
  9 13  1  0
 12 13  2  0
 13 14  1  0
 12 15  1  0
 14 16  1  0
 14 17  2  0
 15 18  2  0
 17 18  1  0
M  END
