diamond-x0962_0_A-diamond-x0910_1_A
     RDKit          3D

  8  8  0  0  0  0  0  0  0  0999 V2000
   -2.4180   14.8800   -2.3310 N   0  0  0  0  0  0  0  0  0  0  0  0
   -3.1220   14.9400   -1.4060 C   0  0  0  0  0  0  0  0  0  0  0  0
   -4.0040   14.9520   -0.2830 C   0  0  0  0  0  0  0  0  0  0  0  0
   -3.5750   15.3050    0.9730 N   0  0  0  0  0  0  0  0  0  0  0  0
   -5.3380   14.6260   -0.2870 C   0  0  0  0  0  0  0  0  0  0  0  0
   -4.6490   15.1880    1.7280 C   0  0  0  0  0  0  0  0  0  0  0  0
   -5.7350   14.7750    0.9990 N   0  0  0  0  0  0  0  0  0  0  0  0
   -7.0450   14.5340    1.4660 N   0  0  0  0  0  0  0  0  0  0  0  0
  1  2  3  0
  2  3  1  0
  3  4  1  0
  3  5  2  0
  4  6  2  0
  5  7  1  0
  6  7  1  0
  7  8  1  0
M  END
