diamond-x0438_0_A-mac-x0142
     RDKit          3D

 27 31  0  0  0  0  0  0  0  0999 V2000
   -8.0620   15.5140    3.8350 C   0  0  0  0  0  0  0  0  0  0  0  0
   -9.1830   15.2160    2.4780 S   0  0  0  0  0  0  0  0  0  0  0  0
  -10.4230   14.7350    3.0690 O   0  0  0  0  0  0  0  0  0  0  0  0
   -8.4840   13.8410    1.5560 C   0  0  0  0  0  0  0  0  0  0  0  0
   -9.2560   16.3800    1.6170 O   0  0  0  0  0  0  0  0  0  0  0  0
   -7.1740   14.1070    0.8690 C   0  0  0  0  0  0  0  0  0  0  0  0
   -7.0290   14.9370   -0.2320 N   0  0  0  0  0  0  0  0  0  0  0  0
   -6.0010   13.5800    1.1990 N   0  0  0  0  0  0  0  0  0  0  0  0
   -5.0790   14.0690    0.2990 C   0  0  0  0  0  0  0  0  0  0  0  0
   -5.7030   14.9020   -0.5760 C   0  0  0  0  0  0  0  0  0  0  0  0
   -5.1190   15.5920   -1.6320 C   0  0  0  0  0  0  0  0  0  0  0  0
   -3.5920   13.7780    0.2010 C   0  0  0  0  0  0  0  0  0  0  0  0
   -3.7640   15.6070   -1.6690 C   0  0  0  0  0  0  0  0  0  0  0  0
   -2.8250   14.8990   -0.6360 C   0  0  1  0  0  0  0  0  0  0  0  0
   -2.3670   15.8570    0.4490 C   0  0  0  0  0  0  0  0  0  0  0  0
   -1.3340   14.7200   -1.2130 C   0  0  2  0  0  0  0  0  0  0  0  0
   -1.0810   14.2750   -2.6030 N   0  0  0  0  0  0  0  0  0  0  0  0
   -0.4400   14.0270   -0.2910 N   0  0  0  0  0  0  0  0  0  0  0  0
   -1.5800   15.1440    1.4580 N   0  0  0  0  0  0  0  0  0  0  0  0
   -2.1260   14.1880   -3.6250 C   0  0  0  0  0  0  0  0  0  0  0  0
    0.1820   14.7630   -3.1790 C   0  0  0  0  0  0  0  0  0  0  0  0
   -0.2820   14.7500    0.9540 C   0  0  0  0  0  0  0  0  0  0  0  0
    0.6810   13.6700   -4.0920 C   0  0  0  0  0  0  0  0  0  0  0  0
   -1.7130   13.1560   -4.6930 C   0  0  0  0  0  0  0  0  0  0  0  0
    2.1670   13.4840   -4.3410 C   0  0  0  0  0  0  0  0  0  0  0  0
    1.4340   12.5350   -3.4360 C   0  0  0  0  0  0  0  0  0  0  0  0
   -0.2800   13.3550   -5.2140 C   0  0  0  0  0  0  0  0  0  0  0  0
  2  1  1  0
  2  3  2  0
  2  4  1  0
  2  5  2  0
  4  6  1  0
  6  7  1  0
  6  8  2  0
  8  9  1  0
  7 10  1  0
  9 10  2  0
 10 11  1  0
  9 12  1  0
 11 13  2  0
 14 12  1  1
 14 13  1  0
 14 15  1  0
 14 16  1  0
 16 17  1  6
 16 18  1  0
 15 19  1  0
 17 20  1  0
 17 21  1  0
 18 22  1  0
 19 22  1  0
 23 21  1  0
 20 24  1  0
 23 25  1  0
 23 26  1  0
 25 26  1  0
 23 27  1  0
 24 27  1  0
M  END
