diamond-x0628_0_A-mac-x0345
     RDKit          3D

 24 25  0  0  0  0  0  0  0  0999 V2000
   -0.8470    8.9940   -7.3840 C   0  0  0  0  0  0  0  0  0  0  0  0
   -0.8230   10.1630   -6.4880 C   0  0  0  0  0  0  0  0  0  0  0  0
   -1.7660   10.3740   -5.5250 N   0  0  0  0  0  0  0  0  0  0  0  0
    0.1300   11.0980   -6.5570 N   0  0  0  0  0  0  0  0  0  0  0  0
   -0.2400   11.9390   -5.5780 N   0  0  0  0  0  0  0  0  0  0  0  0
   -1.3830   11.5000   -4.9560 C   0  0  0  0  0  0  0  0  0  0  0  0
   -2.0640   12.1890   -3.8300 C   0  0  0  0  0  0  0  0  0  0  0  0
    0.5610   13.1250   -5.3170 C   0  0  0  0  0  0  0  0  0  0  0  0
    1.6330   12.9190   -4.2570 C   0  0  0  0  0  0  0  0  0  0  0  0
   -2.6920   13.4960   -4.2900 C   0  0  0  0  0  0  0  0  0  0  0  0
    1.0680   12.2870   -3.0140 C   0  0  0  0  0  0  0  0  0  0  0  0
   -4.1810   13.3710   -4.6010 C   0  0  0  0  0  0  0  0  0  0  0  0
    0.5980   11.1640   -2.9120 O   0  0  0  0  0  0  0  0  0  0  0  0
    1.1240   13.1040   -1.9520 O   0  0  0  0  0  0  0  0  0  0  0  0
   -4.9150   14.7030   -4.6820 C   0  0  0  0  0  0  0  0  0  0  0  0
   -6.0210   14.8420   -3.7240 N   0  0  0  0  0  0  0  0  0  0  0  0
   -5.7000   14.9560   -2.3630 C   0  0  0  0  0  0  0  0  0  0  0  0
   -4.4040   15.3130   -2.0040 C   0  0  0  0  0  0  0  0  0  0  0  0
   -6.6460   14.7140   -1.4430 N   0  0  0  0  0  0  0  0  0  0  0  0
   -6.3320   14.8130   -0.1310 C   0  0  0  0  0  0  0  0  0  0  0  0
   -4.0790   15.4140   -0.6650 C   0  0  0  0  0  0  0  0  0  0  0  0
   -7.4500   14.5240    0.8270 C   0  0  0  0  0  0  0  0  0  0  0  0
   -5.0490   15.1610    0.2780 C   0  0  0  0  0  0  0  0  0  0  0  0
   -4.5350   15.3130    2.0640 Br  0  0  0  0  0  0  0  0  0  0  0  0
  1  2  1  0
  2  3  1  0
  2  4  2  0
  4  5  1  0
  3  6  2  0
  5  6  1  0
  6  7  1  0
  5  8  1  0
  8  9  1  0
  7 10  1  0
  9 11  1  0
 10 12  1  0
 11 13  2  0
 11 14  1  0
 12 15  1  0
 15 16  1  0
 16 17  1  0
 17 18  2  0
 17 19  1  0
 19 20  2  0
 18 21  1  0
 20 22  1  0
 20 23  1  0
 21 23  2  0
 23 24  1  0
M  END
