diamond-x0905_0_A-mac-x0361
     RDKit          3D

 10 10  0  0  0  0  0  0  0  0999 V2000
   -6.9710   14.9480   -0.6500 N   0  0  0  0  0  0  0  0  0  0  0  0
   -7.5630   14.7750    0.4740 C   0  0  0  0  0  0  0  0  0  0  0  0
   -7.0410   14.6390    1.7340 N   0  0  0  0  0  0  0  0  0  0  0  0
   -5.5870   14.9970   -0.6010 C   0  0  0  0  0  0  0  0  0  0  0  0
   -5.0460   14.9530    0.6350 N   0  0  0  0  0  0  0  0  0  0  0  0
   -4.8440   15.0770   -1.7640 C   0  0  0  0  0  0  0  0  0  0  0  0
   -3.7110   14.9790    0.7240 C   0  0  0  0  0  0  0  0  0  0  0  0
   -3.4640   15.1020   -1.6380 C   0  0  0  0  0  0  0  0  0  0  0  0
   -2.6420   15.1740   -2.7370 O   0  0  0  0  0  0  0  0  0  0  0  0
   -2.8810   15.0490   -0.3750 C   0  0  0  0  0  0  0  0  0  0  0  0
  1  2  2  3
  2  3  1  0
  1  4  1  0
  4  5  2  0
  4  6  1  0
  5  7  1  0
  6  8  2  0
  8  9  1  0
  7 10  2  0
  8 10  1  0
M  END
