diamond-x0844_0_A-diamond-x0587_0_A
     RDKit          3D

 14 14  0  0  0  0  0  0  0  0999 V2000
   -7.9780   14.6410   -0.3860 O   0  0  0  0  0  0  0  0  0  0  0  0
   -6.8340   14.7430    0.0440 C   0  0  0  0  0  0  0  0  0  0  0  0
   -6.4910   14.7940    1.3930 N   0  0  0  0  0  0  0  0  0  0  0  0
   -5.7350   14.8270   -0.9600 C   0  0  0  0  0  0  0  0  0  0  0  0
   -7.5570   14.9270    2.3620 C   0  0  0  0  0  0  0  0  0  0  0  0
   -5.1660   15.1820    1.7190 C   0  0  0  0  0  0  0  0  0  0  0  0
   -4.4830   15.1070   -0.5900 C   0  0  0  0  0  0  0  0  0  0  0  0
   -3.4130   15.1880   -1.4280 O   0  0  0  0  0  0  0  0  0  0  0  0
   -7.2610   14.9990    3.6810 N   0  0  0  0  0  0  0  0  0  0  0  0
   -8.7640   14.9950    2.0750 O   0  0  0  0  0  0  0  0  0  0  0  0
   -4.1920   15.3370    0.7940 C   0  0  0  0  0  0  0  0  0  0  0  0
   -3.6540   14.4750   -2.6030 C   0  0  0  0  0  0  0  0  0  0  0  0
   -4.1120   13.2530   -2.2370 F   0  0  0  0  0  0  0  0  0  0  0  0
   -4.6650   15.0880   -3.2540 F   0  0  0  0  0  0  0  0  0  0  0  0
  1  2  2  0
  2  3  1  0
  2  4  1  0
  3  5  1  0
  3  6  1  0
  4  7  2  0
  7  8  1  0
  5  9  1  0
  5 10  2  0
  6 11  2  0
  7 11  1  0
  8 12  1  0
 12 13  1  0
 12 14  1  0
M  END
