diamond-x0742_0_A-mac-x0451
     RDKit          3D

 18 20  0  0  0  0  0  0  0  0999 V2000
   -5.4040   12.1300   -0.9450 C   0  0  0  0  0  0  0  0  0  0  0  0
   -6.3040   11.9690    0.2600 C   0  0  0  0  0  0  0  0  0  0  0  0
   -5.3490   11.2490   -1.8000 O   0  0  0  0  0  0  0  0  0  0  0  0
   -4.5560   13.3850   -1.0870 C   0  0  2  0  0  0  0  0  0  0  0  0
   -4.8090   14.3590    0.0950 C   0  0  2  0  0  0  0  0  0  0  0  0
   -4.8010   14.1860   -2.3640 C   0  0  2  0  0  0  0  0  0  0  0  0
   -3.1260   12.9300   -1.2540 C   0  0  0  0  0  0  0  0  0  0  0  0
   -3.5890   14.3310   -3.0120 F   0  0  0  0  0  0  0  0  0  0  0  0
   -4.6100   15.7280   -0.5510 C   0  0  0  0  0  0  0  0  0  0  0  0
   -2.1230   13.5550   -0.3600 C   0  0  0  0  0  0  0  0  0  0  0  0
   -3.9290   14.1370    1.3290 C   0  0  2  0  0  0  0  0  0  0  0  0
   -5.1440   15.5760   -1.9590 C   0  0  0  0  0  0  0  0  0  0  0  0
   -4.3760   15.1890    2.2740 N   0  0  0  0  0  0  0  0  0  0  0  0
   -0.8130   13.5520   -0.7990 C   0  0  0  0  0  0  0  0  0  0  0  0
   -2.4470   14.1310    0.8850 C   0  0  0  0  0  0  0  0  0  0  0  0
   -1.4750   14.6660    1.6750 N   0  0  0  0  0  0  0  0  0  0  0  0
    0.1610   14.0920   -0.0170 C   0  0  0  0  0  0  0  0  0  0  0  0
   -0.2060   14.6220    1.1960 C   0  0  0  0  0  0  0  0  0  0  0  0
  1  2  1  0
  1  3  2  0
  4  1  1  1
  4  5  1  0
  4  6  1  0
  4  7  1  0
  6  8  1  6
  5  9  1  6
  7 10  1  0
  5 11  1  0
  6 12  1  0
  9 12  1  0
 11 13  1  1
 10 14  2  0
 10 15  1  0
 11 15  1  0
 15 16  2  0
 14 17  1  0
 16 18  1  0
 17 18  2  0
M  END
