diamond-x0895_1_A-mac-x0231
     RDKit          3D

 25 27  0  0  0  0  0  0  0  0999 V2000
   -1.6160   14.7260    1.6830 O   0  0  0  0  0  0  0  0  0  0  0  0
   -2.6680   14.6120    1.0660 C   0  0  0  0  0  0  0  0  0  0  0  0
   -2.8580   14.1700   -0.3840 C   0  0  2  0  0  0  0  0  0  0  0  0
   -3.9140   14.8530    1.5510 N   0  0  0  0  0  0  0  0  0  0  0  0
   -1.6650   14.3820   -1.3100 C   0  0  0  0  0  0  0  0  0  0  0  0
   -4.0570   14.9230   -0.6430 N   0  0  0  0  0  0  0  0  0  0  0  0
   -4.7900   14.9160    0.5190 C   0  0  0  0  0  0  0  0  0  0  0  0
   -6.0040   14.9450    0.6000 O   0  0  0  0  0  0  0  0  0  0  0  0
   -0.2960   14.4850   -0.6010 C   0  0  0  0  0  0  0  0  0  0  0  0
    0.8260   13.8670   -1.4370 C   0  0  0  0  0  0  0  0  0  0  0  0
    0.5700   12.4310   -1.5570 N   0  0  0  0  0  0  0  0  0  0  0  0
    0.8380   11.7810   -2.6390 C   0  0  0  0  0  0  0  0  0  0  0  0
    0.5760   10.4440   -2.6830 O   0  0  0  0  0  0  0  0  0  0  0  0
    1.4440   12.3780   -3.9070 C   0  0  0  0  0  0  0  0  0  0  0  0
    1.0810   13.8170   -4.2340 C   0  0  0  0  0  0  0  0  0  0  0  0
   -0.3100   14.1530   -4.6390 C   0  0  0  0  0  0  0  0  0  0  0  0
    2.0190   14.7170   -4.1280 N   0  0  0  0  0  0  0  0  0  0  0  0
   -0.6290   15.5000   -4.7930 C   0  0  0  0  0  0  0  0  0  0  0  0
    1.6880   16.0100   -4.3990 N   0  0  0  0  0  0  0  0  0  0  0  0
   -1.2930   13.1850   -4.8630 C   0  0  0  0  0  0  0  0  0  0  0  0
    0.4190   16.5080   -4.5670 C   0  0  0  0  0  0  0  0  0  0  0  0
   -1.9290   15.8950   -5.1580 C   0  0  0  0  0  0  0  0  0  0  0  0
   -2.5870   13.5750   -5.2300 C   0  0  0  0  0  0  0  0  0  0  0  0
    0.1630   17.7080   -4.5410 O   0  0  0  0  0  0  0  0  0  0  0  0
   -2.9070   14.9240   -5.3750 C   0  0  0  0  0  0  0  0  0  0  0  0
  1  2  2  0
  2  3  1  0
  2  4  1  0
  3  5  1  6
  3  6  1  0
  4  7  1  0
  6  7  1  0
  7  8  2  0
  5  9  1  0
  9 10  1  0
 10 11  1  0
 11 12  2  3
 12 13  1  0
 12 14  1  0
 14 15  1  0
 15 16  1  0
 15 17  2  0
 16 18  2  0
 17 19  1  0
 16 20  1  0
 18 21  1  0
 19 21  1  0
 18 22  1  0
 20 23  2  0
 21 24  2  0
 22 25  2  0
 23 25  1  0
M  END
