diamond-x0417_0_B-diamond-x0797_0_B
     RDKit          3D

 23 25  0  0  0  0  0  0  0  0999 V2000
   -2.5320   31.0920  -17.1990 N   0  0  0  0  0  0  0  0  0  0  0  0
   -1.3690   31.8700  -17.6010 C   0  0  0  0  0  0  0  0  0  0  0  0
   -2.3900   30.5410  -15.8310 C   0  0  2  0  0  0  0  0  0  0  0  0
   -2.4070   29.0140  -15.7710 C   0  0  0  0  0  0  0  0  0  0  0  0
   -3.6880   30.8600  -15.1130 C   0  0  0  0  0  0  0  0  0  0  0  0
   -4.3640   31.8420  -15.3230 O   0  0  0  0  0  0  0  0  0  0  0  0
   -3.1630   28.6780  -14.4850 C   0  0  0  0  0  0  0  0  0  0  0  0
   -3.9700   29.8480  -14.2090 N   0  0  0  0  0  0  0  0  0  0  0  0
   -5.2810   29.8510  -13.5580 C   0  0  1  0  0  0  0  0  0  0  0  0
   -6.3950   29.2090  -14.3620 C   0  0  0  0  0  0  0  0  0  0  0  0
   -5.3680   29.4110  -12.0860 C   0  0  2  0  0  0  0  0  0  0  0  0
   -4.1540   29.3470  -11.5090 F   0  0  0  0  0  0  0  0  0  0  0  0
   -7.6670   29.2820  -13.5140 C   0  0  1  0  0  0  0  0  0  0  0  0
   -6.0880   28.0930  -11.9230 C   0  0  0  0  0  0  0  0  0  0  0  0
   -8.8550   29.2970  -14.4760 C   0  0  0  0  0  0  0  0  0  0  0  0
   -7.5820   28.1980  -12.3840 C   0  0  2  0  0  0  0  0  0  0  0  0
   -8.1220   26.7940  -12.7160 C   0  0  1  0  0  0  0  0  0  0  0  0
   -8.3770   28.3900  -11.1150 C   0  0  0  0  0  0  0  0  0  0  0  0
   -7.4130   26.0610  -13.8320 C   0  0  0  0  0  0  0  0  0  0  0  0
   -8.2860   27.1200  -10.4180 O   0  0  0  0  0  0  0  0  0  0  0  0
   -7.9720   26.0910  -11.3770 C   0  0  0  0  0  0  0  0  0  0  0  0
   -7.9670   26.1920  -15.0560 O   0  0  0  0  0  0  0  0  0  0  0  0
   -6.4050   25.3950  -13.6460 O   0  0  0  0  0  0  0  0  0  0  0  0
  1  2  1  0
  3  1  1  6
  3  4  1  0
  3  5  1  0
  5  6  2  0
  4  7  1  0
  5  8  1  0
  7  8  1  0
  9  8  1  6
  9 10  1  0
  9 11  1  0
 11 12  1  6
 10 13  1  0
 11 14  1  0
 13 15  1  6
 13 16  1  0
 16 14  1  1
 16 17  1  0
 16 18  1  0
 17 19  1  6
 18 20  1  0
 17 21  1  0
 20 21  1  0
 19 22  1  0
 19 23  2  0
M  END
