diamond-x0950_0_A-diamond-x0900_1_A
     RDKit          3D

 14 14  0  0  0  0  0  0  0  0999 V2000
    3.0100   12.4750   -4.4510 C   0  0  0  0  0  0  0  0  0  0  0  0
    1.5340   12.7860   -4.2650 C   0  0  1  0  0  0  0  0  0  0  0  0
    0.7650   12.2540   -5.3580 O   0  0  0  0  0  0  0  0  0  0  0  0
    1.0080   12.1130   -2.9950 C   0  0  0  0  0  0  0  0  0  0  0  0
    0.5350   10.9880   -2.9420 O   0  0  0  0  0  0  0  0  0  0  0  0
    1.1180   12.9110   -1.9060 O   0  0  0  0  0  0  0  0  0  0  0  0
    0.6580   10.8290   -5.3140 C   0  0  0  0  0  0  0  0  0  0  0  0
    0.7330   10.2880   -6.7330 C   0  0  0  0  0  0  0  0  0  0  0  0
    0.1310    8.8920   -6.9280 C   0  0  2  0  0  0  0  0  0  0  0  0
    0.0260    8.6130   -8.3200 N   0  0  0  0  0  0  0  0  0  0  0  0
   -1.3320    8.7400   -6.5150 C   0  0  0  0  0  0  0  0  0  0  0  0
   -1.0480    9.3220   -8.8030 C   0  0  0  0  0  0  0  0  0  0  0  0
   -2.0920    9.3240   -7.7110 C   0  0  0  0  0  0  0  0  0  0  0  0
   -1.1200    9.8460   -9.8980 O   0  0  0  0  0  0  0  0  0  0  0  0
  2  1  1  6
  2  3  1  0
  2  4  1  0
  4  5  2  0
  4  6  1  0
  3  7  1  0
  7  8  1  0
  9  8  1  6
  9 10  1  0
  9 11  1  0
 10 12  1  0
 11 13  1  0
 12 13  1  0
 12 14  2  0
M  END
