diamond-x0910_0_A-mac-x0455
     RDKit          3D

 17 18  0  0  0  0  0  0  0  0999 V2000
   -1.9400   14.2490   -2.1070 N   0  0  0  0  0  0  0  0  0  0  0  0
   -0.9800   14.2550   -3.2360 C   0  0  1  0  0  0  0  0  0  0  0  0
   -1.2940   15.4260   -3.9760 O   0  0  0  0  0  0  0  0  0  0  0  0
   -1.4990   14.5160   -0.8420 C   0  0  0  0  0  0  0  0  0  0  0  0
    0.4850   14.2850   -2.6580 C   0  0  0  0  0  0  0  0  0  0  0  0
   -2.2650   14.6840    0.2910 N   0  0  0  0  0  0  0  0  0  0  0  0
   -0.2400   14.6580   -0.5080 N   0  0  0  0  0  0  0  0  0  0  0  0
   -1.0490   13.0370   -4.1890 C   0  0  0  0  0  0  0  0  0  0  0  0
    1.2150   15.2430   -2.5250 O   0  0  0  0  0  0  0  0  0  0  0  0
    0.9410   13.0670   -2.2730 O   0  0  0  0  0  0  0  0  0  0  0  0
   -1.4930   14.9320    1.3640 N   0  0  0  0  0  0  0  0  0  0  0  0
   -0.2740   14.9090    0.8290 C   0  0  0  0  0  0  0  0  0  0  0  0
   -2.1170   12.1160   -4.1840 C   0  0  0  0  0  0  0  0  0  0  0  0
   -0.0030   12.8070   -5.1170 C   0  0  0  0  0  0  0  0  0  0  0  0
   -2.1320   11.0230   -5.0620 C   0  0  0  0  0  0  0  0  0  0  0  0
   -0.0220   11.7180   -5.9910 C   0  0  0  0  0  0  0  0  0  0  0  0
   -1.0890   10.8230   -5.9610 C   0  0  0  0  0  0  0  0  0  0  0  0
  1  2  1  0
  2  3  1  6
  1  4  1  0
  2  5  1  0
  4  6  1  0
  4  7  2  0
  2  8  1  0
  5  9  2  0
  5 10  1  0
  6 11  1  0
  7 12  1  0
 11 12  2  0
  8 13  2  0
  8 14  1  0
 13 15  1  0
 14 16  2  0
 15 17  2  0
 16 17  1  0
M  END
