diamond-x0849_0_A-mac-x0436
     RDKit          3D

 28 31  0  0  0  0  0  0  0  0999 V2000
   -3.8290   15.1730   -2.8900 Br  0  0  0  0  0  0  0  0  0  0  0  0
   -3.6880   15.1270   -1.0010 C   0  0  0  0  0  0  0  0  0  0  0  0
   -2.4630   14.9030   -0.3710 C   0  0  0  0  0  0  0  0  0  0  0  0
   -4.8400   15.3230   -0.2620 C   0  0  0  0  0  0  0  0  0  0  0  0
   -2.4580   14.8790    1.0260 C   0  0  0  0  0  0  0  0  0  0  0  0
   -4.7080   15.2790    1.1020 C   0  0  0  0  0  0  0  0  0  0  0  0
   -1.2510   14.7090   -1.0570 C   0  0  0  0  0  0  0  0  0  0  0  0
   -3.5510   15.0630    1.7270 N   0  0  0  0  0  0  0  0  0  0  0  0
   -1.3650   14.6740    1.7140 N   0  0  0  0  0  0  0  0  0  0  0  0
   -0.0960   14.5100   -0.3470 C   0  0  0  0  0  0  0  0  0  0  0  0
    1.2330   14.3100   -1.0050 C   0  0  0  0  0  0  0  0  0  0  0  0
   -0.2290   14.5030    1.0420 C   0  0  0  0  0  0  0  0  0  0  0  0
    1.3050   14.1240   -2.4470 N   0  0  0  0  0  0  0  0  0  0  0  0
    1.2820   12.9790   -3.0410 C   0  0  0  0  0  0  0  0  0  0  0  0
    1.1440   11.7670   -2.4700 O   0  0  0  0  0  0  0  0  0  0  0  0
    1.4430   12.9820   -4.5310 C   0  0  0  0  0  0  0  0  0  0  0  0
    0.1360   13.2350   -5.2430 C   0  0  0  0  0  0  0  0  0  0  0  0
   -0.5390   11.9410   -5.6070 C   0  0  0  0  0  0  0  0  0  0  0  0
   -1.7780   11.5400   -4.8100 C   0  0  0  0  0  0  0  0  0  0  0  0
   -0.0420   11.2260   -6.5710 N   0  0  0  0  0  0  0  0  0  0  0  0
   -2.1500   12.2070   -3.8590 O   0  0  0  0  0  0  0  0  0  0  0  0
   -2.4110   10.4050   -5.2380 N   0  0  0  0  0  0  0  0  0  0  0  0
   -0.6940   10.0300   -6.8950 C   0  0  0  0  0  0  0  0  0  0  0  0
   -1.8640    9.6100   -6.2490 C   0  0  0  0  0  0  0  0  0  0  0  0
   -0.1530    9.2310   -7.9020 C   0  0  0  0  0  0  0  0  0  0  0  0
   -0.7760    8.0350   -8.2590 C   0  0  0  0  0  0  0  0  0  0  0  0
   -2.4930    8.4180   -6.5970 C   0  0  0  0  0  0  0  0  0  0  0  0
   -1.9430    7.6300   -7.6090 C   0  0  0  0  0  0  0  0  0  0  0  0
  1  2  1  0
  2  3  2  0
  2  4  1  0
  3  5  1  0
  4  6  2  0
  3  7  1  0
  5  8  2  0
  6  8  1  0
  5  9  1  0
  7 10  2  0
 10 11  1  0
  9 12  2  0
 10 12  1  0
 11 13  1  0
 13 14  2  3
 14 15  1  0
 14 16  1  0
 16 17  1  0
 17 18  1  0
 18 19  1  0
 18 20  2  0
 19 21  2  0
 19 22  1  0
 20 23  1  0
 22 24  1  0
 23 24  2  0
 23 25  1  0
 25 26  2  0
 24 27  1  0
 26 28  1  0
 27 28  2  0
M  END
