diamond-x0844_0_A-mac-x0496
     RDKit          3D

 19 20  0  0  0  0  0  0  0  0999 V2000
   -7.1420   14.6850   -0.0270 N   0  0  0  0  0  0  0  0  0  0  0  0
   -7.3420   13.9530    1.0000 C   0  0  0  0  0  0  0  0  0  0  0  0
   -8.4550   13.4770    1.5640 N   0  0  0  0  0  0  0  0  0  0  0  0
   -5.7980   14.8650   -0.1350 C   0  0  0  0  0  0  0  0  0  0  0  0
   -5.1940   15.0130    1.0560 N   0  0  0  0  0  0  0  0  0  0  0  0
   -5.1460   14.8720   -1.3420 C   0  0  0  0  0  0  0  0  0  0  0  0
   -9.6910   14.1820    1.4340 C   0  0  0  0  0  0  0  0  0  0  0  0
   -3.8730   15.1550    1.0700 C   0  0  0  0  0  0  0  0  0  0  0  0
   -3.7630   15.0230   -1.3040 C   0  0  0  0  0  0  0  0  0  0  0  0
   -2.9270   15.0390   -2.5270 C   0  0  0  0  0  0  0  0  0  0  0  0
   -3.1170   15.1620   -0.0690 C   0  0  0  0  0  0  0  0  0  0  0  0
   -9.9070   15.3330    2.3400 C   0  0  0  0  0  0  0  0  0  0  0  0
   -1.7280   14.8170   -2.5690 O   0  0  0  0  0  0  0  0  0  0  0  0
   -3.6170   15.3310   -3.6400 O   0  0  0  0  0  0  0  0  0  0  0  0
  -11.0900   15.9760    2.1730 O   0  0  0  0  0  0  0  0  0  0  0  0
   -9.1520   15.8520    3.2890 N   0  0  0  0  0  0  0  0  0  0  0  0
   -9.9350   16.8830    3.7380 C   0  0  0  0  0  0  0  0  0  0  0  0
  -11.1050   17.0030    3.1110 N   0  0  0  0  0  0  0  0  0  0  0  0
   -9.5210   17.7890    4.8270 C   0  0  0  0  0  0  0  0  0  0  0  0
  1  2  2  3
  2  3  1  0
  1  4  1  0
  4  5  2  0
  4  6  1  0
  3  7  1  0
  5  8  1  0
  6  9  2  0
  9 10  1  0
  8 11  2  0
  9 11  1  0
  7 12  1  0
 10 13  2  0
 10 14  1  0
 12 15  1  0
 12 16  2  0
 16 17  1  0
 15 18  1  0
 17 18  2  0
 17 19  1  0
M  END
