diamond-x0950_0_A-mac-x0180
     RDKit          3D

 20 20  0  0  0  0  0  0  0  0999 V2000
    3.0180   12.4420   -4.3490 C   0  0  0  0  0  0  0  0  0  0  0  0
    1.5110   12.6230   -4.3510 C   0  0  1  0  0  0  0  0  0  0  0  0
    0.9770   12.0750   -5.5530 O   0  0  0  0  0  0  0  0  0  0  0  0
    0.9260   11.9910   -3.0770 C   0  0  0  0  0  0  0  0  0  0  0  0
    0.5740   10.8210   -3.0040 O   0  0  0  0  0  0  0  0  0  0  0  0
    0.8540   12.8800   -2.0380 O   0  0  0  0  0  0  0  0  0  0  0  0
    1.2290   14.2390   -2.3140 C   0  0  0  0  0  0  0  0  0  0  0  0
    0.1600   15.1370   -1.9950 O   0  0  0  0  0  0  0  0  0  0  0  0
   -0.9910   14.9620   -2.6920 C   0  0  0  0  0  0  0  0  0  0  0  0
   -1.0960   14.8770   -3.9050 O   0  0  0  0  0  0  0  0  0  0  0  0
   -2.1460   14.9150   -1.7480 C   0  0  0  0  0  0  0  0  0  0  0  0
   -1.9630   14.7870   -0.3630 C   0  0  0  0  0  0  0  0  0  0  0  0
   -3.4500   15.0060   -2.2540 C   0  0  0  0  0  0  0  0  0  0  0  0
   -3.0580   14.7460    0.5010 C   0  0  0  0  0  0  0  0  0  0  0  0
   -4.5420   14.9640   -1.3820 C   0  0  0  0  0  0  0  0  0  0  0  0
   -4.3560   14.8310    0.0060 C   0  0  0  0  0  0  0  0  0  0  0  0
   -5.5000   14.7860    0.8250 N   0  0  0  0  0  0  0  0  0  0  0  0
   -6.8100   14.6920    0.3720 C   0  0  0  0  0  0  0  0  0  0  0  0
   -7.8020   14.4920    1.4870 C   0  0  0  0  0  0  0  0  0  0  0  0
   -7.1890   14.7600   -0.7920 O   0  0  0  0  0  0  0  0  0  0  0  0
  2  1  1  6
  2  3  1  0
  2  4  1  0
  4  5  2  0
  4  6  1  0
  6  7  1  0
  7  8  1  0
  8  9  1  0
  9 10  2  0
  9 11  1  0
 11 12  2  0
 11 13  1  0
 12 14  1  0
 13 15  2  0
 14 16  2  0
 15 16  1  0
 16 17  1  0
 17 18  1  0
 18 19  1  0
 18 20  2  0
M  END
