diamond-x0895_1_A-mac-x0385
     RDKit          3D

  8  8  0  0  0  0  0  0  0  0999 V2000
   -1.6070   14.8180    1.9620 O   0  0  0  0  0  0  0  0  0  0  0  0
   -2.5620   14.9830    1.2350 C   0  0  0  0  0  0  0  0  0  0  0  0
   -2.4540   15.3570   -0.2170 C   0  0  1  0  0  0  0  0  0  0  0  0
   -3.8710   14.8540    1.5430 N   0  0  0  0  0  0  0  0  0  0  0  0
   -1.1210   14.8090   -0.7120 C   0  0  0  0  0  0  0  0  0  0  0  0
   -3.6900   14.7380   -0.6520 N   0  0  0  0  0  0  0  0  0  0  0  0
   -4.5910   14.7640    0.4010 C   0  0  0  0  0  0  0  0  0  0  0  0
   -5.8080   14.7180    0.3280 O   0  0  0  0  0  0  0  0  0  0  0  0
  1  2  2  0
  2  3  1  0
  2  4  1  0
  3  5  1  6
  3  6  1  0
  4  7  1  0
  6  7  1  0
  7  8  2  0
M  END
