diamond-x0766_0_A-diamond-x0950_0_A
     RDKit          3D

 16 17  0  0  0  0  0  0  0  0999 V2000
    0.7850   12.6110   -3.2510 C   0  0  0  0  0  0  0  0  0  0  0  0
    1.4430   11.9370   -2.2210 O   0  0  0  0  0  0  0  0  0  0  0  0
   -0.5260   12.0810   -3.2700 O   0  0  0  0  0  0  0  0  0  0  0  0
    1.4820   12.3840   -4.6200 C   0  0  1  0  0  0  0  0  0  0  0  0
    0.9360   14.0790   -2.9670 C   0  0  1  0  0  0  0  0  0  0  0  0
    2.9100   11.8700   -4.5510 C   0  0  0  0  0  0  0  0  0  0  0  0
    0.6560   11.5210   -5.4120 O   0  0  0  0  0  0  0  0  0  0  0  0
    1.9330   14.7300   -3.9180 C   0  0  0  0  0  0  0  0  0  0  0  0
   -0.2160   15.0630   -3.0190 C   0  0  1  0  0  0  0  0  0  0  0  0
    1.0760   15.2870   -5.0410 C   0  0  0  0  0  0  0  0  0  0  0  0
   -0.3600   15.2840   -4.5160 C   0  0  0  0  0  0  0  0  0  0  0  0
   -1.4690   14.8380   -2.2180 C   0  0  0  0  0  0  0  0  0  0  0  0
   -2.7620   14.8320   -2.7190 C   0  0  0  0  0  0  0  0  0  0  0  0
   -1.4830   14.6160   -0.8020 C   0  0  0  0  0  0  0  0  0  0  0  0
   -2.7480   14.4630   -0.2940 C   0  0  0  0  0  0  0  0  0  0  0  0
   -3.9390   14.5780   -1.5080 S   0  0  0  0  0  0  0  0  0  0  0  0
  1  2  1  0
  1  3  1  0
  1  4  1  0
  5  1  1  6
  4  6  1  1
  4  7  1  0
  5  8  1  0
  5  9  1  0
  8 10  1  0
  9 11  1  0
 10 11  1  0
  9 12  1  6
 12 13  2  0
 12 14  1  0
 14 15  2  0
 13 16  1  0
 15 16  1  0
M  END
