diamond-x0950_1_A-mac-x0255
     RDKit          3D

 15 16  0  0  0  0  0  0  0  0999 V2000
    2.5960   12.9470   -4.4760 C   0  0  0  0  0  0  0  0  0  0  0  0
    1.1070   12.7470   -4.3510 C   0  0  1  0  0  0  0  0  0  0  0  0
    0.6970   11.7930   -5.3580 O   0  0  0  0  0  0  0  0  0  0  0  0
    0.7840   12.1660   -2.9600 C   0  0  0  0  0  0  0  0  0  0  0  0
    0.4350   14.0640   -4.6240 C   0  0  0  0  0  0  0  0  0  0  0  0
    0.1200   11.1680   -2.7260 O   0  0  0  0  0  0  0  0  0  0  0  0
    1.3540   12.9120   -1.9770 O   0  0  0  0  0  0  0  0  0  0  0  0
    1.0450   15.2900   -4.7820 C   0  0  0  0  0  0  0  0  0  0  0  0
   -1.2640   14.1990   -4.7950 S   0  0  0  0  0  0  0  0  0  0  0  0
    0.1380   16.3470   -5.0660 C   0  0  0  0  0  0  0  0  0  0  0  0
   -1.1770   15.8880   -5.1040 C   0  0  0  0  0  0  0  0  0  0  0  0
    0.3900   17.7100   -5.3040 C   0  0  0  0  0  0  0  0  0  0  0  0
   -2.2480   16.7570   -5.3750 C   0  0  0  0  0  0  0  0  0  0  0  0
   -0.6690   18.5690   -5.5800 C   0  0  0  0  0  0  0  0  0  0  0  0
   -1.9620   18.1010   -5.6160 C   0  0  0  0  0  0  0  0  0  0  0  0
  2  1  1  1
  2  3  1  0
  2  4  1  0
  2  5  1  0
  4  6  2  0
  4  7  1  0
  5  8  2  0
  5  9  1  0
  8 10  1  0
  9 11  1  0
 10 11  2  0
 10 12  1  0
 11 13  1  0
 12 14  2  0
 13 15  2  0
 14 15  1  0
M  END
