diamond-x1015_0_A-mac-x0412
     RDKit          3D

 28 31  0  0  0  0  0  0  0  0999 V2000
   -1.5340   14.1340   -4.0890 C   0  0  0  0  0  0  0  0  0  0  0  0
   -0.1610   13.4740   -4.0820 C   0  0  2  0  0  0  0  0  0  0  0  0
   -0.2380   12.0280   -3.9960 N   0  0  0  0  0  0  0  0  0  0  0  0
    0.5770   13.6970   -2.7790 C   0  0  0  0  0  0  0  0  0  0  0  0
    0.5090   14.7270   -2.0690 N   0  0  0  0  0  0  0  0  0  0  0  0
    0.4650   11.5750   -2.8660 C   0  0  0  0  0  0  0  0  0  0  0  0
    1.2870   12.5950   -2.5180 N   0  0  0  0  0  0  0  0  0  0  0  0
   -0.6000   11.2570   -5.1060 C   0  0  0  0  0  0  0  0  0  0  0  0
    0.4050   10.5070   -2.2550 O   0  0  0  0  0  0  0  0  0  0  0  0
   -0.3870   15.7910   -2.4600 C   0  0  0  0  0  0  0  0  0  0  0  0
   -0.0130   11.4940   -6.3590 C   0  0  0  0  0  0  0  0  0  0  0  0
   -1.5520   10.2410   -5.0000 C   0  0  0  0  0  0  0  0  0  0  0  0
   -1.1940   15.8700   -1.1810 C   0  0  0  0  0  0  0  0  0  0  0  0
   -0.3690   10.7350   -7.4710 C   0  0  0  0  0  0  0  0  0  0  0  0
   -1.9110    9.4790   -6.1080 C   0  0  0  0  0  0  0  0  0  0  0  0
   -1.3200    9.7280   -7.3390 C   0  0  0  0  0  0  0  0  0  0  0  0
   -2.6790   15.5750   -1.0140 C   0  0  0  0  0  0  0  0  0  0  0  0
   -1.7680    8.7860   -8.7010 Cl  0  0  0  0  0  0  0  0  0  0  0  0
   -3.1440   15.5480    0.2220 C   0  0  0  0  0  0  0  0  0  0  0  0
   -3.6090   15.3130   -2.1300 C   0  0  0  0  0  0  0  0  0  0  0  0
   -4.5060   15.2880    0.5320 C   0  0  0  0  0  0  0  0  0  0  0  0
   -4.9540   15.2990   -1.9140 C   0  0  0  0  0  0  0  0  0  0  0  0
   -5.5290   15.5720   -0.5400 C   0  0  1  0  0  0  0  0  0  0  0  0
   -4.7990   14.8240    1.7300 C   0  0  0  0  0  0  0  0  0  0  0  0
   -6.9000   14.9100   -0.1720 C   0  0  0  0  0  0  0  0  0  0  0  0
   -6.2100   14.5870    2.0190 C   0  0  0  0  0  0  0  0  0  0  0  0
   -7.7400   14.6590   -1.0230 O   0  0  0  0  0  0  0  0  0  0  0  0
   -7.1750   14.6210    1.1670 N   0  0  0  0  0  0  0  0  0  0  0  0
  2  1  1  1
  2  3  1  0
  2  4  1  0
  4  5  2  3
  3  6  1  0
  4  7  1  0
  6  7  1  0
  3  8  1  0
  6  9  2  0
  5 10  1  0
  8 11  2  0
  8 12  1  0
 10 13  1  0
 11 14  1  0
 12 15  2  0
 14 16  2  0
 15 16  1  0
 13 17  1  0
 16 18  1  0
 17 19  2  0
 17 20  1  0
 19 21  1  0
 20 22  2  0
 21 23  1  0
 23 22  1  6
 21 24  2  0
 23 25  1  0
 24 26  1  0
 25 27  2  0
 25 28  1  0
 26 28  2  0
M  END
