diamond-x0967_0_A-mac-x0224
     RDKit          3D

 22 24  0  0  0  0  0  0  0  0999 V2000
   -3.6290   14.5930    1.7370 C   0  0  0  0  0  0  0  0  0  0  0  0
   -2.0820   15.3790    1.2850 S   0  0  0  0  0  0  0  0  0  0  0  0
   -2.1240   15.2890   -0.4740 C   0  0  0  0  0  0  0  0  0  0  0  0
   -4.3950   14.5000    0.5030 C   0  0  0  0  0  0  0  0  0  0  0  0
   -5.7670   14.5550    0.5010 C   0  0  0  0  0  0  0  0  0  0  0  0
   -3.7030   14.3550   -0.6860 C   0  0  0  0  0  0  0  0  0  0  0  0
   -6.4240   14.4750   -0.7290 C   0  0  0  0  0  0  0  0  0  0  0  0
   -6.5310   14.6860    1.6680 C   0  0  0  0  0  0  0  0  0  0  0  0
   -4.4280   14.2820   -1.8460 C   0  0  0  0  0  0  0  0  0  0  0  0
   -1.0060   14.7530   -1.0300 C   0  0  0  0  0  0  0  0  0  0  0  0
   -3.1870   15.7120   -1.2930 C   0  0  0  0  0  0  0  0  0  0  0  0
   -7.7450   14.5230   -0.7960 N   0  0  0  0  0  0  0  0  0  0  0  0
   -7.9020   14.7300    1.5950 C   0  0  0  0  0  0  0  0  0  0  0  0
   -5.7640   14.3450   -1.8740 N   0  0  0  0  0  0  0  0  0  0  0  0
   -0.8810   14.6040   -2.3900 C   0  0  0  0  0  0  0  0  0  0  0  0
   -3.0810   15.5660   -2.6910 C   0  0  0  0  0  0  0  0  0  0  0  0
    0.4060   14.0060   -2.7900 C   0  0  0  0  0  0  0  0  0  0  0  0
   -8.4570   14.6470    0.3420 C   0  0  0  0  0  0  0  0  0  0  0  0
   -1.9170   15.0050   -3.2270 C   0  0  0  0  0  0  0  0  0  0  0  0
   -1.7910   14.8510   -4.5870 O   0  0  0  0  0  0  0  0  0  0  0  0
    1.2210   13.6470   -1.9590 O   0  0  0  0  0  0  0  0  0  0  0  0
    0.6120   13.8880   -4.1070 O   0  0  0  0  0  0  0  0  0  0  0  0
  1  2  1  0
  2  3  1  0
  1  4  1  0
  4  5  1  0
  4  6  2  0
  5  7  2  0
  5  8  1  0
  6  9  1  0
  3 10  2  0
  3 11  1  0
  7 12  1  0
  8 13  2  0
  7 14  1  0
  9 14  2  0
 10 15  1  0
 11 16  2  0
 15 17  1  0
 12 18  2  0
 13 18  1  0
 15 19  2  0
 16 19  1  0
 19 20  1  0
 17 21  2  0
 17 22  1  0
M  END
