diamond-x0805_0_A-mac-x0411
     RDKit          3D

 28 30  0  0  0  0  0  0  0  0999 V2000
   -4.3290   15.5880    0.7440 C   0  0  0  0  0  0  0  0  0  0  0  0
   -3.0600   15.1600    0.2800 O   0  0  0  0  0  0  0  0  0  0  0  0
   -2.9580   14.7900   -1.0280 C   0  0  0  0  0  0  0  0  0  0  0  0
   -4.1620   14.4960   -1.6690 C   0  0  0  0  0  0  0  0  0  0  0  0
   -1.7570   14.6940   -1.7280 C   0  0  0  0  0  0  0  0  0  0  0  0
   -4.1580   14.1190   -3.0020 C   0  0  0  0  0  0  0  0  0  0  0  0
   -1.7210   14.3140   -3.0650 C   0  0  0  0  0  0  0  0  0  0  0  0
   -2.9540   14.0330   -3.6950 C   0  0  0  0  0  0  0  0  0  0  0  0
   -0.4230   14.1880   -3.8680 C   0  0  2  0  0  0  0  0  0  0  0  0
    0.7930   13.5930   -3.1600 C   0  0  1  0  0  0  0  0  0  0  0  0
    0.0110   15.5450   -4.4510 C   0  0  0  0  0  0  0  0  0  0  0  0
    0.5350   12.3810   -2.3210 C   0  0  0  0  0  0  0  0  0  0  0  0
    1.9090   13.4210   -4.1460 C   0  0  0  0  0  0  0  0  0  0  0  0
    1.5220   15.7920   -4.5160 C   0  0  0  0  0  0  0  0  0  0  0  0
    0.1880   11.2530   -2.9790 N   0  0  0  0  0  0  0  0  0  0  0  0
    0.6360   12.5180   -1.1210 O   0  0  0  0  0  0  0  0  0  0  0  0
    2.4520   14.7010   -4.3260 O   0  0  0  0  0  0  0  0  0  0  0  0
    0.2860   11.1150   -4.2590 C   0  0  0  0  0  0  0  0  0  0  0  0
    0.7790   12.0170   -5.3850 C   0  0  0  0  0  0  0  0  0  0  0  0
    0.4520   11.3880   -6.6220 O   0  0  0  0  0  0  0  0  0  0  0  0
   -0.6570   10.6060   -6.4730 C   0  0  0  0  0  0  0  0  0  0  0  0
   -1.8260   11.1230   -5.9070 C   0  0  0  0  0  0  0  0  0  0  0  0
   -0.6400    9.2720   -6.8900 C   0  0  0  0  0  0  0  0  0  0  0  0
    0.7440    8.5460   -7.6290 Cl  0  0  0  0  0  0  0  0  0  0  0  0
   -1.9310   12.7560   -5.3980 Cl  0  0  0  0  0  0  0  0  0  0  0  0
   -2.9520   10.3260   -5.7430 C   0  0  0  0  0  0  0  0  0  0  0  0
   -1.7700    8.4750   -6.7220 C   0  0  0  0  0  0  0  0  0  0  0  0
   -2.9260    8.9990   -6.1470 C   0  0  0  0  0  0  0  0  0  0  0  0
  1  2  1  0
  2  3  1  0
  3  4  2  0
  3  5  1  0
  4  6  1  0
  5  7  2  0
  6  8  2  0
  7  8  1  0
  9  7  1  1
  9 10  1  0
  9 11  1  0
 10 12  1  6
 10 13  1  0
 11 14  1  0
 12 15  1  0
 12 16  2  0
 13 17  1  0
 14 17  1  0
 15 18  2  3
 18 19  1  0
 19 20  1  0
 20 21  1  0
 21 22  2  0
 21 23  1  0
 23 24  1  0
 22 25  1  0
 22 26  1  0
 23 27  2  0
 26 28  2  0
 27 28  1  0
M  END
