diamond-x0438_0_A-mac-x0338
     RDKit          3D

 17 18  0  0  0  0  0  0  0  0999 V2000
   -8.1800   15.3830    3.6810 C   0  0  0  0  0  0  0  0  0  0  0  0
   -9.4980   15.3020    2.4770 S   0  0  0  0  0  0  0  0  0  0  0  0
  -10.6940   14.8270    3.1460 O   0  0  0  0  0  0  0  0  0  0  0  0
   -9.0330   14.0520    1.2870 C   0  0  0  0  0  0  0  0  0  0  0  0
   -9.5460   16.5570    1.7640 O   0  0  0  0  0  0  0  0  0  0  0  0
   -7.7360   14.3750    0.6420 C   0  0  0  0  0  0  0  0  0  0  0  0
   -7.5390   14.4970   -0.7250 N   0  0  0  0  0  0  0  0  0  0  0  0
   -6.6250   14.5790    1.2760 N   0  0  0  0  0  0  0  0  0  0  0  0
   -5.6870   14.8310    0.3050 C   0  0  0  0  0  0  0  0  0  0  0  0
   -6.2100   14.7880   -0.9510 C   0  0  0  0  0  0  0  0  0  0  0  0
   -5.4310   15.0110   -2.0960 C   0  0  0  0  0  0  0  0  0  0  0  0
   -4.3700   15.1020    0.4750 C   0  0  0  0  0  0  0  0  0  0  0  0
   -3.9540   15.1510    1.8250 C   0  0  0  0  0  0  0  0  0  0  0  0
   -4.0660   15.2730   -1.8960 C   0  0  0  0  0  0  0  0  0  0  0  0
   -3.5340   15.3140   -0.6130 C   0  0  0  0  0  0  0  0  0  0  0  0
   -2.9020   14.4060    2.1790 N   0  0  0  0  0  0  0  0  0  0  0  0
   -4.5880   15.8510    2.5930 O   0  0  0  0  0  0  0  0  0  0  0  0
  2  1  1  0
  2  3  2  0
  2  4  1  0
  2  5  2  0
  4  6  1  0
  6  7  1  0
  6  8  2  0
  8  9  1  0
  7 10  1  0
  9 10  2  0
 10 11  1  0
  9 12  1  0
 12 13  1  0
 11 14  2  0
 12 15  2  0
 14 15  1  0
 13 16  1  0
 13 17  2  0
M  END
