diamond-x0895_0_A-mac-x0379
     RDKit          3D

 15 16  0  0  0  0  0  0  0  0999 V2000
   -1.3670   14.4990    1.9260 O   0  0  0  0  0  0  0  0  0  0  0  0
   -2.3830   14.5380    1.2690 C   0  0  0  0  0  0  0  0  0  0  0  0
   -3.7090   15.1420    1.6200 C   0  0  0  0  0  0  0  0  0  0  0  0
   -2.5850   14.0090    0.0210 N   0  0  0  0  0  0  0  0  0  0  0  0
   -4.6130   14.1670    1.0010 N   0  0  0  0  0  0  0  0  0  0  0  0
   -3.8780   13.4480   -0.0340 C   0  0  1  0  0  0  0  0  0  0  0  0
   -4.5690   13.6840   -1.2460 N   0  0  0  0  0  0  0  0  0  0  0  0
   -5.1200   14.9640   -1.0560 C   0  0  2  0  0  0  0  0  0  0  0  0
   -3.7900   13.5910   -2.5190 C   0  0  0  0  0  0  0  0  0  0  0  0
   -6.2800   15.4410   -1.8820 C   0  0  0  0  0  0  0  0  0  0  0  0
   -3.1450   14.9330   -2.8370 C   0  0  1  0  0  0  0  0  0  0  0  0
   -3.6020   15.8330   -1.3420 S   0  0  0  0  0  0  0  0  0  0  0  0
   -1.6420   14.8840   -3.2210 C   0  0  0  0  0  0  0  0  0  0  0  0
   -1.1900   14.6890   -4.3380 O   0  0  0  0  0  0  0  0  0  0  0  0
   -0.7470   15.0890   -2.2190 O   0  0  0  0  0  0  0  0  0  0  0  0
  1  2  2  0
  2  3  1  0
  2  4  1  0
  3  5  1  0
  4  6  1  0
  5  6  1  0
  6  7  1  6
  7  8  1  0
  7  9  1  0
  8 10  1  6
  9 11  1  0
  8 12  1  0
 11 12  1  0
 11 13  1  1
 13 14  2  0
 13 15  1  0
M  END
