diamond-x0864_0_A-mac-x0387
     RDKit          3D

 24 26  0  0  0  0  0  0  0  0999 V2000
    1.4640   11.7600   -6.8760 O   0  0  0  0  0  0  0  0  0  0  0  0
    0.4100   11.2520   -6.5140 C   0  0  0  0  0  0  0  0  0  0  0  0
   -0.3150   11.6600   -5.4100 N   0  0  0  0  0  0  0  0  0  0  0  0
   -0.1500   10.1120   -7.2700 C   0  0  0  0  0  0  0  0  0  0  0  0
    0.2970   12.6460   -4.5530 C   0  0  0  0  0  0  0  0  0  0  0  0
   -1.4750   11.0440   -4.9980 C   0  0  0  0  0  0  0  0  0  0  0  0
   -1.2850    9.5310   -6.8540 C   0  0  0  0  0  0  0  0  0  0  0  0
    0.5740   12.1490   -3.1420 C   0  0  0  0  0  0  0  0  0  0  0  0
   -2.0390    8.0870   -7.7560 Br  0  0  0  0  0  0  0  0  0  0  0  0
   -1.9690   10.0090   -5.6770 C   0  0  0  0  0  0  0  0  0  0  0  0
    0.6570   10.8250   -2.9590 O   0  0  0  0  0  0  0  0  0  0  0  0
    0.6920   12.9960   -2.2220 N   0  0  0  0  0  0  0  0  0  0  0  0
    0.4800   14.3870   -2.5550 C   0  0  0  0  0  0  0  0  0  0  0  0
   -0.9390   14.6800   -2.1340 C   0  0  0  0  0  0  0  0  0  0  0  0
   -1.1980   14.6810   -0.7530 C   0  0  0  0  0  0  0  0  0  0  0  0
   -1.9830   14.9370   -3.0500 C   0  0  0  0  0  0  0  0  0  0  0  0
   -2.4990   14.9490   -0.2810 C   0  0  0  0  0  0  0  0  0  0  0  0
   -0.1880   14.4210    0.1800 C   0  0  0  0  0  0  0  0  0  0  0  0
   -3.2740   15.1980   -2.5890 C   0  0  0  0  0  0  0  0  0  0  0  0
   -2.6950   14.9510    1.1090 C   0  0  0  0  0  0  0  0  0  0  0  0
   -0.4870   14.4330    1.5140 C   0  0  0  0  0  0  0  0  0  0  0  0
   -3.5310   15.2070   -1.2150 C   0  0  0  0  0  0  0  0  0  0  0  0
   -3.9410   15.2360    1.6670 N   0  0  0  0  0  0  0  0  0  0  0  0
   -1.7150   14.6920    1.9890 N   0  0  0  0  0  0  0  0  0  0  0  0
  1  2  2  0
  2  3  1  0
  2  4  1  0
  3  5  1  0
  3  6  1  0
  4  7  2  0
  5  8  1  0
  7  9  1  0
  6 10  2  0
  7 10  1  0
  8 11  1  0
  8 12  2  3
 12 13  1  0
 13 14  1  0
 14 15  1  0
 14 16  2  0
 15 17  2  0
 15 18  1  0
 16 19  1  0
 17 20  1  0
 18 21  2  0
 17 22  1  0
 19 22  2  0
 20 23  1  0
 20 24  2  0
 21 24  1  0
M  END
