diamond-x0471_0_A-mac-x0305
     RDKit          3D

 20 21  0  0  0  0  0  0  0  0999 V2000
   -8.0970   14.3040    3.0230 N   0  0  0  0  0  0  0  0  0  0  0  0
   -8.8330   15.0100    3.9290 C   0  0  0  0  0  0  0  0  0  0  0  0
   -9.5180   15.9840    3.6130 O   0  0  0  0  0  0  0  0  0  0  0  0
   -8.2440   14.5850    1.6160 C   0  0  0  0  0  0  0  0  0  0  0  0
   -8.7460   14.4890    5.3510 C   0  0  0  0  0  0  0  0  0  0  0  0
   -6.8960   14.6510    0.9850 C   0  0  0  0  0  0  0  0  0  0  0  0
  -10.0200   13.7440    5.7490 C   0  0  0  0  0  0  0  0  0  0  0  0
   -8.4110   15.6200    6.3130 C   0  0  0  0  0  0  0  0  0  0  0  0
   -6.7690   14.8440   -0.3590 N   0  0  0  0  0  0  0  0  0  0  0  0
   -5.7060   14.5450    1.5590 N   0  0  0  0  0  0  0  0  0  0  0  0
   -4.7540   14.6470    0.5510 C   0  0  0  0  0  0  0  0  0  0  0  0
   -5.4320   14.8410   -0.6590 C   0  0  0  0  0  0  0  0  0  0  0  0
   -4.8010   14.9850   -1.8800 C   0  0  0  0  0  0  0  0  0  0  0  0
   -3.3000   14.5800    0.5590 C   0  0  0  0  0  0  0  0  0  0  0  0
   -2.5720   14.4020    1.7420 O   0  0  0  0  0  0  0  0  0  0  0  0
   -3.4110   14.8940   -1.8790 C   0  0  0  0  0  0  0  0  0  0  0  0
   -2.6470   14.6830   -0.7190 C   0  0  0  0  0  0  0  0  0  0  0  0
   -1.1540   14.5670   -1.0160 C   0  0  0  0  0  0  0  0  0  0  0  0
   -0.4530   13.8560   -0.1040 O   0  0  0  0  0  0  0  0  0  0  0  0
   -0.5700   14.9750   -2.0180 O   0  0  0  0  0  0  0  0  0  0  0  0
  1  2  1  0
  2  3  2  0
  1  4  1  0
  2  5  1  0
  4  6  1  0
  5  7  1  0
  5  8  1  0
  6  9  1  0
  6 10  2  0
 10 11  1  0
  9 12  1  0
 11 12  2  0
 12 13  1  0
 11 14  1  0
 14 15  1  0
 13 16  2  0
 14 17  2  0
 16 17  1  0
 17 18  1  0
 18 19  1  0
 18 20  2  0
M  END
