diamond-x0926_0_A-mac-x0204
     RDKit          3D

 19 20  0  0  0  0  0  0  0  0999 V2000
   -6.6920   15.0470   -0.6830 O   0  0  0  0  0  0  0  0  0  0  0  0
   -5.5120   15.1310   -0.3370 C   0  0  0  0  0  0  0  0  0  0  0  0
   -5.0740   14.8470    1.0940 C   0  0  0  0  0  0  0  0  0  0  0  0
   -4.5430   15.4810   -1.2530 N   0  0  0  0  0  0  0  0  0  0  0  0
   -3.1970   15.6190   -0.8570 N   0  0  0  0  0  0  0  0  0  0  0  0
   -3.7000   15.3100    1.4250 C   0  0  0  0  0  0  0  0  0  0  0  0
   -2.2060   15.4800   -1.9060 C   0  0  0  0  0  0  0  0  0  0  0  0
   -2.8620   15.6590    0.4610 C   0  0  0  0  0  0  0  0  0  0  0  0
   -0.8280   14.9870   -1.4300 C   0  0  0  0  0  0  0  0  0  0  0  0
   -0.0750   14.2920   -2.5660 C   0  0  0  0  0  0  0  0  0  0  0  0
    0.4790   13.0630   -2.1160 O   0  0  0  0  0  0  0  0  0  0  0  0
    1.0090   15.1390   -2.9340 O   0  0  0  0  0  0  0  0  0  0  0  0
   -1.0140   14.1600   -3.7460 C   0  0  0  0  0  0  0  0  0  0  0  0
   -1.4930   15.3030   -4.4080 C   0  0  0  0  0  0  0  0  0  0  0  0
   -1.4680   12.9270   -4.2210 C   0  0  0  0  0  0  0  0  0  0  0  0
   -2.3710   15.1760   -5.4640 C   0  0  0  0  0  0  0  0  0  0  0  0
   -2.3300   12.7740   -5.2570 N   0  0  0  0  0  0  0  0  0  0  0  0
   -2.8480   16.2750   -6.1180 O   0  0  0  0  0  0  0  0  0  0  0  0
   -2.7660   13.9070   -5.8580 C   0  0  0  0  0  0  0  0  0  0  0  0
  1  2  2  0
  2  3  1  0
  2  4  1  0
  4  5  1  0
  3  6  1  0
  5  7  1  0
  5  8  1  0
  6  8  2  0
  7  9  1  0
  9 10  1  0
 10 11  1  0
 10 12  1  0
 10 13  1  0
 13 14  2  0
 13 15  1  0
 14 16  1  0
 15 17  2  0
 16 18  1  0
 16 19  2  0
 17 19  1  0
M  END
