diamond-x0689_0_A-mac-x0305
     RDKit          3D

 17 18  0  0  0  0  0  0  0  0999 V2000
   -3.3010   14.9490    2.4780 N   0  0  0  0  0  0  0  0  0  0  0  0
   -4.5750   15.5330    2.1420 C   0  0  0  0  0  0  0  0  0  0  0  0
   -2.5590   14.9010    1.2840 C   0  0  1  0  0  0  0  0  0  0  0  0
   -1.9930   16.0510    0.6340 N   0  0  0  0  0  0  0  0  0  0  0  0
   -1.7710   13.8590    0.8140 N   0  0  0  0  0  0  0  0  0  0  0  0
   -0.7640   16.0150   -0.0210 C   0  0  0  0  0  0  0  0  0  0  0  0
   -0.3550   14.0280    1.1590 C   0  0  0  0  0  0  0  0  0  0  0  0
   -2.1670   14.1820   -0.4320 C   0  0  0  0  0  0  0  0  0  0  0  0
    0.0920   15.0480    0.2110 C   0  0  0  0  0  0  0  0  0  0  0  0
   -1.5980   14.1320   -1.6930 C   0  0  0  0  0  0  0  0  0  0  0  0
   -3.4810   14.7250   -0.3800 C   0  0  0  0  0  0  0  0  0  0  0  0
   -0.2190   13.6160   -1.9690 C   0  0  0  0  0  0  0  0  0  0  0  0
   -4.1600   15.1780   -1.4840 C   0  0  0  0  0  0  0  0  0  0  0  0
   -2.2650   14.5760   -2.8150 N   0  0  0  0  0  0  0  0  0  0  0  0
    0.3340   12.9990   -0.8870 O   0  0  0  0  0  0  0  0  0  0  0  0
    0.4090   13.7100   -3.0070 O   0  0  0  0  0  0  0  0  0  0  0  0
   -3.5110   15.0820   -2.6820 C   0  0  0  0  0  0  0  0  0  0  0  0
  1  2  1  0
  3  1  1  1
  3  4  1  0
  3  5  1  0
  4  6  1  0
  5  7  1  0
  5  8  1  0
  6  9  2  0
  7  9  1  0
  8 10  2  0
  8 11  1  0
 10 12  1  0
 11 13  2  0
 10 14  1  0
 12 15  1  0
 12 16  2  0
 13 17  1  0
 14 17  2  0
M  END
