diamond-x0837_0_A-mac-x0587
     RDKit          3D

 23 24  0  0  0  0  0  0  0  0999 V2000
   -7.8630   14.7820   -0.0370 O   0  0  0  0  0  0  0  0  0  0  0  0
   -6.7010   14.3820   -0.0060 C   0  0  0  0  0  0  0  0  0  0  0  0
   -6.0350   14.2380    1.1960 N   0  0  0  0  0  0  0  0  0  0  0  0
   -5.9150   14.0150   -1.2620 C   0  0  0  0  0  0  0  0  0  0  0  0
   -4.8910   13.4890    1.3460 C   0  0  0  0  0  0  0  0  0  0  0  0
   -4.4320   14.0310   -0.9210 C   0  0  1  0  0  0  0  0  0  0  0  0
   -4.0660   13.3510    0.3290 C   0  0  0  0  0  0  0  0  0  0  0  0
   -3.3110   14.5430   -1.8350 C   0  0  1  0  0  0  0  0  0  0  0  0
   -3.8910   15.8410   -1.3310 C   0  0  0  0  0  0  0  0  0  0  0  0
   -2.0140   14.7000   -1.0310 C   0  0  0  0  0  0  0  0  0  0  0  0
   -3.2700   14.7920   -3.3950 C   0  0  2  0  0  0  0  0  0  0  0  0
   -0.8530   14.5990   -1.3700 O   0  0  0  0  0  0  0  0  0  0  0  0
   -3.6490   15.7570    0.1870 C   0  0  0  0  0  0  0  0  0  0  0  0
   -2.4170   15.0190    0.2480 N   0  0  0  0  0  0  0  0  0  0  0  0
   -3.8570   13.7270   -4.1100 O   0  0  0  0  0  0  0  0  0  0  0  0
   -2.0520   15.3330   -4.2060 C   0  0  0  0  0  0  0  0  0  0  0  0
   -0.5800   14.9450   -3.9260 C   0  0  2  0  0  0  0  0  0  0  0  0
    0.4440   16.0490   -4.2070 C   0  0  0  0  0  0  0  0  0  0  0  0
   -0.1110   13.5590   -5.0670 S   0  0  0  0  0  0  0  0  0  0  0  0
   -0.6290   12.1030   -4.0910 C   0  0  0  0  0  0  0  0  0  0  0  0
    0.4360   11.5850   -3.1460 C   0  0  0  0  0  0  0  0  0  0  0  0
    0.5720   10.4360   -2.7670 O   0  0  0  0  0  0  0  0  0  0  0  0
    1.2840   12.5530   -2.7020 O   0  0  0  0  0  0  0  0  0  0  0  0
  1  2  2  0
  2  3  1  0
  2  4  1  0
  3  5  1  0
  6  4  1  6
  5  7  2  0
  6  7  1  0
  6  8  1  0
  8  9  1  1
  8 10  1  0
  8 11  1  0
 10 12  2  0
  9 13  1  0
 10 14  1  0
 13 14  1  0
 11 15  1  6
 11 16  1  0
 16 17  1  0
 17 18  1  6
 17 19  1  0
 19 20  1  0
 20 21  1  0
 21 22  2  0
 21 23  1  0
M  END
