diamond-x0766_0_A-diamond-x0895_0_A
     RDKit          3D

 20 22  0  0  0  0  0  0  0  0999 V2000
    0.7540   12.3070   -3.0670 C   0  0  0  0  0  0  0  0  0  0  0  0
    0.1020   11.1240   -3.0350 O   0  0  0  0  0  0  0  0  0  0  0  0
    1.7210   12.4800   -2.3530 O   0  0  0  0  0  0  0  0  0  0  0  0
    0.1530   13.3150   -4.0190 C   0  0  2  0  0  0  0  0  0  0  0  0
    1.1730   13.8020   -5.0610 C   0  0  0  0  0  0  0  0  0  0  0  0
   -0.1520   14.6020   -3.2550 C   0  0  1  0  0  0  0  0  0  0  0  0
    1.1190   15.3420   -4.9730 C   0  0  0  0  0  0  0  0  0  0  0  0
   -0.2340   15.6510   -4.3210 C   0  0  0  0  0  0  0  0  0  0  0  0
   -1.0540   14.3630   -2.0630 C   0  0  0  0  0  0  0  0  0  0  0  0
   -2.4230   14.5190   -1.7210 C   0  0  0  0  0  0  0  0  0  0  0  0
   -0.3550   13.8380   -0.9350 C   0  0  0  0  0  0  0  0  0  0  0  0
   -3.6350   14.9300   -2.1030 N   0  0  0  0  0  0  0  0  0  0  0  0
   -1.1150   13.5990    0.1490 C   0  0  0  0  0  0  0  0  0  0  0  0
   -2.7180   13.9740   -0.1310 S   0  0  0  0  0  0  0  0  0  0  0  0
   -3.8410   15.2780   -0.8640 C   0  0  0  0  0  0  0  0  0  0  0  0
   -4.7920   15.7860   -0.0210 N   0  0  0  0  0  0  0  0  0  0  0  0
   -2.7170   15.0990   -0.1330 N   0  0  0  0  0  0  0  0  0  0  0  0
   -4.3550   15.5720    1.3830 C   0  0  0  0  0  0  0  0  0  0  0  0
   -2.9240   15.0770    1.2020 C   0  0  0  0  0  0  0  0  0  0  0  0
   -2.0810   14.7360    2.0360 O   0  0  0  0  0  0  0  0  0  0  0  0
  1  2  1  0
  1  3  2  0
  4  1  1  1
  4  5  1  0
  4  6  1  0
  5  7  1  0
  6  8  1  0
  7  8  1  0
  6  9  1  6
  9 10  2  0
  9 11  1  0
 10 12  1  0
 11 13  2  0
 10 14  1  0
 13 14  1  0
 12 15  2  3
 15 16  1  0
 15 17  1  0
 16 18  1  0
 17 19  1  0
 18 19  1  0
 19 20  2  0
M  END
