diamond-x1015_0_A-diamond-x0837_0_A
     RDKit          3D

 25 27  0  0  0  0  0  0  0  0999 V2000
   -0.4200   14.4940   -4.5240 C   0  0  0  0  0  0  0  0  0  0  0  0
    0.3620   13.3880   -3.9640 C   0  0  2  0  0  0  0  0  0  0  0  0
   -0.0480   12.0590   -4.0590 N   0  0  0  0  0  0  0  0  0  0  0  0
    0.6870   13.4310   -2.5160 C   0  0  0  0  0  0  0  0  0  0  0  0
    0.2750   14.1510   -1.5680 N   0  0  0  0  0  0  0  0  0  0  0  0
    0.5930   11.4540   -2.9170 C   0  0  0  0  0  0  0  0  0  0  0  0
    1.5690   12.3810   -2.4530 N   0  0  0  0  0  0  0  0  0  0  0  0
   -0.4890   11.2860   -5.1420 C   0  0  0  0  0  0  0  0  0  0  0  0
    0.3660   10.3220   -2.3570 O   0  0  0  0  0  0  0  0  0  0  0  0
   -0.7080   15.0530   -1.9410 C   0  0  0  0  0  0  0  0  0  0  0  0
    0.0160   11.4670   -6.4070 C   0  0  0  0  0  0  0  0  0  0  0  0
   -1.4430   10.3040   -5.0230 C   0  0  0  0  0  0  0  0  0  0  0  0
   -1.6010   14.4840   -2.9780 C   0  0  0  0  0  0  0  0  0  0  0  0
   -0.3900   10.7280   -7.4830 C   0  0  0  0  0  0  0  0  0  0  0  0
   -1.8760    9.5420   -6.0820 C   0  0  0  0  0  0  0  0  0  0  0  0
   -3.6220   15.0520   -2.7920 I   0  0  0  0  0  0  0  0  0  0  0  0
   -1.3420    9.7570   -7.3270 C   0  0  0  0  0  0  0  0  0  0  0  0
   -1.9080    8.7730   -8.6610 Cl  0  0  0  0  0  0  0  0  0  0  0  0
   -4.4050   14.5360   -0.8690 C   0  0  1  0  0  0  0  0  0  0  0  0
   -3.6190   15.0760    0.2370 C   0  0  0  0  0  0  0  0  0  0  0  0
   -5.7440   15.2090   -0.8490 C   0  0  0  0  0  0  0  0  0  0  0  0
   -4.2120   15.1930    1.3890 C   0  0  0  0  0  0  0  0  0  0  0  0
   -6.4040   14.7890    0.4230 C   0  0  0  0  0  0  0  0  0  0  0  0
   -7.5910   14.4560    0.4570 O   0  0  0  0  0  0  0  0  0  0  0  0
   -5.5640   14.8150    1.6080 N   0  0  0  0  0  0  0  0  0  0  0  0
  2  1  1  1
  2  3  1  0
  2  4  1  0
  4  5  2  3
  3  6  1  0
  4  7  1  0
  6  7  1  0
  3  8  1  0
  6  9  2  0
  5 10  1  0
  8 11  2  0
  8 12  1  0
 10 13  1  0
 11 14  1  0
 12 15  2  0
 13 16  1  0
 14 17  2  0
 15 17  1  0
 17 18  1  0
 19 16  1  6
 19 20  1  0
 19 21  1  0
 20 22  2  0
 21 23  1  0
 23 24  2  0
 22 25  1  0
 23 25  1  0
M  END
