diamond-x0685_0_A-diamond-x0852_0_B
     RDKit          3D

 21 22  0  0  0  0  0  0  0  0999 V2000
   -5.9840   14.9110    2.5810 N   0  0  0  0  0  0  0  0  0  0  0  0
   -7.1940   14.2200    3.0670 C   0  0  2  0  0  0  0  0  0  0  0  0
   -7.6590   13.0250    2.2490 C   0  0  0  0  0  0  0  0  0  0  0  0
   -5.4440   14.9380    1.3000 C   0  0  0  0  0  0  0  0  0  0  0  0
   -4.0620   15.1010    1.2110 C   0  0  0  0  0  0  0  0  0  0  0  0
   -6.1960   14.8280    0.1930 N   0  0  0  0  0  0  0  0  0  0  0  0
   -8.2600   15.2150    3.4050 C   0  0  0  0  0  0  0  0  0  0  0  0
   -3.4370   15.1520   -0.0190 C   0  0  0  0  0  0  0  0  0  0  0  0
   -5.5720   14.8860   -1.0070 C   0  0  0  0  0  0  0  0  0  0  0  0
   -8.4330   15.7220    4.7140 C   0  0  0  0  0  0  0  0  0  0  0  0
   -9.0990   15.6690    2.3910 C   0  0  0  0  0  0  0  0  0  0  0  0
   -7.6260   15.2850    5.7370 O   0  0  0  0  0  0  0  0  0  0  0  0
   -4.2080   15.0460   -1.1600 C   0  0  0  0  0  0  0  0  0  0  0  0
  -10.0770   16.6060    2.6470 C   0  0  0  0  0  0  0  0  0  0  0  0
   -9.4270   16.6740    4.9650 C   0  0  0  0  0  0  0  0  0  0  0  0
   -3.6160   15.1010   -2.4530 C   0  0  0  0  0  0  0  0  0  0  0  0
   -9.6220   17.2120    6.2750 C   0  0  0  0  0  0  0  0  0  0  0  0
  -11.1700   17.1800    1.2170 Br  0  0  0  0  0  0  0  0  0  0  0  0
  -10.2490   17.1170    3.9260 C   0  0  0  0  0  0  0  0  0  0  0  0
   -3.1300   15.1570   -3.5040 N   0  0  0  0  0  0  0  0  0  0  0  0
   -9.7780   17.7020    7.3170 N   0  0  0  0  0  0  0  0  0  0  0  0
  1  2  1  0
  2  3  1  6
  1  4  1  0
  4  5  2  0
  4  6  1  0
  2  7  1  0
  5  8  1  0
  6  9  2  0
  7 10  2  0
  7 11  1  0
 10 12  1  0
  8 13  2  0
  9 13  1  0
 11 14  2  0
 10 15  1  0
 13 16  1  0
 15 17  1  0
 14 18  1  0
 14 19  1  0
 15 19  2  0
 16 20  3  0
 17 21  3  0
M  END
