diamond-x0724_0_A-diamond-x0900_0_A
     RDKit          3D

 15 16  0  0  0  0  0  0  0  0999 V2000
   -8.5700   13.4870    4.4130 N   0  0  0  0  0  0  0  0  0  0  0  0
   -8.5460   13.5710    5.8670 C   0  0  0  0  0  0  0  0  0  0  0  0
   -8.3470   14.7950    3.8180 C   0  0  0  0  0  0  0  0  0  0  0  0
   -7.7140   14.7250    2.4740 C   0  0  0  0  0  0  0  0  0  0  0  0
   -6.4130   15.0280    2.1660 C   0  0  0  0  0  0  0  0  0  0  0  0
   -8.2770   14.3620    1.2310 C   0  0  0  0  0  0  0  0  0  0  0  0
   -7.4020   14.4460    0.2210 N   0  0  0  0  0  0  0  0  0  0  0  0
   -6.2650   14.8700    0.8280 N   0  0  0  0  0  0  0  0  0  0  0  0
   -5.0590   15.1390    0.0520 C   0  0  1  0  0  0  0  0  0  0  0  0
   -3.7520   14.7730    0.7000 C   0  0  0  0  0  0  0  0  0  0  0  0
   -5.1760   14.6580   -1.3680 C   0  0  0  0  0  0  0  0  0  0  0  0
   -6.2430   14.2940   -1.8660 O   0  0  0  0  0  0  0  0  0  0  0  0
   -2.6640   14.5330   -0.0430 C   0  0  0  0  0  0  0  0  0  0  0  0
   -3.9140   14.6640   -2.1520 C   0  0  0  0  0  0  0  0  0  0  0  0
   -2.7420   14.6090   -1.4910 C   0  0  0  0  0  0  0  0  0  0  0  0
  1  2  1  0
  1  3  1  0
  3  4  1  0
  4  5  2  0
  4  6  1  0
  6  7  2  0
  5  8  1  0
  7  8  1  0
  9  8  1  1
  9 10  1  0
  9 11  1  0
 11 12  2  0
 10 13  2  0
 11 14  1  0
 13 15  1  0
 14 15  2  0
M  END
