diamond-x0822_0_A-diamond-x0334_0_A
     RDKit          3D

 21 24  0  0  0  0  0  0  0  0999 V2000
    3.5170   25.1070   16.8910 N   0  0  0  0  0  0  0  0  0  0  0  0
    3.0570   24.7670   18.2210 C   0  0  0  0  0  0  0  0  0  0  0  0
    3.1470   23.3620   18.6960 C   0  0  0  0  0  0  0  0  0  0  0  0
    2.6410   25.4050   15.6560 C   0  0  0  0  0  0  0  0  0  0  0  0
    4.0510   26.3720   17.2830 C   0  0  2  0  0  0  0  0  0  0  0  0
    3.9700   25.5290   19.2000 C   0  0  0  0  0  0  0  0  0  0  0  0
    3.9290   27.2250   16.0760 C   0  0  2  0  0  0  0  0  0  0  0  0
    5.4760   26.3590   17.8430 C   0  0  0  0  0  0  0  0  0  0  0  0
    1.7900   26.6100   15.7440 C   0  0  0  0  0  0  0  0  0  0  0  0
    5.2480   27.9040   15.8300 C   0  0  0  0  0  0  0  0  0  0  0  0
    6.4020   25.9660   16.8710 O   0  0  0  0  0  0  0  0  0  0  0  0
    0.4230   26.6480   15.5840 C   0  0  0  0  0  0  0  0  0  0  0  0
    2.4970   27.7220   16.0150 C   0  0  0  0  0  0  0  0  0  0  0  0
   -0.4070   25.5950   15.2730 O   0  0  0  0  0  0  0  0  0  0  0  0
    6.2910   26.7780   15.7280 C   0  0  0  0  0  0  0  0  0  0  0  0
    1.8390   28.9600   16.1680 C   0  0  0  0  0  0  0  0  0  0  0  0
   -0.2890   27.8190   15.7320 C   0  0  0  0  0  0  0  0  0  0  0  0
   -1.5390   26.3240   14.7380 C   0  0  0  0  0  0  0  0  0  0  0  0
   -1.6750   27.5310   15.5450 N   0  0  0  0  0  0  0  0  0  0  0  0
    0.4190   29.0060   16.0290 C   0  0  0  0  0  0  0  0  0  0  0  0
   -2.4720   27.3400   16.7520 C   0  0  0  0  0  0  0  0  0  0  0  0
  1  2  1  0
  2  3  1  0
  1  4  1  0
  1  5  1  0
  2  6  1  0
  5  7  1  0
  5  8  1  6
  4  9  1  0
  7 10  1  1
  8 11  1  0
  9 12  1  0
  7 13  1  0
  9 13  2  0
 12 14  1  0
 10 15  1  0
 11 15  1  0
 13 16  1  0
 12 17  2  0
 14 18  1  0
 17 19  1  0
 18 19  1  0
 16 20  2  0
 17 20  1  0
 19 21  1  0
M  END
