diamond-x0471_0_A-mac-x0567
     RDKit          3D

 21 23  0  0  0  0  0  0  0  0999 V2000
   -8.2910   14.1170    2.9170 N   0  0  0  0  0  0  0  0  0  0  0  0
   -8.8280   14.9600    3.8540 C   0  0  0  0  0  0  0  0  0  0  0  0
   -9.3890   16.0170    3.5700 O   0  0  0  0  0  0  0  0  0  0  0  0
   -8.4780   14.3990    1.5130 C   0  0  0  0  0  0  0  0  0  0  0  0
   -8.6920   14.4720    5.2880 C   0  0  0  0  0  0  0  0  0  0  0  0
   -7.1430   14.5920    0.8130 C   0  0  0  0  0  0  0  0  0  0  0  0
   -9.9440   13.7070    5.7160 C   0  0  0  0  0  0  0  0  0  0  0  0
   -8.3620   15.6170    6.2380 C   0  0  0  0  0  0  0  0  0  0  0  0
   -7.0810   14.9650   -0.4180 N   0  0  0  0  0  0  0  0  0  0  0  0
   -5.9130   14.3820    1.4600 N   0  0  0  0  0  0  0  0  0  0  0  0
   -5.0000   14.6350    0.5330 C   0  0  0  0  0  0  0  0  0  0  0  0
   -5.7430   15.0130   -0.6820 C   0  0  0  0  0  0  0  0  0  0  0  0
   -5.2770   15.3410   -1.8640 C   0  0  0  0  0  0  0  0  0  0  0  0
   -3.5410   14.5340    0.6750 C   0  0  0  0  0  0  0  0  0  0  0  0
   -3.9240   15.4060   -2.2830 C   0  0  0  0  0  0  0  0  0  0  0  0
   -2.6120   14.7760   -0.3090 N   0  0  0  0  0  0  0  0  0  0  0  0
   -2.7280   14.1820    1.7360 C   0  0  0  0  0  0  0  0  0  0  0  0
   -2.8260   15.1560   -1.6010 C   0  0  0  0  0  0  0  0  0  0  0  0
   -1.3820   14.2320    1.3050 C   0  0  0  0  0  0  0  0  0  0  0  0
   -1.3270   14.5950    0.0910 N   0  0  0  0  0  0  0  0  0  0  0  0
   -0.2640   13.9480    2.0080 N   0  0  0  0  0  0  0  0  0  0  0  0
  1  2  1  0
  2  3  2  0
  1  4  1  0
  2  5  1  0
  4  6  1  0
  5  7  1  0
  5  8  1  0
  6  9  2  0
  6 10  1  0
 10 11  2  0
  9 12  1  0
 11 12  1  0
 12 13  2  0
 11 14  1  0
 13 15  1  0
 14 16  1  0
 14 17  2  0
 15 18  2  0
 16 18  1  0
 17 19  1  0
 16 20  1  0
 19 20  2  0
 19 21  1  0
M  END
