diamond-x0724_0_A-diamond-x0371_0_A
     RDKit          3D

 20 22  0  0  0  0  0  0  0  0999 V2000
   -9.3400   13.4940    3.6680 N   0  0  0  0  0  0  0  0  0  0  0  0
   -9.4640   13.0520    5.0590 C   0  0  0  0  0  0  0  0  0  0  0  0
   -8.8910   14.8700    3.5520 C   0  0  2  0  0  0  0  0  0  0  0  0
   -9.9790   15.6770    3.1140 O   0  0  0  0  0  0  0  0  0  0  0  0
   -7.8950   14.8130    2.4040 C   0  0  0  0  0  0  0  0  0  0  0  0
   -8.6430   15.3080    4.9740 C   0  0  0  0  0  0  0  0  0  0  0  0
   -6.5070   14.8770    2.2570 C   0  0  0  0  0  0  0  0  0  0  0  0
   -8.3320   14.6510    1.0690 C   0  0  0  0  0  0  0  0  0  0  0  0
   -7.9080   14.4610    5.7510 O   0  0  0  0  0  0  0  0  0  0  0  0
   -9.0350   16.3950    5.7290 C   0  0  0  0  0  0  0  0  0  0  0  0
   -7.3610   14.6180    0.1740 N   0  0  0  0  0  0  0  0  0  0  0  0
   -6.2250   14.7570    0.8930 N   0  0  0  0  0  0  0  0  0  0  0  0
   -8.5240   16.1740    7.0290 C   0  0  0  0  0  0  0  0  0  0  0  0
   -7.8440   14.9890    6.9850 C   0  0  0  0  0  0  0  0  0  0  0  0
   -4.9880   14.7630    0.1890 C   0  0  0  0  0  0  0  0  0  0  0  0
   -3.7670   14.8250    0.8790 C   0  0  0  0  0  0  0  0  0  0  0  0
   -4.9840   14.7100   -1.2150 C   0  0  0  0  0  0  0  0  0  0  0  0
   -2.5660   14.8280    0.1660 C   0  0  0  0  0  0  0  0  0  0  0  0
   -3.7820   14.7130   -1.9190 C   0  0  0  0  0  0  0  0  0  0  0  0
   -2.5740   14.7710   -1.2290 C   0  0  0  0  0  0  0  0  0  0  0  0
  1  2  1  0
  1  3  1  0
  3  4  1  6
  3  5  1  0
  3  6  1  0
  5  7  2  0
  5  8  1  0
  6  9  1  0
  6 10  2  0
  8 11  2  0
  7 12  1  0
 11 12  1  0
 10 13  1  0
  9 14  1  0
 13 14  2  0
 12 15  1  0
 15 16  2  0
 15 17  1  0
 16 18  1  0
 17 19  2  0
 18 20  2  0
 19 20  1  0
M  END
