diamond-x0689_0_A-diamond-x0290_0_A
     RDKit          3D

 13 13  0  0  0  0  0  0  0  0999 V2000
   -3.8820   14.7710    1.4110 N   0  0  0  0  0  0  0  0  0  0  0  0
   -5.0420   14.6440    0.6730 C   0  0  0  0  0  0  0  0  0  0  0  0
   -5.1850   14.8020   -0.5310 O   0  0  0  0  0  0  0  0  0  0  0  0
   -2.6010   14.6780    0.8760 C   0  0  0  0  0  0  0  0  0  0  0  0
   -6.2540   14.2250    1.5410 C   0  0  0  0  0  0  0  0  0  0  0  0
   -2.4080   14.7030   -0.4450 N   0  0  0  0  0  0  0  0  0  0  0  0
   -1.6080   14.5600    1.7750 N   0  0  0  0  0  0  0  0  0  0  0  0
   -7.4480   13.9040    0.7250 N   0  0  0  0  0  0  0  0  0  0  0  0
   -1.1470   14.6040   -0.9060 C   0  0  0  0  0  0  0  0  0  0  0  0
   -0.3620   14.4670    1.2830 C   0  0  0  0  0  0  0  0  0  0  0  0
   -8.5070   14.9010    0.8560 C   0  0  0  0  0  0  0  0  0  0  0  0
   -0.9750   14.6300   -2.3980 C   0  0  0  0  0  0  0  0  0  0  0  0
   -0.0630   14.4830   -0.0620 C   0  0  0  0  0  0  0  0  0  0  0  0
  1  2  1  0
  2  3  2  0
  1  4  1  0
  2  5  1  0
  4  6  2  0
  4  7  1  0
  5  8  1  0
  6  9  1  0
  7 10  2  0
  8 11  1  0
  9 12  1  0
  9 13  2  0
 10 13  1  0
M  END
