diamond-x0900_0_A-mac-x0572
     RDKit          3D

 11 12  0  0  0  0  0  0  0  0999 V2000
   -8.1000   14.4270    3.2580 C   0  0  0  0  0  0  0  0  0  0  0  0
   -7.3190   14.6220    1.9940 C   0  0  0  0  0  0  0  0  0  0  0  0
   -5.9990   14.8690    2.1640 N   0  0  0  0  0  0  0  0  0  0  0  0
   -7.9120   14.5560    0.7190 C   0  0  0  0  0  0  0  0  0  0  0  0
   -9.2410   14.3070    0.5150 O   0  0  0  0  0  0  0  0  0  0  0  0
   -5.2890   15.0470    1.0470 C   0  0  0  0  0  0  0  0  0  0  0  0
   -7.1290   14.7520   -0.4250 C   0  0  0  0  0  0  0  0  0  0  0  0
   -5.7860   15.0030   -0.2440 C   0  0  0  0  0  0  0  0  0  0  0  0
   -3.8320   15.3310    1.0020 C   0  0  0  0  0  0  0  0  0  0  0  0
   -4.8030   15.2350   -1.2380 N   0  0  0  0  0  0  0  0  0  0  0  0
   -3.5770   14.9470   -0.4610 C   0  0  0  0  0  0  0  0  0  0  0  0
  1  2  1  0
  2  3  2  0
  2  4  1  0
  4  5  1  0
  3  6  1  0
  4  7  2  0
  6  8  2  0
  7  8  1  0
  6  9  1  0
  8 10  1  0
  9 11  1  0
 10 11  1  0
M  END
