diamond-x0926_0_A-diamond-x0766_0_A
     RDKit          3D

 18 20  0  0  0  0  0  0  0  0999 V2000
   -6.6770   15.0240   -0.4400 O   0  0  0  0  0  0  0  0  0  0  0  0
   -5.4500   15.0960   -0.4330 C   0  0  0  0  0  0  0  0  0  0  0  0
   -4.6900   15.1600    0.8340 C   0  0  0  0  0  0  0  0  0  0  0  0
   -4.7010   15.1040   -1.5870 N   0  0  0  0  0  0  0  0  0  0  0  0
   -3.4150   15.6600   -1.6710 N   0  0  0  0  0  0  0  0  0  0  0  0
   -3.3660   15.3780    0.8140 C   0  0  0  0  0  0  0  0  0  0  0  0
   -2.5830   15.5760   -0.4630 C   0  0  1  0  0  0  0  0  0  0  0  0
   -2.6450   15.2170   -2.8540 C   0  0  0  0  0  0  0  0  0  0  0  0
   -1.4690   14.3890   -2.3120 C   0  0  2  0  0  0  0  0  0  0  0  0
   -1.5930   14.4520   -0.7780 C   0  0  0  0  0  0  0  0  0  0  0  0
   -0.0650   14.7390   -2.8770 C   0  0  1  0  0  0  0  0  0  0  0  0
    0.8990   13.5560   -3.1270 C   0  0  1  0  0  0  0  0  0  0  0  0
    0.0330   15.5680   -4.1650 C   0  0  0  0  0  0  0  0  0  0  0  0
    0.5210   12.3100   -2.3980 C   0  0  0  0  0  0  0  0  0  0  0  0
    1.1120   13.4990   -4.6330 C   0  0  0  0  0  0  0  0  0  0  0  0
    1.2290   14.9870   -4.9030 C   0  0  0  0  0  0  0  0  0  0  0  0
    0.5100   12.2530   -1.1970 O   0  0  0  0  0  0  0  0  0  0  0  0
    0.1630   11.2560   -3.1510 O   0  0  0  0  0  0  0  0  0  0  0  0
  1  2  2  0
  2  3  1  0
  2  4  1  0
  4  5  1  0
  3  6  2  0
  5  7  1  0
  7  6  1  1
  5  8  1  0
  9  8  1  6
  7 10  1  0
  9 10  1  0
  9 11  1  0
 11 12  1  0
 11 13  1  6
 12 14  1  6
 12 15  1  0
 13 16  1  0
 15 16  1  0
 14 17  2  0
 14 18  1  0
M  END
