diamond-x0950_0_A-mac-x0190
     RDKit          3D

 20 21  0  0  0  0  0  0  0  0999 V2000
    2.9340   12.5050   -4.0440 C   0  0  0  0  0  0  0  0  0  0  0  0
    1.4350   12.7740   -3.9370 C   0  0  1  0  0  0  0  0  0  0  0  0
    0.8670   12.4790   -5.2120 O   0  0  0  0  0  0  0  0  0  0  0  0
    0.7910   11.9460   -2.8000 C   0  0  0  0  0  0  0  0  0  0  0  0
    0.3030   10.8370   -2.9440 O   0  0  0  0  0  0  0  0  0  0  0  0
    0.8270   12.5980   -1.5820 O   0  0  0  0  0  0  0  0  0  0  0  0
   -0.0190   13.7580   -1.4440 C   0  0  0  0  0  0  0  0  0  0  0  0
   -0.9670   13.4910   -0.2760 C   0  0  0  0  0  0  0  0  0  0  0  0
   -1.6420   14.7220    0.3140 C   0  0  0  0  0  0  0  0  0  0  0  0
   -3.1200   14.8600   -0.0530 C   0  0  0  0  0  0  0  0  0  0  0  0
   -3.5840   15.2700   -1.3260 C   0  0  0  0  0  0  0  0  0  0  0  0
   -4.0620   14.5480    0.9340 C   0  0  0  0  0  0  0  0  0  0  0  0
   -5.4360   14.6280    0.6560 C   0  0  0  0  0  0  0  0  0  0  0  0
   -4.9590   15.3610   -1.6230 C   0  0  0  0  0  0  0  0  0  0  0  0
   -5.8510   15.0250   -0.6040 C   0  0  0  0  0  0  0  0  0  0  0  0
   -6.5140   14.3590    1.4620 N   0  0  0  0  0  0  0  0  0  0  0  0
   -7.5820   14.5720    0.7320 C   0  0  0  0  0  0  0  0  0  0  0  0
   -7.2260   14.9830   -0.5330 N   0  0  0  0  0  0  0  0  0  0  0  0
   -9.0010   14.4130    1.1400 C   0  0  0  0  0  0  0  0  0  0  0  0
   -9.1820   15.1060    2.3710 O   0  0  0  0  0  0  0  0  0  0  0  0
  2  1  1  6
  2  3  1  0
  2  4  1  0
  4  5  2  0
  4  6  1  0
  6  7  1  0
  7  8  1  0
  8  9  1  0
  9 10  1  0
 10 11  2  0
 10 12  1  0
 12 13  2  0
 11 14  1  0
 13 15  1  0
 14 15  2  0
 13 16  1  0
 16 17  2  0
 15 18  1  0
 17 18  1  0
 17 19  1  0
 19 20  1  0
M  END
