diamond-x0967_0_A-mac-x0148
     RDKit          3D

 24 28  0  0  0  0  0  0  0  0999 V2000
   -6.9440   14.3870   -0.7100 N   0  0  0  0  0  0  0  0  0  0  0  0
   -7.6090   14.3380    0.4640 C   0  0  0  0  0  0  0  0  0  0  0  0
   -7.0350   14.6660    1.6830 C   0  0  0  0  0  0  0  0  0  0  0  0
   -5.6580   14.7810   -0.6590 C   0  0  0  0  0  0  0  0  0  0  0  0
   -4.9960   15.1390    0.4860 C   0  0  0  0  0  0  0  0  0  0  0  0
   -4.9230   14.8260   -1.8030 N   0  0  0  0  0  0  0  0  0  0  0  0
   -5.7000   15.0770    1.6830 C   0  0  0  0  0  0  0  0  0  0  0  0
   -3.7180   14.0300   -1.6170 C   0  0  0  0  0  0  0  0  0  0  0  0
   -3.5410   15.5730    0.3720 C   0  0  0  0  0  0  0  0  0  0  0  0
   -2.7090   14.6880   -0.6280 C   0  0  1  0  0  0  0  0  0  0  0  0
   -2.1080   13.7160    0.3560 C   0  0  0  0  0  0  0  0  0  0  0  0
   -1.4290   15.1950   -1.4030 C   0  0  2  0  0  0  0  0  0  0  0  0
   -1.0510   14.3320   -2.5520 N   0  0  0  0  0  0  0  0  0  0  0  0
   -0.2060   15.2380   -0.6150 N   0  0  0  0  0  0  0  0  0  0  0  0
   -1.1640   14.3070    1.3140 N   0  0  0  0  0  0  0  0  0  0  0  0
   -1.4410   14.6670   -3.9280 C   0  0  2  0  0  0  0  0  0  0  0  0
    0.0920   13.3820   -2.4610 C   0  0  0  0  0  0  0  0  0  0  0  0
   -0.3630   15.3810    0.7860 C   0  0  0  0  0  0  0  0  0  0  0  0
   -2.7310   15.4120   -4.2510 C   0  0  0  0  0  0  0  0  0  0  0  0
   -1.7330   13.3500   -4.6330 C   0  0  1  0  0  0  0  0  0  0  0  0
   -0.0410   12.1600   -3.4020 C   0  0  0  0  0  0  0  0  0  0  0  0
   -2.5620   13.7160   -5.8390 C   0  0  0  0  0  0  0  0  0  0  0  0
   -3.0010   15.0760   -5.6310 O   0  0  0  0  0  0  0  0  0  0  0  0
   -0.4550   12.5640   -4.8170 C   0  0  0  0  0  0  0  0  0  0  0  0
  1  2  2  0
  2  3  1  0
  1  4  1  0
  4  5  2  0
  4  6  1  0
  3  7  2  0
  5  7  1  0
  6  8  1  0
  5  9  1  0
 10  8  1  6
  9 10  1  0
 10 11  1  0
 10 12  1  0
 12 13  1  6
 12 14  1  0
 11 15  1  0
 13 16  1  0
 13 17  1  0
 14 18  1  0
 15 18  1  0
 16 19  1  1
 16 20  1  0
 17 21  1  0
 20 22  1  6
 19 23  1  0
 22 23  1  0
 20 24  1  0
 21 24  1  0
M  END
