diamond-x0689_0_A-mac-x0188
     RDKit          3D

 23 25  0  0  0  0  0  0  0  0999 V2000
   -3.8360   15.3650    1.7900 N   0  0  0  0  0  0  0  0  0  0  0  0
   -4.8940   15.0450    0.8550 C   0  0  0  0  0  0  0  0  0  0  0  0
   -4.2040   14.8610   -0.4290 C   0  0  0  0  0  0  0  0  0  0  0  0
   -2.5390   15.1720    1.2840 C   0  0  0  0  0  0  0  0  0  0  0  0
   -2.2940   15.6980    0.0710 N   0  0  0  0  0  0  0  0  0  0  0  0
   -1.6060   14.5060    1.9720 N   0  0  0  0  0  0  0  0  0  0  0  0
   -1.0580   15.5350   -0.4490 C   0  0  0  0  0  0  0  0  0  0  0  0
   -0.3920   14.3610    1.4190 C   0  0  0  0  0  0  0  0  0  0  0  0
   -4.5290   15.4860   -1.6390 C   0  0  0  0  0  0  0  0  0  0  0  0
   -3.1480   13.9900   -0.3430 C   0  0  0  0  0  0  0  0  0  0  0  0
   -0.0500   14.8620    0.1920 C   0  0  0  0  0  0  0  0  0  0  0  0
   -3.7370   15.2130   -2.7660 C   0  0  0  0  0  0  0  0  0  0  0  0
   -2.3790   13.7250   -1.4330 C   0  0  0  0  0  0  0  0  0  0  0  0
   -2.6520   14.3250   -2.6420 C   0  0  0  0  0  0  0  0  0  0  0  0
   -1.7500   13.9620   -3.7080 C   0  0  0  0  0  0  0  0  0  0  0  0
   -2.1740   13.7050   -4.9490 N   0  0  0  0  0  0  0  0  0  0  0  0
   -0.3350   13.8160   -3.6060 C   0  0  0  0  0  0  0  0  0  0  0  0
    0.5560   13.9950   -2.4820 C   0  0  0  0  0  0  0  0  0  0  0  0
    0.0460   13.4420   -4.8650 C   0  0  0  0  0  0  0  0  0  0  0  0
   -1.0470   13.3810   -5.6670 O   0  0  0  0  0  0  0  0  0  0  0  0
    1.3360   13.1140   -5.4820 C   0  0  0  0  0  0  0  0  0  0  0  0
    0.9730   15.0820   -2.1140 O   0  0  0  0  0  0  0  0  0  0  0  0
    0.9200   12.8540   -1.8450 O   0  0  0  0  0  0  0  0  0  0  0  0
  1  2  1  0
  2  3  1  0
  1  4  1  0
  4  5  2  0
  4  6  1  0
  5  7  1  0
  6  8  2  0
  3  9  2  0
  3 10  1  0
  7 11  2  0
  8 11  1  0
  9 12  1  0
 10 13  2  0
 12 14  2  0
 13 14  1  0
 14 15  1  0
 15 16  2  0
 15 17  1  0
 17 18  1  0
 17 19  2  0
 16 20  1  0
 19 20  1  0
 19 21  1  0
 18 22  2  0
 18 23  1  0
M  END
