diamond-x0722_0_A-mac-x0354
     RDKit          3D

 29 31  0  0  0  0  0  0  0  0999 V2000
   -4.4950   15.7870    2.2710 C   0  0  0  0  0  0  0  0  0  0  0  0
   -3.4900   15.3030    1.3550 C   0  0  0  0  0  0  0  0  0  0  0  0
   -2.3350   14.9570    1.8730 N   0  0  0  0  0  0  0  0  0  0  0  0
   -3.5410   15.1460   -0.0450 C   0  0  0  0  0  0  0  0  0  0  0  0
   -4.6970   15.4420   -0.9550 C   0  0  0  0  0  0  0  0  0  0  0  0
   -2.2700   14.6710   -0.3420 C   0  0  0  0  0  0  0  0  0  0  0  0
   -1.6030   14.5870    0.8550 N   0  0  0  0  0  0  0  0  0  0  0  0
   -0.2580   14.1680    1.1400 C   0  0  0  0  0  0  0  0  0  0  0  0
   -1.6290   14.2940   -1.6210 C   0  0  0  0  0  0  0  0  0  0  0  0
   -5.9630   14.6900   -0.5850 C   0  0  0  0  0  0  0  0  0  0  0  0
   -7.0950   15.1360   -0.7580 O   0  0  0  0  0  0  0  0  0  0  0  0
   -5.7920   13.4530   -0.0310 N   0  0  0  0  0  0  0  0  0  0  0  0
   -1.0320   12.9170   -1.4090 C   0  0  0  0  0  0  0  0  0  0  0  0
    0.4810   12.9050   -1.4980 C   0  0  0  0  0  0  0  0  0  0  0  0
    0.7950   12.9520   -2.8700 N   0  0  0  0  0  0  0  0  0  0  0  0
    0.6280   11.9230   -3.5670 C   0  0  0  0  0  0  0  0  0  0  0  0
    0.1780   10.7900   -2.9750 O   0  0  0  0  0  0  0  0  0  0  0  0
    0.8870   11.8770   -4.9360 C   0  0  0  0  0  0  0  0  0  0  0  0
    1.8850   12.6040   -5.5660 C   0  0  0  0  0  0  0  0  0  0  0  0
    0.2680   11.1500   -5.9420 C   0  0  0  0  0  0  0  0  0  0  0  0
    0.9290   11.4880   -7.0690 N   0  0  0  0  0  0  0  0  0  0  0  0
    1.9080   12.3660   -6.8450 N   0  0  0  0  0  0  0  0  0  0  0  0
   -0.8250   10.2060   -5.9450 C   0  0  0  0  0  0  0  0  0  0  0  0
    0.6650   10.9950   -8.4070 C   0  0  0  0  0  0  0  0  0  0  0  0
   -0.6210    8.9400   -6.5100 C   0  0  0  0  0  0  0  0  0  0  0  0
   -2.0640   10.5340   -5.4020 C   0  0  0  0  0  0  0  0  0  0  0  0
   -1.6520    8.0140   -6.5310 C   0  0  0  0  0  0  0  0  0  0  0  0
   -3.0980    9.6040   -5.4230 C   0  0  0  0  0  0  0  0  0  0  0  0
   -2.8920    8.3420   -5.9880 C   0  0  0  0  0  0  0  0  0  0  0  0
  1  2  1  0
  2  3  2  0
  2  4  1  0
  4  5  1  0
  4  6  2  0
  3  7  1  0
  6  7  1  0
  7  8  1  0
  6  9  1  0
  5 10  1  0
 10 11  2  0
 10 12  1  0
  9 13  1  0
 13 14  1  0
 14 15  1  0
 15 16  2  3
 16 17  1  0
 16 18  1  0
 18 19  1  0
 18 20  2  0
 20 21  1  0
 19 22  2  0
 21 22  1  0
 20 23  1  0
 21 24  1  0
 23 25  2  0
 23 26  1  0
 25 27  1  0
 26 28  2  0
 27 29  2  0
 28 29  1  0
M  END
