diamond-x0742_0_A-mac-x0510
     RDKit          3D

 18 20  0  0  0  0  0  0  0  0999 V2000
   -5.4210   12.2960   -1.1180 C   0  0  0  0  0  0  0  0  0  0  0  0
   -6.5070   11.9260   -0.1300 C   0  0  0  0  0  0  0  0  0  0  0  0
   -5.3200   11.6880   -2.1800 O   0  0  0  0  0  0  0  0  0  0  0  0
   -4.4390   13.4060   -0.7580 C   0  0  2  0  0  0  0  0  0  0  0  0
   -4.6800   13.7340    0.7360 C   0  0  2  0  0  0  0  0  0  0  0  0
   -4.7190   14.7260   -1.4560 C   0  0  0  0  0  0  0  0  0  0  0  0
   -3.0450   13.0430   -1.2010 C   0  0  0  0  0  0  0  0  0  0  0  0
   -4.1760   15.0590   -2.5140 O   0  0  0  0  0  0  0  0  0  0  0  0
   -5.7270   14.8180    0.6220 C   0  0  0  0  0  0  0  0  0  0  0  0
   -1.9690   13.6770   -0.3900 C   0  0  0  0  0  0  0  0  0  0  0  0
   -3.4970   14.1170    1.6090 C   0  0  0  0  0  0  0  0  0  0  0  0
   -5.6730   15.5610   -0.6850 C   0  0  0  0  0  0  0  0  0  0  0  0
   -6.5430   15.0510    1.4870 O   0  0  0  0  0  0  0  0  0  0  0  0
   -0.7090   13.7800   -0.9510 C   0  0  0  0  0  0  0  0  0  0  0  0
   -2.1740   14.1700    0.9130 C   0  0  0  0  0  0  0  0  0  0  0  0
   -1.1930   14.7240    1.6260 N   0  0  0  0  0  0  0  0  0  0  0  0
    0.3020   14.3530   -0.2240 C   0  0  0  0  0  0  0  0  0  0  0  0
    0.0120   14.7990    1.0390 C   0  0  0  0  0  0  0  0  0  0  0  0
  1  2  1  0
  1  3  2  0
  4  1  1  6
  4  5  1  0
  4  6  1  0
  4  7  1  0
  6  8  2  0
  5  9  1  0
  7 10  1  0
  5 11  1  6
  6 12  1  0
  9 12  1  0
  9 13  2  0
 10 14  2  0
 10 15  1  0
 11 15  1  0
 15 16  2  0
 14 17  1  0
 16 18  1  0
 17 18  2  0
M  END
