diamond-x0253_0_A-mac-x0159
     RDKit          3D

 32 35  0  0  0  0  0  0  0  0999 V2000
    0.4550   11.8700   -5.4900 N   0  0  0  0  0  0  0  0  0  0  0  0
    1.1160   11.5900   -6.6330 C   0  0  0  0  0  0  0  0  0  0  0  0
    2.2200   12.0480   -6.7620 O   0  0  0  0  0  0  0  0  0  0  0  0
    1.2200   12.7740   -4.6610 C   0  0  0  0  0  0  0  0  0  0  0  0
    1.0470   12.5690   -3.1510 C   0  0  0  0  0  0  0  0  0  0  0  0
    0.4880   10.7130   -7.6490 C   0  0  0  0  0  0  0  0  0  0  0  0
    2.3320   12.4130   -2.5820 O   0  0  0  0  0  0  0  0  0  0  0  0
    0.3240   11.3800   -2.8560 O   0  0  0  0  0  0  0  0  0  0  0  0
    0.5240   13.8360   -2.5130 C   0  0  0  0  0  0  0  0  0  0  0  0
   -0.4850    9.8160   -7.2090 C   0  0  0  0  0  0  0  0  0  0  0  0
    0.8340   10.7510   -9.0090 C   0  0  0  0  0  0  0  0  0  0  0  0
   -0.7170   14.4070   -3.2080 C   0  0  1  0  0  0  0  0  0  0  0  0
   -1.1210    8.9570   -8.1100 C   0  0  0  0  0  0  0  0  0  0  0  0
    0.2070    9.8980   -9.9100 C   0  0  0  0  0  0  0  0  0  0  0  0
   -2.1670    7.9970   -7.6360 C   0  0  0  0  0  0  0  0  0  0  0  0
   -0.7670    9.0050   -9.4660 C   0  0  0  0  0  0  0  0  0  0  0  0
   -1.7420   14.3590   -2.1240 N   0  0  0  0  0  0  0  0  0  0  0  0
   -0.3900   15.7060   -3.9800 C   0  0  0  0  0  0  0  0  0  0  0  0
   -3.0750   14.9220   -2.4460 C   0  0  0  0  0  0  0  0  0  0  0  0
   -1.2330   14.7190   -0.8070 C   0  0  1  0  0  0  0  0  0  0  0  0
    0.8660   16.3030   -4.0420 C   0  0  0  0  0  0  0  0  0  0  0  0
   -1.3600   16.4050   -4.7110 N   0  0  0  0  0  0  0  0  0  0  0  0
   -4.0210   14.7200   -1.3520 N   0  0  0  0  0  0  0  0  0  0  0  0
   -2.2630   14.6240    0.3090 C   0  0  2  0  0  0  0  0  0  0  0  0
   -0.2670   13.8640   -0.1760 N   0  0  0  0  0  0  0  0  0  0  0  0
   -0.8420   17.4810   -5.2860 C   0  0  0  0  0  0  0  0  0  0  0  0
    0.8210   17.7260   -4.9990 S   0  0  0  0  0  0  0  0  0  0  0  0
   -1.5900   18.4470   -6.1360 C   0  0  0  0  0  0  0  0  0  0  0  0
   -3.5770   15.2920   -0.0990 C   0  0  2  0  0  0  0  0  0  0  0  0
   -1.4520   15.1200    1.4140 N   0  0  0  0  0  0  0  0  0  0  0  0
   -0.1510   14.5130    1.1240 C   0  0  0  0  0  0  0  0  0  0  0  0
   -4.6520   15.0520    0.8280 N   0  0  0  0  0  0  0  0  0  0  0  0
  1  2  1  0
  2  3  2  0
  1  4  1  0
  4  5  1  0
  2  6  1  0
  5  7  1  0
  5  8  1  0
  5  9  1  0
  6 10  2  0
  6 11  1  0
 12  9  1  1
 10 13  1  0
 11 14  2  0
 13 15  1  0
 13 16  2  0
 14 16  1  0
 12 17  1  0
 12 18  1  0
 17 19  1  0
 17 20  1  0
 18 21  2  0
 18 22  1  0
 19 23  1  0
 20 24  1  0
 20 25  1  1
 22 26  2  0
 21 27  1  0
 26 27  1  0
 26 28  1  0
 23 29  1  0
 24 29  1  0
 24 30  1  1
 25 31  1  0
 30 31  1  0
 29 32  1  1
M  END
