diamond-x0574_0_A-mac-x0344
     RDKit          3D

 26 28  0  0  0  0  0  0  0  0999 V2000
    0.0640   13.4580    1.6940 N   0  0  0  0  0  0  0  0  0  0  0  0
   -1.0260   14.0710    1.2290 C   0  0  0  0  0  0  0  0  0  0  0  0
   -1.9100   14.6860    1.9370 N   0  0  0  0  0  0  0  0  0  0  0  0
   -1.4410   14.0710   -0.4840 S   0  0  0  0  0  0  0  0  0  0  0  0
   -0.6520   13.3120   -1.9360 C   0  0  0  0  0  0  0  0  0  0  0  0
   -3.0270   15.3030    1.1120 C   0  0  1  0  0  0  0  0  0  0  0  0
   -2.9040   14.9660   -0.3410 C   0  0  0  0  0  0  0  0  0  0  0  0
    0.8110   13.0300   -1.6660 C   0  0  0  0  0  0  0  0  0  0  0  0
   -4.4000   14.9240    1.4950 C   0  0  0  0  0  0  0  0  0  0  0  0
   -3.8940   15.3720   -1.3180 C   0  0  0  0  0  0  0  0  0  0  0  0
    1.6220   13.4830   -2.7890 N   0  0  0  0  0  0  0  0  0  0  0  0
   -5.3860   14.9590    0.5800 C   0  0  0  0  0  0  0  0  0  0  0  0
   -5.1300   15.3560   -0.8020 C   0  0  0  0  0  0  0  0  0  0  0  0
   -6.6950   14.6390    0.8560 O   0  0  0  0  0  0  0  0  0  0  0  0
    1.4480   12.9020   -3.9290 C   0  0  0  0  0  0  0  0  0  0  0  0
   -6.9310   14.5230    2.2640 C   0  0  0  0  0  0  0  0  0  0  0  0
    2.1150   13.2300   -5.0360 O   0  0  0  0  0  0  0  0  0  0  0  0
    0.4510   11.7550   -4.1470 C   0  0  0  0  0  0  0  0  0  0  0  0
    0.0990   11.1090   -3.1660 O   0  0  0  0  0  0  0  0  0  0  0  0
    0.0960   11.6210   -5.4690 N   0  0  0  0  0  0  0  0  0  0  0  0
   -0.7680   10.6720   -6.0310 C   0  0  0  0  0  0  0  0  0  0  0  0
   -0.3890   10.0840   -7.2410 C   0  0  0  0  0  0  0  0  0  0  0  0
   -1.9780   10.2930   -5.4400 C   0  0  0  0  0  0  0  0  0  0  0  0
   -1.2050    9.1280   -7.8550 C   0  0  0  0  0  0  0  0  0  0  0  0
   -2.7930    9.3370   -6.0550 C   0  0  0  0  0  0  0  0  0  0  0  0
   -2.4090    8.7580   -7.2580 C   0  0  0  0  0  0  0  0  0  0  0  0
  1  2  1  0
  2  3  2  0
  2  4  1  0
  4  5  1  0
  3  6  1  0
  4  7  2  0
  6  7  1  0
  5  8  1  0
  6  9  1  1
  7 10  1  0
  8 11  1  0
  9 12  2  0
 10 13  2  0
 12 13  1  0
 12 14  1  0
 11 15  2  3
 14 16  1  0
 15 17  1  0
 15 18  1  0
 18 19  2  0
 18 20  1  0
 20 21  1  0
 21 22  2  0
 21 23  1  0
 22 24  1  0
 23 25  2  0
 24 26  2  0
 25 26  1  0
M  END
