diamond-x0724_0_A-mac-x0564
     RDKit          3D

 22 25  0  0  0  0  0  0  0  0999 V2000
   -8.4490   13.5110    4.2530 N   0  0  0  0  0  0  0  0  0  0  0  0
   -8.5030   13.6610    5.7020 C   0  0  0  0  0  0  0  0  0  0  0  0
   -8.2660   14.7950    3.5930 C   0  0  0  0  0  0  0  0  0  0  0  0
   -7.6190   14.7090    2.2510 C   0  0  0  0  0  0  0  0  0  0  0  0
   -6.3080   14.9730    1.9370 C   0  0  0  0  0  0  0  0  0  0  0  0
   -8.1860   14.3610    0.9980 C   0  0  0  0  0  0  0  0  0  0  0  0
   -7.3000   14.4190   -0.0130 N   0  0  0  0  0  0  0  0  0  0  0  0
   -6.1540   14.8100    0.5880 N   0  0  0  0  0  0  0  0  0  0  0  0
   -4.8940   15.0600   -0.1430 C   0  0  1  0  0  0  0  0  0  0  0  0
   -3.6630   15.0810    0.7550 C   0  0  0  0  0  0  0  0  0  0  0  0
   -4.6330   14.3700   -1.5140 C   0  0  0  0  0  0  0  0  0  0  0  0
   -2.4080   15.0100    0.2720 C   0  0  0  0  0  0  0  0  0  0  0  0
   -3.4310   15.1730   -2.0450 C   0  0  2  0  0  0  0  0  0  0  0  0
   -2.8370   15.1550   -3.4790 C   0  0  2  0  0  0  0  0  0  0  0  0
   -2.1770   14.8880   -1.2150 C   0  0  1  0  0  0  0  0  0  0  0  0
   -1.0210   15.5790   -1.9750 C   0  0  2  0  0  0  0  0  0  0  0  0
   -2.2720   13.8660   -3.8760 N   0  0  0  0  0  0  0  0  0  0  0  0
   -1.6790   16.1170   -3.2750 C   0  0  0  0  0  0  0  0  0  0  0  0
    0.0730   14.5590   -2.2610 C   0  0  0  0  0  0  0  0  0  0  0  0
   -0.9260   13.8860   -4.4630 C   0  0  0  0  0  0  0  0  0  0  0  0
    0.9120   14.2660   -1.4070 O   0  0  0  0  0  0  0  0  0  0  0  0
    0.1300   13.9420   -3.4770 N   0  0  0  0  0  0  0  0  0  0  0  0
  1  2  1  0
  1  3  1  0
  3  4  1  0
  4  5  2  0
  4  6  1  0
  6  7  2  0
  5  8  1  0
  7  8  1  0
  9  8  1  1
  9 10  1  0
  9 11  1  0
 10 12  2  0
 13 11  1  6
 13 14  1  0
 15 12  1  1
 13 15  1  0
 15 16  1  0
 14 17  1  1
 14 18  1  0
 16 18  1  0
 16 19  1  6
 17 20  1  0
 19 21  2  0
 19 22  1  0
 20 22  1  0
M  END
