diamond-x0967_0_A-mac-x0397
     RDKit          3D

 12 13  0  0  0  0  0  0  0  0999 V2000
   -5.9000   14.7850   -3.0560 Cl  0  0  0  0  0  0  0  0  0  0  0  0
   -5.0710   14.7600   -1.5590 N   0  0  0  0  0  0  0  0  0  0  0  0
   -5.8750   15.2680   -0.4750 C   0  0  1  0  0  0  0  0  0  0  0  0
   -3.7190   14.9630   -1.5630 C   0  0  0  0  0  0  0  0  0  0  0  0
   -7.2840   14.8470   -0.5620 N   0  0  0  0  0  0  0  0  0  0  0  0
   -5.1460   14.9050    0.8310 C   0  0  0  0  0  0  0  0  0  0  0  0
   -3.0490   14.9820   -0.3960 C   0  0  0  0  0  0  0  0  0  0  0  0
   -5.9810   14.7170    2.0190 C   0  0  0  0  0  0  0  0  0  0  0  0
   -7.8710   14.5320    0.5260 C   0  0  0  0  0  0  0  0  0  0  0  0
   -3.7950   14.7850    0.8350 C   0  0  0  0  0  0  0  0  0  0  0  0
   -5.3910   14.7160    3.2580 N   0  0  0  0  0  0  0  0  0  0  0  0
   -7.3020   14.5380    1.8810 C   0  0  0  0  0  0  0  0  0  0  0  0
  1  2  1  0
  2  3  1  0
  2  4  1  0
  3  5  1  1
  3  6  1  0
  4  7  2  0
  6  8  1  0
  5  9  2  0
  6 10  2  0
  7 10  1  0
  8 11  1  0
  8 12  2  0
  9 12  1  0
M  END
