diamond-x0685_1_A-mac-x0178
     RDKit          3D

 23 24  0  0  0  0  0  0  0  0999 V2000
   -2.0470   10.0730   -5.3640 N   0  0  0  0  0  0  0  0  0  0  0  0
   -1.6940   11.1810   -4.5540 C   0  0  0  0  0  0  0  0  0  0  0  0
   -0.2390   11.1820   -4.3190 C   0  0  0  0  0  0  0  0  0  0  0  0
   -1.1450   10.0100   -6.4660 C   0  0  0  0  0  0  0  0  0  0  0  0
   -0.6590    8.6340   -6.7800 C   0  0  0  0  0  0  0  0  0  0  0  0
   -1.7490   10.7160   -7.6530 C   0  0  0  0  0  0  0  0  0  0  0  0
    0.1080   12.4760   -3.0340 S   0  0  0  0  0  0  0  0  0  0  0  0
    0.3080    8.7230   -7.9500 C   0  0  0  0  0  0  0  0  0  0  0  0
   -1.0890   10.5090   -8.9360 C   0  0  0  0  0  0  0  0  0  0  0  0
    2.0140   12.3920   -3.2590 O   0  0  0  0  0  0  0  0  0  0  0  0
    1.0440   12.1570   -1.3490 O   0  0  0  0  0  0  0  0  0  0  0  0
   -1.4080   12.7950   -2.1070 O   0  0  0  0  0  0  0  0  0  0  0  0
   -0.3600    9.2720   -9.1590 C   0  0  0  0  0  0  0  0  0  0  0  0
   -0.1810   14.0900   -3.7230 C   0  0  0  0  0  0  0  0  0  0  0  0
    0.6150   15.1660   -3.6810 C   0  0  0  0  0  0  0  0  0  0  0  0
   -1.3730   14.2330   -4.3930 C   0  0  0  0  0  0  0  0  0  0  0  0
    0.2540   16.3540   -4.2900 C   0  0  0  0  0  0  0  0  0  0  0  0
   -1.7980   15.3540   -5.0110 C   0  0  0  0  0  0  0  0  0  0  0  0
   -0.9470   16.3850   -4.9350 C   0  0  0  0  0  0  0  0  0  0  0  0
   -1.5140   17.8260   -5.7650 S   0  0  0  0  0  0  0  0  0  0  0  0
   -0.2130   18.6170   -6.5250 N   0  0  0  0  0  0  0  0  0  0  0  0
   -2.5590   17.3920   -6.7640 O   0  0  0  0  0  0  0  0  0  0  0  0
   -2.1540   18.7400   -4.7850 O   0  0  0  0  0  0  0  0  0  0  0  0
  1  2  1  0
  2  3  1  0
  1  4  1  0
  4  5  1  0
  4  6  1  0
  3  7  1  0
  5  8  1  0
  6  9  1  0
  7 10  1  0
  7 11  1  0
  7 12  1  0
  8 13  1  0
  9 13  1  0
  7 14  1  0
 14 15  2  0
 14 16  1  0
 15 17  1  0
 16 18  2  0
 17 19  2  0
 18 19  1  0
 19 20  1  0
 20 21  1  0
 20 22  2  0
 20 23  2  0
M  END
