diamond-x0592_0_A-diamond-x0895_1_A
     RDKit          3D

 16 17  0  0  0  0  0  0  0  0999 V2000
   -3.9500   12.9240   -1.0950 C   0  0  0  0  0  0  0  0  0  0  0  0
   -2.7300   13.3240   -1.0050 N   0  0  0  0  0  0  0  0  0  0  0  0
   -2.3170   14.5980   -0.4960 C   0  0  1  0  0  0  0  0  0  0  0  0
   -5.1940   13.5820   -0.7400 C   0  0  0  0  0  0  0  0  0  0  0  0
   -5.8500   14.6070   -1.4770 C   0  0  0  0  0  0  0  0  0  0  0  0
   -6.0230   13.3940    0.3500 C   0  0  0  0  0  0  0  0  0  0  0  0
   -6.9840   15.0170   -0.9020 N   0  0  0  0  0  0  0  0  0  0  0  0
   -7.0700   14.2660    0.2090 N   0  0  0  0  0  0  0  0  0  0  0  0
   -3.4720   15.4250   -0.5040 N   0  0  0  0  0  0  0  0  0  0  0  0
   -1.9640   14.6150    1.0020 C   0  0  0  0  0  0  0  0  0  0  0  0
   -8.1970   14.4290    1.1150 C   0  0  0  0  0  0  0  0  0  0  0  0
   -3.2390   14.8580    1.6320 N   0  0  0  0  0  0  0  0  0  0  0  0
   -4.1420   15.2780    0.6800 C   0  0  0  0  0  0  0  0  0  0  0  0
   -7.8510   14.0060    2.5390 C   0  0  0  0  0  0  0  0  0  0  0  0
   -5.3220   15.4670    0.8590 O   0  0  0  0  0  0  0  0  0  0  0  0
   -7.1720   15.0400    3.2470 O   0  0  0  0  0  0  0  0  0  0  0  0
  1  2  2  3
  3  2  1  1
  1  4  1  0
  4  5  1  0
  4  6  2  0
  5  7  2  0
  6  8  1  0
  7  8  1  0
  3  9  1  0
  3 10  1  0
  8 11  1  0
 10 12  1  0
  9 13  1  0
 12 13  1  0
 11 14  1  0
 13 15  2  0
 14 16  1  0
M  END
