diamond-x0253_0_A-mac-x0453
     RDKit          3D

 24 25  0  0  0  0  0  0  0  0999 V2000
    0.4820   11.9080   -5.3980 N   0  0  0  0  0  0  0  0  0  0  0  0
    1.1400   11.6570   -6.5640 C   0  0  0  0  0  0  0  0  0  0  0  0
    2.2400   12.1540   -6.6770 O   0  0  0  0  0  0  0  0  0  0  0  0
    1.2780   12.5660   -4.3760 C   0  0  0  0  0  0  0  0  0  0  0  0
    0.6230   12.3790   -3.0340 C   0  0  0  0  0  0  0  0  0  0  0  0
    0.5200   10.7690   -7.6010 C   0  0  0  0  0  0  0  0  0  0  0  0
    0.5390   13.3890   -2.2750 N   0  0  0  0  0  0  0  0  0  0  0  0
    0.1450   11.1500   -2.7370 O   0  0  0  0  0  0  0  0  0  0  0  0
   -0.4570    9.8630   -7.1700 C   0  0  0  0  0  0  0  0  0  0  0  0
    0.8640   10.7970   -8.9590 C   0  0  0  0  0  0  0  0  0  0  0  0
   -0.1290   13.3430   -0.9850 C   0  0  0  0  0  0  0  0  0  0  0  0
   -1.0860    8.9970   -8.0750 C   0  0  0  0  0  0  0  0  0  0  0  0
    0.2440    9.9380   -9.8620 C   0  0  0  0  0  0  0  0  0  0  0  0
   -2.1300    8.0370   -7.5900 C   0  0  0  0  0  0  0  0  0  0  0  0
   -0.7800   14.6940   -0.7010 C   0  0  0  0  0  0  0  0  0  0  0  0
   -0.7260    9.0440   -9.4260 C   0  0  0  0  0  0  0  0  0  0  0  0
   -2.2350   14.7460   -0.6370 N   0  0  0  0  0  0  0  0  0  0  0  0
   -2.9530   14.6930    0.5110 C   0  0  0  0  0  0  0  0  0  0  0  0
   -3.1230   14.8660   -1.6840 C   0  0  0  0  0  0  0  0  0  0  0  0
   -4.2690   14.7880    0.1290 C   0  0  0  0  0  0  0  0  0  0  0  0
   -4.3690   14.8950   -1.2480 N   0  0  0  0  0  0  0  0  0  0  0  0
   -5.4600   14.7860    1.0240 C   0  0  0  0  0  0  0  0  0  0  0  0
   -5.8160   13.4210    1.6260 C   0  0  0  0  0  0  0  0  0  0  0  0
   -6.9270   13.5060    2.5910 N   0  0  0  0  0  0  0  0  0  0  0  0
  1  2  1  0
  2  3  2  0
  1  4  1  0
  4  5  1  0
  2  6  1  0
  5  7  2  3
  5  8  1  0
  6  9  2  0
  6 10  1  0
  7 11  1  0
  9 12  1  0
 10 13  2  0
 12 14  1  0
 11 15  1  0
 12 16  2  0
 13 16  1  0
 15 17  1  0
 17 18  1  0
 17 19  1  0
 18 20  2  0
 19 21  2  0
 20 21  1  0
 20 22  1  0
 22 23  1  0
 23 24  1  0
M  END
