diamond-x0837_0_A-mac-x0565
     RDKit          3D

 19 21  0  0  0  0  0  0  0  0999 V2000
   -6.7420   14.9130   -0.0050 N   0  0  0  0  0  0  0  0  0  0  0  0
   -6.8160   15.2220   -1.2350 C   0  0  0  0  0  0  0  0  0  0  0  0
   -7.9440   15.5380   -1.8790 O   0  0  0  0  0  0  0  0  0  0  0  0
   -5.4400   14.6810    0.3230 C   0  0  0  0  0  0  0  0  0  0  0  0
   -4.9430   15.0640    1.5020 N   0  0  0  0  0  0  0  0  0  0  0  0
   -4.7020   14.0640   -0.6620 C   0  0  0  0  0  0  0  0  0  0  0  0
   -5.5700   15.2160   -2.0730 C   0  0  0  0  0  0  0  0  0  0  0  0
   -3.6280   14.8230    1.6860 C   0  0  0  0  0  0  0  0  0  0  0  0
   -3.3690   13.8400   -0.4400 C   0  0  0  0  0  0  0  0  0  0  0  0
   -4.3330   15.6740   -1.5390 C   0  0  0  0  0  0  0  0  0  0  0  0
   -5.6020   14.7400   -3.3980 C   0  0  0  0  0  0  0  0  0  0  0  0
   -2.2420   12.9410   -1.9360 I   0  0  0  0  0  0  0  0  0  0  0  0
   -2.8020   14.2230    0.7580 C   0  0  0  0  0  0  0  0  0  0  0  0
   -3.2070   15.6240   -2.3490 C   0  0  0  0  0  0  0  0  0  0  0  0
   -4.4470   14.7130   -4.1910 C   0  0  0  0  0  0  0  0  0  0  0  0
   -3.2690   15.1590   -3.6380 C   0  0  0  0  0  0  0  0  0  0  0  0
   -1.9440   16.0060   -2.0060 O   0  0  0  0  0  0  0  0  0  0  0  0
   -2.0610   15.1980   -4.2670 O   0  0  0  0  0  0  0  0  0  0  0  0
   -1.2070   15.6080   -3.1790 C   0  0  0  0  0  0  0  0  0  0  0  0
  1  2  2  3
  2  3  1  0
  1  4  1  0
  4  5  2  0
  4  6  1  0
  2  7  1  0
  5  8  1  0
  6  9  2  0
  7 10  2  0
  7 11  1  0
  9 12  1  0
  8 13  2  0
  9 13  1  0
 10 14  1  0
 11 15  2  0
 14 16  2  0
 15 16  1  0
 14 17  1  0
 16 18  1  0
 17 19  1  0
 18 19  1  0
M  END
