diamond-x0895_0_A-diamond-x0290_0_A
     RDKit          3D

 12 12  0  0  0  0  0  0  0  0999 V2000
   -1.3280   14.4250    1.7260 O   0  0  0  0  0  0  0  0  0  0  0  0
   -2.3380   14.6620    1.0850 C   0  0  0  0  0  0  0  0  0  0  0  0
   -3.6680   15.0750    1.6260 C   0  0  0  0  0  0  0  0  0  0  0  0
   -2.5820   14.6360   -0.2950 N   0  0  0  0  0  0  0  0  0  0  0  0
   -1.5610   14.4970   -1.3220 C   0  0  0  0  0  0  0  0  0  0  0  0
   -4.0360   16.0680    0.6080 N   0  0  0  0  0  0  0  0  0  0  0  0
   -3.8680   15.2370   -0.5620 C   0  0  2  0  0  0  0  0  0  0  0  0
   -4.9110   14.2570   -0.4610 N   0  0  0  0  0  0  0  0  0  0  0  0
   -5.5100   14.3160    0.7040 C   0  0  0  0  0  0  0  0  0  0  0  0
   -6.6290   13.5030    1.3200 C   0  0  0  0  0  0  0  0  0  0  0  0
   -7.8410   13.6260    0.5050 N   0  0  0  0  0  0  0  0  0  0  0  0
   -8.5560   14.8610    0.7990 C   0  0  0  0  0  0  0  0  0  0  0  0
  1  2  2  0
  2  3  1  0
  2  4  1  0
  4  5  1  0
  3  6  1  0
  4  7  1  0
  6  7  1  0
  7  8  1  1
  8  9  2  3
  9 10  1  0
 10 11  1  0
 11 12  1  0
M  END
