diamond-x0895_1_A-mac-x0392
     RDKit          3D

 11 11  0  0  0  0  0  0  0  0999 V2000
   -1.3630   15.1300    1.5190 O   0  0  0  0  0  0  0  0  0  0  0  0
   -2.3290   14.8310    0.8410 C   0  0  0  0  0  0  0  0  0  0  0  0
   -2.3320   14.2870   -0.6110 C   0  0  2  0  0  0  0  0  0  0  0  0
   -3.6260   14.8690    1.3030 N   0  0  0  0  0  0  0  0  0  0  0  0
   -1.6550   13.0280   -0.5280 N   0  0  0  0  0  0  0  0  0  0  0  0
   -1.6000   14.9150   -1.8390 C   0  0  0  0  0  0  0  0  0  0  0  0
   -3.7610   14.0980   -0.7900 N   0  0  0  0  0  0  0  0  0  0  0  0
   -4.4740   14.6130    0.2900 C   0  0  0  0  0  0  0  0  0  0  0  0
   -5.6850   14.7930    0.3180 O   0  0  0  0  0  0  0  0  0  0  0  0
   -2.1460   15.1790   -2.9060 O   0  0  0  0  0  0  0  0  0  0  0  0
   -0.2560   15.1200   -1.6820 O   0  0  0  0  0  0  0  0  0  0  0  0
  1  2  2  0
  2  3  1  0
  2  4  1  0
  3  5  1  1
  3  6  1  0
  3  7  1  0
  4  8  1  0
  7  8  1  0
  8  9  2  0
  6 10  2  0
  6 11  1  0
M  END
