diamond-x0631_0_A-mac-x0255
     RDKit          3D

 32 35  0  0  0  0  0  0  0  0999 V2000
   -2.6750    8.9500   -7.8380 C   0  0  0  0  0  0  0  0  0  0  0  0
   -1.4720    8.0740   -7.5240 C   0  0  0  0  0  0  0  0  0  0  0  0
   -0.4060    8.7580   -6.6440 C   0  0  2  0  0  0  0  0  0  0  0  0
   -1.1860    9.5190   -5.5190 C   0  0  0  0  0  0  0  0  0  0  0  0
    0.5110    9.6350   -7.4250 N   0  0  0  0  0  0  0  0  0  0  0  0
   -0.3830   10.2160   -4.4160 C   0  0  0  0  0  0  0  0  0  0  0  0
    0.1350   11.0110   -7.4640 N   0  0  0  0  0  0  0  0  0  0  0  0
    0.8050    9.2330   -8.7720 N   0  0  0  0  0  0  0  0  0  0  0  0
   -1.1930   10.9890   -3.3900 C   0  0  0  0  0  0  0  0  0  0  0  0
    0.3700   11.4470   -8.8240 N   0  0  0  0  0  0  0  0  0  0  0  0
    1.2890   10.4730   -9.3480 C   0  0  2  0  0  0  0  0  0  0  0  0
    1.1790   10.5040  -10.7920 N   0  0  0  0  0  0  0  0  0  0  0  0
   -0.2850   11.5710   -2.3970 N   0  0  0  0  0  0  0  0  0  0  0  0
    2.2560    9.7700  -11.4540 C   0  0  1  0  0  0  0  0  0  0  0  0
    0.6960   12.3170   -2.7610 C   0  0  0  0  0  0  0  0  0  0  0  0
    1.7860    8.5340  -11.9290 O   0  0  0  0  0  0  0  0  0  0  0  0
    1.4250   12.7910   -1.7530 O   0  0  0  0  0  0  0  0  0  0  0  0
    1.1910   12.7800   -4.1080 C   0  0  0  0  0  0  0  0  0  0  0  0
    2.9570   10.5880  -12.5900 C   0  0  1  0  0  0  0  0  0  0  0  0
    3.9730    9.7870  -13.2290 O   0  0  0  0  0  0  0  0  0  0  0  0
    2.1650   11.1680  -13.7300 C   0  0  0  0  0  0  0  0  0  0  0  0
    0.5560   14.0880   -4.4650 C   0  0  0  0  0  0  0  0  0  0  0  0
    3.3040   11.5670  -14.6350 C   0  0  0  0  0  0  0  0  0  0  0  0
    4.2510   10.3920  -14.4980 C   0  0  0  0  0  0  0  0  0  0  0  0
    1.1560   15.3100   -4.6690 C   0  0  0  0  0  0  0  0  0  0  0  0
   -1.1380   14.1900   -4.6740 S   0  0  0  0  0  0  0  0  0  0  0  0
    0.2310   16.3450   -5.0110 C   0  0  0  0  0  0  0  0  0  0  0  0
   -1.0810   15.8640   -5.0490 C   0  0  0  0  0  0  0  0  0  0  0  0
    0.4490   17.7080   -5.3020 C   0  0  0  0  0  0  0  0  0  0  0  0
   -2.1690   16.6980   -5.3670 C   0  0  0  0  0  0  0  0  0  0  0  0
   -0.6260   18.5350   -5.6220 C   0  0  0  0  0  0  0  0  0  0  0  0
   -1.9130   18.0380   -5.6550 C   0  0  0  0  0  0  0  0  0  0  0  0
  1  2  1  0
  3  2  1  6
  3  4  1  0
  3  5  1  0
  4  6  1  0
  5  7  1  0
  5  8  1  0
  6  9  1  0
  7 10  1  0
  8 11  1  0
 10 11  1  0
 11 12  1  6
  9 13  1  0
 12 14  1  0
 13 15  2  3
 14 16  1  6
 15 17  1  0
 15 18  1  0
 14 19  1  0
 19 20  1  0
 19 21  1  6
 18 22  1  0
 21 23  1  0
 20 24  1  0
 23 24  1  0
 22 25  2  0
 22 26  1  0
 25 27  1  0
 26 28  1  0
 27 28  2  0
 27 29  1  0
 28 30  1  0
 29 31  2  0
 30 32  2  0
 31 32  1  0
M  END
