diamond-x0864_0_A-mac-x0255
     RDKit          3D

 21 23  0  0  0  0  0  0  0  0999 V2000
    1.5610   11.9930   -6.6860 O   0  0  0  0  0  0  0  0  0  0  0  0
    0.5510   11.3750   -6.3770 C   0  0  0  0  0  0  0  0  0  0  0  0
   -0.3200   11.7010   -5.3470 N   0  0  0  0  0  0  0  0  0  0  0  0
    0.1740   10.1360   -7.1190 C   0  0  0  0  0  0  0  0  0  0  0  0
    0.0770   12.6240   -4.2560 C   0  0  1  0  0  0  0  0  0  0  0  0
   -1.6510   11.3450   -5.4490 C   0  0  0  0  0  0  0  0  0  0  0  0
   -1.0800    9.6610   -7.0250 C   0  0  0  0  0  0  0  0  0  0  0  0
    1.1500   12.2030   -3.2840 C   0  0  0  0  0  0  0  0  0  0  0  0
   -1.6540    8.1120   -7.8880 Br  0  0  0  0  0  0  0  0  0  0  0  0
   -2.0480   10.3610   -6.2380 C   0  0  0  0  0  0  0  0  0  0  0  0
   -0.0400   14.0640   -4.5990 C   0  0  0  0  0  0  0  0  0  0  0  0
    0.8700   11.0070   -2.7330 O   0  0  0  0  0  0  0  0  0  0  0  0
    2.1420   12.8140   -2.9450 O   0  0  0  0  0  0  0  0  0  0  0  0
    0.8070   15.1400   -4.7950 C   0  0  0  0  0  0  0  0  0  0  0  0
   -1.6730   14.4700   -4.7940 S   0  0  0  0  0  0  0  0  0  0  0  0
    0.0680   16.3310   -5.1290 C   0  0  0  0  0  0  0  0  0  0  0  0
   -1.3050   16.0750   -5.1560 C   0  0  0  0  0  0  0  0  0  0  0  0
    0.4770   17.6450   -5.4250 C   0  0  0  0  0  0  0  0  0  0  0  0
   -2.2550   17.0400   -5.4560 C   0  0  0  0  0  0  0  0  0  0  0  0
   -0.4800   18.6170   -5.7300 C   0  0  0  0  0  0  0  0  0  0  0  0
   -1.8290   18.3200   -5.7450 C   0  0  0  0  0  0  0  0  0  0  0  0
  1  2  2  0
  2  3  1  0
  2  4  1  0
  3  5  1  0
  3  6  1  0
  4  7  2  0
  5  8  1  6
  7  9  1  0
  6 10  2  0
  7 10  1  0
  5 11  1  0
  8 12  1  0
  8 13  2  0
 11 14  2  0
 11 15  1  0
 14 16  1  0
 15 17  1  0
 16 17  2  0
 16 18  1  0
 17 19  1  0
 18 20  2  0
 19 21  2  0
 20 21  1  0
M  END
