diamond-x0438_0_A-diamond-x1018_0_A
     RDKit          3D

 14 15  0  0  0  0  0  0  0  0999 V2000
   -8.1660   15.5000    3.8580 C   0  0  0  0  0  0  0  0  0  0  0  0
   -9.3800   15.3030    2.5630 S   0  0  0  0  0  0  0  0  0  0  0  0
  -10.6110   14.8140    3.1610 O   0  0  0  0  0  0  0  0  0  0  0  0
   -8.7600   14.0070    1.5040 C   0  0  0  0  0  0  0  0  0  0  0  0
   -9.4250   16.5170    1.7770 O   0  0  0  0  0  0  0  0  0  0  0  0
   -7.4180   14.3260    0.9650 C   0  0  0  0  0  0  0  0  0  0  0  0
   -7.1950   14.7080   -0.3390 N   0  0  0  0  0  0  0  0  0  0  0  0
   -6.2910   14.2830    1.6340 N   0  0  0  0  0  0  0  0  0  0  0  0
   -5.3070   14.6370    0.7470 C   0  0  0  0  0  0  0  0  0  0  0  0
   -5.8520   14.9100   -0.4990 C   0  0  0  0  0  0  0  0  0  0  0  0
   -5.0900   15.2950   -1.5970 C   0  0  0  0  0  0  0  0  0  0  0  0
   -3.9270   14.7440    0.9430 C   0  0  0  0  0  0  0  0  0  0  0  0
   -3.7140   15.3940   -1.3920 C   0  0  0  0  0  0  0  0  0  0  0  0
   -3.1380   15.1230   -0.1460 C   0  0  0  0  0  0  0  0  0  0  0  0
  2  1  1  0
  2  3  2  0
  2  4  1  0
  2  5  2  0
  4  6  1  0
  6  7  1  0
  6  8  2  0
  8  9  1  0
  7 10  1  0
  9 10  2  0
 10 11  1  0
  9 12  1  0
 11 13  2  0
 12 14  2  0
 13 14  1  0
M  END
