diamond-x0628_0_A-diamond-x0910_0_A
     RDKit          3D

 20 21  0  0  0  0  0  0  0  0999 V2000
   -0.9240    9.0430   -7.2900 C   0  0  0  0  0  0  0  0  0  0  0  0
   -0.9090   10.2370   -6.4230 C   0  0  0  0  0  0  0  0  0  0  0  0
   -1.8710   10.4810   -5.4810 N   0  0  0  0  0  0  0  0  0  0  0  0
    0.0450   11.1620   -6.4960 N   0  0  0  0  0  0  0  0  0  0  0  0
   -0.3350   12.0400   -5.5420 N   0  0  0  0  0  0  0  0  0  0  0  0
   -1.4950   11.6240   -4.9280 C   0  0  0  0  0  0  0  0  0  0  0  0
   -2.2170   12.3370   -3.8180 C   0  0  0  0  0  0  0  0  0  0  0  0
    0.4830   13.2160   -5.3170 C   0  0  0  0  0  0  0  0  0  0  0  0
    1.6540   12.9720   -4.3750 C   0  0  0  0  0  0  0  0  0  0  0  0
   -2.6380   13.7750   -4.1730 C   0  0  0  0  0  0  0  0  0  0  0  0
    1.2350   12.2480   -3.1230 C   0  0  0  0  0  0  0  0  0  0  0  0
   -2.2680   14.8330   -3.1140 C   0  0  0  0  0  0  0  0  0  0  0  0
    0.5560   11.2380   -3.0240 O   0  0  0  0  0  0  0  0  0  0  0  0
    1.7190   12.8590   -2.0340 O   0  0  0  0  0  0  0  0  0  0  0  0
   -2.6590   14.4500   -1.7640 N   0  0  0  0  0  0  0  0  0  0  0  0
   -1.8260   14.6480   -0.7180 C   0  0  0  0  0  0  0  0  0  0  0  0
   -2.2860   14.6980    0.5770 N   0  0  0  0  0  0  0  0  0  0  0  0
   -0.5240   14.8210   -0.7020 N   0  0  0  0  0  0  0  0  0  0  0  0
   -1.2790   14.9040    1.4430 N   0  0  0  0  0  0  0  0  0  0  0  0
   -0.2360   14.9750    0.6240 C   0  0  0  0  0  0  0  0  0  0  0  0
  1  2  1  0
  2  3  1  0
  2  4  2  0
  4  5  1  0
  3  6  2  0
  5  6  1  0
  6  7  1  0
  5  8  1  0
  8  9  1  0
  7 10  1  0
  9 11  1  0
 10 12  1  0
 11 13  2  0
 11 14  1  0
 12 15  1  0
 15 16  1  0
 16 17  1  0
 16 18  2  0
 17 19  1  0
 18 20  1  0
 19 20  2  0
M  END
