diamond-x0104_0_A-mac-x0338
     RDKit          3D

 25 27  0  0  0  0  0  0  0  0999 V2000
   -6.3870   14.8890    1.8160 C   0  0  0  0  0  0  0  0  0  0  0  0
   -7.6260   14.7930    2.7160 C   0  0  0  0  0  0  0  0  0  0  0  0
   -7.4550   14.9540    4.0710 N   0  0  0  0  0  0  0  0  0  0  0  0
   -5.1260   15.4020    1.9590 C   0  0  0  0  0  0  0  0  0  0  0  0
   -6.3580   14.4690    0.4550 C   0  0  0  0  0  0  0  0  0  0  0  0
   -8.6950   14.6060    2.1440 O   0  0  0  0  0  0  0  0  0  0  0  0
   -4.4800   16.0190    2.9960 N   0  0  0  0  0  0  0  0  0  0  0  0
   -5.3020   13.6460    0.1060 C   0  0  0  0  0  0  0  0  0  0  0  0
   -7.2670   14.8670   -0.5140 C   0  0  0  0  0  0  0  0  0  0  0  0
   -4.3510   15.2880    0.6640 C   0  0  0  0  0  0  0  0  0  0  0  0
   -5.0720   13.2200   -1.1370 N   0  0  0  0  0  0  0  0  0  0  0  0
   -7.0530   14.4420   -1.8160 C   0  0  0  0  0  0  0  0  0  0  0  0
   -8.5190   15.0570    4.9730 C   0  0  0  0  0  0  0  0  0  0  0  0
   -3.0970   14.7500    0.6740 N   0  0  0  0  0  0  0  0  0  0  0  0
   -4.9250   15.7190   -0.5480 C   0  0  0  0  0  0  0  0  0  0  0  0
   -5.9460   13.6410   -2.0670 C   0  0  0  0  0  0  0  0  0  0  0  0
   -8.4400   15.1420    6.3530 C   0  0  0  0  0  0  0  0  0  0  0  0
  -10.1410   15.0910    4.4500 S   0  0  0  0  0  0  0  0  0  0  0  0
   -2.4930   14.6630   -0.5430 C   0  0  0  0  0  0  0  0  0  0  0  0
   -4.3110   15.6220   -1.7490 N   0  0  0  0  0  0  0  0  0  0  0  0
   -5.7330   13.2680   -3.3660 O   0  0  0  0  0  0  0  0  0  0  0  0
  -10.7490   15.2170    6.0450 C   0  0  0  0  0  0  0  0  0  0  0  0
   -9.7310   15.2350    6.9720 C   0  0  0  0  0  0  0  0  0  0  0  0
   -3.0850   15.0860   -1.7210 C   0  0  0  0  0  0  0  0  0  0  0  0
   -4.5940   13.9520   -3.8950 C   0  0  0  0  0  0  0  0  0  0  0  0
  1  2  1  0
  2  3  1  0
  1  4  2  3
  1  5  1  0
  2  6  2  0
  4  7  1  0
  5  8  2  0
  5  9  1  0
  4 10  1  0
  8 11  1  0
  9 12  2  0
  3 13  1  0
 10 14  2  0
 10 15  1  0
 11 16  2  0
 12 16  1  0
 13 17  2  0
 13 18  1  0
 14 19  1  0
 15 20  2  0
 16 21  1  0
 18 22  1  0
 17 23  1  0
 22 23  2  0
 19 24  2  0
 20 24  1  0
 21 25  1  0
M  END
