diamond-x0662_0_A-diamond-x0722_0_A
     RDKit          3D

 33 35  0  0  0  0  0  0  0  0999 V2000
    5.2940    9.5570  -15.0810 C   0  0  0  0  0  0  0  0  0  0  0  0
    4.2630   10.0330  -14.1910 N   0  0  0  0  0  0  0  0  0  0  0  0
    3.6220   11.2360  -14.2390 C   0  0  0  0  0  0  0  0  0  0  0  0
    3.8550    9.2420  -13.1900 N   0  0  0  0  0  0  0  0  0  0  0  0
    2.7370   11.2230  -13.1890 C   0  0  0  0  0  0  0  0  0  0  0  0
    2.9110    9.9530  -12.5470 C   0  0  0  0  0  0  0  0  0  0  0  0
    2.2200    9.4010  -11.3500 C   0  0  0  0  0  0  0  0  0  0  0  0
    2.3480    8.2260  -11.0430 O   0  0  0  0  0  0  0  0  0  0  0  0
    1.4660   10.3370  -10.6490 N   0  0  0  0  0  0  0  0  0  0  0  0
    0.7030   10.1290   -9.4780 C   0  0  0  0  0  0  0  0  0  0  0  0
   -0.2660    9.1190   -9.5510 C   0  0  0  0  0  0  0  0  0  0  0  0
    0.8360   10.8390   -8.2770 C   0  0  0  0  0  0  0  0  0  0  0  0
   -1.0790    8.8270   -8.4580 C   0  0  0  0  0  0  0  0  0  0  0  0
    0.0300   10.5590   -7.1740 C   0  0  0  0  0  0  0  0  0  0  0  0
    0.2100   11.3470   -5.9000 C   0  0  0  0  0  0  0  0  0  0  0  0
   -0.9330    9.5440   -7.2710 C   0  0  0  0  0  0  0  0  0  0  0  0
   -0.5110   10.9830   -4.9080 N   0  0  0  0  0  0  0  0  0  0  0  0
    1.0750   12.2360   -6.0480 O   0  0  0  0  0  0  0  0  0  0  0  0
   -0.3490   11.6920   -3.6500 C   0  0  0  0  0  0  0  0  0  0  0  0
   -1.7110   12.1610   -3.1710 C   0  0  0  0  0  0  0  0  0  0  0  0
   -1.7130   12.7090   -1.7540 C   0  0  0  0  0  0  0  0  0  0  0  0
   -1.7400   14.2300   -1.6900 C   0  0  0  0  0  0  0  0  0  0  0  0
   -2.2990   14.6220   -0.3740 C   0  0  0  0  0  0  0  0  0  0  0  0
   -3.5530   15.1240   -0.0440 C   0  0  0  0  0  0  0  0  0  0  0  0
   -1.5930   14.5340    0.7970 N   0  0  0  0  0  0  0  0  0  0  0  0
   -0.2450   14.0910    1.0460 C   0  0  0  0  0  0  0  0  0  0  0  0
   -4.7200   15.4270   -0.9370 C   0  0  0  0  0  0  0  0  0  0  0  0
   -2.2870   14.9270    1.8470 N   0  0  0  0  0  0  0  0  0  0  0  0
   -3.4580   15.2880    1.3510 C   0  0  0  0  0  0  0  0  0  0  0  0
   -4.4550   15.7990    2.2720 C   0  0  0  0  0  0  0  0  0  0  0  0
   -5.9920   14.6750   -0.5880 C   0  0  0  0  0  0  0  0  0  0  0  0
   -7.1240   15.1220   -0.7500 O   0  0  0  0  0  0  0  0  0  0  0  0
   -5.8060   13.4300   -0.0680 N   0  0  0  0  0  0  0  0  0  0  0  0
  1  2  1  0
  2  3  1  0
  2  4  1  0
  3  5  2  0
  4  6  2  0
  5  6  1  0
  6  7  1  0
  7  8  2  0
  7  9  1  0
  9 10  1  0
 10 11  2  0
 10 12  1  0
 11 13  1  0
 12 14  2  0
 14 15  1  0
 13 16  2  0
 14 16  1  0
 15 17  2  3
 15 18  1  0
 17 19  1  0
 19 20  1  0
 20 21  1  0
 21 22  1  0
 22 23  1  0
 23 24  2  0
 23 25  1  0
 25 26  1  0
 24 27  1  0
 25 28  1  0
 24 29  1  0
 28 29  2  0
 29 30  1  0
 27 31  1  0
 31 32  2  0
 31 33  1  0
M  CHG  1  18  -1
M  END
