diamond-x0290_0_A-mac-x0453
     RDKit          3D

 18 19  0  0  0  0  0  0  0  0999 V2000
   -7.4490   13.5600    0.5920 N   0  0  0  0  0  0  0  0  0  0  0  0
   -8.3300   14.7060    0.7790 C   0  0  0  0  0  0  0  0  0  0  0  0
   -6.1350   13.6850    1.3040 C   0  0  0  0  0  0  0  0  0  0  0  0
   -5.0010   14.6330    0.6930 C   0  0  1  0  0  0  0  0  0  0  0  0
   -5.6980   15.7230    0.1440 O   0  0  0  0  0  0  0  0  0  0  0  0
   -4.0390   15.2130    1.6010 N   0  0  0  0  0  0  0  0  0  0  0  0
   -4.2790   14.2340   -0.5520 C   0  0  0  0  0  0  0  0  0  0  0  0
   -2.7290   15.0620    1.1490 C   0  0  0  0  0  0  0  0  0  0  0  0
   -3.1250   13.5260   -0.7350 C   0  0  0  0  0  0  0  0  0  0  0  0
   -4.7990   14.6540   -1.7650 N   0  0  0  0  0  0  0  0  0  0  0  0
   -1.7190   14.6440    1.9240 N   0  0  0  0  0  0  0  0  0  0  0  0
   -2.4930   15.3590   -0.2000 C   0  0  0  0  0  0  0  0  0  0  0  0
   -2.9260   13.5170   -2.0840 N   0  0  0  0  0  0  0  0  0  0  0  0
   -3.9560   14.2080   -2.6580 C   0  0  0  0  0  0  0  0  0  0  0  0
   -0.4880   14.5090    1.3790 C   0  0  0  0  0  0  0  0  0  0  0  0
   -1.2190   15.2150   -0.7600 C   0  0  0  0  0  0  0  0  0  0  0  0
   -0.9910   15.5250   -2.2080 C   0  0  0  0  0  0  0  0  0  0  0  0
   -0.1880   14.7770    0.0580 C   0  0  0  0  0  0  0  0  0  0  0  0
  1  2  1  0
  1  3  1  0
  3  4  1  0
  4  5  1  6
  4  6  1  0
  4  7  1  0
  6  8  1  0
  7  9  2  0
  7 10  1  0
  8 11  2  0
  8 12  1  0
  9 13  1  0
 10 14  2  0
 13 14  1  0
 11 15  1  0
 12 16  2  0
 16 17  1  0
 15 18  2  0
 16 18  1  0
M  END
