diamond-x0685_1_A-mac-x0306
     RDKit          3D

 26 28  0  0  0  0  0  0  0  0999 V2000
   -1.2810   10.5970   -4.8130 N   0  0  0  0  0  0  0  0  0  0  0  0
   -1.5160   12.0070   -4.4360 C   0  0  0  0  0  0  0  0  0  0  0  0
   -0.2470   12.7720   -4.0420 C   0  0  0  0  0  0  0  0  0  0  0  0
   -0.7180   10.4120   -6.1660 C   0  0  0  0  0  0  0  0  0  0  0  0
   -0.5640    8.9030   -6.4250 C   0  0  0  0  0  0  0  0  0  0  0  0
   -1.5740   11.0290   -7.2880 C   0  0  0  0  0  0  0  0  0  0  0  0
    0.6360   12.1280   -2.6140 S   0  0  0  0  0  0  0  0  0  0  0  0
    0.0650    8.6190   -7.7880 C   0  0  0  0  0  0  0  0  0  0  0  0
   -1.0340   10.7200   -8.6930 C   0  0  0  0  0  0  0  0  0  0  0  0
    2.1820   12.2610   -3.0280 O   0  0  0  0  0  0  0  0  0  0  0  0
    0.2440   10.5690   -2.4590 O   0  0  0  0  0  0  0  0  0  0  0  0
    0.3110   12.9710   -1.2670 O   0  0  0  0  0  0  0  0  0  0  0  0
   -0.7860    9.2230   -8.9010 C   0  0  0  0  0  0  0  0  0  0  0  0
   -1.0130   13.1470   -0.7510 C   0  0  0  0  0  0  0  0  0  0  0  0
   -1.4310   14.6040   -0.6080 C   0  0  0  0  0  0  0  0  0  0  0  0
   -2.8990   14.7960   -0.9450 C   0  0  0  0  0  0  0  0  0  0  0  0
   -3.1350   15.0930   -2.2350 N   0  0  0  0  0  0  0  0  0  0  0  0
   -3.9350   14.6680    0.0040 C   0  0  0  0  0  0  0  0  0  0  0  0
   -4.4050   15.2660   -2.6160 C   0  0  0  0  0  0  0  0  0  0  0  0
   -5.2680   14.8520   -0.4230 C   0  0  0  0  0  0  0  0  0  0  0  0
   -6.4650   14.7400    0.4310 C   0  0  0  0  0  0  0  0  0  0  0  0
   -5.4840   15.1610   -1.7690 C   0  0  0  0  0  0  0  0  0  0  0  0
   -6.5090   14.5370    1.7990 N   0  0  0  0  0  0  0  0  0  0  0  0
   -7.7070   14.8170   -0.0260 N   0  0  0  0  0  0  0  0  0  0  0  0
   -8.5420   14.6710    1.0480 C   0  0  0  0  0  0  0  0  0  0  0  0
   -7.8170   14.4960    2.1920 C   0  0  0  0  0  0  0  0  0  0  0  0
  1  2  1  0
  2  3  1  0
  1  4  1  0
  4  5  1  0
  4  6  1  0
  3  7  1  0
  5  8  1  0
  6  9  1  0
  7 10  1  0
  7 11  1  0
  7 12  1  0
  8 13  1  0
  9 13  1  0
 12 14  1  0
 14 15  1  0
 15 16  1  0
 16 17  2  0
 16 18  1  0
 17 19  1  0
 18 20  2  0
 20 21  1  0
 19 22  2  0
 20 22  1  0
 21 23  1  0
 21 24  2  0
 24 25  1  0
 23 26  1  0
 25 26  2  0
M  END
