diamond-x0371_0_A-mac-x0510
     RDKit          3D

 23 26  0  0  0  0  0  0  0  0999 V2000
   -8.1840   14.4390    2.8870 N   0  0  0  0  0  0  0  0  0  0  0  0
   -8.8360   15.4780    3.5340 C   0  0  0  0  0  0  0  0  0  0  0  0
   -9.5000   16.2960    2.8970 O   0  0  0  0  0  0  0  0  0  0  0  0
   -8.4220   14.1580    1.4870 C   0  0  0  0  0  0  0  0  0  0  0  0
   -7.1850   14.4650    0.7140 C   0  0  0  0  0  0  0  0  0  0  0  0
   -8.6770   15.5060    4.9730 C   0  0  0  0  0  0  0  0  0  0  0  0
   -6.0470   14.8940    1.3590 N   0  0  0  0  0  0  0  0  0  0  0  0
   -6.9910   14.3850   -0.6010 N   0  0  0  0  0  0  0  0  0  0  0  0
   -8.0800   14.4300    5.5670 O   0  0  0  0  0  0  0  0  0  0  0  0
   -9.0110   16.4290    5.9520 C   0  0  0  0  0  0  0  0  0  0  0  0
   -5.6960   14.7750   -0.7690 C   0  0  0  0  0  0  0  0  0  0  0  0
   -5.1060   15.1010    0.4040 C   0  0  0  0  0  0  0  0  0  0  0  0
   -8.5920   15.8760    7.1910 C   0  0  0  0  0  0  0  0  0  0  0  0
   -8.0310   14.6610    6.9000 C   0  0  0  0  0  0  0  0  0  0  0  0
   -3.7720   15.5510    0.5010 C   0  0  0  0  0  0  0  0  0  0  0  0
   -4.9500   14.8560   -1.9730 C   0  0  0  0  0  0  0  0  0  0  0  0
   -3.4600   16.3850    1.2930 O   0  0  0  0  0  0  0  0  0  0  0  0
   -2.8610   14.8250   -0.5470 C   0  0  1  0  0  0  0  0  0  0  0  0
   -3.5920   14.8630   -1.8950 C   0  0  0  0  0  0  0  0  0  0  0  0
   -1.3900   15.0930   -0.6930 N   0  0  0  0  0  0  0  0  0  0  0  0
   -2.6380   13.5470    0.1880 C   0  0  0  0  0  0  0  0  0  0  0  0
   -1.7390   14.0260    1.2830 N   0  0  0  0  0  0  0  0  0  0  0  0
   -0.7720   14.8420    0.5950 C   0  0  0  0  0  0  0  0  0  0  0  0
  1  2  1  0
  2  3  2  0
  1  4  1  0
  4  5  1  0
  2  6  1  0
  5  7  1  0
  5  8  2  0
  6  9  1  0
  6 10  2  0
  8 11  1  0
  7 12  1  0
 11 12  2  0
 10 13  1  0
  9 14  1  0
 13 14  2  0
 12 15  1  0
 11 16  1  0
 15 17  2  0
 18 15  1  0
 16 19  2  0
 18 19  1  6
 18 20  1  0
 18 21  1  0
 21 22  1  0
 20 23  1  0
 22 23  1  0
M  END
