diamond-x0438_0_A-mac-x0348
     RDKit          3D

 32 35  0  0  0  0  0  0  0  0999 V2000
   -8.2370   15.5130    3.8000 C   0  0  0  0  0  0  0  0  0  0  0  0
   -9.4670   15.3430    2.5210 S   0  0  0  0  0  0  0  0  0  0  0  0
  -10.6650   14.8260    3.1500 O   0  0  0  0  0  0  0  0  0  0  0  0
   -8.8170   14.1030    1.4090 C   0  0  0  0  0  0  0  0  0  0  0  0
   -9.5420   16.5860    1.7800 O   0  0  0  0  0  0  0  0  0  0  0  0
   -7.4520   14.4310    0.9140 C   0  0  0  0  0  0  0  0  0  0  0  0
   -7.1050   14.5960   -0.4120 N   0  0  0  0  0  0  0  0  0  0  0  0
   -6.4110   14.5990    1.6870 N   0  0  0  0  0  0  0  0  0  0  0  0
   -5.3550   14.8700    0.8610 C   0  0  0  0  0  0  0  0  0  0  0  0
   -5.7590   14.8730   -0.4660 C   0  0  0  0  0  0  0  0  0  0  0  0
   -4.8790   15.1150   -1.5200 C   0  0  0  0  0  0  0  0  0  0  0  0
   -4.0220   15.1220    1.1890 C   0  0  0  0  0  0  0  0  0  0  0  0
   -3.5370   15.3490   -1.1670 C   0  0  0  0  0  0  0  0  0  0  0  0
   -3.1240   15.3570    0.1600 C   0  0  0  0  0  0  0  0  0  0  0  0
   -2.4730   15.5800   -2.1820 C   0  0  0  0  0  0  0  0  0  0  0  0
   -1.4120   14.4820   -2.0180 C   0  0  0  0  0  0  0  0  0  0  0  0
    0.0200   15.0110   -1.9160 C   0  0  0  0  0  0  0  0  0  0  0  0
    0.7060   14.8410   -3.2770 C   0  0  1  0  0  0  0  0  0  0  0  0
    0.7080   13.3710   -3.7410 C   0  0  0  0  0  0  0  0  0  0  0  0
    0.0950   15.8330   -4.2380 C   0  0  0  0  0  0  0  0  0  0  0  0
    0.5410   12.3740   -2.6110 C   0  0  0  0  0  0  0  0  0  0  0  0
    0.7150   16.9350   -4.7520 C   0  0  0  0  0  0  0  0  0  0  0  0
   -1.2280   15.8380   -4.7900 C   0  0  0  0  0  0  0  0  0  0  0  0
    0.7150   12.5890   -1.4190 O   0  0  0  0  0  0  0  0  0  0  0  0
    0.1530   11.1550   -3.0180 O   0  0  0  0  0  0  0  0  0  0  0  0
   -0.1290   17.5960   -5.5770 N   0  0  0  0  0  0  0  0  0  0  0  0
   -1.3390   16.9610   -5.6130 C   0  0  0  0  0  0  0  0  0  0  0  0
   -2.3320   14.9830   -4.6550 C   0  0  0  0  0  0  0  0  0  0  0  0
    0.2410   18.7920   -6.2860 C   0  0  0  0  0  0  0  0  0  0  0  0
   -3.5070   15.2700   -5.3300 C   0  0  0  0  0  0  0  0  0  0  0  0
   -2.5230   17.2620   -6.2960 C   0  0  0  0  0  0  0  0  0  0  0  0
   -3.5940   16.3810   -6.1240 C   0  0  0  0  0  0  0  0  0  0  0  0
  2  1  1  0
  2  3  2  0
  2  4  1  0
  2  5  2  0
  4  6  1  0
  6  7  1  0
  6  8  2  0
  8  9  1  0
  7 10  1  0
  9 10  2  0
 10 11  1  0
  9 12  1  0
 11 13  2  0
 12 14  2  0
 13 14  1  0
 13 15  1  0
 15 16  1  0
 16 17  1  0
 18 17  1  1
 18 19  1  0
 18 20  1  0
 19 21  1  0
 20 22  2  0
 20 23  1  0
 21 24  2  0
 21 25  1  0
 22 26  1  0
 23 27  2  0
 26 27  1  0
 23 28  1  0
 26 29  1  0
 28 30  2  0
 27 31  1  0
 30 32  1  0
 31 32  2  0
M  END
