diamond-x0742_0_A-diamond-x0727_0_A
     RDKit          3D

 30 33  0  0  0  0  0  0  0  0999 V2000
   -5.6420   12.2000   -0.3230 C   0  0  0  0  0  0  0  0  0  0  0  0
   -6.4300   11.9340    0.9320 C   0  0  0  0  0  0  0  0  0  0  0  0
   -5.5630   11.3500   -1.2180 O   0  0  0  0  0  0  0  0  0  0  0  0
   -4.9590   13.5520   -0.5100 C   0  0  2  0  0  0  0  0  0  0  0  0
   -4.7970   14.4510    0.7400 C   0  0  2  0  0  0  0  0  0  0  0  0
   -5.8900   14.4320   -1.3580 C   0  0  0  0  0  0  0  0  0  0  0  0
   -3.6190   13.3340   -1.2180 C   0  0  0  0  0  0  0  0  0  0  0  0
   -4.4650   15.7810    0.0720 C   0  0  0  0  0  0  0  0  0  0  0  0
   -2.3980   13.7470   -0.4510 C   0  0  0  0  0  0  0  0  0  0  0  0
   -3.6650   14.0670    1.6600 C   0  0  0  0  0  0  0  0  0  0  0  0
   -5.3620   15.8390   -1.1570 C   0  0  0  0  0  0  0  0  0  0  0  0
   -1.2120   13.7750   -1.1410 C   0  0  0  0  0  0  0  0  0  0  0  0
   -2.3980   14.0950    0.8970 C   0  0  0  0  0  0  0  0  0  0  0  0
   -1.2870   14.4720    1.5630 N   0  0  0  0  0  0  0  0  0  0  0  0
   -0.0470   14.1430   -0.5200 C   0  0  0  0  0  0  0  0  0  0  0  0
    1.1950   14.1350   -1.3690 C   0  0  0  0  0  0  0  0  0  0  0  0
   -0.1410   14.4930    0.8400 C   0  0  0  0  0  0  0  0  0  0  0  0
    0.8600   13.7130   -2.7230 O   0  0  0  0  0  0  0  0  0  0  0  0
    0.7710   12.4030   -3.1600 C   0  0  0  0  0  0  0  0  0  0  0  0
    1.0060   12.4430   -4.6830 C   0  0  1  0  0  0  0  0  0  0  0  0
    0.5380   11.3870   -2.4990 O   0  0  0  0  0  0  0  0  0  0  0  0
    0.2230   11.4480   -5.4320 N   0  0  0  0  0  0  0  0  0  0  0  0
    0.6580   13.8310   -5.1920 C   0  0  0  0  0  0  0  0  0  0  0  0
    0.7160   11.1220   -6.6800 C   0  0  0  0  0  0  0  0  0  0  0  0
    1.6410   11.7370   -7.1550 O   0  0  0  0  0  0  0  0  0  0  0  0
    0.0940    9.9520   -7.4360 C   0  0  0  0  0  0  0  0  0  0  0  0
   -1.2030   10.3280   -8.1620 C   0  0  0  0  0  0  0  0  0  0  0  0
   -0.2380    8.7420   -6.5450 C   0  0  0  0  0  0  0  0  0  0  0  0
   -2.1150    9.1160   -8.0110 C   0  0  0  0  0  0  0  0  0  0  0  0
   -1.7400    8.5360   -6.6560 C   0  0  0  0  0  0  0  0  0  0  0  0
  1  2  1  0
  1  3  2  0
  4  1  1  1
  4  5  1  0
  4  6  1  0
  4  7  1  0
  5  8  1  6
  7  9  1  0
  5 10  1  0
  6 11  1  0
  8 11  1  0
  9 12  2  0
  9 13  1  0
 10 13  1  0
 13 14  2  0
 12 15  1  0
 15 16  1  0
 14 17  1  0
 15 17  2  0
 16 18  1  0
 18 19  1  0
 19 20  1  0
 19 21  2  0
 20 22  1  0
 20 23  1  6
 22 24  1  0
 24 25  2  0
 24 26  1  0
 26 27  1  0
 26 28  1  0
 27 29  1  0
 28 30  1  0
 29 30  1  0
M  END
