diamond-x0724_0_A-mac-x0148
     RDKit          3D

 27 31  0  0  0  0  0  0  0  0999 V2000
   -8.1630   13.4910    4.3200 N   0  0  0  0  0  0  0  0  0  0  0  0
   -8.7300   13.5860    5.6620 C   0  0  0  0  0  0  0  0  0  0  0  0
   -8.1580   14.7860    3.6640 C   0  0  0  0  0  0  0  0  0  0  0  0
   -7.5240   14.7800    2.3110 C   0  0  0  0  0  0  0  0  0  0  0  0
   -6.1910   14.9960    1.9540 C   0  0  0  0  0  0  0  0  0  0  0  0
   -8.1700   14.5700    1.0750 C   0  0  0  0  0  0  0  0  0  0  0  0
   -7.3460   14.6670    0.0310 N   0  0  0  0  0  0  0  0  0  0  0  0
   -6.1350   14.9470    0.5710 N   0  0  0  0  0  0  0  0  0  0  0  0
   -4.9760   15.1870   -0.3230 C   0  0  1  0  0  0  0  0  0  0  0  0
   -3.5390   15.3010    0.2710 C   0  0  0  0  0  0  0  0  0  0  0  0
   -5.0620   14.4340   -1.6470 C   0  0  0  0  0  0  0  0  0  0  0  0
   -2.4370   14.3300   -0.3050 C   0  0  2  0  0  0  0  0  0  0  0  0
   -4.2020   13.2350   -1.6850 C   0  0  0  0  0  0  0  0  0  0  0  0
   -3.0260   13.1880   -1.0730 C   0  0  0  0  0  0  0  0  0  0  0  0
   -1.8140   14.0020    1.0020 N   0  0  0  0  0  0  0  0  0  0  0  0
   -1.0160   14.5390   -1.0380 C   0  0  1  0  0  0  0  0  0  0  0  0
   -0.7040   14.7700   -2.4850 N   0  0  0  0  0  0  0  0  0  0  0  0
   -0.2440   15.2630   -0.0480 N   0  0  0  0  0  0  0  0  0  0  0  0
   -0.3940   14.3050    1.0260 C   0  0  0  0  0  0  0  0  0  0  0  0
   -1.7850   14.4140   -3.4710 C   0  0  1  0  0  0  0  0  0  0  0  0
    0.4370   13.8630   -2.8110 C   0  0  0  0  0  0  0  0  0  0  0  0
   -2.7220   15.4670   -4.0660 C   0  0  0  0  0  0  0  0  0  0  0  0
   -1.2490   13.8330   -4.8050 C   0  0  2  0  0  0  0  0  0  0  0  0
   -0.0130   12.4570   -3.2430 C   0  0  0  0  0  0  0  0  0  0  0  0
   -2.5190   13.7360   -5.6090 C   0  0  0  0  0  0  0  0  0  0  0  0
   -3.2140   14.9540   -5.3280 O   0  0  0  0  0  0  0  0  0  0  0  0
   -0.5170   12.5150   -4.6620 C   0  0  0  0  0  0  0  0  0  0  0  0
  1  2  1  0
  1  3  1  0
  3  4  1  0
  4  5  2  0
  4  6  1  0
  6  7  2  0
  5  8  1  0
  7  8  1  0
  9  8  1  1
  9 10  1  0
  9 11  1  0
 12 10  1  1
 11 13  1  0
 12 14  1  0
 13 14  2  0
 12 15  1  0
 12 16  1  0
 16 17  1  6
 16 18  1  0
 15 19  1  0
 18 19  1  0
 17 20  1  0
 17 21  1  0
 20 22  1  6
 20 23  1  0
 21 24  1  0
 23 25  1  6
 22 26  1  0
 25 26  1  0
 23 27  1  0
 24 27  1  0
M  END
