diamond-x0524_0_A-diamond-x0855_0_A
     RDKit          3D

 26 28  0  0  0  0  0  0  0  0999 V2000
   -0.4070    8.3360   -8.3310 N   0  0  0  0  0  0  0  0  0  0  0  0
   -0.9930    9.4700   -7.8460 C   0  0  0  0  0  0  0  0  0  0  0  0
   -2.0060    9.2420   -6.7600 C   0  0  0  0  0  0  0  0  0  0  0  0
    0.6800    8.3630   -9.2060 C   0  0  0  0  0  0  0  0  0  0  0  0
   -0.7400   10.6170   -8.1910 O   0  0  0  0  0  0  0  0  0  0  0  0
    1.8200    7.6000   -9.0530 C   0  0  0  0  0  0  0  0  0  0  0  0
    0.5780    9.2320  -10.2920 C   0  0  0  0  0  0  0  0  0  0  0  0
    2.8590    7.6950   -9.9820 C   0  0  0  0  0  0  0  0  0  0  0  0
    1.6150    9.3260  -11.2210 C   0  0  0  0  0  0  0  0  0  0  0  0
   -1.6940   10.3540   -5.8700 C   0  0  0  0  0  0  0  0  0  0  0  0
    2.7710    8.5530  -11.0770 C   0  0  0  0  0  0  0  0  0  0  0  0
   -0.4590   10.9320   -5.7770 C   0  0  0  0  0  0  0  0  0  0  0  0
   -2.5010   11.0640   -4.9660 C   0  0  0  0  0  0  0  0  0  0  0  0
    3.7870    8.6740  -12.0330 N   0  0  0  0  0  0  0  0  0  0  0  0
   -0.5690   11.9110   -4.8600 N   0  0  0  0  0  0  0  0  0  0  0  0
   -1.8090   12.0200   -4.3420 N   0  0  0  0  0  0  0  0  0  0  0  0
    0.4910   12.7770   -4.4220 C   0  0  0  0  0  0  0  0  0  0  0  0
    4.0070    9.5710  -13.0870 C   0  0  0  0  0  0  0  0  0  0  0  0
    1.0000   12.2320   -3.1280 C   0  0  0  0  0  0  0  0  0  0  0  0
    3.2410   10.7260  -13.3020 C   0  0  0  0  0  0  0  0  0  0  0  0
    5.0530    9.2980  -13.9730 C   0  0  0  0  0  0  0  0  0  0  0  0
    1.7540   13.1020   -2.4350 O   0  0  0  0  0  0  0  0  0  0  0  0
    0.7900   11.1210   -2.6710 O   0  0  0  0  0  0  0  0  0  0  0  0
    3.5170   11.5770  -14.3700 C   0  0  0  0  0  0  0  0  0  0  0  0
    5.3320   10.1480  -15.0430 C   0  0  0  0  0  0  0  0  0  0  0  0
    4.5600   11.2910  -15.2410 C   0  0  0  0  0  0  0  0  0  0  0  0
  1  2  1  0
  2  3  1  0
  1  4  1  0
  2  5  2  0
  4  6  2  0
  4  7  1  0
  6  8  1  0
  7  9  2  0
  3 10  1  0
  8 11  2  0
  9 11  1  0
 10 12  2  0
 10 13  1  0
 11 14  1  0
 12 15  1  0
 13 16  2  0
 15 16  1  0
 15 17  1  0
 14 18  1  0
 17 19  1  0
 18 20  2  0
 18 21  1  0
 19 22  1  0
 19 23  2  0
 20 24  1  0
 21 25  2  0
 24 26  2  0
 25 26  1  0
M  END
