diamond-x0950_1_A-diamond-x0950_0_A
     RDKit          3D

  7  6  0  0  0  0  0  0  0  0999 V2000
    1.1530   13.9730   -4.7510 C   0  0  0  0  0  0  0  0  0  0  0  0
    1.4870   12.5040   -4.4820 C   0  0  0  0  0  0  0  0  0  0  0  0
    0.8230   11.7180   -5.4780 O   0  0  0  0  0  0  0  0  0  0  0  0
    1.0200   12.0910   -3.0820 C   0  0  0  0  0  0  0  0  0  0  0  0
    2.9910   12.2640   -4.5740 C   0  0  0  0  0  0  0  0  0  0  0  0
    0.3600   11.1190   -2.7760 O   0  0  0  0  0  0  0  0  0  0  0  0
    1.4360   12.9680   -2.1400 O   0  0  0  0  0  0  0  0  0  0  0  0
  1  2  1  0
  2  3  1  0
  2  4  1  0
  2  5  1  0
  4  6  2  0
  4  7  1  0
M  END
