diamond-x0962_2_B-diamond-x0681_0_A
     RDKit          3D

 20 22  0  0  0  0  0  0  0  0999 V2000
  -10.7780   16.5390    0.9870 N   0  0  0  0  0  0  0  0  0  0  0  0
  -10.0410   16.2180    1.8170 C   0  0  0  0  0  0  0  0  0  0  0  0
   -9.1510   15.8290    2.8420 C   0  0  0  0  0  0  0  0  0  0  0  0
   -9.2580   16.1800    4.1590 N   0  0  0  0  0  0  0  0  0  0  0  0
   -8.0220   15.0530    2.7530 C   0  0  0  0  0  0  0  0  0  0  0  0
   -7.4220   14.4170    1.5410 C   0  0  0  0  0  0  0  0  0  0  0  0
   -8.2130   15.6070    4.8170 C   0  0  0  0  0  0  0  0  0  0  0  0
   -7.4650   14.9250    3.9940 N   0  0  0  0  0  0  0  0  0  0  0  0
   -5.9510   13.9170    1.5790 C   0  0  1  0  0  0  0  0  0  0  0  0
   -5.6750   13.1140    0.4220 N   0  0  0  0  0  0  0  0  0  0  0  0
   -4.8220   14.9720    1.8190 C   0  0  0  0  0  0  0  0  0  0  0  0
   -4.6660   13.3190   -0.4780 C   0  0  0  0  0  0  0  0  0  0  0  0
   -4.2470   15.5590    0.5320 C   0  0  0  0  0  0  0  0  0  0  0  0
   -6.3810   12.0190    0.0360 C   0  0  0  0  0  0  0  0  0  0  0  0
   -3.6880   14.4460   -0.3660 C   0  0  2  0  0  0  0  0  0  0  0  0
   -4.7020   12.3990   -1.4220 N   0  0  0  0  0  0  0  0  0  0  0  0
   -5.7630   11.5940   -1.1080 C   0  0  0  0  0  0  0  0  0  0  0  0
   -3.3830   14.9060   -1.7880 C   0  0  0  0  0  0  0  0  0  0  0  0
   -4.4330   15.5080   -2.4160 N   0  0  0  0  0  0  0  0  0  0  0  0
   -2.3090   14.7640   -2.3640 O   0  0  0  0  0  0  0  0  0  0  0  0
  1  2  3  0
  2  3  1  0
  3  4  1  0
  3  5  2  0
  5  6  1  0
  4  7  1  0
  5  8  1  0
  7  8  2  0
  9  6  1  6
  9 10  1  0
  9 11  1  0
 10 12  1  0
 11 13  1  0
 10 14  1  0
 12 15  1  0
 13 15  1  0
 12 16  2  0
 14 17  2  0
 16 17  1  0
 15 18  1  6
 18 19  1  0
 18 20  2  0
M  END
