diamond-x0864_0_A-diamond-x0855_0_A
     RDKit          3D

 12 12  0  0  0  0  0  0  0  0999 V2000
    1.5720   11.8080   -6.8700 O   0  0  0  0  0  0  0  0  0  0  0  0
    0.5060   11.3480   -6.4910 C   0  0  0  0  0  0  0  0  0  0  0  0
   -0.1860   11.8150   -5.3860 N   0  0  0  0  0  0  0  0  0  0  0  0
   -0.0990   10.2060   -7.2170 C   0  0  0  0  0  0  0  0  0  0  0  0
    0.5290   12.7650   -4.5360 C   0  0  0  0  0  0  0  0  0  0  0  0
   -1.3430   11.2100   -4.9280 C   0  0  0  0  0  0  0  0  0  0  0  0
   -1.2310    9.6540   -6.7650 C   0  0  0  0  0  0  0  0  0  0  0  0
    0.7250   12.3130   -3.0970 C   0  0  0  0  0  0  0  0  0  0  0  0
   -2.0350    8.2100   -7.6320 Br  0  0  0  0  0  0  0  0  0  0  0  0
   -1.8720   10.1630   -5.5730 C   0  0  0  0  0  0  0  0  0  0  0  0
    0.4510   11.0240   -2.8290 O   0  0  0  0  0  0  0  0  0  0  0  0
    1.1050   13.0360   -2.1930 O   0  0  0  0  0  0  0  0  0  0  0  0
  1  2  2  0
  2  3  1  0
  2  4  1  0
  3  5  1  0
  3  6  1  0
  4  7  2  0
  5  8  1  0
  7  9  1  0
  6 10  2  0
  7 10  1  0
  8 11  1  0
  8 12  2  0
M  END
