diamond-x0852_0_B-diamond-x0837_0_A
     RDKit          3D

 20 21  0  0  0  0  0  0  0  0999 V2000
   -9.7510   17.7990    7.1730 N   0  0  0  0  0  0  0  0  0  0  0  0
   -9.4720   17.2700    6.1750 C   0  0  0  0  0  0  0  0  0  0  0  0
   -9.1670   16.5410    4.9770 C   0  0  0  0  0  0  0  0  0  0  0  0
   -8.2020   15.5240    4.9750 C   0  0  0  0  0  0  0  0  0  0  0  0
   -9.8540   16.8560    3.7860 C   0  0  0  0  0  0  0  0  0  0  0  0
   -7.5230   15.2020    6.1170 O   0  0  0  0  0  0  0  0  0  0  0  0
   -7.9230   14.8270    3.8150 C   0  0  0  0  0  0  0  0  0  0  0  0
   -9.5670   16.1450    2.6130 C   0  0  0  0  0  0  0  0  0  0  0  0
  -10.1200   16.2920    1.3670 O   0  0  0  0  0  0  0  0  0  0  0  0
   -8.6020   15.1380    2.6470 C   0  0  0  0  0  0  0  0  0  0  0  0
   -9.7030   15.2860    0.4200 C   0  0  0  0  0  0  0  0  0  0  0  0
   -8.8120   15.9580   -0.6160 C   0  0  0  0  0  0  0  0  0  0  0  0
   -7.5670   15.2410   -0.9780 N   0  0  0  0  0  0  0  0  0  0  0  0
   -6.4940   14.8900   -0.3170 C   0  0  0  0  0  0  0  0  0  0  0  0
   -6.0210   14.9840    0.9820 N   0  0  0  0  0  0  0  0  0  0  0  0
   -5.4640   14.2480   -1.2140 C   0  0  0  0  0  0  0  0  0  0  0  0
   -4.6710   15.2020    1.2360 C   0  0  0  0  0  0  0  0  0  0  0  0
   -4.2760   15.1960   -1.1650 C   0  0  2  0  0  0  0  0  0  0  0  0
   -2.7720   14.6650   -2.6110 I   0  0  0  0  0  0  0  0  0  0  0  0
   -3.7670   15.3070    0.2440 C   0  0  0  0  0  0  0  0  0  0  0  0
  1  2  3  0
  2  3  1  0
  3  4  2  0
  3  5  1  0
  4  6  1  0
  4  7  1  0
  5  8  2  0
  8  9  1  0
  7 10  2  0
  8 10  1  0
  9 11  1  0
 11 12  1  0
 12 13  1  0
 13 14  2  3
 14 15  1  0
 14 16  1  0
 15 17  1  0
 16 18  1  0
 18 19  1  6
 17 20  2  0
 18 20  1  0
M  END
