diamond-x0290_0_A-mac-x0455
     RDKit          3D

 24 25  0  0  0  0  0  0  0  0999 V2000
   -7.8740   13.8170    1.0320 N   0  0  0  0  0  0  0  0  0  0  0  0
   -8.6420   15.0080    0.6850 C   0  0  0  0  0  0  0  0  0  0  0  0
   -6.6840   14.1240    1.8510 C   0  0  0  0  0  0  0  0  0  0  0  0
   -5.4700   14.4920    1.0090 C   0  0  0  0  0  0  0  0  0  0  0  0
   -5.6030   14.5820   -0.2220 O   0  0  0  0  0  0  0  0  0  0  0  0
   -4.2310   14.7120    1.5120 N   0  0  0  0  0  0  0  0  0  0  0  0
   -2.9990   14.6470    0.9050 C   0  0  0  0  0  0  0  0  0  0  0  0
   -1.9020   14.5900    1.7020 N   0  0  0  0  0  0  0  0  0  0  0  0
   -2.9100   14.6370   -0.4550 C   0  0  0  0  0  0  0  0  0  0  0  0
   -0.6930   14.5290    1.0850 C   0  0  0  0  0  0  0  0  0  0  0  0
   -1.6960   14.5680   -1.0930 C   0  0  0  0  0  0  0  0  0  0  0  0
   -1.7770   14.5590   -2.6090 C   0  0  0  0  0  0  0  0  0  0  0  0
   -0.5310   14.5140   -0.2990 C   0  0  0  0  0  0  0  0  0  0  0  0
   -0.5730   14.1860   -3.4850 C   0  0  1  0  0  0  0  0  0  0  0  0
   -0.4140   15.3150   -4.3800 O   0  0  0  0  0  0  0  0  0  0  0  0
    0.6660   14.0930   -2.5860 C   0  0  0  0  0  0  0  0  0  0  0  0
   -0.7640   12.9780   -4.4010 C   0  0  0  0  0  0  0  0  0  0  0  0
    1.4410   15.0240   -2.4370 O   0  0  0  0  0  0  0  0  0  0  0  0
    0.8530   12.9030   -1.9770 O   0  0  0  0  0  0  0  0  0  0  0  0
   -1.8770   12.1140   -4.3370 C   0  0  0  0  0  0  0  0  0  0  0  0
    0.2200   12.6960   -5.3680 C   0  0  0  0  0  0  0  0  0  0  0  0
   -1.9890   11.0190   -5.2020 C   0  0  0  0  0  0  0  0  0  0  0  0
    0.1060   11.6040   -6.2280 C   0  0  0  0  0  0  0  0  0  0  0  0
   -0.9980   10.7640   -6.1450 C   0  0  0  0  0  0  0  0  0  0  0  0
  1  2  1  0
  1  3  1  0
  3  4  1  0
  4  5  2  0
  4  6  1  0
  6  7  1  0
  7  8  2  0
  7  9  1  0
  8 10  1  0
  9 11  2  0
 11 12  1  0
 10 13  2  0
 11 13  1  0
 12 14  1  0
 14 15  1  6
 14 16  1  0
 14 17  1  0
 16 18  2  0
 16 19  1  0
 17 20  2  0
 17 21  1  0
 20 22  1  0
 21 23  2  0
 22 24  2  0
 23 24  1  0
M  END
