diamond-x0895_0_A-diamond-x0849_0_A
     RDKit          3D

 11 12  0  0  0  0  0  0  0  0999 V2000
   -2.3390   13.9060    2.0630 O   0  0  0  0  0  0  0  0  0  0  0  0
   -2.4200   14.9520    1.1620 C   0  0  2  0  0  0  0  0  0  0  0  0
   -3.7210   15.7460    1.4230 C   0  0  0  0  0  0  0  0  0  0  0  0
   -2.5560   14.5020   -0.1920 N   0  0  0  0  0  0  0  0  0  0  0  0
   -1.1940   15.6290    1.3160 N   0  0  0  0  0  0  0  0  0  0  0  0
   -4.6020   15.1960    0.4310 N   0  0  0  0  0  0  0  0  0  0  0  0
   -3.8080   14.9190   -0.6720 C   0  0  0  0  0  0  0  0  0  0  0  0
   -0.0540   14.8290    0.9280 C   0  0  0  0  0  0  0  0  0  0  0  0
   -1.4530   14.2070   -0.9750 C   0  0  0  0  0  0  0  0  0  0  0  0
   -4.1810   15.0350   -1.8230 O   0  0  0  0  0  0  0  0  0  0  0  0
   -0.2190   14.3500   -0.4640 C   0  0  0  0  0  0  0  0  0  0  0  0
  2  1  1  1
  2  3  1  0
  2  4  1  0
  2  5  1  0
  3  6  1  0
  4  7  1  0
  6  7  1  0
  5  8  1  0
  4  9  1  0
  7 10  2  0
  8 11  1  0
  9 11  2  0
M  END
