diamond-x0587_0_A-mac-x0588
     RDKit          3D

 28 31  0  0  0  0  0  0  0  0999 V2000
   -7.7440   15.3040    4.1940 N   0  0  0  0  0  0  0  0  0  0  0  0
   -8.3310   15.0560    2.9840 C   0  0  0  0  0  0  0  0  0  0  0  0
   -9.4710   15.4550    2.7550 O   0  0  0  0  0  0  0  0  0  0  0  0
   -7.5070   14.2830    1.9900 C   0  0  1  0  0  0  0  0  0  0  0  0
   -7.9950   14.5060    0.5480 C   0  0  0  0  0  0  0  0  0  0  0  0
   -6.0210   14.6040    2.1070 C   0  0  0  0  0  0  0  0  0  0  0  0
   -7.1420   13.9210   -0.5020 N   0  0  0  0  0  0  0  0  0  0  0  0
   -5.5140   15.0930    0.8160 N   0  0  0  0  0  0  0  0  0  0  0  0
   -5.7140   14.0320   -0.2060 C   0  0  2  0  0  0  0  0  0  0  0  0
   -4.0990   15.4000    1.0260 N   0  0  0  0  0  0  0  0  0  0  0  0
   -4.9230   14.2550   -1.5330 C   0  0  0  0  0  0  0  0  0  0  0  0
   -3.3600   14.8710   -0.1100 C   0  0  1  0  0  0  0  0  0  0  0  0
   -5.0360   13.1690   -2.3430 F   0  0  0  0  0  0  0  0  0  0  0  0
   -5.4450   15.2960   -2.2340 F   0  0  0  0  0  0  0  0  0  0  0  0
   -3.2700   15.9680   -1.0280 N   0  0  0  0  0  0  0  0  0  0  0  0
   -1.9850   14.4170    0.2990 C   0  0  1  0  0  0  0  0  0  0  0  0
   -2.7480   15.5960   -2.3300 C   0  0  0  0  0  0  0  0  0  0  0  0
   -1.1250   14.2060   -0.9550 C   0  0  1  0  0  0  0  0  0  0  0  0
   -1.2430   15.3290    1.1640 N   0  0  0  0  0  0  0  0  0  0  0  0
   -1.6930   14.5930   -2.2670 N   0  0  0  0  0  0  0  0  0  0  0  0
    0.0700   14.9790   -0.6630 N   0  0  0  0  0  0  0  0  0  0  0  0
    0.0900   15.0080    0.7800 C   0  0  0  0  0  0  0  0  0  0  0  0
   -0.6840   14.7470   -3.3480 C   0  0  0  0  0  0  0  0  0  0  0  0
   -0.3440   16.2130   -3.7010 C   0  0  2  0  0  0  0  0  0  0  0  0
   -1.4330   16.8630   -4.3980 O   0  0  0  0  0  0  0  0  0  0  0  0
    0.8130   16.3080   -4.6730 C   0  0  0  0  0  0  0  0  0  0  0  0
    0.6270   17.6700   -5.2840 C   0  0  0  0  0  0  0  0  0  0  0  0
   -0.8620   17.9400   -5.1440 C   0  0  0  0  0  0  0  0  0  0  0  0
  1  2  1  0
  2  3  2  0
  4  2  1  1
  4  5  1  0
  4  6  1  0
  5  7  1  0
  6  8  1  0
  7  9  1  0
  8  9  1  0
  8 10  1  0
  9 11  1  6
 12 10  1  1
 11 13  1  0
 11 14  1  0
 12 15  1  0
 12 16  1  0
 15 17  1  0
 16 18  1  0
 16 19  1  1
 17 20  1  0
 18 20  1  0
 18 21  1  1
 19 22  1  0
 21 22  1  0
 20 23  1  0
 24 23  1  6
 24 25  1  0
 24 26  1  0
 26 27  1  0
 25 28  1  0
 27 28  1  0
M  END
