diamond-x0681_0_A-diamond-x1012_0_A
     RDKit          3D

 24 26  0  0  0  0  0  0  0  0999 V2000
   -3.8020   15.6880   -2.9220 N   0  0  0  0  0  0  0  0  0  0  0  0
   -3.2760   14.9060   -1.9400 C   0  0  0  0  0  0  0  0  0  0  0  0
   -2.1250   14.3110   -1.9550 N   0  0  0  0  0  0  0  0  0  0  0  0
   -4.2040   14.8380   -0.7160 C   0  0  1  0  0  0  0  0  0  0  0  0
   -4.9390   13.5490   -0.6050 C   0  0  0  0  0  0  0  0  0  0  0  0
   -3.5840   15.3380    0.5980 C   0  0  0  0  0  0  0  0  0  0  0  0
   -1.2030   14.5360   -3.0930 C   0  0  2  0  0  0  0  0  0  0  0  0
   -5.6580   13.3260    0.5080 N   0  0  0  0  0  0  0  0  0  0  0  0
   -4.3140   14.8610    1.8470 C   0  0  0  0  0  0  0  0  0  0  0  0
   -5.0300   12.5400   -1.4450 N   0  0  0  0  0  0  0  0  0  0  0  0
   -1.8030   14.9630   -4.4180 C   0  0  0  0  0  0  0  0  0  0  0  0
   -0.1610   13.4840   -3.4330 C   0  0  2  0  0  0  0  0  0  0  0  0
    0.2190   12.5290   -2.3120 C   0  0  0  0  0  0  0  0  0  0  0  0
   -5.7040   14.2860    1.5650 C   0  0  0  0  0  0  0  0  0  0  0  0
   -6.2610   12.1180    0.4150 C   0  0  0  0  0  0  0  0  0  0  0  0
   -5.8590   11.6410   -0.8140 C   0  0  0  0  0  0  0  0  0  0  0  0
    1.0100   14.3270   -3.9610 C   0  0  0  0  0  0  0  0  0  0  0  0
   -0.8280   15.8980   -4.9660 N   0  0  0  0  0  0  0  0  0  0  0  0
   -1.1860   17.2230   -4.8430 C   0  0  0  0  0  0  0  0  0  0  0  0
    0.3290   11.2520   -2.7440 O   0  0  0  0  0  0  0  0  0  0  0  0
    0.4150   12.8290   -1.1480 O   0  0  0  0  0  0  0  0  0  0  0  0
    0.5850   15.4050   -5.0080 C   0  0  0  0  0  0  0  0  0  0  0  0
   -0.1890   18.1300   -4.7510 N   0  0  0  0  0  0  0  0  0  0  0  0
   -2.3390   17.6350   -4.8050 O   0  0  0  0  0  0  0  0  0  0  0  0
  1  2  1  0
  2  3  2  3
  4  2  1  6
  4  5  1  0
  4  6  1  0
  7  3  1  1
  5  8  1  0
  6  9  1  0
  5 10  2  0
  7 11  1  0
  7 12  1  0
 12 13  1  1
  8 14  1  0
  9 14  1  0
  8 15  1  0
 10 16  1  0
 15 16  2  0
 12 17  1  0
 11 18  1  0
 18 19  1  0
 13 20  1  0
 13 21  2  0
 17 22  1  0
 18 22  1  0
 19 23  1  0
 19 24  2  0
M  END
