diamond-x0628_0_A-mac-x0546
     RDKit          3D

 23 25  0  0  0  0  0  0  0  0999 V2000
   -0.4800    9.6690   -7.7330 C   0  0  0  0  0  0  0  0  0  0  0  0
   -0.6600   10.6000   -6.5980 C   0  0  0  0  0  0  0  0  0  0  0  0
   -1.8710   10.7570   -5.9760 N   0  0  0  0  0  0  0  0  0  0  0  0
    0.3430   11.3510   -6.0900 N   0  0  0  0  0  0  0  0  0  0  0  0
   -0.2910   12.0010   -5.0790 N   0  0  0  0  0  0  0  0  0  0  0  0
   -1.6190   11.6360   -5.0310 C   0  0  0  0  0  0  0  0  0  0  0  0
   -2.5930   12.1620   -4.0430 C   0  0  0  0  0  0  0  0  0  0  0  0
    0.3500   12.9420   -4.1360 C   0  0  1  0  0  0  0  0  0  0  0  0
    1.4930   12.4320   -3.3520 C   0  0  0  0  0  0  0  0  0  0  0  0
    0.5840   14.3670   -4.3790 C   0  0  0  0  0  0  0  0  0  0  0  0
    0.8660   11.6580   -2.2650 C   0  0  0  0  0  0  0  0  0  0  0  0
   -0.2300   15.1070   -5.2820 C   0  0  1  0  0  0  0  0  0  0  0  0
    1.5060   15.1790   -3.8450 C   0  0  0  0  0  0  0  0  0  0  0  0
    0.5910   10.4690   -2.2880 O   0  0  0  0  0  0  0  0  0  0  0  0
    0.5820   12.3990   -1.1880 O   0  0  0  0  0  0  0  0  0  0  0  0
   -1.6980   15.1230   -5.1810 C   0  0  0  0  0  0  0  0  0  0  0  0
    0.3510   16.4650   -5.0030 C   0  0  0  0  0  0  0  0  0  0  0  0
    1.3700   16.4810   -4.2290 N   0  0  0  0  0  0  0  0  0  0  0  0
   -2.3420   16.2480   -5.4560 C   0  0  0  0  0  0  0  0  0  0  0  0
   -0.2840   17.6240   -5.6190 C   0  0  0  0  0  0  0  0  0  0  0  0
   -3.6750   16.3820   -5.4540 O   0  0  0  0  0  0  0  0  0  0  0  0
   -1.6150   17.4700   -5.8150 C   0  0  0  0  0  0  0  0  0  0  0  0
   -4.4430   15.2950   -5.9520 C   0  0  0  0  0  0  0  0  0  0  0  0
  1  2  1  0
  2  3  1  0
  2  4  2  0
  4  5  1  0
  3  6  2  0
  5  6  1  0
  6  7  1  0
  5  8  1  0
  8  9  1  6
  8 10  1  0
  9 11  1  0
 10 12  1  0
 10 13  2  0
 11 14  2  0
 11 15  1  0
 12 16  1  1
 12 17  1  0
 13 18  1  0
 17 18  2  0
 16 19  2  0
 17 20  1  0
 19 21  1  0
 19 22  1  0
 20 22  2  0
 21 23  1  0
M  END
