diamond-x0421_0_A-mac-x0572
     RDKit          3D

 14 15  0  0  0  0  0  0  0  0999 V2000
   -3.6690   15.1870   -2.9810 N   0  0  0  0  0  0  0  0  0  0  0  0
   -2.8330   14.9450   -1.9300 C   0  0  0  0  0  0  0  0  0  0  0  0
   -1.6250   14.8080   -2.0770 O   0  0  0  0  0  0  0  0  0  0  0  0
   -3.5110   14.8590   -0.6460 C   0  0  0  0  0  0  0  0  0  0  0  0
   -2.9040   14.7470    0.5920 C   0  0  0  0  0  0  0  0  0  0  0  0
   -4.8970   14.8710   -0.5040 N   0  0  0  0  0  0  0  0  0  0  0  0
   -3.9320   14.6830    1.4770 N   0  0  0  0  0  0  0  0  0  0  0  0
   -5.0980   14.7600    0.7910 C   0  0  0  0  0  0  0  0  0  0  0  0
   -6.4920   14.7170    1.4770 C   0  0  1  0  0  0  0  0  0  0  0  0
   -7.7350   14.4350    0.6670 C   0  0  0  0  0  0  0  0  0  0  0  0
   -7.2400   13.4330    1.6700 C   0  0  2  0  0  0  0  0  0  0  0  0
   -7.9680   13.2080    2.9560 C   0  0  0  0  0  0  0  0  0  0  0  0
   -7.5310   14.1600   -0.7190 O   0  0  0  0  0  0  0  0  0  0  0  0
   -8.9840   15.0480    0.9520 O   0  0  0  0  0  0  0  0  0  0  0  0
  1  2  1  0
  2  3  2  0
  2  4  1  0
  4  5  2  0
  4  6  1  0
  5  7  1  0
  6  8  2  0
  7  8  1  0
  9  8  1  6
  9 10  1  0
  9 11  1  0
 10 11  1  0
 11 12  1  1
 10 13  1  0
 10 14  1  0
M  END
