diamond-x0724_0_A-mac-x0379
     RDKit          3D

 18 19  0  0  0  0  0  0  0  0999 V2000
   -8.7970   13.8180    4.3260 N   0  0  0  0  0  0  0  0  0  0  0  0
   -8.7310   13.7100    5.7800 C   0  0  0  0  0  0  0  0  0  0  0  0
   -8.1190   15.0240    3.8560 C   0  0  0  0  0  0  0  0  0  0  0  0
   -7.5030   14.8450    2.5160 C   0  0  0  0  0  0  0  0  0  0  0  0
   -6.1610   14.9230    2.1840 C   0  0  0  0  0  0  0  0  0  0  0  0
   -8.1260   14.5690    1.2880 C   0  0  0  0  0  0  0  0  0  0  0  0
   -7.2570   14.4880    0.2840 N   0  0  0  0  0  0  0  0  0  0  0  0
   -6.0280   14.7130    0.8340 N   0  0  0  0  0  0  0  0  0  0  0  0
   -4.8300   14.7240    0.0330 C   0  0  0  0  0  0  0  0  0  0  0  0
   -3.5340   14.5790    0.5780 C   0  0  0  0  0  0  0  0  0  0  0  0
   -4.9510   14.8900   -1.3430 C   0  0  0  0  0  0  0  0  0  0  0  0
   -6.2850   15.0650   -1.9770 C   0  0  0  0  0  0  0  0  0  0  0  0
   -2.3930   14.5970   -0.2590 C   0  0  0  0  0  0  0  0  0  0  0  0
   -3.8150   14.9040   -2.1780 C   0  0  0  0  0  0  0  0  0  0  0  0
   -2.5350   14.7580   -1.6530 C   0  0  0  0  0  0  0  0  0  0  0  0
   -1.3730   14.7820   -2.6140 C   0  0  0  0  0  0  0  0  0  0  0  0
   -1.4800   14.5940   -3.8190 O   0  0  0  0  0  0  0  0  0  0  0  0
   -0.1870   15.0420   -2.0270 O   0  0  0  0  0  0  0  0  0  0  0  0
  1  2  1  0
  1  3  1  0
  3  4  1  0
  4  5  2  0
  4  6  1  0
  6  7  2  0
  5  8  1  0
  7  8  1  0
  8  9  1  0
  9 10  2  0
  9 11  1  0
 11 12  1  0
 10 13  1  0
 11 14  2  0
 13 15  2  0
 14 15  1  0
 15 16  1  0
 16 17  2  0
 16 18  1  0
M  END
