diamond-x0574_0_A-mac-x0564
     RDKit          3D

 24 28  0  0  0  0  0  0  0  0999 V2000
    0.2090   14.1730    2.2710 N   0  0  0  0  0  0  0  0  0  0  0  0
   -0.7540   13.9260    1.2870 C   0  0  1  0  0  0  0  0  0  0  0  0
   -2.0720   14.1460    1.8810 N   0  0  0  0  0  0  0  0  0  0  0  0
   -0.5860   14.9870   -0.1210 S   0  0  0  0  0  0  0  0  0  0  0  0
   -2.7030   15.2250    1.1570 C   0  0  1  0  0  0  0  0  0  0  0  0
   -2.3740   14.6690   -0.1520 C   0  0  1  0  0  0  0  0  0  0  0  0
   -4.1810   15.4600    1.3920 C   0  0  0  0  0  0  0  0  0  0  0  0
   -3.4090   14.5720   -1.2780 C   0  0  1  0  0  0  0  0  0  0  0  0
   -5.0770   14.3780    0.7820 C   0  0  2  0  0  0  0  0  0  0  0  0
   -4.8620   14.2220   -0.7400 C   0  0  1  0  0  0  0  0  0  0  0  0
   -3.4240   15.3270   -2.6340 C   0  0  1  0  0  0  0  0  0  0  0  0
   -2.6200   13.4560   -1.7470 O   0  0  0  0  0  0  0  0  0  0  0  0
   -6.4450   14.7690    1.0240 O   0  0  0  0  0  0  0  0  0  0  0  0
   -1.4910   14.2580   -2.1640 C   0  0  2  0  0  0  0  0  0  0  0  0
   -2.0590   15.0170   -3.3070 C   0  0  1  0  0  0  0  0  0  0  0  0
   -4.6420   15.0800   -3.4570 C   0  0  0  0  0  0  0  0  0  0  0  0
   -5.9680   15.0500   -1.4190 C   0  0  0  0  0  0  0  0  0  0  0  0
   -6.9110   14.5680    2.3560 C   0  0  0  0  0  0  0  0  0  0  0  0
   -0.1540   13.6200   -2.4890 C   0  0  0  0  0  0  0  0  0  0  0  0
   -1.9870   14.2050   -4.5160 N   0  0  0  0  0  0  0  0  0  0  0  0
   -5.8360   14.9650   -2.8820 C   0  0  0  0  0  0  0  0  0  0  0  0
    0.6590   13.2850   -1.6290 O   0  0  0  0  0  0  0  0  0  0  0  0
   -0.5880   14.0830   -4.8840 C   0  0  0  0  0  0  0  0  0  0  0  0
    0.1400   13.4560   -3.8140 N   0  0  0  0  0  0  0  0  0  0  0  0
  2  1  1  1
  2  3  1  0
  2  4  1  0
  3  5  1  0
  6  4  1  6
  5  6  1  0
  5  7  1  6
  6  8  1  0
  7  9  1  0
  8 10  1  0
  9 10  1  0
  8 11  1  0
  8 12  1  6
  9 13  1  6
 14 12  1  6
 11 15  1  0
 14 15  1  0
 11 16  1  6
 10 17  1  6
 13 18  1  0
 14 19  1  0
 15 20  1  6
 16 21  2  0
 17 21  1  0
 19 22  2  0
 20 23  1  0
 19 24  1  0
 23 24  1  0
M  END
