diamond-x0722_0_A-mac-x0455
     RDKit          3D

 23 24  0  0  0  0  0  0  0  0999 V2000
   -4.2760   15.9380    2.1530 C   0  0  0  0  0  0  0  0  0  0  0  0
   -3.3770   15.3150    1.1810 C   0  0  0  0  0  0  0  0  0  0  0  0
   -2.1770   14.9400    1.5770 N   0  0  0  0  0  0  0  0  0  0  0  0
   -3.6080   15.0440   -0.1850 C   0  0  0  0  0  0  0  0  0  0  0  0
   -4.8460   15.3570   -0.9680 C   0  0  0  0  0  0  0  0  0  0  0  0
   -2.4360   14.4240   -0.6280 C   0  0  0  0  0  0  0  0  0  0  0  0
   -1.6010   14.4100    0.4980 N   0  0  0  0  0  0  0  0  0  0  0  0
   -0.2600   13.9340    0.7130 C   0  0  0  0  0  0  0  0  0  0  0  0
   -2.1970   13.8830   -2.0460 C   0  0  0  0  0  0  0  0  0  0  0  0
   -6.0890   14.6190   -0.5190 C   0  0  0  0  0  0  0  0  0  0  0  0
   -7.2230   15.0620   -0.6620 O   0  0  0  0  0  0  0  0  0  0  0  0
   -5.8810   13.4060    0.0640 N   0  0  0  0  0  0  0  0  0  0  0  0
   -1.0090   14.1700   -3.0300 C   0  0  1  0  0  0  0  0  0  0  0  0
   -1.2100   15.4380   -3.7120 O   0  0  0  0  0  0  0  0  0  0  0  0
    0.3050   14.2580   -2.2200 C   0  0  0  0  0  0  0  0  0  0  0  0
   -0.9500   13.0550   -4.1000 C   0  0  0  0  0  0  0  0  0  0  0  0
    0.9090   15.2470   -1.8790 O   0  0  0  0  0  0  0  0  0  0  0  0
    0.8040   13.0410   -1.8930 O   0  0  0  0  0  0  0  0  0  0  0  0
   -1.9810   12.1030   -4.2170 C   0  0  0  0  0  0  0  0  0  0  0  0
    0.1320   12.9370   -5.0020 C   0  0  0  0  0  0  0  0  0  0  0  0
   -1.9360   11.0860   -5.1790 C   0  0  0  0  0  0  0  0  0  0  0  0
    0.1750   11.9190   -5.9650 C   0  0  0  0  0  0  0  0  0  0  0  0
   -0.8590   10.9920   -6.0520 C   0  0  0  0  0  0  0  0  0  0  0  0
  1  2  1  0
  2  3  2  0
  2  4  1  0
  4  5  1  0
  4  6  2  0
  3  7  1  0
  6  7  1  0
  7  8  1  0
  6  9  1  0
  5 10  1  0
 10 11  2  0
 10 12  1  0
  9 13  1  0
 13 14  1  6
 13 15  1  0
 13 16  1  0
 15 17  2  0
 15 18  1  0
 16 19  2  0
 16 20  1  0
 19 21  1  0
 20 22  2  0
 21 23  2  0
 22 23  1  0
M  END
