diamond-x0724_0_A-diamond-x0962_2_B
     RDKit          3D

 21 23  0  0  0  0  0  0  0  0999 V2000
   -8.0190   12.8210    3.9480 N   0  0  0  0  0  0  0  0  0  0  0  0
   -8.3630   12.9980    5.3680 C   0  0  0  0  0  0  0  0  0  0  0  0
   -8.6030   13.8030    3.0240 C   0  0  2  0  0  0  0  0  0  0  0  0
   -7.8400   14.1450    1.7970 C   0  0  0  0  0  0  0  0  0  0  0  0
   -8.8090   15.0580    3.7250 C   0  0  0  0  0  0  0  0  0  0  0  0
   -6.5020   14.1090    1.5560 C   0  0  0  0  0  0  0  0  0  0  0  0
   -8.3680   14.6080    0.5800 C   0  0  0  0  0  0  0  0  0  0  0  0
   -9.4830   16.1400    3.2710 C   0  0  0  0  0  0  0  0  0  0  0  0
   -8.2990   15.2640    4.9790 N   0  0  0  0  0  0  0  0  0  0  0  0
  -10.1430   16.3040    2.0340 C   0  0  0  0  0  0  0  0  0  0  0  0
   -7.4270   14.8420   -0.3370 N   0  0  0  0  0  0  0  0  0  0  0  0
   -6.2720   14.5290    0.2930 N   0  0  0  0  0  0  0  0  0  0  0  0
   -9.3860   17.0470    4.2750 N   0  0  0  0  0  0  0  0  0  0  0  0
   -8.6630   16.4740    5.2770 C   0  0  0  0  0  0  0  0  0  0  0  0
  -10.6670   16.3780    1.0030 N   0  0  0  0  0  0  0  0  0  0  0  0
   -5.0030   14.6300   -0.3050 C   0  0  0  0  0  0  0  0  0  0  0  0
   -3.8470   14.7060    0.4850 C   0  0  0  0  0  0  0  0  0  0  0  0
   -4.9060   14.6490   -1.6950 C   0  0  0  0  0  0  0  0  0  0  0  0
   -2.5990   14.7940   -0.1280 C   0  0  0  0  0  0  0  0  0  0  0  0
   -3.6590   14.7380   -2.3030 C   0  0  0  0  0  0  0  0  0  0  0  0
   -2.5080   14.8090   -1.5210 C   0  0  0  0  0  0  0  0  0  0  0  0
  1  2  1  0
  3  1  1  1
  3  4  1  0
  3  5  1  0
  4  6  2  0
  4  7  1  0
  5  8  2  0
  5  9  1  0
  8 10  1  0
  7 11  2  0
  6 12  1  0
 11 12  1  0
  8 13  1  0
  9 14  2  0
 13 14  1  0
 10 15  3  0
 12 16  1  0
 16 17  2  0
 16 18  1  0
 17 19  1  0
 18 20  2  0
 19 21  2  0
 20 21  1  0
M  END
