diamond-x0742_0_A-diamond-x0685_1_A
     RDKit          3D

 29 32  0  0  0  0  0  0  0  0999 V2000
   -5.4410   12.5950   -0.5380 C   0  0  0  0  0  0  0  0  0  0  0  0
   -6.3770   11.8560    0.3820 C   0  0  0  0  0  0  0  0  0  0  0  0
   -4.9690   11.9950   -1.5150 O   0  0  0  0  0  0  0  0  0  0  0  0
   -5.0930   14.0900   -0.2760 C   0  0  2  0  0  0  0  0  0  0  0  0
   -4.9840   14.2890    1.2500 C   0  0  0  0  0  0  0  0  0  0  0  0
   -6.1990   14.9130   -0.9560 C   0  0  0  0  0  0  0  0  0  0  0  0
   -3.9150   14.7670   -1.0030 C   0  0  2  0  0  0  0  0  0  0  0  0
   -4.3010   14.7200   -2.4830 C   0  0  0  0  0  0  0  0  0  0  0  0
   -2.5820   14.4170   -0.4510 C   0  0  0  0  0  0  0  0  0  0  0  0
   -3.6740   14.9670    1.6900 C   0  0  0  0  0  0  0  0  0  0  0  0
   -5.8410   14.7410   -2.4350 C   0  0  0  0  0  0  0  0  0  0  0  0
   -1.4850   14.0080   -1.1970 C   0  0  0  0  0  0  0  0  0  0  0  0
   -2.4690   14.5260    0.9260 C   0  0  0  0  0  0  0  0  0  0  0  0
   -1.3470   14.2560    1.6060 N   0  0  0  0  0  0  0  0  0  0  0  0
   -0.3050   13.7130   -0.5450 C   0  0  0  0  0  0  0  0  0  0  0  0
    0.7430   13.3070   -1.3460 O   0  0  0  0  0  0  0  0  0  0  0  0
   -0.2960   13.8550    0.8540 C   0  0  0  0  0  0  0  0  0  0  0  0
    0.7390   12.2420   -2.5870 S   0  0  0  0  0  0  0  0  0  0  0  0
   -0.1730   12.9130   -3.9830 C   0  0  0  0  0  0  0  0  0  0  0  0
    2.2110   12.1430   -3.2270 O   0  0  0  0  0  0  0  0  0  0  0  0
    0.1560   10.7650   -2.2720 O   0  0  0  0  0  0  0  0  0  0  0  0
   -1.4100   12.1120   -4.4360 C   0  0  0  0  0  0  0  0  0  0  0  0
   -1.1540   10.6870   -4.7560 N   0  0  0  0  0  0  0  0  0  0  0  0
   -0.6560   10.3970   -6.1210 C   0  0  0  0  0  0  0  0  0  0  0  0
   -0.5600    8.8910   -6.4210 C   0  0  0  0  0  0  0  0  0  0  0  0
   -1.5680   11.0360   -7.1900 C   0  0  0  0  0  0  0  0  0  0  0  0
    0.0420    8.6300   -7.7970 C   0  0  0  0  0  0  0  0  0  0  0  0
   -1.0830   10.7620   -8.6230 C   0  0  0  0  0  0  0  0  0  0  0  0
   -0.8160    9.2750   -8.8840 C   0  0  0  0  0  0  0  0  0  0  0  0
  1  2  1  0
  1  3  2  0
  4  1  1  1
  4  5  1  0
  4  6  1  0
  4  7  1  0
  7  8  1  6
  7  9  1  0
  5 10  1  0
  6 11  1  0
  8 11  1  0
  9 12  1  0
  9 13  2  0
 10 13  1  0
 13 14  1  0
 12 15  2  0
 15 16  1  0
 14 17  2  0
 15 17  1  0
 18 16  1  0
 18 19  1  0
 18 20  1  0
 18 21  1  0
 19 22  1  0
 22 23  1  0
 23 24  1  0
 24 25  1  0
 24 26  1  0
 25 27  1  0
 26 28  1  0
 27 29  1  0
 28 29  1  0
M  END
