diamond-x0737_0_B-diamond-x0905_0_B
     RDKit          3D

 24 25  0  0  0  0  0  0  0  0999 V2000
   15.7750   15.7830   11.9470 N   0  0  0  0  0  0  0  0  0  0  0  0
   16.7500   16.8650   12.1530 C   0  0  0  0  0  0  0  0  0  0  0  0
   16.1810   18.2820   12.3400 C   0  0  0  0  0  0  0  0  0  0  0  0
   16.2740   14.5070   11.6850 C   0  0  0  0  0  0  0  0  0  0  0  0
   17.4110   14.3660   11.2490 O   0  0  0  0  0  0  0  0  0  0  0  0
   15.3960   13.2630   11.9690 C   0  0  1  0  0  0  0  0  0  0  0  0
   14.7390   18.4350   11.8910 C   0  0  0  0  0  0  0  0  0  0  0  0
   14.4370   13.4230   13.1270 C   0  0  2  0  0  0  0  0  0  0  0  0
   14.6610   12.6970   10.7680 C   0  0  0  0  0  0  0  0  0  0  0  0
   15.2040   13.6660   14.4270 C   0  0  0  0  0  0  0  0  0  0  0  0
   14.3150   19.7790   11.6750 O   0  0  0  0  0  0  0  0  0  0  0  0
   13.5960   12.2030   13.3590 N   0  0  0  0  0  0  0  0  0  0  0  0
   13.8720   11.4140   10.9960 C   0  0  0  0  0  0  0  0  0  0  0  0
   12.0510   12.5910   13.8910 S   0  0  0  0  0  0  0  0  0  0  0  0
   13.7260   11.0210   12.4540 C   0  0  0  0  0  0  0  0  0  0  0  0
   13.5250   20.3200   12.6680 C   0  0  0  0  0  0  0  0  0  0  0  0
   12.0330   14.0370   13.9520 O   0  0  0  0  0  0  0  0  0  0  0  0
   11.7160   11.7420   15.0080 O   0  0  0  0  0  0  0  0  0  0  0  0
   11.1280   12.1020   12.4870 C   0  0  0  0  0  0  0  0  0  0  0  0
   12.6390   19.5660   13.3560 N   0  0  0  0  0  0  0  0  0  0  0  0
   13.7170   21.6720   12.8890 C   0  0  0  0  0  0  0  0  0  0  0  0
   11.9220   20.1990   14.3060 C   0  0  0  0  0  0  0  0  0  0  0  0
   12.9650   22.2960   13.8730 C   0  0  0  0  0  0  0  0  0  0  0  0
   12.0490   21.5490   14.5980 C   0  0  0  0  0  0  0  0  0  0  0  0
  1  2  1  0
  2  3  1  0
  1  4  1  0
  4  5  2  0
  6  4  1  6
  3  7  1  0
  6  8  1  0
  6  9  1  0
  8 10  1  1
  7 11  1  0
  8 12  1  0
  9 13  1  0
 12 14  1  0
 12 15  1  0
 13 15  1  0
 11 16  1  0
 14 17  2  0
 14 18  2  0
 14 19  1  0
 16 20  2  0
 16 21  1  0
 20 22  1  0
 21 23  2  0
 22 24  2  0
 23 24  1  0
M  END
