diamond-x0626_0_A-diamond-x0855_0_A
     RDKit          3D

 24 25  0  0  0  0  0  0  0  0999 V2000
   -4.9960   14.9140    1.4940 N   0  0  0  0  0  0  0  0  0  0  0  0
   -6.1650   14.7040    0.8260 C   0  0  0  0  0  0  0  0  0  0  0  0
   -6.1860   14.8310   -0.4030 O   0  0  0  0  0  0  0  0  0  0  0  0
   -3.7690   14.7870    0.9440 C   0  0  0  0  0  0  0  0  0  0  0  0
   -7.4060   14.3300    1.6120 C   0  0  0  0  0  0  0  0  0  0  0  0
   -2.6050   14.6040    1.5360 N   0  0  0  0  0  0  0  0  0  0  0  0
   -3.7840   14.8790   -0.7560 S   0  0  0  0  0  0  0  0  0  0  0  0
   -8.6820   14.6710    0.8580 C   0  0  0  0  0  0  0  0  0  0  0  0
   -2.1010   14.6420   -0.7340 C   0  0  0  0  0  0  0  0  0  0  0  0
   -1.6490   14.5160    0.5630 C   0  0  0  0  0  0  0  0  0  0  0  0
   -0.2350   14.3100    0.9020 C   0  0  0  0  0  0  0  0  0  0  0  0
    0.5090   15.2050   -0.0530 C   0  0  0  0  0  0  0  0  0  0  0  0
    0.6020   14.7050   -1.4960 C   0  0  0  0  0  0  0  0  0  0  0  0
    1.5120   13.5100   -1.6440 C   0  0  0  0  0  0  0  0  0  0  0  0
    1.7640   13.2290   -3.0080 O   0  0  0  0  0  0  0  0  0  0  0  0
    1.0070   12.2390   -3.5170 C   0  0  0  0  0  0  0  0  0  0  0  0
    0.6820   11.2150   -2.9140 O   0  0  0  0  0  0  0  0  0  0  0  0
    0.6140   12.5500   -4.9230 C   0  0  0  0  0  0  0  0  0  0  0  0
   -0.4470   11.6680   -5.3210 N   0  0  0  0  0  0  0  0  0  0  0  0
   -0.3660   10.6610   -6.2330 C   0  0  0  0  0  0  0  0  0  0  0  0
   -1.6690   11.7990   -4.7600 N   0  0  0  0  0  0  0  0  0  0  0  0
   -1.6100   10.1040   -6.2570 C   0  0  0  0  0  0  0  0  0  0  0  0
   -2.3810   10.8300   -5.3420 C   0  0  0  0  0  0  0  0  0  0  0  0
   -2.1960    8.6670   -7.2860 Br  0  0  0  0  0  0  0  0  0  0  0  0
  1  2  1  0
  2  3  2  0
  1  4  1  0
  2  5  1  0
  4  6  2  0
  4  7  1  0
  5  8  1  0
  7  9  1  0
  6 10  1  0
  9 10  2  0
 10 11  1  0
 11 12  1  0
 12 13  1  0
 13 14  1  0
 14 15  1  0
 15 16  1  0
 16 17  2  0
 16 18  1  0
 18 19  1  0
 19 20  1  0
 19 21  1  0
 20 22  2  0
 21 23  2  0
 22 23  1  0
 22 24  1  0
M  END
