diamond-x0910_2_B-diamond-x0729_2_B
     RDKit          3D

 19 20  0  0  0  0  0  0  0  0999 V2000
  -12.8110   20.9750   -3.2120 N   0  0  0  0  0  0  0  0  0  0  0  0
  -12.4550   22.0910   -2.5480 C   0  0  0  0  0  0  0  0  0  0  0  0
  -11.3490   22.7820   -2.6740 N   0  0  0  0  0  0  0  0  0  0  0  0
  -13.2140   22.7110   -1.6050 N   0  0  0  0  0  0  0  0  0  0  0  0
  -14.4910   22.4890   -1.0100 C   0  0  0  0  0  0  0  0  0  0  0  0
  -11.3940   23.8530   -1.8080 N   0  0  0  0  0  0  0  0  0  0  0  0
  -12.5280   23.7730   -1.1900 C   0  0  0  0  0  0  0  0  0  0  0  0
  -15.4190   22.6520   -0.3390 C   0  0  0  0  0  0  0  0  0  0  0  0
  -16.3860   23.1850    0.5900 C   0  0  2  0  0  0  0  0  0  0  0  0
  -17.0750   24.3810   -0.0960 C   0  0  0  0  0  0  0  0  0  0  0  0
  -15.6380   23.6340    1.8690 C   0  0  1  0  0  0  0  0  0  0  0  0
  -14.3060   24.3650    1.5880 C   0  0  0  0  0  0  0  0  0  0  0  0
  -16.4760   24.4960    2.7320 N   0  0  0  0  0  0  0  0  0  0  0  0
  -17.7120   25.4200    0.8350 C   0  0  0  0  0  0  0  0  0  0  0  0
  -15.9110   24.5820    4.3150 S   0  0  0  0  0  0  0  0  0  0  0  0
  -16.8940   25.7390    2.0670 C   0  0  0  0  0  0  0  0  0  0  0  0
  -16.3490   25.8320    4.8890 O   0  0  0  0  0  0  0  0  0  0  0  0
  -14.5230   24.2030    4.2380 O   0  0  0  0  0  0  0  0  0  0  0  0
  -16.7720   23.2390    5.1010 C   0  0  0  0  0  0  0  0  0  0  0  0
  1  2  1  0
  2  3  2  0
  2  4  1  0
  4  5  1  0
  3  6  1  0
  4  7  1  0
  6  7  2  0
  5  8  3  0
  9  8  1  6
  9 10  1  0
  9 11  1  0
 11 12  1  6
 11 13  1  0
 10 14  1  0
 13 15  1  0
 13 16  1  0
 14 16  1  0
 15 17  2  0
 15 18  2  0
 15 19  1  0
M  END
