diamond-x0592_0_A-mac-x0565
     RDKit          3D

 22 24  0  0  0  0  0  0  0  0999 V2000
   -2.0680   14.6000    1.5890 N   0  0  0  0  0  0  0  0  0  0  0  0
   -2.3930   14.0300    0.4090 C   0  0  0  0  0  0  0  0  0  0  0  0
   -1.5580   13.7300   -0.4250 O   0  0  0  0  0  0  0  0  0  0  0  0
   -3.7800   13.8530    0.2030 C   0  0  0  0  0  0  0  0  0  0  0  0
   -4.4500   12.8830   -0.5570 C   0  0  0  0  0  0  0  0  0  0  0  0
   -4.7500   14.6190    0.6960 C   0  0  0  0  0  0  0  0  0  0  0  0
   -5.7600   13.0410   -0.5530 N   0  0  0  0  0  0  0  0  0  0  0  0
   -5.9140   14.1350    0.2170 N   0  0  0  0  0  0  0  0  0  0  0  0
   -7.0510   14.7280    0.4170 C   0  0  0  0  0  0  0  0  0  0  0  0
   -7.9610   14.4780    1.6310 C   0  0  0  0  0  0  0  0  0  0  0  0
   -7.0170   15.5090   -0.6700 C   0  0  0  0  0  0  0  0  0  0  0  0
   -7.4170   15.0690    2.8260 O   0  0  0  0  0  0  0  0  0  0  0  0
   -7.9390   16.4250   -1.0130 O   0  0  0  0  0  0  0  0  0  0  0  0
   -5.7870   15.3120   -1.5960 C   0  0  0  0  0  0  0  0  0  0  0  0
   -4.4240   15.4040   -1.1400 C   0  0  0  0  0  0  0  0  0  0  0  0
   -5.9670   14.9980   -2.9620 C   0  0  0  0  0  0  0  0  0  0  0  0
   -3.3680   15.1760   -2.0470 C   0  0  0  0  0  0  0  0  0  0  0  0
   -4.8780   14.7890   -3.8420 C   0  0  0  0  0  0  0  0  0  0  0  0
   -3.5960   14.8850   -3.3620 C   0  0  0  0  0  0  0  0  0  0  0  0
   -2.0210   15.1990   -1.7810 O   0  0  0  0  0  0  0  0  0  0  0  0
   -2.4490   14.7140   -4.0890 O   0  0  0  0  0  0  0  0  0  0  0  0
   -1.4540   14.8320   -3.0590 C   0  0  0  0  0  0  0  0  0  0  0  0
  1  2  1  0
  2  3  2  0
  2  4  1  0
  4  5  1  0
  4  6  2  0
  5  7  2  0
  6  8  1  0
  7  8  1  0
  8  9  1  0
  9 10  1  0
  9 11  2  3
 10 12  1  0
 11 13  1  0
 11 14  1  0
 14 15  2  0
 14 16  1  0
 15 17  1  0
 16 18  2  0
 17 19  2  0
 18 19  1  0
 17 20  1  0
 19 21  1  0
 20 22  1  0
 21 22  1  0
M  END
