diamond-x0465_0_A-diamond-x0631_0_A
     RDKit          3D

 27 29  0  0  0  0  0  0  0  0999 V2000
    2.0120   13.4560   -4.8360 C   0  0  0  0  0  0  0  0  0  0  0  0
    0.8200   12.5690   -4.5520 C   0  0  1  0  0  0  0  0  0  0  0  0
    0.5430   11.7260   -5.6630 O   0  0  0  0  0  0  0  0  0  0  0  0
    0.7560   12.0690   -3.0930 C   0  0  0  0  0  0  0  0  0  0  0  0
    0.9570   12.7730   -2.1140 O   0  0  0  0  0  0  0  0  0  0  0  0
    0.4620   10.7510   -2.9580 O   0  0  0  0  0  0  0  0  0  0  0  0
   -0.5590   11.0000   -6.0060 C   0  0  0  0  0  0  0  0  0  0  0  0
   -0.6580    9.9430   -6.9190 C   0  0  0  0  0  0  0  0  0  0  0  0
   -1.6930   11.4280   -5.3240 C   0  0  0  0  0  0  0  0  0  0  0  0
   -1.9190    9.3210   -7.0980 C   0  0  0  0  0  0  0  0  0  0  0  0
   -2.9320   10.8230   -5.5110 C   0  0  0  0  0  0  0  0  0  0  0  0
    0.5410    9.6040   -7.5930 N   0  0  0  0  0  0  0  0  0  0  0  0
   -3.0400    9.7710   -6.3870 C   0  0  0  0  0  0  0  0  0  0  0  0
    1.3250   10.7220   -7.5920 N   0  0  0  0  0  0  0  0  0  0  0  0
    0.5200    9.1890   -8.9450 N   0  0  0  0  0  0  0  0  0  0  0  0
   -2.1570    8.1800   -8.0190 C   0  0  0  0  0  0  0  0  0  0  0  0
    0.7760   11.4600   -8.6850 N   0  0  0  0  0  0  0  0  0  0  0  0
    0.6220   10.4480   -9.7060 C   0  0  1  0  0  0  0  0  0  0  0  0
   -1.2470    7.0370   -7.6090 C   0  0  0  0  0  0  0  0  0  0  0  0
    1.7930   10.5330  -10.5490 N   0  0  0  0  0  0  0  0  0  0  0  0
    1.9880    9.5000  -11.5340 C   0  0  2  0  0  0  0  0  0  0  0  0
    2.9530    8.5710  -11.0500 O   0  0  0  0  0  0  0  0  0  0  0  0
    2.4960   10.0030  -12.9300 C   0  0  2  0  0  0  0  0  0  0  0  0
    3.8490    9.5670  -13.1700 O   0  0  0  0  0  0  0  0  0  0  0  0
    2.5100   11.4900  -13.2170 C   0  0  0  0  0  0  0  0  0  0  0  0
    3.4850   11.5970  -14.3740 C   0  0  0  0  0  0  0  0  0  0  0  0
    4.2930   10.3110  -14.3130 C   0  0  0  0  0  0  0  0  0  0  0  0
  2  1  1  6
  2  3  1  0
  2  4  1  0
  4  5  2  0
  4  6  1  0
  3  7  1  0
  7  8  2  0
  7  9  1  0
  8 10  1  0
  9 11  2  0
  8 12  1  0
 10 13  2  0
 11 13  1  0
 12 14  1  0
 12 15  1  0
 10 16  1  0
 14 17  1  0
 15 18  1  0
 17 18  1  0
 16 19  1  0
 18 20  1  6
 20 21  1  0
 21 22  1  1
 21 23  1  0
 23 24  1  0
 23 25  1  1
 25 26  1  0
 24 27  1  0
 26 27  1  0
M  END
