diamond-x0727_0_A-mac-x0375
     RDKit          3D

 13 13  0  0  0  0  0  0  0  0999 V2000
    0.1560   11.9090   -5.5910 N   0  0  0  0  0  0  0  0  0  0  0  0
    1.1220   12.5450   -4.7170 C   0  0  1  0  0  0  0  0  0  0  0  0
    0.9580   14.0570   -4.7800 C   0  0  0  0  0  0  0  0  0  0  0  0
    0.4980   11.1770   -6.6840 C   0  0  0  0  0  0  0  0  0  0  0  0
    1.5320   11.3260   -7.3060 O   0  0  0  0  0  0  0  0  0  0  0  0
    0.8640   12.0210   -3.3050 C   0  0  0  0  0  0  0  0  0  0  0  0
   -0.5570   10.1510   -7.0190 C   0  0  0  0  0  0  0  0  0  0  0  0
    0.2660   10.9870   -3.0150 O   0  0  0  0  0  0  0  0  0  0  0  0
    1.3660   12.8070   -2.3400 O   0  0  0  0  0  0  0  0  0  0  0  0
   -1.0390   10.0860   -8.4490 C   0  0  0  0  0  0  0  0  0  0  0  0
   -0.2210    8.7030   -6.7180 C   0  0  0  0  0  0  0  0  0  0  0  0
   -1.9850    8.8860   -8.3810 C   0  0  0  0  0  0  0  0  0  0  0  0
   -1.4780    8.0170   -7.2120 C   0  0  0  0  0  0  0  0  0  0  0  0
  1  2  1  0
  2  3  1  1
  1  4  1  0
  4  5  2  0
  2  6  1  0
  4  7  1  0
  6  8  2  0
  6  9  1  0
  7 10  1  0
  7 11  1  0
 10 12  1  0
 11 13  1  0
 12 13  1  0
M  END
