diamond-x0282_0_A-diamond-x0626_0_A
     RDKit          3D

 17 18  0  0  0  0  0  0  0  0999 V2000
   -6.3080   13.3540    0.0760 C   0  0  2  0  0  0  0  0  0  0  0  0
   -7.0170   12.6370    1.0870 O   0  0  0  0  0  0  0  0  0  0  0  0
   -4.8360   12.9070   -0.1170 C   0  0  0  0  0  0  0  0  0  0  0  0
   -6.3390   14.8030    0.4300 C   0  0  0  0  0  0  0  0  0  0  0  0
   -3.8520   13.3960    0.7820 N   0  0  0  0  0  0  0  0  0  0  0  0
   -4.6030   12.1780   -1.0670 O   0  0  0  0  0  0  0  0  0  0  0  0
   -5.6190   14.9100    1.7930 C   0  0  0  0  0  0  0  0  0  0  0  0
   -5.7770   15.6390   -0.7230 C   0  0  0  0  0  0  0  0  0  0  0  0
   -4.2310   15.5500    1.8430 C   0  0  0  0  0  0  0  0  0  0  0  0
   -4.2700   15.5980   -0.6720 C   0  0  0  0  0  0  0  0  0  0  0  0
   -2.6750   14.1330    0.2970 N   0  0  0  0  0  0  0  0  0  0  0  0
   -3.6790   16.0610    0.5870 N   0  0  0  0  0  0  0  0  0  0  0  0
   -1.5700   14.4220    1.2660 C   0  0  0  0  0  0  0  0  0  0  0  0
   -2.1060   13.5900   -0.9480 C   0  0  0  0  0  0  0  0  0  0  0  0
   -1.0270   14.3760   -1.5300 N   0  0  0  0  0  0  0  0  0  0  0  0
   -0.2320   14.7760    0.6500 C   0  0  0  0  0  0  0  0  0  0  0  0
   -0.0230   14.7370   -0.6680 C   0  0  0  0  0  0  0  0  0  0  0  0
  1  2  1  1
  1  3  1  0
  1  4  1  0
  3  5  1  0
  3  6  2  0
  4  7  1  0
  4  8  1  0
  7  9  1  0
  8 10  1  0
  5 11  1  0
  9 12  1  0
 10 12  1  0
 11 13  1  0
 11 14  1  0
 14 15  1  0
 13 16  1  0
 15 17  1  0
 16 17  2  0
M  END
