diamond-x0591_0_A-mac-x0338
     RDKit          3D

 15 15  0  0  0  0  0  0  0  0999 V2000
   -5.8530   14.6560    0.9950 N   0  0  0  0  0  0  0  0  0  0  0  0
   -6.8300   14.4050    2.0460 C   0  0  0  0  0  0  0  0  0  0  0  0
   -6.1850   14.8720   -0.3490 C   0  0  0  0  0  0  0  0  0  0  0  0
   -4.5770   15.0560    1.4850 N   0  0  0  0  0  0  0  0  0  0  0  0
   -7.3380   15.1310   -0.6880 O   0  0  0  0  0  0  0  0  0  0  0  0
   -5.1770   14.7820   -1.4280 C   0  0  0  0  0  0  0  0  0  0  0  0
   -3.8140   14.5400   -1.1990 C   0  0  0  0  0  0  0  0  0  0  0  0
   -5.6440   14.9480   -2.7340 C   0  0  0  0  0  0  0  0  0  0  0  0
   -2.9290   14.4680   -2.2840 C   0  0  0  0  0  0  0  0  0  0  0  0
   -4.7650   14.8710   -3.8050 C   0  0  0  0  0  0  0  0  0  0  0  0
   -3.4170   14.6370   -3.5850 C   0  0  0  0  0  0  0  0  0  0  0  0
   -2.3420   14.5580   -4.9950 S   0  0  0  0  0  0  0  0  0  0  0  0
   -1.0810   15.5810   -4.5630 N   0  0  0  0  0  0  0  0  0  0  0  0
   -1.7760   13.2330   -5.0590 O   0  0  0  0  0  0  0  0  0  0  0  0
   -3.0450   15.1590   -6.1050 O   0  0  0  0  0  0  0  0  0  0  0  0
  1  2  1  0
  1  3  1  0
  1  4  1  0
  3  5  2  0
  3  6  1  0
  6  7  2  0
  6  8  1  0
  7  9  1  0
  8 10  2  0
  9 11  2  0
 10 11  1  0
 11 12  1  0
 12 13  1  0
 12 14  2  0
 12 15  2  0
M  END
