diamond-x0849_0_A-diamond-x0895_1_A
     RDKit          3D

 13 14  0  0  0  0  0  0  0  0999 V2000
   -3.2970   15.1120   -3.1070 Br  0  0  0  0  0  0  0  0  0  0  0  0
   -3.3940   14.9670   -1.2450 C   0  0  0  0  0  0  0  0  0  0  0  0
   -2.1760   14.7540   -0.4430 C   0  0  0  0  0  0  0  0  0  0  0  0
   -4.5940   15.0700   -0.6560 C   0  0  0  0  0  0  0  0  0  0  0  0
   -2.3010   14.5520    0.9190 C   0  0  0  0  0  0  0  0  0  0  0  0
   -4.7080   14.9450    0.8030 C   0  0  0  0  0  0  0  0  0  0  0  0
   -0.8650   14.7480   -0.9330 C   0  0  0  0  0  0  0  0  0  0  0  0
   -5.7770   15.1110    1.3630 O   0  0  0  0  0  0  0  0  0  0  0  0
   -3.5550   14.5220    1.6050 N   0  0  2  0  0  0  0  0  0  0  0  0
   -1.3120   14.3720    1.7820 N   0  0  0  0  0  0  0  0  0  0  0  0
    0.1940   14.5560   -0.0490 C   0  0  0  0  0  0  0  0  0  0  0  0
   -3.2500   15.3040    2.6410 O   0  0  0  0  0  0  0  0  0  0  0  0
   -0.1020   14.3760    1.2950 C   0  0  0  0  0  0  0  0  0  0  0  0
  1  2  1  0
  2  3  1  0
  2  4  2  0
  3  5  2  0
  4  6  1  0
  3  7  1  0
  6  8  2  0
  5  9  1  0
  6  9  1  0
  5 10  1  0
  7 11  2  0
  9 12  1  1
 10 13  2  0
 11 13  1  0
M  CHG  2   9   1  12  -1
M  END
