diamond-x1012_0_A-diamond-x0592_0_A
     RDKit          3D

 24 25  0  0  0  0  0  0  0  0999 V2000
   -0.2400   18.1830   -4.8080 N   0  0  0  0  0  0  0  0  0  0  0  0
   -1.2570   17.2970   -4.8340 C   0  0  0  0  0  0  0  0  0  0  0  0
   -2.3960   17.7180   -4.9320 O   0  0  0  0  0  0  0  0  0  0  0  0
   -0.9320   15.9680   -4.7180 N   0  0  0  0  0  0  0  0  0  0  0  0
   -1.7580   15.0900   -3.8730 C   0  0  0  0  0  0  0  0  0  0  0  0
    0.5330   15.7080   -4.7310 C   0  0  0  0  0  0  0  0  0  0  0  0
   -0.8110   14.5050   -2.8460 C   0  0  1  0  0  0  0  0  0  0  0  0
    0.9970   14.2560   -4.4850 C   0  0  0  0  0  0  0  0  0  0  0  0
   -1.3910   14.0030   -1.5030 C   0  0  0  0  0  0  0  0  0  0  0  0
    0.0230   13.4740   -3.5900 C   0  0  1  0  0  0  0  0  0  0  0  0
    0.7080   12.5290   -2.6270 C   0  0  0  0  0  0  0  0  0  0  0  0
   -2.8180   14.2490   -1.3670 N   0  0  0  0  0  0  0  0  0  0  0  0
    0.3670   11.2290   -2.7890 O   0  0  0  0  0  0  0  0  0  0  0  0
    1.4880   12.8380   -1.7580 O   0  0  0  0  0  0  0  0  0  0  0  0
   -3.3210   14.6160   -0.2400 C   0  0  0  0  0  0  0  0  0  0  0  0
   -2.7300   14.8660    0.9750 N   0  0  0  0  0  0  0  0  0  0  0  0
   -4.7600   14.7560   -0.2540 C   0  0  0  0  0  0  0  0  0  0  0  0
   -5.5740   15.2270   -1.3140 C   0  0  0  0  0  0  0  0  0  0  0  0
   -5.6650   14.4570    0.7470 C   0  0  0  0  0  0  0  0  0  0  0  0
   -6.8760   15.2210   -1.0120 N   0  0  0  0  0  0  0  0  0  0  0  0
   -6.9020   14.7470    0.2480 N   0  0  0  0  0  0  0  0  0  0  0  0
   -8.1740   14.5900    0.9350 C   0  0  0  0  0  0  0  0  0  0  0  0
   -7.9920   14.0650    2.3560 C   0  0  0  0  0  0  0  0  0  0  0  0
   -7.3030   14.9980    3.1810 O   0  0  0  0  0  0  0  0  0  0  0  0
  1  2  1  0
  2  3  2  0
  2  4  1  0
  4  5  1  0
  4  6  1  0
  5  7  1  0
  6  8  1  0
  7  9  1  1
  7 10  1  0
  8 10  1  0
 10 11  1  1
  9 12  1  0
 11 13  1  0
 11 14  2  0
 12 15  2  3
 15 16  1  0
 15 17  1  0
 17 18  1  0
 17 19  2  0
 18 20  2  0
 19 21  1  0
 20 21  1  0
 21 22  1  0
 22 23  1  0
 23 24  1  0
M  END
