diamond-x0465_0_A-diamond-x0574_0_A
     RDKit          3D

 27 29  0  0  0  0  0  0  0  0999 V2000
    1.6770   13.3350   -5.4710 C   0  0  0  0  0  0  0  0  0  0  0  0
    0.5140   12.5680   -4.8700 C   0  0  1  0  0  0  0  0  0  0  0  0
    0.5580   11.3080   -5.4850 O   0  0  0  0  0  0  0  0  0  0  0  0
    0.7680   12.6300   -3.3870 C   0  0  0  0  0  0  0  0  0  0  0  0
    0.9530   13.6660   -2.6710 N   0  0  0  0  0  0  0  0  0  0  0  0
    0.8140   11.4210   -2.7790 O   0  0  0  0  0  0  0  0  0  0  0  0
   -0.5800   10.6240   -5.7340 C   0  0  0  0  0  0  0  0  0  0  0  0
    1.2440   13.5500   -1.2790 C   0  0  0  0  0  0  0  0  0  0  0  0
   -0.7310    9.5790   -6.6400 C   0  0  0  0  0  0  0  0  0  0  0  0
   -1.6910   11.0340   -4.9870 C   0  0  0  0  0  0  0  0  0  0  0  0
    0.2940    9.1460   -7.3830 F   0  0  0  0  0  0  0  0  0  0  0  0
    0.8620   14.7500   -0.4100 C   0  0  0  0  0  0  0  0  0  0  0  0
   -1.9570    8.9490   -6.8030 C   0  0  0  0  0  0  0  0  0  0  0  0
   -2.9250   10.4080   -5.1460 C   0  0  0  0  0  0  0  0  0  0  0  0
    0.2000   14.3340    0.8420 N   0  0  0  0  0  0  0  0  0  0  0  0
   -3.0590    9.3600   -6.0570 C   0  0  0  0  0  0  0  0  0  0  0  0
   -1.0870   14.4530    0.7410 C   0  0  0  0  0  0  0  0  0  0  0  0
   -2.0190   14.4620    1.6530 N   0  0  0  0  0  0  0  0  0  0  0  0
   -1.5400   14.6230   -0.8860 S   0  0  0  0  0  0  0  0  0  0  0  0
   -3.2280   14.6270    0.9880 C   0  0  0  0  0  0  0  0  0  0  0  0
   -3.1430   14.7420   -0.4010 C   0  0  0  0  0  0  0  0  0  0  0  0
   -4.5100   14.6870    1.5480 C   0  0  0  0  0  0  0  0  0  0  0  0
   -4.2370   14.9240   -1.2320 C   0  0  0  0  0  0  0  0  0  0  0  0
   -5.6310   14.8580    0.7230 C   0  0  0  0  0  0  0  0  0  0  0  0
   -5.4880   14.9810   -0.6480 C   0  0  0  0  0  0  0  0  0  0  0  0
   -6.8290   14.8900    1.3740 O   0  0  0  0  0  0  0  0  0  0  0  0
   -6.8180   14.6010    2.7620 C   0  0  0  0  0  0  0  0  0  0  0  0
  2  1  1  6
  2  3  1  0
  2  4  1  0
  4  5  2  3
  4  6  1  0
  3  7  1  0
  5  8  1  0
  7  9  2  0
  7 10  1  0
  9 11  1  0
  8 12  1  0
  9 13  1  0
 10 14  2  0
 12 15  1  0
 13 16  2  0
 14 16  1  0
 15 17  1  0
 17 18  2  0
 17 19  1  0
 18 20  1  0
 19 21  1  0
 20 21  2  0
 20 22  1  0
 21 23  1  0
 22 24  2  0
 23 25  2  0
 24 25  1  0
 24 26  1  0
 26 27  1  0
M  END
