diamond-x0766_0_A-diamond-x0128_0_A
     RDKit          3D

 28 31  0  0  0  0  0  0  0  0999 V2000
    0.4040   12.0660   -2.7780 C   0  0  0  0  0  0  0  0  0  0  0  0
   -0.2570   10.9080   -2.9230 O   0  0  0  0  0  0  0  0  0  0  0  0
    1.3160   12.1840   -1.9860 O   0  0  0  0  0  0  0  0  0  0  0  0
   -0.0820   13.1920   -3.6500 C   0  0  2  0  0  0  0  0  0  0  0  0
    0.9630   13.5830   -4.7250 C   0  0  0  0  0  0  0  0  0  0  0  0
   -0.3200   14.4590   -2.7980 C   0  0  1  0  0  0  0  0  0  0  0  0
    1.3540   15.0350   -4.4360 C   0  0  0  0  0  0  0  0  0  0  0  0
    0.1390   15.6040   -3.7170 C   0  0  0  0  0  0  0  0  0  0  0  0
   -1.6140   14.6320   -1.9960 C   0  0  0  0  0  0  0  0  0  0  0  0
   -2.8330   13.9970   -2.0230 C   0  0  0  0  0  0  0  0  0  0  0  0
   -1.5730   15.6580   -0.9700 C   0  0  0  0  0  0  0  0  0  0  0  0
   -2.7010   15.8240   -0.2720 C   0  0  0  0  0  0  0  0  0  0  0  0
   -3.8740   14.7540   -0.8550 S   0  0  1  0  0  0  0  0  0  0  0  0
   -5.1690   15.5770   -1.6510 C   0  0  0  0  0  0  0  0  0  0  0  0
   -4.5560   13.9350    0.5850 C   0  0  0  0  0  0  0  0  0  0  0  0
   -6.5180   15.1140   -1.2100 C   0  0  0  0  0  0  0  0  0  0  0  0
   -5.7980   14.7380    1.1040 C   0  0  2  0  0  0  0  0  0  0  0  0
   -6.5340   14.3670    2.3360 N   0  0  0  0  0  0  0  0  0  0  0  0
   -6.8280   14.7380    0.0260 C   0  0  0  0  0  0  0  0  0  0  0  0
   -7.6180   15.0730    2.8950 C   0  0  0  0  0  0  0  0  0  0  0  0
   -8.6100   15.3840    2.2410 O   0  0  0  0  0  0  0  0  0  0  0  0
   -7.4250   15.3650    4.2570 N   0  0  0  0  0  0  0  0  0  0  0  0
   -8.2950   16.0380    5.1770 C   0  0  0  0  0  0  0  0  0  0  0  0
   -9.0050   17.1760    4.7700 C   0  0  0  0  0  0  0  0  0  0  0  0
   -8.5000   15.6460    6.5030 C   0  0  0  0  0  0  0  0  0  0  0  0
   -9.8480   17.9010    5.5480 N   0  0  0  0  0  0  0  0  0  0  0  0
   -9.3650   16.3730    7.3310 C   0  0  0  0  0  0  0  0  0  0  0  0
  -10.0100   17.4830    6.8130 C   0  0  0  0  0  0  0  0  0  0  0  0
  1  2  1  0
  1  3  2  0
  4  1  1  1
  4  5  1  0
  4  6  1  0
  5  7  1  0
  6  8  1  0
  7  8  1  0
  6  9  1  6
  9 10  2  0
  9 11  1  0
 11 12  2  0
 13 10  1  6
 12 13  1  0
 13 14  1  0
 13 15  1  0
 14 16  1  0
 15 17  1  0
 17 18  1  1
 16 19  2  0
 17 19  1  0
 18 20  1  0
 20 21  2  0
 20 22  1  0
 22 23  1  0
 23 24  2  0
 23 25  1  0
 24 26  1  0
 25 27  2  0
 26 28  2  0
 27 28  1  0
M  END
