diamond-x0805_0_A-mac-x0509
     RDKit          3D

 30 33  0  0  0  0  0  0  0  0999 V2000
   -4.4790   14.8620    0.9620 C   0  0  0  0  0  0  0  0  0  0  0  0
   -3.6470   15.4800   -0.0040 O   0  0  0  0  0  0  0  0  0  0  0  0
   -3.2690   14.7910   -1.1310 C   0  0  0  0  0  0  0  0  0  0  0  0
   -4.2260   14.0260   -1.7940 C   0  0  0  0  0  0  0  0  0  0  0  0
   -1.9890   14.8310   -1.6340 C   0  0  0  0  0  0  0  0  0  0  0  0
   -3.8740   13.3240   -2.9580 C   0  0  0  0  0  0  0  0  0  0  0  0
   -1.6030   14.1690   -2.7770 C   0  0  0  0  0  0  0  0  0  0  0  0
   -2.5640   13.3980   -3.4520 C   0  0  0  0  0  0  0  0  0  0  0  0
   -0.1600   14.3390   -3.2120 C   0  0  1  0  0  0  0  0  0  0  0  0
    0.7900   13.1590   -3.2940 C   0  0  1  0  0  0  0  0  0  0  0  0
    0.0720   15.2530   -4.3970 C   0  0  0  0  0  0  0  0  0  0  0  0
    0.3740   12.0330   -2.4080 C   0  0  0  0  0  0  0  0  0  0  0  0
    1.3210   12.9560   -4.6820 C   0  0  0  0  0  0  0  0  0  0  0  0
    1.5520   15.3640   -4.6790 C   0  0  0  0  0  0  0  0  0  0  0  0
   -0.1640   10.9450   -3.0110 O   0  0  0  0  0  0  0  0  0  0  0  0
    0.5180   12.1770   -1.2100 O   0  0  0  0  0  0  0  0  0  0  0  0
    2.1710   14.0770   -4.9050 O   0  0  0  0  0  0  0  0  0  0  0  0
   -1.5420   10.7450   -2.6290 C   0  0  0  0  0  0  0  0  0  0  0  0
   -2.3820   10.4930   -3.8770 C   0  0  0  0  0  0  0  0  0  0  0  0
   -2.0770    9.2060   -4.6350 C   0  0  0  0  0  0  0  0  0  0  0  0
   -2.3530    9.4060   -6.0100 N   0  0  0  0  0  0  0  0  0  0  0  0
   -1.6990    8.8320   -6.9270 C   0  0  0  0  0  0  0  0  0  0  0  0
   -2.1010    9.2550   -8.3260 C   0  0  0  0  0  0  0  0  0  0  0  0
   -0.6570    7.9200   -7.0320 N   0  0  0  0  0  0  0  0  0  0  0  0
   -0.7540    9.1870   -8.9500 C   0  0  0  0  0  0  0  0  0  0  0  0
    0.0600    8.3630   -8.1570 C   0  0  0  0  0  0  0  0  0  0  0  0
   -0.3000    9.7860  -10.1030 C   0  0  0  0  0  0  0  0  0  0  0  0
    1.3510    8.1030   -8.5290 C   0  0  0  0  0  0  0  0  0  0  0  0
    1.0140    9.5360  -10.4780 C   0  0  0  0  0  0  0  0  0  0  0  0
    1.8310    8.6970   -9.7040 C   0  0  0  0  0  0  0  0  0  0  0  0
  1  2  1  0
  2  3  1  0
  3  4  2  0
  3  5  1  0
  4  6  1  0
  5  7  2  0
  6  8  2  0
  7  8  1  0
  9  7  1  6
  9 10  1  0
  9 11  1  0
 10 12  1  6
 10 13  1  0
 11 14  1  0
 12 15  1  0
 12 16  2  0
 13 17  1  0
 14 17  1  0
 15 18  1  0
 18 19  1  0
 19 20  1  0
 20 21  1  0
 21 22  2  3
 22 23  1  0
 22 24  1  0
 23 25  1  0
 24 26  1  0
 25 26  2  0
 25 27  1  0
 26 28  1  0
 27 29  2  0
 28 30  2  0
 29 30  1  0
M  END
