diamond-x1012_0_A-mac-x0132
     RDKit          3D

 25 27  0  0  0  0  0  0  0  0999 V2000
   -0.6710   18.1050   -4.5190 N   0  0  0  0  0  0  0  0  0  0  0  0
   -1.2930   16.9410   -4.8530 C   0  0  0  0  0  0  0  0  0  0  0  0
   -2.5690   17.0180   -4.9670 N   0  0  0  0  0  0  0  0  0  0  0  0
   -0.4300   15.8790   -5.0390 N   0  0  0  0  0  0  0  0  0  0  0  0
   -3.4320   15.9040   -5.4270 C   0  0  0  0  0  0  0  0  0  0  0  0
   -1.0300   14.5310   -5.2460 C   0  0  0  0  0  0  0  0  0  0  0  0
    0.9430   15.8650   -4.4760 C   0  0  0  0  0  0  0  0  0  0  0  0
   -3.7330   14.6980   -4.4940 C   0  0  0  0  0  0  0  0  0  0  0  0
   -0.8920   13.6140   -4.0560 C   0  0  0  0  0  0  0  0  0  0  0  0
    1.0970   14.8910   -3.2960 C   0  0  0  0  0  0  0  0  0  0  0  0
    0.5380   13.4980   -3.5970 C   0  0  0  0  0  0  0  0  0  0  0  0
   -4.1140   14.8410   -3.0260 C   0  0  0  0  0  0  0  0  0  0  0  0
    0.6150   12.4970   -2.4510 C   0  0  0  0  0  0  0  0  0  0  0  0
   -5.4420   14.6170   -2.5960 C   0  0  0  0  0  0  0  0  0  0  0  0
   -3.1610   15.1660   -2.0740 C   0  0  0  0  0  0  0  0  0  0  0  0
    0.6050   11.2060   -2.8340 O   0  0  0  0  0  0  0  0  0  0  0  0
    0.6690   12.8200   -1.2710 O   0  0  0  0  0  0  0  0  0  0  0  0
   -5.8230   14.6990   -1.2580 C   0  0  0  0  0  0  0  0  0  0  0  0
   -3.5220   15.2610   -0.7380 C   0  0  0  0  0  0  0  0  0  0  0  0
   -4.8410   15.0270   -0.3290 C   0  0  0  0  0  0  0  0  0  0  0  0
   -7.0930   14.4610   -0.8980 N   0  0  0  0  0  0  0  0  0  0  0  0
   -5.2540   15.0980    0.9890 C   0  0  0  0  0  0  0  0  0  0  0  0
   -7.3770   14.5430    0.4110 C   0  0  0  0  0  0  0  0  0  0  0  0
   -4.3260   15.4490    1.9690 N   0  0  0  0  0  0  0  0  0  0  0  0
   -6.5140   14.8500    1.3820 N   0  0  0  0  0  0  0  0  0  0  0  0
  1  2  1  0
  2  3  2  3
  2  4  1  0
  3  5  1  0
  4  6  1  0
  4  7  1  0
  5  8  1  0
  6  9  1  0
  7 10  1  0
  9 11  1  0
 10 11  1  0
  8 12  1  0
 11 13  1  0
 12 14  2  0
 12 15  1  0
 13 16  1  0
 13 17  2  0
 14 18  1  0
 15 19  2  0
 18 20  2  0
 19 20  1  0
 18 21  1  0
 20 22  1  0
 21 23  2  0
 22 24  1  0
 22 25  2  0
 23 25  1  0
M  END
