diamond-x0471_0_A-diamond-x0844_0_A
     RDKit          3D

 18 19  0  0  0  0  0  0  0  0999 V2000
   -8.9310   13.9890    2.9600 N   0  0  0  0  0  0  0  0  0  0  0  0
   -8.9910   14.9550    3.9270 C   0  0  0  0  0  0  0  0  0  0  0  0
   -9.2590   16.1290    3.6830 O   0  0  0  0  0  0  0  0  0  0  0  0
   -8.9760   14.3930    1.5770 C   0  0  0  0  0  0  0  0  0  0  0  0
   -8.7130   14.4520    5.3350 C   0  0  0  0  0  0  0  0  0  0  0  0
   -7.5670   14.5850    1.0790 C   0  0  0  0  0  0  0  0  0  0  0  0
   -9.9020   13.6560    5.8690 C   0  0  0  0  0  0  0  0  0  0  0  0
   -8.3300   15.6030    6.2560 C   0  0  0  0  0  0  0  0  0  0  0  0
   -7.3870   14.6140   -0.2830 N   0  0  0  0  0  0  0  0  0  0  0  0
   -6.4990   14.7360    1.8310 N   0  0  0  0  0  0  0  0  0  0  0  0
   -5.4900   14.8590    0.9220 C   0  0  0  0  0  0  0  0  0  0  0  0
   -6.1160   14.7930   -0.3710 C   0  0  0  0  0  0  0  0  0  0  0  0
   -5.3520   14.9220   -1.5870 C   0  0  0  0  0  0  0  0  0  0  0  0
   -4.1620   15.0060    1.0230 C   0  0  0  0  0  0  0  0  0  0  0  0
   -5.9990   14.9400   -2.6010 O   0  0  0  0  0  0  0  0  0  0  0  0
   -3.8730   15.0080   -1.4300 C   0  0  0  0  0  0  0  0  0  0  0  0
   -3.3480   15.0600   -0.1810 C   0  0  0  0  0  0  0  0  0  0  0  0
   -2.8550   15.0050   -2.9850 Br  0  0  0  0  0  0  0  0  0  0  0  0
  1  2  1  0
  2  3  2  0
  1  4  1  0
  2  5  1  0
  4  6  1  0
  5  7  1  0
  5  8  1  0
  6  9  1  0
  6 10  2  0
 10 11  1  0
  9 12  2  0
 11 12  1  0
 12 13  1  0
 11 14  2  0
 13 15  2  0
 13 16  1  0
 14 17  1  0
 16 17  2  0
 16 18  1  0
M  END
