diamond-x0950_0_A-mac-x0326
     RDKit          3D

 17 18  0  0  0  0  0  0  0  0999 V2000
    2.9160   12.6880   -4.4140 C   0  0  0  0  0  0  0  0  0  0  0  0
    1.4170   12.9130   -4.2370 C   0  0  1  0  0  0  0  0  0  0  0  0
    0.7480   12.3380   -5.4000 O   0  0  0  0  0  0  0  0  0  0  0  0
    0.9910   12.0510   -3.0430 C   0  0  0  0  0  0  0  0  0  0  0  0
    0.9360   14.3780   -4.0750 C   0  0  0  0  0  0  0  0  0  0  0  0
    0.5040   10.9390   -3.0930 O   0  0  0  0  0  0  0  0  0  0  0  0
    1.2360   12.6950   -1.8750 O   0  0  0  0  0  0  0  0  0  0  0  0
   -0.2610   14.5760   -3.1730 C   0  0  0  0  0  0  0  0  0  0  0  0
   -1.4940   14.7540   -3.6140 N   0  0  0  0  0  0  0  0  0  0  0  0
   -0.0910   14.5810   -1.4630 S   0  0  0  0  0  0  0  0  0  0  0  0
   -2.3760   14.8930   -2.5450 C   0  0  0  0  0  0  0  0  0  0  0  0
   -1.7870   14.8200   -1.2810 C   0  0  0  0  0  0  0  0  0  0  0  0
   -3.7680   15.0910   -2.6370 C   0  0  0  0  0  0  0  0  0  0  0  0
   -2.5430   14.9340   -0.0960 C   0  0  0  0  0  0  0  0  0  0  0  0
   -4.5170   15.2060   -1.4610 C   0  0  0  0  0  0  0  0  0  0  0  0
   -3.9180   15.1300   -0.2110 C   0  0  0  0  0  0  0  0  0  0  0  0
   -6.2180   15.4420   -1.5520 Cl  0  0  0  0  0  0  0  0  0  0  0  0
  2  1  1  6
  2  3  1  0
  2  4  1  0
  2  5  1  0
  4  6  2  0
  4  7  1  0
  5  8  1  0
  8  9  2  0
  8 10  1  0
  9 11  1  0
 10 12  1  0
 11 12  2  0
 11 13  1  0
 12 14  1  0
 13 15  2  0
 14 16  2  0
 15 16  1  0
 15 17  1  0
M  END
