diamond-x0290_0_A-mac-x0568
     RDKit          3D

 22 23  0  0  0  0  0  0  0  0999 V2000
   -7.8570   12.8980    1.2630 N   0  0  0  0  0  0  0  0  0  0  0  0
   -8.1490   14.2600    0.8100 C   0  0  0  0  0  0  0  0  0  0  0  0
   -6.8750   14.7150    0.1730 C   0  0  0  0  0  0  0  0  0  0  0  0
   -6.5120   12.8580    1.8950 C   0  0  0  0  0  0  0  0  0  0  0  0
   -5.2840   13.1070    0.9730 C   0  0  0  0  0  0  0  0  0  0  0  0
   -5.4120   12.9430   -0.2500 O   0  0  0  0  0  0  0  0  0  0  0  0
   -4.0460   13.5120    1.4330 N   0  0  0  0  0  0  0  0  0  0  0  0
   -6.8270   14.7610   -1.1710 N   0  0  0  0  0  0  0  0  0  0  0  0
   -5.7950   15.0480    0.9910 C   0  0  0  0  0  0  0  0  0  0  0  0
   -2.7930   13.8330    0.8720 C   0  0  0  0  0  0  0  0  0  0  0  0
   -5.6510   15.1400   -1.7190 C   0  0  0  0  0  0  0  0  0  0  0  0
   -4.6020   15.4410    0.4010 C   0  0  0  0  0  0  0  0  0  0  0  0
   -1.8220   14.1840    1.7730 N   0  0  0  0  0  0  0  0  0  0  0  0
   -2.5200   13.8000   -0.4820 C   0  0  0  0  0  0  0  0  0  0  0  0
   -4.5270   15.4760   -0.9790 C   0  0  0  0  0  0  0  0  0  0  0  0
   -3.2970   15.8500   -1.6960 C   0  0  0  0  0  0  0  0  0  0  0  0
   -0.5930   14.4810    1.2940 C   0  0  0  0  0  0  0  0  0  0  0  0
   -1.2400   14.1250   -0.9550 C   0  0  0  0  0  0  0  0  0  0  0  0
   -0.9470   14.0980   -2.4250 C   0  0  0  0  0  0  0  0  0  0  0  0
   -3.2710   15.9540   -2.9160 O   0  0  0  0  0  0  0  0  0  0  0  0
   -2.1770   16.0690   -0.9490 N   0  0  0  0  0  0  0  0  0  0  0  0
   -0.2570   14.4700   -0.0390 C   0  0  0  0  0  0  0  0  0  0  0  0
  1  2  1  0
  2  3  1  0
  1  4  1  0
  4  5  1  0
  5  6  2  0
  5  7  1  0
  3  8  2  0
  3  9  1  0
  7 10  1  0
  8 11  1  0
  9 12  2  0
 10 13  2  0
 10 14  1  0
 11 15  2  0
 12 15  1  0
 15 16  1  0
 13 17  1  0
 14 18  2  0
 18 19  1  0
 16 20  2  0
 16 21  1  0
 17 22  2  0
 18 22  1  0
M  END
