diamond-x0950_0_A-mac-x0361
     RDKit          3D

 18 18  0  0  0  0  0  0  0  0999 V2000
    2.8660   12.8800   -4.3570 C   0  0  0  0  0  0  0  0  0  0  0  0
    1.3900   12.5810   -4.5320 C   0  0  1  0  0  0  0  0  0  0  0  0
    1.1700   11.7730   -5.6810 O   0  0  0  0  0  0  0  0  0  0  0  0
    0.7680   12.0010   -3.2530 C   0  0  0  0  0  0  0  0  0  0  0  0
    0.5970   10.8190   -2.9810 O   0  0  0  0  0  0  0  0  0  0  0  0
    0.4230   13.0390   -2.4950 O   0  0  0  0  0  0  0  0  0  0  0  0
    0.0770   14.0720   -3.4200 C   0  0  0  0  0  0  0  0  0  0  0  0
   -0.7120   15.1420   -2.7410 C   0  0  0  0  0  0  0  0  0  0  0  0
   -2.0760   15.1880   -3.2050 O   0  0  0  0  0  0  0  0  0  0  0  0
   -3.0910   15.0690   -2.2930 C   0  0  0  0  0  0  0  0  0  0  0  0
   -2.9340   14.8530   -0.9250 C   0  0  0  0  0  0  0  0  0  0  0  0
   -4.3830   15.1820   -2.8160 C   0  0  0  0  0  0  0  0  0  0  0  0
   -4.0470   14.7520   -0.0920 C   0  0  0  0  0  0  0  0  0  0  0  0
   -5.5050   15.0820   -1.9830 C   0  0  0  0  0  0  0  0  0  0  0  0
   -5.3370   14.8640   -0.6110 C   0  0  0  0  0  0  0  0  0  0  0  0
   -6.5200   14.7500    0.2790 C   0  0  0  0  0  0  0  0  0  0  0  0
   -6.2730   14.7510    1.6260 N   0  0  0  0  0  0  0  0  0  0  0  0
   -7.6630   14.6580   -0.1490 O   0  0  0  0  0  0  0  0  0  0  0  0
  2  1  1  1
  2  3  1  0
  2  4  1  0
  4  5  2  0
  4  6  1  0
  6  7  1  0
  7  8  1  0
  8  9  1  0
  9 10  1  0
 10 11  2  0
 10 12  1  0
 11 13  1  0
 12 14  2  0
 13 15  2  0
 14 15  1  0
 15 16  1  0
 16 17  1  0
 16 18  2  0
M  END
