diamond-x0905_0_A-mac-x0319
     RDKit          3D

 21 22  0  0  0  0  0  0  0  0999 V2000
   -6.8470   15.1820   -0.8320 O   0  0  0  0  0  0  0  0  0  0  0  0
   -5.5140   15.1390   -0.5720 C   0  0  0  0  0  0  0  0  0  0  0  0
   -5.2200   15.0030    0.7250 N   0  0  0  0  0  0  0  0  0  0  0  0
   -4.5860   15.2270   -1.5890 C   0  0  0  0  0  0  0  0  0  0  0  0
   -3.9030   14.9540    1.0390 C   0  0  0  0  0  0  0  0  0  0  0  0
   -3.2340   15.1660   -1.2320 C   0  0  0  0  0  0  0  0  0  0  0  0
   -2.8590   15.0250    0.1180 C   0  0  0  0  0  0  0  0  0  0  0  0
   -1.4070   14.9460    0.6020 C   0  0  0  0  0  0  0  0  0  0  0  0
   -0.7490   13.6410    0.2420 C   0  0  0  0  0  0  0  0  0  0  0  0
    0.1610   13.6550   -0.9910 C   0  0  0  0  0  0  0  0  0  0  0  0
    0.2150   12.2480   -1.3550 N   0  0  0  0  0  0  0  0  0  0  0  0
    0.6380   11.7170   -2.4430 C   0  0  0  0  0  0  0  0  0  0  0  0
    0.5560   10.3720   -2.5450 O   0  0  0  0  0  0  0  0  0  0  0  0
    1.2250   12.4660   -3.6360 C   0  0  0  0  0  0  0  0  0  0  0  0
    0.5430   13.7730   -3.9700 C   0  0  0  0  0  0  0  0  0  0  0  0
    1.2470   14.9870   -3.9210 C   0  0  0  0  0  0  0  0  0  0  0  0
   -0.8130   13.7860   -4.3360 C   0  0  0  0  0  0  0  0  0  0  0  0
    0.5910   16.1790   -4.2300 C   0  0  0  0  0  0  0  0  0  0  0  0
   -1.4530   14.9870   -4.6450 C   0  0  0  0  0  0  0  0  0  0  0  0
    1.2850   17.3450   -4.1680 O   0  0  0  0  0  0  0  0  0  0  0  0
   -0.7490   16.1850   -4.5920 C   0  0  0  0  0  0  0  0  0  0  0  0
  1  2  1  0
  2  3  2  0
  2  4  1  0
  3  5  1  0
  4  6  2  0
  5  7  2  0
  6  7  1  0
  7  8  1  0
  8  9  1  0
  9 10  1  0
 10 11  1  0
 11 12  2  3
 12 13  1  0
 12 14  1  0
 14 15  1  0
 15 16  2  0
 15 17  1  0
 16 18  1  0
 17 19  2  0
 18 20  1  0
 18 21  2  0
 19 21  1  0
M  END
