diamond-x0742_0_A-mac-x0441
     RDKit          3D

 34 38  0  0  0  0  0  0  0  0999 V2000
   -5.6730   12.2090   -0.3840 C   0  0  0  0  0  0  0  0  0  0  0  0
   -6.4640   12.0030    0.8790 C   0  0  0  0  0  0  0  0  0  0  0  0
   -5.7010   11.3590   -1.2780 O   0  0  0  0  0  0  0  0  0  0  0  0
   -4.8440   13.4840   -0.5630 C   0  0  2  0  0  0  0  0  0  0  0  0
   -4.7040   14.3950    0.6950 C   0  0  2  0  0  0  0  0  0  0  0  0
   -5.6240   14.3820   -1.5390 C   0  0  0  0  0  0  0  0  0  0  0  0
   -3.4960   13.0780   -1.1710 C   0  0  0  0  0  0  0  0  0  0  0  0
   -4.3650   15.7320    0.0590 C   0  0  0  0  0  0  0  0  0  0  0  0
   -2.2880   13.6170   -0.4700 C   0  0  0  0  0  0  0  0  0  0  0  0
   -3.5760   14.0070    1.6290 C   0  0  0  0  0  0  0  0  0  0  0  0
   -5.1870   15.8030   -1.2200 C   0  0  0  0  0  0  0  0  0  0  0  0
   -1.1110   13.6630   -1.1690 C   0  0  0  0  0  0  0  0  0  0  0  0
   -2.3000   14.0700    0.8640 C   0  0  0  0  0  0  0  0  0  0  0  0
   -1.2180   14.5570    1.4900 N   0  0  0  0  0  0  0  0  0  0  0  0
    0.0280   14.1420   -0.5840 C   0  0  0  0  0  0  0  0  0  0  0  0
    1.2890   14.1520   -1.4210 C   0  0  0  0  0  0  0  0  0  0  0  0
   -0.0800   14.5880    0.7520 C   0  0  0  0  0  0  0  0  0  0  0  0
    0.9960   13.8340   -2.8250 N   0  0  0  0  0  0  0  0  0  0  0  0
    0.7930   12.7410   -3.5130 C   0  0  0  0  0  0  0  0  0  0  0  0
    0.7940   11.4570   -3.0830 O   0  0  0  0  0  0  0  0  0  0  0  0
    0.5240   12.9800   -4.9860 C   0  0  0  0  0  0  0  0  0  0  0  0
    0.2270   11.8900   -5.9200 N   0  0  0  0  0  0  0  0  0  0  0  0
    0.9620   11.8610   -7.0610 N   0  0  0  0  0  0  0  0  0  0  0  0
   -0.6920   10.8700   -5.8850 C   0  0  0  0  0  0  0  0  0  0  0  0
    0.4910   10.8130   -7.7750 C   0  0  0  0  0  0  0  0  0  0  0  0
   -0.5340   10.1690   -7.0650 C   0  0  0  0  0  0  0  0  0  0  0  0
   -1.6890   10.5290   -4.8480 C   0  0  0  0  0  0  0  0  0  0  0  0
    0.9630   10.3710   -9.1410 C   0  0  0  0  0  0  0  0  0  0  0  0
   -1.3380    8.9740   -7.4490 C   0  0  0  0  0  0  0  0  0  0  0  0
   -2.8530    9.7890   -5.5420 C   0  0  0  0  0  0  0  0  0  0  0  0
    1.6520    9.2000   -9.0910 F   0  0  0  0  0  0  0  0  0  0  0  0
   -0.0970   10.1210   -9.9490 F   0  0  0  0  0  0  0  0  0  0  0  0
    1.6860   11.2520   -9.8590 F   0  0  0  0  0  0  0  0  0  0  0  0
   -2.3530    8.5840   -6.3610 C   0  0  0  0  0  0  0  0  0  0  0  0
  1  2  1  0
  1  3  2  0
  4  1  1  1
  4  5  1  0
  4  6  1  0
  4  7  1  0
  5  8  1  6
  7  9  1  0
  5 10  1  0
  6 11  1  0
  8 11  1  0
  9 12  2  0
  9 13  1  0
 10 13  1  0
 13 14  2  0
 12 15  1  0
 15 16  1  0
 14 17  1  0
 15 17  2  0
 16 18  1  0
 18 19  2  3
 19 20  1  0
 19 21  1  0
 21 22  1  0
 22 23  1  0
 22 24  1  0
 23 25  2  0
 24 26  2  0
 25 26  1  0
 24 27  1  0
 25 28  1  0
 26 29  1  0
 27 30  1  0
 28 31  1  0
 28 32  1  0
 28 33  1  0
 29 34  1  0
 30 34  1  0
M  END
