diamond-x0864_0_A-mac-x0188
     RDKit          3D

 24 26  0  0  0  0  0  0  0  0999 V2000
    1.5240   11.9750   -6.6210 O   0  0  0  0  0  0  0  0  0  0  0  0
    0.4520   11.4670   -6.3060 C   0  0  0  0  0  0  0  0  0  0  0  0
   -0.3450   11.8710   -5.2250 N   0  0  0  0  0  0  0  0  0  0  0  0
   -0.0490   10.3230   -7.1160 C   0  0  0  0  0  0  0  0  0  0  0  0
   -1.4820   11.1520   -4.8760 C   0  0  0  0  0  0  0  0  0  0  0  0
   -1.1710    9.6850   -6.7550 C   0  0  0  0  0  0  0  0  0  0  0  0
   -0.2880   13.2780   -4.7850 C   0  0  1  0  0  0  0  0  0  0  0  0
   -1.8510    8.2390   -7.7180 Br  0  0  0  0  0  0  0  0  0  0  0  0
   -1.8980   10.1020   -5.5880 C   0  0  0  0  0  0  0  0  0  0  0  0
   -1.1970   14.0080   -5.6250 O   0  0  0  0  0  0  0  0  0  0  0  0
   -0.7390   13.5570   -3.3480 C   0  0  1  0  0  0  0  0  0  0  0  0
    0.4760   13.7530   -2.4710 C   0  0  0  0  0  0  0  0  0  0  0  0
   -2.3510   14.3830   -4.8050 N   0  0  0  0  0  0  0  0  0  0  0  0
   -1.7070   14.6920   -3.5270 C   0  0  1  0  0  0  0  0  0  0  0  0
    1.0530   12.5640   -2.1410 N   0  0  0  0  0  0  0  0  0  0  0  0
    0.8700   14.8700   -2.1040 O   0  0  0  0  0  0  0  0  0  0  0  0
   -2.6980   14.8970   -2.3960 C   0  0  0  0  0  0  0  0  0  0  0  0
    0.3470   11.5370   -2.4580 C   0  0  0  0  0  0  0  0  0  0  0  0
   -4.0030   15.2990   -2.7100 C   0  0  0  0  0  0  0  0  0  0  0  0
   -2.3700   14.7110   -1.0400 C   0  0  0  0  0  0  0  0  0  0  0  0
    0.6150   10.2380   -2.2690 O   0  0  0  0  0  0  0  0  0  0  0  0
   -4.9500   15.5190   -1.7120 C   0  0  0  0  0  0  0  0  0  0  0  0
   -3.3220   14.9300   -0.0380 C   0  0  0  0  0  0  0  0  0  0  0  0
   -4.6100   15.3360   -0.3790 C   0  0  0  0  0  0  0  0  0  0  0  0
  1  2  2  0
  2  3  1  0
  2  4  1  0
  3  5  1  0
  4  6  2  0
  7  3  1  6
  6  8  1  0
  5  9  2  0
  6  9  1  0
  7 10  1  0
  7 11  1  0
 11 12  1  1
 10 13  1  0
 11 14  1  0
 13 14  1  0
 12 15  1  0
 12 16  2  0
 14 17  1  1
 15 18  2  3
 17 19  2  0
 17 20  1  0
 18 21  1  0
 19 22  1  0
 20 23  2  0
 22 24  2  0
 23 24  1  0
M  END
