diamond-x0662_0_A-mac-x0588
     RDKit          3D

 36 40  0  0  0  0  0  0  0  0999 V2000
    5.3170    9.5190  -15.1010 C   0  0  0  0  0  0  0  0  0  0  0  0
    4.2860    9.9970  -14.2090 N   0  0  0  0  0  0  0  0  0  0  0  0
    3.6450   11.2080  -14.2590 C   0  0  0  0  0  0  0  0  0  0  0  0
    3.8750    9.2080  -13.2000 N   0  0  0  0  0  0  0  0  0  0  0  0
    2.7600   11.2010  -13.2070 C   0  0  0  0  0  0  0  0  0  0  0  0
    2.9340    9.9350  -12.5670 C   0  0  0  0  0  0  0  0  0  0  0  0
    2.2290    9.4360  -11.3810 C   0  0  0  0  0  0  0  0  0  0  0  0
    2.3460    8.2590  -11.0170 O   0  0  0  0  0  0  0  0  0  0  0  0
    1.4270   10.2690  -10.6230 N   0  0  0  0  0  0  0  0  0  0  0  0
    0.6840   10.0720   -9.4360 C   0  0  0  0  0  0  0  0  0  0  0  0
   -0.2480    9.0380   -9.4270 C   0  0  0  0  0  0  0  0  0  0  0  0
    0.8160   10.8380   -8.2790 C   0  0  0  0  0  0  0  0  0  0  0  0
   -1.0210    8.7890   -8.2870 C   0  0  0  0  0  0  0  0  0  0  0  0
    0.0600   10.6230   -7.1230 C   0  0  0  0  0  0  0  0  0  0  0  0
    0.2110   11.4800   -5.8710 C   0  0  0  0  0  0  0  0  0  0  0  0
   -0.8680    9.5780   -7.1430 C   0  0  0  0  0  0  0  0  0  0  0  0
   -0.7000   11.4010   -4.9580 N   0  0  0  0  0  0  0  0  0  0  0  0
    1.2490   12.1640   -5.9350 O   0  0  0  0  0  0  0  0  0  0  0  0
   -0.5080   12.2580   -3.7860 C   0  0  0  0  0  0  0  0  0  0  0  0
   -1.5090   13.4210   -3.7710 C   0  0  0  0  0  0  0  0  0  0  0  0
   -0.9730   14.7590   -3.1830 C   0  0  2  0  0  0  0  0  0  0  0  0
   -1.8660   15.2620   -2.1040 N   0  0  0  0  0  0  0  0  0  0  0  0
   -0.7570   15.8320   -4.3150 C   0  0  1  0  0  0  0  0  0  0  0  0
   -3.2880   15.0380   -2.2540 C   0  0  0  0  0  0  0  0  0  0  0  0
   -1.2760   15.4470   -0.7940 C   0  0  1  0  0  0  0  0  0  0  0  0
   -1.4730   17.0680   -4.1280 O   0  0  0  0  0  0  0  0  0  0  0  0
    0.6980   16.2510   -4.5570 C   0  0  0  0  0  0  0  0  0  0  0  0
   -4.0530   15.5010   -1.1010 N   0  0  0  0  0  0  0  0  0  0  0  0
   -2.1940   15.3400    0.4420 C   0  0  1  0  0  0  0  0  0  0  0  0
   -0.1890   14.5280   -0.5330 N   0  0  0  0  0  0  0  0  0  0  0  0
    0.5760   17.6180   -5.2060 C   0  0  0  0  0  0  0  0  0  0  0  0
   -0.8990   17.9770   -5.0620 C   0  0  0  0  0  0  0  0  0  0  0  0
   -3.6070   14.8500    0.0930 C   0  0  1  0  0  0  0  0  0  0  0  0
   -1.4890   14.4490    1.3890 N   0  0  0  0  0  0  0  0  0  0  0  0
   -0.1220   14.4180    0.9070 C   0  0  0  0  0  0  0  0  0  0  0  0
   -4.5950   15.2500    1.0940 N   0  0  0  0  0  0  0  0  0  0  0  0
  1  2  1  0
  2  3  1  0
  2  4  1  0
  3  5  2  0
  4  6  2  0
  5  6  1  0
  6  7  1  0
  7  8  2  0
  7  9  1  0
  9 10  1  0
 10 11  2  0
 10 12  1  0
 11 13  1  0
 12 14  2  0
 14 15  1  0
 13 16  2  0
 14 16  1  0
 15 17  2  3
 15 18  1  0
 17 19  1  0
 19 20  1  0
 21 20  1  6
 21 22  1  0
 21 23  1  0
 22 24  1  0
 22 25  1  0
 23 26  1  0
 23 27  1  1
 24 28  1  0
 25 29  1  0
 25 30  1  1
 27 31  1  0
 26 32  1  0
 31 32  1  0
 28 33  1  0
 29 33  1  0
 29 34  1  1
 30 35  1  0
 34 35  1  0
 33 36  1  1
M  CHG  1  18  -1
M  END
