diamond-x0438_0_A-mac-x0565
     RDKit          3D

 26 29  0  0  0  0  0  0  0  0999 V2000
   -8.9070   16.4670    4.1940 C   0  0  0  0  0  0  0  0  0  0  0  0
   -9.1720   15.4560    2.7480 S   0  0  0  0  0  0  0  0  0  0  0  0
  -10.2060   14.4910    3.0770 O   0  0  0  0  0  0  0  0  0  0  0  0
   -7.6200   14.6010    2.4610 C   0  0  0  0  0  0  0  0  0  0  0  0
   -9.3970   16.3560    1.6300 O   0  0  0  0  0  0  0  0  0  0  0  0
   -7.2700   14.3640    1.0340 C   0  0  0  0  0  0  0  0  0  0  0  0
   -8.0690   14.2450   -0.0180 N   0  0  0  0  0  0  0  0  0  0  0  0
   -5.9700   14.2340    0.6130 N   0  0  0  0  0  0  0  0  0  0  0  0
   -4.7950   14.3110    1.3100 O   0  0  0  0  0  0  0  0  0  0  0  0
   -5.9100   14.0070   -0.6950 C   0  0  0  0  0  0  0  0  0  0  0  0
   -7.2230   14.0270   -1.0930 C   0  0  0  0  0  0  0  0  0  0  0  0
   -4.1750   15.4270    0.8480 C   0  0  0  0  0  0  0  0  0  0  0  0
   -7.4900   13.8340   -2.4510 C   0  0  0  0  0  0  0  0  0  0  0  0
   -4.8260   13.7960   -1.5310 C   0  0  0  0  0  0  0  0  0  0  0  0
   -4.0390   16.4580    1.4660 O   0  0  0  0  0  0  0  0  0  0  0  0
   -6.4200   13.6240   -3.3270 C   0  0  0  0  0  0  0  0  0  0  0  0
   -5.1090   13.6010   -2.8760 C   0  0  0  0  0  0  0  0  0  0  0  0
   -3.6460   15.2590   -0.5350 C   0  0  0  0  0  0  0  0  0  0  0  0
   -2.3520   14.7320   -0.6590 C   0  0  0  0  0  0  0  0  0  0  0  0
   -4.3740   15.6040   -1.7060 C   0  0  0  0  0  0  0  0  0  0  0  0
   -1.8350   14.5730   -1.9280 C   0  0  0  0  0  0  0  0  0  0  0  0
   -3.8070   15.4190   -2.9790 C   0  0  0  0  0  0  0  0  0  0  0  0
   -2.5410   14.9060   -3.0540 C   0  0  0  0  0  0  0  0  0  0  0  0
   -0.6040   14.0840   -2.2340 O   0  0  0  0  0  0  0  0  0  0  0  0
   -1.8430   14.6690   -4.1950 O   0  0  0  0  0  0  0  0  0  0  0  0
   -0.5360   14.4440   -3.6300 C   0  0  0  0  0  0  0  0  0  0  0  0
  2  1  1  0
  2  3  2  0
  2  4  1  0
  2  5  2  0
  4  6  1  0
  6  7  2  0
  6  8  1  0
  8  9  1  0
  8 10  1  0
  7 11  1  0
 10 11  2  0
  9 12  1  0
 11 13  1  0
 10 14  1  0
 12 15  2  0
 13 16  2  0
 14 17  2  0
 16 17  1  0
 12 18  1  0
 18 19  2  0
 18 20  1  0
 19 21  1  0
 20 22  2  0
 21 23  2  0
 22 23  1  0
 21 24  1  0
 23 25  1  0
 24 26  1  0
 25 26  1  0
M  END
