diamond-x0290_0_A-diamond-x1012_0_A
     RDKit          3D

 25 26  0  0  0  0  0  0  0  0999 V2000
   -7.8420   13.7940    1.0060 N   0  0  0  0  0  0  0  0  0  0  0  0
   -8.6120   14.9840    0.6680 C   0  0  0  0  0  0  0  0  0  0  0  0
   -6.6380   14.1070    1.8090 C   0  0  0  0  0  0  0  0  0  0  0  0
   -5.4470   14.6020    0.9690 C   0  0  0  0  0  0  0  0  0  0  0  0
   -5.5050   14.7560   -0.2540 O   0  0  0  0  0  0  0  0  0  0  0  0
   -4.2520   14.8860    1.5860 N   0  0  0  0  0  0  0  0  0  0  0  0
   -2.9850   14.6730    1.0640 C   0  0  0  0  0  0  0  0  0  0  0  0
   -1.8430   14.7610    1.7840 N   0  0  0  0  0  0  0  0  0  0  0  0
   -2.9740   14.3540   -0.2650 C   0  0  0  0  0  0  0  0  0  0  0  0
   -0.6720   14.5300    1.1490 C   0  0  0  0  0  0  0  0  0  0  0  0
   -1.7850   14.1130   -0.9090 C   0  0  0  0  0  0  0  0  0  0  0  0
   -1.8680   13.7580   -2.3570 C   0  0  0  0  0  0  0  0  0  0  0  0
   -0.5880   14.2050   -0.1910 C   0  0  0  0  0  0  0  0  0  0  0  0
   -0.9030   14.5630   -3.1710 C   0  0  2  0  0  0  0  0  0  0  0  0
   -1.3670   14.8060   -4.6000 C   0  0  0  0  0  0  0  0  0  0  0  0
    0.5440   14.0810   -3.1080 C   0  0  1  0  0  0  0  0  0  0  0  0
    0.6360   12.6450   -2.5920 C   0  0  0  0  0  0  0  0  0  0  0  0
    1.2440   14.3720   -4.4330 C   0  0  0  0  0  0  0  0  0  0  0  0
   -0.6110   15.9490   -5.0750 N   0  0  0  0  0  0  0  0  0  0  0  0
   -1.2320   17.1660   -4.8710 C   0  0  0  0  0  0  0  0  0  0  0  0
    0.6440   11.6660   -3.5180 O   0  0  0  0  0  0  0  0  0  0  0  0
    0.6740   12.3970   -1.3990 O   0  0  0  0  0  0  0  0  0  0  0  0
    0.8460   15.7640   -4.9650 C   0  0  0  0  0  0  0  0  0  0  0  0
   -0.4340   18.2570   -4.8540 N   0  0  0  0  0  0  0  0  0  0  0  0
   -2.4350   17.3270   -4.7020 O   0  0  0  0  0  0  0  0  0  0  0  0
  1  2  1  0
  1  3  1  0
  3  4  1  0
  4  5  2  0
  4  6  1  0
  6  7  1  0
  7  8  2  0
  7  9  1  0
  8 10  1  0
  9 11  2  0
 11 12  1  0
 10 13  2  0
 11 13  1  0
 14 12  1  6
 14 15  1  0
 14 16  1  0
 16 17  1  6
 16 18  1  0
 15 19  1  0
 19 20  1  0
 17 21  1  0
 17 22  2  0
 18 23  1  0
 19 23  1  0
 20 24  1  0
 20 25  2  0
M  END
