diamond-x0805_0_A-mac-x0255
     RDKit          3D

 22 24  0  0  0  0  0  0  0  0999 V2000
   -4.6060   15.0780    0.8730 C   0  0  0  0  0  0  0  0  0  0  0  0
   -3.4260   15.4180    0.1700 O   0  0  0  0  0  0  0  0  0  0  0  0
   -3.1250   14.7670   -0.9980 C   0  0  0  0  0  0  0  0  0  0  0  0
   -4.1290   14.0110   -1.6010 C   0  0  0  0  0  0  0  0  0  0  0  0
   -1.8840   14.8330   -1.5920 C   0  0  0  0  0  0  0  0  0  0  0  0
   -3.8680   13.3330   -2.8000 C   0  0  0  0  0  0  0  0  0  0  0  0
   -1.5890   14.1900   -2.7770 C   0  0  0  0  0  0  0  0  0  0  0  0
   -2.6000   13.4240   -3.3900 C   0  0  0  0  0  0  0  0  0  0  0  0
   -0.1830   14.3480   -3.3650 C   0  0  1  0  0  0  0  0  0  0  0  0
    0.3780   12.9390   -3.7290 C   0  0  2  0  0  0  0  0  0  0  0  0
   -0.0780   15.4220   -4.5090 C   0  0  0  0  0  0  0  0  0  0  0  0
    0.3770   12.0650   -2.5010 C   0  0  0  0  0  0  0  0  0  0  0  0
    1.7570   12.9810   -4.3740 C   0  0  0  0  0  0  0  0  0  0  0  0
    1.0510   14.9470   -5.4080 C   0  0  0  0  0  0  0  0  0  0  0  0
    0.2970   16.8840   -4.2310 C   0  0  0  0  0  0  0  0  0  0  0  0
   -1.4680   15.4100   -5.1730 C   0  0  0  0  0  0  0  0  0  0  0  0
    0.0330   10.7890   -2.7600 O   0  0  0  0  0  0  0  0  0  0  0  0
    0.6300   12.4080   -1.3620 O   0  0  0  0  0  0  0  0  0  0  0  0
    2.1010   14.3140   -4.6610 O   0  0  0  0  0  0  0  0  0  0  0  0
   -0.3810   17.9490   -4.6950 C   0  0  0  0  0  0  0  0  0  0  0  0
   -2.1440   16.4920   -5.6120 C   0  0  0  0  0  0  0  0  0  0  0  0
   -1.6120   17.8810   -5.5330 C   0  0  0  0  0  0  0  0  0  0  0  0
  1  2  1  0
  2  3  1  0
  3  4  2  0
  3  5  1  0
  4  6  1  0
  5  7  2  0
  6  8  2  0
  7  8  1  0
  9  7  1  6
  9 10  1  0
  9 11  1  0
 10 12  1  1
 10 13  1  0
 11 14  1  0
 11 15  1  0
 11 16  1  0
 12 17  1  0
 12 18  2  0
 13 19  1  0
 14 19  1  0
 15 20  2  0
 16 21  2  0
 20 22  1  0
 21 22  1  0
M  END
