diamond-x0685_0_A-mac-x0568
     RDKit          3D

 14 14  0  0  0  0  0  0  0  0999 V2000
   -6.4340   14.1030    2.6410 N   0  0  0  0  0  0  0  0  0  0  0  0
   -7.6710   14.7160    3.0720 C   0  0  0  0  0  0  0  0  0  0  0  0
   -8.7460   13.6990    3.3750 C   0  0  0  0  0  0  0  0  0  0  0  0
   -5.6200   14.7200    1.6290 C   0  0  1  0  0  0  0  0  0  0  0  0
   -4.2560   14.1650    1.3970 C   0  0  0  0  0  0  0  0  0  0  0  0
   -6.4720   14.9340    0.4430 N   0  0  0  0  0  0  0  0  0  0  0  0
   -7.7590   14.2130    0.4850 C   0  0  0  0  0  0  0  0  0  0  0  0
   -3.6030   14.4180    0.2710 C   0  0  0  0  0  0  0  0  0  0  0  0
   -5.7610   14.8630   -0.8560 C   0  0  0  0  0  0  0  0  0  0  0  0
   -4.2790   15.2860   -0.7630 C   0  0  2  0  0  0  0  0  0  0  0  0
   -3.5110   15.3180   -2.1180 C   0  0  2  0  0  0  0  0  0  0  0  0
   -3.7830   14.1520   -2.9810 N   0  0  0  0  0  0  0  0  0  0  0  0
   -1.9970   15.3930   -1.8830 C   0  0  0  0  0  0  0  0  0  0  0  0
   -1.6490   15.6140   -0.4780 N   0  0  0  0  0  0  0  0  0  0  0  0
  1  2  1  0
  2  3  1  0
  4  1  1  1
  4  5  1  0
  4  6  1  0
  6  7  1  0
  5  8  2  0
  6  9  1  0
 10  8  1  1
  9 10  1  0
 10 11  1  0
 11 12  1  1
 11 13  1  0
 13 14  1  0
M  END
