diamond-x0895_1_A-diamond-x0685_1_A
     RDKit          3D

 22 23  0  0  0  0  0  0  0  0999 V2000
   -1.6510   14.7170    1.5150 O   0  0  0  0  0  0  0  0  0  0  0  0
   -2.7090   14.6910    0.8820 C   0  0  0  0  0  0  0  0  0  0  0  0
   -2.8840   14.6560   -0.6520 C   0  0  1  0  0  0  0  0  0  0  0  0
   -3.9420   14.6970    1.4470 N   0  0  0  0  0  0  0  0  0  0  0  0
   -2.3120   13.4350   -1.3510 C   0  0  0  0  0  0  0  0  0  0  0  0
   -4.3240   14.7100   -0.7310 N   0  0  0  0  0  0  0  0  0  0  0  0
   -4.9100   14.7680    0.5070 C   0  0  0  0  0  0  0  0  0  0  0  0
   -6.1050   14.8580    0.7150 O   0  0  0  0  0  0  0  0  0  0  0  0
   -0.8950   13.0690   -0.9090 C   0  0  0  0  0  0  0  0  0  0  0  0
    0.0980   13.4300   -1.8590 O   0  0  0  0  0  0  0  0  0  0  0  0
    0.7250   12.2720   -2.7890 S   0  0  0  0  0  0  0  0  0  0  0  0
    0.0380   12.5290   -4.4160 C   0  0  0  0  0  0  0  0  0  0  0  0
    2.3140   12.3770   -2.9600 O   0  0  0  0  0  0  0  0  0  0  0  0
    0.2950   10.7840   -2.3190 O   0  0  0  0  0  0  0  0  0  0  0  0
   -1.3850   11.9980   -4.5500 C   0  0  0  0  0  0  0  0  0  0  0  0
   -1.4710   10.6010   -4.9880 N   0  0  0  0  0  0  0  0  0  0  0  0
   -0.7620   10.3440   -6.2470 C   0  0  0  0  0  0  0  0  0  0  0  0
   -0.5470    8.8410   -6.4790 C   0  0  0  0  0  0  0  0  0  0  0  0
   -1.5870   10.9420   -7.4030 C   0  0  0  0  0  0  0  0  0  0  0  0
    0.1060    8.5560   -7.8300 C   0  0  0  0  0  0  0  0  0  0  0  0
   -0.9850   10.6420   -8.7770 C   0  0  0  0  0  0  0  0  0  0  0  0
   -0.7250    9.1490   -8.9690 C   0  0  0  0  0  0  0  0  0  0  0  0
  1  2  2  0
  2  3  1  0
  2  4  1  0
  3  5  1  1
  3  6  1  0
  4  7  1  0
  6  7  1  0
  7  8  2  0
  5  9  1  0
  9 10  1  0
 11 10  1  0
 11 12  1  0
 11 13  1  0
 11 14  1  0
 12 15  1  0
 15 16  1  0
 16 17  1  0
 17 18  1  0
 17 19  1  0
 18 20  1  0
 19 21  1  0
 20 22  1  0
 21 22  1  0
M  END
