diamond-x0438_0_A-mac-x0137
     RDKit          3D

 26 29  0  0  0  0  0  0  0  0999 V2000
   -8.0880   15.4800    3.8000 C   0  0  0  0  0  0  0  0  0  0  0  0
   -9.3060   15.2810    2.5100 S   0  0  0  0  0  0  0  0  0  0  0  0
  -10.5380   14.8120    3.1280 O   0  0  0  0  0  0  0  0  0  0  0  0
   -8.7030   13.9630    1.4600 C   0  0  0  0  0  0  0  0  0  0  0  0
   -9.3620   16.4870    1.7120 O   0  0  0  0  0  0  0  0  0  0  0  0
   -7.3630   14.2200    0.8620 C   0  0  0  0  0  0  0  0  0  0  0  0
   -7.1600   14.8860   -0.3350 N   0  0  0  0  0  0  0  0  0  0  0  0
   -6.2090   13.8410    1.3750 N   0  0  0  0  0  0  0  0  0  0  0  0
   -5.2460   14.2570    0.5010 C   0  0  0  0  0  0  0  0  0  0  0  0
   -5.8110   14.9050   -0.5560 C   0  0  0  0  0  0  0  0  0  0  0  0
   -5.1660   15.4710   -1.6470 C   0  0  0  0  0  0  0  0  0  0  0  0
   -3.7730   14.0550    0.6220 C   0  0  0  0  0  0  0  0  0  0  0  0
   -3.8130   15.4260   -1.6380 C   0  0  0  0  0  0  0  0  0  0  0  0
   -2.9150   14.7820   -0.5120 C   0  0  1  0  0  0  0  0  0  0  0  0
   -2.2240   15.8810    0.2520 C   0  0  0  0  0  0  0  0  0  0  0  0
   -1.6970   13.9040   -1.0940 C   0  0  1  0  0  0  0  0  0  0  0  0
   -0.9130   14.3560   -2.2800 N   0  0  0  0  0  0  0  0  0  0  0  0
   -0.6820   13.5460   -0.0890 N   0  0  0  0  0  0  0  0  0  0  0  0
   -1.3430   15.3760    1.2890 N   0  0  0  0  0  0  0  0  0  0  0  0
   -1.6050   14.6370   -3.5490 C   0  0  0  0  0  0  0  0  0  0  0  0
    0.3170   13.5740   -2.5060 C   0  0  0  0  0  0  0  0  0  0  0  0
   -0.2500   14.5660    0.8320 C   0  0  0  0  0  0  0  0  0  0  0  0
   -1.8380   13.3700   -4.4030 C   0  0  2  0  0  0  0  0  0  0  0  0
    0.0670   12.2320   -3.2100 C   0  0  0  0  0  0  0  0  0  0  0  0
   -2.8540   12.6520   -3.8570 F   0  0  0  0  0  0  0  0  0  0  0  0
   -0.6250   12.4450   -4.5500 C   0  0  0  0  0  0  0  0  0  0  0  0
  2  1  1  0
  2  3  2  0
  2  4  1  0
  2  5  2  0
  4  6  1  0
  6  7  1  0
  6  8  2  0
  8  9  1  0
  7 10  1  0
  9 10  2  0
 10 11  1  0
  9 12  1  0
 11 13  2  0
 14 12  1  1
 14 13  1  0
 14 15  1  0
 14 16  1  0
 16 17  1  6
 16 18  1  0
 15 19  1  0
 17 20  1  0
 17 21  1  0
 18 22  1  0
 19 22  1  0
 20 23  1  0
 21 24  1  0
 23 25  1  1
 23 26  1  0
 24 26  1  0
M  END
