diamond-x0724_0_A-mac-x0357
     RDKit          3D

 26 28  0  0  0  0  0  0  0  0999 V2000
   -8.2600   13.7110    4.4140 N   0  0  0  0  0  0  0  0  0  0  0  0
   -8.6420   13.9420    5.7980 C   0  0  0  0  0  0  0  0  0  0  0  0
   -8.5770   14.8710    3.5940 C   0  0  0  0  0  0  0  0  0  0  0  0
   -7.8230   14.7770    2.3170 C   0  0  0  0  0  0  0  0  0  0  0  0
   -6.4640   14.8670    2.1290 C   0  0  0  0  0  0  0  0  0  0  0  0
   -8.3220   14.5850    1.0120 C   0  0  0  0  0  0  0  0  0  0  0  0
   -7.3620   14.5640    0.0820 N   0  0  0  0  0  0  0  0  0  0  0  0
   -6.2110   14.7460    0.7800 N   0  0  0  0  0  0  0  0  0  0  0  0
   -4.9310   14.8150    0.1700 C   0  0  0  0  0  0  0  0  0  0  0  0
   -3.8330   15.0230    1.0120 C   0  0  0  0  0  0  0  0  0  0  0  0
   -4.7290   14.6940   -1.2140 C   0  0  0  0  0  0  0  0  0  0  0  0
   -2.5470   15.1120    0.5010 C   0  0  0  0  0  0  0  0  0  0  0  0
   -3.4230   14.7860   -1.7250 C   0  0  0  0  0  0  0  0  0  0  0  0
   -2.3220   14.9960   -0.8660 C   0  0  0  0  0  0  0  0  0  0  0  0
   -0.8990   15.0960   -1.3730 C   0  0  0  0  0  0  0  0  0  0  0  0
   -0.8410   14.3830   -2.6340 N   0  0  0  0  0  0  0  0  0  0  0  0
   -0.1020   13.3610   -2.8210 C   0  0  0  0  0  0  0  0  0  0  0  0
    0.7090   12.8890   -1.8500 O   0  0  0  0  0  0  0  0  0  0  0  0
   -0.0590   12.6010   -4.0620 C   0  0  0  0  0  0  0  0  0  0  0  0
    1.0510   12.5750   -4.9100 C   0  0  0  0  0  0  0  0  0  0  0  0
   -1.2360   11.9000   -4.3600 C   0  0  0  0  0  0  0  0  0  0  0  0
    2.3180   13.3160   -4.5830 C   0  0  0  0  0  0  0  0  0  0  0  0
   -1.3310   11.1560   -5.5250 C   0  0  0  0  0  0  0  0  0  0  0  0
    0.9130   11.8210   -6.0780 C   0  0  0  0  0  0  0  0  0  0  0  0
    1.8970   11.7130   -6.9880 O   0  0  0  0  0  0  0  0  0  0  0  0
   -0.2490   11.1210   -6.3900 C   0  0  0  0  0  0  0  0  0  0  0  0
  1  2  1  0
  1  3  1  0
  3  4  1  0
  4  5  2  0
  4  6  1  0
  6  7  2  0
  5  8  1  0
  7  8  1  0
  8  9  1  0
  9 10  2  0
  9 11  1  0
 10 12  1  0
 11 13  2  0
 12 14  2  0
 13 14  1  0
 14 15  1  0
 15 16  1  0
 16 17  2  3
 17 18  1  0
 17 19  1  0
 19 20  2  0
 19 21  1  0
 20 22  1  0
 21 23  2  0
 20 24  1  0
 24 25  1  0
 23 26  1  0
 24 26  2  0
M  END
