diamond-x0926_0_A-mac-x0361
     RDKit          3D

 10 10  0  0  0  0  0  0  0  0999 V2000
   -6.5310   14.7620    0.2320 C   0  0  0  0  0  0  0  0  0  0  0  0
   -6.6810   14.6310    1.5950 N   0  0  0  0  0  0  0  0  0  0  0  0
   -7.3980   14.3220   -0.5140 O   0  0  0  0  0  0  0  0  0  0  0  0
   -5.2700   15.4970   -0.2560 C   0  0  1  0  0  0  0  0  0  0  0  0
   -4.3280   15.7380    0.9510 C   0  0  0  0  0  0  0  0  0  0  0  0
   -4.6470   14.8850   -1.4740 N   0  0  0  0  0  0  0  0  0  0  0  0
   -3.2680   15.1290   -1.5050 N   0  0  0  0  0  0  0  0  0  0  0  0
   -3.0130   15.0540    0.8450 C   0  0  0  0  0  0  0  0  0  0  0  0
   -2.6530   14.9970   -2.7420 O   0  0  0  0  0  0  0  0  0  0  0  0
   -2.5570   14.7950   -0.3770 C   0  0  0  0  0  0  0  0  0  0  0  0
  1  2  1  0
  1  3  2  0
  4  1  1  1
  4  5  1  0
  4  6  1  0
  6  7  1  0
  5  8  1  0
  7  9  1  0
  7 10  1  0
  8 10  2  0
M  END
