diamond-x1015_0_A-mac-x0375
     RDKit          3D

 18 19  0  0  0  0  0  0  0  0999 V2000
   -1.8460   14.6200   -4.4020 C   0  0  0  0  0  0  0  0  0  0  0  0
   -0.5510   13.9190   -4.0450 C   0  0  2  0  0  0  0  0  0  0  0  0
   -0.7010   12.4390   -4.0030 N   0  0  0  0  0  0  0  0  0  0  0  0
   -0.2130   14.2090   -2.5890 C   0  0  0  0  0  0  0  0  0  0  0  0
    0.2920   15.2100   -2.1030 O   0  0  0  0  0  0  0  0  0  0  0  0
   -0.3200   11.9570   -2.6980 C   0  0  2  0  0  0  0  0  0  0  0  0
   -0.5980   13.0880   -1.9030 N   0  0  0  0  0  0  0  0  0  0  0  0
   -0.8660   11.5830   -5.0750 C   0  0  0  0  0  0  0  0  0  0  0  0
    1.0690   11.8500   -2.5200 N   0  0  0  0  0  0  0  0  0  0  0  0
   -0.2350   11.7840   -6.3210 C   0  0  0  0  0  0  0  0  0  0  0  0
   -1.6860   10.4490   -4.9710 C   0  0  0  0  0  0  0  0  0  0  0  0
    1.8410   12.3560   -3.4050 C   0  0  0  0  0  0  0  0  0  0  0  0
   -0.4200   10.9090   -7.3960 C   0  0  0  0  0  0  0  0  0  0  0  0
   -1.8760    9.5660   -6.0350 C   0  0  0  0  0  0  0  0  0  0  0  0
    3.1270   12.2680   -3.1240 O   0  0  0  0  0  0  0  0  0  0  0  0
    1.6080   13.0480   -4.7070 C   0  0  0  0  0  0  0  0  0  0  0  0
   -1.2450    9.8000   -7.2470 C   0  0  0  0  0  0  0  0  0  0  0  0
   -1.4920    8.7200   -8.5540 Cl  0  0  0  0  0  0  0  0  0  0  0  0
  2  1  1  1
  2  3  1  0
  2  4  1  0
  4  5  2  0
  3  6  1  0
  4  7  1  0
  6  7  1  0
  3  8  1  0
  6  9  1  6
  8 10  2  0
  8 11  1  0
  9 12  2  3
 10 13  1  0
 11 14  2  0
 12 15  1  0
 12 16  1  0
 13 17  2  0
 14 17  1  0
 17 18  1  0
M  END
