diamond-x0805_0_A-diamond-x0104_0_A
     RDKit          3D

 34 37  0  0  0  0  0  0  0  0999 V2000
   -3.3500   15.4490    0.7140 C   0  0  0  0  0  0  0  0  0  0  0  0
   -3.7760   15.6980   -0.6240 O   0  0  0  0  0  0  0  0  0  0  0  0
   -3.1530   15.0760   -1.6890 C   0  0  0  0  0  0  0  0  0  0  0  0
   -3.9520   14.6290   -2.7450 C   0  0  0  0  0  0  0  0  0  0  0  0
   -1.8020   14.8720   -1.8100 C   0  0  0  0  0  0  0  0  0  0  0  0
   -5.3840   14.8260   -2.7300 C   0  0  0  0  0  0  0  0  0  0  0  0
   -3.4370   13.9850   -3.8520 C   0  0  0  0  0  0  0  0  0  0  0  0
   -1.2840   14.2550   -2.9400 C   0  0  0  0  0  0  0  0  0  0  0  0
   -5.9160   13.7120   -2.1340 O   0  0  0  0  0  0  0  0  0  0  0  0
   -2.0960   13.7960   -3.9570 C   0  0  0  0  0  0  0  0  0  0  0  0
    0.1730   14.1120   -3.0710 C   0  0  1  0  0  0  0  0  0  0  0  0
    0.5980   12.8130   -3.7540 C   0  0  2  0  0  0  0  0  0  0  0  0
    0.5960   15.4010   -3.7480 C   0  0  0  0  0  0  0  0  0  0  0  0
   -6.0440   13.9900   -0.8360 C   0  0  0  0  0  0  0  0  0  0  0  0
    0.4730   11.8570   -2.6150 C   0  0  0  0  0  0  0  0  0  0  0  0
    2.0390   12.8610   -4.2770 C   0  0  0  0  0  0  0  0  0  0  0  0
    1.5610   15.0870   -4.8220 C   0  0  0  0  0  0  0  0  0  0  0  0
   -5.0200   13.8890    0.0310 N   0  0  0  0  0  0  0  0  0  0  0  0
   -7.3090   14.3780   -0.5330 C   0  0  0  0  0  0  0  0  0  0  0  0
    0.0490   10.6270   -2.9450 O   0  0  0  0  0  0  0  0  0  0  0  0
    0.6950   12.1700   -1.4560 O   0  0  0  0  0  0  0  0  0  0  0  0
    2.5370   14.1940   -4.2970 O   0  0  0  0  0  0  0  0  0  0  0  0
   -5.3240   14.2050    1.3060 C   0  0  0  0  0  0  0  0  0  0  0  0
   -7.5850   14.6900    0.7630 C   0  0  0  0  0  0  0  0  0  0  0  0
   -6.5880   14.6070    1.7120 C   0  0  0  0  0  0  0  0  0  0  0  0
   -6.8370   14.9200    3.0340 N   0  0  0  0  0  0  0  0  0  0  0  0
   -8.0790   15.2750    3.4840 C   0  0  0  0  0  0  0  0  0  0  0  0
   -8.0960   15.1220    4.8400 N   0  0  0  0  0  0  0  0  0  0  0  0
   -8.9990   15.6520    2.7680 O   0  0  0  0  0  0  0  0  0  0  0  0
   -9.2540   15.0700    5.5780 C   0  0  0  0  0  0  0  0  0  0  0  0
   -9.3610   15.1610    6.9440 C   0  0  0  0  0  0  0  0  0  0  0  0
  -10.7730   14.8790    4.8300 S   0  0  0  0  0  0  0  0  0  0  0  0
  -11.5900   14.9160    6.3290 C   0  0  0  0  0  0  0  0  0  0  0  0
  -10.7150   15.0720    7.3830 C   0  0  0  0  0  0  0  0  0  0  0  0
  1  2  1  0
  2  3  1  0
  3  4  2  0
  3  5  1  0
  4  6  1  0
  4  7  1  0
  5  8  2  0
  6  9  1  0
  7 10  2  0
  8 10  1  0
 11  8  1  6
 11 12  1  0
 11 13  1  0
  9 14  1  0
 12 15  1  1
 12 16  1  0
 13 17  1  0
 14 18  2  0
 14 19  1  0
 15 20  1  0
 15 21  2  0
 16 22  1  0
 17 22  1  0
 18 23  1  0
 19 24  2  0
 23 25  2  0
 24 25  1  0
 25 26  1  0
 26 27  1  0
 27 28  1  0
 27 29  2  0
 28 30  1  0
 30 31  2  0
 30 32  1  0
 32 33  1  0
 31 34  1  0
 33 34  2  0
M  END
