diamond-x0689_0_A-diamond-x0438_0_A
     RDKit          3D

 22 24  0  0  0  0  0  0  0  0999 V2000
   -3.0580   14.2490    2.0170 N   0  0  0  0  0  0  0  0  0  0  0  0
   -4.0540   15.2560    1.8260 C   0  0  0  0  0  0  0  0  0  0  0  0
   -4.5320   15.1840    0.4600 C   0  0  0  0  0  0  0  0  0  0  0  0
   -2.0360   14.3550    1.1170 C   0  0  0  0  0  0  0  0  0  0  0  0
   -2.1450   14.0020   -0.1700 N   0  0  0  0  0  0  0  0  0  0  0  0
   -0.9570   14.8460    1.6630 N   0  0  0  0  0  0  0  0  0  0  0  0
   -1.0580   14.1800   -0.9350 C   0  0  0  0  0  0  0  0  0  0  0  0
    0.0960   15.0110    0.8680 C   0  0  0  0  0  0  0  0  0  0  0  0
   -5.8290   14.8600    0.3070 C   0  0  0  0  0  0  0  0  0  0  0  0
   -3.7500   15.4270   -0.6690 C   0  0  0  0  0  0  0  0  0  0  0  0
    0.1140   14.6920   -0.4570 C   0  0  0  0  0  0  0  0  0  0  0  0
   -6.7170   14.5810    1.2950 N   0  0  0  0  0  0  0  0  0  0  0  0
   -6.3770   14.7870   -0.9370 C   0  0  0  0  0  0  0  0  0  0  0  0
   -4.2980   15.3550   -1.9380 C   0  0  0  0  0  0  0  0  0  0  0  0
   -7.6830   14.4460   -0.6770 N   0  0  0  0  0  0  0  0  0  0  0  0
   -7.8290   14.3330    0.6930 C   0  0  0  0  0  0  0  0  0  0  0  0
   -5.6460   15.0330   -2.1060 C   0  0  0  0  0  0  0  0  0  0  0  0
   -9.0790   13.9760    1.3870 C   0  0  0  0  0  0  0  0  0  0  0  0
   -9.5180   15.2870    2.5240 S   0  0  0  0  0  0  0  0  0  0  0  0
   -8.2020   15.4030    3.7290 C   0  0  0  0  0  0  0  0  0  0  0  0
  -10.7240   14.8630    3.2140 O   0  0  0  0  0  0  0  0  0  0  0  0
   -9.5420   16.5210    1.7680 O   0  0  0  0  0  0  0  0  0  0  0  0
  1  2  1  0
  2  3  1  0
  1  4  1  0
  4  5  2  0
  4  6  1  0
  5  7  1  0
  6  8  2  0
  3  9  1  0
  3 10  2  0
  7 11  2  0
  8 11  1  0
  9 12  1  0
  9 13  2  0
 10 14  1  0
 13 15  1  0
 12 16  2  0
 15 16  1  0
 13 17  1  0
 14 17  2  0
 16 18  1  0
 19 18  1  0
 19 20  1  0
 19 21  2  0
 19 22  2  0
M  END
