diamond-x0962_1_A-diamond-x0471_0_A
     RDKit          3D

 19 20  0  0  0  0  0  0  0  0999 V2000
   -4.4780   15.3430   -2.9860 N   0  0  0  0  0  0  0  0  0  0  0  0
   -5.1130   15.3530   -2.0220 C   0  0  0  0  0  0  0  0  0  0  0  0
   -5.7530   15.2950   -0.7250 C   0  0  1  0  0  0  0  0  0  0  0  0
   -7.2390   14.9580   -0.5610 C   0  0  0  0  0  0  0  0  0  0  0  0
   -5.0790   14.1100   -0.1910 C   0  0  2  0  0  0  0  0  0  0  0  0
   -5.0340   14.3760    1.2190 N   0  0  0  0  0  0  0  0  0  0  0  0
   -7.5360   14.2810    0.7450 N   0  0  0  0  0  0  0  0  0  0  0  0
   -3.7380   14.0790   -0.8490 C   0  0  0  0  0  0  0  0  0  0  0  0
   -8.8150   14.6240    1.3640 C   0  0  0  0  0  0  0  0  0  0  0  0
   -6.4150   14.3700    1.7240 C   0  0  0  0  0  0  0  0  0  0  0  0
   -2.7390   14.7810   -0.3500 C   0  0  0  0  0  0  0  0  0  0  0  0
   -4.0890   15.3240    1.5810 C   0  0  0  0  0  0  0  0  0  0  0  0
   -8.7120   14.3040    2.7650 N   0  0  0  0  0  0  0  0  0  0  0  0
   -2.9780   15.5480    0.8480 C   0  0  0  0  0  0  0  0  0  0  0  0
   -9.1660   15.2280    3.6770 C   0  0  0  0  0  0  0  0  0  0  0  0
   -9.5370   16.3410    3.3250 O   0  0  0  0  0  0  0  0  0  0  0  0
   -9.2310   14.8190    5.1490 C   0  0  0  0  0  0  0  0  0  0  0  0
   -9.5400   13.3410    5.3520 C   0  0  0  0  0  0  0  0  0  0  0  0
   -7.9910   15.2690    5.9100 C   0  0  0  0  0  0  0  0  0  0  0  0
  1  2  3  0
  3  2  1  6
  3  4  1  0
  3  5  1  0
  5  6  1  0
  4  7  1  0
  5  8  1  6
  7  9  1  0
  6 10  1  0
  7 10  1  0
  8 11  2  0
  6 12  1  0
  9 13  1  0
 11 14  1  0
 12 14  2  0
 13 15  1  0
 15 16  2  0
 15 17  1  0
 17 18  1  0
 17 19  1  0
M  END
