diamond-x0895_0_A-mac-x0255
     RDKit          3D

 23 25  0  0  0  0  0  0  0  0999 V2000
   -1.6680   14.5400    1.9630 O   0  0  0  0  0  0  0  0  0  0  0  0
   -2.5310   14.9780    1.2100 C   0  0  0  0  0  0  0  0  0  0  0  0
   -3.8330   15.6570    1.5920 C   0  0  0  0  0  0  0  0  0  0  0  0
   -2.5110   14.9570   -0.1570 N   0  0  0  0  0  0  0  0  0  0  0  0
   -1.3090   15.1200   -0.9500 C   0  0  0  0  0  0  0  0  0  0  0  0
   -4.6100   15.2190    0.4820 N   0  0  0  0  0  0  0  0  0  0  0  0
   -3.7890   15.1300   -0.6130 C   0  0  0  0  0  0  0  0  0  0  0  0
   -4.1760   15.1980   -1.7640 O   0  0  0  0  0  0  0  0  0  0  0  0
   -0.2640   14.0320   -0.6650 C   0  0  0  0  0  0  0  0  0  0  0  0
    1.0040   14.1500   -1.5030 C   0  0  0  0  0  0  0  0  0  0  0  0
    1.4600   12.8330   -1.8330 O   0  0  0  0  0  0  0  0  0  0  0  0
    0.8560   12.1870   -2.8670 C   0  0  0  0  0  0  0  0  0  0  0  0
    0.0700   11.2570   -2.7370 O   0  0  0  0  0  0  0  0  0  0  0  0
    1.3110   12.7490   -4.1950 C   0  0  0  0  0  0  0  0  0  0  0  0
    0.6300   14.0440   -4.5190 C   0  0  0  0  0  0  0  0  0  0  0  0
    1.2060   15.2840   -4.6900 C   0  0  0  0  0  0  0  0  0  0  0  0
   -1.0610   14.1120   -4.7320 S   0  0  0  0  0  0  0  0  0  0  0  0
    0.2570   16.3070   -5.0140 C   0  0  0  0  0  0  0  0  0  0  0  0
   -1.0400   15.8010   -5.0710 C   0  0  0  0  0  0  0  0  0  0  0  0
    0.4520   17.6840   -5.2740 C   0  0  0  0  0  0  0  0  0  0  0  0
   -2.1450   16.6250   -5.3780 C   0  0  0  0  0  0  0  0  0  0  0  0
   -0.6380   18.4960   -5.5820 C   0  0  0  0  0  0  0  0  0  0  0  0
   -1.9110   17.9800   -5.6350 C   0  0  0  0  0  0  0  0  0  0  0  0
  1  2  2  0
  2  3  1  0
  2  4  1  0
  4  5  1  0
  3  6  1  0
  4  7  1  0
  6  7  1  0
  7  8  2  0
  5  9  1  0
  9 10  1  0
 10 11  1  0
 11 12  1  0
 12 13  2  0
 12 14  1  0
 14 15  1  0
 15 16  2  0
 15 17  1  0
 16 18  1  0
 17 19  1  0
 18 19  2  0
 18 20  1  0
 19 21  1  0
 20 22  2  0
 21 23  2  0
 22 23  1  0
M  END
