diamond-x0626_0_A-diamond-x0681_0_A
     RDKit          3D

 23 25  0  0  0  0  0  0  0  0999 V2000
   -4.9000   15.4160    1.9440 N   0  0  0  0  0  0  0  0  0  0  0  0
   -6.0920   14.6440    1.5430 C   0  0  2  0  0  0  0  0  0  0  0  0
   -6.4570   15.1550    0.2500 O   0  0  0  0  0  0  0  0  0  0  0  0
   -3.7250   15.2220    1.2910 C   0  0  0  0  0  0  0  0  0  0  0  0
   -7.3280   14.8090    2.4720 C   0  0  0  0  0  0  0  0  0  0  0  0
   -2.5600   14.8650    1.8410 N   0  0  0  0  0  0  0  0  0  0  0  0
   -3.6680   15.4100   -0.4200 S   0  0  0  0  0  0  0  0  0  0  0  0
   -5.7000   13.1700    1.3810 C   0  0  1  0  0  0  0  0  0  0  0  0
   -8.6590   15.1690    1.8220 C   0  0  0  0  0  0  0  0  0  0  0  0
   -2.0080   14.9520   -0.4120 C   0  0  0  0  0  0  0  0  0  0  0  0
   -1.5820   14.7100    0.8770 C   0  0  0  0  0  0  0  0  0  0  0  0
   -6.1730   12.5250    0.1550 N   0  0  0  0  0  0  0  0  0  0  0  0
   -4.2030   13.0530    1.4710 C   0  0  0  0  0  0  0  0  0  0  0  0
   -0.2240   14.3090    1.2900 C   0  0  0  0  0  0  0  0  0  0  0  0
   -5.4270   12.3040   -0.9800 C   0  0  0  0  0  0  0  0  0  0  0  0
   -3.4480   13.3250    0.1670 C   0  0  0  0  0  0  0  0  0  0  0  0
   -7.4200   12.0350   -0.0600 C   0  0  0  0  0  0  0  0  0  0  0  0
   -3.9970   12.7030   -1.1090 C   0  0  2  0  0  0  0  0  0  0  0  0
   -6.1510   11.7010   -1.8950 N   0  0  0  0  0  0  0  0  0  0  0  0
   -7.3850   11.5300   -1.3360 C   0  0  0  0  0  0  0  0  0  0  0  0
   -3.7450   13.6650   -2.2890 C   0  0  0  0  0  0  0  0  0  0  0  0
   -4.7570   14.4930   -2.7120 N   0  0  0  0  0  0  0  0  0  0  0  0
   -2.6540   13.7200   -2.8590 O   0  0  0  0  0  0  0  0  0  0  0  0
  1  2  1  0
  2  3  1  6
  1  4  1  0
  2  5  1  0
  4  6  2  0
  4  7  1  0
  2  8  1  0
  5  9  1  0
  7 10  1  0
  6 11  1  0
 10 11  2  0
  8 12  1  0
  8 13  1  6
 11 14  1  0
 12 15  1  0
 13 16  1  0
 12 17  1  0
 15 18  1  0
 16 18  1  0
 15 19  2  0
 17 20  2  0
 19 20  1  0
 18 21  1  6
 21 22  1  0
 21 23  2  0
M  END
