diamond-x0900_1_A-mac-x0522
     RDKit          3D

 22 24  0  0  0  0  0  0  0  0999 V2000
   -1.6820   10.0290   -9.4950 O   0  0  0  0  0  0  0  0  0  0  0  0
   -1.3800    9.5720   -8.4040 C   0  0  0  0  0  0  0  0  0  0  0  0
   -0.1060    9.3780   -7.9030 N   0  0  0  0  0  0  0  0  0  0  0  0
   -2.3500    9.1160   -7.3550 C   0  0  0  0  0  0  0  0  0  0  0  0
    1.0420    9.6080   -8.7500 C   0  0  0  0  0  0  0  0  0  0  0  0
   -1.5390    8.0670   -6.6050 C   0  0  0  0  0  0  0  0  0  0  0  0
   -0.1210    8.5910   -6.6870 C   0  0  0  0  0  0  0  0  0  0  0  0
    0.6190    9.5400  -10.2270 C   0  0  0  0  0  0  0  0  0  0  0  0
    1.6590    9.6820  -11.2280 N   0  0  0  0  0  0  0  0  0  0  0  0
    2.6930    8.9450  -11.4600 C   0  0  0  0  0  0  0  0  0  0  0  0
    3.1180    7.7900  -10.7990 N   0  0  0  0  0  0  0  0  0  0  0  0
    3.4170    9.5450  -12.6340 C   0  0  0  0  0  0  0  0  0  0  0  0
    2.5950    7.0940   -9.7390 C   0  0  0  0  0  0  0  0  0  0  0  0
    4.5350    8.9580  -13.2320 C   0  0  0  0  0  0  0  0  0  0  0  0
    2.9170   10.7610  -13.1330 C   0  0  0  0  0  0  0  0  0  0  0  0
    3.3490    6.3360   -8.9610 N   0  0  0  0  0  0  0  0  0  0  0  0
    0.9380    7.0970   -9.2640 S   0  0  0  0  0  0  0  0  0  0  0  0
    5.1400    9.5890  -14.3230 C   0  0  0  0  0  0  0  0  0  0  0  0
    3.5220   11.3840  -14.2170 C   0  0  0  0  0  0  0  0  0  0  0  0
    1.2520    6.0510   -7.9650 C   0  0  0  0  0  0  0  0  0  0  0  0
    2.5790    5.7520   -7.9560 C   0  0  0  0  0  0  0  0  0  0  0  0
    4.6350   10.7970  -14.8140 C   0  0  0  0  0  0  0  0  0  0  0  0
  1  2  2  0
  2  3  1  0
  2  4  1  0
  3  5  1  0
  4  6  1  0
  3  7  1  0
  6  7  1  0
  5  8  1  0
  8  9  1  0
  9 10  2  3
 10 11  1  0
 10 12  1  0
 11 13  1  0
 12 14  2  0
 12 15  1  0
 13 16  2  0
 13 17  1  0
 14 18  1  0
 15 19  2  0
 17 20  1  0
 16 21  1  0
 20 21  2  0
 18 22  2  0
 19 22  1  0
M  END
