diamond-x0849_0_A-mac-x0415
     RDKit          3D

 26 29  0  0  0  0  0  0  0  0999 V2000
   -3.8660   15.1740   -2.7800 Br  0  0  0  0  0  0  0  0  0  0  0  0
   -3.6670   15.1910   -0.8940 C   0  0  0  0  0  0  0  0  0  0  0  0
   -2.4740   14.7910   -0.2950 C   0  0  0  0  0  0  0  0  0  0  0  0
   -4.7310   15.5970   -0.1230 C   0  0  0  0  0  0  0  0  0  0  0  0
   -2.4010   14.8250    1.1010 C   0  0  0  0  0  0  0  0  0  0  0  0
   -4.5390   15.5790    1.2370 C   0  0  0  0  0  0  0  0  0  0  0  0
   -1.3580   14.3550   -1.0080 C   0  0  0  0  0  0  0  0  0  0  0  0
   -3.4100   15.2080    1.8290 N   0  0  0  0  0  0  0  0  0  0  0  0
   -1.3220   14.4690    1.7530 N   0  0  0  0  0  0  0  0  0  0  0  0
   -0.2350   13.9640   -0.3370 C   0  0  0  0  0  0  0  0  0  0  0  0
    0.9430   13.4600   -1.0890 C   0  0  0  0  0  0  0  0  0  0  0  0
   -0.2740   14.0450    1.0510 C   0  0  0  0  0  0  0  0  0  0  0  0
    0.9620   13.6060   -2.4960 N   0  0  0  0  0  0  0  0  0  0  0  0
    0.8460   12.6350   -3.3180 C   0  0  0  0  0  0  0  0  0  0  0  0
    0.6630   11.3730   -2.8760 O   0  0  0  0  0  0  0  0  0  0  0  0
    0.8930   12.8580   -4.7830 C   0  0  0  0  0  0  0  0  0  0  0  0
    0.6740   14.3090   -4.7250 C   0  0  0  0  0  0  0  0  0  0  0  0
    1.6940   15.3350   -4.5100 C   0  0  0  0  0  0  0  0  0  0  0  0
   -0.4000   15.0610   -4.8210 C   0  0  0  0  0  0  0  0  0  0  0  0
    1.3280   16.5810   -4.4740 N   0  0  0  0  0  0  0  0  0  0  0  0
   -0.1040   16.4880   -4.5840 C   0  0  1  0  0  0  0  0  0  0  0  0
   -1.7530   14.7020   -5.0700 C   0  0  0  0  0  0  0  0  0  0  0  0
   -0.8930   17.4320   -5.4150 C   0  0  0  0  0  0  0  0  0  0  0  0
   -2.5680   15.6380   -5.5880 C   0  0  0  0  0  0  0  0  0  0  0  0
   -4.3250   15.1820   -5.9850 Br  0  0  0  0  0  0  0  0  0  0  0  0
   -2.0900   17.0090   -5.8790 C   0  0  0  0  0  0  0  0  0  0  0  0
  1  2  1  0
  2  3  2  0
  2  4  1  0
  3  5  1  0
  4  6  2  0
  3  7  1  0
  5  8  2  0
  6  8  1  0
  5  9  1  0
  7 10  2  0
 10 11  1  0
  9 12  2  0
 10 12  1  0
 11 13  1  0
 13 14  2  3
 14 15  1  0
 14 16  1  0
 16 17  1  0
 17 18  1  0
 17 19  2  0
 18 20  2  0
 19 21  1  0
 20 21  1  0
 19 22  1  0
 21 23  1  6
 22 24  2  0
 24 25  1  0
 23 26  2  0
 24 26  1  0
M  END
