diamond-x0685_1_A-diamond-x0591_0_A
     RDKit          3D

 26 27  0  0  0  0  0  0  0  0999 V2000
   -1.5090   11.5160   -5.2160 N   0  0  0  0  0  0  0  0  0  0  0  0
   -0.8780   12.6970   -4.8560 C   0  0  0  0  0  0  0  0  0  0  0  0
    0.5780   12.8070   -5.0610 C   0  0  0  0  0  0  0  0  0  0  0  0
   -1.0160   10.7540   -6.3770 C   0  0  0  0  0  0  0  0  0  0  0  0
   -1.7680   13.9970   -4.0930 S   0  0  1  0  0  0  0  0  0  0  0  0
   -0.8490    9.2400   -6.1880 C   0  0  0  0  0  0  0  0  0  0  0  0
   -1.8820   11.0320   -7.5990 C   0  0  0  0  0  0  0  0  0  0  0  0
    1.1670   12.4000   -3.3900 S   0  0  0  0  0  0  0  0  0  0  0  0
   -1.1130   15.4780   -3.6900 N   0  0  0  0  0  0  0  0  0  0  0  0
   -3.1760   13.1910   -4.2860 O   0  0  0  0  0  0  0  0  0  0  0  0
   -0.1630    8.6440   -7.4270 C   0  0  0  0  0  0  0  0  0  0  0  0
   -1.1940   10.5020   -8.8480 C   0  0  0  0  0  0  0  0  0  0  0  0
   -3.3080   14.3750   -3.4320 C   0  0  0  0  0  0  0  0  0  0  0  0
    2.7580   12.3780   -3.3790 O   0  0  0  0  0  0  0  0  0  0  0  0
    0.5480   10.9880   -2.9380 O   0  0  0  0  0  0  0  0  0  0  0  0
    0.6490   13.4990   -2.3480 O   0  0  0  0  0  0  0  0  0  0  0  0
   -0.8960    9.0040   -8.7270 C   0  0  0  0  0  0  0  0  0  0  0  0
   -3.1520   14.1750   -2.0690 C   0  0  0  0  0  0  0  0  0  0  0  0
   -4.5350   14.7870   -3.9500 C   0  0  0  0  0  0  0  0  0  0  0  0
   -4.1680   14.3580   -1.1780 C   0  0  0  0  0  0  0  0  0  0  0  0
   -5.6020   14.9760   -3.0130 C   0  0  0  0  0  0  0  0  0  0  0  0
   -5.4010   14.7540   -1.6240 C   0  0  0  0  0  0  0  0  0  0  0  0
   -6.4740   14.9250   -0.6040 C   0  0  0  0  0  0  0  0  0  0  0  0
   -6.0440   14.7270    0.7000 N   0  0  0  0  0  0  0  0  0  0  0  0
   -7.6230   15.1990   -0.9140 O   0  0  0  0  0  0  0  0  0  0  0  0
   -6.9580   14.4640    1.7850 C   0  0  0  0  0  0  0  0  0  0  0  0
  1  2  1  0
  2  3  1  0
  1  4  1  0
  2  5  2  0
  4  6  1  0
  4  7  1  0
  3  8  1  0
  5  9  1  6
  5 10  2  0
  6 11  1  0
  7 12  1  0
  5 13  1  0
  8 14  1  0
  8 15  1  0
  8 16  1  0
 11 17  1  0
 12 17  1  0
 13 18  2  0
 13 19  1  0
 18 20  1  0
 19 21  2  0
 20 22  2  0
 21 22  1  0
 22 23  1  0
 23 24  1  0
 23 25  2  0
 24 26  1  0
M  END
