diamond-x0128_0_A-mac-x0412
     RDKit          3D

 20 22  0  0  0  0  0  0  0  0999 V2000
   -6.4640   14.9010    2.4850 N   0  0  0  0  0  0  0  0  0  0  0  0
   -7.6960   15.1630    3.0620 C   0  0  0  0  0  0  0  0  0  0  0  0
   -8.7390   15.2120    2.4180 O   0  0  0  0  0  0  0  0  0  0  0  0
   -6.2810   14.1810    1.2220 C   0  0  1  0  0  0  0  0  0  0  0  0
   -7.5570   15.3770    4.4290 N   0  0  0  0  0  0  0  0  0  0  0  0
   -7.1090   14.7410    0.0620 C   0  0  0  0  0  0  0  0  0  0  0  0
   -4.8120   14.0710    0.8050 C   0  0  0  0  0  0  0  0  0  0  0  0
   -8.2830   15.0770    0.1830 O   0  0  0  0  0  0  0  0  0  0  0  0
   -6.4420   14.8620   -1.2950 C   0  0  0  0  0  0  0  0  0  0  0  0
   -4.2880   15.2600    0.0320 C   0  0  2  0  0  0  0  0  0  0  0  0
   -8.4170   16.1390    5.2590 C   0  0  0  0  0  0  0  0  0  0  0  0
   -5.0610   15.4740   -1.2650 C   0  0  1  0  0  0  0  0  0  0  0  0
   -9.1270   17.2710    4.8620 C   0  0  0  0  0  0  0  0  0  0  0  0
   -8.5730   15.7340    6.5890 C   0  0  0  0  0  0  0  0  0  0  0  0
   -2.9020   14.9620   -0.4340 C   0  0  0  0  0  0  0  0  0  0  0  0
   -9.9470   17.9870    5.6750 N   0  0  0  0  0  0  0  0  0  0  0  0
   -9.4090   16.4560    7.4450 C   0  0  0  0  0  0  0  0  0  0  0  0
   -2.8290   14.8430   -1.7600 C   0  0  0  0  0  0  0  0  0  0  0  0
   -4.1500   15.0370   -2.4260 C   0  0  0  0  0  0  0  0  0  0  0  0
  -10.0670   17.5660    6.9450 C   0  0  0  0  0  0  0  0  0  0  0  0
  1  2  1  0
  2  3  2  0
  4  1  1  1
  2  5  1  0
  4  6  1  0
  4  7  1  0
  6  8  2  0
  6  9  1  0
 10  7  1  6
  5 11  1  0
 12  9  1  1
 10 12  1  0
 11 13  2  0
 11 14  1  0
 10 15  1  0
 13 16  1  0
 14 17  2  0
 15 18  2  0
 12 19  1  0
 18 19  1  0
 16 20  2  0
 17 20  1  0
M  END
