
     RDKit          3D

  7  7  0  0  0  0  0  0  0  0999 V2000
    4.6830   20.7400   17.4540 N   0  0  0  0  0  0  0  0  0  0  0  0
    5.3170   21.8260   17.1720 C   0  0  0  0  0  0  0  0  0  0  0  0
    7.2300   23.3150   17.7350 C   0  0  0  0  0  0  0  0  0  0  0  0
    6.3790   22.1380   17.9460 N   0  0  0  0  0  0  0  0  0  0  0  0
    7.1380   23.7700   16.2990 C   0  0  0  0  0  0  0  0  0  0  0  0
    4.9820   22.6460   16.1610 N   0  0  0  0  0  0  0  0  0  0  0  0
    5.6850   23.8980   15.8760 C   0  0  0  0  0  0  0  0  0  0  0  0
  1  2  1  0
  2  4  1  0
  2  6  1  0
  4  3  1  0
  6  7  1  0
  3  5  1  0
  5  7  1  0
M  END
