diamond-x0895_1_A-diamond-x0855_0_A
     RDKit          3D

 20 21  0  0  0  0  0  0  0  0999 V2000
   -1.6220   14.8040    1.7180 O   0  0  0  0  0  0  0  0  0  0  0  0
   -2.6320   14.8430    1.0280 C   0  0  0  0  0  0  0  0  0  0  0  0
   -2.6770   15.0450   -0.4900 C   0  0  1  0  0  0  0  0  0  0  0  0
   -3.9020   14.7130    1.4870 N   0  0  0  0  0  0  0  0  0  0  0  0
   -1.8640   13.9940   -1.2500 C   0  0  0  0  0  0  0  0  0  0  0  0
   -4.1050   14.9040   -0.7010 N   0  0  0  0  0  0  0  0  0  0  0  0
   -4.7960   14.8180    0.4830 C   0  0  0  0  0  0  0  0  0  0  0  0
   -6.0080   14.8300    0.5970 O   0  0  0  0  0  0  0  0  0  0  0  0
   -0.3670   13.9990   -0.8930 C   0  0  0  0  0  0  0  0  0  0  0  0
    0.5200   14.2470   -2.1160 C   0  0  0  0  0  0  0  0  0  0  0  0
    1.3600   13.0990   -2.3640 O   0  0  0  0  0  0  0  0  0  0  0  0
    0.8440   12.0890   -3.1260 C   0  0  0  0  0  0  0  0  0  0  0  0
    0.6060   10.9680   -2.6970 O   0  0  0  0  0  0  0  0  0  0  0  0
    0.6020   12.5430   -4.5440 C   0  0  0  0  0  0  0  0  0  0  0  0
   -0.4280   11.7000   -5.1100 N   0  0  0  0  0  0  0  0  0  0  0  0
   -0.2990   10.7700   -6.0990 C   0  0  0  0  0  0  0  0  0  0  0  0
   -1.6900   11.8000   -4.6300 N   0  0  0  0  0  0  0  0  0  0  0  0
   -1.5460   10.2310   -6.2540 C   0  0  0  0  0  0  0  0  0  0  0  0
   -2.3700   10.8950   -5.3360 C   0  0  0  0  0  0  0  0  0  0  0  0
   -2.0820    8.8920   -7.4270 Br  0  0  0  0  0  0  0  0  0  0  0  0
  1  2  2  0
  2  3  1  0
  2  4  1  0
  3  5  1  6
  3  6  1  0
  4  7  1  0
  6  7  1  0
  7  8  2  0
  5  9  1  0
  9 10  1  0
 10 11  1  0
 11 12  1  0
 12 13  2  0
 12 14  1  0
 14 15  1  0
 15 16  1  0
 15 17  1  0
 16 18  2  0
 17 19  2  0
 18 19  1  0
 18 20  1  0
M  END
