diamond-x0864_0_A-mac-x0588
     RDKit          3D

 29 32  0  0  0  0  0  0  0  0999 V2000
    1.4670   11.9470   -6.6550 O   0  0  0  0  0  0  0  0  0  0  0  0
    0.4130   11.4040   -6.3340 C   0  0  0  0  0  0  0  0  0  0  0  0
   -0.3800   11.7460   -5.2310 N   0  0  0  0  0  0  0  0  0  0  0  0
   -0.0770   10.2720   -7.1640 C   0  0  0  0  0  0  0  0  0  0  0  0
    0.0210   12.8020   -4.2720 C   0  0  2  0  0  0  0  0  0  0  0  0
   -1.5300   11.0410   -4.9140 C   0  0  0  0  0  0  0  0  0  0  0  0
   -1.2030    9.6230   -6.8270 C   0  0  0  0  0  0  0  0  0  0  0  0
    0.8710   12.2100   -3.1430 C   0  0  0  0  0  0  0  0  0  0  0  0
   -1.8700    8.1910   -7.8180 Br  0  0  0  0  0  0  0  0  0  0  0  0
   -1.1890   13.5550   -3.6700 C   0  0  0  0  0  0  0  0  0  0  0  0
   -1.9480   10.0200   -5.6610 C   0  0  0  0  0  0  0  0  0  0  0  0
    0.5070   10.9470   -2.8320 O   0  0  0  0  0  0  0  0  0  0  0  0
    1.7780   12.7390   -2.5290 O   0  0  0  0  0  0  0  0  0  0  0  0
   -0.8540   14.9830   -3.1490 C   0  0  2  0  0  0  0  0  0  0  0  0
   -1.8320   15.4670   -2.1240 N   0  0  0  0  0  0  0  0  0  0  0  0
   -0.6870   15.9680   -4.3570 C   0  0  1  0  0  0  0  0  0  0  0  0
   -3.2340   15.0930   -2.2950 C   0  0  0  0  0  0  0  0  0  0  0  0
   -1.4300   15.5130   -0.7390 C   0  0  1  0  0  0  0  0  0  0  0  0
   -1.4250   17.1920   -4.2020 O   0  0  0  0  0  0  0  0  0  0  0  0
    0.7420   16.4120   -4.6750 C   0  0  0  0  0  0  0  0  0  0  0  0
   -4.0930   15.4320   -1.1550 N   0  0  0  0  0  0  0  0  0  0  0  0
   -2.2020   14.5470    0.1440 C   0  0  2  0  0  0  0  0  0  0  0  0
   -0.0800   15.0420   -0.4740 N   0  0  0  0  0  0  0  0  0  0  0  0
    0.5640   17.7570   -5.3560 C   0  0  0  0  0  0  0  0  0  0  0  0
   -0.9230   18.0610   -5.2190 C   0  0  0  0  0  0  0  0  0  0  0  0
   -3.7250   14.7970    0.1000 C   0  0  1  0  0  0  0  0  0  0  0  0
   -1.4740   14.7100    1.3980 N   0  0  0  0  0  0  0  0  0  0  0  0
   -0.1020   14.6020    0.9140 C   0  0  0  0  0  0  0  0  0  0  0  0
   -4.3100   15.5290    1.2200 N   0  0  0  0  0  0  0  0  0  0  0  0
  1  2  2  0
  2  3  1  0
  2  4  1  0
  3  5  1  0
  3  6  1  0
  4  7  2  0
  5  8  1  0
  7  9  1  0
  5 10  1  1
  6 11  2  0
  7 11  1  0
  8 12  1  0
  8 13  2  0
 14 10  1  6
 14 15  1  0
 14 16  1  0
 15 17  1  0
 15 18  1  0
 16 19  1  0
 16 20  1  1
 17 21  1  0
 18 22  1  0
 18 23  1  6
 20 24  1  0
 19 25  1  0
 24 25  1  0
 21 26  1  0
 22 26  1  0
 22 27  1  1
 23 28  1  0
 27 28  1  0
 26 29  1  1
M  END
