diamond-x0969_0_A-mac-x0361
     RDKit          3D

 13 15  0  0  0  0  0  0  0  0999 V2000
   -6.7690   14.4590    1.6490 N   0  0  0  0  0  0  0  0  0  0  0  0
   -5.5050   13.8970    1.6350 C   0  0  0  0  0  0  0  0  0  0  0  0
   -5.1330   13.0730    2.3580 O   0  0  0  0  0  0  0  0  0  0  0  0
   -6.9560   14.8570    0.3790 C   0  0  0  0  0  0  0  0  0  0  0  0
   -7.8610   15.2560   -0.4460 N   0  0  0  0  0  0  0  0  0  0  0  0
   -5.7710   14.8470   -0.2470 N   0  0  0  0  0  0  0  0  0  0  0  0
   -4.7380   14.4150    0.4660 C   0  0  0  0  0  0  0  0  0  0  0  0
   -7.1540   15.5440   -1.6620 N   0  0  0  0  0  0  0  0  0  0  0  0
   -5.8690   15.2960   -1.4770 C   0  0  0  0  0  0  0  0  0  0  0  0
   -3.4970   14.5460   -0.0560 C   0  0  0  0  0  0  0  0  0  0  0  0
   -4.6090   15.3660   -2.1370 C   0  0  0  0  0  0  0  0  0  0  0  0
   -3.4760   15.0460   -1.4650 C   0  0  0  0  0  0  0  0  0  0  0  0
   -2.2610   15.1280   -2.1230 O   0  0  0  0  0  0  0  0  0  0  0  0
  1  2  1  0
  2  3  2  0
  1  4  1  0
  4  5  2  0
  4  6  1  0
  2  7  1  0
  6  7  1  0
  5  8  1  0
  6  9  1  0
  8  9  2  0
  7 10  2  0
  9 11  1  0
 10 12  1  0
 11 12  2  0
 12 13  1  0
M  END
