diamond-x0282_0_A-diamond-x0727_0_A
     RDKit          3D

 28 30  0  0  0  0  0  0  0  0999 V2000
   -7.6760   14.4010    1.1570 C   0  0  0  0  0  0  0  0  0  0  0  0
   -8.4740   14.6050    0.0030 O   0  0  0  0  0  0  0  0  0  0  0  0
   -6.1890   14.3030    0.8040 C   0  0  0  0  0  0  0  0  0  0  0  0
   -5.2610   14.9360    1.8220 C   0  0  0  0  0  0  0  0  0  0  0  0
   -5.7640   14.9020   -0.5360 C   0  0  0  0  0  0  0  0  0  0  0  0
   -3.9450   14.2130    1.7560 C   0  0  0  0  0  0  0  0  0  0  0  0
   -4.2390   15.0860   -0.5870 C   0  0  0  0  0  0  0  0  0  0  0  0
   -3.5250   14.2190    0.3700 N   0  0  0  0  0  0  0  0  0  0  0  0
   -2.1540   14.3600    0.2860 C   0  0  0  0  0  0  0  0  0  0  0  0
   -1.6350   14.2900   -0.9400 N   0  0  0  0  0  0  0  0  0  0  0  0
   -1.4150   14.5480    1.4000 N   0  0  0  0  0  0  0  0  0  0  0  0
   -0.3180   14.4190   -1.0830 C   0  0  0  0  0  0  0  0  0  0  0  0
   -0.1000   14.6800    1.1970 C   0  0  0  0  0  0  0  0  0  0  0  0
    0.2580   14.3050   -2.4600 C   0  0  0  0  0  0  0  0  0  0  0  0
    0.4920   14.6290   -0.0430 C   0  0  0  0  0  0  0  0  0  0  0  0
   -0.3560   13.1350   -3.0060 O   0  0  0  0  0  0  0  0  0  0  0  0
    0.4180   12.0910   -3.3550 C   0  0  0  0  0  0  0  0  0  0  0  0
    0.8980   12.3120   -4.7790 C   0  0  1  0  0  0  0  0  0  0  0  0
    0.6610   11.1140   -2.6490 O   0  0  0  0  0  0  0  0  0  0  0  0
    0.1550   11.3900   -5.6380 N   0  0  0  0  0  0  0  0  0  0  0  0
    0.6310   13.7500   -5.1920 C   0  0  0  0  0  0  0  0  0  0  0  0
    0.7220   11.0720   -6.8390 C   0  0  0  0  0  0  0  0  0  0  0  0
    1.6630   11.6950   -7.2440 O   0  0  0  0  0  0  0  0  0  0  0  0
    0.1100    9.8850   -7.5760 C   0  0  0  0  0  0  0  0  0  0  0  0
   -1.1950   10.2570   -8.2850 C   0  0  0  0  0  0  0  0  0  0  0  0
   -0.2240    8.7230   -6.6200 C   0  0  0  0  0  0  0  0  0  0  0  0
   -2.1680    9.1220   -7.9990 C   0  0  0  0  0  0  0  0  0  0  0  0
   -1.7320    8.5350   -6.6700 C   0  0  0  0  0  0  0  0  0  0  0  0
  1  2  1  0
  1  3  1  0
  3  4  1  0
  3  5  1  0
  4  6  1  0
  5  7  1  0
  6  8  1  0
  7  8  1  0
  8  9  1  0
  9 10  2  0
  9 11  1  0
 10 12  1  0
 11 13  2  0
 12 14  1  0
 12 15  2  0
 13 15  1  0
 14 16  1  0
 16 17  1  0
 17 18  1  0
 17 19  2  0
 18 20  1  0
 18 21  1  6
 20 22  1  0
 22 23  2  0
 22 24  1  0
 24 25  1  0
 24 26  1  0
 25 27  1  0
 26 28  1  0
 27 28  1  0
M  END
