diamond-x0766_0_A-mac-x0138
     RDKit          3D

 21 23  0  0  0  0  0  0  0  0999 V2000
    0.6020   12.3520   -2.8100 C   0  0  0  0  0  0  0  0  0  0  0  0
    0.3030   11.0360   -2.8940 O   0  0  0  0  0  0  0  0  0  0  0  0
    1.1670   12.8040   -1.8340 O   0  0  0  0  0  0  0  0  0  0  0  0
    0.1800   13.1700   -4.0080 C   0  0  2  0  0  0  0  0  0  0  0  0
    1.2930   13.3250   -5.0330 C   0  0  0  0  0  0  0  0  0  0  0  0
   -0.2840   14.6450   -3.8820 C   0  0  2  0  0  0  0  0  0  0  0  0
    1.8250   14.7180   -4.7220 C   0  0  0  0  0  0  0  0  0  0  0  0
    1.0760   15.2250   -3.5520 C   0  0  0  0  0  0  0  0  0  0  0  0
   -1.1230   15.2870   -2.7690 C   0  0  1  0  0  0  0  0  0  0  0  0
   -2.6000   15.4270   -3.1540 C   0  0  1  0  0  0  0  0  0  0  0  0
   -0.8000   14.8280   -1.3700 C   0  0  0  0  0  0  0  0  0  0  0  0
   -2.7450   15.2450   -4.6430 C   0  0  0  0  0  0  0  0  0  0  0  0
   -3.7280   14.3210   -2.3100 S   0  0  0  0  0  0  0  0  0  0  0  0
   -1.7910   15.0640   -0.3950 N   0  0  0  0  0  0  0  0  0  0  0  0
   -3.1440   14.5920   -0.6430 C   0  0  1  0  0  0  0  0  0  0  0  0
   -1.4760   14.5130    0.8750 C   0  0  1  0  0  0  0  0  0  0  0  0
   -0.1810   14.8710    1.3440 N   0  0  0  0  0  0  0  0  0  0  0  0
   -2.4460   14.8780    1.8440 N   0  0  0  0  0  0  0  0  0  0  0  0
   -4.1770   15.3190    0.1240 C   0  0  0  0  0  0  0  0  0  0  0  0
   -3.5080   15.7480    1.3760 C   0  0  1  0  0  0  0  0  0  0  0  0
   -4.4620   15.8460    2.4290 N   0  0  0  0  0  0  0  0  0  0  0  0
  1  2  1  0
  1  3  2  0
  4  1  1  1
  4  5  1  0
  4  6  1  0
  5  7  1  0
  6  8  1  1
  7  8  1  0
  6  9  1  0
  9 10  1  0
  9 11  1  1
 10 12  1  6
 10 13  1  0
 11 14  1  0
 13 15  1  0
 14 15  1  0
 14 16  1  0
 16 17  1  1
 16 18  1  0
 15 19  1  6
 18 20  1  0
 19 20  1  0
 20 21  1  1
M  END
