diamond-x0950_1_A-mac-x1493
     RDKit          3D

 21 22  0  0  0  0  0  0  0  0999 V2000
    1.6860   13.5910   -4.7540 C   0  0  0  0  0  0  0  0  0  0  0  0
    0.6350   12.5400   -4.4450 C   0  0  1  0  0  0  0  0  0  0  0  0
    0.6510   11.5540   -5.4730 O   0  0  0  0  0  0  0  0  0  0  0  0
    0.8200   11.9690   -3.0310 C   0  0  0  0  0  0  0  0  0  0  0  0
    0.3160   10.9250   -2.6320 O   0  0  0  0  0  0  0  0  0  0  0  0
    1.6160   12.7790   -2.2740 O   0  0  0  0  0  0  0  0  0  0  0  0
    0.9720   13.9250   -1.6770 C   0  0  0  0  0  0  0  0  0  0  0  0
   -0.5200   13.6700   -1.4390 C   0  0  0  0  0  0  0  0  0  0  0  0
   -1.2620   14.9030   -1.5000 O   0  0  0  0  0  0  0  0  0  0  0  0
   -2.3110   14.9440   -2.3640 C   0  0  0  0  0  0  0  0  0  0  0  0
   -2.2390   15.0270   -3.5790 O   0  0  0  0  0  0  0  0  0  0  0  0
   -3.5830   14.8780   -1.6250 C   0  0  0  0  0  0  0  0  0  0  0  0
   -3.6790   14.9840   -0.2400 C   0  0  0  0  0  0  0  0  0  0  0  0
   -4.7520   14.6980   -2.3430 C   0  0  0  0  0  0  0  0  0  0  0  0
   -4.9350   14.8940    0.3700 C   0  0  0  0  0  0  0  0  0  0  0  0
   -5.9810   14.6090   -1.7830 N   0  0  0  0  0  0  0  0  0  0  0  0
   -6.0700   14.7000   -0.4470 C   0  0  0  0  0  0  0  0  0  0  0  0
   -5.0810   14.9890    1.7560 C   0  0  0  0  0  0  0  0  0  0  0  0
   -7.3170   14.5990    0.1550 C   0  0  0  0  0  0  0  0  0  0  0  0
   -6.3480   14.8840    2.3350 C   0  0  0  0  0  0  0  0  0  0  0  0
   -7.4640   14.6860    1.5410 C   0  0  0  0  0  0  0  0  0  0  0  0
  2  1  1  6
  2  3  1  0
  2  4  1  0
  4  5  2  0
  4  6  1  0
  6  7  1  0
  7  8  1  0
  8  9  1  0
  9 10  1  0
 10 11  2  0
 10 12  1  0
 12 13  2  0
 12 14  1  0
 13 15  1  0
 14 16  2  0
 15 17  2  0
 16 17  1  0
 15 18  1  0
 17 19  1  0
 18 20  2  0
 19 21  2  0
 20 21  1  0
M  END
