diamond-x0465_0_A-mac-x0321
     RDKit          3D

 24 25  0  0  0  0  0  0  0  0999 V2000
    2.0290   13.2250   -4.7650 C   0  0  0  0  0  0  0  0  0  0  0  0
    0.6760   12.5450   -4.5720 C   0  0  1  0  0  0  0  0  0  0  0  0
    0.6360   11.4200   -5.4560 O   0  0  0  0  0  0  0  0  0  0  0  0
    0.5610   12.0620   -3.1130 C   0  0  0  0  0  0  0  0  0  0  0  0
    0.4980   12.8550   -2.1130 N   0  0  0  0  0  0  0  0  0  0  0  0
    0.5310   10.7230   -2.9880 O   0  0  0  0  0  0  0  0  0  0  0  0
   -0.5200   10.7300   -5.6880 C   0  0  0  0  0  0  0  0  0  0  0  0
    0.4940   14.2960   -2.2430 C   0  0  0  0  0  0  0  0  0  0  0  0
   -0.6680    9.6830   -6.6030 C   0  0  0  0  0  0  0  0  0  0  0  0
   -1.6290   11.1230   -4.9330 C   0  0  0  0  0  0  0  0  0  0  0  0
    0.3540    9.2600   -7.3590 F   0  0  0  0  0  0  0  0  0  0  0  0
   -0.7510   14.9190   -1.8900 O   0  0  0  0  0  0  0  0  0  0  0  0
   -1.8910    9.0390   -6.7620 C   0  0  0  0  0  0  0  0  0  0  0  0
   -2.8630   10.4790   -5.0900 C   0  0  0  0  0  0  0  0  0  0  0  0
   -1.8080   14.7310   -2.7210 C   0  0  0  0  0  0  0  0  0  0  0  0
   -2.9910    9.4340   -6.0050 C   0  0  0  0  0  0  0  0  0  0  0  0
   -1.7510   14.4250   -3.9040 O   0  0  0  0  0  0  0  0  0  0  0  0
   -3.0890   14.9660   -1.9950 C   0  0  0  0  0  0  0  0  0  0  0  0
   -3.1510   15.0280   -0.6010 C   0  0  0  0  0  0  0  0  0  0  0  0
   -4.2610   15.1320   -2.7440 C   0  0  0  0  0  0  0  0  0  0  0  0
   -4.3670   15.2560    0.0240 C   0  0  0  0  0  0  0  0  0  0  0  0
   -5.4830   15.3610   -2.1040 C   0  0  0  0  0  0  0  0  0  0  0  0
   -4.4180   15.3350    1.7360 Cl  0  0  0  0  0  0  0  0  0  0  0  0
   -5.5330   15.4220   -0.7190 C   0  0  0  0  0  0  0  0  0  0  0  0
  2  1  1  1
  2  3  1  0
  2  4  1  0
  4  5  2  3
  4  6  1  0
  3  7  1  0
  5  8  1  0
  7  9  2  0
  7 10  1  0
  9 11  1  0
  8 12  1  0
  9 13  1  0
 10 14  2  0
 12 15  1  0
 13 16  2  0
 14 16  1  0
 15 17  2  0
 15 18  1  0
 18 19  2  0
 18 20  1  0
 19 21  1  0
 20 22  2  0
 21 23  1  0
 21 24  2  0
 22 24  1  0
M  END
