diamond-x0685_0_A-mac-x0396
     RDKit          3D

 12 12  0  0  0  0  0  0  0  0999 V2000
   -5.7400   14.6280    2.4690 N   0  0  0  0  0  0  0  0  0  0  0  0
   -7.1530   14.7970    2.8070 C   0  0  0  0  0  0  0  0  0  0  0  0
   -7.8190   13.4590    3.0850 C   0  0  0  0  0  0  0  0  0  0  0  0
   -5.2590   14.8000    1.1620 C   0  0  0  0  0  0  0  0  0  0  0  0
   -3.8530   14.8100    0.9500 C   0  0  0  0  0  0  0  0  0  0  0  0
   -6.1210   14.9440    0.1370 N   0  0  0  0  0  0  0  0  0  0  0  0
   -3.3700   14.9670   -0.3220 C   0  0  0  0  0  0  0  0  0  0  0  0
   -5.6030   15.0960   -1.1040 C   0  0  0  0  0  0  0  0  0  0  0  0
   -2.8750   14.6640    1.9360 N   0  0  0  0  0  0  0  0  0  0  0  0
   -4.2440   15.1080   -1.3690 C   0  0  0  0  0  0  0  0  0  0  0  0
   -3.7230   15.2570   -2.6790 C   0  0  0  0  0  0  0  0  0  0  0  0
   -3.2680   15.3580   -3.7380 N   0  0  0  0  0  0  0  0  0  0  0  0
  1  2  1  0
  2  3  1  0
  1  4  1  0
  4  5  2  0
  4  6  1  0
  5  7  1  0
  6  8  2  0
  5  9  1  0
  7 10  2  0
  8 10  1  0
 10 11  1  0
 11 12  3  0
M  END
