diamond-x0371_0_A-mac-x0223
     RDKit          3D

 33 36  0  0  0  0  0  0  0  0999 V2000
   -8.2060   14.4790    2.9410 N   0  0  0  0  0  0  0  0  0  0  0  0
   -8.8450   15.5180    3.5870 C   0  0  0  0  0  0  0  0  0  0  0  0
   -9.5050   16.3460    2.9580 O   0  0  0  0  0  0  0  0  0  0  0  0
   -8.3930   14.2740    1.5250 C   0  0  0  0  0  0  0  0  0  0  0  0
   -7.1030   14.5410    0.8410 C   0  0  0  0  0  0  0  0  0  0  0  0
   -8.6840   15.5380    5.0240 C   0  0  0  0  0  0  0  0  0  0  0  0
   -5.9250   14.6600    1.5450 N   0  0  0  0  0  0  0  0  0  0  0  0
   -6.8930   14.6960   -0.4520 N   0  0  0  0  0  0  0  0  0  0  0  0
   -8.0660   14.4660    5.6050 O   0  0  0  0  0  0  0  0  0  0  0  0
   -9.0320   16.4440    6.0090 C   0  0  0  0  0  0  0  0  0  0  0  0
   -5.5380   14.9160   -0.5720 C   0  0  0  0  0  0  0  0  0  0  0  0
   -4.9190   14.9030    0.6700 C   0  0  0  0  0  0  0  0  0  0  0  0
   -8.6010   15.8890    7.2430 C   0  0  0  0  0  0  0  0  0  0  0  0
   -8.0180   14.6860    6.9380 C   0  0  0  0  0  0  0  0  0  0  0  0
   -3.5540   15.1030    0.8670 C   0  0  0  0  0  0  0  0  0  0  0  0
   -4.7570   15.1320   -1.7040 C   0  0  0  0  0  0  0  0  0  0  0  0
   -2.7910   15.3150   -0.2700 C   0  0  0  0  0  0  0  0  0  0  0  0
   -3.3690   15.3260   -1.5370 C   0  0  0  0  0  0  0  0  0  0  0  0
   -2.5030   15.5370   -2.7270 C   0  0  0  0  0  0  0  0  0  0  0  0
   -3.3560   15.9610   -3.9000 C   0  0  0  0  0  0  0  0  0  0  0  0
   -2.6460   16.9730   -4.6390 O   0  0  0  0  0  0  0  0  0  0  0  0
   -1.5530   16.2460   -4.6870 C   0  0  0  0  0  0  0  0  0  0  0  0
   -0.2350   16.7210   -4.7430 C   0  0  0  0  0  0  0  0  0  0  0  0
   -1.8270   14.9000   -4.6460 C   0  0  0  0  0  0  0  0  0  0  0  0
   -0.0200   18.0700   -4.8020 O   0  0  0  0  0  0  0  0  0  0  0  0
   -0.8430   13.9780   -4.6290 C   0  0  0  0  0  0  0  0  0  0  0  0
    0.7880   15.7520   -4.7220 C   0  0  0  0  0  0  0  0  0  0  0  0
    1.1480   18.4330   -5.5160 C   0  0  0  0  0  0  0  0  0  0  0  0
    0.4630   14.3790   -4.6520 C   0  0  0  0  0  0  0  0  0  0  0  0
    1.4480   13.2620   -4.5790 C   0  0  0  0  0  0  0  0  0  0  0  0
    1.0320   12.3970   -3.3990 C   0  0  0  0  0  0  0  0  0  0  0  0
    0.4490   11.3260   -3.3920 O   0  0  0  0  0  0  0  0  0  0  0  0
    1.3680   12.9640   -2.2200 O   0  0  0  0  0  0  0  0  0  0  0  0
  1  2  1  0
  2  3  2  0
  1  4  1  0
  4  5  1  0
  2  6  1  0
  5  7  1  0
  5  8  2  0
  6  9  1  0
  6 10  2  0
  8 11  1  0
  7 12  1  0
 11 12  2  0
 10 13  1  0
  9 14  1  0
 13 14  2  0
 12 15  1  0
 11 16  1  0
 15 17  2  0
 16 18  2  0
 17 18  1  0
 18 19  1  0
 19 20  1  0
 20 21  1  0
 21 22  1  0
 22 23  2  0
 22 24  1  0
 23 25  1  0
 24 26  2  0
 23 27  1  0
 25 28  1  0
 26 29  1  0
 27 29  2  0
 29 30  1  0
 30 31  1  0
 31 32  2  0
 31 33  1  0
M  END
