diamond-x0628_0_A-mac-x0302
     RDKit          3D

 24 25  0  0  0  0  0  0  0  0999 V2000
   -0.8120    8.8130   -6.9720 C   0  0  0  0  0  0  0  0  0  0  0  0
   -0.9090   10.1820   -6.4340 C   0  0  0  0  0  0  0  0  0  0  0  0
   -2.0980   10.7500   -6.0680 N   0  0  0  0  0  0  0  0  0  0  0  0
    0.1570   10.9680   -6.2680 N   0  0  0  0  0  0  0  0  0  0  0  0
   -0.3910   12.0810   -5.7690 N   0  0  0  0  0  0  0  0  0  0  0  0
   -1.7450   11.9520   -5.6580 C   0  0  0  0  0  0  0  0  0  0  0  0
   -2.6390   13.0210   -5.1600 C   0  0  0  0  0  0  0  0  0  0  0  0
    0.4450   13.2120   -5.4350 C   0  0  0  0  0  0  0  0  0  0  0  0
    1.5970   12.8470   -4.5100 C   0  0  0  0  0  0  0  0  0  0  0  0
    1.1450   12.2770   -3.1780 C   0  0  0  0  0  0  0  0  0  0  0  0
    0.6190   11.1750   -3.0250 O   0  0  0  0  0  0  0  0  0  0  0  0
    1.4140   13.1520   -2.1670 N   0  0  0  0  0  0  0  0  0  0  0  0
    0.6120   14.1660   -2.0360 C   0  0  0  0  0  0  0  0  0  0  0  0
   -0.6030   14.4020   -2.9180 C   0  0  0  0  0  0  0  0  0  0  0  0
   -1.6650   14.7910   -2.0220 N   0  0  0  0  0  0  0  0  0  0  0  0
   -2.9630   15.0560   -2.4030 C   0  0  0  0  0  0  0  0  0  0  0  0
   -3.3330   15.3020   -3.5450 O   0  0  0  0  0  0  0  0  0  0  0  0
   -3.9020   15.0360   -1.2580 C   0  0  0  0  0  0  0  0  0  0  0  0
   -5.2890   15.0070   -1.4130 C   0  0  0  0  0  0  0  0  0  0  0  0
   -3.3310   15.0440    0.0220 C   0  0  0  0  0  0  0  0  0  0  0  0
   -6.0860   14.9810   -0.2760 C   0  0  0  0  0  0  0  0  0  0  0  0
   -4.1380   15.0200    1.1460 C   0  0  0  0  0  0  0  0  0  0  0  0
   -7.4480   14.9510   -0.3670 O   0  0  0  0  0  0  0  0  0  0  0  0
   -5.5190   14.9850    1.0010 C   0  0  0  0  0  0  0  0  0  0  0  0
  1  2  1  0
  2  3  1  0
  2  4  2  0
  4  5  1  0
  3  6  2  0
  5  6  1  0
  6  7  1  0
  5  8  1  0
  8  9  1  0
  9 10  1  0
 10 11  2  0
 10 12  1  0
 12 13  2  3
 13 14  1  0
 14 15  1  0
 15 16  1  0
 16 17  2  0
 16 18  1  0
 18 19  2  0
 18 20  1  0
 19 21  1  0
 20 22  2  0
 21 23  1  0
 21 24  2  0
 22 24  1  0
M  END
