diamond-x0855_0_A-diamond-x0742_0_A
     RDKit          3D

 28 31  0  0  0  0  0  0  0  0999 V2000
    2.5170   12.4000   -3.2360 O   0  0  0  0  0  0  0  0  0  0  0  0
    1.1060   12.4210   -3.3480 C   0  0  0  0  0  0  0  0  0  0  0  0
    0.7700   12.5340   -4.8480 C   0  0  0  0  0  0  0  0  0  0  0  0
    0.6550   11.1720   -2.8420 O   0  0  0  0  0  0  0  0  0  0  0  0
    0.6160   13.6000   -2.5140 C   0  0  0  0  0  0  0  0  0  0  0  0
   -0.8910   13.6200   -2.2780 C   0  0  0  0  0  0  0  0  0  0  0  0
   -0.3240   11.6920   -5.2670 N   0  0  0  0  0  0  0  0  0  0  0  0
   -0.2860   10.7100   -6.2110 C   0  0  0  0  0  0  0  0  0  0  0  0
   -1.5450   11.8390   -4.6970 N   0  0  0  0  0  0  0  0  0  0  0  0
   -1.1760   13.9720   -0.8510 C   0  0  0  0  0  0  0  0  0  0  0  0
   -1.5430   10.1870   -6.2470 C   0  0  0  0  0  0  0  0  0  0  0  0
   -2.2890   10.9080   -5.3060 C   0  0  0  0  0  0  0  0  0  0  0  0
   -0.0630   14.0580    0.0030 C   0  0  0  0  0  0  0  0  0  0  0  0
   -2.4480   14.2130   -0.3270 C   0  0  0  0  0  0  0  0  0  0  0  0
   -2.1810    8.7980   -7.3130 Br  0  0  0  0  0  0  0  0  0  0  0  0
   -3.7830   14.1690   -1.0650 C   0  0  1  0  0  0  0  0  0  0  0  0
   -0.2460   14.3760    1.3260 C   0  0  0  0  0  0  0  0  0  0  0  0
   -2.4880   14.5350    1.0420 C   0  0  0  0  0  0  0  0  0  0  0  0
   -5.0050   13.6640   -0.2010 C   0  0  1  0  0  0  0  0  0  0  0  0
   -4.3220   15.3080   -1.9340 C   0  0  0  0  0  0  0  0  0  0  0  0
   -1.4330   14.6150    1.8520 N   0  0  0  0  0  0  0  0  0  0  0  0
   -3.7890   14.8150    1.6770 C   0  0  0  0  0  0  0  0  0  0  0  0
   -5.4580   12.2330   -0.5980 C   0  0  0  0  0  0  0  0  0  0  0  0
   -4.7930   13.7430    1.3120 C   0  0  0  0  0  0  0  0  0  0  0  0
   -6.1820   14.5900   -0.5830 C   0  0  0  0  0  0  0  0  0  0  0  0
   -5.5620   15.8150   -1.2180 C   0  0  0  0  0  0  0  0  0  0  0  0
   -4.9430   11.6160   -1.5380 O   0  0  0  0  0  0  0  0  0  0  0  0
   -6.5690   11.5790    0.1840 C   0  0  0  0  0  0  0  0  0  0  0  0
  2  1  1  0
  2  3  1  0
  2  4  1  0
  2  5  1  0
  5  6  1  0
  3  7  1  0
  7  8  1  0
  7  9  1  0
  6 10  1  0
  8 11  2  0
  9 12  2  0
 11 12  1  0
 10 13  2  0
 10 14  1  0
 11 15  1  0
 14 16  1  0
 13 17  1  0
 14 18  2  0
 16 19  1  0
 16 20  1  1
 17 21  2  0
 18 21  1  0
 18 22  1  0
 19 23  1  6
 19 24  1  0
 22 24  1  0
 19 25  1  0
 20 26  1  0
 25 26  1  0
 23 27  2  0
 23 28  1  0
M  END
