diamond-x0837_0_A-mac-x0161
     RDKit          3D

 25 28  0  0  0  0  0  0  0  0999 V2000
   -7.7540   15.0410    0.2800 O   0  0  0  0  0  0  0  0  0  0  0  0
   -6.5750   14.8490   -0.0050 C   0  0  0  0  0  0  0  0  0  0  0  0
   -5.5400   15.2570    0.7680 N   0  0  0  0  0  0  0  0  0  0  0  0
   -6.1360   14.1140   -1.2260 C   0  0  0  0  0  0  0  0  0  0  0  0
   -4.3580   14.4530    0.8320 C   0  0  1  0  0  0  0  0  0  0  0  0
   -5.3580   12.8710   -0.8110 C   0  0  1  0  0  0  0  0  0  0  0  0
   -3.8430   12.4560   -2.2900 I   0  0  0  0  0  0  0  0  0  0  0  0
   -4.7730   13.0130    0.6150 C   0  0  0  0  0  0  0  0  0  0  0  0
   -3.3050   14.7450   -0.2540 C   0  0  1  0  0  0  0  0  0  0  0  0
   -3.5020   15.8760   -1.1460 N   0  0  0  0  0  0  0  0  0  0  0  0
   -1.8690   14.5540    0.1910 C   0  0  1  0  0  0  0  0  0  0  0  0
   -2.7980   15.5990   -2.3880 C   0  0  0  0  0  0  0  0  0  0  0  0
   -1.0150   14.4840   -1.0720 C   0  0  1  0  0  0  0  0  0  0  0  0
   -1.2080   15.5420    1.0320 N   0  0  0  0  0  0  0  0  0  0  0  0
   -1.3650   15.3760   -2.1800 N   0  0  0  0  0  0  0  0  0  0  0  0
    0.2920   14.8930   -0.5780 N   0  0  0  0  0  0  0  0  0  0  0  0
    0.1440   15.0820    0.8470 C   0  0  0  0  0  0  0  0  0  0  0  0
   -0.6450   15.0670   -3.4270 C   0  0  0  0  0  0  0  0  0  0  0  0
   -0.5000   13.6040   -3.6840 C   0  0  0  0  0  0  0  0  0  0  0  0
   -0.9480   12.7400   -4.6630 C   0  0  0  0  0  0  0  0  0  0  0  0
    0.2360   12.8920   -2.7800 O   0  0  0  0  0  0  0  0  0  0  0  0
    0.2780   11.5560   -3.1460 N   0  0  0  0  0  0  0  0  0  0  0  0
   -0.4340   11.4920   -4.2750 C   0  0  0  0  0  0  0  0  0  0  0  0
   -0.6140   10.3250   -4.9360 O   0  0  0  0  0  0  0  0  0  0  0  0
   -1.6360   10.3580   -5.9240 C   0  0  0  0  0  0  0  0  0  0  0  0
  1  2  2  0
  2  3  1  0
  2  4  1  0
  3  5  1  0
  4  6  1  0
  6  7  1  6
  5  8  1  6
  6  8  1  0
  5  9  1  0
  9 10  1  1
  9 11  1  0
 10 12  1  0
 11 13  1  0
 11 14  1  1
 12 15  1  0
 13 15  1  0
 13 16  1  1
 14 17  1  0
 16 17  1  0
 15 18  1  0
 18 19  1  0
 19 20  2  0
 19 21  1  0
 21 22  1  0
 20 23  1  0
 22 23  2  0
 23 24  1  0
 24 25  1  0
M  END
