diamond-x0837_0_A-mac-x0224
     RDKit          3D

 19 20  0  0  0  0  0  0  0  0999 V2000
   -7.8760   15.4220   -0.3450 O   0  0  0  0  0  0  0  0  0  0  0  0
   -6.6720   15.2120   -0.3980 C   0  0  0  0  0  0  0  0  0  0  0  0
   -6.0220   14.6700    0.6520 N   0  0  0  0  0  0  0  0  0  0  0  0
   -5.7950   15.4840   -1.6030 C   0  0  0  0  0  0  0  0  0  0  0  0
   -5.4150   13.5010    0.4210 C   0  0  0  0  0  0  0  0  0  0  0  0
   -4.9230   14.2750   -1.9700 C   0  0  2  0  0  0  0  0  0  0  0  0
   -4.9080   13.2710   -0.8060 C   0  0  0  0  0  0  0  0  0  0  0  0
   -3.4570   14.4400   -1.8870 C   0  0  0  0  0  0  0  0  0  0  0  0
   -2.3200   14.3880   -2.7310 C   0  0  0  0  0  0  0  0  0  0  0  0
   -3.3060   14.6640   -0.5800 C   0  0  0  0  0  0  0  0  0  0  0  0
   -2.4190   14.1720   -4.0860 O   0  0  0  0  0  0  0  0  0  0  0  0
   -2.1480   14.8270    0.0160 C   0  0  0  0  0  0  0  0  0  0  0  0
   -1.0600   14.5490   -2.0910 C   0  0  0  0  0  0  0  0  0  0  0  0
   -2.2590   15.0940    1.7240 S   0  0  0  0  0  0  0  0  0  0  0  0
    0.2490   14.4880   -2.7610 C   0  0  0  0  0  0  0  0  0  0  0  0
   -0.9830   14.7690   -0.7130 C   0  0  0  0  0  0  0  0  0  0  0  0
   -4.0050   15.6010    1.8320 C   0  0  0  0  0  0  0  0  0  0  0  0
    1.2830   14.3570   -2.1350 O   0  0  0  0  0  0  0  0  0  0  0  0
    0.1850   14.5670   -4.0990 O   0  0  0  0  0  0  0  0  0  0  0  0
  1  2  2  0
  2  3  1  0
  2  4  1  0
  3  5  1  0
  4  6  1  0
  5  7  2  0
  6  7  1  0
  6  8  1  1
  8  9  2  0
  8 10  1  0
  9 11  1  0
 10 12  2  0
  9 13  1  0
 12 14  1  0
 13 15  1  0
 12 16  1  0
 13 16  2  0
 14 17  1  0
 15 18  2  0
 15 19  1  0
M  END
