diamond-x0905_0_A-mac-x0138
     RDKit          3D

 14 15  0  0  0  0  0  0  0  0999 V2000
   -6.7270   15.4600   -0.2310 O   0  0  0  0  0  0  0  0  0  0  0  0
   -5.3840   15.3750   -0.4650 C   0  0  0  0  0  0  0  0  0  0  0  0
   -4.4880   15.4580    0.6170 N   0  0  0  0  0  0  0  0  0  0  0  0
   -4.9400   15.1940   -1.7170 C   0  0  0  0  0  0  0  0  0  0  0  0
   -3.3440   14.5590    0.5690 C   0  0  1  0  0  0  0  0  0  0  0  0
   -3.5140   15.0390   -1.9250 C   0  0  0  0  0  0  0  0  0  0  0  0
   -2.9440   15.2080   -3.3130 C   0  0  0  0  0  0  0  0  0  0  0  0
   -3.9290   13.2690    0.8040 N   0  0  0  0  0  0  0  0  0  0  0  0
   -2.8070   14.7240   -0.8450 C   0  0  0  0  0  0  0  0  0  0  0  0
   -2.2560   14.5430    1.5830 N   0  0  0  0  0  0  0  0  0  0  0  0
   -1.0080   14.4190    1.1960 C   0  0  0  0  0  0  0  0  0  0  0  0
   -1.3880   14.5070   -1.0050 C   0  0  0  0  0  0  0  0  0  0  0  0
    0.0100   14.3150    2.0820 N   0  0  0  0  0  0  0  0  0  0  0  0
   -0.5610   14.3620   -0.0700 N   0  0  0  0  0  0  0  0  0  0  0  0
  1  2  1  0
  2  3  1  0
  2  4  2  0
  3  5  1  0
  4  6  1  0
  6  7  1  0
  5  8  1  6
  5  9  1  0
  6  9  2  0
  5 10  1  0
 10 11  2  0
  9 12  1  0
 11 13  1  0
 11 14  1  0
 12 14  2  0
M  END
