diamond-x0290_0_A-diamond-x0724_0_A
     RDKit          3D

 26 28  0  0  0  0  0  0  0  0999 V2000
   -4.3780   12.7800   -0.0010 O   0  0  0  0  0  0  0  0  0  0  0  0
   -4.4860   13.3070    1.1080 C   0  0  0  0  0  0  0  0  0  0  0  0
   -3.6270   14.2910    1.5520 N   0  0  0  0  0  0  0  0  0  0  0  0
   -2.3260   14.4310    1.0670 C   0  0  0  0  0  0  0  0  0  0  0  0
   -1.3430   14.3680    1.9320 N   0  0  0  0  0  0  0  0  0  0  0  0
   -2.1370   14.6190   -0.3000 C   0  0  0  0  0  0  0  0  0  0  0  0
   -0.1190   14.4780    1.4410 C   0  0  0  0  0  0  0  0  0  0  0  0
   -0.8420   14.7220   -0.8210 C   0  0  0  0  0  0  0  0  0  0  0  0
   -3.3500   14.6890   -1.0320 C   0  0  0  0  0  0  0  0  0  0  0  0
   -0.5370   14.9020   -2.2860 C   0  0  0  0  0  0  0  0  0  0  0  0
    0.1920   14.6490    0.0980 C   0  0  0  0  0  0  0  0  0  0  0  0
   -4.4330   14.7160   -0.1920 C   0  0  0  0  0  0  0  0  0  0  0  0
   -3.5160   14.7280   -2.4060 C   0  0  0  0  0  0  0  0  0  0  0  0
   -4.8150   14.7920   -2.9110 C   0  0  0  0  0  0  0  0  0  0  0  0
   -5.7010   14.7660   -0.6520 C   0  0  0  0  0  0  0  0  0  0  0  0
   -6.7050   14.7640    0.3400 N   0  0  0  0  0  0  0  0  0  0  0  0
   -5.9170   14.8100   -2.0340 C   0  0  0  0  0  0  0  0  0  0  0  0
   -8.0050   14.6540    0.0500 N   0  0  0  0  0  0  0  0  0  0  0  0
   -6.4910   14.8710    1.7020 C   0  0  0  0  0  0  0  0  0  0  0  0
   -7.7080   14.8430    2.3250 C   0  0  0  0  0  0  0  0  0  0  0  0
   -8.6100   14.6980    1.2420 C   0  0  0  0  0  0  0  0  0  0  0  0
   -7.9690   14.9500    3.7920 C   0  0  0  0  0  0  0  0  0  0  0  0
  -10.0810   14.5910    1.2930 C   0  0  0  0  0  0  0  0  0  0  0  0
   -8.5920   13.7560    4.3510 N   0  0  0  0  0  0  0  0  0  0  0  0
  -10.4090   13.2140    0.9350 N   0  0  0  0  0  0  0  0  0  0  0  0
   -8.3100   13.6140    5.7730 C   0  0  0  0  0  0  0  0  0  0  0  0
  1  2  2  0
  2  3  1  0
  3  4  1  0
  4  5  2  0
  4  6  1  0
  5  7  1  0
  6  8  2  0
  6  9  1  0
  8 10  1  0
  7 11  2  0
  8 11  1  0
  9 12  2  0
  9 13  1  0
 13 14  2  0
 12 15  1  0
 15 16  1  0
 14 17  1  0
 15 17  2  0
 16 18  1  0
 16 19  1  0
 19 20  2  0
 18 21  2  0
 20 21  1  0
 20 22  1  0
 21 23  1  0
 22 24  1  0
 23 25  1  0
 24 26  1  0
M  END
