diamond-x0587_0_A-mac-x0138
     RDKit          3D

 24 26  0  0  0  0  0  0  0  0999 V2000
   -7.9020   15.0230    4.2210 N   0  0  0  0  0  0  0  0  0  0  0  0
   -8.4570   14.9010    2.9750 C   0  0  0  0  0  0  0  0  0  0  0  0
   -9.6720   14.9090    2.8200 O   0  0  0  0  0  0  0  0  0  0  0  0
   -7.5660   14.7860    1.8220 C   0  0  0  0  0  0  0  0  0  0  0  0
   -8.0700   14.7100    0.5400 C   0  0  0  0  0  0  0  0  0  0  0  0
   -6.2040   14.7590    1.9120 C   0  0  0  0  0  0  0  0  0  0  0  0
   -7.3000   14.6240   -0.5700 N   0  0  0  0  0  0  0  0  0  0  0  0
   -5.3980   14.6760    0.8370 N   0  0  0  0  0  0  0  0  0  0  0  0
   -5.9630   14.6170   -0.3880 C   0  0  0  0  0  0  0  0  0  0  0  0
   -5.0550   14.5450   -1.6410 C   0  0  0  0  0  0  0  0  0  0  0  0
   -4.6880   13.2630   -1.9610 F   0  0  0  0  0  0  0  0  0  0  0  0
   -5.7110   15.0080   -2.7430 F   0  0  0  0  0  0  0  0  0  0  0  0
   -3.8640   15.3620   -1.5660 N   0  0  0  0  0  0  0  0  0  0  0  0
   -3.1240   15.2950   -2.8230 C   0  0  0  0  0  0  0  0  0  0  0  0
   -2.9270   14.8100   -0.5860 C   0  0  1  0  0  0  0  0  0  0  0  0
   -1.7290   14.9250   -2.5250 N   0  0  0  0  0  0  0  0  0  0  0  0
   -1.6070   15.3150   -1.1280 C   0  0  2  0  0  0  0  0  0  0  0  0
   -3.0380   15.2310    0.8930 C   0  0  1  0  0  0  0  0  0  0  0  0
   -0.7940   15.6350   -3.3880 C   0  0  0  0  0  0  0  0  0  0  0  0
   -3.8420   14.3900    1.7510 N   0  0  0  0  0  0  0  0  0  0  0  0
   -1.7440   15.2110    1.4830 N   0  0  0  0  0  0  0  0  0  0  0  0
   -0.5070   14.6590   -0.4880 N   0  0  0  0  0  0  0  0  0  0  0  0
   -0.8560   14.3110    0.8420 C   0  0  1  0  0  0  0  0  0  0  0  0
    0.2980   14.4420    1.6240 N   0  0  0  0  0  0  0  0  0  0  0  0
  1  2  1  0
  2  3  2  0
  2  4  1  0
  4  5  2  0
  4  6  1  0
  5  7  1  0
  6  8  2  0
  7  9  2  0
  8  9  1  0
  9 10  1  0
 10 11  1  0
 10 12  1  0
 10 13  1  0
 13 14  1  0
 15 13  1  6
 14 16  1  0
 15 17  1  0
 16 17  1  0
 15 18  1  0
 16 19  1  0
 18 20  1  1
 18 21  1  0
 17 22  1  1
 21 23  1  0
 22 23  1  0
 23 24  1  1
M  END
