diamond-x0742_0_A-diamond-x0587_0_A
     RDKit          3D

 28 31  0  0  0  0  0  0  0  0999 V2000
   -5.2900   12.5030   -1.6570 C   0  0  0  0  0  0  0  0  0  0  0  0
   -6.1680   13.2370   -2.1570 N   0  0  0  0  0  0  0  0  0  0  0  0
   -6.0110   14.6400   -1.8170 C   0  0  0  0  0  0  0  0  0  0  0  0
   -5.2310   11.0030   -1.7620 C   0  0  0  0  0  0  0  0  0  0  0  0
   -4.2100   13.3200   -0.8880 C   0  0  2  0  0  0  0  0  0  0  0  0
   -4.3570   13.0360    0.6180 C   0  0  0  0  0  0  0  0  0  0  0  0
   -4.2280   14.8160   -1.3000 C   0  0  0  0  0  0  0  0  0  0  0  0
   -2.7860   13.0880   -1.3520 C   0  0  1  0  0  0  0  0  0  0  0  0
   -4.7020   15.0290   -1.9170 F   0  0  0  0  0  0  0  0  0  0  0  0
   -6.6670   15.3590   -2.7590 F   0  0  0  0  0  0  0  0  0  0  0  0
   -2.8650   13.4770   -2.8200 C   0  0  0  0  0  0  0  0  0  0  0  0
   -1.7630   13.7210   -0.5040 C   0  0  0  0  0  0  0  0  0  0  0  0
   -3.3890   13.8830    1.4490 C   0  0  0  0  0  0  0  0  0  0  0  0
   -6.6110   14.7600   -0.4030 C   0  0  0  0  0  0  0  0  0  0  0  0
   -3.6200   14.8070   -2.7250 C   0  0  0  0  0  0  0  0  0  0  0  0
   -0.5080   13.9480   -1.0350 C   0  0  0  0  0  0  0  0  0  0  0  0
   -2.0380   14.1000    0.8210 C   0  0  0  0  0  0  0  0  0  0  0  0
   -7.9530   14.8110   -0.3230 N   0  0  0  0  0  0  0  0  0  0  0  0
   -5.7950   14.7840    0.6840 N   0  0  0  0  0  0  0  0  0  0  0  0
   -1.1150   14.6760    1.6030 N   0  0  0  0  0  0  0  0  0  0  0  0
    0.4370   14.5380   -0.2510 C   0  0  0  0  0  0  0  0  0  0  0  0
   -8.4810   14.8890    0.9090 C   0  0  0  0  0  0  0  0  0  0  0  0
   -6.3760   14.8590    1.8990 C   0  0  0  0  0  0  0  0  0  0  0  0
    0.0910   14.8750    1.0330 C   0  0  0  0  0  0  0  0  0  0  0  0
   -7.7390   14.9180    2.0640 C   0  0  0  0  0  0  0  0  0  0  0  0
   -8.4310   15.0180    3.3450 C   0  0  0  0  0  0  0  0  0  0  0  0
   -7.6900   15.0450    4.4870 N   0  0  0  0  0  0  0  0  0  0  0  0
   -9.6540   15.0880    3.3750 O   0  0  0  0  0  0  0  0  0  0  0  0
  1  2  2  3
  2  3  1  0
  1  4  1  0
  5  1  1  6
  5  6  1  0
  5  7  1  0
  5  8  1  0
  3  9  1  0
  3 10  1  0
  8 11  1  6
  8 12  1  0
  6 13  1  0
  3 14  1  0
  7 15  1  0
 11 15  1  0
 12 16  1  0
 12 17  2  0
 13 17  1  0
 14 18  2  0
 14 19  1  0
 17 20  1  0
 16 21  2  0
 18 22  1  0
 19 23  2  0
 20 24  2  0
 21 24  1  0
 22 25  2  0
 23 25  1  0
 25 26  1  0
 26 27  1  0
 26 28  2  0
M  END
