diamond-x0438_0_A-diamond-x0852_0_B
     RDKit          3D

 22 24  0  0  0  0  0  0  0  0999 V2000
   -9.5740   16.3880    1.7060 C   0  0  0  0  0  0  0  0  0  0  0  0
   -9.7290   14.7860    1.7180 S   0  0  0  0  0  0  0  0  0  0  0  0
  -11.0730   14.2510    2.7570 O   0  0  0  0  0  0  0  0  0  0  0  0
   -8.9000   13.6230    0.9430 C   0  0  0  0  0  0  0  0  0  0  0  0
   -8.7900   14.6350    3.0500 C   0  0  0  0  0  0  0  0  0  0  0  0
   -7.5330   14.0790    0.5260 C   0  0  0  0  0  0  0  0  0  0  0  0
   -8.1500   14.7470    4.3190 C   0  0  0  0  0  0  0  0  0  0  0  0
   -9.6650   15.7000    3.3410 C   0  0  0  0  0  0  0  0  0  0  0  0
   -7.1660   14.5440   -0.6570 N   0  0  0  0  0  0  0  0  0  0  0  0
   -6.3950   14.0840    1.2720 N   0  0  0  0  0  0  0  0  0  0  0  0
   -8.2850   15.5130    5.3970 C   0  0  0  0  0  0  0  0  0  0  0  0
   -9.9290   16.5700    4.3590 C   0  0  0  0  0  0  0  0  0  0  0  0
   -5.3630   14.5260    0.5420 C   0  0  0  0  0  0  0  0  0  0  0  0
   -5.8570   14.8230   -0.6990 C   0  0  0  0  0  0  0  0  0  0  0  0
   -7.4430   15.3040    6.4910 O   0  0  0  0  0  0  0  0  0  0  0  0
   -9.2060   16.4560    5.4300 C   0  0  0  0  0  0  0  0  0  0  0  0
   -4.9910   15.2960   -1.6480 C   0  0  0  0  0  0  0  0  0  0  0  0
   -4.0290   14.6970    0.8360 C   0  0  0  0  0  0  0  0  0  0  0  0
   -9.4290   17.3090    6.5600 C   0  0  0  0  0  0  0  0  0  0  0  0
   -3.6500   15.4650   -1.3780 C   0  0  0  0  0  0  0  0  0  0  0  0
   -3.1400   15.1670   -0.1220 C   0  0  0  0  0  0  0  0  0  0  0  0
   -9.6550   17.9530    7.4720 N   0  0  0  0  0  0  0  0  0  0  0  0
  1  2  1  0
  2  3  2  0
  2  4  1  0
  2  5  1  0
  4  6  1  0
  5  7  2  0
  5  8  1  0
  6  9  1  0
  6 10  2  0
  7 11  1  0
  8 12  2  0
 10 13  1  0
  9 14  1  0
 13 14  2  0
 11 15  1  0
 11 16  2  0
 12 16  1  0
 14 17  1  0
 13 18  1  0
 16 19  1  0
 17 20  2  0
 18 21  2  0
 20 21  1  0
 19 22  3  0
M  END
