diamond-x0727_0_A-diamond-x0900_1_A
     RDKit          3D

 14 14  0  0  0  0  0  0  0  0999 V2000
    0.0770   11.3910   -5.6690 N   0  0  0  0  0  0  0  0  0  0  0  0
    0.8280   12.3150   -4.8170 C   0  0  1  0  0  0  0  0  0  0  0  0
    0.3560   13.7470   -4.9990 C   0  0  0  0  0  0  0  0  0  0  0  0
    0.6470   11.0080   -6.8540 C   0  0  0  0  0  0  0  0  0  0  0  0
    1.5520   11.6630   -7.3020 O   0  0  0  0  0  0  0  0  0  0  0  0
    0.7150   11.8810   -3.3520 C   0  0  0  0  0  0  0  0  0  0  0  0
    0.1540    9.7360   -7.5220 C   0  0  2  0  0  0  0  0  0  0  0  0
    0.1860   10.8420   -2.9960 O   0  0  0  0  0  0  0  0  0  0  0  0
    1.2710   12.7540   -2.4780 O   0  0  0  0  0  0  0  0  0  0  0  0
   -1.0180    9.8600   -8.4540 C   0  0  0  0  0  0  0  0  0  0  0  0
   -0.3590    8.6510   -6.5600 C   0  0  0  0  0  0  0  0  0  0  0  0
   -0.9390   10.2470   -9.6160 O   0  0  0  0  0  0  0  0  0  0  0  0
   -2.3120    9.4330   -7.8150 C   0  0  0  0  0  0  0  0  0  0  0  0
   -1.8710    8.7970   -6.5010 C   0  0  0  0  0  0  0  0  0  0  0  0
  1  2  1  0
  2  3  1  1
  1  4  1  0
  4  5  2  0
  2  6  1  0
  7  4  1  1
  6  8  2  0
  6  9  1  0
  7 10  1  0
  7 11  1  0
 10 12  2  0
 10 13  1  0
 11 14  1  0
 13 14  1  0
M  END
