diamond-x0895_0_A-mac-x0392
     RDKit          3D

 11 11  0  0  0  0  0  0  0  0999 V2000
   -1.1360   14.8710    1.6320 O   0  0  0  0  0  0  0  0  0  0  0  0
   -2.0880   14.9900    0.8750 C   0  0  0  0  0  0  0  0  0  0  0  0
   -3.4030   15.6140    1.3010 C   0  0  0  0  0  0  0  0  0  0  0  0
   -2.1780   14.4710   -0.5670 C   0  0  2  0  0  0  0  0  0  0  0  0
   -1.7320   13.0810   -0.4350 N   0  0  0  0  0  0  0  0  0  0  0  0
   -1.3330   14.9400   -1.7640 C   0  0  0  0  0  0  0  0  0  0  0  0
   -4.2920   14.9800    0.3800 N   0  0  0  0  0  0  0  0  0  0  0  0
   -3.6770   14.6590   -0.8160 C   0  0  0  0  0  0  0  0  0  0  0  0
   -4.2700   14.5700   -1.8750 O   0  0  0  0  0  0  0  0  0  0  0  0
   -1.7520   15.1010   -2.9090 O   0  0  0  0  0  0  0  0  0  0  0  0
   -0.0190   15.1490   -1.5270 O   0  0  0  0  0  0  0  0  0  0  0  0
  1  2  2  0
  2  3  1  0
  2  4  1  0
  4  5  1  1
  4  6  1  0
  3  7  1  0
  4  8  1  0
  7  8  1  0
  8  9  2  0
  6 10  2  0
  6 11  1  0
M  END
