diamond-x0128_0_A-mac-x0231
     RDKit          3D

 33 36  0  0  0  0  0  0  0  0999 V2000
   -6.3290   14.9450    2.3680 N   0  0  0  0  0  0  0  0  0  0  0  0
   -7.5610   15.1870    2.9520 C   0  0  0  0  0  0  0  0  0  0  0  0
   -8.6430   15.2550    2.3680 O   0  0  0  0  0  0  0  0  0  0  0  0
   -5.9490   14.7790    1.0030 C   0  0  0  0  0  0  0  0  0  0  0  0
   -7.5480   15.3850    4.3250 N   0  0  0  0  0  0  0  0  0  0  0  0
   -6.9330   14.4330    0.0860 C   0  0  0  0  0  0  0  0  0  0  0  0
   -4.6300   14.9380    0.5290 C   0  0  0  0  0  0  0  0  0  0  0  0
   -6.6210   14.2300   -1.2660 C   0  0  0  0  0  0  0  0  0  0  0  0
   -4.3090   14.7340   -0.8380 C   0  0  0  0  0  0  0  0  0  0  0  0
   -8.4010   16.1320    5.1770 C   0  0  0  0  0  0  0  0  0  0  0  0
   -5.3110   14.3620   -1.7630 C   0  0  0  0  0  0  0  0  0  0  0  0
   -9.1300   17.2630    4.8160 C   0  0  0  0  0  0  0  0  0  0  0  0
   -8.5310   15.7080    6.5050 C   0  0  0  0  0  0  0  0  0  0  0  0
   -5.0870   14.0650   -3.2700 C   0  0  0  0  0  0  0  0  0  0  0  0
   -9.9390   17.9620    5.6510 N   0  0  0  0  0  0  0  0  0  0  0  0
   -9.3550   16.4090    7.3880 C   0  0  0  0  0  0  0  0  0  0  0  0
   -4.3320   15.0770   -4.1590 C   0  0  0  0  0  0  0  0  0  0  0  0
  -10.0330   17.5220    6.9180 C   0  0  0  0  0  0  0  0  0  0  0  0
   -2.9100   14.7750   -4.3920 C   0  0  0  0  0  0  0  0  0  0  0  0
   -1.9970   15.8170   -4.3510 C   0  0  0  0  0  0  0  0  0  0  0  0
   -2.4870   13.4860   -4.6140 C   0  0  0  0  0  0  0  0  0  0  0  0
   -0.6480   15.5490   -4.4680 C   0  0  0  0  0  0  0  0  0  0  0  0
   -1.1350   13.2070   -4.7220 C   0  0  0  0  0  0  0  0  0  0  0  0
   -0.2170   14.2450   -4.6170 C   0  0  0  0  0  0  0  0  0  0  0  0
    0.3430   16.6320   -4.4170 C   0  0  0  0  0  0  0  0  0  0  0  0
    0.0120   17.8130   -4.3770 O   0  0  0  0  0  0  0  0  0  0  0  0
    1.2210   14.0190   -4.6200 C   0  0  0  0  0  0  0  0  0  0  0  0
    1.6440   16.2340   -4.4350 N   0  0  0  0  0  0  0  0  0  0  0  0
    1.7120   12.6130   -4.6120 C   0  0  0  0  0  0  0  0  0  0  0  0
    2.0890   14.9610   -4.5140 N   0  0  0  0  0  0  0  0  0  0  0  0
    1.2630   12.0210   -3.3030 C   0  0  0  0  0  0  0  0  0  0  0  0
    0.5110   10.9180   -3.4520 O   0  0  0  0  0  0  0  0  0  0  0  0
    1.5110   12.4470   -2.1870 O   0  0  0  0  0  0  0  0  0  0  0  0
  1  2  1  0
  2  3  2  0
  1  4  1  0
  2  5  1  0
  4  6  2  0
  4  7  1  0
  6  8  1  0
  7  9  2  0
  5 10  1  0
  8 11  2  0
  9 11  1  0
 10 12  2  0
 10 13  1  0
 11 14  1  0
 12 15  1  0
 13 16  2  0
 14 17  1  0
 15 18  2  0
 16 18  1  0
 17 19  1  0
 19 20  2  0
 19 21  1  0
 20 22  1  0
 21 23  2  0
 22 24  2  0
 23 24  1  0
 22 25  1  0
 25 26  2  0
 24 27  1  0
 25 28  1  0
 27 29  1  0
 27 30  2  0
 28 30  1  0
 29 31  1  0
 31 32  1  0
 31 33  2  0
M  END
