diamond-x0837_0_A-mac-x0188
     RDKit          3D

 23 25  0  0  0  0  0  0  0  0999 V2000
   -6.5900   14.6820    0.8080 O   0  0  0  0  0  0  0  0  0  0  0  0
   -5.3800   14.5000    0.5070 C   0  0  0  0  0  0  0  0  0  0  0  0
   -4.3710   14.4220    1.5100 N   0  0  0  0  0  0  0  0  0  0  0  0
   -4.9580   14.3550   -0.9200 C   0  0  0  0  0  0  0  0  0  0  0  0
   -3.0050   14.4060    1.1000 C   0  0  0  0  0  0  0  0  0  0  0  0
   -3.6820   15.1270   -1.1400 C   0  0  2  0  0  0  0  0  0  0  0  0
   -3.0060   14.8520   -3.1330 I   0  0  0  0  0  0  0  0  0  0  0  0
   -2.6820   14.7280   -0.1160 C   0  0  0  0  0  0  0  0  0  0  0  0
   -4.6640   14.1710   -4.2180 C   0  0  0  0  0  0  0  0  0  0  0  0
   -5.7730   13.7320   -5.0360 C   0  0  0  0  0  0  0  0  0  0  0  0
   -3.8630   14.7790   -5.2770 C   0  0  0  0  0  0  0  0  0  0  0  0
   -2.5740   15.4130   -5.0080 C   0  0  0  0  0  0  0  0  0  0  0  0
   -6.0650   13.8210   -6.3750 C   0  0  0  0  0  0  0  0  0  0  0  0
   -4.1590   14.8630   -6.6200 C   0  0  0  0  0  0  0  0  0  0  0  0
   -2.3600   16.7550   -4.8510 N   0  0  0  0  0  0  0  0  0  0  0  0
   -1.2860   14.8790   -4.8750 C   0  0  0  0  0  0  0  0  0  0  0  0
   -5.2280   14.4130   -7.2270 C   0  0  0  0  0  0  0  0  0  0  0  0
   -0.8980   13.4770   -4.9570 C   0  0  0  0  0  0  0  0  0  0  0  0
   -0.4040   15.9220   -4.6530 C   0  0  0  0  0  0  0  0  0  0  0  0
   -1.1080   17.0050   -4.6470 O   0  0  0  0  0  0  0  0  0  0  0  0
    1.0600   15.7900   -4.4670 C   0  0  0  0  0  0  0  0  0  0  0  0
   -0.5230   12.7670   -4.0000 O   0  0  0  0  0  0  0  0  0  0  0  0
   -0.9320   12.8820   -6.2400 O   0  0  0  0  0  0  0  0  0  0  0  0
  1  2  2  0
  2  3  1  0
  2  4  1  0
  3  5  1  0
  4  6  1  0
  6  7  1  6
  5  8  2  0
  6  8  1  0
  7  9  1  0
  9 10  2  0
  9 11  1  0
 11 12  1  0
 10 13  1  0
 11 14  2  0
 12 15  2  0
 12 16  1  0
 13 17  2  0
 14 17  1  0
 16 18  1  0
 16 19  2  0
 15 20  1  0
 19 20  1  0
 19 21  1  0
 18 22  2  0
 18 23  1  0
M  END
