diamond-x0766_0_A-mac-x0337
     RDKit          3D

 24 26  0  0  0  0  0  0  0  0999 V2000
    0.4540   12.1800   -2.8670 C   0  0  0  0  0  0  0  0  0  0  0  0
   -0.2250   11.0280   -3.0040 O   0  0  0  0  0  0  0  0  0  0  0  0
    1.3490   12.2790   -2.0540 O   0  0  0  0  0  0  0  0  0  0  0  0
   -0.0130   13.2750   -3.7870 C   0  0  2  0  0  0  0  0  0  0  0  0
    0.9340   13.4990   -4.9930 C   0  0  0  0  0  0  0  0  0  0  0  0
   -0.0000   14.6410   -3.1060 C   0  0  1  0  0  0  0  0  0  0  0  0
    1.2400   15.0070   -4.9910 C   0  0  0  0  0  0  0  0  0  0  0  0
    0.1030   15.6400   -4.2240 C   0  0  0  0  0  0  0  0  0  0  0  0
   -0.8630   15.0290   -1.9240 C   0  0  0  0  0  0  0  0  0  0  0  0
   -2.2230   15.2120   -1.6680 C   0  0  0  0  0  0  0  0  0  0  0  0
   -0.1670   15.2900   -0.7040 C   0  0  0  0  0  0  0  0  0  0  0  0
   -3.4240   15.0930   -2.4090 N   0  0  0  0  0  0  0  0  0  0  0  0
   -0.9590   15.6380    0.3370 C   0  0  0  0  0  0  0  0  0  0  0  0
   -2.5680   15.6770   -0.0880 S   0  0  0  0  0  0  0  0  0  0  0  0
   -4.3550   14.6560   -1.2680 S   0  0  1  0  0  0  0  0  0  0  0  0
   -4.0950   14.7700    0.1490 O   0  0  0  0  0  0  0  0  0  0  0  0
   -5.6990   15.6460   -1.4040 N   0  0  0  0  0  0  0  0  0  0  0  0
   -4.7540   12.9800   -1.5010 C   0  0  0  0  0  0  0  0  0  0  0  0
   -3.9260   12.2050   -2.3060 C   0  0  0  0  0  0  0  0  0  0  0  0
   -5.8800   12.4530   -0.8850 C   0  0  0  0  0  0  0  0  0  0  0  0
   -4.2410   10.8670   -2.5060 C   0  0  0  0  0  0  0  0  0  0  0  0
   -6.1930   11.1160   -1.0880 C   0  0  0  0  0  0  0  0  0  0  0  0
   -5.3790   10.3190   -1.9010 C   0  0  0  0  0  0  0  0  0  0  0  0
   -5.7290    8.8770   -2.1230 C   0  0  0  0  0  0  0  0  0  0  0  0
  1  2  1  0
  1  3  2  0
  4  1  1  1
  4  5  1  0
  4  6  1  0
  5  7  1  0
  6  8  1  0
  7  8  1  0
  6  9  1  6
  9 10  2  0
  9 11  1  0
 10 12  1  0
 11 13  2  0
 10 14  1  0
 13 14  1  0
 12 15  2  0
 15 16  2  0
 15 17  1  1
 15 18  1  0
 18 19  2  0
 18 20  1  0
 19 21  1  0
 20 22  2  0
 21 23  2  0
 22 23  1  0
 23 24  1  0
M  END
