diamond-x0591_0_A-mac-x0365
     RDKit          3D

 16 17  0  0  0  0  0  0  0  0999 V2000
   -5.8370   14.6350    0.9180 N   0  0  0  0  0  0  0  0  0  0  0  0
   -6.7590   14.5200    2.0210 C   0  0  0  0  0  0  0  0  0  0  0  0
   -6.3210   14.8730   -0.3450 C   0  0  0  0  0  0  0  0  0  0  0  0
   -7.4970   15.1200   -0.5720 O   0  0  0  0  0  0  0  0  0  0  0  0
   -5.3690   14.7990   -1.4810 C   0  0  0  0  0  0  0  0  0  0  0  0
   -3.9820   14.7690   -1.2260 C   0  0  0  0  0  0  0  0  0  0  0  0
   -5.8570   14.7560   -2.7820 C   0  0  0  0  0  0  0  0  0  0  0  0
   -3.0750   14.6860   -2.3100 C   0  0  0  0  0  0  0  0  0  0  0  0
   -4.9970   14.6700   -3.8700 C   0  0  0  0  0  0  0  0  0  0  0  0
   -1.5730   14.6350   -2.4120 C   0  0  0  0  0  0  0  0  0  0  0  0
   -3.6440   14.6340   -3.6040 C   0  0  0  0  0  0  0  0  0  0  0  0
   -0.9860   14.5430   -3.6310 N   0  0  0  0  0  0  0  0  0  0  0  0
   -2.2980   14.5330   -4.4120 S   0  0  0  0  0  0  0  0  0  0  0  0
   -0.7110   14.6690   -1.3890 O   0  0  0  0  0  0  0  0  0  0  0  0
   -1.6020   14.4030   -5.8300 O   0  0  0  0  0  0  0  0  0  0  0  0
   -2.9870   14.4640   -5.8710 O   0  0  0  0  0  0  0  0  0  0  0  0
  1  2  1  0
  1  3  1  0
  3  4  2  0
  3  5  1  0
  5  6  2  0
  5  7  1  0
  6  8  1  0
  7  9  2  0
  8 10  1  0
  8 11  2  0
  9 11  1  0
 10 12  2  0
 11 13  1  0
 12 13  1  0
 10 14  1  0
 13 15  2  0
 13 16  2  0
M  END
