diamond-x0722_0_A-mac-x0415
     RDKit          3D

 28 30  0  0  0  0  0  0  0  0999 V2000
   -4.9950   15.2270    2.0430 C   0  0  0  0  0  0  0  0  0  0  0  0
   -3.7630   14.9980    1.2940 C   0  0  0  0  0  0  0  0  0  0  0  0
   -2.6210   14.7110    1.9120 N   0  0  0  0  0  0  0  0  0  0  0  0
   -3.6310   15.0400   -0.1020 C   0  0  0  0  0  0  0  0  0  0  0  0
   -4.7140   15.3360   -1.0880 C   0  0  0  0  0  0  0  0  0  0  0  0
   -2.3040   14.7410   -0.3160 C   0  0  0  0  0  0  0  0  0  0  0  0
   -1.7440   14.5630    0.9260 N   0  0  0  0  0  0  0  0  0  0  0  0
   -0.3690   14.2410    1.2530 C   0  0  0  0  0  0  0  0  0  0  0  0
   -1.5410   14.6070   -1.5700 C   0  0  0  0  0  0  0  0  0  0  0  0
   -6.0380   14.6840   -0.7270 C   0  0  0  0  0  0  0  0  0  0  0  0
   -7.1240   15.2410   -0.8540 O   0  0  0  0  0  0  0  0  0  0  0  0
   -5.9750   13.4110   -0.2340 N   0  0  0  0  0  0  0  0  0  0  0  0
   -0.8340   13.2790   -1.5380 C   0  0  0  0  0  0  0  0  0  0  0  0
    0.6400   13.4950   -1.2690 C   0  0  0  0  0  0  0  0  0  0  0  0
    1.3330   12.6650   -2.2200 N   0  0  0  0  0  0  0  0  0  0  0  0
    0.6420   12.3150   -3.2220 C   0  0  0  0  0  0  0  0  0  0  0  0
    0.5140   10.9840   -3.2540 O   0  0  0  0  0  0  0  0  0  0  0  0
    0.9780   12.7500   -4.6210 C   0  0  0  0  0  0  0  0  0  0  0  0
    0.7410   14.2060   -4.5740 C   0  0  0  0  0  0  0  0  0  0  0  0
    1.7650   15.2280   -4.3720 C   0  0  0  0  0  0  0  0  0  0  0  0
   -0.3330   14.9730   -4.6940 C   0  0  0  0  0  0  0  0  0  0  0  0
    1.4030   16.4740   -4.3540 N   0  0  0  0  0  0  0  0  0  0  0  0
   -0.0230   16.4010   -4.4680 C   0  0  1  0  0  0  0  0  0  0  0  0
   -1.6960   14.6460   -4.9650 C   0  0  0  0  0  0  0  0  0  0  0  0
   -0.7840   17.3580   -5.3170 C   0  0  0  0  0  0  0  0  0  0  0  0
   -2.4840   15.5980   -5.5000 C   0  0  0  0  0  0  0  0  0  0  0  0
   -4.2470   15.1770   -5.9200 Br  0  0  0  0  0  0  0  0  0  0  0  0
   -1.9800   16.9570   -5.7940 C   0  0  0  0  0  0  0  0  0  0  0  0
  1  2  1  0
  2  3  2  0
  2  4  1  0
  4  5  1  0
  4  6  2  0
  3  7  1  0
  6  7  1  0
  7  8  1  0
  6  9  1  0
  5 10  1  0
 10 11  2  0
 10 12  1  0
  9 13  1  0
 13 14  1  0
 14 15  1  0
 15 16  2  3
 16 17  1  0
 16 18  1  0
 18 19  1  0
 19 20  1  0
 19 21  2  0
 20 22  2  0
 21 23  1  0
 22 23  1  0
 21 24  1  0
 23 25  1  6
 24 26  2  0
 26 27  1  0
 25 28  2  0
 26 28  1  0
M  END
