diamond-x0967_0_A-diamond-x1018_0_A
     RDKit          3D

 10 11  0  0  0  0  0  0  0  0999 V2000
   -7.0960   14.6670   -0.7590 N   0  0  0  0  0  0  0  0  0  0  0  0
   -7.8680   14.5670    0.3480 C   0  0  0  0  0  0  0  0  0  0  0  0
   -7.3720   14.5920    1.6320 C   0  0  0  0  0  0  0  0  0  0  0  0
   -5.7740   14.7930   -0.6210 C   0  0  0  0  0  0  0  0  0  0  0  0
   -5.1840   14.8250    0.6600 C   0  0  0  0  0  0  0  0  0  0  0  0
   -5.0260   14.8880   -1.7170 N   0  0  0  0  0  0  0  0  0  0  0  0
   -6.0030   14.7250    1.7870 C   0  0  0  0  0  0  0  0  0  0  0  0
   -3.6900   15.0110   -1.5850 C   0  0  0  0  0  0  0  0  0  0  0  0
   -3.7980   14.9550    0.7770 C   0  0  0  0  0  0  0  0  0  0  0  0
   -3.0350   15.0470   -0.3700 C   0  0  0  0  0  0  0  0  0  0  0  0
  1  2  2  0
  2  3  1  0
  1  4  1  0
  4  5  2  0
  4  6  1  0
  3  7  2  0
  5  7  1  0
  6  8  2  0
  5  9  1  0
  8 10  1  0
  9 10  2  0
M  END
