diamond-x1018_0_A-mac-x0387
     RDKit          3D

 16 18  0  0  0  0  0  0  0  0999 V2000
   -8.3920   13.8270    0.5660 Cl  0  0  0  0  0  0  0  0  0  0  0  0
   -6.7770   14.4980    0.2480 C   0  0  1  0  0  0  0  0  0  0  0  0
   -5.8250   14.1900    1.3900 C   0  0  0  0  0  0  0  0  0  0  0  0
   -6.2950   14.0190   -1.0380 N   0  0  0  0  0  0  0  0  0  0  0  0
   -5.0060   14.6230   -1.0760 N   0  0  0  0  0  0  0  0  0  0  0  0
   -4.5190   13.8940    1.1650 C   0  0  0  0  0  0  0  0  0  0  0  0
   -4.3880   14.8300   -2.3010 N   0  0  0  0  0  0  0  0  0  0  0  0
   -4.0030   13.8830   -0.2620 C   0  0  2  0  0  0  0  0  0  0  0  0
   -2.7140   14.6670   -0.6530 C   0  0  1  0  0  0  0  0  0  0  0  0
   -3.1350   15.4340   -1.8890 N   0  0  0  0  0  0  0  0  0  0  0  0
   -2.3960   15.5700    0.5880 C   0  0  1  0  0  0  0  0  0  0  0  0
   -1.4460   13.8640   -0.9790 C   0  0  0  0  0  0  0  0  0  0  0  0
   -3.5930   16.0610    1.2580 N   0  0  0  0  0  0  0  0  0  0  0  0
   -0.3770   13.8120   -0.1530 C   0  0  0  0  0  0  0  0  0  0  0  0
   -1.6340   14.9100    1.6290 N   0  0  0  0  0  0  0  0  0  0  0  0
   -0.3170   14.5050    1.1670 C   0  0  0  0  0  0  0  0  0  0  0  0
  2  1  1  1
  2  3  1  0
  2  4  1  0
  4  5  1  0
  3  6  2  0
  5  7  1  0
  5  8  1  0
  8  6  1  1
  8  9  1  0
  7 10  1  0
  9 10  1  0
  9 11  1  0
  9 12  1  6
 11 13  1  1
 12 14  2  0
 11 15  1  0
 14 16  1  0
 15 16  1  0
M  END
