diamond-x0592_0_A-mac-x0360
     RDKit          3D

 20 21  0  0  0  0  0  0  0  0999 V2000
   -3.1750   14.2290    1.3160 N   0  0  0  0  0  0  0  0  0  0  0  0
   -3.6310   14.4490   -0.3030 S   0  0  0  0  0  0  0  0  0  0  0  0
   -2.9630   14.5160   -1.6370 O   0  0  0  0  0  0  0  0  0  0  0  0
   -3.3310   15.8150   -0.0250 O   0  0  0  0  0  0  0  0  0  0  0  0
   -5.3270   14.8390   -0.3560 C   0  0  0  0  0  0  0  0  0  0  0  0
   -4.4730   13.0370   -0.4670 C   0  0  0  0  0  0  0  0  0  0  0  0
   -6.0570   15.3800   -1.3760 C   0  0  0  0  0  0  0  0  0  0  0  0
   -6.1860   14.6120    0.6620 C   0  0  0  0  0  0  0  0  0  0  0  0
   -4.3050   12.1340   -1.4890 C   0  0  0  0  0  0  0  0  0  0  0  0
   -5.4850   12.7030    0.4560 C   0  0  0  0  0  0  0  0  0  0  0  0
   -7.3250   15.4490   -0.9470 N   0  0  0  0  0  0  0  0  0  0  0  0
   -7.3970   14.9790    0.2860 N   0  0  0  0  0  0  0  0  0  0  0  0
   -5.0930   11.0230   -1.5710 C   0  0  0  0  0  0  0  0  0  0  0  0
   -6.2900   11.5920    0.3920 C   0  0  0  0  0  0  0  0  0  0  0  0
   -8.5890   14.8590    1.1440 C   0  0  0  0  0  0  0  0  0  0  0  0
   -7.5130   11.2870    1.5800 Cl  0  0  0  0  0  0  0  0  0  0  0  0
   -4.8520    9.8810   -2.8970 Cl  0  0  0  0  0  0  0  0  0  0  0  0
   -6.0530   10.7900   -0.6450 C   0  0  0  0  0  0  0  0  0  0  0  0
   -8.1440   14.2380    2.4830 C   0  0  0  0  0  0  0  0  0  0  0  0
   -7.2370   15.1250    3.1070 O   0  0  0  0  0  0  0  0  0  0  0  0
  1  2  1  0
  2  3  2  0
  2  4  1  0
  2  5  1  0
  2  6  1  0
  5  7  1  0
  5  8  2  0
  6  9  2  0
  6 10  1  0
  7 11  2  0
  8 12  1  0
 11 12  1  0
  9 13  1  0
 10 14  2  0
 12 15  1  0
 14 16  1  0
 13 17  1  0
 13 18  2  0
 14 18  1  0
 15 19  1  0
 19 20  1  0
M  END
