diamond-x1012_0_A-mac-x0375
     RDKit          3D

 21 22  0  0  0  0  0  0  0  0999 V2000
   -0.3780   18.3960   -5.0970 N   0  0  0  0  0  0  0  0  0  0  0  0
   -1.2680   17.4200   -4.8450 C   0  0  0  0  0  0  0  0  0  0  0  0
   -2.4500   17.6790   -4.8540 O   0  0  0  0  0  0  0  0  0  0  0  0
   -0.7450   16.1920   -4.5730 N   0  0  0  0  0  0  0  0  0  0  0  0
   -1.5700   15.0210   -4.2870 C   0  0  0  0  0  0  0  0  0  0  0  0
    0.6020   16.1990   -4.0060 C   0  0  0  0  0  0  0  0  0  0  0  0
   -0.7250   13.7720   -4.3880 C   0  0  0  0  0  0  0  0  0  0  0  0
    0.7130   15.1940   -2.8650 C   0  0  0  0  0  0  0  0  0  0  0  0
    0.5000   13.8340   -3.4640 C   0  0  0  0  0  0  0  0  0  0  0  0
    0.5950   12.6070   -2.5650 C   0  0  0  0  0  0  0  0  0  0  0  0
    0.7170   11.6450   -3.4920 N   0  0  0  0  0  0  0  0  0  0  0  0
    0.5740   12.5970   -1.3320 O   0  0  0  0  0  0  0  0  0  0  0  0
    0.9840   12.4800   -4.4570 C   0  0  0  0  0  0  0  0  0  0  0  0
    1.2500   12.2660   -5.9150 C   0  0  0  0  0  0  0  0  0  0  0  0
    0.8170   10.9980   -6.3060 O   0  0  0  0  0  0  0  0  0  0  0  0
   -0.4710   10.6030   -6.2170 C   0  0  0  0  0  0  0  0  0  0  0  0
   -0.6070    9.2580   -6.5330 C   0  0  0  0  0  0  0  0  0  0  0  0
   -1.5910   11.3490   -5.8730 C   0  0  0  0  0  0  0  0  0  0  0  0
   -1.8490    8.6410   -6.5070 C   0  0  0  0  0  0  0  0  0  0  0  0
   -2.8420   10.7300   -5.8490 C   0  0  0  0  0  0  0  0  0  0  0  0
   -2.9710    9.3800   -6.1630 C   0  0  0  0  0  0  0  0  0  0  0  0
  1  2  1  0
  2  3  2  0
  2  4  1  0
  4  5  1  0
  4  6  1  0
  5  7  1  0
  6  8  1  0
  7  9  1  0
  8  9  1  0
  9 10  1  0
 10 11  1  0
 10 12  2  0
 11 13  2  3
 13 14  1  0
 14 15  1  0
 15 16  1  0
 16 17  2  0
 16 18  1  0
 17 19  1  0
 18 20  2  0
 19 21  2  0
 20 21  1  0
M  END
