diamond-x0962_0_A-diamond-x0895_0_A
     RDKit          3D

  8  8  0  0  0  0  0  0  0  0999 V2000
   -2.0750   14.5190   -2.3350 N   0  0  0  0  0  0  0  0  0  0  0  0
   -2.7260   14.5990   -1.3820 C   0  0  0  0  0  0  0  0  0  0  0  0
   -3.5500   14.7970   -0.2710 C   0  0  0  0  0  0  0  0  0  0  0  0
   -3.1860   14.5230    1.1270 N   0  0  1  0  0  0  0  0  0  0  0  0
   -4.7950   15.2550   -0.3160 C   0  0  0  0  0  0  0  0  0  0  0  0
   -2.0350   15.0980    1.5720 O   0  0  0  0  0  0  0  0  0  0  0  0
   -4.4220   15.0600    1.7530 C   0  0  0  0  0  0  0  0  0  0  0  0
   -5.3450   15.3960    0.9180 N   0  0  0  0  0  0  0  0  0  0  0  0
  1  2  3  0
  2  3  1  0
  3  4  1  0
  3  5  2  0
  4  6  1  1
  4  7  1  0
  5  8  1  0
  7  8  2  0
M  CHG  2   4   1   6  -1
M  END
