diamond-x0685_1_A-diamond-x0844_0_A
     RDKit          3D

 23 24  0  0  0  0  0  0  0  0999 V2000
   -2.1750   10.9370   -4.8690 N   0  0  0  0  0  0  0  0  0  0  0  0
   -1.7110   12.1630   -4.1120 C   0  0  1  0  0  0  0  0  0  0  0  0
   -0.1910   12.3920   -4.2130 C   0  0  0  0  0  0  0  0  0  0  0  0
   -1.6690   10.4610   -6.2010 C   0  0  0  0  0  0  0  0  0  0  0  0
   -2.4390   13.5180   -4.4260 C   0  0  0  0  0  0  0  0  0  0  0  0
   -0.3760    9.6760   -6.2340 C   0  0  0  0  0  0  0  0  0  0  0  0
   -1.6770   11.4930   -7.3400 C   0  0  0  0  0  0  0  0  0  0  0  0
    0.6730   11.9280   -2.7160 S   0  0  0  0  0  0  0  0  0  0  0  0
   -3.6560   13.8870   -3.5450 C   0  0  0  0  0  0  0  0  0  0  0  0
   -0.2110    8.8560   -7.5240 C   0  0  0  0  0  0  0  0  0  0  0  0
   -1.1130   10.9340   -8.6620 C   0  0  0  0  0  0  0  0  0  0  0  0
    2.2120   12.2890   -2.9620 O   0  0  0  0  0  0  0  0  0  0  0  0
    0.4420   10.3530   -2.5210 O   0  0  0  0  0  0  0  0  0  0  0  0
    0.0610   12.7060   -1.4540 O   0  0  0  0  0  0  0  0  0  0  0  0
   -3.2980   14.7280   -2.4250 O   0  0  0  0  0  0  0  0  0  0  0  0
   -1.0250    9.4100   -8.6950 C   0  0  0  0  0  0  0  0  0  0  0  0
   -4.1060   14.4630   -1.2500 C   0  0  1  0  0  0  0  0  0  0  0  0
   -3.4800   14.9790    0.0090 C   0  0  0  0  0  0  0  0  0  0  0  0
   -5.5000   15.0570   -1.4120 C   0  0  0  0  0  0  0  0  0  0  0  0
   -4.2450   15.1610    1.0940 C   0  0  0  0  0  0  0  0  0  0  0  0
   -6.3080   14.9170   -0.1380 C   0  0  0  0  0  0  0  0  0  0  0  0
   -7.5360   14.8450   -0.1270 O   0  0  0  0  0  0  0  0  0  0  0  0
   -5.5770   14.8720    1.0270 N   0  0  0  0  0  0  0  0  0  0  0  0
  1  2  1  0
  2  3  1  6
  1  4  1  0
  2  5  1  0
  4  6  1  0
  4  7  1  0
  3  8  1  0
  5  9  1  0
  6 10  1  0
  7 11  1  0
  8 12  1  0
  8 13  1  0
  8 14  1  0
  9 15  1  0
 10 16  1  0
 11 16  1  0
 17 15  1  6
 17 18  1  0
 17 19  1  0
 18 20  2  0
 19 21  1  0
 21 22  2  0
 20 23  1  0
 21 23  1  0
M  END
