diamond-x0662_0_A-mac-x0255
     RDKit          3D

 30 33  0  0  0  0  0  0  0  0999 V2000
    5.2720    9.5080  -14.9370 C   0  0  0  0  0  0  0  0  0  0  0  0
    4.2280   10.0150  -14.0720 N   0  0  0  0  0  0  0  0  0  0  0  0
    3.5710   11.2050  -14.1770 C   0  0  0  0  0  0  0  0  0  0  0  0
    3.8200    9.2740  -13.0310 N   0  0  0  0  0  0  0  0  0  0  0  0
    2.6810   11.2360  -13.1280 C   0  0  0  0  0  0  0  0  0  0  0  0
    2.8610   10.0040  -12.4190 C   0  0  0  0  0  0  0  0  0  0  0  0
    2.1830    9.4780  -11.1850 C   0  0  0  0  0  0  0  0  0  0  0  0
    2.1400    8.2700  -10.9740 O   0  0  0  0  0  0  0  0  0  0  0  0
    1.6380   10.4420  -10.3070 N   0  0  0  0  0  0  0  0  0  0  0  0
    0.7720   10.1850   -9.1940 C   0  0  0  0  0  0  0  0  0  0  0  0
   -0.1540    9.1500   -9.2560 C   0  0  0  0  0  0  0  0  0  0  0  0
    0.8260   10.9820   -7.9940 C   0  0  0  0  0  0  0  0  0  0  0  0
   -1.0050    8.8960   -8.1880 C   0  0  0  0  0  0  0  0  0  0  0  0
   -0.0500   10.7380   -6.8960 C   0  0  0  0  0  0  0  0  0  0  0  0
   -0.1960   11.4640   -5.5390 C   0  0  0  0  0  0  0  0  0  0  0  0
   -0.9550    9.6740   -7.0360 C   0  0  0  0  0  0  0  0  0  0  0  0
   -1.2530   11.2050   -4.9810 O   0  0  0  0  0  0  0  0  0  0  0  0
    0.7010   12.3540   -4.8780 N   0  0  0  0  0  0  0  0  0  0  0  0
    0.8490   12.0050   -3.5180 C   0  0  0  0  0  0  0  0  0  0  0  0
    0.2820   13.7070   -4.9840 C   0  0  0  0  0  0  0  0  0  0  0  0
    1.4330   12.9470   -2.7280 O   0  0  0  0  0  0  0  0  0  0  0  0
    0.5110   10.9980   -2.9220 O   0  0  0  0  0  0  0  0  0  0  0  0
    0.9890   14.9070   -5.0210 C   0  0  0  0  0  0  0  0  0  0  0  0
   -1.3900   14.0260   -5.0780 S   0  0  0  0  0  0  0  0  0  0  0  0
    0.1540   16.0730   -5.1540 C   0  0  0  0  0  0  0  0  0  0  0  0
   -1.1930   15.7240   -5.1960 C   0  0  0  0  0  0  0  0  0  0  0  0
    0.4780   17.4440   -5.2510 C   0  0  0  0  0  0  0  0  0  0  0  0
   -2.2150   16.6790   -5.3280 C   0  0  0  0  0  0  0  0  0  0  0  0
   -0.5300   18.3880   -5.3930 C   0  0  0  0  0  0  0  0  0  0  0  0
   -1.8550   18.0200   -5.4310 C   0  0  0  0  0  0  0  0  0  0  0  0
  1  2  1  0
  2  3  1  0
  2  4  1  0
  3  5  2  0
  4  6  2  0
  5  6  1  0
  6  7  1  0
  7  8  2  0
  7  9  1  0
  9 10  1  0
 10 11  2  0
 10 12  1  0
 11 13  1  0
 12 14  2  0
 14 15  1  0
 13 16  2  0
 14 16  1  0
 15 17  2  0
 15 18  1  0
 18 19  1  0
 18 20  1  0
 19 21  1  0
 19 22  2  0
 20 23  2  0
 20 24  1  0
 23 25  1  0
 24 26  1  0
 25 26  2  0
 25 27  1  0
 26 28  1  0
 27 29  2  0
 28 30  2  0
 29 30  1  0
M  END
