diamond-x0967_0_A-diamond-x0465_0_A
     RDKit          3D

 26 28  0  0  0  0  0  0  0  0999 V2000
    1.9710   13.2700   -4.4060 C   0  0  0  0  0  0  0  0  0  0  0  0
    0.6250   12.5490   -4.2510 C   0  0  1  0  0  0  0  0  0  0  0  0
    0.6080   11.5570   -5.3040 O   0  0  0  0  0  0  0  0  0  0  0  0
    0.4790   11.8650   -2.8600 C   0  0  0  0  0  0  0  0  0  0  0  0
    0.3590   12.4320   -1.6890 N   0  0  0  0  0  0  0  0  0  0  0  0
    0.4700   10.5210   -2.9050 O   0  0  0  0  0  0  0  0  0  0  0  0
   -0.5530   10.8590   -5.5580 C   0  0  0  0  0  0  0  0  0  0  0  0
    0.3230   13.8860   -1.5160 C   0  0  0  0  0  0  0  0  0  0  0  0
   -0.6550    9.8660   -6.5480 C   0  0  0  0  0  0  0  0  0  0  0  0
   -1.6720   11.1630   -4.7850 C   0  0  0  0  0  0  0  0  0  0  0  0
    0.3910    9.5420   -7.3200 F   0  0  0  0  0  0  0  0  0  0  0  0
   -0.5650   14.1560   -0.2850 C   0  0  0  0  0  0  0  0  0  0  0  0
   -1.8530    9.1870   -6.7580 C   0  0  0  0  0  0  0  0  0  0  0  0
   -2.8760   10.4820   -4.9980 C   0  0  0  0  0  0  0  0  0  0  0  0
   -1.3550   15.4800   -0.3300 C   0  0  0  0  0  0  0  0  0  0  0  0
   -2.9680    9.4950   -5.9810 C   0  0  0  0  0  0  0  0  0  0  0  0
   -2.8590   15.2590   -0.3820 C   0  0  0  0  0  0  0  0  0  0  0  0
   -3.5360   15.1820   -1.5940 C   0  0  0  0  0  0  0  0  0  0  0  0
   -3.6410   15.1230    0.7690 C   0  0  0  0  0  0  0  0  0  0  0  0
   -5.0310   14.9160    0.6520 C   0  0  0  0  0  0  0  0  0  0  0  0
   -4.8730   14.9850   -1.7230 N   0  0  0  0  0  0  0  0  0  0  0  0
   -5.6190   14.8510   -0.6250 C   0  0  0  0  0  0  0  0  0  0  0  0
   -5.8480   14.7730    1.7780 C   0  0  0  0  0  0  0  0  0  0  0  0
   -6.9390   14.6530   -0.7650 N   0  0  0  0  0  0  0  0  0  0  0  0
   -7.2110   14.5670    1.6250 C   0  0  0  0  0  0  0  0  0  0  0  0
   -7.7060   14.5150    0.3380 C   0  0  0  0  0  0  0  0  0  0  0  0
  2  1  1  1
  2  3  1  0
  2  4  1  0
  4  5  2  3
  4  6  1  0
  3  7  1  0
  5  8  1  0
  7  9  2  0
  7 10  1  0
  9 11  1  0
  8 12  1  0
  9 13  1  0
 10 14  2  0
 12 15  1  0
 13 16  2  0
 14 16  1  0
 15 17  1  0
 17 18  2  0
 17 19  1  0
 19 20  2  0
 18 21  1  0
 20 22  1  0
 21 22  2  0
 20 23  1  0
 22 24  1  0
 23 25  2  0
 24 26  2  0
 25 26  1  0
M  END
