diamond-x0438_0_A-diamond-x0910_1_A
     RDKit          3D

 14 15  0  0  0  0  0  0  0  0999 V2000
   -8.1590   15.5180    3.8560 C   0  0  0  0  0  0  0  0  0  0  0  0
   -9.3840   15.3150    2.5730 S   0  0  0  0  0  0  0  0  0  0  0  0
  -10.6090   14.8240    3.1830 O   0  0  0  0  0  0  0  0  0  0  0  0
   -8.7650   14.0190    1.5090 C   0  0  0  0  0  0  0  0  0  0  0  0
   -9.4420   16.5290    1.7880 O   0  0  0  0  0  0  0  0  0  0  0  0
   -7.4170   14.3350    0.9690 C   0  0  0  0  0  0  0  0  0  0  0  0
   -7.1920   14.7140   -0.3360 N   0  0  0  0  0  0  0  0  0  0  0  0
   -6.2860   14.2920    1.6380 N   0  0  0  0  0  0  0  0  0  0  0  0
   -5.3010   14.6420    0.7490 C   0  0  0  0  0  0  0  0  0  0  0  0
   -5.8450   14.9130   -0.5000 C   0  0  0  0  0  0  0  0  0  0  0  0
   -5.0830   15.2930   -1.5970 C   0  0  0  0  0  0  0  0  0  0  0  0
   -3.9190   14.7450    0.9410 C   0  0  0  0  0  0  0  0  0  0  0  0
   -3.7030   15.3900   -1.3970 C   0  0  0  0  0  0  0  0  0  0  0  0
   -3.1260   15.1200   -0.1480 C   0  0  0  0  0  0  0  0  0  0  0  0
  2  1  1  0
  2  3  2  0
  2  4  1  0
  2  5  2  0
  4  6  1  0
  6  7  1  0
  6  8  2  0
  8  9  1  0
  7 10  1  0
  9 10  2  0
 10 11  1  0
  9 12  1  0
 11 13  2  0
 12 14  2  0
 13 14  1  0
M  END
