diamond-x0724_0_A-diamond-x0282_0_A
     RDKit          3D

 21 23  0  0  0  0  0  0  0  0999 V2000
   -8.8600   13.8180    4.5120 N   0  0  0  0  0  0  0  0  0  0  0  0
   -8.6880   13.6350    5.9440 C   0  0  0  0  0  0  0  0  0  0  0  0
   -8.2650   15.0720    4.0670 C   0  0  0  0  0  0  0  0  0  0  0  0
   -7.7210   14.9650    2.6970 C   0  0  0  0  0  0  0  0  0  0  0  0
   -6.3960   14.9480    2.3220 C   0  0  0  0  0  0  0  0  0  0  0  0
   -8.4220   14.8680    1.4770 C   0  0  0  0  0  0  0  0  0  0  0  0
   -7.6070   14.8060    0.4320 N   0  0  0  0  0  0  0  0  0  0  0  0
   -6.3700   14.8590    0.9740 N   0  0  0  0  0  0  0  0  0  0  0  0
   -5.2330   14.8190    0.0840 C   0  0  1  0  0  0  0  0  0  0  0  0
   -3.8850   15.2910    0.6900 C   0  0  0  0  0  0  0  0  0  0  0  0
   -5.1590   13.4440   -0.5490 C   0  0  1  0  0  0  0  0  0  0  0  0
   -6.5650   13.0040   -1.0460 C   0  0  0  0  0  0  0  0  0  0  0  0
   -2.5820   14.8440   -0.0670 C   0  0  1  0  0  0  0  0  0  0  0  0
   -4.0550   13.4170   -1.5680 C   0  0  0  0  0  0  0  0  0  0  0  0
   -7.6360   13.8740   -0.6640 O   0  0  0  0  0  0  0  0  0  0  0  0
   -2.9040   14.0470   -1.3230 C   0  0  0  0  0  0  0  0  0  0  0  0
   -1.8210   15.9260   -0.6540 N   0  0  0  0  0  0  0  0  0  0  0  0
   -1.7790   14.0230    0.8600 N   0  0  0  0  0  0  0  0  0  0  0  0
   -0.5040   15.4310   -1.0520 C   0  0  0  0  0  0  0  0  0  0  0  0
   -0.4340   14.2850    1.0700 C   0  0  0  0  0  0  0  0  0  0  0  0
    0.2330   14.9730    0.1460 C   0  0  0  0  0  0  0  0  0  0  0  0
  1  2  1  0
  1  3  1  0
  3  4  1  0
  4  5  2  0
  4  6  1  0
  6  7  2  0
  5  8  1  0
  7  8  1  0
  9  8  1  1
  9 10  1  0
  9 11  1  0
 11 12  1  6
 13 10  1  1
 11 14  1  0
 12 15  1  0
 13 16  1  0
 14 16  2  0
 13 17  1  0
 13 18  1  0
 17 19  1  0
 18 20  1  0
 19 21  1  0
 20 21  2  0
M  END
