diamond-x0742_0_A-diamond-x0933_0_A
     RDKit          3D

 17 19  0  0  0  0  0  0  0  0999 V2000
   -5.2360   11.9740   -0.9520 C   0  0  0  0  0  0  0  0  0  0  0  0
   -6.3390   11.4790   -0.0430 C   0  0  0  0  0  0  0  0  0  0  0  0
   -4.7870   11.2410   -1.8340 O   0  0  0  0  0  0  0  0  0  0  0  0
   -4.7120   13.3920   -0.7480 C   0  0  2  0  0  0  0  0  0  0  0  0
   -4.8180   13.6780    0.7820 C   0  0  2  0  0  0  0  0  0  0  0  0
   -5.6390   14.4360   -1.4300 C   0  0  0  0  0  0  0  0  0  0  0  0
   -3.3090   13.4870   -1.3820 C   0  0  0  0  0  0  0  0  0  0  0  0
   -6.2370   14.2460    0.8600 C   0  0  2  0  0  0  0  0  0  0  0  0
   -2.1850   13.8650   -0.4610 C   0  0  0  0  0  0  0  0  0  0  0  0
   -3.7590   14.6100    1.3590 C   0  0  0  0  0  0  0  0  0  0  0  0
   -6.2060   15.2460   -0.2930 C   0  0  0  0  0  0  0  0  0  0  0  0
   -6.4330   14.9030    2.1450 N   0  0  0  0  0  0  0  0  0  0  0  0
   -0.8800   13.7030   -0.8950 C   0  0  0  0  0  0  0  0  0  0  0  0
   -2.3870   14.3820    0.8300 C   0  0  0  0  0  0  0  0  0  0  0  0
   -1.3850   14.7050    1.6580 N   0  0  0  0  0  0  0  0  0  0  0  0
    0.1580   14.0400   -0.0560 C   0  0  0  0  0  0  0  0  0  0  0  0
   -0.1470   14.5260    1.1990 C   0  0  0  0  0  0  0  0  0  0  0  0
  1  2  1  0
  1  3  2  0
  4  1  1  1
  4  5  1  0
  4  6  1  0
  4  7  1  0
  5  8  1  0
  7  9  1  0
  5 10  1  6
  6 11  1  0
  8 11  1  0
  8 12  1  1
  9 13  2  0
  9 14  1  0
 10 14  1  0
 14 15  2  0
 13 16  1  0
 15 17  1  0
 16 17  2  0
M  END
