diamond-x0849_0_A-mac-x0387
     RDKit          3D

 17 19  0  0  0  0  0  0  0  0999 V2000
   -4.2220   15.0300   -2.9940 Br  0  0  0  0  0  0  0  0  0  0  0  0
   -3.8770   15.1510   -1.1390 C   0  0  0  0  0  0  0  0  0  0  0  0
   -2.6350   15.0270   -0.5080 C   0  0  0  0  0  0  0  0  0  0  0  0
   -5.0310   15.3700   -0.4010 C   0  0  0  0  0  0  0  0  0  0  0  0
   -2.6890   15.1410    0.8390 C   0  0  0  0  0  0  0  0  0  0  0  0
   -4.9170   15.4550    0.9520 C   0  0  0  0  0  0  0  0  0  0  0  0
   -1.2710   14.7740   -1.1370 C   0  0  0  0  0  0  0  0  0  0  0  0
   -3.7840   15.3510    1.5800 N   0  0  0  0  0  0  0  0  0  0  0  0
   -1.6030   14.9910    1.6060 N   0  0  0  0  0  0  0  0  0  0  0  0
   -0.1220   14.5870   -0.1620 C   0  0  0  0  0  0  0  0  0  0  0  0
   -1.3440   13.6410   -2.1390 C   0  0  0  0  0  0  0  0  0  0  0  0
   -1.0360   16.0320   -1.8580 C   0  0  0  0  0  0  0  0  0  0  0  0
   -2.2250   13.9410    2.1580 N   0  0  0  0  0  0  0  0  0  0  0  0
   -0.3600   14.7100    1.1300 C   0  0  0  0  0  0  0  0  0  0  0  0
   -1.9510   13.8530   -3.3140 C   0  0  0  0  0  0  0  0  0  0  0  0
   -1.6460   16.2350   -3.0260 C   0  0  0  0  0  0  0  0  0  0  0  0
   -2.5280   15.1990   -3.6290 C   0  0  0  0  0  0  0  0  0  0  0  0
  1  2  1  0
  2  3  2  0
  2  4  1  0
  3  5  1  0
  4  6  2  0
  3  7  1  0
  5  8  2  0
  6  8  1  0
  5  9  1  0
  7 10  1  0
  7 11  1  0
  7 12  1  0
  9 13  1  0
  9 14  1  0
 10 14  2  0
 11 15  2  0
 12 16  2  0
 15 17  1  0
 16 17  1  0
M  END
