diamond-x1012_0_A-diamond-x0926_0_A
     RDKit          3D

 21 22  0  0  0  0  0  0  0  0999 V2000
   -1.3970   17.7120   -4.7670 N   0  0  0  0  0  0  0  0  0  0  0  0
   -1.4540   16.3430   -4.7240 C   0  0  0  0  0  0  0  0  0  0  0  0
   -2.2950   15.4790   -4.3270 N   0  0  0  0  0  0  0  0  0  0  0  0
   -0.3750   15.6770   -5.1860 N   0  0  0  0  0  0  0  0  0  0  0  0
   -3.5820   15.4840   -3.7110 C   0  0  0  0  0  0  0  0  0  0  0  0
   -0.6870   14.2560   -5.4870 C   0  0  0  0  0  0  0  0  0  0  0  0
    0.8910   15.8400   -4.4580 C   0  0  0  0  0  0  0  0  0  0  0  0
   -3.5090   14.4720   -2.5710 C   0  0  0  0  0  0  0  0  0  0  0  0
   -0.9110   13.4040   -4.2540 C   0  0  0  0  0  0  0  0  0  0  0  0
    1.2610   14.5740   -3.6680 C   0  0  0  0  0  0  0  0  0  0  0  0
    0.0250   13.8210   -3.1410 C   0  0  0  0  0  0  0  0  0  0  0  0
   -3.7160   15.1690   -1.3130 N   0  0  0  0  0  0  0  0  0  0  0  0
    0.3980   12.6590   -2.2500 C   0  0  0  0  0  0  0  0  0  0  0  0
   -2.9500   15.0370   -0.1850 C   0  0  0  0  0  0  0  0  0  0  0  0
   -5.0330   15.5990   -1.1950 N   0  0  0  0  0  0  0  0  0  0  0  0
    0.4470   11.4450   -2.8300 O   0  0  0  0  0  0  0  0  0  0  0  0
    0.6220   12.7680   -1.0640 O   0  0  0  0  0  0  0  0  0  0  0  0
   -3.4930   14.9150    1.0230 C   0  0  0  0  0  0  0  0  0  0  0  0
   -5.7490   15.1550   -0.1310 C   0  0  0  0  0  0  0  0  0  0  0  0
   -6.9600   14.9520   -0.2270 O   0  0  0  0  0  0  0  0  0  0  0  0
   -4.9800   14.9060    1.1640 C   0  0  0  0  0  0  0  0  0  0  0  0
  1  2  1  0
  2  3  2  3
  2  4  1  0
  3  5  1  0
  4  6  1  0
  4  7  1  0
  5  8  1  0
  6  9  1  0
  7 10  1  0
  9 11  1  0
 10 11  1  0
  8 12  1  0
 11 13  1  0
 12 14  1  0
 12 15  1  0
 13 16  1  0
 13 17  2  0
 14 18  2  0
 15 19  1  0
 19 20  2  0
 18 21  1  0
 19 21  1  0
M  END
