diamond-x0471_0_A-diamond-x0438_0_A
     RDKit          3D

 18 19  0  0  0  0  0  0  0  0999 V2000
   -8.6150   13.8920    2.7840 N   0  0  0  0  0  0  0  0  0  0  0  0
   -9.5110   14.4510    3.7880 C   0  0  2  0  0  0  0  0  0  0  0  0
   -9.9080   15.8240    3.4110 N   0  0  0  0  0  0  0  0  0  0  0  0
   -8.7850   14.2750    1.3800 C   0  0  0  0  0  0  0  0  0  0  0  0
   -8.8310   14.3120    5.1840 C   0  0  0  0  0  0  0  0  0  0  0  0
   -7.4390   14.5320    0.8070 C   0  0  0  0  0  0  0  0  0  0  0  0
   -9.7440   13.5720    6.1630 C   0  0  0  0  0  0  0  0  0  0  0  0
   -8.3460   15.6290    5.8040 C   0  0  0  0  0  0  0  0  0  0  0  0
  -11.2470   15.6720    2.9000 O   0  0  0  0  0  0  0  0  0  0  0  0
   -9.1250   16.2760    2.2780 O   0  0  0  0  0  0  0  0  0  0  0  0
   -7.1810   14.8230   -0.5120 N   0  0  0  0  0  0  0  0  0  0  0  0
   -6.3280   14.5110    1.5000 N   0  0  0  0  0  0  0  0  0  0  0  0
   -5.3220   14.7850    0.6330 C   0  0  0  0  0  0  0  0  0  0  0  0
   -5.8230   14.9900   -0.6470 C   0  0  0  0  0  0  0  0  0  0  0  0
   -5.0100   15.2880   -1.7310 C   0  0  0  0  0  0  0  0  0  0  0  0
   -3.9500   14.8740    0.8750 C   0  0  0  0  0  0  0  0  0  0  0  0
   -3.6370   15.3720   -1.4770 C   0  0  0  0  0  0  0  0  0  0  0  0
   -3.1160   15.1660   -0.1940 C   0  0  0  0  0  0  0  0  0  0  0  0
  2  1  1  6
  2  3  1  0
  1  4  1  0
  2  5  1  0
  4  6  1  0
  5  7  1  0
  5  8  1  0
  3  9  1  0
  3 10  1  0
  6 11  1  0
  6 12  2  0
 12 13  1  0
 11 14  1  0
 13 14  2  0
 14 15  1  0
 13 16  1  0
 15 17  2  0
 16 18  2  0
 17 18  1  0
M  END
