diamond-x0722_0_A-mac-x0223
     RDKit          3D

 26 27  0  0  0  0  0  0  0  0999 V2000
   -4.9200   15.2510    1.9950 C   0  0  0  0  0  0  0  0  0  0  0  0
   -3.6810   14.9900    1.2620 C   0  0  0  0  0  0  0  0  0  0  0  0
   -2.5550   14.7160    1.9070 N   0  0  0  0  0  0  0  0  0  0  0  0
   -3.5170   14.9870   -0.1340 C   0  0  0  0  0  0  0  0  0  0  0  0
   -4.5920   15.2610   -1.1400 C   0  0  0  0  0  0  0  0  0  0  0  0
   -2.1750   14.6760   -0.3070 C   0  0  0  0  0  0  0  0  0  0  0  0
   -1.6520   14.5340    0.9500 N   0  0  0  0  0  0  0  0  0  0  0  0
   -0.2940   14.2220    1.3370 C   0  0  0  0  0  0  0  0  0  0  0  0
   -1.3480   14.4990   -1.5330 C   0  0  0  0  0  0  0  0  0  0  0  0
   -5.9370   14.6860   -0.7270 C   0  0  0  0  0  0  0  0  0  0  0  0
   -7.0100   15.2800   -0.8380 O   0  0  0  0  0  0  0  0  0  0  0  0
   -5.9110   13.4210   -0.2020 N   0  0  0  0  0  0  0  0  0  0  0  0
   -0.6370   13.1530   -1.4960 C   0  0  0  0  0  0  0  0  0  0  0  0
    0.5860   13.1940   -2.2300 O   0  0  0  0  0  0  0  0  0  0  0  0
    0.5270   12.4360   -3.3500 C   0  0  0  0  0  0  0  0  0  0  0  0
    0.7920   13.2710   -4.5820 C   0  0  0  0  0  0  0  0  0  0  0  0
    0.2770   11.2390   -3.3560 O   0  0  0  0  0  0  0  0  0  0  0  0
   -0.0550   14.5230   -4.6470 C   0  0  0  0  0  0  0  0  0  0  0  0
   -1.4670   14.4460   -4.6580 C   0  0  0  0  0  0  0  0  0  0  0  0
    0.5580   15.7870   -4.7000 C   0  0  0  0  0  0  0  0  0  0  0  0
   -0.2210   16.9390   -4.7620 C   0  0  0  0  0  0  0  0  0  0  0  0
   -2.2430   15.6090   -4.7210 C   0  0  0  0  0  0  0  0  0  0  0  0
    0.2180   18.2230   -4.8160 O   0  0  0  0  0  0  0  0  0  0  0  0
   -1.6030   16.8360   -4.7720 C   0  0  0  0  0  0  0  0  0  0  0  0
    1.2260   18.4580   -5.7750 C   0  0  0  0  0  0  0  0  0  0  0  0
   -2.3300   17.9940   -4.8290 O   0  0  0  0  0  0  0  0  0  0  0  0
  1  2  1  0
  2  3  2  0
  2  4  1  0
  4  5  1  0
  4  6  2  0
  3  7  1  0
  6  7  1  0
  7  8  1  0
  6  9  1  0
  5 10  1  0
 10 11  2  0
 10 12  1  0
  9 13  1  0
 13 14  1  0
 14 15  1  0
 15 16  1  0
 15 17  2  0
 16 18  1  0
 18 19  2  0
 18 20  1  0
 20 21  2  0
 19 22  1  0
 21 23  1  0
 21 24  1  0
 22 24  2  0
 23 25  1  0
 24 26  1  0
M  END
