diamond-x0895_0_A-diamond-x0950_1_A
     RDKit          3D

 16 16  0  0  0  0  0  0  0  0999 V2000
   -1.5280   14.5290    1.8270 O   0  0  0  0  0  0  0  0  0  0  0  0
   -2.4590   14.8500    1.1020 C   0  0  0  0  0  0  0  0  0  0  0  0
   -3.6830   15.6570    1.5210 C   0  0  0  0  0  0  0  0  0  0  0  0
   -2.6200   14.5630   -0.2370 N   0  0  0  0  0  0  0  0  0  0  0  0
   -1.5640   14.3110   -1.2100 C   0  0  0  0  0  0  0  0  0  0  0  0
   -4.5910   15.1750    0.5390 N   0  0  0  0  0  0  0  0  0  0  0  0
   -3.8770   14.9610   -0.6060 C   0  0  0  0  0  0  0  0  0  0  0  0
   -4.3210   15.1160   -1.7240 O   0  0  0  0  0  0  0  0  0  0  0  0
   -0.3190   13.5870   -0.6870 C   0  0  0  0  0  0  0  0  0  0  0  0
    0.9630   13.9670   -1.4360 C   0  0  0  0  0  0  0  0  0  0  0  0
    1.6180   12.8290   -2.0330 O   0  0  0  0  0  0  0  0  0  0  0  0
    0.9600   12.1160   -2.9820 C   0  0  0  0  0  0  0  0  0  0  0  0
    1.3550   12.5370   -4.4060 C   0  0  2  0  0  0  0  0  0  0  0  0
    0.1510   11.2220   -2.7430 O   0  0  0  0  0  0  0  0  0  0  0  0
    1.0710   13.9980   -4.7130 C   0  0  0  0  0  0  0  0  0  0  0  0
    0.6610   11.7420   -5.3730 O   0  0  0  0  0  0  0  0  0  0  0  0
  1  2  2  0
  2  3  1  0
  2  4  1  0
  4  5  1  0
  3  6  1  0
  4  7  1  0
  6  7  1  0
  7  8  2  0
  5  9  1  0
  9 10  1  0
 10 11  1  0
 11 12  1  0
 12 13  1  0
 12 14  2  0
 13 15  1  6
 13 16  1  0
M  END
