diamond-x0471_0_A-mac-x0224
     RDKit          3D

 28 30  0  0  0  0  0  0  0  0999 V2000
   -7.8980   14.6090    2.9330 N   0  0  0  0  0  0  0  0  0  0  0  0
   -8.8720   15.2650    3.6570 C   0  0  0  0  0  0  0  0  0  0  0  0
   -9.6040   16.1160    3.1520 O   0  0  0  0  0  0  0  0  0  0  0  0
   -8.2080   14.0350    1.6380 C   0  0  0  0  0  0  0  0  0  0  0  0
   -9.0400   14.8650    5.1200 C   0  0  0  0  0  0  0  0  0  0  0  0
   -7.1760   14.4290    0.6160 C   0  0  0  0  0  0  0  0  0  0  0  0
   -9.1960   13.3590    5.2810 C   0  0  0  0  0  0  0  0  0  0  0  0
   -7.9210   15.4130    5.9910 C   0  0  0  0  0  0  0  0  0  0  0  0
   -7.4450   14.6230   -0.6670 N   0  0  0  0  0  0  0  0  0  0  0  0
   -5.8210   14.6320    0.8180 N   0  0  0  0  0  0  0  0  0  0  0  0
   -5.0130   14.5270    1.9630 C   0  0  0  0  0  0  0  0  0  0  0  0
   -5.2340   14.9580   -0.3150 C   0  0  0  0  0  0  0  0  0  0  0  0
   -6.2350   14.9340   -1.2460 C   0  0  0  0  0  0  0  0  0  0  0  0
   -3.1720   14.5290    1.7120 S   0  0  0  0  0  0  0  0  0  0  0  0
   -5.8860   15.2040   -2.5590 C   0  0  0  0  0  0  0  0  0  0  0  0
   -3.9090   15.2530   -0.5690 C   0  0  0  0  0  0  0  0  0  0  0  0
   -4.5440   15.4790   -2.8530 C   0  0  0  0  0  0  0  0  0  0  0  0
   -3.5860   15.5060   -1.8720 C   0  0  0  0  0  0  0  0  0  0  0  0
   -2.7910   14.1830   -0.0160 C   0  0  0  0  0  0  0  0  0  0  0  0
   -1.4660   14.3700   -0.4600 C   0  0  0  0  0  0  0  0  0  0  0  0
   -3.7480   13.7400   -0.9470 C   0  0  0  0  0  0  0  0  0  0  0  0
   -1.1090   14.1300   -1.8000 C   0  0  0  0  0  0  0  0  0  0  0  0
   -3.3900   13.5070   -2.2850 C   0  0  0  0  0  0  0  0  0  0  0  0
    0.3000   14.3360   -2.1890 C   0  0  0  0  0  0  0  0  0  0  0  0
   -2.0790   13.7060   -2.7080 C   0  0  0  0  0  0  0  0  0  0  0  0
   -1.8240   13.4580   -4.0310 O   0  0  0  0  0  0  0  0  0  0  0  0
    1.1790   14.7910   -1.4970 O   0  0  0  0  0  0  0  0  0  0  0  0
    0.5470   13.9450   -3.4560 O   0  0  0  0  0  0  0  0  0  0  0  0
  1  2  1  0
  2  3  2  0
  1  4  1  0
  2  5  1  0
  4  6  1  0
  5  7  1  0
  5  8  1  0
  6  9  2  0
  6 10  1  0
 10 11  1  0
 10 12  1  0
  9 13  1  0
 12 13  2  0
 11 14  1  0
 13 15  1  0
 12 16  1  0
 15 17  2  0
 16 18  2  0
 17 18  1  0
 14 19  1  0
 19 20  2  0
 19 21  1  0
 20 22  1  0
 21 23  2  0
 22 24  1  0
 22 25  2  0
 23 25  1  0
 25 26  1  0
 24 27  2  0
 24 28  1  0
M  END
