diamond-x0910_1_A-mac-x0301
     RDKit          3D

 17 19  0  0  0  0  0  0  0  0999 V2000
   -7.2700   13.7640    0.3970 N   0  0  0  0  0  0  0  0  0  0  0  0
   -6.1860   14.6200    0.7300 C   0  0  2  0  0  0  0  0  0  0  0  0
   -5.9500   15.5610   -0.3120 N   0  0  0  0  0  0  0  0  0  0  0  0
   -4.9510   13.8860    0.7260 N   0  0  0  0  0  0  0  0  0  0  0  0
   -4.6270   16.0330    0.0810 N   0  0  0  0  0  0  0  0  0  0  0  0
   -3.9770   14.7440   -0.0210 C   0  0  1  0  0  0  0  0  0  0  0  0
   -2.4300   14.4570    0.4080 C   0  0  1  0  0  0  0  0  0  0  0  0
   -4.1340   14.6060   -1.5240 C   0  0  0  0  0  0  0  0  0  0  0  0
   -1.4780   14.1690   -0.7820 C   0  0  1  0  0  0  0  0  0  0  0  0
   -3.1500   14.7570   -2.4140 C   0  0  0  0  0  0  0  0  0  0  0  0
   -1.6280   15.2790    1.2900 O   0  0  0  0  0  0  0  0  0  0  0  0
   -1.7450   15.0480   -1.9960 C   0  0  2  0  0  0  0  0  0  0  0  0
   -0.1460   14.2890   -0.2670 O   0  0  0  0  0  0  0  0  0  0  0  0
   -0.2970   14.7580    1.0790 C   0  0  0  0  0  0  0  0  0  0  0  0
   -0.8440   14.6480   -3.1610 C   0  0  0  0  0  0  0  0  0  0  0  0
    0.4650   14.6240   -2.8650 O   0  0  0  0  0  0  0  0  0  0  0  0
   -1.2030   14.3580   -4.2950 O   0  0  0  0  0  0  0  0  0  0  0  0
  2  1  1  6
  2  3  1  0
  2  4  1  0
  3  5  1  0
  4  6  1  0
  5  6  1  0
  6  7  1  0
  6  8  1  6
  7  9  1  0
  8 10  2  0
  7 11  1  6
  9 12  1  0
 10 12  1  0
  9 13  1  1
 11 14  1  0
 13 14  1  0
 12 15  1  6
 15 16  1  0
 15 17  2  0
M  END
