diamond-x0729_0_A-diamond-x0933_4_B
     RDKit          3D

 21 22  0  0  0  0  0  0  0  0999 V2000
   19.7930   25.4390    5.7370 C   0  0  0  0  0  0  0  0  0  0  0  0
   20.7710   26.5220    6.1990 C   0  0  2  0  0  0  0  0  0  0  0  0
   20.4950   27.2660    7.4550 N   0  0  0  0  0  0  0  0  0  0  0  0
   21.2160   27.4330    5.0200 C   0  0  1  0  0  0  0  0  0  0  0  0
   20.3040   27.4710    3.8500 C   0  0  0  0  0  0  0  0  0  0  0  0
   19.2520   26.9580    8.6070 S   0  0  2  0  0  0  0  0  0  0  0  0
   21.7000   27.9420    7.9280 C   0  0  0  0  0  0  0  0  0  0  0  0
   21.5310   28.8350    5.5400 C   0  0  0  0  0  0  0  0  0  0  0  0
   18.1480   26.3610    7.9000 O   0  0  0  0  0  0  0  0  0  0  0  0
   19.6500   27.4800    2.8930 N   0  0  0  0  0  0  0  0  0  0  0  0
   19.1780   28.3090    9.3070 N   0  0  0  0  0  0  0  0  0  0  0  0
   19.8160   25.7510    9.7730 C   0  0  0  0  0  0  0  0  0  0  0  0
   22.3250   28.8240    6.8500 C   0  0  0  0  0  0  0  0  0  0  0  0
   18.8830   29.4850    8.4690 C   0  0  0  0  0  0  0  0  0  0  0  0
   17.4000   29.9130    8.6000 C   0  0  1  0  0  0  0  0  0  0  0  0
   17.2070   31.3610    8.7490 N   0  0  0  0  0  0  0  0  0  0  0  0
   16.5070   29.2750    7.5100 C   0  0  0  0  0  0  0  0  0  0  0  0
   16.9150   32.1470    7.6040 C   0  0  1  0  0  0  0  0  0  0  0  0
   15.9620   30.2880    6.5230 C   0  0  0  0  0  0  0  0  0  0  0  0
   17.9830   33.0740    7.4860 N   0  0  0  0  0  0  0  0  0  0  0  0
   16.8720   31.4140    6.3820 N   0  0  0  0  0  0  0  0  0  0  0  0
  2  1  1  6
  2  3  1  0
  2  4  1  0
  4  5  1  6
  3  6  1  0
  3  7  1  0
  4  8  1  0
  6  9  2  0
  5 10  3  0
  6 11  2  0
  6 12  1  1
  7 13  1  0
  8 13  1  0
 11 14  1  0
 15 14  1  6
 15 16  1  0
 15 17  1  0
 16 18  1  0
 17 19  1  0
 18 20  1  6
 18 21  1  0
 19 21  1  0
M  END
