diamond-x0421_0_A-mac-x0302
     RDKit          3D

 16 17  0  0  0  0  0  0  0  0999 V2000
   -3.7340   15.2200   -3.0720 N   0  0  0  0  0  0  0  0  0  0  0  0
   -3.0500   14.9230   -1.9310 C   0  0  0  0  0  0  0  0  0  0  0  0
   -1.7870   14.6560   -2.0610 N   0  0  0  0  0  0  0  0  0  0  0  0
   -3.6900   14.9040   -0.6480 C   0  0  0  0  0  0  0  0  0  0  0  0
   -0.9980   14.6320   -3.2890 C   0  0  0  0  0  0  0  0  0  0  0  0
   -3.0460   15.0030    0.5730 C   0  0  0  0  0  0  0  0  0  0  0  0
   -5.0220   14.7840   -0.2980 N   0  0  0  0  0  0  0  0  0  0  0  0
    0.4040   14.1440   -2.9060 C   0  0  0  0  0  0  0  0  0  0  0  0
   -6.1510   14.6500   -1.1140 O   0  0  0  0  0  0  0  0  0  0  0  0
   -3.9200   14.9440    1.6100 N   0  0  0  0  0  0  0  0  0  0  0  0
   -5.1020   14.8060    1.0600 C   0  0  0  0  0  0  0  0  0  0  0  0
    1.3570   14.4130   -3.8380 O   0  0  0  0  0  0  0  0  0  0  0  0
    0.6880   13.5630   -1.8710 O   0  0  0  0  0  0  0  0  0  0  0  0
   -6.4210   14.6750    1.8630 C   0  0  0  0  0  0  0  0  0  0  0  0
   -7.7510   14.6840    1.1510 C   0  0  0  0  0  0  0  0  0  0  0  0
   -7.2050   13.4010    1.7020 C   0  0  0  0  0  0  0  0  0  0  0  0
  1  2  1  0
  2  3  2  3
  2  4  1  0
  3  5  1  0
  4  6  2  0
  4  7  1  0
  5  8  1  0
  7  9  1  0
  6 10  1  0
  7 11  1  0
 10 11  2  0
  8 12  1  0
  8 13  2  0
 11 14  1  0
 14 15  1  0
 14 16  1  0
 15 16  1  0
M  END
