diamond-x0423_0_B-diamond-x0918_4_B
     RDKit          3D

 15 16  0  0  0  0  0  0  0  0999 V2000
   14.1840   26.1270   15.3810 N   0  0  0  0  0  0  0  0  0  0  0  0
   12.9060   26.8170   15.3990 C   0  0  0  0  0  0  0  0  0  0  0  0
   14.3960   25.3680   14.1410 C   0  0  2  0  0  0  0  0  0  0  0  0
   13.5060   24.1020   13.9610 C   0  0  0  0  0  0  0  0  0  0  0  0
   15.8740   24.9570   14.0700 C   0  0  0  0  0  0  0  0  0  0  0  0
   14.3320   22.9910   13.4330 N   0  0  0  0  0  0  0  0  0  0  0  0
   16.1950   24.3180   12.7160 C   0  0  0  0  0  0  0  0  0  0  0  0
   15.1130   23.3450   12.2570 C   0  0  0  0  0  0  0  0  0  0  0  0
   13.6310   21.7550   13.2730 C   0  0  0  0  0  0  0  0  0  0  0  0
   12.5440   21.5290   14.1080 C   0  0  0  0  0  0  0  0  0  0  0  0
   14.0070   20.8310   12.3590 N   0  0  0  0  0  0  0  0  0  0  0  0
   12.1870   22.5070   15.0400 N   0  0  0  0  0  0  0  0  0  0  0  0
   13.3210   19.6570   12.2460 N   0  0  0  0  0  0  0  0  0  0  0  0
   11.8480   20.3360   13.9960 C   0  0  0  0  0  0  0  0  0  0  0  0
   12.2690   19.4290   13.0550 C   0  0  0  0  0  0  0  0  0  0  0  0
  1  2  1  0
  3  1  1  1
  3  4  1  0
  3  5  1  0
  4  6  1  0
  5  7  1  0
  6  8  1  0
  7  8  1  0
  6  9  1  0
  9 10  2  0
  9 11  1  0
 10 12  1  0
 11 13  2  0
 10 14  1  0
 13 15  1  0
 14 15  2  0
M  END
