diamond-x0805_0_A-mac-x0588
     RDKit          3D

 27 30  0  0  0  0  0  0  0  0999 V2000
   -4.0700   15.8820    0.9750 C   0  0  0  0  0  0  0  0  0  0  0  0
   -3.5530   15.9550   -0.3430 O   0  0  0  0  0  0  0  0  0  0  0  0
   -3.2450   14.6480   -0.8110 C   0  0  1  0  0  0  0  0  0  0  0  0
   -4.2660   14.2760   -1.8400 C   0  0  0  0  0  0  0  0  0  0  0  0
   -1.7290   14.5010   -1.2000 C   0  0  2  0  0  0  0  0  0  0  0  0
   -3.9920   14.0250   -3.1110 C   0  0  0  0  0  0  0  0  0  0  0  0
   -1.4820   13.8100   -2.6280 C   0  0  1  0  0  0  0  0  0  0  0  0
   -1.1990   13.7040   -0.0230 C   0  0  0  0  0  0  0  0  0  0  0  0
   -0.8910   15.7380   -0.9580 N   0  0  0  0  0  0  0  0  0  0  0  0
   -2.6000   14.1000   -3.6670 C   0  0  2  0  0  0  0  0  0  0  0  0
   -0.0540   13.9230   -3.2920 C   0  0  2  0  0  0  0  0  0  0  0  0
   -1.1260   14.6760    1.0530 N   0  0  0  0  0  0  0  0  0  0  0  0
   -0.3200   15.6460    0.3840 C   0  0  0  0  0  0  0  0  0  0  0  0
   -2.2970   15.3520   -4.5410 C   0  0  0  0  0  0  0  0  0  0  0  0
    0.9960   12.8600   -3.0500 C   0  0  1  0  0  0  0  0  0  0  0  0
    0.7080   15.2060   -3.0070 C   0  0  0  0  0  0  0  0  0  0  0  0
    0.5200   11.4710   -2.7590 C   0  0  0  0  0  0  0  0  0  0  0  0
    2.0120   12.8800   -4.1800 C   0  0  0  0  0  0  0  0  0  0  0  0
    1.8870   15.2940   -3.9750 C   0  0  0  0  0  0  0  0  0  0  0  0
   -1.2550   16.3920   -4.0730 C   0  0  2  0  0  0  0  0  0  0  0  0
    0.1070   10.7360   -3.7920 O   0  0  0  0  0  0  0  0  0  0  0  0
    0.4920   11.0080   -1.6370 O   0  0  0  0  0  0  0  0  0  0  0  0
    2.6890   14.1220   -4.1380 O   0  0  0  0  0  0  0  0  0  0  0  0
   -1.7550   17.7130   -4.3720 O   0  0  0  0  0  0  0  0  0  0  0  0
    0.0860   16.2700   -4.8280 C   0  0  0  0  0  0  0  0  0  0  0  0
    0.3950   17.6740   -5.2850 C   0  0  0  0  0  0  0  0  0  0  0  0
   -0.9940   18.2340   -5.4580 C   0  0  0  0  0  0  0  0  0  0  0  0
  1  2  1  0
  3  2  1  6
  3  4  1  0
  3  5  1  0
  4  6  2  0
  5  7  1  0
  5  8  1  1
  5  9  1  0
  6 10  1  0
  7 10  1  6
  7 11  1  0
  8 12  1  0
  9 13  1  0
 12 13  1  0
 10 14  1  1
 11 15  1  0
 11 16  1  1
 15 17  1  6
 15 18  1  0
 16 19  1  0
 20 14  1  6
 17 21  1  0
 17 22  2  0
 18 23  1  0
 19 23  1  0
 20 24  1  0
 20 25  1  0
 25 26  1  0
 24 27  1  0
 26 27  1  0
M  END
