diamond-x0900_1_A-mac-x0137
     RDKit          3D

 25 28  0  0  0  0  0  0  0  0999 V2000
   -1.0630    9.9910   -9.6290 O   0  0  0  0  0  0  0  0  0  0  0  0
   -0.8670    9.5510   -8.5100 C   0  0  0  0  0  0  0  0  0  0  0  0
    0.1070    8.6450   -8.1510 N   0  0  0  0  0  0  0  0  0  0  0  0
   -1.6080    9.8560   -7.2310 C   0  0  1  0  0  0  0  0  0  0  0  0
   -2.9260   10.6240   -7.3460 C   0  0  0  0  0  0  0  0  0  0  0  0
   -1.6200    8.4740   -6.5760 C   0  0  0  0  0  0  0  0  0  0  0  0
   -0.2630    7.9090   -6.9680 C   0  0  0  0  0  0  0  0  0  0  0  0
   -3.1010   11.8750   -6.4740 C   0  0  0  0  0  0  0  0  0  0  0  0
   -3.2350   11.6010   -4.9700 C   0  0  0  0  0  0  0  0  0  0  0  0
   -2.9250   12.7760   -4.2030 O   0  0  0  0  0  0  0  0  0  0  0  0
   -1.7410   13.4620   -4.6130 C   0  0  1  0  0  0  0  0  0  0  0  0
   -1.4480   14.6040   -3.6120 C   0  0  0  0  0  0  0  0  0  0  0  0
   -0.5730   12.4590   -4.7550 C   0  0  0  0  0  0  0  0  0  0  0  0
   -0.6410   14.1950   -2.4370 N   0  0  0  0  0  0  0  0  0  0  0  0
    0.1190   12.1230   -3.4380 C   0  0  0  0  0  0  0  0  0  0  0  0
    0.5510   13.3920   -2.7360 C   0  0  0  0  0  0  0  0  0  0  0  0
   -1.0730   14.4100   -1.1220 C   0  0  0  0  0  0  0  0  0  0  0  0
   -0.1400   14.2120   -0.1210 N   0  0  0  0  0  0  0  0  0  0  0  0
   -2.2910   14.8080   -0.6910 C   0  0  0  0  0  0  0  0  0  0  0  0
   -0.4640   14.2890    1.2050 C   0  0  0  0  0  0  0  0  0  0  0  0
   -2.5290   14.9710    0.7670 C   0  0  0  0  0  0  0  0  0  0  0  0
   -3.5600   15.1820   -1.2490 C   0  0  0  0  0  0  0  0  0  0  0  0
   -1.5930   14.6370    1.6960 N   0  0  0  0  0  0  0  0  0  0  0  0
   -3.7080   15.4430    1.0370 N   0  0  0  0  0  0  0  0  0  0  0  0
   -4.3130   15.5550   -0.2030 C   0  0  0  0  0  0  0  0  0  0  0  0
  1  2  2  0
  2  3  1  0
  2  4  1  0
  4  5  1  6
  4  6  1  0
  3  7  1  0
  6  7  1  0
  5  8  1  0
  8  9  1  0
  9 10  1  0
 11 10  1  1
 11 12  1  0
 11 13  1  0
 12 14  1  0
 13 15  1  0
 14 16  1  0
 15 16  1  0
 14 17  1  0
 17 18  1  0
 17 19  2  0
 18 20  1  0
 19 21  1  0
 19 22  1  0
 20 23  2  0
 21 23  1  0
 21 24  2  0
 22 25  2  0
 24 25  1  0
M  END
