diamond-x0628_0_A-mac-x0328
     RDKit          3D

 23 24  0  0  0  0  0  0  0  0999 V2000
   -0.8490    8.9610   -7.2600 C   0  0  0  0  0  0  0  0  0  0  0  0
   -0.8460   10.1830   -6.4360 C   0  0  0  0  0  0  0  0  0  0  0  0
   -1.8570   10.4930   -5.5670 N   0  0  0  0  0  0  0  0  0  0  0  0
    0.1450   11.0760   -6.4800 N   0  0  0  0  0  0  0  0  0  0  0  0
   -0.2660   11.9950   -5.5850 N   0  0  0  0  0  0  0  0  0  0  0  0
   -1.4700   11.6410   -5.0390 C   0  0  0  0  0  0  0  0  0  0  0  0
   -2.2330   12.4230   -4.0150 C   0  0  0  0  0  0  0  0  0  0  0  0
    0.5690   13.1590   -5.3440 C   0  0  0  0  0  0  0  0  0  0  0  0
    1.7190   12.9330   -4.3660 C   0  0  0  0  0  0  0  0  0  0  0  0
   -2.6540   13.7960   -4.5420 C   0  0  0  0  0  0  0  0  0  0  0  0
    1.2310   12.2560   -3.1170 C   0  0  0  0  0  0  0  0  0  0  0  0
   -1.9960   14.8580   -3.8210 O   0  0  0  0  0  0  0  0  0  0  0  0
    0.5130   11.2670   -3.0700 O   0  0  0  0  0  0  0  0  0  0  0  0
    1.6790   12.8700   -2.0150 O   0  0  0  0  0  0  0  0  0  0  0  0
   -1.9890   14.7990   -2.4640 C   0  0  0  0  0  0  0  0  0  0  0  0
   -1.0120   14.6720   -1.7420 O   0  0  0  0  0  0  0  0  0  0  0  0
   -3.3680   14.9240   -1.9380 C   0  0  0  0  0  0  0  0  0  0  0  0
   -3.5670   14.8450   -0.5540 C   0  0  0  0  0  0  0  0  0  0  0  0
   -4.4610   15.1160   -2.7880 C   0  0  0  0  0  0  0  0  0  0  0  0
   -4.8560   14.9540   -0.0300 C   0  0  0  0  0  0  0  0  0  0  0  0
   -5.7460   15.2230   -2.2620 C   0  0  0  0  0  0  0  0  0  0  0  0
   -5.9340   15.1400   -0.8920 C   0  0  0  0  0  0  0  0  0  0  0  0
   -7.1810   15.2390   -0.3590 O   0  0  0  0  0  0  0  0  0  0  0  0
  1  2  1  0
  2  3  1  0
  2  4  2  0
  4  5  1  0
  3  6  2  0
  5  6  1  0
  6  7  1  0
  5  8  1  0
  8  9  1  0
  7 10  1  0
  9 11  1  0
 10 12  1  0
 11 13  2  0
 11 14  1  0
 12 15  1  0
 15 16  2  0
 15 17  1  0
 17 18  2  0
 17 19  1  0
 18 20  1  0
 19 21  2  0
 20 22  2  0
 21 22  1  0
 22 23  1  0
M  END
