diamond-x0766_0_A-mac-x0371
     RDKit          3D

 17 18  0  0  0  0  0  0  0  0999 V2000
    0.4070   12.6550   -3.2370 C   0  0  0  0  0  0  0  0  0  0  0  0
   -0.0370   11.2550   -3.3980 C   0  0  0  0  0  0  0  0  0  0  0  0
   -0.4630   10.7700   -4.4190 O   0  0  0  0  0  0  0  0  0  0  0  0
    1.0560   12.9760   -2.2460 O   0  0  0  0  0  0  0  0  0  0  0  0
    0.0090   13.5480   -4.3360 C   0  0  2  0  0  0  0  0  0  0  0  0
    0.1130   10.5650   -2.1850 C   0  0  0  0  0  0  0  0  0  0  0  0
    1.3220   13.9830   -4.9840 C   0  0  2  0  0  0  0  0  0  0  0  0
   -0.7200   14.8120   -3.8380 C   0  0  2  0  0  0  0  0  0  0  0  0
    2.6930   12.9970   -4.3850 Cl  0  0  0  0  0  0  0  0  0  0  0  0
   -1.9990   15.3490   -4.9730 Cl  0  0  0  0  0  0  0  0  0  0  0  0
    1.5570   15.4310   -4.5810 C   0  0  0  0  0  0  0  0  0  0  0  0
    0.3890   15.8680   -3.7160 C   0  0  0  0  0  0  0  0  0  0  0  0
   -1.5540   14.6890   -2.5620 C   0  0  0  0  0  0  0  0  0  0  0  0
   -2.9420   14.7140   -2.5860 C   0  0  0  0  0  0  0  0  0  0  0  0
   -1.0990   14.5550   -1.1990 C   0  0  0  0  0  0  0  0  0  0  0  0
   -2.1360   14.4910   -0.2920 C   0  0  0  0  0  0  0  0  0  0  0  0
   -3.6610   14.5900   -1.0480 S   0  0  0  0  0  0  0  0  0  0  0  0
  1  2  1  0
  2  3  2  0
  1  4  2  0
  5  1  1  1
  2  6  1  0
  5  7  1  0
  5  8  1  0
  7  9  1  1
  8 10  1  6
  7 11  1  0
  8 12  1  0
 11 12  1  0
  8 13  1  0
 13 14  2  0
 13 15  1  0
 15 16  2  0
 14 17  1  0
 16 17  1  0
M  END
