diamond-x0895_1_A-mac-x0115
     RDKit          3D

 23 25  0  0  0  0  0  0  0  0999 V2000
   -1.5070   14.6550    1.2490 N   0  0  0  0  0  0  0  0  0  0  0  0
   -2.7960   14.8030    1.1230 C   0  0  0  0  0  0  0  0  0  0  0  0
   -3.3700   14.9040   -0.2760 C   0  0  0  0  0  0  0  0  0  0  0  0
   -0.9610   14.6230   -0.0190 C   0  0  0  0  0  0  0  0  0  0  0  0
   -3.8660   14.8990    1.9480 N   0  0  0  0  0  0  0  0  0  0  0  0
    0.3970   14.4310   -0.2630 N   0  0  0  0  0  0  0  0  0  0  0  0
   -1.7320   14.7810   -1.1040 C   0  0  0  0  0  0  0  0  0  0  0  0
   -4.6830   14.4260   -0.0470 N   0  0  0  0  0  0  0  0  0  0  0  0
   -5.0230   14.7470    1.2290 C   0  0  0  0  0  0  0  0  0  0  0  0
    0.9760   14.3650   -1.5370 C   0  0  0  0  0  0  0  0  0  0  0  0
   -1.2180   14.7560   -2.4360 C   0  0  0  0  0  0  0  0  0  0  0  0
   -3.0950   14.9990   -1.1790 N   0  0  0  0  0  0  0  0  0  0  0  0
   -6.1730   14.8660    1.6030 O   0  0  0  0  0  0  0  0  0  0  0  0
    2.6260   14.0850   -1.6570 S   0  0  0  0  0  0  0  0  0  0  0  0
    0.1210   14.5390   -2.6460 N   0  0  0  0  0  0  0  0  0  0  0  0
   -2.2000   14.9680   -3.3190 C   0  0  0  0  0  0  0  0  0  0  0  0
   -3.3490   15.1130   -2.4390 C   0  0  0  0  0  0  0  0  0  0  0  0
    0.5630   14.2270   -4.0260 C   0  0  0  0  0  0  0  0  0  0  0  0
    0.7840   15.4710   -4.8950 C   0  0  0  0  0  0  0  0  0  0  0  0
   -0.4340   16.1980   -5.0700 O   0  0  0  0  0  0  0  0  0  0  0  0
   -0.2500   17.5450   -5.5100 C   0  0  0  0  0  0  0  0  0  0  0  0
   -1.5250   18.3610   -5.3300 C   0  0  0  0  0  0  0  0  0  0  0  0
    0.8780   18.1140   -4.6680 C   0  0  0  0  0  0  0  0  0  0  0  0
  1  2  2  3
  2  3  1  0
  1  4  1  0
  2  5  1  0
  4  6  1  0
  4  7  2  0
  3  8  1  0
  5  9  1  0
  8  9  1  0
  6 10  1  0
  7 11  1  0
  7 12  1  0
  9 13  2  0
 10 14  2  0
 10 15  1  0
 11 15  1  0
 11 16  2  0
 12 17  2  0
 16 17  1  0
 15 18  1  0
 18 19  1  0
 19 20  1  0
 20 21  1  0
 21 22  1  0
 21 23  1  0
M  END
