diamond-x0591_0_A-mac-x0588
     RDKit          3D

 27 30  0  0  0  0  0  0  0  0999 V2000
   -5.4580   14.3140    0.2200 N   0  0  0  0  0  0  0  0  0  0  0  0
   -6.3770   14.2820    1.3680 C   0  0  0  0  0  0  0  0  0  0  0  0
   -6.0340   14.3950   -1.0350 C   0  0  0  0  0  0  0  0  0  0  0  0
   -4.2110   14.9200    0.4900 C   0  0  0  0  0  0  0  0  0  0  0  0
   -7.2080   14.8050   -1.0840 O   0  0  0  0  0  0  0  0  0  0  0  0
   -5.3960   13.9950   -2.4290 C   0  0  2  0  0  0  0  0  0  0  0  0
   -3.9780   15.8940   -0.5330 N   0  0  0  0  0  0  0  0  0  0  0  0
   -5.4990   12.6140   -2.9840 C   0  0  0  0  0  0  0  0  0  0  0  0
   -4.5050   14.7100   -3.5180 C   0  0  1  0  0  0  0  0  0  0  0  0
   -3.4650   15.5170   -1.8350 C   0  0  0  0  0  0  0  0  0  0  0  0
   -2.8820   14.2970   -4.3010 S   0  0  0  0  0  0  0  0  0  0  0  0
   -5.4590   14.2390   -4.6620 C   0  0  0  0  0  0  0  0  0  0  0  0
   -1.9650   15.5740   -2.0700 C   0  0  2  0  0  0  0  0  0  0  0  0
   -5.5470   12.7630   -4.3220 C   0  0  0  0  0  0  0  0  0  0  0  0
   -1.6170   15.0360   -3.4270 N   0  0  0  0  0  0  0  0  0  0  0  0
   -2.6590   12.8760   -4.4030 O   0  0  0  0  0  0  0  0  0  0  0  0
   -2.9250   15.0160   -5.5790 O   0  0  0  0  0  0  0  0  0  0  0  0
   -1.3550   15.0570   -0.7500 C   0  0  0  0  0  0  0  0  0  0  0  0
   -1.8280   15.4260    0.5110 C   0  0  0  0  0  0  0  0  0  0  0  0
   -0.3020   14.1850   -0.5860 N   0  0  0  0  0  0  0  0  0  0  0  0
   -0.8750   15.9560   -4.2360 N   0  0  0  0  0  0  0  0  0  0  0  0
   -1.0730   14.7680    1.4280 N   0  0  0  0  0  0  0  0  0  0  0  0
   -0.1750   14.0390    0.7250 C   0  0  0  0  0  0  0  0  0  0  0  0
    0.3510   16.3890   -3.6250 C   0  0  0  0  0  0  0  0  0  0  0  0
   -1.4390   17.1440   -4.8890 C   0  0  0  0  0  0  0  0  0  0  0  0
    0.9610   17.1810   -4.7580 C   0  0  0  0  0  0  0  0  0  0  0  0
   -0.2030   17.7530   -5.5410 C   0  0  0  0  0  0  0  0  0  0  0  0
  1  2  1  0
  1  3  1  0
  1  4  1  0
  3  5  2  0
  3  6  1  0
  4  7  1  0
  6  8  1  1
  6  9  1  0
  7 10  1  0
  9 11  1  0
  9 12  1  6
 10 13  1  0
  8 14  2  0
 12 14  1  0
 11 15  1  0
 13 15  1  0
 11 16  2  0
 11 17  2  0
 13 18  1  1
 18 19  2  0
 18 20  1  0
 15 21  1  0
 19 22  1  0
 20 23  2  0
 22 23  1  0
 21 24  1  0
 21 25  1  0
 24 26  1  0
 25 27  1  0
 26 27  1  0
M  END
