diamond-x0962_1_A-mac-x0131
     RDKit          3D

 24 27  0  0  0  0  0  0  0  0999 V2000
   -5.6400   15.1360   -2.5400 N   0  0  0  0  0  0  0  0  0  0  0  0
   -4.9320   15.4250   -1.3160 C   0  0  1  0  0  0  0  0  0  0  0  0
   -5.8330   14.9820   -0.2240 C   0  0  0  0  0  0  0  0  0  0  0  0
   -3.5440   14.8360   -1.5000 C   0  0  1  0  0  0  0  0  0  0  0  0
   -5.5320   14.9170    1.1160 N   0  0  0  0  0  0  0  0  0  0  0  0
   -7.1390   14.5570   -0.3000 C   0  0  0  0  0  0  0  0  0  0  0  0
   -2.9280   15.2920   -2.8810 C   0  0  2  0  0  0  0  0  0  0  0  0
   -2.4650   15.4560   -0.6420 C   0  0  2  0  0  0  0  0  0  0  0  0
   -3.3390   14.4280   -4.0760 C   0  0  0  0  0  0  0  0  0  0  0  0
   -6.6480   14.4680    1.7670 C   0  0  0  0  0  0  0  0  0  0  0  0
   -7.6380   14.2420    0.9310 N   0  0  0  0  0  0  0  0  0  0  0  0
   -1.3110   14.7760   -1.3250 C   0  0  1  0  0  0  0  0  0  0  0  0
   -1.4440   15.3230   -2.6660 N   0  0  0  0  0  0  0  0  0  0  0  0
   -2.2920   15.2810    0.8520 C   0  0  1  0  0  0  0  0  0  0  0  0
   -3.4640   14.9350    1.5890 N   0  0  0  0  0  0  0  0  0  0  0  0
   -0.5780   14.7500   -3.7230 C   0  0  0  0  0  0  0  0  0  0  0  0
   -1.2990   14.3060    1.1600 N   0  0  0  0  0  0  0  0  0  0  0  0
   -0.0970   15.2040   -0.7110 N   0  0  0  0  0  0  0  0  0  0  0  0
    0.0040   14.6510    0.6160 C   0  0  0  0  0  0  0  0  0  0  0  0
   -0.4500   13.2650   -3.6940 C   0  0  0  0  0  0  0  0  0  0  0  0
    0.5650   12.3920   -3.3480 C   0  0  0  0  0  0  0  0  0  0  0  0
   -1.5470   12.5530   -4.0850 O   0  0  0  0  0  0  0  0  0  0  0  0
   -1.2340   11.2400   -3.9870 C   0  0  0  0  0  0  0  0  0  0  0  0
    0.0500   11.0900   -3.5380 C   0  0  0  0  0  0  0  0  0  0  0  0
  2  1  1  6
  2  3  1  0
  4  2  1  1
  3  5  1  0
  3  6  2  0
  4  7  1  0
  4  8  1  0
  7  9  1  6
  5 10  1  0
  6 11  1  0
 10 11  2  0
  8 12  1  0
  7 13  1  0
 12 13  1  0
  8 14  1  1
 14 15  1  6
 13 16  1  0
 14 17  1  0
 12 18  1  1
 17 19  1  0
 18 19  1  0
 16 20  1  0
 20 21  2  0
 20 22  1  0
 22 23  1  0
 21 24  1  0
 23 24  2  0
M  END
