diamond-x0574_0_A-mac-x0555
     RDKit          3D

 16 18  0  0  0  0  0  0  0  0999 V2000
    0.1020   13.5780    1.5850 N   0  0  0  0  0  0  0  0  0  0  0  0
   -0.3610   14.5960    0.7440 C   0  0  2  0  0  0  0  0  0  0  0  0
   -1.4650   15.0450    1.4990 N   0  0  0  0  0  0  0  0  0  0  0  0
   -0.8820   13.9050   -0.8210 S   0  0  0  0  0  0  0  0  0  0  0  0
   -2.7180   14.5340    0.9500 C   0  0  2  0  0  0  0  0  0  0  0  0
   -2.5810   14.4290   -0.5620 C   0  0  2  0  0  0  0  0  0  0  0  0
   -3.7050   15.4890    1.5260 C   0  0  0  0  0  0  0  0  0  0  0  0
   -3.7490   13.7380   -1.2180 C   0  0  0  0  0  0  0  0  0  0  0  0
   -5.1260   15.4670    1.1290 C   0  0  2  0  0  0  0  0  0  0  0  0
   -4.9090   13.3700   -0.2840 C   0  0  2  0  0  0  0  0  0  0  0  0
   -5.9410   15.4570    2.2860 O   0  0  0  0  0  0  0  0  0  0  0  0
   -5.9380   12.2890   -0.6110 C   0  0  0  0  0  0  0  0  0  0  0  0
   -5.7290   14.4230    0.3140 C   0  0  2  0  0  0  0  0  0  0  0  0
   -7.4000   12.6610   -0.3780 C   0  0  0  0  0  0  0  0  0  0  0  0
   -6.8570   14.8520   -0.4740 N   0  0  0  0  0  0  0  0  0  0  0  0
   -7.7970   13.9280   -0.3380 C   0  0  0  0  0  0  0  0  0  0  0  0
  2  1  1  1
  2  3  1  0
  2  4  1  0
  3  5  1  0
  4  6  1  0
  5  6  1  0
  5  7  1  6
  6  8  1  1
  7  9  1  0
 10  8  1  6
  9 11  1  1
 10 12  1  0
  9 13  1  0
 10 13  1  0
 12 14  1  0
 13 15  1  6
 14 16  2  0
 15 16  1  0
M  END
