diamond-x0742_0_A-mac-x0178
     RDKit          3D

 30 33  0  0  0  0  0  0  0  0999 V2000
   -5.3220   12.6720   -0.5330 C   0  0  0  0  0  0  0  0  0  0  0  0
   -6.2400   11.9150    0.4040 C   0  0  0  0  0  0  0  0  0  0  0  0
   -4.8150   12.0740   -1.4880 O   0  0  0  0  0  0  0  0  0  0  0  0
   -5.0990   14.1920   -0.2500 C   0  0  2  0  0  0  0  0  0  0  0  0
   -5.0940   14.4460    1.2690 C   0  0  0  0  0  0  0  0  0  0  0  0
   -6.1230   14.9240   -1.1280 C   0  0  0  0  0  0  0  0  0  0  0  0
   -3.8580   14.8130   -0.9100 C   0  0  2  0  0  0  0  0  0  0  0  0
   -4.0640   14.4800   -2.3850 C   0  0  0  0  0  0  0  0  0  0  0  0
   -2.5810   14.4700   -0.2240 C   0  0  0  0  0  0  0  0  0  0  0  0
   -3.8040   15.1060    1.7930 C   0  0  0  0  0  0  0  0  0  0  0  0
   -5.5960   14.5670   -2.5360 C   0  0  0  0  0  0  0  0  0  0  0  0
   -1.4500   14.0340   -0.8620 C   0  0  0  0  0  0  0  0  0  0  0  0
   -2.5520   14.6120    1.1320 C   0  0  0  0  0  0  0  0  0  0  0  0
   -1.4640   14.3410    1.8870 N   0  0  0  0  0  0  0  0  0  0  0  0
   -0.3040   13.7460   -0.1250 C   0  0  0  0  0  0  0  0  0  0  0  0
    0.8630   13.2880   -0.9130 C   0  0  0  0  0  0  0  0  0  0  0  0
   -0.3590   13.9140    1.2500 C   0  0  0  0  0  0  0  0  0  0  0  0
    0.4880   13.7460   -2.1070 N   0  0  0  0  0  0  0  0  0  0  0  0
    0.3140   13.2260   -3.1880 C   0  0  0  0  0  0  0  0  0  0  0  0
    0.4980   11.9530   -3.5870 O   0  0  0  0  0  0  0  0  0  0  0  0
   -0.2440   14.2250   -3.9560 C   0  0  0  0  0  0  0  0  0  0  0  0
    0.5060   15.3840   -3.9060 C   0  0  0  0  0  0  0  0  0  0  0  0
   -1.4420   14.0760   -4.6190 C   0  0  0  0  0  0  0  0  0  0  0  0
    0.0320   16.4880   -4.5300 C   0  0  0  0  0  0  0  0  0  0  0  0
   -1.9260   15.2000   -5.2510 C   0  0  0  0  0  0  0  0  0  0  0  0
   -1.1780   16.3840   -5.1780 C   0  0  0  0  0  0  0  0  0  0  0  0
   -1.7780   17.8430   -5.9280 S   0  0  0  0  0  0  0  0  0  0  0  0
   -0.3890   18.4370   -6.6530 N   0  0  0  0  0  0  0  0  0  0  0  0
   -2.6650   17.4400   -6.9630 O   0  0  0  0  0  0  0  0  0  0  0  0
   -2.1710   18.7410   -4.8700 O   0  0  0  0  0  0  0  0  0  0  0  0
  1  2  1  0
  1  3  2  0
  4  1  1  1
  4  5  1  0
  4  6  1  0
  4  7  1  0
  7  8  1  6
  7  9  1  0
  5 10  1  0
  6 11  1  0
  8 11  1  0
  9 12  1  0
  9 13  2  0
 10 13  1  0
 13 14  1  0
 12 15  2  0
 15 16  1  0
 14 17  2  0
 15 17  1  0
 16 18  1  0
 18 19  2  3
 19 20  1  0
 19 21  1  0
 21 22  2  0
 21 23  1  0
 22 24  1  0
 23 25  2  0
 24 26  2  0
 25 26  1  0
 26 27  1  0
 27 28  1  0
 27 29  2  0
 27 30  2  0
M  END
