diamond-x0837_0_A-mac-x0284
     RDKit          3D

 18 19  0  0  0  0  0  0  0  0999 V2000
   -8.0460   14.2400   -0.1820 O   0  0  0  0  0  0  0  0  0  0  0  0
   -6.8230   14.2670   -0.1970 C   0  0  0  0  0  0  0  0  0  0  0  0
   -6.1160   14.3320    0.9580 N   0  0  0  0  0  0  0  0  0  0  0  0
   -5.9950   14.2630   -1.4670 C   0  0  0  0  0  0  0  0  0  0  0  0
   -5.1930   15.2790    1.1020 C   0  0  0  0  0  0  0  0  0  0  0  0
   -4.9890   15.4010   -1.4480 C   0  0  1  0  0  0  0  0  0  0  0  0
   -4.6600   15.8180    0.0060 C   0  0  0  0  0  0  0  0  0  0  0  0
   -3.5760   15.0680   -1.6770 C   0  0  0  0  0  0  0  0  0  0  0  0
   -2.5970   14.8760   -2.6940 C   0  0  0  0  0  0  0  0  0  0  0  0
   -3.2540   14.9560   -0.3760 C   0  0  0  0  0  0  0  0  0  0  0  0
   -2.8960   14.9850   -4.0330 O   0  0  0  0  0  0  0  0  0  0  0  0
   -2.0550   14.6790    0.0710 C   0  0  0  0  0  0  0  0  0  0  0  0
   -1.2910   14.5800   -2.1980 C   0  0  0  0  0  0  0  0  0  0  0  0
   -1.8710   14.6020    1.5230 C   0  0  0  0  0  0  0  0  0  0  0  0
   -0.0400   14.3430   -2.9260 C   0  0  0  0  0  0  0  0  0  0  0  0
   -1.0540   14.4880   -0.8270 C   0  0  0  0  0  0  0  0  0  0  0  0
    1.0200   14.1060   -2.3760 O   0  0  0  0  0  0  0  0  0  0  0  0
   -0.1320   14.4210   -4.2560 O   0  0  0  0  0  0  0  0  0  0  0  0
  1  2  2  0
  2  3  1  0
  2  4  1  0
  3  5  1  0
  4  6  1  0
  5  7  2  0
  6  7  1  0
  6  8  1  1
  8  9  2  0
  8 10  1  0
  9 11  1  0
 10 12  2  0
  9 13  1  0
 12 14  1  0
 13 15  1  0
 12 16  1  0
 13 16  2  0
 15 17  2  0
 15 18  1  0
M  END
