diamond-x0253_0_A-diamond-x0438_0_A
     RDKit          3D

 31 33  0  0  0  0  0  0  0  0999 V2000
    0.4510   11.9610   -5.3890 N   0  0  0  0  0  0  0  0  0  0  0  0
    1.0140   11.7470   -6.6060 C   0  0  0  0  0  0  0  0  0  0  0  0
    2.1250   12.1830   -6.7870 O   0  0  0  0  0  0  0  0  0  0  0  0
    1.3820   12.2810   -4.3260 C   0  0  0  0  0  0  0  0  0  0  0  0
    0.6990   12.2810   -2.9780 C   0  0  0  0  0  0  0  0  0  0  0  0
    0.3030   10.9170   -7.6380 C   0  0  0  0  0  0  0  0  0  0  0  0
    0.7780   13.3250   -2.2380 N   0  0  0  0  0  0  0  0  0  0  0  0
    0.0320   11.1570   -2.6490 O   0  0  0  0  0  0  0  0  0  0  0  0
   -0.8680   10.2120   -7.3380 C   0  0  0  0  0  0  0  0  0  0  0  0
    0.8250   10.8160   -8.9350 C   0  0  0  0  0  0  0  0  0  0  0  0
    0.1090   13.3850   -0.9490 C   0  0  0  0  0  0  0  0  0  0  0  0
   -1.4850    9.4040   -8.2970 C   0  0  0  0  0  0  0  0  0  0  0  0
    0.2110   10.0260   -9.8980 C   0  0  0  0  0  0  0  0  0  0  0  0
   -2.7180    8.6380   -7.9340 C   0  0  0  0  0  0  0  0  0  0  0  0
   -0.5690   14.7450   -0.8420 C   0  0  0  0  0  0  0  0  0  0  0  0
   -0.9400    9.3180   -9.5800 C   0  0  0  0  0  0  0  0  0  0  0  0
   -1.5440   14.8490    0.3320 C   0  0  0  0  0  0  0  0  0  0  0  0
   -3.0190   14.9090   -0.0150 C   0  0  0  0  0  0  0  0  0  0  0  0
   -3.5240   15.3050   -1.2740 C   0  0  0  0  0  0  0  0  0  0  0  0
   -3.9130   14.5420    0.9840 C   0  0  0  0  0  0  0  0  0  0  0  0
   -5.2860   14.5590    0.7270 C   0  0  0  0  0  0  0  0  0  0  0  0
   -4.9020   15.3340   -1.5520 C   0  0  0  0  0  0  0  0  0  0  0  0
   -6.3300   14.2300    1.5510 N   0  0  0  0  0  0  0  0  0  0  0  0
   -5.7540   14.9450   -0.5140 C   0  0  0  0  0  0  0  0  0  0  0  0
   -7.1240   14.8360   -0.4120 N   0  0  0  0  0  0  0  0  0  0  0  0
   -7.4260   14.3920    0.8620 C   0  0  0  0  0  0  0  0  0  0  0  0
   -8.8090   14.1380    1.3450 C   0  0  0  0  0  0  0  0  0  0  0  0
   -9.4130   15.3500    2.5090 S   0  0  0  0  0  0  0  0  0  0  0  0
   -8.1830   15.4990    3.7920 C   0  0  0  0  0  0  0  0  0  0  0  0
  -10.5810   14.7570    3.1420 O   0  0  0  0  0  0  0  0  0  0  0  0
   -9.5690   16.6140    1.8310 O   0  0  0  0  0  0  0  0  0  0  0  0
  1  2  1  0
  2  3  2  0
  1  4  1  0
  4  5  1  0
  2  6  1  0
  5  7  2  3
  5  8  1  0
  6  9  2  0
  6 10  1  0
  7 11  1  0
  9 12  1  0
 10 13  2  0
 12 14  1  0
 11 15  1  0
 12 16  2  0
 13 16  1  0
 15 17  1  0
 17 18  1  0
 18 19  2  0
 18 20  1  0
 20 21  2  0
 19 22  1  0
 21 23  1  0
 21 24  1  0
 22 24  2  0
 24 25  1  0
 23 26  2  0
 25 26  1  0
 26 27  1  0
 28 27  1  0
 28 29  1  0
 28 30  2  0
 28 31  2  0
M  END
