diamond-x0895_0_A-mac-x0357
     RDKit          3D

 20 21  0  0  0  0  0  0  0  0999 V2000
   -1.4270   14.6970    1.9340 O   0  0  0  0  0  0  0  0  0  0  0  0
   -2.4270   14.8710    1.2670 C   0  0  0  0  0  0  0  0  0  0  0  0
   -3.8680   14.7980    1.7420 C   0  0  0  0  0  0  0  0  0  0  0  0
   -2.4710   15.1810   -0.0570 N   0  0  0  0  0  0  0  0  0  0  0  0
   -4.6110   15.1050    0.5210 N   0  0  0  0  0  0  0  0  0  0  0  0
   -3.7340   15.2600   -0.5120 C   0  0  0  0  0  0  0  0  0  0  0  0
   -3.8910   15.4550   -1.7550 N   0  0  0  0  0  0  0  0  0  0  0  0
   -2.6820   15.6030   -2.5870 C   0  0  0  0  0  0  0  0  0  0  0  0
   -2.0640   14.2550   -2.9930 C   0  0  0  0  0  0  0  0  0  0  0  0
   -0.8480   13.9900   -2.2170 N   0  0  0  0  0  0  0  0  0  0  0  0
    0.0760   13.2150   -2.6410 C   0  0  0  0  0  0  0  0  0  0  0  0
    1.2050   12.9220   -1.9650 O   0  0  0  0  0  0  0  0  0  0  0  0
    0.0110   12.5330   -3.9570 C   0  0  0  0  0  0  0  0  0  0  0  0
    1.0790   12.5080   -4.8750 C   0  0  0  0  0  0  0  0  0  0  0  0
   -1.2060   11.8990   -4.2550 C   0  0  0  0  0  0  0  0  0  0  0  0
    2.3970   13.1720   -4.5840 C   0  0  0  0  0  0  0  0  0  0  0  0
   -1.3830   11.2330   -5.4650 C   0  0  0  0  0  0  0  0  0  0  0  0
    0.8580   11.8290   -6.0790 C   0  0  0  0  0  0  0  0  0  0  0  0
    1.8060   11.7270   -7.0390 O   0  0  0  0  0  0  0  0  0  0  0  0
   -0.3420   11.2010   -6.3810 C   0  0  0  0  0  0  0  0  0  0  0  0
  1  2  2  0
  2  3  1  0
  2  4  1  0
  3  5  1  0
  4  6  1  0
  5  6  1  0
  6  7  2  3
  7  8  1  0
  8  9  1  0
  9 10  1  0
 10 11  2  3
 11 12  1  0
 11 13  1  0
 13 14  2  0
 13 15  1  0
 14 16  1  0
 15 17  2  0
 14 18  1  0
 18 19  1  0
 17 20  1  0
 18 20  2  0
M  END
