diamond-x0465_0_A-mac-x0385
     RDKit          3D

 24 25  0  0  0  0  0  0  0  0999 V2000
    2.3490   13.0650   -4.7380 C   0  0  0  0  0  0  0  0  0  0  0  0
    0.8920   12.6240   -4.7840 C   0  0  1  0  0  0  0  0  0  0  0  0
    0.7420   11.4630   -5.6000 O   0  0  0  0  0  0  0  0  0  0  0  0
    0.4550   12.3270   -3.3540 C   0  0  0  0  0  0  0  0  0  0  0  0
    0.0660   13.3000   -2.6200 N   0  0  0  0  0  0  0  0  0  0  0  0
    0.4960   11.0290   -2.9740 O   0  0  0  0  0  0  0  0  0  0  0  0
   -0.4350   10.7780   -5.7670 C   0  0  0  0  0  0  0  0  0  0  0  0
   -0.4210   13.1110   -1.2730 C   0  0  0  0  0  0  0  0  0  0  0  0
   -0.6310    9.6920   -6.6200 C   0  0  0  0  0  0  0  0  0  0  0  0
   -1.5300   11.2190   -5.0020 C   0  0  0  0  0  0  0  0  0  0  0  0
    0.3620    9.2140   -7.3840 F   0  0  0  0  0  0  0  0  0  0  0  0
    0.5320   13.7500   -0.2700 C   0  0  0  0  0  0  0  0  0  0  0  0
   -1.8630    9.0550   -6.7200 C   0  0  0  0  0  0  0  0  0  0  0  0
   -2.7720   10.5820   -5.0990 C   0  0  0  0  0  0  0  0  0  0  0  0
   -0.0080   14.7920    0.6720 C   0  0  0  0  0  0  0  0  0  0  0  0
   -2.9420    9.4980   -5.9570 C   0  0  0  0  0  0  0  0  0  0  0  0
   -1.4180   14.9660    0.3630 C   0  0  0  0  0  0  0  0  0  0  0  0
   -2.2390   15.2350    1.3740 N   0  0  0  0  0  0  0  0  0  0  0  0
   -1.7480   14.8460   -0.9260 N   0  0  0  0  0  0  0  0  0  0  0  0
   -3.5170   15.4180    1.0340 C   0  0  0  0  0  0  0  0  0  0  0  0
   -3.0300   15.0290   -1.2210 C   0  0  0  0  0  0  0  0  0  0  0  0
   -4.3880   15.7210    2.0780 N   0  0  0  0  0  0  0  0  0  0  0  0
   -3.9740   15.3250   -0.2760 C   0  0  0  0  0  0  0  0  0  0  0  0
   -5.3870   15.5260   -0.6850 C   0  0  0  0  0  0  0  0  0  0  0  0
  2  1  1  1
  2  3  1  0
  2  4  1  0
  4  5  2  3
  4  6  1  0
  3  7  1  0
  5  8  1  0
  7  9  2  0
  7 10  1  0
  9 11  1  0
  8 12  1  0
  9 13  1  0
 10 14  2  0
 12 15  1  0
 13 16  2  0
 14 16  1  0
 15 17  1  0
 17 18  2  0
 17 19  1  0
 18 20  1  0
 19 21  2  0
 20 22  1  0
 20 23  2  0
 21 23  1  0
 23 24  1  0
M  END
