diamond-x0282_0_A-diamond-x1012_0_A
     RDKit          3D

 27 29  0  0  0  0  0  0  0  0999 V2000
   -7.2640   13.3620    0.4600 C   0  0  0  0  0  0  0  0  0  0  0  0
   -8.5770   13.8280    0.1570 O   0  0  0  0  0  0  0  0  0  0  0  0
   -6.3910   14.5820    0.7180 C   0  0  0  0  0  0  0  0  0  0  0  0
   -5.3330   14.3790    1.7990 C   0  0  0  0  0  0  0  0  0  0  0  0
   -5.7570   15.1310   -0.5800 C   0  0  0  0  0  0  0  0  0  0  0  0
   -4.1270   15.3030    1.6440 C   0  0  0  0  0  0  0  0  0  0  0  0
   -4.2930   14.7300   -0.7750 C   0  0  0  0  0  0  0  0  0  0  0  0
   -3.4940   15.2460    0.3200 N   0  0  0  0  0  0  0  0  0  0  0  0
   -2.2490   14.6900    0.4560 C   0  0  0  0  0  0  0  0  0  0  0  0
   -1.4800   14.3510   -0.6080 N   0  0  0  0  0  0  0  0  0  0  0  0
   -1.8760   14.5060    1.7300 N   0  0  0  0  0  0  0  0  0  0  0  0
   -0.3050   13.7740   -0.2680 C   0  0  0  0  0  0  0  0  0  0  0  0
   -0.7160   13.9400    1.8990 C   0  0  0  0  0  0  0  0  0  0  0  0
    0.7550   13.2830   -1.1760 C   0  0  0  0  0  0  0  0  0  0  0  0
    0.0350   13.5740    0.9510 C   0  0  0  0  0  0  0  0  0  0  0  0
    0.4680   13.6770   -2.4210 N   0  0  0  0  0  0  0  0  0  0  0  0
    0.2160   12.8680   -3.2920 C   0  0  0  0  0  0  0  0  0  0  0  0
    0.1970   11.5130   -3.2580 O   0  0  0  0  0  0  0  0  0  0  0  0
   -0.1300   13.6840   -4.4280 C   0  0  0  0  0  0  0  0  0  0  0  0
   -1.4220   13.5450   -5.1380 C   0  0  0  0  0  0  0  0  0  0  0  0
    1.0050   14.3130   -5.1430 C   0  0  0  0  0  0  0  0  0  0  0  0
   -1.9300   14.9790   -5.1550 C   0  0  0  0  0  0  0  0  0  0  0  0
    0.6150   15.7760   -5.1650 C   0  0  0  0  0  0  0  0  0  0  0  0
   -0.8550   16.0370   -5.0980 N   0  0  0  0  0  0  0  0  0  0  0  0
   -1.3070   17.3020   -4.8580 C   0  0  0  0  0  0  0  0  0  0  0  0
   -0.3670   18.2660   -4.7600 N   0  0  0  0  0  0  0  0  0  0  0  0
   -2.4720   17.5980   -4.7280 O   0  0  0  0  0  0  0  0  0  0  0  0
  1  2  1  0
  1  3  1  0
  3  4  1  0
  3  5  1  0
  4  6  1  0
  5  7  1  0
  6  8  1  0
  7  8  1  0
  8  9  1  0
  9 10  2  0
  9 11  1  0
 10 12  1  0
 11 13  2  0
 12 14  1  0
 12 15  2  0
 13 15  1  0
 14 16  1  0
 16 17  2  3
 17 18  1  0
 17 19  1  0
 19 20  1  0
 19 21  1  0
 20 22  1  0
 21 23  1  0
 22 24  1  0
 23 24  1  0
 24 25  1  0
 25 26  1  0
 25 27  2  0
M  END
