diamond-x0282_0_A-mac-x0567
     RDKit          3D

 19 21  0  0  0  0  0  0  0  0999 V2000
   -8.0360   14.4350    1.5740 C   0  0  0  0  0  0  0  0  0  0  0  0
   -8.5830   14.6050    0.2730 O   0  0  0  0  0  0  0  0  0  0  0  0
   -6.5660   14.0520    1.5010 C   0  0  0  0  0  0  0  0  0  0  0  0
   -5.7180   14.5370    2.7120 C   0  0  0  0  0  0  0  0  0  0  0  0
   -5.9730   14.5020    0.1770 C   0  0  0  0  0  0  0  0  0  0  0  0
   -4.2150   14.3090    2.5400 C   0  0  0  0  0  0  0  0  0  0  0  0
   -4.5520   14.0360    0.2120 C   0  0  0  0  0  0  0  0  0  0  0  0
   -3.8280   14.8110    1.2410 N   0  0  0  0  0  0  0  0  0  0  0  0
   -2.5230   14.7210    0.8390 C   0  0  0  0  0  0  0  0  0  0  0  0
   -1.5080   14.3820    1.6790 N   0  0  0  0  0  0  0  0  0  0  0  0
   -2.5650   14.9750   -0.4500 C   0  0  0  0  0  0  0  0  0  0  0  0
   -1.5830   14.9480   -1.4440 N   0  0  0  0  0  0  0  0  0  0  0  0
   -0.3280   14.1270    1.2640 C   0  0  0  0  0  0  0  0  0  0  0  0
   -3.9300   15.3810   -0.9050 C   0  0  0  0  0  0  0  0  0  0  0  0
   -0.3280   14.4830   -1.1850 C   0  0  0  0  0  0  0  0  0  0  0  0
    0.2780   14.1130   -0.0830 C   0  0  0  0  0  0  0  0  0  0  0  0
   -4.3090   15.3130   -2.1650 C   0  0  0  0  0  0  0  0  0  0  0  0
   -2.0850   14.6770   -2.7210 C   0  0  0  0  0  0  0  0  0  0  0  0
   -3.3620   14.8320   -3.1130 C   0  0  0  0  0  0  0  0  0  0  0  0
  1  2  1  0
  1  3  1  0
  3  4  1  0
  3  5  1  0
  4  6  1  0
  5  7  1  0
  6  8  1  0
  7  8  1  0
  8  9  1  0
  9 10  1  0
  9 11  2  0
 11 12  1  0
 10 13  2  0
 11 14  1  0
 12 15  1  0
 13 16  1  0
 15 16  2  0
 14 17  2  0
 12 18  1  0
 17 19  1  0
 18 19  2  0
M  END
