diamond-x0524_0_A-mac-x0179
     RDKit          3D

 32 35  0  0  0  0  0  0  0  0999 V2000
    0.0480    8.2100   -8.7170 N   0  0  0  0  0  0  0  0  0  0  0  0
   -0.6210    9.4430   -8.6000 C   0  0  2  0  0  0  0  0  0  0  0  0
   -1.7750    9.5140   -9.5830 C   0  0  0  0  0  0  0  0  0  0  0  0
    1.1060    8.2150   -9.5000 C   0  0  0  0  0  0  0  0  0  0  0  0
    0.2750   10.5090   -8.7290 O   0  0  0  0  0  0  0  0  0  0  0  0
    2.2590    7.4970   -9.3060 C   0  0  0  0  0  0  0  0  0  0  0  0
    0.9750    9.0510  -10.5960 C   0  0  0  0  0  0  0  0  0  0  0  0
   -1.2430    9.5000   -7.3830 C   0  0  0  0  0  0  0  0  0  0  0  0
    3.2930    7.6180  -10.2200 C   0  0  0  0  0  0  0  0  0  0  0  0
    1.9890    9.1730  -11.5040 C   0  0  0  0  0  0  0  0  0  0  0  0
   -0.8660   10.3690   -6.4270 C   0  0  0  0  0  0  0  0  0  0  0  0
   -2.2890    8.6150   -7.1990 C   0  0  0  0  0  0  0  0  0  0  0  0
    3.1600    8.4560  -11.3220 C   0  0  0  0  0  0  0  0  0  0  0  0
    0.1960   11.4000   -6.3000 C   0  0  0  0  0  0  0  0  0  0  0  0
   -1.5780   10.3590   -5.2770 C   0  0  0  0  0  0  0  0  0  0  0  0
   -2.9900    8.6020   -6.0270 C   0  0  0  0  0  0  0  0  0  0  0  0
    4.1510    8.6180  -12.2680 N   0  0  0  0  0  0  0  0  0  0  0  0
    1.1290   11.6270   -7.0470 O   0  0  0  0  0  0  0  0  0  0  0  0
   -0.0710   12.0450   -5.1360 N   0  0  0  0  0  0  0  0  0  0  0  0
   -1.0300   11.3820   -4.4270 C   0  0  0  0  0  0  0  0  0  0  0  0
   -2.6360    9.4980   -5.0340 C   0  0  0  0  0  0  0  0  0  0  0  0
    0.9280   12.8060   -4.4400 C   0  0  0  0  0  0  0  0  0  0  0  0
   -1.4100   11.5740   -3.3010 O   0  0  0  0  0  0  0  0  0  0  0  0
    4.2830    9.5380  -13.3010 C   0  0  0  0  0  0  0  0  0  0  0  0
    1.0910   12.2190   -3.0540 C   0  0  0  0  0  0  0  0  0  0  0  0
    3.4280   10.6520  -13.3750 C   0  0  0  0  0  0  0  0  0  0  0  0
    5.2550    9.3840  -14.2790 C   0  0  0  0  0  0  0  0  0  0  0  0
    1.6640   13.0040   -2.1280 O   0  0  0  0  0  0  0  0  0  0  0  0
    0.7240   11.0980   -2.7440 O   0  0  0  0  0  0  0  0  0  0  0  0
    3.5540   11.5800  -14.4020 C   0  0  0  0  0  0  0  0  0  0  0  0
    5.3840   10.3080  -15.3090 C   0  0  0  0  0  0  0  0  0  0  0  0
    4.5350   11.4080  -15.3710 C   0  0  0  0  0  0  0  0  0  0  0  0
  1  2  1  0
  2  3  1  6
  1  4  1  0
  2  5  1  0
  4  6  2  0
  4  7  1  0
  2  8  1  0
  6  9  1  0
  7 10  2  0
  8 11  1  0
  8 12  2  0
  9 13  2  0
 10 13  1  0
 11 14  1  0
 11 15  2  0
 12 16  1  0
 13 17  1  0
 14 18  2  0
 14 19  1  0
 15 20  1  0
 19 20  1  0
 15 21  1  0
 16 21  2  0
 19 22  1  0
 20 23  2  0
 17 24  1  0
 22 25  1  0
 24 26  2  0
 24 27  1  0
 25 28  1  0
 25 29  2  0
 26 30  1  0
 27 31  2  0
 30 32  2  0
 31 32  1  0
M  END
