diamond-x0910_0_A-mac-x0358
     RDKit          3D

 18 19  0  0  0  0  0  0  0  0999 V2000
   -2.7050   14.3370   -1.6980 N   0  0  0  0  0  0  0  0  0  0  0  0
   -1.8950   14.5970   -0.6560 C   0  0  0  0  0  0  0  0  0  0  0  0
   -2.2410   14.8320    0.5880 N   0  0  0  0  0  0  0  0  0  0  0  0
   -0.5280   14.6570   -0.7630 N   0  0  0  0  0  0  0  0  0  0  0  0
    0.2780   14.4550   -1.9520 C   0  0  0  0  0  0  0  0  0  0  0  0
   -1.0930   15.0560    1.3060 N   0  0  0  0  0  0  0  0  0  0  0  0
   -0.0810   14.9550    0.4850 C   0  0  0  0  0  0  0  0  0  0  0  0
    0.9600   13.1880   -1.8730 O   0  0  0  0  0  0  0  0  0  0  0  0
    0.7180   12.3480   -2.9280 C   0  0  0  0  0  0  0  0  0  0  0  0
    0.4340   11.1640   -2.7850 O   0  0  0  0  0  0  0  0  0  0  0  0
    0.8420   13.0570   -4.2650 C   0  0  0  0  0  0  0  0  0  0  0  0
   -0.4990   13.5390   -4.7700 C   0  0  0  0  0  0  0  0  0  0  0  0
   -1.4740   12.6330   -5.2040 C   0  0  0  0  0  0  0  0  0  0  0  0
   -0.7950   14.9130   -4.8090 C   0  0  0  0  0  0  0  0  0  0  0  0
   -1.1970   11.2920   -5.1690 O   0  0  0  0  0  0  0  0  0  0  0  0
   -2.7150   13.0770   -5.6650 C   0  0  0  0  0  0  0  0  0  0  0  0
   -2.0380   15.3620   -5.2680 C   0  0  0  0  0  0  0  0  0  0  0  0
   -2.9960   14.4450   -5.6950 C   0  0  0  0  0  0  0  0  0  0  0  0
  1  2  1  0
  2  3  2  0
  2  4  1  0
  4  5  1  0
  3  6  1  0
  4  7  1  0
  6  7  2  0
  5  8  1  0
  8  9  1  0
  9 10  2  0
  9 11  1  0
 11 12  1  0
 12 13  2  0
 12 14  1  0
 13 15  1  0
 13 16  1  0
 14 17  2  0
 16 18  2  0
 17 18  1  0
M  END
