diamond-x0905_0_A-diamond-x0844_0_A
     RDKit          3D

  8  8  0  0  0  0  0  0  0  0999 V2000
   -7.2230   15.1680   -0.6040 O   0  0  0  0  0  0  0  0  0  0  0  0
   -5.8670   15.0950   -0.5240 C   0  0  0  0  0  0  0  0  0  0  0  0
   -5.3610   15.0470    0.7220 N   0  0  0  0  0  0  0  0  0  0  0  0
   -5.1060   15.0700   -1.6610 C   0  0  0  0  0  0  0  0  0  0  0  0
   -4.0170   14.9850    0.8410 C   0  0  0  0  0  0  0  0  0  0  0  0
   -3.7340   14.9900   -1.5060 C   0  0  0  0  0  0  0  0  0  0  0  0
   -2.6740   14.9260   -3.0600 Br  0  0  0  0  0  0  0  0  0  0  0  0
   -3.1620   14.9530   -0.2370 C   0  0  0  0  0  0  0  0  0  0  0  0
  1  2  1  0
  2  3  2  0
  2  4  1  0
  3  5  1  0
  4  6  2  0
  6  7  1  0
  5  8  2  0
  6  8  1  0
M  END
