diamond-x1012_0_A-mac-x0412
     RDKit          3D

 25 27  0  0  0  0  0  0  0  0999 V2000
   -1.1240   17.5100   -4.8060 N   0  0  0  0  0  0  0  0  0  0  0  0
   -1.1880   16.1480   -4.9330 C   0  0  0  0  0  0  0  0  0  0  0  0
   -2.2240   15.4610   -4.8100 N   0  0  0  0  0  0  0  0  0  0  0  0
   -0.0620   15.5230   -5.2050 N   0  0  0  0  0  0  0  0  0  0  0  0
   -3.4800   15.9300   -4.5140 C   0  0  0  0  0  0  0  0  0  0  0  0
   -0.3210   14.1040   -5.4460 C   0  0  0  0  0  0  0  0  0  0  0  0
    1.0760   15.7940   -4.3560 C   0  0  0  0  0  0  0  0  0  0  0  0
   -4.3300   14.7820   -4.0100 C   0  0  0  0  0  0  0  0  0  0  0  0
   -0.7270   13.3840   -4.1740 C   0  0  0  0  0  0  0  0  0  0  0  0
    1.3950   14.5770   -3.4700 C   0  0  0  0  0  0  0  0  0  0  0  0
    0.1310   13.8420   -3.0130 C   0  0  0  0  0  0  0  0  0  0  0  0
   -4.4280   14.7360   -2.5040 C   0  0  0  0  0  0  0  0  0  0  0  0
    0.3370   12.6410   -2.1220 C   0  0  0  0  0  0  0  0  0  0  0  0
   -3.2650   15.0330   -1.6750 C   0  0  0  0  0  0  0  0  0  0  0  0
   -5.5800   14.4060   -1.9150 C   0  0  0  0  0  0  0  0  0  0  0  0
    0.3350   11.4320   -2.7190 O   0  0  0  0  0  0  0  0  0  0  0  0
    0.4760   12.7420   -0.9260 O   0  0  0  0  0  0  0  0  0  0  0  0
   -5.7340   14.2990   -0.4300 C   0  0  2  0  0  0  0  0  0  0  0  0
   -3.3480   15.1350   -0.3330 C   0  0  0  0  0  0  0  0  0  0  0  0
   -7.1080   14.7530    0.1130 C   0  0  0  0  0  0  0  0  0  0  0  0
   -4.6120   14.9480    0.3550 C   0  0  0  0  0  0  0  0  0  0  0  0
   -8.0370   15.0940   -0.6070 O   0  0  0  0  0  0  0  0  0  0  0  0
   -4.8250   15.3000    1.6320 C   0  0  0  0  0  0  0  0  0  0  0  0
   -7.2550   14.7510    1.4850 N   0  0  0  0  0  0  0  0  0  0  0  0
   -6.1970   15.0080    2.1670 C   0  0  0  0  0  0  0  0  0  0  0  0
  1  2  1  0
  2  3  2  3
  2  4  1  0
  3  5  1  0
  4  6  1  0
  4  7  1  0
  5  8  1  0
  6  9  1  0
  7 10  1  0
  9 11  1  0
 10 11  1  0
  8 12  1  0
 11 13  1  0
 12 14  1  0
 12 15  2  0
 13 16  1  0
 13 17  2  0
 18 15  1  6
 14 19  2  0
 18 20  1  0
 18 21  1  0
 19 21  1  0
 20 22  2  0
 21 23  2  0
 20 24  1  0
 23 25  1  0
 24 25  2  0
M  END
