diamond-x0837_0_A-diamond-x0128_0_A
     RDKit          3D

 18 19  0  0  0  0  0  0  0  0999 V2000
   -7.6960   14.6750    0.0670 O   0  0  0  0  0  0  0  0  0  0  0  0
   -6.4740   14.7450    0.1710 C   0  0  0  0  0  0  0  0  0  0  0  0
   -5.8120   14.9060    1.3790 N   0  0  0  0  0  0  0  0  0  0  0  0
   -5.6030   14.6570   -1.0300 C   0  0  0  0  0  0  0  0  0  0  0  0
   -6.5030   14.5120    2.5600 N   0  0  0  0  0  0  0  0  0  0  0  0
   -4.4700   15.2100    1.4590 C   0  0  0  0  0  0  0  0  0  0  0  0
   -4.2820   14.8670   -0.9240 C   0  0  0  0  0  0  0  0  0  0  0  0
   -3.0900   14.7110   -2.6090 I   0  0  0  0  0  0  0  0  0  0  0  0
   -7.6830   15.1370    3.0050 C   0  0  0  0  0  0  0  0  0  0  0  0
   -3.7010   15.1960    0.3640 C   0  0  0  0  0  0  0  0  0  0  0  0
   -8.6140   15.4560    2.2720 O   0  0  0  0  0  0  0  0  0  0  0  0
   -7.6200   15.3260    4.3800 N   0  0  0  0  0  0  0  0  0  0  0  0
   -8.4540   16.1160    5.2110 C   0  0  0  0  0  0  0  0  0  0  0  0
   -9.1610   17.2480    4.8160 C   0  0  0  0  0  0  0  0  0  0  0  0
   -8.5820   15.7330    6.5510 C   0  0  0  0  0  0  0  0  0  0  0  0
   -9.9530   17.9850    5.6360 N   0  0  0  0  0  0  0  0  0  0  0  0
   -9.3880   16.4760    7.4190 C   0  0  0  0  0  0  0  0  0  0  0  0
  -10.0470   17.5840    6.9170 C   0  0  0  0  0  0  0  0  0  0  0  0
  1  2  2  0
  2  3  1  0
  2  4  1  0
  3  5  1  0
  3  6  1  0
  4  7  2  0
  7  8  1  0
  5  9  1  0
  6 10  2  0
  7 10  1  0
  9 11  2  0
  9 12  1  0
 12 13  1  0
 13 14  2  0
 13 15  1  0
 14 16  1  0
 15 17  2  0
 16 18  2  0
 17 18  1  0
M  END
