diamond-x0962_0_A-diamond-x0910_0_A
     RDKit          3D

 12 13  0  0  0  0  0  0  0  0999 V2000
   -2.9290   15.1460   -2.4460 N   0  0  0  0  0  0  0  0  0  0  0  0
   -2.8840   14.3620   -1.2100 C   0  0  2  0  0  0  0  0  0  0  0  0
   -3.9980   14.6620   -0.2890 C   0  0  0  0  0  0  0  0  0  0  0  0
   -1.6220   14.5930   -0.4350 C   0  0  0  0  0  0  0  0  0  0  0  0
   -3.7590   15.0940    0.9890 N   0  0  0  0  0  0  0  0  0  0  0  0
   -5.3650   14.6080   -0.3930 C   0  0  0  0  0  0  0  0  0  0  0  0
   -1.6190   14.6330    0.9100 N   0  0  0  0  0  0  0  0  0  0  0  0
   -0.4020   14.7800   -1.0250 N   0  0  0  0  0  0  0  0  0  0  0  0
   -4.9570   15.2690    1.5910 C   0  0  0  0  0  0  0  0  0  0  0  0
   -5.9490   14.9810    0.7810 N   0  0  0  0  0  0  0  0  0  0  0  0
   -0.3290   14.8560    1.1550 N   0  0  0  0  0  0  0  0  0  0  0  0
    0.3800   14.9440    0.0060 C   0  0  0  0  0  0  0  0  0  0  0  0
  2  1  1  6
  2  3  1  0
  2  4  1  0
  3  5  1  0
  3  6  2  0
  4  7  2  0
  4  8  1  0
  5  9  1  0
  6 10  1  0
  9 10  2  0
  7 11  1  0
  8 12  2  0
 11 12  1  0
M  END
