diamond-x0626_0_A-diamond-x0950_0_A
     RDKit          3D

 19 19  0  0  0  0  0  0  0  0999 V2000
   -5.0420   14.6680    1.3060 N   0  0  0  0  0  0  0  0  0  0  0  0
   -6.2550   14.6000    0.7070 C   0  0  0  0  0  0  0  0  0  0  0  0
   -6.3290   14.7610   -0.5160 O   0  0  0  0  0  0  0  0  0  0  0  0
   -3.8450   14.7540    0.6920 C   0  0  0  0  0  0  0  0  0  0  0  0
   -7.4780   14.3360    1.5580 C   0  0  0  0  0  0  0  0  0  0  0  0
   -2.6650   14.7710    1.2300 N   0  0  0  0  0  0  0  0  0  0  0  0
   -3.9220   14.8520   -1.0080 S   0  0  0  0  0  0  0  0  0  0  0  0
   -8.7650   14.7100    0.8460 C   0  0  0  0  0  0  0  0  0  0  0  0
   -2.2200   14.9270   -1.0410 C   0  0  0  0  0  0  0  0  0  0  0  0
   -1.7180   14.8800    0.2410 C   0  0  0  0  0  0  0  0  0  0  0  0
   -0.3020   14.9440    0.6370 C   0  0  0  0  0  0  0  0  0  0  0  0
    0.6870   14.3400   -0.3560 C   0  0  0  0  0  0  0  0  0  0  0  0
    0.3580   13.9960   -1.7990 C   0  0  0  0  0  0  0  0  0  0  0  0
    1.0980   12.7890   -2.0740 O   0  0  0  0  0  0  0  0  0  0  0  0
    0.8700   12.0720   -3.1950 C   0  0  0  0  0  0  0  0  0  0  0  0
    1.5130   12.7300   -4.4140 C   0  0  1  0  0  0  0  0  0  0  0  0
    0.2510   11.0180   -3.2420 O   0  0  0  0  0  0  0  0  0  0  0  0
    3.0080   12.4590   -4.4470 C   0  0  0  0  0  0  0  0  0  0  0  0
    0.9330   12.2280   -5.6190 O   0  0  0  0  0  0  0  0  0  0  0  0
  1  2  1  0
  2  3  2  0
  1  4  1  0
  2  5  1  0
  4  6  2  0
  4  7  1  0
  5  8  1  0
  7  9  1  0
  6 10  1  0
  9 10  2  0
 10 11  1  0
 11 12  1  0
 12 13  1  0
 13 14  1  0
 14 15  1  0
 15 16  1  0
 15 17  2  0
 16 18  1  6
 16 19  1  0
M  END
