diamond-x1015_0_A-diamond-x0962_0_A
     RDKit          3D

 23 25  0  0  0  0  0  0  0  0999 V2000
   -1.5110   14.1700   -4.2870 C   0  0  0  0  0  0  0  0  0  0  0  0
   -0.1190   13.5680   -4.0790 C   0  0  2  0  0  0  0  0  0  0  0  0
   -0.1870   12.1200   -3.9640 N   0  0  0  0  0  0  0  0  0  0  0  0
    0.4190   13.8560   -2.6920 C   0  0  0  0  0  0  0  0  0  0  0  0
    0.3190   14.8770   -1.9520 N   0  0  0  0  0  0  0  0  0  0  0  0
    0.4240   11.6850   -2.7680 C   0  0  0  0  0  0  0  0  0  0  0  0
    1.0880   12.7690   -2.2710 N   0  0  0  0  0  0  0  0  0  0  0  0
   -0.5530   11.3240   -5.0730 C   0  0  0  0  0  0  0  0  0  0  0  0
    0.4080   10.5860   -2.2120 O   0  0  0  0  0  0  0  0  0  0  0  0
   -0.4760   15.9800   -2.4500 C   0  0  0  0  0  0  0  0  0  0  0  0
    0.0240   11.5330   -6.3320 C   0  0  0  0  0  0  0  0  0  0  0  0
   -1.5060   10.3060   -4.9400 C   0  0  0  0  0  0  0  0  0  0  0  0
   -1.7760   15.7320   -1.8270 C   0  0  0  0  0  0  0  0  0  0  0  0
   -0.3420   10.7490   -7.4320 C   0  0  0  0  0  0  0  0  0  0  0  0
   -1.8750    9.5200   -6.0350 C   0  0  0  0  0  0  0  0  0  0  0  0
   -2.7650   15.5270   -1.1920 C   0  0  0  0  0  0  0  0  0  0  0  0
   -1.2910    9.7470   -7.2750 C   0  0  0  0  0  0  0  0  0  0  0  0
   -1.7500    8.7790   -8.6180 Cl  0  0  0  0  0  0  0  0  0  0  0  0
   -3.8420   15.3330   -0.3140 C   0  0  0  0  0  0  0  0  0  0  0  0
   -3.7420   15.5570    1.0210 N   0  0  0  0  0  0  0  0  0  0  0  0
   -5.1330   14.9210   -0.5220 C   0  0  0  0  0  0  0  0  0  0  0  0
   -4.9500   15.2820    1.5730 C   0  0  0  0  0  0  0  0  0  0  0  0
   -5.8190   14.8910    0.6660 N   0  0  0  0  0  0  0  0  0  0  0  0
  2  1  1  1
  2  3  1  0
  2  4  1  0
  4  5  2  3
  3  6  1  0
  4  7  1  0
  6  7  1  0
  3  8  1  0
  6  9  2  0
  5 10  1  0
  8 11  2  0
  8 12  1  0
 10 13  1  0
 11 14  1  0
 12 15  2  0
 13 16  3  0
 14 17  2  0
 15 17  1  0
 17 18  1  0
 16 19  1  0
 19 20  1  0
 19 21  2  0
 20 22  1  0
 21 23  1  0
 22 23  2  0
M  END
