diamond-x0628_0_A-mac-x0360
     RDKit          3D

 26 27  0  0  0  0  0  0  0  0999 V2000
   -0.8760    9.0600   -7.3260 C   0  0  0  0  0  0  0  0  0  0  0  0
   -0.8670   10.2600   -6.4650 C   0  0  0  0  0  0  0  0  0  0  0  0
   -1.8720   10.5490   -5.5830 N   0  0  0  0  0  0  0  0  0  0  0  0
    0.1240   11.1500   -6.4830 N   0  0  0  0  0  0  0  0  0  0  0  0
   -0.2720   12.0430   -5.5590 N   0  0  0  0  0  0  0  0  0  0  0  0
   -1.4850   11.6800   -5.0110 C   0  0  0  0  0  0  0  0  0  0  0  0
   -2.2520   12.4190   -3.9510 C   0  0  0  0  0  0  0  0  0  0  0  0
    0.5590   13.2020   -5.2680 C   0  0  0  0  0  0  0  0  0  0  0  0
    1.6580   12.9760   -4.2290 C   0  0  0  0  0  0  0  0  0  0  0  0
   -2.3320   13.9450   -4.1560 C   0  0  0  0  0  0  0  0  0  0  0  0
    1.1230   12.2600   -3.0130 C   0  0  0  0  0  0  0  0  0  0  0  0
   -3.2660   14.6770   -3.1760 C   0  0  0  0  0  0  0  0  0  0  0  0
    0.6240   11.1470   -3.0050 O   0  0  0  0  0  0  0  0  0  0  0  0
    1.2530   12.9890   -1.8860 O   0  0  0  0  0  0  0  0  0  0  0  0
   -2.7940   14.5820   -1.7990 N   0  0  0  0  0  0  0  0  0  0  0  0
   -3.7740   14.7610   -0.4660 S   0  0  0  0  0  0  0  0  0  0  0  0
   -4.6830   15.8480   -0.7320 O   0  0  0  0  0  0  0  0  0  0  0  0
   -2.9260   14.7570    0.7060 O   0  0  0  0  0  0  0  0  0  0  0  0
   -4.7370   13.2620   -0.4600 C   0  0  0  0  0  0  0  0  0  0  0  0
   -4.5250   12.2940   -1.4530 C   0  0  0  0  0  0  0  0  0  0  0  0
   -5.7000   13.0630    0.5370 C   0  0  0  0  0  0  0  0  0  0  0  0
   -5.2970   11.1330   -1.4380 C   0  0  0  0  0  0  0  0  0  0  0  0
   -6.4570   11.8940    0.5280 C   0  0  0  0  0  0  0  0  0  0  0  0
   -7.6440   11.6310    1.7450 Cl  0  0  0  0  0  0  0  0  0  0  0  0
   -5.0700    9.9250   -2.6430 Cl  0  0  0  0  0  0  0  0  0  0  0  0
   -6.2630   10.9320   -0.4540 C   0  0  0  0  0  0  0  0  0  0  0  0
  1  2  1  0
  2  3  1  0
  2  4  2  0
  4  5  1  0
  3  6  2  0
  5  6  1  0
  6  7  1  0
  5  8  1  0
  8  9  1  0
  7 10  1  0
  9 11  1  0
 10 12  1  0
 11 13  2  0
 11 14  1  0
 12 15  1  0
 16 15  1  0
 16 17  2  0
 16 18  2  0
 16 19  1  0
 19 20  2  0
 19 21  1  0
 20 22  1  0
 21 23  2  0
 23 24  1  0
 22 25  1  0
 22 26  2  0
 23 26  1  0
M  END
