diamond-x0950_0_A-mac-x0159
     RDKit          3D

 24 26  0  0  0  0  0  0  0  0999 V2000
    2.7260   12.9850   -4.4720 C   0  0  0  0  0  0  0  0  0  0  0  0
    1.2290   12.7250   -4.4860 C   0  0  1  0  0  0  0  0  0  0  0  0
    0.9350   11.9040   -5.6140 O   0  0  0  0  0  0  0  0  0  0  0  0
    0.7460   12.0850   -3.1800 C   0  0  0  0  0  0  0  0  0  0  0  0
    0.4490   10.8970   -3.0820 O   0  0  0  0  0  0  0  0  0  0  0  0
    0.6930   13.0030   -2.1790 O   0  0  0  0  0  0  0  0  0  0  0  0
    0.9900   14.3890   -2.4980 C   0  0  0  0  0  0  0  0  0  0  0  0
   -0.2880   15.2930   -2.5530 C   0  0  2  0  0  0  0  0  0  0  0  0
   -1.5620   14.6640   -2.1180 N   0  0  0  0  0  0  0  0  0  0  0  0
   -0.2190   16.2460   -3.7360 C   0  0  0  0  0  0  0  0  0  0  0  0
   -2.7870   15.4880   -2.2580 C   0  0  0  0  0  0  0  0  0  0  0  0
   -1.3870   14.1880   -0.7600 C   0  0  2  0  0  0  0  0  0  0  0  0
    0.9940   16.6560   -4.2420 C   0  0  0  0  0  0  0  0  0  0  0  0
   -1.3160   16.7930   -4.3980 N   0  0  0  0  0  0  0  0  0  0  0  0
   -3.9340   15.1360   -1.3830 N   0  0  0  0  0  0  0  0  0  0  0  0
   -2.0730   15.1410    0.1980 C   0  0  1  0  0  0  0  0  0  0  0  0
   -0.0230   14.2350   -0.2970 N   0  0  0  0  0  0  0  0  0  0  0  0
   -0.8960   17.6040   -5.3630 C   0  0  0  0  0  0  0  0  0  0  0  0
    0.8010   17.7420   -5.5360 S   0  0  0  0  0  0  0  0  0  0  0  0
   -1.7710   18.3770   -6.2770 C   0  0  0  0  0  0  0  0  0  0  0  0
   -3.5390   14.7980   -0.0220 C   0  0  1  0  0  0  0  0  0  0  0  0
   -1.4570   14.8710    1.4810 N   0  0  0  0  0  0  0  0  0  0  0  0
   -0.0990   14.4970    1.1310 C   0  0  0  0  0  0  0  0  0  0  0  0
   -4.4660   15.4260    0.9100 N   0  0  0  0  0  0  0  0  0  0  0  0
  2  1  1  1
  2  3  1  0
  2  4  1  0
  4  5  2  0
  4  6  1  0
  6  7  1  0
  8  7  1  6
  8  9  1  0
  8 10  1  0
  9 11  1  0
  9 12  1  0
 10 13  2  0
 10 14  1  0
 11 15  1  0
 12 16  1  0
 12 17  1  1
 14 18  2  0
 13 19  1  0
 18 19  1  0
 18 20  1  0
 15 21  1  0
 16 21  1  0
 16 22  1  1
 17 23  1  0
 22 23  1  0
 21 24  1  1
M  END
