diamond-x1018_0_A-diamond-x0438_0_A
     RDKit          3D

 14 15  0  0  0  0  0  0  0  0999 V2000
   -8.3380   14.2580    0.9820 C   0  0  0  0  0  0  0  0  0  0  0  0
   -9.1000   15.2270    2.2900 S   0  0  0  0  0  0  0  0  0  0  0  0
   -7.9670   15.3620    3.6640 C   0  0  0  0  0  0  0  0  0  0  0  0
   -6.8780   14.5220    0.5920 C   0  0  0  0  0  0  0  0  0  0  0  0
  -10.2510   14.4830    2.7760 O   0  0  0  0  0  0  0  0  0  0  0  0
   -9.3430   16.5400    1.7480 O   0  0  0  0  0  0  0  0  0  0  0  0
   -6.6120   14.6270   -0.6840 N   0  0  0  0  0  0  0  0  0  0  0  0
   -5.8250   14.6030    1.6570 C   0  0  0  0  0  0  0  0  0  0  0  0
   -5.2840   14.7900   -0.9600 N   0  0  0  0  0  0  0  0  0  0  0  0
   -4.5400   14.7670    1.2910 C   0  0  0  0  0  0  0  0  0  0  0  0
   -4.8110   14.8990   -2.2090 N   0  0  0  0  0  0  0  0  0  0  0  0
   -4.2330   14.8620   -0.0770 C   0  0  0  0  0  0  0  0  0  0  0  0
   -3.1170   15.0090   -0.7600 N   0  0  0  0  0  0  0  0  0  0  0  0
   -3.4950   15.0310   -2.0850 N   0  0  0  0  0  0  0  0  0  0  0  0
  2  1  1  0
  2  3  1  0
  1  4  1  0
  2  5  2  0
  2  6  2  0
  4  7  2  0
  4  8  1  0
  7  9  1  0
  8 10  2  0
  9 11  1  0
  9 12  1  0
 10 12  1  0
 12 13  2  0
 11 14  2  0
 13 14  1  0
M  END
