diamond-x0591_0_A-diamond-x0628_0_A
     RDKit          3D

 25 26  0  0  0  0  0  0  0  0999 V2000
   -5.8530   14.6200    0.9110 N   0  0  0  0  0  0  0  0  0  0  0  0
   -6.7720   14.5270    2.0200 C   0  0  0  0  0  0  0  0  0  0  0  0
   -6.3450   14.8390   -0.3550 C   0  0  0  0  0  0  0  0  0  0  0  0
   -7.5290   15.0490   -0.5750 O   0  0  0  0  0  0  0  0  0  0  0  0
   -5.3860   14.8050   -1.4890 C   0  0  0  0  0  0  0  0  0  0  0  0
   -4.0100   14.7460   -1.2320 C   0  0  0  0  0  0  0  0  0  0  0  0
   -5.8390   14.8260   -2.8090 C   0  0  0  0  0  0  0  0  0  0  0  0
   -3.1010   14.7060   -2.2910 C   0  0  0  0  0  0  0  0  0  0  0  0
   -4.9350   14.7810   -3.8650 C   0  0  0  0  0  0  0  0  0  0  0  0
   -3.5820   14.7220   -3.6040 C   0  0  0  0  0  0  0  0  0  0  0  0
   -2.4350   14.6520   -4.9390 S   0  0  1  0  0  0  0  0  0  0  0  0
   -1.3210   15.9160   -4.7890 N   0  0  0  0  0  0  0  0  0  0  0  0
   -1.5340   13.4800   -4.5850 N   0  0  0  0  0  0  0  0  0  0  0  0
   -3.0940   15.0090   -6.1720 O   0  0  0  0  0  0  0  0  0  0  0  0
   -1.2150   12.3770   -5.4690 C   0  0  0  0  0  0  0  0  0  0  0  0
   -2.0240   11.4580   -5.9560 N   0  0  0  0  0  0  0  0  0  0  0  0
    0.0350   12.1690   -5.9040 N   0  0  0  0  0  0  0  0  0  0  0  0
    1.1990   12.9600   -5.5750 C   0  0  0  0  0  0  0  0  0  0  0  0
   -1.1780   10.6910   -6.7210 C   0  0  0  0  0  0  0  0  0  0  0  0
    0.1020   11.1010   -6.7220 N   0  0  0  0  0  0  0  0  0  0  0  0
   -1.6350    9.5100   -7.4840 C   0  0  0  0  0  0  0  0  0  0  0  0
    2.0370   12.4340   -4.4060 C   0  0  0  0  0  0  0  0  0  0  0  0
    1.2560   12.0450   -3.1660 C   0  0  0  0  0  0  0  0  0  0  0  0
    0.6210   11.0090   -3.0650 O   0  0  0  0  0  0  0  0  0  0  0  0
    1.3250   12.9230   -2.1470 O   0  0  0  0  0  0  0  0  0  0  0  0
  1  2  1  0
  1  3  1  0
  3  4  2  0
  3  5  1  0
  5  6  2  0
  5  7  1  0
  6  8  1  0
  7  9  2  0
  8 10  2  0
  9 10  1  0
 10 11  1  0
 11 12  1  1
 11 13  2  0
 11 14  2  0
 13 15  1  0
 15 16  2  0
 15 17  1  0
 17 18  1  0
 16 19  1  0
 17 20  1  0
 19 20  2  0
 19 21  1  0
 18 22  1  0
 22 23  1  0
 23 24  2  0
 23 25  1  0
M  END
