diamond-x0173_0_B-mac-x0378
     RDKit          3D

 18 19  0  0  0  0  0  0  0  0999 V2000
   15.0920   17.6760  -15.8170 N   0  0  0  0  0  0  0  0  0  0  0  0
   15.1010   16.3080  -15.8700 C   0  0  0  0  0  0  0  0  0  0  0  0
   16.1360   15.6640  -15.7190 O   0  0  0  0  0  0  0  0  0  0  0  0
   16.3210   18.4110  -15.6020 C   0  0  0  0  0  0  0  0  0  0  0  0
   13.8840   15.6880  -16.0970 N   0  0  0  0  0  0  0  0  0  0  0  0
   16.5250   18.7600  -14.1450 C   0  0  0  0  0  0  0  0  0  0  0  0
   13.6490   14.2680  -15.7970 C   0  0  0  0  0  0  0  0  0  0  0  0
   12.7110   16.5420  -16.3710 C   0  0  0  0  0  0  0  0  0  0  0  0
   15.6520   19.6540  -13.5010 C   0  0  0  0  0  0  0  0  0  0  0  0
   17.5860   18.2020  -13.4120 C   0  0  0  0  0  0  0  0  0  0  0  0
   12.4250   13.6700  -16.4850 C   0  0  0  0  0  0  0  0  0  0  0  0
   11.5040   15.7830  -16.9470 C   0  0  0  0  0  0  0  0  0  0  0  0
   15.8390   19.9840  -12.1560 C   0  0  0  0  0  0  0  0  0  0  0  0
   17.7720   18.5330  -12.0670 C   0  0  0  0  0  0  0  0  0  0  0  0
   11.2780   14.4970  -16.3780 O   0  0  0  0  0  0  0  0  0  0  0  0
   16.9000   19.4260  -11.4370 C   0  0  0  0  0  0  0  0  0  0  0  0
   17.0940   19.7680  -10.0620 C   0  0  0  0  0  0  0  0  0  0  0  0
   17.2570   20.0650   -8.9560 N   0  0  0  0  0  0  0  0  0  0  0  0
  1  2  1  0
  2  3  2  0
  1  4  1  0
  2  5  1  0
  4  6  1  0
  5  7  1  0
  5  8  1  0
  6  9  2  0
  6 10  1  0
  7 11  1  0
  8 12  1  0
  9 13  1  0
 10 14  2  0
 11 15  1  0
 12 15  1  0
 13 16  2  0
 14 16  1  0
 16 17  1  0
 17 18  3  0
M  END
