diamond-x0685_0_A-mac-x0138
     RDKit          3D

 22 24  0  0  0  0  0  0  0  0999 V2000
   -4.5080   15.2210    1.7510 N   0  0  0  0  0  0  0  0  0  0  0  0
   -5.1230   14.5620    2.9160 C   0  0  0  0  0  0  0  0  0  0  0  0
   -6.6330   14.3510    2.7890 C   0  0  0  0  0  0  0  0  0  0  0  0
   -5.1530   15.0280    0.5870 C   0  0  0  0  0  0  0  0  0  0  0  0
   -3.1710   14.8810    1.2920 C   0  0  0  0  0  0  0  0  0  0  0  0
   -4.4640   15.6900   -0.3750 C   0  0  0  0  0  0  0  0  0  0  0  0
   -6.2470   14.2800    0.3210 N   0  0  0  0  0  0  0  0  0  0  0  0
   -2.8910   14.8320   -0.1320 C   0  0  0  0  0  0  0  0  0  0  0  0
   -2.0770   14.5790    2.0510 N   0  0  0  0  0  0  0  0  0  0  0  0
   -4.8110   15.5990   -1.6760 C   0  0  0  0  0  0  0  0  0  0  0  0
   -6.5840   14.1940   -0.9950 C   0  0  0  0  0  0  0  0  0  0  0  0
   -3.6670   15.0500   -1.2600 N   0  0  0  0  0  0  0  0  0  0  0  0
   -1.6150   14.5150   -0.5700 C   0  0  0  0  0  0  0  0  0  0  0  0
   -0.8880   14.2830    1.4650 C   0  0  0  0  0  0  0  0  0  0  0  0
    0.1300   13.9960    2.3130 N   0  0  0  0  0  0  0  0  0  0  0  0
   -5.8730   14.8250   -2.0020 C   0  0  0  0  0  0  0  0  0  0  0  0
   -1.6440   14.5570   -1.9410 N   0  0  0  0  0  0  0  0  0  0  0  0
   -2.9000   14.8810   -2.3120 C   0  0  0  0  0  0  0  0  0  0  0  0
   -0.5730   14.2330    0.1730 N   0  0  0  0  0  0  0  0  0  0  0  0
   -6.1670   14.7080   -3.3740 C   0  0  0  0  0  0  0  0  0  0  0  0
   -0.5420   14.3090   -2.8330 C   0  0  0  0  0  0  0  0  0  0  0  0
   -6.2990   14.5820   -4.5130 N   0  0  0  0  0  0  0  0  0  0  0  0
  1  2  1  0
  2  3  1  0
  1  4  1  0
  1  5  1  0
  4  6  2  0
  4  7  1  0
  5  8  1  0
  5  9  2  0
  6 10  1  0
  7 11  2  0
  8 12  1  0
  8 13  2  0
  9 14  1  0
 14 15  1  0
 10 16  2  0
 11 16  1  0
 13 17  1  0
 12 18  2  0
 17 18  1  0
 13 19  1  0
 14 19  2  0
 16 20  1  0
 17 21  1  0
 20 22  3  0
M  END
