diamond-x0837_0_A-diamond-x0766_0_A
     RDKit          3D

 20 22  0  0  0  0  0  0  0  0999 V2000
   -7.4850   14.3750   -0.4500 O   0  0  0  0  0  0  0  0  0  0  0  0
   -6.2660   14.4170   -0.2900 C   0  0  0  0  0  0  0  0  0  0  0  0
   -5.7420   14.4910    0.9570 N   0  0  0  0  0  0  0  0  0  0  0  0
   -5.2440   14.4190   -1.4270 C   0  0  0  0  0  0  0  0  0  0  0  0
   -4.8430   15.4350    1.2380 C   0  0  0  0  0  0  0  0  0  0  0  0
   -4.0400   15.3600   -1.1760 C   0  0  1  0  0  0  0  0  0  0  0  0
   -4.0490   15.8790    0.2720 C   0  0  0  0  0  0  0  0  0  0  0  0
   -2.6060   14.8450   -1.1750 C   0  0  0  0  0  0  0  0  0  0  0  0
   -1.4050   14.5150   -1.9190 C   0  0  0  0  0  0  0  0  0  0  0  0
   -2.4020   14.5900    0.5090 S   0  0  0  0  0  0  0  0  0  0  0  0
   -0.8120   14.4700   -3.3540 C   0  0  2  0  0  0  0  0  0  0  0  0
   -0.4290   14.0910   -0.9370 C   0  0  0  0  0  0  0  0  0  0  0  0
   -0.8360   14.0900    0.3570 C   0  0  0  0  0  0  0  0  0  0  0  0
    0.4590   13.5720   -3.3150 C   0  0  1  0  0  0  0  0  0  0  0  0
   -0.0940   15.6840   -3.9850 C   0  0  0  0  0  0  0  0  0  0  0  0
    0.2950   12.2130   -2.6760 C   0  0  0  0  0  0  0  0  0  0  0  0
    1.0010   13.6250   -4.7200 C   0  0  0  0  0  0  0  0  0  0  0  0
    1.0820   15.1390   -4.8380 C   0  0  0  0  0  0  0  0  0  0  0  0
    0.4580   12.0430   -1.4850 O   0  0  0  0  0  0  0  0  0  0  0  0
   -0.0380   11.2080   -3.5130 O   0  0  0  0  0  0  0  0  0  0  0  0
  1  2  2  0
  2  3  1  0
  2  4  1  0
  3  5  1  0
  4  6  1  0
  5  7  2  0
  6  7  1  0
  6  8  1  1
  8  9  2  0
  8 10  1  0
 11  9  1  1
  9 12  1  0
 10 13  1  0
 12 13  2  0
 11 14  1  0
 11 15  1  0
 14 16  1  6
 14 17  1  0
 15 18  1  0
 17 18  1  0
 16 19  2  0
 16 20  1  0
M  END
