diamond-x0685_0_A-mac-x0179
     RDKit          3D

 28 30  0  0  0  0  0  0  0  0999 V2000
   -6.3140   15.0020    2.6730 N   0  0  0  0  0  0  0  0  0  0  0  0
   -7.7530   14.7940    2.6310 C   0  0  0  0  0  0  0  0  0  0  0  0
   -8.0950   13.3600    2.9950 C   0  0  0  0  0  0  0  0  0  0  0  0
   -5.6230   15.0140    1.4550 C   0  0  0  0  0  0  0  0  0  0  0  0
   -4.2360   15.1780    1.4720 C   0  0  0  0  0  0  0  0  0  0  0  0
   -6.3110   14.8850    0.3090 N   0  0  0  0  0  0  0  0  0  0  0  0
   -3.5420   15.2160    0.2700 C   0  0  0  0  0  0  0  0  0  0  0  0
   -5.6210   14.9290   -0.8410 C   0  0  0  0  0  0  0  0  0  0  0  0
   -4.2580   15.0930   -0.9090 C   0  0  0  0  0  0  0  0  0  0  0  0
   -3.6220   15.1190   -2.1620 C   0  0  0  0  0  0  0  0  0  0  0  0
   -3.0440   14.9400   -3.1730 C   0  0  0  0  0  0  0  0  0  0  0  0
   -2.2600   14.4690   -4.2960 C   0  0  0  0  0  0  0  0  0  0  0  0
   -1.5620   13.1920   -3.8160 C   0  0  0  0  0  0  0  0  0  0  0  0
   -1.9300   12.0440   -4.6170 N   0  0  0  0  0  0  0  0  0  0  0  0
   -1.1390   11.4590   -5.4140 C   0  0  0  0  0  0  0  0  0  0  0  0
    0.1460   11.9220   -5.5320 N   0  0  0  0  0  0  0  0  0  0  0  0
   -1.2600   10.3250   -6.3450 C   0  0  0  0  0  0  0  0  0  0  0  0
    0.8850   12.7550   -4.5960 C   0  0  0  0  0  0  0  0  0  0  0  0
    0.7520   11.4030   -6.6090 C   0  0  0  0  0  0  0  0  0  0  0  0
   -0.0860   10.3130   -7.0860 C   0  0  0  0  0  0  0  0  0  0  0  0
   -2.2300    9.3670   -6.6020 C   0  0  0  0  0  0  0  0  0  0  0  0
    0.9950   12.1450   -3.2050 C   0  0  0  0  0  0  0  0  0  0  0  0
    1.7910   11.7270   -7.0830 O   0  0  0  0  0  0  0  0  0  0  0  0
    0.1880    9.4000   -8.0830 C   0  0  0  0  0  0  0  0  0  0  0  0
   -1.9830    8.4220   -7.6080 C   0  0  0  0  0  0  0  0  0  0  0  0
    1.5510   12.9360   -2.2660 O   0  0  0  0  0  0  0  0  0  0  0  0
    0.6190   11.0210   -2.9040 O   0  0  0  0  0  0  0  0  0  0  0  0
   -0.7860    8.4370   -8.3450 C   0  0  0  0  0  0  0  0  0  0  0  0
  1  2  1  0
  2  3  1  0
  1  4  1  0
  4  5  2  0
  4  6  1  0
  5  7  1  0
  6  8  2  0
  7  9  2  0
  8  9  1  0
  9 10  1  0
 10 11  3  0
 11 12  1  0
 12 13  1  0
 13 14  1  0
 14 15  2  3
 15 16  1  0
 15 17  1  0
 16 18  1  0
 16 19  1  0
 17 20  2  0
 19 20  1  0
 17 21  1  0
 18 22  1  0
 19 23  2  0
 20 24  1  0
 21 25  2  0
 22 26  1  0
 22 27  2  0
 24 28  2  0
 25 28  1  0
M  END
