diamond-x0837_0_A-mac-x0437
     RDKit          3D

 25 27  0  0  0  0  0  0  0  0999 V2000
   -7.6020   14.6570    0.1350 O   0  0  0  0  0  0  0  0  0  0  0  0
   -6.3500   14.8570    0.1570 C   0  0  0  0  0  0  0  0  0  0  0  0
   -5.6200   14.8620    1.3670 N   0  0  0  0  0  0  0  0  0  0  0  0
   -5.6290   15.0980   -1.1090 C   0  0  0  0  0  0  0  0  0  0  0  0
   -4.2450   15.1980    1.3370 C   0  0  0  0  0  0  0  0  0  0  0  0
   -4.2500   14.5610   -1.0110 C   0  0  1  0  0  0  0  0  0  0  0  0
   -3.1130   14.8430   -2.7810 I   0  0  0  0  0  0  0  0  0  0  0  0
   -3.5980   15.0550    0.2190 C   0  0  0  0  0  0  0  0  0  0  0  0
   -1.0230   14.4020   -2.4770 C   0  0  0  0  0  0  0  0  0  0  0  0
   -0.2660   15.0040   -3.6230 C   0  0  0  0  0  0  0  0  0  0  0  0
   -0.4030   14.3980   -4.9590 C   0  0  0  0  0  0  0  0  0  0  0  0
    0.3710   13.1840   -5.3260 C   0  0  1  0  0  0  0  0  0  0  0  0
    1.6550   12.9960   -4.6090 C   0  0  0  0  0  0  0  0  0  0  0  0
   -0.4030   12.0180   -5.6350 N   0  0  0  0  0  0  0  0  0  0  0  0
    1.3480   12.3510   -3.2590 C   0  0  0  0  0  0  0  0  0  0  0  0
   -1.5580   11.7100   -4.9650 C   0  0  0  0  0  0  0  0  0  0  0  0
   -0.2620   11.0440   -6.5110 C   0  0  0  0  0  0  0  0  0  0  0  0
    1.8110   12.9120   -2.0830 O   0  0  0  0  0  0  0  0  0  0  0  0
    0.6560   11.2910   -3.1750 O   0  0  0  0  0  0  0  0  0  0  0  0
   -2.0770   10.5950   -5.4290 N   0  0  0  0  0  0  0  0  0  0  0  0
   -1.2970   10.1470   -6.3940 C   0  0  0  0  0  0  0  0  0  0  0  0
    0.6960   10.8180   -7.4470 C   0  0  0  0  0  0  0  0  0  0  0  0
   -1.4090    9.0210   -7.1830 C   0  0  0  0  0  0  0  0  0  0  0  0
    0.6130    9.6960   -8.2550 C   0  0  0  0  0  0  0  0  0  0  0  0
   -0.4380    8.7840   -8.1340 C   0  0  0  0  0  0  0  0  0  0  0  0
  1  2  2  0
  2  3  1  0
  2  4  1  0
  3  5  1  0
  4  6  1  0
  6  7  1  6
  5  8  2  0
  6  8  1  0
  7  9  1  0
  9 10  1  0
 10 11  1  0
 12 11  1  1
 12 13  1  0
 12 14  1  0
 13 15  1  0
 14 16  1  0
 14 17  1  0
 15 18  1  0
 15 19  2  0
 16 20  2  0
 17 21  2  0
 20 21  1  0
 17 22  1  0
 21 23  1  0
 22 24  2  0
 23 25  2  0
 24 25  1  0
M  END
