diamond-x0905_0_A-mac-x0255
     RDKit          3D

 23 25  0  0  0  0  0  0  0  0999 V2000
   -7.0350   15.1930   -0.7590 O   0  0  0  0  0  0  0  0  0  0  0  0
   -5.6950   15.1380   -0.5640 C   0  0  0  0  0  0  0  0  0  0  0  0
   -5.3510   14.9810    0.7190 N   0  0  0  0  0  0  0  0  0  0  0  0
   -4.8180   15.2360   -1.6190 C   0  0  0  0  0  0  0  0  0  0  0  0
   -4.0260   14.9120    0.9720 C   0  0  0  0  0  0  0  0  0  0  0  0
   -3.4570   15.1600   -1.3270 C   0  0  0  0  0  0  0  0  0  0  0  0
   -3.0360   14.9890    0.0050 C   0  0  0  0  0  0  0  0  0  0  0  0
   -1.5810   14.8870    0.4060 C   0  0  0  0  0  0  0  0  0  0  0  0
   -0.6010   14.7350   -0.7630 C   0  0  0  0  0  0  0  0  0  0  0  0
    0.0780   13.3820   -0.7350 C   0  0  0  0  0  0  0  0  0  0  0  0
    1.0490   13.2420   -1.7880 O   0  0  0  0  0  0  0  0  0  0  0  0
    0.8070   12.2870   -2.7340 C   0  0  0  0  0  0  0  0  0  0  0  0
    0.3020   11.1900   -2.5170 O   0  0  0  0  0  0  0  0  0  0  0  0
    1.2570   12.7650   -4.0930 C   0  0  0  0  0  0  0  0  0  0  0  0
    0.5930   14.0590   -4.4470 C   0  0  0  0  0  0  0  0  0  0  0  0
    1.1820   15.2890   -4.6450 C   0  0  0  0  0  0  0  0  0  0  0  0
   -1.1010   14.1400   -4.6620 S   0  0  0  0  0  0  0  0  0  0  0  0
    0.2410   16.3140   -4.9870 C   0  0  0  0  0  0  0  0  0  0  0  0
   -1.0630   15.8190   -5.0320 C   0  0  0  0  0  0  0  0  0  0  0  0
    0.4470   17.6830   -5.2730 C   0  0  0  0  0  0  0  0  0  0  0  0
   -2.1600   16.6450   -5.3530 C   0  0  0  0  0  0  0  0  0  0  0  0
   -0.6370   18.4990   -5.5940 C   0  0  0  0  0  0  0  0  0  0  0  0
   -1.9150   17.9920   -5.6340 C   0  0  0  0  0  0  0  0  0  0  0  0
  1  2  1  0
  2  3  2  0
  2  4  1  0
  3  5  1  0
  4  6  2  0
  5  7  2  0
  6  7  1  0
  7  8  1  0
  8  9  1  0
  9 10  1  0
 10 11  1  0
 11 12  1  0
 12 13  2  0
 12 14  1  0
 14 15  1  0
 15 16  2  0
 15 17  1  0
 16 18  1  0
 17 19  1  0
 18 19  2  0
 18 20  1  0
 19 21  1  0
 20 22  2  0
 21 23  2  0
 22 23  1  0
M  END
