diamond-x0950_1_A-mac-x0338
     RDKit          3D

 18 18  0  0  0  0  0  0  0  0999 V2000
    1.0520   14.0050   -4.6590 C   0  0  0  0  0  0  0  0  0  0  0  0
    1.3350   12.5350   -4.4080 C   0  0  2  0  0  0  0  0  0  0  0  0
    0.6430   11.7650   -5.3950 O   0  0  0  0  0  0  0  0  0  0  0  0
    0.9310   12.0940   -2.9930 C   0  0  0  0  0  0  0  0  0  0  0  0
    0.1920   11.1380   -2.7680 O   0  0  0  0  0  0  0  0  0  0  0  0
    1.5110   12.8710   -2.0340 O   0  0  0  0  0  0  0  0  0  0  0  0
    0.6570   13.7620   -1.2850 C   0  0  0  0  0  0  0  0  0  0  0  0
   -0.8300   13.4130   -1.4110 C   0  0  0  0  0  0  0  0  0  0  0  0
   -1.5930   14.4340   -2.2690 C   0  0  0  0  0  0  0  0  0  0  0  0
   -3.0260   14.7030   -1.8740 C   0  0  0  0  0  0  0  0  0  0  0  0
   -3.3530   14.7880   -0.5540 N   0  0  0  0  0  0  0  0  0  0  0  0
   -3.9940   14.8540   -2.8690 C   0  0  0  0  0  0  0  0  0  0  0  0
   -4.6810   15.0260   -0.3080 C   0  0  0  0  0  0  0  0  0  0  0  0
   -5.2980   15.0860   -2.6100 N   0  0  0  0  0  0  0  0  0  0  0  0
   -5.1370   15.1250    1.0940 C   0  0  0  0  0  0  0  0  0  0  0  0
   -5.6220   15.1730   -1.3050 C   0  0  0  0  0  0  0  0  0  0  0  0
   -4.1970   15.4780    2.0010 N   0  0  0  0  0  0  0  0  0  0  0  0
   -6.2970   14.8970    1.4170 O   0  0  0  0  0  0  0  0  0  0  0  0
  2  1  1  6
  2  3  1  0
  2  4  1  0
  4  5  2  0
  4  6  1  0
  6  7  1  0
  7  8  1  0
  8  9  1  0
  9 10  1  0
 10 11  2  0
 10 12  1  0
 11 13  1  0
 12 14  2  0
 13 15  1  0
 13 16  2  0
 14 16  1  0
 15 17  1  0
 15 18  2  0
M  END
