diamond-x0282_0_A-mac-x0302
     RDKit          3D

 21 22  0  0  0  0  0  0  0  0999 V2000
   -7.3660   13.6390    0.7460 C   0  0  0  0  0  0  0  0  0  0  0  0
   -8.6200   14.1170    0.3040 O   0  0  0  0  0  0  0  0  0  0  0  0
   -6.2730   14.6460    0.3940 C   0  0  1  0  0  0  0  0  0  0  0  0
   -5.2840   14.9590    1.5290 C   0  0  0  0  0  0  0  0  0  0  0  0
   -5.5180   14.3980   -0.9060 C   0  0  0  0  0  0  0  0  0  0  0  0
   -4.0560   14.0550    1.5480 C   0  0  0  0  0  0  0  0  0  0  0  0
   -4.0510   14.8270   -0.8640 C   0  0  2  0  0  0  0  0  0  0  0  0
   -3.3460   14.8680   -2.2930 C   0  0  0  0  0  0  0  0  0  0  0  0
   -3.3960   14.0860    0.2420 N   0  0  0  0  0  0  0  0  0  0  0  0
   -2.1310   14.1730   -2.4160 N   0  0  0  0  0  0  0  0  0  0  0  0
   -3.8040   15.4490   -3.2760 O   0  0  0  0  0  0  0  0  0  0  0  0
   -2.0640   14.3810    0.3190 C   0  0  0  0  0  0  0  0  0  0  0  0
   -1.1760   14.5040   -3.4790 C   0  0  0  0  0  0  0  0  0  0  0  0
   -1.5020   14.7050   -0.8360 N   0  0  0  0  0  0  0  0  0  0  0  0
   -1.4000   14.3410    1.4910 N   0  0  0  0  0  0  0  0  0  0  0  0
    0.2320   14.0090   -3.1430 C   0  0  0  0  0  0  0  0  0  0  0  0
   -0.2300   15.0130   -0.8550 C   0  0  0  0  0  0  0  0  0  0  0  0
   -0.1080   14.6520    1.4070 C   0  0  0  0  0  0  0  0  0  0  0  0
    1.1720   14.3980   -4.0290 O   0  0  0  0  0  0  0  0  0  0  0  0
    0.5580   13.3290   -2.1830 O   0  0  0  0  0  0  0  0  0  0  0  0
    0.5230   15.0090    0.2370 C   0  0  0  0  0  0  0  0  0  0  0  0
  1  2  1  0
  3  1  1  1
  3  4  1  0
  3  5  1  0
  4  6  1  0
  5  7  1  0
  7  8  1  6
  6  9  1  0
  7  9  1  0
  8 10  1  0
  8 11  2  0
  9 12  1  0
 10 13  1  0
 12 14  2  0
 12 15  1  0
 13 16  1  0
 14 17  1  0
 15 18  2  0
 16 19  1  0
 16 20  2  0
 17 21  2  0
 18 21  1  0
M  END
