diamond-x0471_0_A-mac-x0402
     RDKit          3D

 18 19  0  0  0  0  0  0  0  0999 V2000
   -8.9550   14.1840    2.7120 N   0  0  0  0  0  0  0  0  0  0  0  0
   -9.2340   15.2010    3.6080 C   0  0  0  0  0  0  0  0  0  0  0  0
   -9.4610   16.3390    3.2160 O   0  0  0  0  0  0  0  0  0  0  0  0
   -9.0550   14.4300    1.2740 C   0  0  0  0  0  0  0  0  0  0  0  0
   -9.2830   14.8230    5.0920 C   0  0  0  0  0  0  0  0  0  0  0  0
   -7.6850   14.5860    0.7060 C   0  0  0  0  0  0  0  0  0  0  0  0
   -9.5770   13.3400    5.3020 C   0  0  0  0  0  0  0  0  0  0  0  0
   -8.0160   15.2550    5.8250 C   0  0  0  0  0  0  0  0  0  0  0  0
   -7.3230   14.5210   -0.5640 N   0  0  0  0  0  0  0  0  0  0  0  0
   -6.6140   14.8270    1.5030 N   0  0  0  0  0  0  0  0  0  0  0  0
   -6.6960   14.9660    2.9080 N   0  0  0  0  0  0  0  0  0  0  0  0
   -5.4750   14.9130    0.7210 C   0  0  0  0  0  0  0  0  0  0  0  0
   -5.9590   14.7190   -0.5680 C   0  0  0  0  0  0  0  0  0  0  0  0
   -5.0740   14.7410   -1.6560 C   0  0  0  0  0  0  0  0  0  0  0  0
   -4.1120   15.1310    0.9940 C   0  0  0  0  0  0  0  0  0  0  0  0
   -3.7140   14.9460   -1.4130 C   0  0  0  0  0  0  0  0  0  0  0  0
   -3.2390   15.1390   -0.1060 C   0  0  0  0  0  0  0  0  0  0  0  0
   -2.6270   14.9430   -2.7660 Cl  0  0  0  0  0  0  0  0  0  0  0  0
  1  2  1  0
  2  3  2  0
  1  4  1  0
  2  5  1  0
  4  6  1  0
  5  7  1  0
  5  8  1  0
  6  9  2  0
  6 10  1  0
 10 11  1  0
 10 12  1  0
  9 13  1  0
 12 13  2  0
 13 14  1  0
 12 15  1  0
 14 16  2  0
 15 17  2  0
 16 17  1  0
 16 18  1  0
M  END
