diamond-x0926_0_A-diamond-x0465_0_A
     RDKit          3D

 23 24  0  0  0  0  0  0  0  0999 V2000
   -6.7080   15.0200   -0.3800 O   0  0  0  0  0  0  0  0  0  0  0  0
   -5.4940   15.1700   -0.3360 C   0  0  0  0  0  0  0  0  0  0  0  0
   -4.7700   15.2770    0.9550 C   0  0  0  0  0  0  0  0  0  0  0  0
   -4.7110   15.2440   -1.4670 N   0  0  0  0  0  0  0  0  0  0  0  0
   -3.2970   15.2470   -1.4390 N   0  0  0  0  0  0  0  0  0  0  0  0
   -3.4640   15.0150    0.9950 C   0  0  0  0  0  0  0  0  0  0  0  0
   -2.7100   14.6020   -0.2430 C   0  0  2  0  0  0  0  0  0  0  0  0
   -1.1940   14.9030   -0.1300 C   0  0  0  0  0  0  0  0  0  0  0  0
   -0.2590   13.7270   -0.0690 C   0  0  0  0  0  0  0  0  0  0  0  0
    0.6090   13.5740   -1.3180 C   0  0  0  0  0  0  0  0  0  0  0  0
    0.5170   12.1650   -1.6260 N   0  0  0  0  0  0  0  0  0  0  0  0
    0.5600   11.6280   -2.7960 C   0  0  0  0  0  0  0  0  0  0  0  0
    0.7110   12.3520   -4.1770 C   0  0  1  0  0  0  0  0  0  0  0  0
    0.4430   10.2800   -2.8210 O   0  0  0  0  0  0  0  0  0  0  0  0
    2.1060   12.9860   -4.2970 C   0  0  0  0  0  0  0  0  0  0  0  0
    0.5570   11.5260   -5.3380 O   0  0  0  0  0  0  0  0  0  0  0  0
   -0.6280   10.8640   -5.5350 C   0  0  0  0  0  0  0  0  0  0  0  0
   -0.6550    9.8820   -6.5420 C   0  0  0  0  0  0  0  0  0  0  0  0
   -1.7970   11.0970   -4.8080 C   0  0  0  0  0  0  0  0  0  0  0  0
    0.4290    9.6080   -7.2820 F   0  0  0  0  0  0  0  0  0  0  0  0
   -1.8100    9.1510   -6.8130 C   0  0  0  0  0  0  0  0  0  0  0  0
   -2.9590   10.3620   -5.0810 C   0  0  0  0  0  0  0  0  0  0  0  0
   -2.9650    9.3940   -6.0780 C   0  0  0  0  0  0  0  0  0  0  0  0
  1  2  2  0
  2  3  1  0
  2  4  1  0
  4  5  1  0
  3  6  2  0
  5  7  1  0
  6  7  1  0
  7  8  1  1
  8  9  1  0
  9 10  1  0
 10 11  1  0
 11 12  2  3
 12 13  1  0
 12 14  1  0
 13 15  1  1
 13 16  1  0
 16 17  1  0
 17 18  2  0
 17 19  1  0
 18 20  1  0
 18 21  1  0
 19 22  2  0
 21 23  2  0
 22 23  1  0
M  END
