diamond-x0587_0_A-mac-x0358
     RDKit          3D

 26 27  0  0  0  0  0  0  0  0999 V2000
   -7.8440   14.8970    4.0200 N   0  0  0  0  0  0  0  0  0  0  0  0
   -8.3350   14.8460    2.7480 C   0  0  0  0  0  0  0  0  0  0  0  0
   -9.5380   14.9210    2.5440 O   0  0  0  0  0  0  0  0  0  0  0  0
   -7.3950   14.7250    1.6170 C   0  0  0  0  0  0  0  0  0  0  0  0
   -7.7560   14.4020    0.3310 C   0  0  0  0  0  0  0  0  0  0  0  0
   -6.0480   14.9500    1.7920 C   0  0  0  0  0  0  0  0  0  0  0  0
   -6.8820   14.3130   -0.6990 N   0  0  0  0  0  0  0  0  0  0  0  0
   -5.1220   14.8760    0.8030 N   0  0  0  0  0  0  0  0  0  0  0  0
   -5.5740   14.5590   -0.4360 C   0  0  0  0  0  0  0  0  0  0  0  0
   -4.5500   14.4870   -1.5930 C   0  0  0  0  0  0  0  0  0  0  0  0
   -3.2750   14.7520   -1.1870 F   0  0  0  0  0  0  0  0  0  0  0  0
   -4.5380   13.2230   -2.3130 O   0  0  0  0  0  0  0  0  0  0  0  0
   -4.8170   15.4360   -2.5290 F   0  0  0  0  0  0  0  0  0  0  0  0
   -5.1640   13.2660   -3.6220 C   0  0  0  0  0  0  0  0  0  0  0  0
   -4.2440   12.6310   -4.6930 C   0  0  0  0  0  0  0  0  0  0  0  0
   -2.9250   13.3600   -4.8260 C   0  0  0  0  0  0  0  0  0  0  0  0
   -1.6580   12.7600   -4.6900 C   0  0  0  0  0  0  0  0  0  0  0  0
   -2.9830   14.7370   -5.0880 C   0  0  0  0  0  0  0  0  0  0  0  0
   -1.4950   11.4150   -4.4420 O   0  0  0  0  0  0  0  0  0  0  0  0
   -0.4810   13.5170   -4.7930 C   0  0  0  0  0  0  0  0  0  0  0  0
   -1.8230   15.4940   -5.2000 C   0  0  0  0  0  0  0  0  0  0  0  0
    0.8660   12.8680   -4.6160 C   0  0  0  0  0  0  0  0  0  0  0  0
   -0.5760   14.8900   -5.0510 C   0  0  0  0  0  0  0  0  0  0  0  0
    0.9780   12.2060   -3.2550 C   0  0  0  0  0  0  0  0  0  0  0  0
    1.6850   12.9100   -2.3390 O   0  0  0  0  0  0  0  0  0  0  0  0
    0.4690   11.1270   -2.9840 O   0  0  0  0  0  0  0  0  0  0  0  0
  1  2  1  0
  2  3  2  0
  2  4  1  0
  4  5  2  0
  4  6  1  0
  5  7  1  0
  6  8  2  0
  7  9  2  0
  8  9  1  0
  9 10  1  0
 10 11  1  0
 10 12  1  0
 10 13  1  0
 12 14  1  0
 14 15  1  0
 15 16  1  0
 16 17  2  0
 16 18  1  0
 17 19  1  0
 17 20  1  0
 18 21  2  0
 20 22  1  0
 20 23  2  0
 21 23  1  0
 22 24  1  0
 24 25  1  0
 24 26  2  0
M  END
