diamond-x0104_0_A-mac-x0396
     RDKit          3D

 19 20  0  0  0  0  0  0  0  0999 V2000
   -6.7060   14.8400    2.5900 N   0  0  0  0  0  0  0  0  0  0  0  0
   -7.9800   15.0670    3.1210 C   0  0  0  0  0  0  0  0  0  0  0  0
   -7.9480   15.0240    4.5080 N   0  0  0  0  0  0  0  0  0  0  0  0
   -6.2970   14.8080    1.2280 C   0  0  0  0  0  0  0  0  0  0  0  0
   -8.9880   15.2790    2.4550 O   0  0  0  0  0  0  0  0  0  0  0  0
   -4.9970   15.2010    0.8200 C   0  0  0  0  0  0  0  0  0  0  0  0
   -7.1540   14.3950    0.2030 C   0  0  0  0  0  0  0  0  0  0  0  0
   -4.5670   15.1870   -0.4600 N   0  0  0  0  0  0  0  0  0  0  0  0
   -6.7090   14.3850   -1.1220 C   0  0  0  0  0  0  0  0  0  0  0  0
   -9.0590   15.0600    5.3290 C   0  0  0  0  0  0  0  0  0  0  0  0
   -3.9140   15.6940    1.7330 C   0  0  0  0  0  0  0  0  0  0  0  0
   -5.4180   14.7840   -1.3970 C   0  0  0  0  0  0  0  0  0  0  0  0
   -9.2080   15.1990    6.6850 C   0  0  0  0  0  0  0  0  0  0  0  0
  -10.5560   14.8990    4.5250 S   0  0  0  0  0  0  0  0  0  0  0  0
   -2.6770   14.9230    1.5670 N   0  0  0  0  0  0  0  0  0  0  0  0
   -4.9970   14.7590   -2.7080 O   0  0  0  0  0  0  0  0  0  0  0  0
  -11.4260   15.0140    5.9990 C   0  0  0  0  0  0  0  0  0  0  0  0
  -10.5810   15.1730    7.0780 C   0  0  0  0  0  0  0  0  0  0  0  0
   -3.6130   15.0640   -2.8630 C   0  0  0  0  0  0  0  0  0  0  0  0
  1  2  1  0
  2  3  1  0
  1  4  1  0
  2  5  2  0
  4  6  2  0
  4  7  1  0
  6  8  1  0
  7  9  2  0
  3 10  1  0
  6 11  1  0
  8 12  2  0
  9 12  1  0
 10 13  2  0
 10 14  1  0
 11 15  1  0
 12 16  1  0
 14 17  1  0
 13 18  1  0
 17 18  2  0
 16 19  1  0
M  END
