diamond-x0849_0_A-mac-x0178
     RDKit          3D

 25 27  0  0  0  0  0  0  0  0999 V2000
   -3.7570   15.1380   -2.6810 Br  0  0  0  0  0  0  0  0  0  0  0  0
   -3.5890   15.1550   -0.7890 C   0  0  0  0  0  0  0  0  0  0  0  0
   -2.4120   14.7540   -0.1350 C   0  0  0  0  0  0  0  0  0  0  0  0
   -4.6760   15.5720   -0.0530 C   0  0  0  0  0  0  0  0  0  0  0  0
   -2.3800   14.7980    1.2470 C   0  0  0  0  0  0  0  0  0  0  0  0
   -4.5230   15.5630    1.3080 C   0  0  0  0  0  0  0  0  0  0  0  0
   -1.2690   14.3090   -0.7760 C   0  0  0  0  0  0  0  0  0  0  0  0
   -3.4140   15.1940    1.9350 N   0  0  0  0  0  0  0  0  0  0  0  0
   -1.3200   14.4440    1.9400 N   0  0  0  0  0  0  0  0  0  0  0  0
   -0.1540   13.9170   -0.0600 C   0  0  0  0  0  0  0  0  0  0  0  0
    0.9770   13.4370   -0.8920 C   0  0  0  0  0  0  0  0  0  0  0  0
   -0.2310   14.0070    1.3110 C   0  0  0  0  0  0  0  0  0  0  0  0
    0.5560   13.8670   -2.0770 N   0  0  0  0  0  0  0  0  0  0  0  0
    0.3240   13.2890   -3.1220 C   0  0  0  0  0  0  0  0  0  0  0  0
    0.4730   11.9960   -3.4630 O   0  0  0  0  0  0  0  0  0  0  0  0
   -0.2610   14.2440   -3.9210 C   0  0  0  0  0  0  0  0  0  0  0  0
    0.4540   15.4250   -3.8670 C   0  0  0  0  0  0  0  0  0  0  0  0
   -1.4340   14.0540   -4.6100 C   0  0  0  0  0  0  0  0  0  0  0  0
   -0.0290   16.5090   -4.5150 C   0  0  0  0  0  0  0  0  0  0  0  0
   -1.9370   15.1570   -5.2720 C   0  0  0  0  0  0  0  0  0  0  0  0
   -1.2220   16.3680   -5.1980 C   0  0  0  0  0  0  0  0  0  0  0  0
   -1.8100   17.8180   -5.9690 S   0  0  0  0  0  0  0  0  0  0  0  0
   -0.4170   18.4320   -6.6650 N   0  0  0  0  0  0  0  0  0  0  0  0
   -2.7160   17.4030   -6.9880 O   0  0  0  0  0  0  0  0  0  0  0  0
   -2.1840   18.7420   -4.9250 O   0  0  0  0  0  0  0  0  0  0  0  0
  1  2  1  0
  2  3  2  0
  2  4  1  0
  3  5  1  0
  4  6  2  0
  3  7  1  0
  5  8  2  0
  6  8  1  0
  5  9  1  0
  7 10  2  0
 10 11  1  0
  9 12  2  0
 10 12  1  0
 11 13  1  0
 13 14  2  3
 14 15  1  0
 14 16  1  0
 16 17  2  0
 16 18  1  0
 17 19  1  0
 18 20  2  0
 19 21  2  0
 20 21  1  0
 21 22  1  0
 22 23  1  0
 22 24  2  0
 22 25  2  0
M  END
