diamond-x0689_0_A-mac-x0341
     RDKit          3D

 19 21  0  0  0  0  0  0  0  0999 V2000
   -3.1150   15.2490    1.7480 N   0  0  0  0  0  0  0  0  0  0  0  0
   -2.2280   14.4520    0.9220 C   0  0  2  0  0  0  0  0  0  0  0  0
   -1.1930   14.3050    1.8390 N   0  0  0  0  0  0  0  0  0  0  0  0
   -1.9230   14.9240   -0.4230 N   0  0  0  0  0  0  0  0  0  0  0  0
   -0.8080   14.4490   -1.0250 C   0  0  0  0  0  0  0  0  0  0  0  0
    0.0730   14.1520    1.2300 C   0  0  0  0  0  0  0  0  0  0  0  0
   -3.1280   14.9410   -0.9830 C   0  0  0  0  0  0  0  0  0  0  0  0
    0.1890   14.0590   -0.2620 C   0  0  0  0  0  0  0  0  0  0  0  0
   -4.0400   14.7850    0.0250 C   0  0  0  0  0  0  0  0  0  0  0  0
   -3.5340   15.0760   -2.2990 C   0  0  0  0  0  0  0  0  0  0  0  0
   -5.3500   14.7510   -0.1800 C   0  0  0  0  0  0  0  0  0  0  0  0
   -4.9060   15.0460   -2.5520 C   0  0  0  0  0  0  0  0  0  0  0  0
   -5.7930   14.8820   -1.4700 C   0  0  0  0  0  0  0  0  0  0  0  0
   -6.1550   14.5840    0.9430 N   0  0  0  0  0  0  0  0  0  0  0  0
   -7.4090   14.6770    0.7880 C   0  0  0  0  0  0  0  0  0  0  0  0
   -7.2400   14.8330   -1.6150 C   0  0  0  0  0  0  0  0  0  0  0  0
   -8.2220   14.5340    1.8610 N   0  0  0  0  0  0  0  0  0  0  0  0
   -7.7670   14.7000   -2.7020 O   0  0  0  0  0  0  0  0  0  0  0  0
   -7.9580   14.9300   -0.4360 N   0  0  0  0  0  0  0  0  0  0  0  0
  2  1  1  1
  2  3  1  0
  2  4  1  0
  4  5  1  0
  3  6  1  0
  4  7  1  0
  5  8  2  0
  6  8  1  0
  7  9  2  0
  7 10  1  0
  9 11  1  0
 10 12  2  0
 11 13  2  0
 12 13  1  0
 11 14  1  0
 14 15  2  0
 13 16  1  0
 15 17  1  0
 16 18  2  0
 15 19  1  0
 16 19  1  0
M  END
