diamond-x0600_0_A-diamond-x0548_1_B
     RDKit          3D

 32 34  0  0  0  0  0  0  0  0999 V2000
  -12.4640   24.9870   17.0120 C   0  0  0  0  0  0  0  0  0  0  0  0
  -11.3100   25.8050   16.5060 C   0  0  0  0  0  0  0  0  0  0  0  0
  -10.2760   25.9470   17.1550 O   0  0  0  0  0  0  0  0  0  0  0  0
  -11.4410   26.4820   15.2020 C   0  0  0  0  0  0  0  0  0  0  0  0
  -12.4210   26.1670   14.2480 C   0  0  0  0  0  0  0  0  0  0  0  0
  -10.5240   27.4850   14.9620 C   0  0  0  0  0  0  0  0  0  0  0  0
  -12.4750   26.8880   13.0550 C   0  0  0  0  0  0  0  0  0  0  0  0
  -10.5850   28.1860   13.7960 C   0  0  0  0  0  0  0  0  0  0  0  0
  -11.5590   27.9030   12.8330 C   0  0  0  0  0  0  0  0  0  0  0  0
  -11.6530   28.6040   11.6540 O   0  0  0  0  0  0  0  0  0  0  0  0
  -11.5280   30.0260   11.8440 C   0  0  0  0  0  0  0  0  0  0  0  0
  -10.9370   31.0010   10.8120 C   0  0  0  0  0  0  0  0  0  0  0  0
   -9.7560   31.5560   10.8830 N   0  0  0  0  0  0  0  0  0  0  0  0
  -11.8060   31.2470    9.8570 O   0  0  0  0  0  0  0  0  0  0  0  0
   -9.2900   32.5500    9.8890 C   0  0  0  0  0  0  0  0  0  0  0  0
   -7.9190   32.1990    9.2800 C   0  0  0  0  0  0  0  0  0  0  0  0
   -7.5000   33.0230    8.0320 C   0  0  0  0  0  0  0  0  0  0  0  0
   -7.3840   34.4770    8.2930 N   0  0  0  0  0  0  0  0  0  0  0  0
   -6.0530   34.8140    8.7930 C   0  0  0  0  0  0  0  0  0  0  0  0
   -8.0380   35.3890    7.4470 C   0  0  0  0  0  0  0  0  0  0  0  0
   -7.3900   36.2900    6.6510 C   0  0  0  0  0  0  0  0  0  0  0  0
   -9.5210   35.3890    7.4170 C   0  0  0  0  0  0  0  0  0  0  0  0
   -8.1490   37.1820    5.8130 C   0  0  0  0  0  0  0  0  0  0  0  0
  -10.2310   36.0170    6.4580 C   0  0  0  0  0  0  0  0  0  0  0  0
   -9.4910   36.7130    5.3800 C   0  0  1  0  0  0  0  0  0  0  0  0
   -7.8610   38.3890    5.3090 C   0  0  0  0  0  0  0  0  0  0  0  0
   -6.6850   39.2870    5.3640 C   0  0  0  0  0  0  0  0  0  0  0  0
  -10.0950   37.8550    4.6690 N   0  0  0  0  0  0  0  0  0  0  0  0
   -9.1190   38.7120    4.6310 C   0  0  0  0  0  0  0  0  0  0  0  0
   -6.2390   39.7460    6.6810 N   0  0  0  0  0  0  0  0  0  0  0  0
   -7.2820   40.4560    7.4100 C   0  0  0  0  0  0  0  0  0  0  0  0
   -5.0130   40.5410    6.6050 C   0  0  0  0  0  0  0  0  0  0  0  0
  1  2  1  0
  2  3  2  0
  2  4  1  0
  4  5  2  0
  4  6  1  0
  5  7  1  0
  6  8  2  0
  7  9  2  0
  8  9  1  0
  9 10  1  0
 10 11  1  0
 11 12  1  0
 12 13  2  3
 12 14  1  0
 13 15  1  0
 15 16  1  0
 16 17  1  0
 17 18  1  0
 18 19  1  0
 18 20  1  0
 20 21  2  0
 20 22  1  0
 21 23  1  0
 22 24  2  0
 23 25  1  0
 25 24  1  1
 23 26  2  0
 26 27  1  0
 25 28  1  0
 26 29  1  0
 28 29  2  0
 27 30  1  0
 30 31  1  0
 30 32  1  0
M  END
