diamond-x0228_0_B-diamond-x0918_0_B
     RDKit          3D

 26 28  0  0  0  0  0  0  0  0999 V2000
   -6.1900   25.5820  -13.9790 N   0  0  0  0  0  0  0  0  0  0  0  0
   -7.5040   25.1720  -13.8950 C   0  0  0  0  0  0  0  0  0  0  0  0
   -8.2680   25.8370  -14.8350 N   0  0  0  0  0  0  0  0  0  0  0  0
   -5.1120   25.2890  -13.1170 C   0  0  0  0  0  0  0  0  0  0  0  0
   -7.9630   24.3420  -13.1140 O   0  0  0  0  0  0  0  0  0  0  0  0
   -3.8600   25.8560  -13.4480 C   0  0  0  0  0  0  0  0  0  0  0  0
   -5.2240   24.4780  -11.9750 C   0  0  0  0  0  0  0  0  0  0  0  0
   -3.8180   26.6400  -14.5830 O   0  0  0  0  0  0  0  0  0  0  0  0
   -2.7610   25.6050  -12.6390 C   0  0  0  0  0  0  0  0  0  0  0  0
   -4.1120   24.2250  -11.1670 C   0  0  0  0  0  0  0  0  0  0  0  0
   -9.5510   25.4630  -15.0490 N   0  0  0  0  0  0  0  0  0  0  0  0
   -2.5360   27.1280  -15.0110 C   0  0  0  0  0  0  0  0  0  0  0  0
   -4.2280   23.3540   -9.9420 C   0  0  0  0  0  0  0  0  0  0  0  0
   -2.8950   24.7980  -11.5210 C   0  0  0  0  0  0  0  0  0  0  0  0
   -9.9690   24.4030  -15.7810 C   0  0  0  0  0  0  0  0  0  0  0  0
  -10.6520   26.0890  -14.5700 C   0  0  0  0  0  0  0  0  0  0  0  0
   -2.2300   28.4950  -14.3600 C   0  0  0  0  0  0  0  0  0  0  0  0
  -11.2860   24.3720  -15.7600 N   0  0  0  0  0  0  0  0  0  0  0  0
  -11.7200   25.4430  -14.9890 N   0  0  0  0  0  0  0  0  0  0  0  0
   -3.2920   29.5030  -14.5940 N   0  0  0  0  0  0  0  0  0  0  0  0
   -4.4630   29.3650  -13.8270 C   0  0  0  0  0  0  0  0  0  0  0  0
   -5.6940   29.7760  -14.3250 C   0  0  0  0  0  0  0  0  0  0  0  0
   -4.4230   28.8170  -12.5510 C   0  0  0  0  0  0  0  0  0  0  0  0
   -6.8240   29.6250  -13.5350 C   0  0  0  0  0  0  0  0  0  0  0  0
   -5.6060   28.7040  -11.8320 C   0  0  0  0  0  0  0  0  0  0  0  0
   -6.8130   29.0970  -12.2930 N   0  0  0  0  0  0  0  0  0  0  0  0
  1  2  1  0
  2  3  1  0
  1  4  1  0
  2  5  2  0
  4  6  1  0
  4  7  2  0
  6  8  1  0
  6  9  2  0
  7 10  1  0
  3 11  1  0
  8 12  1  0
 10 13  1  0
  9 14  1  0
 10 14  2  0
 11 15  1  0
 11 16  1  0
 12 17  1  0
 15 18  2  0
 16 19  2  0
 18 19  1  0
 17 20  1  0
 20 21  1  0
 21 22  2  0
 21 23  1  0
 22 24  1  0
 23 25  2  0
 24 26  2  0
 25 26  1  0
M  END
