diamond-x0805_0_A-diamond-x0465_0_A
     RDKit          3D

 27 29  0  0  0  0  0  0  0  0999 V2000
   -4.4780   15.8190    0.6180 C   0  0  0  0  0  0  0  0  0  0  0  0
   -3.6810   14.6980    0.3290 O   0  0  0  0  0  0  0  0  0  0  0  0
   -3.3070   14.4890   -0.9530 C   0  0  0  0  0  0  0  0  0  0  0  0
   -4.2930   14.0930   -1.8510 C   0  0  0  0  0  0  0  0  0  0  0  0
   -2.0210   14.6460   -1.3840 C   0  0  0  0  0  0  0  0  0  0  0  0
   -3.9660   13.8560   -3.1890 C   0  0  0  0  0  0  0  0  0  0  0  0
   -1.6610   14.4210   -2.6950 C   0  0  0  0  0  0  0  0  0  0  0  0
   -2.6390   14.0200   -3.6190 C   0  0  0  0  0  0  0  0  0  0  0  0
   -0.2100   14.6380   -3.0050 C   0  0  1  0  0  0  0  0  0  0  0  0
    0.7770   13.5050   -2.7470 C   0  0  1  0  0  0  0  0  0  0  0  0
    0.1050   15.3140   -4.3200 C   0  0  0  0  0  0  0  0  0  0  0  0
    0.7120   12.2210   -3.4760 C   0  0  0  0  0  0  0  0  0  0  0  0
    2.2240   13.9420   -2.9160 C   0  0  0  0  0  0  0  0  0  0  0  0
    1.5050   15.8950   -4.3010 C   0  0  0  0  0  0  0  0  0  0  0  0
   -0.1070   11.2270   -2.8870 O   0  0  0  0  0  0  0  0  0  0  0  0
    2.0040   11.8460   -3.0890 O   0  0  0  0  0  0  0  0  0  0  0  0
    0.6310   12.3820   -5.0260 C   0  0  1  0  0  0  0  0  0  0  0  0
    2.4250   15.2680   -3.3720 O   0  0  0  0  0  0  0  0  0  0  0  0
    1.8420   13.0590   -5.6130 C   0  0  0  0  0  0  0  0  0  0  0  0
    0.5550   11.1080   -5.6660 O   0  0  0  0  0  0  0  0  0  0  0  0
   -0.6810   10.6020   -5.8570 C   0  0  0  0  0  0  0  0  0  0  0  0
   -0.7480    9.4350   -6.6070 C   0  0  0  0  0  0  0  0  0  0  0  0
   -1.8420   11.1640   -5.3610 C   0  0  0  0  0  0  0  0  0  0  0  0
    0.3670    8.8870   -7.1060 F   0  0  0  0  0  0  0  0  0  0  0  0
   -1.9660    8.8180   -6.8550 C   0  0  0  0  0  0  0  0  0  0  0  0
   -3.0720   10.5520   -5.6060 C   0  0  0  0  0  0  0  0  0  0  0  0
   -3.1350    9.3770   -6.3500 C   0  0  0  0  0  0  0  0  0  0  0  0
  1  2  1  0
  2  3  1  0
  3  4  2  0
  3  5  1  0
  4  6  1  0
  5  7  2  0
  6  8  2  0
  7  8  1  0
  9  7  1  6
  9 10  1  0
  9 11  1  0
 10 12  1  6
 10 13  1  0
 11 14  1  0
 12 15  1  0
 12 16  1  0
 12 17  1  0
 13 18  1  0
 14 18  1  0
 17 19  1  6
 17 20  1  0
 20 21  1  0
 21 22  2  0
 21 23  1  0
 22 24  1  0
 22 25  1  0
 23 26  2  0
 25 27  2  0
 26 27  1  0
M  END
