diamond-x1015_0_A-mac-x0546
     RDKit          3D

 29 32  0  0  0  0  0  0  0  0999 V2000
   -3.3790   13.1960   -2.6230 C   0  0  0  0  0  0  0  0  0  0  0  0
   -2.1010   13.2470   -3.4190 C   0  0  2  0  0  0  0  0  0  0  0  0
   -1.3810   11.9390   -3.5010 N   0  0  0  0  0  0  0  0  0  0  0  0
   -1.0830   14.0380   -2.6010 C   0  0  0  0  0  0  0  0  0  0  0  0
   -1.2380   14.8830   -1.7410 O   0  0  0  0  0  0  0  0  0  0  0  0
   -0.1010   12.2520   -3.2240 C   0  0  0  0  0  0  0  0  0  0  0  0
    0.0660   13.5640   -3.0420 N   0  0  0  0  0  0  0  0  0  0  0  0
   -1.4650   11.2230   -4.7110 C   0  0  0  0  0  0  0  0  0  0  0  0
    0.8830   11.5260   -3.1650 N   0  0  0  0  0  0  0  0  0  0  0  0
   -0.7760   11.6690   -5.8680 C   0  0  0  0  0  0  0  0  0  0  0  0
   -2.2050   10.0450   -4.8310 C   0  0  0  0  0  0  0  0  0  0  0  0
    1.8680   12.4140   -3.0750 C   0  0  0  0  0  0  0  0  0  0  0  0
   -0.8260   10.9690   -7.0780 C   0  0  0  0  0  0  0  0  0  0  0  0
   -2.2610    9.3400   -6.0390 C   0  0  0  0  0  0  0  0  0  0  0  0
    1.9310   13.1070   -4.4410 C   0  0  0  0  0  0  0  0  0  0  0  0
    2.5720   12.6950   -2.1280 O   0  0  0  0  0  0  0  0  0  0  0  0
   -1.5730    9.8030   -7.1550 C   0  0  0  0  0  0  0  0  0  0  0  0
   -1.6510    8.9250   -8.6330 Cl  0  0  0  0  0  0  0  0  0  0  0  0
    1.3910   14.5010   -4.4580 C   0  0  0  0  0  0  0  0  0  0  0  0
    0.2730   15.0950   -5.2830 C   0  0  1  0  0  0  0  0  0  0  0  0
    1.8840   15.4510   -3.7200 C   0  0  0  0  0  0  0  0  0  0  0  0
   -1.2000   14.8300   -5.0960 C   0  0  0  0  0  0  0  0  0  0  0  0
    0.4500   16.5150   -4.7940 C   0  0  0  0  0  0  0  0  0  0  0  0
    1.3250   16.6790   -3.9000 N   0  0  0  0  0  0  0  0  0  0  0  0
   -2.1040   15.8610   -5.2200 C   0  0  0  0  0  0  0  0  0  0  0  0
   -0.3900   17.5840   -5.3390 C   0  0  0  0  0  0  0  0  0  0  0  0
   -3.4680   15.8260   -5.0960 O   0  0  0  0  0  0  0  0  0  0  0  0
   -1.6480   17.2090   -5.5290 C   0  0  0  0  0  0  0  0  0  0  0  0
   -4.2200   15.1490   -6.0960 C   0  0  0  0  0  0  0  0  0  0  0  0
  2  1  1  1
  2  3  1  0
  2  4  1  0
  4  5  2  0
  3  6  1  0
  4  7  1  0
  6  7  1  0
  3  8  1  0
  6  9  2  3
  8 10  2  0
  8 11  1  0
  9 12  1  0
 10 13  1  0
 11 14  2  0
 12 15  1  0
 12 16  2  0
 13 17  2  0
 14 17  1  0
 17 18  1  0
 15 19  1  0
 19 20  1  0
 19 21  2  0
 20 22  1  1
 20 23  1  0
 21 24  1  0
 23 24  2  0
 22 25  2  0
 23 26  1  0
 25 27  1  0
 25 28  1  0
 26 28  2  0
 27 29  1  0
M  END
