diamond-x0900_0_A-mac-x0402
     RDKit          3D

 12 13  0  0  0  0  0  0  0  0999 V2000
   -6.6570   15.6500   -0.5590 O   0  0  0  0  0  0  0  0  0  0  0  0
   -5.4950   14.8520   -0.3560 C   0  0  2  0  0  0  0  0  0  0  0  0
   -5.4160   14.3490    1.1620 C   0  0  2  0  0  0  0  0  0  0  0  0
   -4.1830   15.6750   -0.4360 C   0  0  1  0  0  0  0  0  0  0  0  0
   -5.5370   13.9040   -1.5420 C   0  0  0  0  0  0  0  0  0  0  0  0
   -6.6370   14.2380    1.9720 N   0  0  0  0  0  0  0  0  0  0  0  0
   -3.9530   16.1820    0.9330 C   0  0  0  0  0  0  0  0  0  0  0  0
   -4.5940   13.8700   -2.5210 C   0  0  0  0  0  0  0  0  0  0  0  0
   -3.0490   14.8750   -1.0280 C   0  0  0  0  0  0  0  0  0  0  0  0
   -4.6250   15.4560    1.8030 C   0  0  0  0  0  0  0  0  0  0  0  0
   -3.4000   14.7680   -2.4850 C   0  0  1  0  0  0  0  0  0  0  0  0
   -2.0170   14.1790   -3.4470 Cl  0  0  0  0  0  0  0  0  0  0  0  0
  2  1  1  1
  2  3  1  0
  2  4  1  0
  2  5  1  0
  3  6  1  1
  4  7  1  1
  5  8  2  0
  4  9  1  0
  3 10  1  0
  7 10  2  0
  8 11  1  0
  9 11  1  0
 11 12  1  6
M  END
