diamond-x0524_0_A-mac-x0255
     RDKit          3D

 32 35  0  0  0  0  0  0  0  0999 V2000
   -0.5910    8.5360   -8.3230 N   0  0  0  0  0  0  0  0  0  0  0  0
   -0.7510    9.3710   -7.2530 C   0  0  0  0  0  0  0  0  0  0  0  0
   -1.8840    9.1050   -6.2740 C   0  0  0  0  0  0  0  0  0  0  0  0
    0.5080    8.5430   -9.2020 C   0  0  0  0  0  0  0  0  0  0  0  0
   -0.0060   10.3800   -6.9890 N   0  0  0  0  0  0  0  0  0  0  0  0
    1.6570    7.7720   -9.0320 C   0  0  0  0  0  0  0  0  0  0  0  0
    0.4440    9.3790  -10.3210 C   0  0  0  0  0  0  0  0  0  0  0  0
   -0.1770   11.2350   -5.8330 C   0  0  0  0  0  0  0  0  0  0  0  0
    2.7100    7.8320   -9.9540 C   0  0  0  0  0  0  0  0  0  0  0  0
    1.4910    9.4390  -11.2410 C   0  0  0  0  0  0  0  0  0  0  0  0
    0.9950   12.2070   -5.6680 C   0  0  0  0  0  0  0  0  0  0  0  0
    2.6400    8.6680  -11.0770 C   0  0  0  0  0  0  0  0  0  0  0  0
    3.7080    8.6960  -11.9820 N   0  0  0  0  0  0  0  0  0  0  0  0
    1.1580   12.9560   -4.3330 C   0  0  2  0  0  0  0  0  0  0  0  0
    0.7650   12.2370   -3.0470 C   0  0  0  0  0  0  0  0  0  0  0  0
    4.0060    9.5360  -13.0680 C   0  0  0  0  0  0  0  0  0  0  0  0
    0.4870   14.2540   -4.5970 C   0  0  0  0  0  0  0  0  0  0  0  0
    1.0740   12.9280   -1.9280 O   0  0  0  0  0  0  0  0  0  0  0  0
    0.2220   11.1530   -2.9290 O   0  0  0  0  0  0  0  0  0  0  0  0
    3.2380   10.6940  -13.2850 C   0  0  0  0  0  0  0  0  0  0  0  0
    5.0520    9.2680  -13.9520 C   0  0  0  0  0  0  0  0  0  0  0  0
    1.0970   15.4640   -4.7780 C   0  0  0  0  0  0  0  0  0  0  0  0
   -1.2080   14.3620   -4.7460 S   0  0  0  0  0  0  0  0  0  0  0  0
    3.5100   11.5490  -14.3530 C   0  0  0  0  0  0  0  0  0  0  0  0
    5.3250   10.1200  -15.0220 C   0  0  0  0  0  0  0  0  0  0  0  0
    0.1770   16.5070   -5.0740 C   0  0  0  0  0  0  0  0  0  0  0  0
   -1.1360   16.0320   -5.0890 C   0  0  0  0  0  0  0  0  0  0  0  0
    4.5530   11.2600  -15.2240 C   0  0  0  0  0  0  0  0  0  0  0  0
    0.4020   17.8670   -5.3450 C   0  0  0  0  0  0  0  0  0  0  0  0
   -2.2200   16.8710   -5.3670 C   0  0  0  0  0  0  0  0  0  0  0  0
   -0.6750   18.6950   -5.6290 C   0  0  0  0  0  0  0  0  0  0  0  0
   -1.9590   18.2110   -5.6400 C   0  0  0  0  0  0  0  0  0  0  0  0
  1  2  1  0
  2  3  1  0
  1  4  1  0
  2  5  2  3
  4  6  2  0
  4  7  1  0
  5  8  1  0
  6  9  1  0
  7 10  2  0
  8 11  1  0
  9 12  2  0
 10 12  1  0
 12 13  1  0
 14 11  1  6
 14 15  1  0
 13 16  1  0
 14 17  1  0
 15 18  1  0
 15 19  2  0
 16 20  2  0
 16 21  1  0
 17 22  2  0
 17 23  1  0
 20 24  1  0
 21 25  2  0
 22 26  1  0
 23 27  1  0
 26 27  2  0
 24 28  2  0
 25 28  1  0
 26 29  1  0
 27 30  1  0
 29 31  2  0
 30 32  2  0
 31 32  1  0
M  END
