diamond-x0574_0_A-mac-x0277
     RDKit          3D

 25 27  0  0  0  0  0  0  0  0999 V2000
   -0.0780   14.3020    1.9110 N   0  0  0  0  0  0  0  0  0  0  0  0
   -0.2530   14.2330    0.4850 C   0  0  1  0  0  0  0  0  0  0  0  0
   -1.3210   13.3220    0.2300 N   0  0  0  0  0  0  0  0  0  0  0  0
   -0.7470   15.8050   -0.2520 S   0  0  0  0  0  0  0  0  0  0  0  0
   -1.1170   12.6920   -1.1080 C   0  0  0  0  0  0  0  0  0  0  0  0
   -2.6260   14.0490    0.3210 C   0  0  2  0  0  0  0  0  0  0  0  0
   -2.4790   15.5300    0.0890 C   0  0  2  0  0  0  0  0  0  0  0  0
   -0.1660   13.3140   -2.0110 N   0  0  0  0  0  0  0  0  0  0  0  0
   -3.7480   13.9550    1.3580 C   0  0  0  0  0  0  0  0  0  0  0  0
   -3.5310   15.7620   -0.9220 C   0  0  0  0  0  0  0  0  0  0  0  0
    0.4830   12.5720   -2.8420 C   0  0  0  0  0  0  0  0  0  0  0  0
   -5.0410   14.3800    0.5770 C   0  0  2  0  0  0  0  0  0  0  0  0
   -4.7410   15.2150   -0.6780 C   0  0  0  0  0  0  0  0  0  0  0  0
   -5.8840   15.1480    1.4280 O   0  0  0  0  0  0  0  0  0  0  0  0
    0.4020   11.2300   -2.9260 O   0  0  0  0  0  0  0  0  0  0  0  0
    1.3940   13.1990   -3.8600 C   0  0  0  0  0  0  0  0  0  0  0  0
   -6.8000   14.3920    2.2060 C   0  0  0  0  0  0  0  0  0  0  0  0
    0.7250   14.4880   -4.2600 C   0  0  0  0  0  0  0  0  0  0  0  0
   -0.6330   14.4930   -4.6280 C   0  0  0  0  0  0  0  0  0  0  0  0
    1.4280   15.6860   -4.2570 C   0  0  0  0  0  0  0  0  0  0  0  0
   -1.2710   15.6880   -4.9810 C   0  0  0  0  0  0  0  0  0  0  0  0
    0.7960   16.8830   -4.6120 C   0  0  0  0  0  0  0  0  0  0  0  0
   -2.9430   15.6210   -5.4150 Cl  0  0  0  0  0  0  0  0  0  0  0  0
   -0.5530   16.8830   -4.9720 C   0  0  0  0  0  0  0  0  0  0  0  0
   -1.2840   18.3880   -5.3940 Cl  0  0  0  0  0  0  0  0  0  0  0  0
  2  1  1  1
  2  3  1  0
  2  4  1  0
  3  5  1  0
  3  6  1  0
  4  7  1  0
  6  7  1  0
  5  8  1  0
  6  9  1  1
  7 10  1  6
  8 11  2  3
  9 12  1  0
 10 13  2  0
 12 13  1  0
 12 14  1  1
 11 15  1  0
 11 16  1  0
 14 17  1  0
 16 18  1  0
 18 19  2  0
 18 20  1  0
 19 21  1  0
 20 22  2  0
 21 23  1  0
 21 24  2  0
 22 24  1  0
 24 25  1  0
M  END
