diamond-x0905_0_A-mac-x0387
     RDKit          3D

 17 19  0  0  0  0  0  0  0  0999 V2000
   -6.4440   14.8030   -1.8670 O   0  0  0  0  0  0  0  0  0  0  0  0
   -5.8180   14.8290   -0.6620 C   0  0  0  0  0  0  0  0  0  0  0  0
   -4.5000   14.7970   -0.6390 N   0  0  0  0  0  0  0  0  0  0  0  0
   -6.5280   14.8830    0.4530 C   0  0  0  0  0  0  0  0  0  0  0  0
   -3.8340   14.8230    0.5460 C   0  0  0  0  0  0  0  0  0  0  0  0
   -5.8320   14.9180    1.6490 C   0  0  0  0  0  0  0  0  0  0  0  0
   -4.4660   14.8920    1.7000 C   0  0  0  0  0  0  0  0  0  0  0  0
   -2.4100   14.7600    0.4330 C   0  0  0  0  0  0  0  0  0  0  0  0
   -2.0190   14.7920   -0.8700 C   0  0  0  0  0  0  0  0  0  0  0  0
   -1.5790   14.6640    1.5290 N   0  0  0  0  0  0  0  0  0  0  0  0
   -0.6720   14.7270   -1.1470 C   0  0  0  0  0  0  0  0  0  0  0  0
   -0.2680   14.6040    1.2220 C   0  0  0  0  0  0  0  0  0  0  0  0
   -2.9510   14.8930   -1.9260 C   0  0  0  0  0  0  0  0  0  0  0  0
    0.2230   14.6320   -0.0840 C   0  0  0  0  0  0  0  0  0  0  0  0
   -0.2660   14.7610   -2.4880 C   0  0  0  0  0  0  0  0  0  0  0  0
   -2.5580   14.9280   -3.2400 C   0  0  0  0  0  0  0  0  0  0  0  0
   -1.2060   14.8610   -3.5270 C   0  0  0  0  0  0  0  0  0  0  0  0
  1  2  1  0
  2  3  2  0
  2  4  1  0
  3  5  1  0
  4  6  2  0
  5  7  2  0
  6  7  1  0
  5  8  1  0
  8  9  1  0
  8 10  2  0
  9 11  2  0
 10 12  1  0
  9 13  1  0
 11 14  1  0
 12 14  2  0
 11 15  1  0
 13 16  2  0
 15 17  2  0
 16 17  1  0
M  END
