diamond-x0855_0_A-mac-x0333
     RDKit          3D

 23 25  0  0  0  0  0  0  0  0999 V2000
    1.6340   13.0820   -2.5540 O   0  0  0  0  0  0  0  0  0  0  0  0
    0.9720   12.1790   -3.3190 C   0  0  0  0  0  0  0  0  0  0  0  0
    0.6270   12.6440   -4.7310 C   0  0  2  0  0  0  0  0  0  0  0  0
    0.6910   11.0760   -2.8710 O   0  0  0  0  0  0  0  0  0  0  0  0
    0.2470   14.1420   -4.8080 C   0  0  0  0  0  0  0  0  0  0  0  0
   -0.3940   11.7250   -5.2250 N   0  0  0  0  0  0  0  0  0  0  0  0
   -1.2640   14.4500   -4.7450 C   0  0  0  0  0  0  0  0  0  0  0  0
   -0.3040   10.7610   -6.1860 C   0  0  0  0  0  0  0  0  0  0  0  0
   -1.6350   11.8040   -4.6680 N   0  0  0  0  0  0  0  0  0  0  0  0
   -1.9240   14.1350   -3.3930 C   0  0  0  0  0  0  0  0  0  0  0  0
   -1.5400   10.1860   -6.2430 C   0  0  0  0  0  0  0  0  0  0  0  0
   -2.3280   10.8520   -5.3030 C   0  0  0  0  0  0  0  0  0  0  0  0
   -2.1070    8.7870   -7.3400 Br  0  0  0  0  0  0  0  0  0  0  0  0
   -2.5170   15.2900   -2.8110 O   0  0  0  0  0  0  0  0  0  0  0  0
   -3.4860   15.1750   -1.8450 C   0  0  0  0  0  0  0  0  0  0  0  0
   -4.8630   15.1630   -2.0720 C   0  0  0  0  0  0  0  0  0  0  0  0
   -2.9990   15.0680   -0.5210 C   0  0  0  0  0  0  0  0  0  0  0  0
   -5.6940   15.0480   -0.9810 C   0  0  0  0  0  0  0  0  0  0  0  0
   -3.8650   14.9550    0.5700 C   0  0  0  0  0  0  0  0  0  0  0  0
   -5.2140   14.9500    0.3000 C   0  0  0  0  0  0  0  0  0  0  0  0
   -7.0530   15.0140   -1.0150 O   0  0  0  0  0  0  0  0  0  0  0  0
   -6.2200   14.8510    1.2080 O   0  0  0  0  0  0  0  0  0  0  0  0
   -7.3220   14.5790    0.3290 C   0  0  0  0  0  0  0  0  0  0  0  0
  1  2  1  0
  2  3  1  0
  2  4  2  0
  3  5  1  1
  3  6  1  0
  5  7  1  0
  6  8  1  0
  6  9  1  0
  7 10  1  0
  8 11  2  0
  9 12  2  0
 11 12  1  0
 11 13  1  0
 10 14  1  0
 14 15  1  0
 15 16  2  0
 15 17  1  0
 16 18  1  0
 17 19  2  0
 18 20  2  0
 19 20  1  0
 18 21  1  0
 20 22  1  0
 21 23  1  0
 22 23  1  0
M  END
