diamond-x0742_0_A-mac-x0415
     RDKit          3D

 31 35  0  0  0  0  0  0  0  0999 V2000
   -5.5600   12.2530   -0.5130 C   0  0  0  0  0  0  0  0  0  0  0  0
   -6.6100   11.5880    0.3340 C   0  0  0  0  0  0  0  0  0  0  0  0
   -5.0280   11.6380   -1.4430 O   0  0  0  0  0  0  0  0  0  0  0  0
   -5.2020   13.7080   -0.1810 C   0  0  2  0  0  0  0  0  0  0  0  0
   -4.9280   13.8550    1.3410 C   0  0  0  0  0  0  0  0  0  0  0  0
   -6.4420   14.5560   -0.5540 C   0  0  0  0  0  0  0  0  0  0  0  0
   -4.0380   14.2650   -1.0390 C   0  0  1  0  0  0  0  0  0  0  0  0
   -4.4650   15.7030   -1.3010 C   0  0  0  0  0  0  0  0  0  0  0  0
   -2.7040   14.1910   -0.3760 C   0  0  0  0  0  0  0  0  0  0  0  0
   -3.8250   14.8660    1.6750 C   0  0  0  0  0  0  0  0  0  0  0  0
   -5.9610   15.6090   -1.5330 C   0  0  0  0  0  0  0  0  0  0  0  0
   -1.5730   13.8200   -1.0740 C   0  0  0  0  0  0  0  0  0  0  0  0
   -2.5890   14.4860    0.9580 C   0  0  0  0  0  0  0  0  0  0  0  0
   -1.4400   14.4440    1.6550 N   0  0  0  0  0  0  0  0  0  0  0  0
   -0.3700   13.7510   -0.4110 C   0  0  0  0  0  0  0  0  0  0  0  0
    0.8450   13.3180   -1.1540 C   0  0  0  0  0  0  0  0  0  0  0  0
   -0.3600   14.0760    0.9500 C   0  0  0  0  0  0  0  0  0  0  0  0
    0.8940   13.5650   -2.5570 N   0  0  0  0  0  0  0  0  0  0  0  0
    0.8110   12.5460   -3.3360 C   0  0  0  0  0  0  0  0  0  0  0  0
    0.6500   11.2660   -2.9360 O   0  0  0  0  0  0  0  0  0  0  0  0
    0.9060   12.8440   -4.7980 C   0  0  0  0  0  0  0  0  0  0  0  0
    0.6870   14.2930   -4.7100 C   0  0  0  0  0  0  0  0  0  0  0  0
    1.7110   15.3100   -4.4850 C   0  0  0  0  0  0  0  0  0  0  0  0
   -0.3840   15.0480   -4.7920 C   0  0  0  0  0  0  0  0  0  0  0  0
    1.3510   16.5580   -4.4350 N   0  0  0  0  0  0  0  0  0  0  0  0
   -0.0810   16.4700   -4.5390 C   0  0  1  0  0  0  0  0  0  0  0  0
   -1.7390   14.6980   -5.0450 C   0  0  0  0  0  0  0  0  0  0  0  0
   -0.8580   17.4250   -5.3700 C   0  0  0  0  0  0  0  0  0  0  0  0
   -2.5430   15.6440   -5.5590 C   0  0  0  0  0  0  0  0  0  0  0  0
   -4.3020   15.1990   -5.9630 Br  0  0  0  0  0  0  0  0  0  0  0  0
   -2.0550   17.0110   -5.8430 C   0  0  0  0  0  0  0  0  0  0  0  0
  1  2  1  0
  1  3  2  0
  4  1  1  1
  4  5  1  0
  4  6  1  0
  4  7  1  0
  7  8  1  1
  7  9  1  0
  5 10  1  0
  6 11  1  0
  8 11  1  0
  9 12  1  0
  9 13  2  0
 10 13  1  0
 13 14  1  0
 12 15  2  0
 15 16  1  0
 14 17  2  0
 15 17  1  0
 16 18  1  0
 18 19  2  3
 19 20  1  0
 19 21  1  0
 21 22  1  0
 22 23  1  0
 22 24  2  0
 23 25  2  0
 24 26  1  0
 25 26  1  0
 24 27  1  0
 26 28  1  6
 27 29  2  0
 29 30  1  0
 28 31  2  0
 29 31  1  0
M  END
