diamond-x0371_0_A-mac-x0277
     RDKit          3D

 32 35  0  0  0  0  0  0  0  0999 V2000
   -8.1720   14.5070    2.9760 N   0  0  0  0  0  0  0  0  0  0  0  0
   -8.8380   15.5250    3.6130 C   0  0  0  0  0  0  0  0  0  0  0  0
   -9.5100   16.3390    2.9810 O   0  0  0  0  0  0  0  0  0  0  0  0
   -8.4010   14.2190    1.5860 C   0  0  0  0  0  0  0  0  0  0  0  0
   -7.1370   14.5220    0.8690 C   0  0  0  0  0  0  0  0  0  0  0  0
   -8.6810   15.5450    5.0510 C   0  0  0  0  0  0  0  0  0  0  0  0
   -5.9300   14.6510    1.5100 N   0  0  0  0  0  0  0  0  0  0  0  0
   -7.0000   14.6990   -0.4310 N   0  0  0  0  0  0  0  0  0  0  0  0
   -8.0690   14.4650    5.6310 O   0  0  0  0  0  0  0  0  0  0  0  0
   -9.0250   16.4500    6.0400 C   0  0  0  0  0  0  0  0  0  0  0  0
   -5.6640   14.9440   -0.6220 C   0  0  0  0  0  0  0  0  0  0  0  0
   -4.9730   14.9260    0.5800 C   0  0  0  0  0  0  0  0  0  0  0  0
   -8.6000   15.8880    7.2690 C   0  0  0  0  0  0  0  0  0  0  0  0
   -8.0210   14.6790    6.9640 C   0  0  0  0  0  0  0  0  0  0  0  0
   -3.6060   15.1470    0.6960 C   0  0  0  0  0  0  0  0  0  0  0  0
   -4.9600   15.1890   -1.8000 C   0  0  0  0  0  0  0  0  0  0  0  0
   -2.9170   15.3880   -0.4950 C   0  0  0  0  0  0  0  0  0  0  0  0
   -3.5770   15.4040   -1.7280 C   0  0  0  0  0  0  0  0  0  0  0  0
   -2.8170   15.6400   -2.9890 C   0  0  0  0  0  0  0  0  0  0  0  0
   -3.4840   15.1190   -4.2650 C   0  0  0  0  0  0  0  0  0  0  0  0
   -2.7220   15.5940   -5.4820 C   0  0  0  0  0  0  0  0  0  0  0  0
   -1.2660   15.6590   -5.1180 C   0  0  0  0  0  0  0  0  0  0  0  0
   -0.6090   14.4410   -4.8860 C   0  0  0  0  0  0  0  0  0  0  0  0
   -0.5430   16.8490   -4.9880 C   0  0  0  0  0  0  0  0  0  0  0  0
   -1.2720   18.3910   -5.2550 Cl  0  0  0  0  0  0  0  0  0  0  0  0
    0.7380   14.3910   -4.5280 C   0  0  0  0  0  0  0  0  0  0  0  0
    0.8060   16.8130   -4.6320 C   0  0  0  0  0  0  0  0  0  0  0  0
    1.4110   13.0620   -4.2800 C   0  0  0  0  0  0  0  0  0  0  0  0
    1.4430   15.5880   -4.4020 C   0  0  0  0  0  0  0  0  0  0  0  0
    0.9690   12.4190   -2.9850 C   0  0  0  0  0  0  0  0  0  0  0  0
    0.2690   11.2810   -3.1900 O   0  0  0  0  0  0  0  0  0  0  0  0
    1.1670   12.8070   -1.8480 O   0  0  0  0  0  0  0  0  0  0  0  0
  1  2  1  0
  2  3  2  0
  1  4  1  0
  4  5  1  0
  2  6  1  0
  5  7  1  0
  5  8  2  0
  6  9  1  0
  6 10  2  0
  8 11  1  0
  7 12  1  0
 11 12  2  0
 10 13  1  0
  9 14  1  0
 13 14  2  0
 12 15  1  0
 11 16  1  0
 15 17  2  0
 16 18  2  0
 17 18  1  0
 18 19  1  0
 19 20  1  0
 20 21  1  0
 21 22  1  0
 22 23  2  0
 22 24  1  0
 24 25  1  0
 23 26  1  0
 24 27  2  0
 26 28  1  0
 26 29  2  0
 27 29  1  0
 28 30  1  0
 30 31  1  0
 30 32  2  0
M  END
