diamond-x0253_0_A-mac-x0116
     RDKit          3D

 31 34  0  0  0  0  0  0  0  0999 V2000
    0.2980   11.8610   -5.4550 N   0  0  0  0  0  0  0  0  0  0  0  0
    1.0640   11.6110   -6.5660 C   0  0  0  0  0  0  0  0  0  0  0  0
    2.1750   12.0850   -6.6700 O   0  0  0  0  0  0  0  0  0  0  0  0
    0.6660   13.0120   -4.6740 C   0  0  0  0  0  0  0  0  0  0  0  0
    0.6460   12.8230   -3.1620 C   0  0  0  0  0  0  0  0  0  0  0  0
    0.4610   10.7050   -7.5890 C   0  0  0  0  0  0  0  0  0  0  0  0
    0.6760   13.8940   -2.4420 N   0  0  0  0  0  0  0  0  0  0  0  0
    0.6040   11.5370   -2.7300 O   0  0  0  0  0  0  0  0  0  0  0  0
   -0.5170    9.7830   -7.2020 C   0  0  0  0  0  0  0  0  0  0  0  0
    0.8580   10.7630   -8.9330 C   0  0  0  0  0  0  0  0  0  0  0  0
    0.7010   13.8960   -0.9920 C   0  0  0  0  0  0  0  0  0  0  0  0
   -1.0990    8.9260   -8.1420 C   0  0  0  0  0  0  0  0  0  0  0  0
    0.2840    9.9120   -9.8750 C   0  0  0  0  0  0  0  0  0  0  0  0
   -2.1500    7.9430   -7.7150 C   0  0  0  0  0  0  0  0  0  0  0  0
   -0.6920    8.9970   -9.4820 C   0  0  0  0  0  0  0  0  0  0  0  0
   -0.4970   14.2060   -0.2330 N   0  0  0  0  0  0  0  0  0  0  0  0
   -1.7690   14.5420   -0.6360 C   0  0  0  0  0  0  0  0  0  0  0  0
   -0.5000   14.1870    1.1420 C   0  0  0  0  0  0  0  0  0  0  0  0
   -2.2690   14.6990   -1.8830 N   0  0  0  0  0  0  0  0  0  0  0  0
   -2.4670   14.6890    0.5540 C   0  0  0  0  0  0  0  0  0  0  0  0
   -1.6640   14.4710    1.6490 N   0  0  0  0  0  0  0  0  0  0  0  0
   -3.5850   15.0270   -1.8330 C   0  0  0  0  0  0  0  0  0  0  0  0
   -3.8220   15.0170    0.4860 C   0  0  0  0  0  0  0  0  0  0  0  0
   -4.5500   15.1470    1.6640 N   0  0  0  0  0  0  0  0  0  0  0  0
   -4.3720   15.1890   -0.7480 N   0  0  0  0  0  0  0  0  0  0  0  0
   -5.9530   14.7540    1.6370 C   0  0  0  0  0  0  0  0  0  0  0  0
   -6.3320   13.3090    1.6670 C   0  0  0  0  0  0  0  0  0  0  0  0
   -6.2430   12.6220    0.4850 O   0  0  0  0  0  0  0  0  0  0  0  0
   -6.7840   12.4690    2.6610 C   0  0  0  0  0  0  0  0  0  0  0  0
   -6.9870   11.2140    2.0640 C   0  0  0  0  0  0  0  0  0  0  0  0
   -6.6430   11.3560    0.7400 C   0  0  0  0  0  0  0  0  0  0  0  0
  1  2  1  0
  2  3  2  0
  1  4  1  0
  4  5  1  0
  2  6  1  0
  5  7  2  3
  5  8  1  0
  6  9  2  0
  6 10  1  0
  7 11  1  0
  9 12  1  0
 10 13  2  0
 12 14  1  0
 12 15  2  0
 13 15  1  0
 11 16  1  0
 16 17  1  0
 16 18  1  0
 17 19  2  0
 17 20  1  0
 18 21  2  0
 20 21  1  0
 19 22  1  0
 20 23  2  0
 23 24  1  0
 22 25  2  0
 23 25  1  0
 24 26  1  0
 26 27  1  0
 27 28  1  0
 27 29  2  0
 29 30  1  0
 28 31  1  0
 30 31  2  0
M  END
