diamond-x0950_0_A-mac-x0213
     RDKit          3D

 15 16  0  0  0  0  0  0  0  0999 V2000
    3.1790   12.7250   -4.0040 C   0  0  0  0  0  0  0  0  0  0  0  0
    1.7940   12.7920   -4.5620 C   0  0  1  0  0  0  0  0  0  0  0  0
    1.5090   11.8860   -5.6270 O   0  0  0  0  0  0  0  0  0  0  0  0
    0.6240   12.7980   -3.5780 C   0  0  0  0  0  0  0  0  0  0  0  0
   -0.0840   11.5740   -3.6640 O   0  0  0  0  0  0  0  0  0  0  0  0
    1.1080   12.9520   -2.2380 O   0  0  0  0  0  0  0  0  0  0  0  0
   -0.0640   14.0540   -4.0740 C   0  0  0  0  0  0  0  0  0  0  0  0
   -1.5040   14.4690   -3.7710 C   0  0  0  0  0  0  0  0  0  0  0  0
    0.7540   15.3110   -3.7090 C   0  0  0  0  0  0  0  0  0  0  0  0
   -1.4100   15.7920   -4.4920 C   0  0  0  0  0  0  0  0  0  0  0  0
   -0.0900   16.2750   -4.4450 C   0  0  0  0  0  0  0  0  0  0  0  0
   -2.3910   16.5170   -5.1390 C   0  0  0  0  0  0  0  0  0  0  0  0
    0.2820   17.4690   -5.0240 C   0  0  0  0  0  0  0  0  0  0  0  0
   -2.0260   17.7300   -5.7340 C   0  0  0  0  0  0  0  0  0  0  0  0
   -0.7040   18.2010   -5.6750 C   0  0  0  0  0  0  0  0  0  0  0  0
  2  1  1  1
  2  3  1  0
  2  4  1  0
  4  5  1  0
  4  6  1  0
  4  7  1  0
  7  8  1  0
  7  9  1  0
  8 10  1  0
  9 11  1  0
 10 11  2  0
 10 12  1  0
 11 13  1  0
 12 14  2  0
 13 15  2  0
 14 15  1  0
M  END
