diamond-x0628_0_A-diamond-x0626_0_A
     RDKit          3D

 25 26  0  0  0  0  0  0  0  0999 V2000
   -0.7920    9.0170   -7.2870 C   0  0  0  0  0  0  0  0  0  0  0  0
   -0.8180   10.2170   -6.4300 C   0  0  0  0  0  0  0  0  0  0  0  0
   -1.8220   10.4500   -5.5270 N   0  0  0  0  0  0  0  0  0  0  0  0
    0.1280   11.1580   -6.4660 N   0  0  0  0  0  0  0  0  0  0  0  0
   -0.3030   12.0250   -5.5360 N   0  0  0  0  0  0  0  0  0  0  0  0
   -1.4780   11.5950   -4.9740 C   0  0  0  0  0  0  0  0  0  0  0  0
   -2.2190   12.3230   -3.9150 C   0  0  0  0  0  0  0  0  0  0  0  0
    0.4620   13.2230   -5.2560 C   0  0  0  0  0  0  0  0  0  0  0  0
    1.6350   13.0040   -4.3100 C   0  0  0  0  0  0  0  0  0  0  0  0
    1.2210   12.3420   -3.0130 C   0  0  0  0  0  0  0  0  0  0  0  0
    0.4710   11.3740   -2.9340 O   0  0  0  0  0  0  0  0  0  0  0  0
    1.8220   12.9550   -1.9540 O   0  0  0  0  0  0  0  0  0  0  0  0
    1.2030   14.1340   -1.3910 C   0  0  0  0  0  0  0  0  0  0  0  0
    0.2650   13.6900   -0.2680 C   0  0  0  0  0  0  0  0  0  0  0  0
   -0.2560   14.7400    0.6830 C   0  0  0  0  0  0  0  0  0  0  0  0
   -1.6890   14.8040    0.3990 C   0  0  0  0  0  0  0  0  0  0  0  0
   -2.6140   14.7850    1.4110 N   0  0  0  0  0  0  0  0  0  0  0  0
   -2.1930   14.8740   -0.8820 C   0  0  0  0  0  0  0  0  0  0  0  0
   -3.8070   14.8560    0.8600 C   0  0  0  0  0  0  0  0  0  0  0  0
   -3.8870   14.9420   -0.8420 S   0  0  0  0  0  0  0  0  0  0  0  0
   -5.0260   14.8680    1.4400 N   0  0  0  0  0  0  0  0  0  0  0  0
   -6.2100   14.6790    0.8010 C   0  0  0  0  0  0  0  0  0  0  0  0
   -6.2490   14.8060   -0.4300 O   0  0  0  0  0  0  0  0  0  0  0  0
   -7.4400   14.3300    1.6050 C   0  0  0  0  0  0  0  0  0  0  0  0
   -8.7260   14.6620    0.8700 C   0  0  0  0  0  0  0  0  0  0  0  0
  1  2  1  0
  2  3  1  0
  2  4  2  0
  4  5  1  0
  3  6  2  0
  5  6  1  0
  6  7  1  0
  5  8  1  0
  8  9  1  0
  9 10  1  0
 10 11  2  0
 10 12  1  0
 12 13  1  0
 13 14  1  0
 14 15  1  0
 15 16  1  0
 16 17  1  0
 16 18  2  0
 17 19  2  0
 18 20  1  0
 19 20  1  0
 19 21  1  0
 21 22  1  0
 22 23  2  0
 22 24  1  0
 24 25  1  0
M  END
