diamond-x0587_0_A-diamond-x0722_0_A
     RDKit          3D

 23 24  0  0  0  0  0  0  0  0999 V2000
   -7.8440   15.0340    4.7440 N   0  0  0  0  0  0  0  0  0  0  0  0
   -8.4340   14.8950    3.4440 C   0  0  0  0  0  0  0  0  0  0  0  0
   -9.6880   14.8510    3.3970 O   0  0  0  0  0  0  0  0  0  0  0  0
   -7.6370   14.8380    2.2670 C   0  0  0  0  0  0  0  0  0  0  0  0
   -8.2920   14.8850    1.1240 C   0  0  0  0  0  0  0  0  0  0  0  0
   -6.2870   14.7480    2.2830 C   0  0  0  0  0  0  0  0  0  0  0  0
   -7.5440   14.8560    0.0250 N   0  0  0  0  0  0  0  0  0  0  0  0
   -5.6770   14.7280    1.0950 N   0  0  0  0  0  0  0  0  0  0  0  0
   -6.2890   14.7890   -0.0930 C   0  0  0  0  0  0  0  0  0  0  0  0
   -5.3330   14.7600   -1.4720 S   0  0  0  0  0  0  0  0  0  0  0  0
   -3.7790   15.6230   -0.8830 O   0  0  0  0  0  0  0  0  0  0  0  0
   -3.3650   13.7570   -1.5750 F   0  0  0  0  0  0  0  0  0  0  0  0
   -4.5970   15.4430   -2.8790 F   0  0  0  0  0  0  0  0  0  0  0  0
   -6.3290   13.9710   -2.5850 C   0  0  0  0  0  0  0  0  0  0  0  0
   -7.0240   14.2280   -3.5340 O   0  0  0  0  0  0  0  0  0  0  0  0
   -6.4390   12.5640   -2.2800 N   0  0  0  0  0  0  0  0  0  0  0  0
   -3.5930   15.3790    0.3760 C   0  0  0  0  0  0  0  0  0  0  0  0
   -3.2800   15.0750    1.7250 C   0  0  0  0  0  0  0  0  0  0  0  0
   -2.2910   14.9650   -0.0280 C   0  0  0  0  0  0  0  0  0  0  0  0
   -4.2510   15.2690    2.8020 C   0  0  0  0  0  0  0  0  0  0  0  0
   -2.0900   14.6170    1.9350 N   0  0  0  0  0  0  0  0  0  0  0  0
   -1.4770   14.5530    0.8820 N   0  0  0  0  0  0  0  0  0  0  0  0
   -0.0990   14.0880    0.8120 C   0  0  0  0  0  0  0  0  0  0  0  0
  1  2  1  0
  2  3  2  0
  2  4  1  0
  4  5  2  0
  4  6  1  0
  5  7  1  0
  6  8  2  0
  7  9  2  0
  8  9  1  0
  9 10  1  0
 10 11  1  0
 10 12  1  0
 10 13  1  0
 10 14  1  0
 14 15  2  0
 14 16  1  0
 11 17  1  0
 17 18  1  0
 17 19  2  0
 18 20  1  0
 18 21  2  0
 19 22  1  0
 21 22  1  0
 22 23  1  0
M  END
