diamond-x0724_0_A-mac-x0365
     RDKit          3D

 19 20  0  0  0  0  0  0  0  0999 V2000
   -8.3160   13.7650    4.6800 N   0  0  0  0  0  0  0  0  0  0  0  0
   -8.6740   13.9410    6.0790 C   0  0  0  0  0  0  0  0  0  0  0  0
   -8.5010   14.9900    3.9160 C   0  0  0  0  0  0  0  0  0  0  0  0
   -7.8350   14.8510    2.6080 C   0  0  0  0  0  0  0  0  0  0  0  0
   -6.4870   14.9100    2.3280 C   0  0  0  0  0  0  0  0  0  0  0  0
   -8.4310   14.6290    1.3600 C   0  0  0  0  0  0  0  0  0  0  0  0
   -7.5430   14.5610    0.3810 N   0  0  0  0  0  0  0  0  0  0  0  0
   -6.3390   14.7400    0.9800 N   0  0  0  0  0  0  0  0  0  0  0  0
   -5.1640   14.7440    0.2040 C   0  0  0  0  0  0  0  0  0  0  0  0
   -3.8580   14.6570    0.7170 C   0  0  0  0  0  0  0  0  0  0  0  0
   -5.3560   14.8480   -1.1460 C   0  0  0  0  0  0  0  0  0  0  0  0
   -6.6310   14.9410   -1.6300 O   0  0  0  0  0  0  0  0  0  0  0  0
   -2.7660   14.6690   -0.1660 C   0  0  0  0  0  0  0  0  0  0  0  0
   -4.2910   14.8610   -2.0240 C   0  0  0  0  0  0  0  0  0  0  0  0
   -4.6240   14.9650   -3.3210 F   0  0  0  0  0  0  0  0  0  0  0  0
   -2.9720   14.7680   -1.5580 C   0  0  0  0  0  0  0  0  0  0  0  0
   -1.7750   14.7670   -2.4330 C   0  0  0  0  0  0  0  0  0  0  0  0
   -0.5840   14.7820   -1.8040 O   0  0  0  0  0  0  0  0  0  0  0  0
   -1.8600   14.7560   -3.6500 O   0  0  0  0  0  0  0  0  0  0  0  0
  1  2  1  0
  1  3  1  0
  3  4  1  0
  4  5  2  0
  4  6  1  0
  6  7  2  0
  5  8  1  0
  7  8  1  0
  8  9  1  0
  9 10  2  0
  9 11  1  0
 11 12  1  0
 10 13  1  0
 11 14  2  0
 14 15  1  0
 13 16  2  0
 14 16  1  0
 16 17  1  0
 17 18  1  0
 17 19  2  0
M  END
