diamond-x0805_0_A-diamond-x0962_1_A
     RDKit          3D

 23 25  0  0  0  0  0  0  0  0999 V2000
   -3.0200   15.2050    0.7950 C   0  0  0  0  0  0  0  0  0  0  0  0
   -4.0090   14.9810   -0.3520 C   0  0  1  0  0  0  0  0  0  0  0  0
   -3.9810   16.1300   -1.2030 N   0  0  0  0  0  0  0  0  0  0  0  0
   -3.5070   14.0770   -1.4620 C   0  0  0  0  0  0  0  0  0  0  0  0
   -5.5020   14.9450    0.1560 C   0  0  2  0  0  0  0  0  0  0  0  0
   -4.2040   12.9750   -1.9210 C   0  0  0  0  0  0  0  0  0  0  0  0
   -2.2660   14.4010   -2.0770 C   0  0  0  0  0  0  0  0  0  0  0  0
   -5.7360   15.0360    1.6240 N   0  0  0  0  0  0  0  0  0  0  0  0
   -6.4360   13.8140   -0.2350 C   0  0  0  0  0  0  0  0  0  0  0  0
   -3.6990   12.2140   -2.9620 C   0  0  0  0  0  0  0  0  0  0  0  0
   -1.7360   13.6490   -3.1280 C   0  0  0  0  0  0  0  0  0  0  0  0
   -7.0470   14.4580    1.8850 C   0  0  0  0  0  0  0  0  0  0  0  0
   -7.6010   14.1170    0.5900 N   0  0  0  0  0  0  0  0  0  0  0  0
   -2.4870   12.5460   -3.5560 C   0  0  0  0  0  0  0  0  0  0  0  0
   -0.4140   13.9150   -3.8510 C   0  0  2  0  0  0  0  0  0  0  0  0
    0.8150   13.2520   -3.2770 C   0  0  1  0  0  0  0  0  0  0  0  0
    0.0060   15.3770   -3.9700 C   0  0  0  0  0  0  0  0  0  0  0  0
    0.4840   12.0250   -2.4870 C   0  0  0  0  0  0  0  0  0  0  0  0
    1.9340   13.1860   -4.2790 C   0  0  0  0  0  0  0  0  0  0  0  0
    1.3090   15.4720   -4.7740 C   0  0  0  0  0  0  0  0  0  0  0  0
    0.2320   10.8800   -3.1490 O   0  0  0  0  0  0  0  0  0  0  0  0
    0.4410   12.1230   -1.2760 O   0  0  0  0  0  0  0  0  0  0  0  0
    2.3570   14.5550   -4.3320 O   0  0  0  0  0  0  0  0  0  0  0  0
  2  1  1  1
  2  3  1  0
  2  4  1  0
  2  5  1  0
  4  6  2  0
  4  7  1  0
  5  8  1  0
  5  9  1  1
  6 10  1  0
  7 11  2  0
  8 12  1  0
  9 13  1  0
 12 13  1  0
 10 14  2  0
 11 14  1  0
 15 11  1  1
 15 16  1  0
 15 17  1  0
 16 18  1  6
 16 19  1  0
 17 20  1  0
 18 21  1  0
 18 22  2  0
 19 23  1  0
 20 23  1  0
M  END
