diamond-x0574_0_A-diamond-x0591_0_A
     RDKit          3D

 24 26  0  0  0  0  0  0  0  0999 V2000
    0.2280   13.9850    2.2520 N   0  0  0  0  0  0  0  0  0  0  0  0
   -0.7710   14.4110    1.5470 C   0  0  0  0  0  0  0  0  0  0  0  0
   -1.9310   14.1960    1.9840 N   0  0  0  0  0  0  0  0  0  0  0  0
   -0.6190   15.2540    0.0710 S   0  0  0  0  0  0  0  0  0  0  0  0
   -2.8350   14.6790    1.1350 C   0  0  0  0  0  0  0  0  0  0  0  0
   -2.3310   15.3120    0.0160 C   0  0  0  0  0  0  0  0  0  0  0  0
   -4.1900   14.5610    1.3300 C   0  0  0  0  0  0  0  0  0  0  0  0
   -3.1710   15.8620   -0.9270 C   0  0  0  0  0  0  0  0  0  0  0  0
   -5.0450   15.0770    0.4120 C   0  0  0  0  0  0  0  0  0  0  0  0
   -4.5410   15.7330   -0.7050 C   0  0  0  0  0  0  0  0  0  0  0  0
   -6.4220   14.9570    0.5080 N   0  0  0  0  0  0  0  0  0  0  0  0
   -6.9760   14.3870    1.7440 C   0  0  0  0  0  0  0  0  0  0  0  0
   -6.8750   14.5350   -0.7270 C   0  0  0  0  0  0  0  0  0  0  0  0
   -8.0160   14.1980   -0.9990 O   0  0  0  0  0  0  0  0  0  0  0  0
   -5.8040   14.5360   -1.7970 C   0  0  0  0  0  0  0  0  0  0  0  0
   -4.4390   14.3710   -1.4680 C   0  0  0  0  0  0  0  0  0  0  0  0
   -6.1370   14.7150   -3.1340 C   0  0  0  0  0  0  0  0  0  0  0  0
   -3.4450   14.4010   -2.4560 C   0  0  0  0  0  0  0  0  0  0  0  0
   -5.1410   14.7300   -4.1230 C   0  0  0  0  0  0  0  0  0  0  0  0
   -3.7980   14.5780   -3.7850 C   0  0  0  0  0  0  0  0  0  0  0  0
   -2.5710   14.6110   -5.0770 S   0  0  0  0  0  0  0  0  0  0  0  0
   -1.3990   15.6740   -4.4870 N   0  0  0  0  0  0  0  0  0  0  0  0
   -1.9210   13.3230   -5.1330 O   0  0  0  0  0  0  0  0  0  0  0  0
   -3.1660   15.2240   -6.2370 O   0  0  0  0  0  0  0  0  0  0  0  0
  1  2  1  0
  2  3  2  0
  2  4  1  0
  3  5  1  0
  4  6  1  0
  5  6  2  0
  5  7  1  0
  6  8  1  0
  7  9  2  0
  8 10  2  0
  9 10  1  0
  9 11  1  0
 11 12  1  0
 11 13  1  0
 13 14  2  0
 13 15  1  0
 15 16  2  0
 15 17  1  0
 16 18  1  0
 17 19  2  0
 18 20  2  0
 19 20  1  0
 20 21  1  0
 21 22  1  0
 21 23  2  0
 21 24  2  0
M  END
