diamond-x0837_0_A-diamond-x0962_0_A
     RDKit          3D

  9  9  0  0  0  0  0  0  0  0999 V2000
   -7.7490   14.7620    0.2240 O   0  0  0  0  0  0  0  0  0  0  0  0
   -6.4940   14.8160    0.2500 C   0  0  0  0  0  0  0  0  0  0  0  0
   -5.8220   14.8910    1.5060 N   0  0  0  0  0  0  0  0  0  0  0  0
   -5.7390   14.7980   -1.0170 C   0  0  0  0  0  0  0  0  0  0  0  0
   -4.4480   15.2680    1.4530 C   0  0  0  0  0  0  0  0  0  0  0  0
   -4.4110   14.3190   -0.6660 C   0  0  1  0  0  0  0  0  0  0  0  0
   -3.1480   14.7220   -2.5340 I   0  0  0  0  0  0  0  0  0  0  0  0
   -3.7290   14.9950    0.3940 C   0  0  0  0  0  0  0  0  0  0  0  0
   -1.5640   14.8330   -2.8050 C   0  0  0  0  0  0  0  0  0  0  0  0
  1  2  2  0
  2  3  1  0
  2  4  1  0
  3  5  1  0
  4  6  1  0
  6  7  1  6
  5  8  2  0
  6  8  1  0
  7  9  3  0
M  END
