diamond-x0689_0_A-diamond-x0711_0_A
     RDKit          3D

 21 22  0  0  0  0  0  0  0  0999 V2000
   -3.8070   14.5530    1.9500 N   0  0  0  0  0  0  0  0  0  0  0  0
   -5.0500   15.2540    1.6420 C   0  0  0  0  0  0  0  0  0  0  0  0
   -5.7650   14.7180    0.4060 C   0  0  0  0  0  0  0  0  0  0  0  0
   -2.5890   14.7950    1.2960 C   0  0  0  0  0  0  0  0  0  0  0  0
   -2.5620   15.3960    0.0980 N   0  0  0  0  0  0  0  0  0  0  0  0
   -1.4890   14.3840    1.9160 N   0  0  0  0  0  0  0  0  0  0  0  0
   -6.9530   14.3720    0.2890 O   0  0  0  0  0  0  0  0  0  0  0  0
   -1.3430   15.5610   -0.4780 C   0  0  0  0  0  0  0  0  0  0  0  0
   -0.3190   14.5610    1.3190 C   0  0  0  0  0  0  0  0  0  0  0  0
   -4.8090   14.7110   -0.6770 C   0  0  0  0  0  0  0  0  0  0  0  0
   -0.1690   15.1500    0.0990 C   0  0  0  0  0  0  0  0  0  0  0  0
   -4.9640   15.4360   -1.8370 C   0  0  0  0  0  0  0  0  0  0  0  0
   -3.6730   13.9340   -0.4590 C   0  0  0  0  0  0  0  0  0  0  0  0
   -3.9450   15.4000   -2.7780 C   0  0  0  0  0  0  0  0  0  0  0  0
   -2.6580   13.9020   -1.4010 C   0  0  0  0  0  0  0  0  0  0  0  0
   -2.8050   14.6570   -2.5570 C   0  0  0  0  0  0  0  0  0  0  0  0
   -1.8040   14.7080   -3.5550 N   0  0  0  0  0  0  0  0  0  0  0  0
   -0.3870   13.8020   -3.4150 S   0  0  0  0  0  0  0  0  0  0  0  0
   -0.9080   12.3550   -4.2970 C   0  0  0  0  0  0  0  0  0  0  0  0
    0.5650   14.5150   -4.2370 O   0  0  0  0  0  0  0  0  0  0  0  0
   -0.0810   13.4490   -2.0480 O   0  0  0  0  0  0  0  0  0  0  0  0
  1  2  1  0
  2  3  1  0
  1  4  1  0
  4  5  2  0
  4  6  1  0
  3  7  2  0
  5  8  1  0
  6  9  2  0
  3 10  1  0
  8 11  2  0
  9 11  1  0
 10 12  2  0
 10 13  1  0
 12 14  1  0
 13 15  2  0
 14 16  2  0
 15 16  1  0
 16 17  1  0
 18 17  1  0
 18 19  1  0
 18 20  2  0
 18 21  2  0
M  END
