diamond-x0685_0_A-mac-x0277
     RDKit          3D

 24 25  0  0  0  0  0  0  0  0999 V2000
   -5.9360   14.5110    2.6930 N   0  0  0  0  0  0  0  0  0  0  0  0
   -7.3390   14.8250    2.9140 C   0  0  0  0  0  0  0  0  0  0  0  0
   -8.0760   13.5270    3.1840 C   0  0  0  0  0  0  0  0  0  0  0  0
   -5.3440   14.7290    1.4720 C   0  0  0  0  0  0  0  0  0  0  0  0
   -3.9680   14.9020    1.3440 C   0  0  0  0  0  0  0  0  0  0  0  0
   -6.1940   14.7540    0.4390 N   0  0  0  0  0  0  0  0  0  0  0  0
   -3.4350   15.1080    0.0800 C   0  0  0  0  0  0  0  0  0  0  0  0
   -5.6530   14.9560   -0.7720 C   0  0  0  0  0  0  0  0  0  0  0  0
   -4.3020   15.1320   -1.0010 C   0  0  0  0  0  0  0  0  0  0  0  0
   -3.8810   15.3300   -2.3300 C   0  0  0  0  0  0  0  0  0  0  0  0
   -3.6580   15.5070   -3.4800 C   0  0  0  0  0  0  0  0  0  0  0  0
   -3.5150   15.7610   -4.9070 C   0  0  0  0  0  0  0  0  0  0  0  0
   -2.5130   14.8750   -5.5240 C   0  0  0  0  0  0  0  0  0  0  0  0
   -1.1250   15.2290   -5.0720 C   0  0  0  0  0  0  0  0  0  0  0  0
   -0.3720   14.1370   -4.6630 C   0  0  0  0  0  0  0  0  0  0  0  0
   -0.5460   16.5200   -5.0210 C   0  0  0  0  0  0  0  0  0  0  0  0
   -1.3610   17.9740   -5.4900 Cl  0  0  0  0  0  0  0  0  0  0  0  0
    0.9250   14.2680   -4.2070 C   0  0  0  0  0  0  0  0  0  0  0  0
    0.7670   16.6620   -4.5660 C   0  0  0  0  0  0  0  0  0  0  0  0
    1.6630   13.0320   -3.7690 C   0  0  0  0  0  0  0  0  0  0  0  0
    1.4980   15.5390   -4.1600 C   0  0  0  0  0  0  0  0  0  0  0  0
    0.9430   12.2890   -2.6440 C   0  0  0  0  0  0  0  0  0  0  0  0
    0.4130   11.1130   -3.0560 O   0  0  0  0  0  0  0  0  0  0  0  0
    0.8150   12.6700   -1.4850 O   0  0  0  0  0  0  0  0  0  0  0  0
  1  2  1  0
  2  3  1  0
  1  4  1  0
  4  5  2  0
  4  6  1  0
  5  7  1  0
  6  8  2  0
  7  9  2  0
  8  9  1  0
  9 10  1  0
 10 11  3  0
 11 12  1  0
 12 13  1  0
 13 14  1  0
 14 15  2  0
 14 16  1  0
 16 17  1  0
 15 18  1  0
 16 19  2  0
 18 20  1  0
 18 21  2  0
 19 21  1  0
 20 22  1  0
 22 23  1  0
 22 24  2  0
M  END
