diamond-x0626_0_A-mac-x0131
     RDKit          3D

 22 24  0  0  0  0  0  0  0  0999 V2000
   -4.9690   14.8910    1.3670 N   0  0  0  0  0  0  0  0  0  0  0  0
   -6.1530   14.6630    0.7010 C   0  0  0  0  0  0  0  0  0  0  0  0
   -6.2970   14.7070   -0.5160 O   0  0  0  0  0  0  0  0  0  0  0  0
   -3.7990   15.4360    0.7560 C   0  0  1  0  0  0  0  0  0  0  0  0
   -7.2910   14.3530    1.6490 C   0  0  0  0  0  0  0  0  0  0  0  0
   -2.8130   14.4030    1.0530 N   0  0  0  0  0  0  0  0  0  0  0  0
   -4.2520   15.6420   -0.9690 S   0  0  0  0  0  0  0  0  0  0  0  0
   -8.6430   14.5830    1.0010 C   0  0  0  0  0  0  0  0  0  0  0  0
   -1.5770   14.2930    0.2340 C   0  0  2  0  0  0  0  0  0  0  0  0
   -3.3110   14.3110   -1.7170 C   0  0  2  0  0  0  0  0  0  0  0  0
   -0.4060   15.1560    0.7320 C   0  0  0  0  0  0  0  0  0  0  0  0
   -1.8610   14.1250   -1.2980 C   0  0  1  0  0  0  0  0  0  0  0  0
   -3.2470   14.2390   -3.2380 C   0  0  1  0  0  0  0  0  0  0  0  0
   -4.4290   14.7730   -4.0170 C   0  0  0  0  0  0  0  0  0  0  0  0
   -1.1500   14.9570   -2.3130 N   0  0  0  0  0  0  0  0  0  0  0  0
   -2.0130   15.0900   -3.5040 C   0  0  0  0  0  0  0  0  0  0  0  0
    0.1250   14.4350   -2.7500 C   0  0  0  0  0  0  0  0  0  0  0  0
   -0.0340   13.1150   -3.4110 C   0  0  0  0  0  0  0  0  0  0  0  0
    0.8340   12.1870   -3.9290 C   0  0  0  0  0  0  0  0  0  0  0  0
   -1.3180   12.6820   -3.5530 O   0  0  0  0  0  0  0  0  0  0  0  0
   -1.2770   11.4810   -4.1600 C   0  0  0  0  0  0  0  0  0  0  0  0
    0.0130   11.1290   -4.4110 C   0  0  0  0  0  0  0  0  0  0  0  0
  1  2  1  0
  2  3  2  0
  4  1  1  1
  2  5  1  0
  4  6  1  0
  4  7  1  0
  5  8  1  0
  6  9  1  0
 10  7  1  6
  9 11  1  6
  9 12  1  0
 10 12  1  0
 10 13  1  0
 13 14  1  6
 12 15  1  6
 13 16  1  0
 15 16  1  0
 15 17  1  0
 17 18  1  0
 18 19  2  0
 18 20  1  0
 20 21  1  0
 19 22  1  0
 21 22  2  0
M  END
