diamond-x0910_1_A-mac-x0453
     RDKit          3D

 13 14  0  0  0  0  0  0  0  0999 V2000
   -6.7610   13.5010    1.1870 N   0  0  0  0  0  0  0  0  0  0  0  0
   -5.5340   12.7300    1.4120 C   0  0  0  0  0  0  0  0  0  0  0  0
   -4.2890   13.6390    1.5330 C   0  0  0  0  0  0  0  0  0  0  0  0
   -6.5720   14.4530    0.2780 C   0  0  0  0  0  0  0  0  0  0  0  0
   -7.4020   14.7700   -0.7600 N   0  0  0  0  0  0  0  0  0  0  0  0
   -5.5330   15.2240    0.2450 N   0  0  0  0  0  0  0  0  0  0  0  0
   -6.8820   15.7670   -1.4950 N   0  0  0  0  0  0  0  0  0  0  0  0
   -5.7480   15.9940   -0.8390 C   0  0  0  0  0  0  0  0  0  0  0  0
   -3.5710   13.9590    0.2570 C   0  0  0  0  0  0  0  0  0  0  0  0
   -2.2410   14.2800    0.0990 C   0  0  0  0  0  0  0  0  0  0  0  0
   -4.1970   13.9640   -0.9760 N   0  0  0  0  0  0  0  0  0  0  0  0
   -2.0590   14.4780   -1.2360 N   0  0  0  0  0  0  0  0  0  0  0  0
   -3.2650   14.2810   -1.8500 C   0  0  0  0  0  0  0  0  0  0  0  0
  1  2  1  0
  2  3  1  0
  1  4  1  0
  4  5  1  0
  4  6  2  0
  5  7  1  0
  6  8  1  0
  7  8  2  0
  3  9  1  0
  9 10  2  0
  9 11  1  0
 10 12  1  0
 11 13  2  0
 12 13  1  0
M  END
