diamond-x0128_0_A-diamond-x1015_0_A
     RDKit          3D

 34 37  0  0  0  0  0  0  0  0999 V2000
   -6.6170   14.7820    2.5660 N   0  0  0  0  0  0  0  0  0  0  0  0
   -7.8400   15.2200    3.0500 C   0  0  0  0  0  0  0  0  0  0  0  0
   -8.8160   15.5360    2.3790 O   0  0  0  0  0  0  0  0  0  0  0  0
   -6.1470   14.7820    1.2420 C   0  0  0  0  0  0  0  0  0  0  0  0
   -7.7560   15.2380    4.4260 N   0  0  0  0  0  0  0  0  0  0  0  0
   -6.9770   14.5540    0.1580 C   0  0  0  0  0  0  0  0  0  0  0  0
   -4.7770   15.0290    1.0150 C   0  0  0  0  0  0  0  0  0  0  0  0
   -6.4700   14.5620   -1.1310 C   0  0  0  0  0  0  0  0  0  0  0  0
   -4.2650   15.0380   -0.2870 C   0  0  0  0  0  0  0  0  0  0  0  0
   -8.5050   16.0140    5.3430 C   0  0  0  0  0  0  0  0  0  0  0  0
   -5.1190   14.7970   -1.3720 C   0  0  0  0  0  0  0  0  0  0  0  0
   -9.1410   17.1770    4.8880 C   0  0  0  0  0  0  0  0  0  0  0  0
   -8.6650   15.7090    6.6880 C   0  0  0  0  0  0  0  0  0  0  0  0
   -4.6510   14.7690   -2.7970 C   0  0  0  0  0  0  0  0  0  0  0  0
   -9.8900   18.0050    5.6540 N   0  0  0  0  0  0  0  0  0  0  0  0
   -9.4310   16.5430    7.5090 C   0  0  0  0  0  0  0  0  0  0  0  0
   -3.1940   15.1630   -2.9950 C   0  0  0  0  0  0  0  0  0  0  0  0
  -10.0160   17.6680    6.9500 C   0  0  0  0  0  0  0  0  0  0  0  0
   -2.4640   14.0540   -3.7480 C   0  0  0  0  0  0  0  0  0  0  0  0
   -1.1340   14.5200   -4.3500 C   0  0  0  0  0  0  0  0  0  0  0  0
    0.0990   13.6850   -3.9620 C   0  0  2  0  0  0  0  0  0  0  0  0
   -0.0810   12.2380   -3.9180 N   0  0  0  0  0  0  0  0  0  0  0  0
    0.4730   13.9550   -2.5090 C   0  0  0  0  0  0  0  0  0  0  0  0
    0.5800   15.0490   -1.9760 O   0  0  0  0  0  0  0  0  0  0  0  0
    0.2900   11.7230   -2.6630 C   0  0  0  0  0  0  0  0  0  0  0  0
    0.6750   12.7730   -1.8850 N   0  0  0  0  0  0  0  0  0  0  0  0
   -0.4760   11.4530   -5.0310 C   0  0  0  0  0  0  0  0  0  0  0  0
    0.2930   10.5530   -2.2700 O   0  0  0  0  0  0  0  0  0  0  0  0
    0.0810   11.6450   -6.3010 C   0  0  0  0  0  0  0  0  0  0  0  0
   -1.4470   10.4490   -4.8860 C   0  0  0  0  0  0  0  0  0  0  0  0
   -0.3130   10.8620   -7.3920 C   0  0  0  0  0  0  0  0  0  0  0  0
   -1.8450    9.6640   -5.9730 C   0  0  0  0  0  0  0  0  0  0  0  0
   -1.2750    9.8750   -7.2210 C   0  0  0  0  0  0  0  0  0  0  0  0
   -1.7680    8.9090   -8.5520 Cl  0  0  0  0  0  0  0  0  0  0  0  0
  1  2  1  0
  2  3  2  0
  1  4  1  0
  2  5  1  0
  4  6  2  0
  4  7  1  0
  6  8  1  0
  7  9  2  0
  5 10  1  0
  8 11  2  0
  9 11  1  0
 10 12  2  0
 10 13  1  0
 11 14  1  0
 12 15  1  0
 13 16  2  0
 14 17  1  0
 15 18  2  0
 16 18  1  0
 17 19  1  0
 19 20  1  0
 21 20  1  1
 21 22  1  0
 21 23  1  0
 23 24  2  0
 22 25  1  0
 23 26  1  0
 25 26  1  0
 22 27  1  0
 25 28  2  0
 27 29  2  0
 27 30  1  0
 29 31  1  0
 30 32  2  0
 31 33  2  0
 32 33  1  0
 33 34  1  0
M  END
