diamond-x0689_0_A-mac-x0321
     RDKit          3D

 17 18  0  0  0  0  0  0  0  0999 V2000
   -3.6180   14.4770    1.6660 N   0  0  0  0  0  0  0  0  0  0  0  0
   -4.4760   15.5090    1.1910 C   0  0  0  0  0  0  0  0  0  0  0  0
   -4.5540   15.3520   -0.2960 C   0  0  0  0  0  0  0  0  0  0  0  0
   -2.3340   14.5360    1.1960 C   0  0  0  0  0  0  0  0  0  0  0  0
   -2.1840   14.7120   -0.1170 N   0  0  0  0  0  0  0  0  0  0  0  0
   -1.3310   14.4210    2.0200 N   0  0  0  0  0  0  0  0  0  0  0  0
   -0.9260   14.7720   -0.5900 C   0  0  0  0  0  0  0  0  0  0  0  0
   -0.1130   14.4800    1.5180 C   0  0  0  0  0  0  0  0  0  0  0  0
   -3.3810   15.1220   -1.0170 C   0  0  0  0  0  0  0  0  0  0  0  0
   -5.7660   15.4260   -0.9740 C   0  0  0  0  0  0  0  0  0  0  0  0
    0.1670   14.6600    0.1920 C   0  0  0  0  0  0  0  0  0  0  0  0
   -3.4080   14.9630   -2.3920 C   0  0  0  0  0  0  0  0  0  0  0  0
   -5.7970   15.2660   -2.3550 C   0  0  0  0  0  0  0  0  0  0  0  0
   -2.1470   14.7170   -3.1430 C   0  0  0  0  0  0  0  0  0  0  0  0
   -4.6200   15.0330   -3.0640 C   0  0  0  0  0  0  0  0  0  0  0  0
   -1.0860   14.4590   -2.3550 O   0  0  0  0  0  0  0  0  0  0  0  0
   -2.0820   14.7340   -4.3530 O   0  0  0  0  0  0  0  0  0  0  0  0
  1  2  1  0
  2  3  1  0
  1  4  1  0
  4  5  2  0
  4  6  1  0
  5  7  1  0
  6  8  2  0
  3  9  2  0
  3 10  1  0
  7 11  2  0
  8 11  1  0
  9 12  1  0
 10 13  2  0
 12 14  1  0
 12 15  2  0
 13 15  1  0
 14 16  1  0
 14 17  2  0
M  END
