diamond-x0926_0_A-mac-x0131
     RDKit          3D

 24 27  0  0  0  0  0  0  0  0999 V2000
   -4.7410   14.1780   -1.6370 N   0  0  0  0  0  0  0  0  0  0  0  0
   -5.2270   14.8390   -0.6850 C   0  0  0  0  0  0  0  0  0  0  0  0
   -6.3390   14.5400    0.2850 C   0  0  0  0  0  0  0  0  0  0  0  0
   -3.5710   14.9210   -2.0610 C   0  0  2  0  0  0  0  0  0  0  0  0
   -4.5910   16.0130   -0.4850 N   0  0  0  0  0  0  0  0  0  0  0  0
   -2.8490   14.5650   -3.3760 C   0  0  1  0  0  0  0  0  0  0  0  0
   -2.4480   14.5970   -1.0800 C   0  0  1  0  0  0  0  0  0  0  0  0
   -3.6070   15.1000   -4.5880 C   0  0  0  0  0  0  0  0  0  0  0  0
   -4.0650   16.2120    0.7320 N   0  0  0  0  0  0  0  0  0  0  0  0
   -5.7420   14.7920    1.6470 C   0  0  0  0  0  0  0  0  0  0  0  0
   -1.3540   15.3960   -1.7070 C   0  0  2  0  0  0  0  0  0  0  0  0
   -1.4650   15.0510   -3.1240 N   0  0  0  0  0  0  0  0  0  0  0  0
   -2.4720   14.8810    0.4320 C   0  0  1  0  0  0  0  0  0  0  0  0
   -3.3310   14.0750    1.2660 N   0  0  0  0  0  0  0  0  0  0  0  0
   -0.3280   14.4430   -3.7840 C   0  0  0  0  0  0  0  0  0  0  0  0
   -4.6590   15.5930    1.7880 C   0  0  0  0  0  0  0  0  0  0  0  0
   -1.1520   14.6910    1.0040 N   0  0  0  0  0  0  0  0  0  0  0  0
   -0.0870   15.0930   -1.0700 N   0  0  0  0  0  0  0  0  0  0  0  0
   -0.1530   15.4940    0.3300 C   0  0  0  0  0  0  0  0  0  0  0  0
   -0.2770   12.9670   -3.6310 C   0  0  0  0  0  0  0  0  0  0  0  0
    0.5800   12.1080   -2.9810 C   0  0  0  0  0  0  0  0  0  0  0  0
   -1.2710   12.2550   -4.2410 O   0  0  0  0  0  0  0  0  0  0  0  0
   -1.0470   10.9480   -3.9740 C   0  0  0  0  0  0  0  0  0  0  0  0
    0.0750   10.8070   -3.2020 C   0  0  0  0  0  0  0  0  0  0  0  0
  1  2  2  3
  2  3  1  0
  4  1  1  1
  2  5  1  0
  4  6  1  0
  4  7  1  0
  6  8  1  6
  5  9  1  0
  3 10  1  0
  7 11  1  0
  6 12  1  0
 11 12  1  0
  7 13  1  1
 13 14  1  1
 12 15  1  0
  9 16  1  0
 10 16  2  0
 13 17  1  0
 11 18  1  1
 17 19  1  0
 18 19  1  0
 15 20  1  0
 20 21  2  0
 20 22  1  0
 22 23  1  0
 21 24  1  0
 23 24  2  0
M  END
