diamond-x0852_0_B-diamond-x0587_0_A
     RDKit          3D

 22 23  0  0  0  0  0  0  0  0999 V2000
   -9.4610   17.4010    7.1490 N   0  0  0  0  0  0  0  0  0  0  0  0
   -9.4000   17.0850    6.0310 C   0  0  0  0  0  0  0  0  0  0  0  0
   -9.4270   16.6990    4.6460 C   0  0  0  0  0  0  0  0  0  0  0  0
   -8.6090   15.7410    4.0470 C   0  0  0  0  0  0  0  0  0  0  0  0
  -10.3470   17.3070    3.7830 C   0  0  0  0  0  0  0  0  0  0  0  0
   -7.6350   14.9470    4.4990 O   0  0  0  0  0  0  0  0  0  0  0  0
   -8.6870   15.4000    2.7210 C   0  0  0  0  0  0  0  0  0  0  0  0
  -10.4020   16.9360    2.4210 C   0  0  0  0  0  0  0  0  0  0  0  0
  -11.5960   17.6920    1.1790 Br  0  0  0  0  0  0  0  0  0  0  0  0
   -7.8460   14.1240    3.3720 C   0  0  0  0  0  0  0  0  0  0  0  0
   -9.5740   15.9860    1.9040 C   0  0  0  0  0  0  0  0  0  0  0  0
   -8.7480   13.3020    3.3260 O   0  0  0  0  0  0  0  0  0  0  0  0
   -7.0010   14.3330    2.1320 C   0  0  0  0  0  0  0  0  0  0  0  0
   -7.4120   13.9030    0.8760 C   0  0  0  0  0  0  0  0  0  0  0  0
   -5.7630   14.9460    2.1180 C   0  0  0  0  0  0  0  0  0  0  0  0
   -6.6850   14.0310   -0.2650 N   0  0  0  0  0  0  0  0  0  0  0  0
   -4.9910   15.0950    1.0100 N   0  0  0  0  0  0  0  0  0  0  0  0
   -5.4700   14.6210   -0.1630 C   0  0  0  0  0  0  0  0  0  0  0  0
   -4.5970   14.7370   -1.4200 C   0  0  0  0  0  0  0  0  0  0  0  0
   -3.3420   15.2140   -1.1660 F   0  0  0  0  0  0  0  0  0  0  0  0
   -4.3980   13.5200   -2.0120 F   0  0  0  0  0  0  0  0  0  0  0  0
   -5.1060   15.5260   -2.4010 F   0  0  0  0  0  0  0  0  0  0  0  0
  1  2  3  0
  2  3  1  0
  3  4  2  0
  3  5  1  0
  4  6  1  0
  4  7  1  0
  5  8  2  0
  8  9  1  0
  6 10  1  0
  7 11  2  0
  8 11  1  0
 10 12  2  0
 10 13  1  0
 13 14  2  0
 13 15  1  0
 14 16  1  0
 15 17  2  0
 16 18  2  0
 17 18  1  0
 18 19  1  0
 19 20  1  0
 19 21  1  0
 19 22  1  0
M  END
