diamond-x0465_0_A-mac-x0282
     RDKit          3D

 23 25  0  0  0  0  0  0  0  0999 V2000
    1.9020   13.2260   -5.3230 C   0  0  0  0  0  0  0  0  0  0  0  0
    0.6090   12.5860   -4.8830 C   0  0  1  0  0  0  0  0  0  0  0  0
    0.6110   11.2890   -5.4750 O   0  0  0  0  0  0  0  0  0  0  0  0
    0.6740   12.5750   -3.3650 C   0  0  0  0  0  0  0  0  0  0  0  0
    0.8040   13.6190   -2.6280 N   0  0  0  0  0  0  0  0  0  0  0  0
    0.5910   11.3420   -2.7960 O   0  0  0  0  0  0  0  0  0  0  0  0
   -0.6150   10.7070   -5.6360 C   0  0  0  0  0  0  0  0  0  0  0  0
    0.8560   13.5380   -1.1980 C   0  0  0  0  0  0  0  0  0  0  0  0
   -0.7250    9.6940   -6.5890 C   0  0  0  0  0  0  0  0  0  0  0  0
   -1.7290   11.0870   -4.8910 C   0  0  0  0  0  0  0  0  0  0  0  0
    0.3420    9.3240   -7.3110 F   0  0  0  0  0  0  0  0  0  0  0  0
   -1.9370    9.0490   -6.8040 C   0  0  0  0  0  0  0  0  0  0  0  0
   -2.9510   10.4390   -5.1070 C   0  0  0  0  0  0  0  0  0  0  0  0
   -0.3490   14.0410   -0.4900 C   0  0  0  0  0  0  0  0  0  0  0  0
   -3.0520    9.4250   -6.0590 C   0  0  0  0  0  0  0  0  0  0  0  0
   -1.4370   14.4370   -1.2470 C   0  0  0  0  0  0  0  0  0  0  0  0
   -0.4340   14.1090    0.9100 C   0  0  0  0  0  0  0  0  0  0  0  0
   -2.5650   14.8660   -0.5730 C   0  0  0  0  0  0  0  0  0  0  0  0
   -1.5050   14.5230    1.6250 N   0  0  0  0  0  0  0  0  0  0  0  0
   -3.8370   15.3240   -0.9680 C   0  0  0  0  0  0  0  0  0  0  0  0
   -2.5230   14.8770    0.8190 C   0  0  0  0  0  0  0  0  0  0  0  0
   -4.5370   15.5930    0.1730 C   0  0  0  0  0  0  0  0  0  0  0  0
   -3.7340   15.3190    1.2500 N   0  0  0  0  0  0  0  0  0  0  0  0
  2  1  1  6
  2  3  1  0
  2  4  1  0
  4  5  2  3
  4  6  1  0
  3  7  1  0
  5  8  1  0
  7  9  2  0
  7 10  1  0
  9 11  1  0
  9 12  1  0
 10 13  2  0
  8 14  1  0
 12 15  2  0
 13 15  1  0
 14 16  2  0
 14 17  1  0
 16 18  1  0
 17 19  2  0
 18 20  1  0
 18 21  2  0
 19 21  1  0
 20 22  2  0
 21 23  1  0
 22 23  1  0
M  END
