diamond-x0380_0_B-diamond-x0918_0_B
     RDKit          3D

 13 13  0  0  0  0  0  0  0  0999 V2000
   -4.1570   30.0460  -14.6410 N   0  0  0  0  0  0  0  0  0  0  0  0
   -3.6610   31.0980  -15.3710 C   0  0  0  0  0  0  0  0  0  0  0  0
   -4.1650   32.1890  -15.5450 O   0  0  0  0  0  0  0  0  0  0  0  0
   -5.4650   29.8300  -14.1880 C   0  0  0  0  0  0  0  0  0  0  0  0
   -2.3150   30.7680  -16.0120 C   0  0  0  0  0  0  0  0  0  0  0  0
   -5.6320   29.2440  -12.9260 C   0  0  0  0  0  0  0  0  0  0  0  0
   -6.5990   30.1690  -14.9410 C   0  0  0  0  0  0  0  0  0  0  0  0
   -4.4440   28.8740  -12.0980 C   0  0  0  0  0  0  0  0  0  0  0  0
   -2.1990   31.4570  -17.3160 N   0  0  0  0  0  0  0  0  0  0  0  0
   -6.9250   29.0090  -12.4650 C   0  0  0  0  0  0  0  0  0  0  0  0
   -7.8860   29.9310  -14.4490 C   0  0  0  0  0  0  0  0  0  0  0  0
   -7.2040   28.2780  -10.9550 Cl  0  0  0  0  0  0  0  0  0  0  0  0
   -8.0480   29.3490  -13.2080 C   0  0  0  0  0  0  0  0  0  0  0  0
  1  2  1  0
  2  3  2  0
  1  4  1  0
  2  5  1  0
  4  6  2  0
  4  7  1  0
  6  8  1  0
  5  9  1  0
  6 10  1  0
  7 11  2  0
 10 12  1  0
 10 13  2  0
 11 13  1  0
M  END
