diamond-x0598_0_A-diamond-x0918_4_B
     RDKit          3D

 21 22  0  0  0  0  0  0  0  0999 V2000
    9.8310   24.3690   16.8460 N   0  0  0  0  0  0  0  0  0  0  0  0
    9.2790   25.7270   16.6780 C   0  0  0  0  0  0  0  0  0  0  0  0
    7.8630   25.8030   17.2980 C   0  0  0  0  0  0  0  0  0  0  0  0
   11.1310   23.5970   16.0340 S   0  0  2  0  0  0  0  0  0  0  0  0
   11.1910   21.9620   16.7280 C   0  0  0  0  0  0  0  0  0  0  0  0
   12.2950   24.4530   16.4410 N   0  0  0  0  0  0  0  0  0  0  0  0
   10.8630   23.4540   14.6440 O   0  0  0  0  0  0  0  0  0  0  0  0
   13.1030   24.9860   15.2880 C   0  0  0  0  0  0  0  0  0  0  0  0
    7.1160   24.6090   16.8470 C   0  0  0  0  0  0  0  0  0  0  0  0
    6.9150   26.9600   16.9600 C   0  0  0  0  0  0  0  0  0  0  0  0
   12.7270   24.3010   13.9360 C   0  0  0  0  0  0  0  0  0  0  0  0
    6.0390   24.9430   15.8410 C   0  0  0  0  0  0  0  0  0  0  0  0
    5.4510   26.6000   17.3370 C   0  0  0  0  0  0  0  0  0  0  0  0
   13.7250   23.2770   13.5900 N   0  0  0  0  0  0  0  0  0  0  0  0
    4.9100   25.4750   16.5660 N   0  0  0  0  0  0  0  0  0  0  0  0
   13.3510   21.9450   13.3800 C   0  0  0  0  0  0  0  0  0  0  0  0
   12.2320   21.3410   13.9440 C   0  0  0  0  0  0  0  0  0  0  0  0
   14.1470   21.1610   12.5550 C   0  0  0  0  0  0  0  0  0  0  0  0
   11.9670   20.0100   13.6700 C   0  0  0  0  0  0  0  0  0  0  0  0
   13.8090   19.8340   12.3360 C   0  0  0  0  0  0  0  0  0  0  0  0
   12.7340   19.2370   12.8820 N   0  0  0  0  0  0  0  0  0  0  0  0
  1  2  1  0
  2  3  1  0
  4  1  1  0
  4  5  1  1
  4  6  2  0
  4  7  2  0
  6  8  1  0
  3  9  1  0
  3 10  1  0
  8 11  1  0
  9 12  1  0
 10 13  1  0
 11 14  1  0
 12 15  1  0
 13 15  1  0
 14 16  1  0
 16 17  2  0
 16 18  1  0
 17 19  1  0
 18 20  2  0
 19 21  2  0
 20 21  1  0
M  END
