diamond-x0628_0_A-diamond-x0421_0_A
     RDKit          3D

 25 27  0  0  0  0  0  0  0  0999 V2000
   -0.8520    8.9430   -7.2810 C   0  0  0  0  0  0  0  0  0  0  0  0
   -0.8260   10.1700   -6.4600 C   0  0  0  0  0  0  0  0  0  0  0  0
   -1.8260   10.4870   -5.5800 N   0  0  0  0  0  0  0  0  0  0  0  0
    0.1720   11.0520   -6.5180 N   0  0  0  0  0  0  0  0  0  0  0  0
   -0.2170   11.9740   -5.6220 N   0  0  0  0  0  0  0  0  0  0  0  0
   -1.4230   11.6320   -5.0570 C   0  0  0  0  0  0  0  0  0  0  0  0
   -2.1470   12.4320   -4.0310 C   0  0  0  0  0  0  0  0  0  0  0  0
    0.6320   13.1300   -5.3940 C   0  0  0  0  0  0  0  0  0  0  0  0
    1.6730   12.9300   -4.2940 C   0  0  0  0  0  0  0  0  0  0  0  0
   -2.1350   13.9250   -4.3570 C   0  0  0  0  0  0  0  0  0  0  0  0
    1.1000   12.2540   -3.0790 C   0  0  0  0  0  0  0  0  0  0  0  0
   -1.2690   14.7700   -3.4140 C   0  0  0  0  0  0  0  0  0  0  0  0
    0.5680   11.1570   -3.0060 O   0  0  0  0  0  0  0  0  0  0  0  0
    1.2340   13.0130   -1.9810 O   0  0  0  0  0  0  0  0  0  0  0  0
   -1.8070   14.7120   -2.0570 N   0  0  0  0  0  0  0  0  0  0  0  0
   -3.0430   14.9930   -1.8800 C   0  0  0  0  0  0  0  0  0  0  0  0
   -4.0010   15.3560   -2.7810 N   0  0  0  0  0  0  0  0  0  0  0  0
   -3.5930   14.9410   -0.5290 C   0  0  0  0  0  0  0  0  0  0  0  0
   -2.9190   15.0300    0.6770 C   0  0  0  0  0  0  0  0  0  0  0  0
   -4.9520   14.7800   -0.2970 N   0  0  0  0  0  0  0  0  0  0  0  0
   -3.8780   14.9220    1.6360 N   0  0  0  0  0  0  0  0  0  0  0  0
   -5.0770   14.7730    1.0070 C   0  0  0  0  0  0  0  0  0  0  0  0
   -6.4220   14.6110    1.7580 C   0  0  0  0  0  0  0  0  0  0  0  0
   -7.7100   14.6520    0.9770 C   0  0  0  0  0  0  0  0  0  0  0  0
   -7.2190   13.3540    1.5510 C   0  0  0  0  0  0  0  0  0  0  0  0
  1  2  1  0
  2  3  1  0
  2  4  2  0
  4  5  1  0
  3  6  2  0
  5  6  1  0
  6  7  1  0
  5  8  1  0
  8  9  1  0
  7 10  1  0
  9 11  1  0
 10 12  1  0
 11 13  2  0
 11 14  1  0
 12 15  1  0
 15 16  2  3
 16 17  1  0
 16 18  1  0
 18 19  2  0
 18 20  1  0
 19 21  1  0
 20 22  2  0
 21 22  1  0
 22 23  1  0
 23 24  1  0
 23 25  1  0
 24 25  1  0
M  END
