diamond-x0905_0_A-mac-x0527
     RDKit          3D

 17 18  0  0  0  0  0  0  0  0999 V2000
   -7.2290   15.1390   -0.5870 O   0  0  0  0  0  0  0  0  0  0  0  0
   -5.8790   15.1030   -0.5170 C   0  0  0  0  0  0  0  0  0  0  0  0
   -5.3850   15.0200    0.7330 N   0  0  0  0  0  0  0  0  0  0  0  0
   -5.1350   15.1470   -1.6600 C   0  0  0  0  0  0  0  0  0  0  0  0
   -4.0380   14.9850    0.8450 C   0  0  0  0  0  0  0  0  0  0  0  0
   -3.7630   15.0990   -1.5050 C   0  0  0  0  0  0  0  0  0  0  0  0
   -2.9640   15.1320   -2.7310 C   0  0  0  0  0  0  0  0  0  0  0  0
   -3.1820   15.0210   -0.2390 C   0  0  0  0  0  0  0  0  0  0  0  0
   -3.4890   15.5160   -3.7680 O   0  0  0  0  0  0  0  0  0  0  0  0
   -1.6560   14.7300   -2.7290 N   0  0  0  0  0  0  0  0  0  0  0  0
   -0.7880   14.6820   -3.8870 C   0  0  0  0  0  0  0  0  0  0  0  0
   -0.8130   13.3350   -4.5680 C   0  0  0  0  0  0  0  0  0  0  0  0
   -1.7810   12.3730   -4.2340 C   0  0  0  0  0  0  0  0  0  0  0  0
    0.1380   13.0240   -5.5490 C   0  0  0  0  0  0  0  0  0  0  0  0
   -1.7930   11.1290   -4.8670 C   0  0  0  0  0  0  0  0  0  0  0  0
    0.1250   11.7820   -6.1830 C   0  0  0  0  0  0  0  0  0  0  0  0
   -0.8400   10.8340   -5.8410 C   0  0  0  0  0  0  0  0  0  0  0  0
  1  2  1  0
  2  3  2  0
  2  4  1  0
  3  5  1  0
  4  6  2  0
  6  7  1  0
  5  8  2  0
  6  8  1  0
  7  9  2  0
  7 10  1  0
 10 11  1  0
 11 12  1  0
 12 13  2  0
 12 14  1  0
 13 15  1  0
 14 16  2  0
 15 17  2  0
 16 17  1  0
M  END
