diamond-x0895_1_A-mac-x0326
     RDKit          3D

 17 18  0  0  0  0  0  0  0  0999 V2000
   -1.4940   14.8680    1.4420 O   0  0  0  0  0  0  0  0  0  0  0  0
   -2.5260   14.7290    0.7820 C   0  0  0  0  0  0  0  0  0  0  0  0
   -2.6800   14.6370   -0.7740 C   0  0  1  0  0  0  0  0  0  0  0  0
   -3.7490   14.6110    1.3630 N   0  0  0  0  0  0  0  0  0  0  0  0
   -4.1150   14.3560   -0.8270 N   0  0  0  0  0  0  0  0  0  0  0  0
   -4.7060   14.5340    0.4200 C   0  0  0  0  0  0  0  0  0  0  0  0
   -2.3500   15.9130   -1.5220 C   0  0  0  0  0  0  0  0  0  0  0  0
   -1.4110   13.5100   -1.4820 S   0  0  0  0  0  0  0  0  0  0  0  0
   -5.9020   14.6190    0.6680 O   0  0  0  0  0  0  0  0  0  0  0  0
   -5.1060   14.8370   -2.1480 Cl  0  0  0  0  0  0  0  0  0  0  0  0
   -0.6050   14.8240   -2.4810 C   0  0  2  0  0  0  0  0  0  0  0  0
   -1.7520   15.6260   -2.8520 N   0  0  0  0  0  0  0  0  0  0  0  0
    0.2560   14.4250   -3.7120 C   0  0  0  0  0  0  0  0  0  0  0  0
    0.2450   12.9550   -4.1240 C   0  0  0  0  0  0  0  0  0  0  0  0
    0.9300   12.1010   -3.1090 C   0  0  0  0  0  0  0  0  0  0  0  0
    0.3190   10.9130   -2.9560 O   0  0  0  0  0  0  0  0  0  0  0  0
    1.9170   12.3920   -2.4640 O   0  0  0  0  0  0  0  0  0  0  0  0
  1  2  2  0
  3  2  1  0
  2  4  1  0
  3  5  1  0
  4  6  1  0
  5  6  1  0
  3  7  1  6
  3  8  1  0
  6  9  2  0
  5 10  1  0
  8 11  1  0
  7 12  1  0
 11 12  1  0
 11 13  1  6
 13 14  1  0
 14 15  1  0
 15 16  1  0
 15 17  2  0
M  END
