diamond-x0950_0_A-mac-x0347
     RDKit          3D

 19 20  0  0  0  0  0  0  0  0999 V2000
    2.6510   13.0060   -4.6930 C   0  0  0  0  0  0  0  0  0  0  0  0
    1.1720   12.7090   -4.5400 C   0  0  1  0  0  0  0  0  0  0  0  0
    0.7880   11.7410   -5.5120 O   0  0  0  0  0  0  0  0  0  0  0  0
    0.9010   12.2790   -3.0960 C   0  0  0  0  0  0  0  0  0  0  0  0
    0.3760   11.1980   -2.8210 O   0  0  0  0  0  0  0  0  0  0  0  0
    1.3460   13.2410   -2.2280 N   0  0  0  0  0  0  0  0  0  0  0  0
    0.6130   14.2760   -1.9040 C   0  0  0  0  0  0  0  0  0  0  0  0
   -0.7790   14.5610   -2.3450 C   0  0  0  0  0  0  0  0  0  0  0  0
   -1.7580   14.5500   -1.3710 C   0  0  0  0  0  0  0  0  0  0  0  0
   -1.1710   14.8420   -3.6550 C   0  0  0  0  0  0  0  0  0  0  0  0
   -3.0900   14.7960   -1.6670 C   0  0  0  0  0  0  0  0  0  0  0  0
   -2.4700   15.1010   -4.0040 N   0  0  0  0  0  0  0  0  0  0  0  0
   -3.3940   15.0690   -3.0030 C   0  0  0  0  0  0  0  0  0  0  0  0
   -4.0550   14.7470   -0.5750 C   0  0  0  0  0  0  0  0  0  0  0  0
   -3.7310   15.3030    0.6720 C   0  0  0  0  0  0  0  0  0  0  0  0
   -5.3100   14.1400   -0.7320 C   0  0  0  0  0  0  0  0  0  0  0  0
   -4.6300   15.2580    1.7300 C   0  0  0  0  0  0  0  0  0  0  0  0
   -6.2140   14.0930    0.3290 C   0  0  0  0  0  0  0  0  0  0  0  0
   -5.8720   14.6500    1.5560 C   0  0  0  0  0  0  0  0  0  0  0  0
  2  1  1  1
  2  3  1  0
  2  4  1  0
  4  5  2  0
  4  6  1  0
  6  7  2  3
  7  8  1  0
  8  9  2  0
  8 10  1  0
  9 11  1  0
 10 12  2  0
 11 13  2  0
 12 13  1  0
 11 14  1  0
 14 15  2  0
 14 16  1  0
 15 17  1  0
 16 18  2  0
 17 19  2  0
 18 19  1  0
M  END
