diamond-x0438_0_A-mac-x0439
     RDKit          3D

 29 32  0  0  0  0  0  0  0  0999 V2000
   -8.1520   15.5180    3.8390 C   0  0  0  0  0  0  0  0  0  0  0  0
   -9.3420   15.3120    2.5240 S   0  0  0  0  0  0  0  0  0  0  0  0
  -10.5640   14.7800    3.1080 O   0  0  0  0  0  0  0  0  0  0  0  0
   -8.6690   14.0540    1.4470 C   0  0  0  0  0  0  0  0  0  0  0  0
   -9.4230   16.5350    1.7600 O   0  0  0  0  0  0  0  0  0  0  0  0
   -7.3230   14.4090    0.9060 C   0  0  0  0  0  0  0  0  0  0  0  0
   -7.0780   14.5980   -0.4380 N   0  0  0  0  0  0  0  0  0  0  0  0
   -6.2210   14.5750    1.5980 N   0  0  0  0  0  0  0  0  0  0  0  0
   -5.2270   14.8680    0.6910 C   0  0  0  0  0  0  0  0  0  0  0  0
   -5.7390   14.8870   -0.5960 C   0  0  0  0  0  0  0  0  0  0  0  0
   -4.9610   15.1490   -1.7270 C   0  0  0  0  0  0  0  0  0  0  0  0
   -3.8630   15.1270    0.8920 C   0  0  0  0  0  0  0  0  0  0  0  0
   -3.5870   15.3960   -1.5270 C   0  0  0  0  0  0  0  0  0  0  0  0
   -3.0530   15.3880   -0.2250 C   0  0  0  0  0  0  0  0  0  0  0  0
   -2.6840   15.6560   -2.7220 C   0  0  0  0  0  0  0  0  0  0  0  0
   -3.1640   14.9290   -3.9850 C   0  0  0  0  0  0  0  0  0  0  0  0
   -2.9770   15.7070   -5.2960 C   0  0  0  0  0  0  0  0  0  0  0  0
   -1.7010   16.5070   -5.3750 C   0  0  0  0  0  0  0  0  0  0  0  0
   -0.3850   15.8120   -5.1430 C   0  0  2  0  0  0  0  0  0  0  0  0
   -1.6760   17.8230   -5.6870 C   0  0  0  0  0  0  0  0  0  0  0  0
   -0.1040   14.7170   -4.1950 C   0  0  0  0  0  0  0  0  0  0  0  0
    0.6800   16.7640   -4.6980 C   0  0  0  0  0  0  0  0  0  0  0  0
   -0.4270   18.5630   -5.7910 C   0  0  0  0  0  0  0  0  0  0  0  0
    0.9890   15.0430   -3.5080 C   0  0  0  0  0  0  0  0  0  0  0  0
    1.4680   16.2940   -3.8020 N   0  0  0  0  0  0  0  0  0  0  0  0
    0.7460   18.0960   -5.3260 C   0  0  0  0  0  0  0  0  0  0  0  0
    1.5960   14.1180   -2.5270 C   0  0  0  0  0  0  0  0  0  0  0  0
    2.9390   14.2470   -2.4630 O   0  0  0  0  0  0  0  0  0  0  0  0
    0.9960   13.3040   -1.8490 O   0  0  0  0  0  0  0  0  0  0  0  0
  2  1  1  0
  2  3  2  0
  2  4  1  0
  2  5  2  0
  4  6  1  0
  6  7  1  0
  6  8  2  0
  8  9  1  0
  7 10  1  0
  9 10  2  0
 10 11  1  0
  9 12  1  0
 11 13  2  0
 12 14  2  0
 13 14  1  0
 13 15  1  0
 15 16  1  0
 16 17  1  0
 17 18  1  0
 18 19  1  0
 18 20  2  0
 19 21  1  1
 19 22  1  0
 20 23  1  0
 21 24  2  0
 22 25  2  0
 24 25  1  0
 22 26  1  0
 23 26  2  0
 24 27  1  0
 27 28  1  0
 27 29  2  0
M  END
