diamond-x0837_0_A-diamond-x0910_0_A
     RDKit          3D

 13 14  0  0  0  0  0  0  0  0999 V2000
   -8.0040   14.7000    0.0470 O   0  0  0  0  0  0  0  0  0  0  0  0
   -6.7400   14.8190    0.1240 C   0  0  0  0  0  0  0  0  0  0  0  0
   -6.0760   14.7800    1.3850 N   0  0  0  0  0  0  0  0  0  0  0  0
   -5.9030   15.0050   -1.0960 C   0  0  0  0  0  0  0  0  0  0  0  0
   -4.7440   15.2330    1.4550 C   0  0  0  0  0  0  0  0  0  0  0  0
   -4.5560   14.4540   -0.7900 C   0  0  1  0  0  0  0  0  0  0  0  0
   -3.0890   14.7080   -2.2800 I   0  0  0  0  0  0  0  0  0  0  0  0
   -4.0040   15.0840    0.4160 C   0  0  0  0  0  0  0  0  0  0  0  0
   -1.5050   14.7740   -0.9230 C   0  0  0  0  0  0  0  0  0  0  0  0
   -1.6020   14.6580    0.4180 N   0  0  0  0  0  0  0  0  0  0  0  0
   -0.2220   14.9510   -1.1840 N   0  0  0  0  0  0  0  0  0  0  0  0
   -0.4040   14.7700    0.9610 N   0  0  0  0  0  0  0  0  0  0  0  0
    0.4590   14.9580   -0.0420 C   0  0  0  0  0  0  0  0  0  0  0  0
  1  2  2  0
  2  3  1  0
  2  4  1  0
  3  5  1  0
  4  6  1  0
  6  7  1  6
  5  8  2  0
  6  8  1  0
  7  9  1  0
  9 10  2  0
  9 11  1  0
 10 12  1  0
 11 13  2  0
 12 13  1  0
M  END
