diamond-x0837_0_A-mac-x0348
     RDKit          3D

 25 27  0  0  0  0  0  0  0  0999 V2000
   -7.5200   14.8020   -0.1790 O   0  0  0  0  0  0  0  0  0  0  0  0
   -6.2760   14.8560    0.0600 C   0  0  0  0  0  0  0  0  0  0  0  0
   -5.8370   14.8980    1.4060 N   0  0  0  0  0  0  0  0  0  0  0  0
   -5.3430   14.8730   -1.0650 C   0  0  0  0  0  0  0  0  0  0  0  0
   -4.4960   15.3500    1.5890 C   0  0  0  0  0  0  0  0  0  0  0  0
   -3.9760   14.4630   -0.6040 C   0  0  1  0  0  0  0  0  0  0  0  0
   -2.5150   14.6760   -2.0690 I   0  0  0  0  0  0  0  0  0  0  0  0
   -3.6270   15.1400    0.6420 C   0  0  0  0  0  0  0  0  0  0  0  0
   -0.5700   14.5630   -1.1950 C   0  0  0  0  0  0  0  0  0  0  0  0
    0.4630   14.9920   -2.1280 C   0  0  0  0  0  0  0  0  0  0  0  0
    0.5820   14.6600   -3.5220 C   0  0  1  0  0  0  0  0  0  0  0  0
    0.5450   13.2630   -4.0440 C   0  0  0  0  0  0  0  0  0  0  0  0
    0.0130   15.6680   -4.3660 C   0  0  0  0  0  0  0  0  0  0  0  0
    0.7580   12.3060   -2.9500 C   0  0  0  0  0  0  0  0  0  0  0  0
    0.6730   16.7710   -4.8220 C   0  0  0  0  0  0  0  0  0  0  0  0
   -1.2300   15.8070   -4.8940 C   0  0  0  0  0  0  0  0  0  0  0  0
    1.3540   12.6800   -1.8900 O   0  0  0  0  0  0  0  0  0  0  0  0
    0.3740   10.9860   -2.9130 O   0  0  0  0  0  0  0  0  0  0  0  0
   -0.1310   17.5160   -5.5800 N   0  0  0  0  0  0  0  0  0  0  0  0
   -1.3500   16.9440   -5.6390 C   0  0  0  0  0  0  0  0  0  0  0  0
   -2.2990   14.9770   -4.7620 C   0  0  0  0  0  0  0  0  0  0  0  0
    0.2770   18.7460   -6.2260 C   0  0  0  0  0  0  0  0  0  0  0  0
   -3.4710   15.2800   -5.3590 C   0  0  0  0  0  0  0  0  0  0  0  0
   -2.5140   17.2770   -6.2480 C   0  0  0  0  0  0  0  0  0  0  0  0
   -3.6050   16.4040   -6.0940 C   0  0  0  0  0  0  0  0  0  0  0  0
  1  2  2  0
  2  3  1  0
  2  4  1  0
  3  5  1  0
  4  6  1  0
  6  7  1  6
  5  8  2  0
  6  8  1  0
  7  9  1  0
  9 10  1  0
 11 10  1  1
 11 12  1  0
 11 13  1  0
 12 14  1  0
 13 15  2  0
 13 16  1  0
 14 17  2  0
 14 18  1  0
 15 19  1  0
 16 20  2  0
 19 20  1  0
 16 21  1  0
 19 22  1  0
 21 23  2  0
 20 24  1  0
 23 25  1  0
 24 25  2  0
M  END
