diamond-x0253_0_A-mac-x0565
     RDKit          3D

 27 29  0  0  0  0  0  0  0  0999 V2000
    0.5770   11.7980   -5.2760 N   0  0  0  0  0  0  0  0  0  0  0  0
    1.1320   11.6850   -6.5200 C   0  0  0  0  0  0  0  0  0  0  0  0
    2.1490   12.2810   -6.7560 O   0  0  0  0  0  0  0  0  0  0  0  0
    1.4470   12.2490   -4.1940 C   0  0  0  0  0  0  0  0  0  0  0  0
    0.5720   12.4680   -2.9950 C   0  0  0  0  0  0  0  0  0  0  0  0
    0.4710   10.7730   -7.5160 C   0  0  0  0  0  0  0  0  0  0  0  0
    0.4340   13.5900   -2.4180 N   0  0  0  0  0  0  0  0  0  0  0  0
   -0.1170   11.3840   -2.5640 O   0  0  0  0  0  0  0  0  0  0  0  0
   -0.5190    9.8710   -7.1150 C   0  0  0  0  0  0  0  0  0  0  0  0
    0.8440   10.8080   -8.8710 C   0  0  0  0  0  0  0  0  0  0  0  0
   -0.4870   13.8530   -1.3270 C   0  0  0  0  0  0  0  0  0  0  0  0
   -1.1310    9.0170   -8.0460 C   0  0  0  0  0  0  0  0  0  0  0  0
    0.2440    9.9650   -9.7980 C   0  0  0  0  0  0  0  0  0  0  0  0
   -2.1910    8.0520   -7.6130 C   0  0  0  0  0  0  0  0  0  0  0  0
   -0.7400    9.0730   -9.3910 C   0  0  0  0  0  0  0  0  0  0  0  0
   -1.2440   15.0520   -1.6750 N   0  0  0  0  0  0  0  0  0  0  0  0
   -2.6450   15.0210   -1.8390 C   0  0  0  0  0  0  0  0  0  0  0  0
   -0.9120   15.6100   -2.9940 C   0  0  0  0  0  0  0  0  0  0  0  0
   -3.6660   14.9840   -0.8980 C   0  0  0  0  0  0  0  0  0  0  0  0
   -2.9690   15.0400   -3.1920 C   0  0  0  0  0  0  0  0  0  0  0  0
   -1.8490   15.0910   -3.9710 O   0  0  0  0  0  0  0  0  0  0  0  0
   -5.0040   14.9650   -1.3540 C   0  0  0  0  0  0  0  0  0  0  0  0
   -4.2590   15.0160   -3.6670 C   0  0  0  0  0  0  0  0  0  0  0  0
   -6.1090   14.9290   -0.3620 C   0  0  0  0  0  0  0  0  0  0  0  0
   -5.2890   14.9790   -2.7290 C   0  0  0  0  0  0  0  0  0  0  0  0
   -5.6980   14.9650    0.9140 O   0  0  0  0  0  0  0  0  0  0  0  0
   -7.2960   14.8670   -0.6250 O   0  0  0  0  0  0  0  0  0  0  0  0
  1  2  1  0
  2  3  2  0
  1  4  1  0
  4  5  1  0
  2  6  1  0
  5  7  2  3
  5  8  1  0
  6  9  2  0
  6 10  1  0
  7 11  1  0
  9 12  1  0
 10 13  2  0
 12 14  1  0
 12 15  2  0
 13 15  1  0
 11 16  1  0
 16 17  1  0
 16 18  1  0
 17 19  2  0
 17 20  1  0
 18 21  1  0
 20 21  1  0
 19 22  1  0
 20 23  2  0
 22 24  1  0
 22 25  2  0
 23 25  1  0
 24 26  1  0
 24 27  2  0
M  END
