diamond-x0900_0_A-mac-x0394
     RDKit          3D

 21 22  0  0  0  0  0  0  0  0999 V2000
   -6.9340   15.0740   -0.6790 O   0  0  0  0  0  0  0  0  0  0  0  0
   -5.8050   14.9050   -0.2460 C   0  0  0  0  0  0  0  0  0  0  0  0
   -4.6200   14.8200   -0.9750 N   0  0  0  0  0  0  0  0  0  0  0  0
   -5.4320   14.7350    1.2010 C   0  0  0  0  0  0  0  0  0  0  0  0
   -4.5570   14.0130   -2.1720 C   0  0  0  0  0  0  0  0  0  0  0  0
   -4.0520   15.3650    1.2190 C   0  0  0  0  0  0  0  0  0  0  0  0
   -3.4820   14.8490   -0.0820 C   0  0  0  0  0  0  0  0  0  0  0  0
   -4.6630   14.8240   -3.4490 C   0  0  0  0  0  0  0  0  0  0  0  0
   -3.8740   14.2700   -4.6310 C   0  0  0  0  0  0  0  0  0  0  0  0
   -3.1880   15.3490   -5.4610 C   0  0  0  0  0  0  0  0  0  0  0  0
   -1.7150   15.4420   -5.1610 C   0  0  0  0  0  0  0  0  0  0  0  0
   -0.9580   14.3010   -4.8590 C   0  0  0  0  0  0  0  0  0  0  0  0
   -1.0860   16.6840   -5.1910 C   0  0  0  0  0  0  0  0  0  0  0  0
    0.4170   14.3920   -4.5890 C   0  0  0  0  0  0  0  0  0  0  0  0
    0.2670   16.7710   -4.9270 C   0  0  0  0  0  0  0  0  0  0  0  0
    0.9920   18.3040   -4.9870 Cl  0  0  0  0  0  0  0  0  0  0  0  0
    1.2220   13.1560   -4.2650 C   0  0  0  0  0  0  0  0  0  0  0  0
    1.0270   15.6480   -4.6250 C   0  0  0  0  0  0  0  0  0  0  0  0
    0.7870   12.4940   -2.9790 C   0  0  0  0  0  0  0  0  0  0  0  0
    0.1730   11.3110   -3.2020 O   0  0  0  0  0  0  0  0  0  0  0  0
    0.9250   12.8970   -1.8390 O   0  0  0  0  0  0  0  0  0  0  0  0
  1  2  2  0
  2  3  1  0
  2  4  1  0
  3  5  1  0
  4  6  1  0
  3  7  1  0
  6  7  1  0
  5  8  1  0
  8  9  1  0
  9 10  1  0
 10 11  1  0
 11 12  2  0
 11 13  1  0
 12 14  1  0
 13 15  2  0
 15 16  1  0
 14 17  1  0
 14 18  2  0
 15 18  1  0
 17 19  1  0
 19 20  1  0
 19 21  2  0
M  END
