diamond-x0290_0_A-mac-x0564
     RDKit          3D

 27 30  0  0  0  0  0  0  0  0999 V2000
   -7.8100   13.7920    0.8770 N   0  0  0  0  0  0  0  0  0  0  0  0
   -8.6150   15.0010    0.6990 C   0  0  0  0  0  0  0  0  0  0  0  0
   -6.6270   14.0330    1.7380 C   0  0  0  0  0  0  0  0  0  0  0  0
   -5.3170   14.1130    0.9370 C   0  0  0  0  0  0  0  0  0  0  0  0
   -5.3010   13.7780   -0.2410 O   0  0  0  0  0  0  0  0  0  0  0  0
   -4.2520   14.5600    1.6890 N   0  0  0  0  0  0  0  0  0  0  0  0
   -2.9080   14.5410    1.3160 C   0  0  0  0  0  0  0  0  0  0  0  0
   -2.0010   14.2460    2.2470 N   0  0  0  0  0  0  0  0  0  0  0  0
   -2.4680   14.7910    0.0860 C   0  0  0  0  0  0  0  0  0  0  0  0
   -0.6770   14.1780    1.9540 C   0  0  0  0  0  0  0  0  0  0  0  0
   -1.1090   14.7190   -0.1240 C   0  0  0  0  0  0  0  0  0  0  0  0
   -0.5520   14.9530   -1.3470 C   0  0  0  0  0  0  0  0  0  0  0  0
   -0.2160   14.4190    0.7700 C   0  0  0  0  0  0  0  0  0  0  0  0
   -1.6510   14.8460   -2.1850 C   0  0  0  0  0  0  0  0  0  0  0  0
   -1.3620   14.3940   -3.2670 C   0  0  0  0  0  0  0  0  0  0  0  0
   -3.0930   15.1110   -2.0180 C   0  0  0  0  0  0  0  0  0  0  0  0
   -0.0470   13.9960   -3.6910 C   0  0  0  0  0  0  0  0  0  0  0  0
   -2.5210   14.3060   -4.0640 C   0  0  0  0  0  0  0  0  0  0  0  0
   -3.9080   15.5960   -0.9820 C   0  0  0  0  0  0  0  0  0  0  0  0
   -3.6530   14.7480   -3.2270 C   0  0  0  0  0  0  0  0  0  0  0  0
    0.9190   14.0110   -2.9210 O   0  0  0  0  0  0  0  0  0  0  0  0
   -2.4240   13.9070   -5.2630 N   0  0  0  0  0  0  0  0  0  0  0  0
   -0.0220   13.6080   -4.9680 N   0  0  0  0  0  0  0  0  0  0  0  0
   -5.0060   14.8300   -3.4730 C   0  0  0  0  0  0  0  0  0  0  0  0
   -5.2830   15.6920   -1.2110 C   0  0  0  0  0  0  0  0  0  0  0  0
   -1.1250   13.5760   -5.6550 C   0  0  0  0  0  0  0  0  0  0  0  0
   -5.8270   15.3090   -2.4440 C   0  0  0  0  0  0  0  0  0  0  0  0
  1  2  1  0
  1  3  1  0
  3  4  1  0
  4  5  2  0
  4  6  1  0
  6  7  1  0
  7  8  2  0
  7  9  1  0
  8 10  1  0
  9 11  2  0
 11 12  1  0
 10 13  2  0
 11 13  1  0
 12 14  1  0
 14 15  2  0
 14 16  1  0
 15 17  1  0
 15 18  1  0
 16 19  1  0
 16 20  2  0
 18 20  1  0
 17 21  2  0
 18 22  2  0
 17 23  1  0
 20 24  1  0
 19 25  2  0
 22 26  1  0
 23 26  2  0
 24 27  2  0
 25 27  1  0
M  END
