diamond-x1015_0_A-diamond-x0681_0_A
     RDKit          3D

 26 29  0  0  0  0  0  0  0  0999 V2000
   -2.0470   14.4510   -3.4200 C   0  0  0  0  0  0  0  0  0  0  0  0
   -3.1280   14.7180   -2.5370 C   0  0  0  0  0  0  0  0  0  0  0  0
   -4.1640   15.4100   -3.1380 N   0  0  0  0  0  0  0  0  0  0  0  0
   -0.6540   13.7780   -3.4560 C   0  0  2  0  0  0  0  0  0  0  0  0
   -0.6130   12.3030   -3.5740 N   0  0  0  0  0  0  0  0  0  0  0  0
    0.1490   13.9990   -2.1850 C   0  0  0  0  0  0  0  0  0  0  0  0
   -3.5900   14.4880   -1.0390 C   0  0  1  0  0  0  0  0  0  0  0  0
    0.3130   15.0480   -1.5870 O   0  0  0  0  0  0  0  0  0  0  0  0
    0.1360   11.7840   -2.5050 C   0  0  0  0  0  0  0  0  0  0  0  0
    0.6950   12.8160   -1.8190 N   0  0  0  0  0  0  0  0  0  0  0  0
   -0.7980   11.5600   -4.7930 C   0  0  0  0  0  0  0  0  0  0  0  0
   -4.6430   13.4350   -0.8020 C   0  0  0  0  0  0  0  0  0  0  0  0
   -2.6370   14.5150    0.1650 C   0  0  0  0  0  0  0  0  0  0  0  0
    0.3110   10.6120   -2.1730 O   0  0  0  0  0  0  0  0  0  0  0  0
   -0.1310   11.8440   -6.0040 C   0  0  0  0  0  0  0  0  0  0  0  0
   -1.6870   10.4750   -4.7990 C   0  0  0  0  0  0  0  0  0  0  0  0
   -5.1120   13.1990    0.4520 N   0  0  0  0  0  0  0  0  0  0  0  0
   -3.4730   14.8430    1.4270 C   0  0  0  0  0  0  0  0  0  0  0  0
   -5.2410   12.6410   -1.6660 N   0  0  0  0  0  0  0  0  0  0  0  0
   -0.3540   11.0680   -7.1600 C   0  0  0  0  0  0  0  0  0  0  0  0
   -1.9140    9.7030   -5.9430 C   0  0  0  0  0  0  0  0  0  0  0  0
   -4.6600   13.8850    1.6320 C   0  0  0  0  0  0  0  0  0  0  0  0
   -6.0550   12.2190    0.3980 C   0  0  0  0  0  0  0  0  0  0  0  0
   -6.1210   11.8840   -0.9310 C   0  0  0  0  0  0  0  0  0  0  0  0
   -1.2460   10.0010   -7.1220 C   0  0  0  0  0  0  0  0  0  0  0  0
   -1.5390    9.0430   -8.5210 Cl  0  0  0  0  0  0  0  0  0  0  0  0
  1  2  2  3
  2  3  1  0
  4  1  1  1
  4  5  1  0
  4  6  1  0
  7  2  1  6
  6  8  2  0
  5  9  1  0
  6 10  1  0
  9 10  1  0
  5 11  1  0
  7 12  1  0
  7 13  1  0
  9 14  2  0
 11 15  2  0
 11 16  1  0
 12 17  1  0
 13 18  1  0
 12 19  2  0
 15 20  1  0
 16 21  2  0
 17 22  1  0
 18 22  1  0
 17 23  1  0
 19 24  1  0
 23 24  2  0
 20 25  2  0
 21 25  1  0
 25 26  1  0
M  END
