diamond-x0685_1_A-mac-x0328
     RDKit          3D

 22 23  0  0  0  0  0  0  0  0999 V2000
   -1.2350   10.7780   -5.0550 N   0  0  0  0  0  0  0  0  0  0  0  0
   -1.2000   12.2440   -4.9040 C   0  0  0  0  0  0  0  0  0  0  0  0
    0.1990   12.7070   -4.4930 C   0  0  0  0  0  0  0  0  0  0  0  0
   -0.7560   10.3350   -6.3660 C   0  0  0  0  0  0  0  0  0  0  0  0
   -0.5470    8.8160   -6.4810 C   0  0  0  0  0  0  0  0  0  0  0  0
   -1.5830   10.9220   -7.5260 C   0  0  0  0  0  0  0  0  0  0  0  0
    0.3290   12.5860   -2.7530 S   0  0  0  0  0  0  0  0  0  0  0  0
    0.1240    8.5130   -7.8130 C   0  0  0  0  0  0  0  0  0  0  0  0
   -1.0090   10.5600   -8.8880 C   0  0  0  0  0  0  0  0  0  0  0  0
    1.6790   13.3110   -2.3010 O   0  0  0  0  0  0  0  0  0  0  0  0
    0.4680   11.0350   -2.4070 O   0  0  0  0  0  0  0  0  0  0  0  0
   -0.9490   13.1310   -1.9800 N   0  0  0  0  0  0  0  0  0  0  0  0
   -0.6880    9.0650   -8.9910 C   0  0  0  0  0  0  0  0  0  0  0  0
   -1.8220   14.0110   -2.4340 C   0  0  0  0  0  0  0  0  0  0  0  0
   -1.5970   14.5850   -3.6350 O   0  0  0  0  0  0  0  0  0  0  0  0
   -3.1190   14.4770   -1.8890 C   0  0  0  0  0  0  0  0  0  0  0  0
   -3.3480   14.6350   -0.5110 C   0  0  0  0  0  0  0  0  0  0  0  0
   -4.1530   14.7360   -2.8040 C   0  0  0  0  0  0  0  0  0  0  0  0
   -4.6210   15.0310   -0.0650 C   0  0  0  0  0  0  0  0  0  0  0  0
   -5.4130   15.1280   -2.3540 C   0  0  0  0  0  0  0  0  0  0  0  0
   -5.6400   15.2640   -0.9940 C   0  0  0  0  0  0  0  0  0  0  0  0
   -6.8720   15.6240   -0.5490 O   0  0  0  0  0  0  0  0  0  0  0  0
  1  2  1  0
  2  3  1  0
  1  4  1  0
  4  5  1  0
  4  6  1  0
  3  7  1  0
  5  8  1  0
  6  9  1  0
  7 10  1  0
  7 11  1  0
  7 12  1  0
  8 13  1  0
  9 13  1  0
 12 14  2  3
 14 15  1  0
 14 16  1  0
 16 17  2  0
 16 18  1  0
 17 19  1  0
 18 20  2  0
 19 21  2  0
 20 21  1  0
 21 22  1  0
M  END
