diamond-x0844_0_A-diamond-x0855_0_A
     RDKit          3D

 21 22  0  0  0  0  0  0  0  0999 V2000
   -7.4380   14.8840   -0.0950 O   0  0  0  0  0  0  0  0  0  0  0  0
   -6.2090   14.8840   -0.1560 C   0  0  0  0  0  0  0  0  0  0  0  0
   -5.4460   14.8590    0.9870 N   0  0  0  0  0  0  0  0  0  0  0  0
   -5.4720   14.9080   -1.4780 C   0  0  0  0  0  0  0  0  0  0  0  0
   -4.0860   14.7460    1.0070 C   0  0  0  0  0  0  0  0  0  0  0  0
   -4.0050   15.3290   -1.3930 C   0  0  2  0  0  0  0  0  0  0  0  0
   -3.2990   14.7430   -2.5160 O   0  0  0  0  0  0  0  0  0  0  0  0
   -3.3630   14.9540   -0.0900 C   0  0  0  0  0  0  0  0  0  0  0  0
   -1.8650   14.6420   -2.4430 C   0  0  0  0  0  0  0  0  0  0  0  0
   -1.1920   15.1090   -3.7560 C   0  0  0  0  0  0  0  0  0  0  0  0
   -0.1760   14.1290   -4.3820 C   0  0  0  0  0  0  0  0  0  0  0  0
   -0.3640   12.6840   -3.8930 C   0  0  2  0  0  0  0  0  0  0  0  0
    0.7950   12.0630   -3.1660 C   0  0  0  0  0  0  0  0  0  0  0  0
   -0.9630   11.7270   -4.7940 N   0  0  0  0  0  0  0  0  0  0  0  0
    1.8420   12.8900   -2.9690 O   0  0  0  0  0  0  0  0  0  0  0  0
    0.8330   10.9260   -2.7450 O   0  0  0  0  0  0  0  0  0  0  0  0
   -0.3960   10.9240   -5.7500 C   0  0  0  0  0  0  0  0  0  0  0  0
   -2.2940   11.5690   -4.6940 N   0  0  0  0  0  0  0  0  0  0  0  0
   -1.4420   10.2040   -6.2700 C   0  0  0  0  0  0  0  0  0  0  0  0
   -2.5810   10.6410   -5.5920 C   0  0  0  0  0  0  0  0  0  0  0  0
   -1.4420    8.8990   -7.5930 Br  0  0  0  0  0  0  0  0  0  0  0  0
  1  2  2  0
  2  3  1  0
  2  4  1  0
  3  5  1  0
  4  6  1  0
  6  7  1  6
  5  8  2  0
  6  8  1  0
  7  9  1  0
  9 10  1  0
 10 11  1  0
 12 11  1  6
 12 13  1  0
 12 14  1  0
 13 15  1  0
 13 16  2  0
 14 17  1  0
 14 18  1  0
 17 19  2  0
 18 20  2  0
 19 20  1  0
 19 21  1  0
M  END
