diamond-x0685_1_A-diamond-x0681_0_A
     RDKit          3D

 27 29  0  0  0  0  0  0  0  0999 V2000
   -0.9590   10.5440   -4.8130 N   0  0  0  0  0  0  0  0  0  0  0  0
   -1.4090   11.8940   -4.4470 C   0  0  0  0  0  0  0  0  0  0  0  0
   -0.2210   12.7360   -3.9890 C   0  0  0  0  0  0  0  0  0  0  0  0
   -1.2380   10.1060   -6.1910 C   0  0  0  0  0  0  0  0  0  0  0  0
   -0.5930    8.7290   -6.4690 C   0  0  0  0  0  0  0  0  0  0  0  0
   -1.0040   11.1620   -7.2980 C   0  0  0  0  0  0  0  0  0  0  0  0
    0.6860   11.9860   -2.6330 S   0  0  0  0  0  0  0  0  0  0  0  0
    0.1770    8.7380   -7.7820 C   0  0  0  0  0  0  0  0  0  0  0  0
   -1.2670   10.6400   -8.7110 C   0  0  0  0  0  0  0  0  0  0  0  0
    2.2360   12.2540   -2.9650 O   0  0  0  0  0  0  0  0  0  0  0  0
    0.3550   10.4080   -2.6110 O   0  0  0  0  0  0  0  0  0  0  0  0
    0.2290   12.6640   -1.2520 O   0  0  0  0  0  0  0  0  0  0  0  0
   -0.7110    9.2270   -8.9280 C   0  0  0  0  0  0  0  0  0  0  0  0
    0.0760   14.0700   -1.1490 C   0  0  0  0  0  0  0  0  0  0  0  0
   -1.3720   14.3840   -0.7720 C   0  0  0  0  0  0  0  0  0  0  0  0
   -2.1320   14.7630   -1.9730 N   0  0  0  0  0  0  0  0  0  0  0  0
   -3.3920   15.0530   -1.8930 C   0  0  0  0  0  0  0  0  0  0  0  0
   -3.9710   15.3990   -3.0780 N   0  0  0  0  0  0  0  0  0  0  0  0
   -4.2840   15.0520   -0.6510 C   0  0  1  0  0  0  0  0  0  0  0  0
   -4.9800   13.7330   -0.5190 C   0  0  0  0  0  0  0  0  0  0  0  0
   -3.6460   15.5500    0.6590 C   0  0  0  0  0  0  0  0  0  0  0  0
   -5.6500   13.4670    0.6140 N   0  0  0  0  0  0  0  0  0  0  0  0
   -4.3040   15.0050    1.9240 C   0  0  0  0  0  0  0  0  0  0  0  0
   -5.0690   12.7210   -1.3590 N   0  0  0  0  0  0  0  0  0  0  0  0
   -5.6960   14.4140    1.6770 C   0  0  0  0  0  0  0  0  0  0  0  0
   -6.2200   12.2390    0.5310 C   0  0  0  0  0  0  0  0  0  0  0  0
   -5.8390   11.7850   -0.7130 C   0  0  0  0  0  0  0  0  0  0  0  0
  1  2  1  0
  2  3  1  0
  1  4  1  0
  4  5  1  0
  4  6  1  0
  3  7  1  0
  5  8  1  0
  6  9  1  0
  7 10  1  0
  7 11  1  0
  7 12  1  0
  8 13  1  0
  9 13  1  0
 12 14  1  0
 14 15  1  0
 15 16  1  0
 16 17  2  3
 17 18  1  0
 19 17  1  6
 19 20  1  0
 19 21  1  0
 20 22  1  0
 21 23  1  0
 20 24  2  0
 22 25  1  0
 23 25  1  0
 22 26  1  0
 24 27  1  0
 26 27  2  0
M  END
