diamond-x0962_2_B-diamond-x0905_0_A
     RDKit          3D

 16 17  0  0  0  0  0  0  0  0999 V2000
  -10.2710   16.8630    1.1190 N   0  0  0  0  0  0  0  0  0  0  0  0
   -9.8620   15.4980    1.4310 C   0  0  1  0  0  0  0  0  0  0  0  0
   -9.1300   14.7800    0.2650 C   0  0  0  0  0  0  0  0  0  0  0  0
   -9.1510   15.3620    2.7360 C   0  0  0  0  0  0  0  0  0  0  0  0
   -8.3290   15.5680   -0.7910 C   0  0  0  0  0  0  0  0  0  0  0  0
   -9.1120   16.3150    3.7350 N   0  0  0  0  0  0  0  0  0  0  0  0
   -8.4040   14.3230    3.2470 C   0  0  0  0  0  0  0  0  0  0  0  0
   -7.2060   14.8110   -1.2600 O   0  0  0  0  0  0  0  0  0  0  0  0
   -8.3630   15.8170    4.7630 C   0  0  0  0  0  0  0  0  0  0  0  0
   -7.9290   14.6090    4.4940 N   0  0  0  0  0  0  0  0  0  0  0  0
   -5.9170   14.9770   -0.7650 C   0  0  0  0  0  0  0  0  0  0  0  0
   -5.6350   14.9290    0.5590 N   0  0  0  0  0  0  0  0  0  0  0  0
   -4.9510   15.1760   -1.7340 C   0  0  0  0  0  0  0  0  0  0  0  0
   -4.3390   15.0840    0.9140 C   0  0  0  0  0  0  0  0  0  0  0  0
   -3.6310   15.3290   -1.3360 C   0  0  0  0  0  0  0  0  0  0  0  0
   -3.3150   15.2790    0.0150 C   0  0  0  0  0  0  0  0  0  0  0  0
  2  1  1  6
  2  3  1  0
  2  4  1  0
  3  5  1  0
  4  6  1  0
  4  7  2  0
  5  8  1  0
  6  9  1  0
  7 10  1  0
  9 10  2  0
  8 11  1  0
 11 12  2  0
 11 13  1  0
 12 14  1  0
 13 15  2  0
 14 16  2  0
 15 16  1  0
M  END
