diamond-x0128_0_A-mac-x0347
     RDKit          3D

 24 26  0  0  0  0  0  0  0  0999 V2000
   -6.1700   14.7930    2.2050 N   0  0  0  0  0  0  0  0  0  0  0  0
   -7.4390   15.1470    2.7590 C   0  0  0  0  0  0  0  0  0  0  0  0
   -8.4540   15.2680    2.0790 O   0  0  0  0  0  0  0  0  0  0  0  0
   -5.5940   15.0450    0.8390 C   0  0  2  0  0  0  0  0  0  0  0  0
   -7.3720   15.3470    4.1570 N   0  0  0  0  0  0  0  0  0  0  0  0
   -6.5420   14.5130   -0.1860 C   0  0  0  0  0  0  0  0  0  0  0  0
   -4.1220   14.6220    0.6190 C   0  0  0  0  0  0  0  0  0  0  0  0
   -6.1350   13.7340   -1.1940 C   0  0  0  0  0  0  0  0  0  0  0  0
   -3.6900   14.3710   -0.8900 C   0  0  2  0  0  0  0  0  0  0  0  0
   -8.2720   16.0690    5.0260 C   0  0  0  0  0  0  0  0  0  0  0  0
   -4.6940   13.3110   -1.3830 C   0  0  0  0  0  0  0  0  0  0  0  0
   -9.0410   17.1880    4.6880 C   0  0  0  0  0  0  0  0  0  0  0  0
   -8.4010   15.6240    6.3530 C   0  0  0  0  0  0  0  0  0  0  0  0
   -2.1550   13.9900   -0.9780 C   0  0  0  0  0  0  0  0  0  0  0  0
   -3.9060   15.4980   -1.9290 C   0  0  0  0  0  0  0  0  0  0  0  0
   -9.8760   17.8480    5.5400 N   0  0  0  0  0  0  0  0  0  0  0  0
   -9.2530   16.2900    7.2470 C   0  0  0  0  0  0  0  0  0  0  0  0
   -1.5000   13.8220   -2.3830 C   0  0  2  0  0  0  0  0  0  0  0  0
   -3.4100   15.1750   -3.2940 N   0  0  0  0  0  0  0  0  0  0  0  0
    0.0250   13.8820   -2.2980 C   0  0  0  0  0  0  0  0  0  0  0  0
   -9.9610   17.3870    6.7970 C   0  0  0  0  0  0  0  0  0  0  0  0
   -1.9820   14.8370   -3.4180 C   0  0  0  0  0  0  0  0  0  0  0  0
    0.6300   14.2770   -3.4370 O   0  0  0  0  0  0  0  0  0  0  0  0
    0.7150   13.6070   -1.3330 O   0  0  0  0  0  0  0  0  0  0  0  0
  1  2  1  0
  2  3  2  0
  4  1  1  1
  2  5  1  0
  4  6  1  0
  4  7  1  0
  6  8  2  0
  9  7  1  1
  5 10  1  0
  8 11  1  0
  9 11  1  0
 10 12  2  0
 10 13  1  0
  9 14  1  0
  9 15  1  0
 12 16  1  0
 13 17  2  0
 14 18  1  0
 15 19  1  0
 18 20  1  1
 16 21  2  0
 17 21  1  0
 18 22  1  0
 19 22  1  0
 20 23  1  0
 20 24  2  0
M  END
