diamond-x0438_0_A-diamond-x0471_0_A
     RDKit          3D

 18 19  0  0  0  0  0  0  0  0999 V2000
   -8.4520   15.6070    3.9830 C   0  0  0  0  0  0  0  0  0  0  0  0
   -9.4950   15.4210    2.5320 S   0  0  0  0  0  0  0  0  0  0  0  0
  -10.8010   14.9880    2.9940 O   0  0  0  0  0  0  0  0  0  0  0  0
   -9.1200   15.0910    5.2800 C   0  0  0  0  0  0  0  0  0  0  0  0
   -8.7560   14.0060    1.6310 C   0  0  2  0  0  0  0  0  0  0  0  0
   -9.4210   16.5940    1.6940 O   0  0  0  0  0  0  0  0  0  0  0  0
   -9.6860   13.6710    5.1890 C   0  0  0  0  0  0  0  0  0  0  0  0
   -8.1190   15.1710    6.4240 C   0  0  0  0  0  0  0  0  0  0  0  0
   -8.5570   12.8130    2.4800 N   0  0  0  0  0  0  0  0  0  0  0  0
   -7.4310   14.3540    0.9930 C   0  0  0  0  0  0  0  0  0  0  0  0
   -7.2600   14.7450   -0.3200 N   0  0  0  0  0  0  0  0  0  0  0  0
   -6.2750   14.3150    1.6130 N   0  0  0  0  0  0  0  0  0  0  0  0
   -5.3270   14.6730    0.6970 C   0  0  0  0  0  0  0  0  0  0  0  0
   -5.9130   14.9520   -0.5300 C   0  0  0  0  0  0  0  0  0  0  0  0
   -5.1810   15.3420   -1.6480 C   0  0  0  0  0  0  0  0  0  0  0  0
   -3.9400   14.7770    0.8470 C   0  0  0  0  0  0  0  0  0  0  0  0
   -3.7950   15.4350   -1.4820 C   0  0  0  0  0  0  0  0  0  0  0  0
   -3.1840   15.1570   -0.2560 C   0  0  0  0  0  0  0  0  0  0  0  0
  2  1  1  0
  2  3  2  0
  1  4  1  0
  2  5  1  0
  2  6  2  0
  4  7  1  0
  4  8  1  0
  5  9  1  1
  5 10  1  0
 10 11  1  0
 10 12  2  0
 12 13  1  0
 11 14  1  0
 13 14  2  0
 14 15  1  0
 13 16  1  0
 15 17  2  0
 16 18  2  0
 17 18  1  0
M  END
