diamond-x0290_0_A-mac-x0360
     RDKit          3D

 21 23  0  0  0  0  0  0  0  0999 V2000
   -7.5940   14.5260    0.8890 N   0  0  0  0  0  0  0  0  0  0  0  0
   -8.7840   15.1970    1.3990 C   0  0  0  0  0  0  0  0  0  0  0  0
   -6.4150   14.6710    1.7830 C   0  0  0  0  0  0  0  0  0  0  0  0
   -5.1200   14.7010    0.9080 C   0  0  0  0  0  0  0  0  0  0  0  0
   -5.4040   14.5930   -0.3230 N   0  0  0  0  0  0  0  0  0  0  0  0
   -3.8890   14.7460    1.5360 N   0  0  0  0  0  0  0  0  0  0  0  0
   -4.5190   14.3630   -1.6150 S   0  0  1  0  0  0  0  0  0  0  0  0
   -2.7530   14.0960    0.9280 C   0  0  2  0  0  0  0  0  0  0  0  0
   -2.7800   14.3380   -1.6140 C   0  0  0  0  0  0  0  0  0  0  0  0
   -1.6210   14.1780    1.8320 N   0  0  0  0  0  0  0  0  0  0  0  0
   -2.2010   14.7470   -0.3240 C   0  0  2  0  0  0  0  0  0  0  0  0
   -5.0630   12.7520   -1.3810 C   0  0  0  0  0  0  0  0  0  0  0  0
   -0.4820   14.5370    1.1680 C   0  0  0  0  0  0  0  0  0  0  0  0
   -0.7140   14.8710   -0.0920 C   0  0  0  0  0  0  0  0  0  0  0  0
   -4.7070   11.6860   -2.1520 C   0  0  0  0  0  0  0  0  0  0  0  0
   -5.9380   12.6280   -0.2910 C   0  0  0  0  0  0  0  0  0  0  0  0
   -5.2610   10.4620   -1.8270 C   0  0  0  0  0  0  0  0  0  0  0  0
   -6.4800   11.4060    0.0210 C   0  0  0  0  0  0  0  0  0  0  0  0
   -7.5620   11.2530    1.3610 Cl  0  0  0  0  0  0  0  0  0  0  0  0
   -4.8460    9.0950   -2.7730 Cl  0  0  0  0  0  0  0  0  0  0  0  0
   -6.1470   10.3090   -0.7550 C   0  0  0  0  0  0  0  0  0  0  0  0
  1  2  1  0
  1  3  1  0
  3  4  1  0
  4  5  2  0
  4  6  1  0
  5  7  1  0
  8  6  1  1
  7  9  1  0
  8 10  1  0
  8 11  1  0
 11  9  1  6
  7 12  1  1
 10 13  1  0
 11 14  1  0
 13 14  2  0
 12 15  2  0
 12 16  1  0
 15 17  1  0
 16 18  2  0
 18 19  1  0
 17 20  1  0
 17 21  2  0
 18 21  1  0
M  END
