diamond-x0587_0_A-mac-x0284
     RDKit          3D

 22 23  0  0  0  0  0  0  0  0999 V2000
   -7.6090   14.9180    4.2880 N   0  0  0  0  0  0  0  0  0  0  0  0
   -8.3100   14.9990    3.1290 C   0  0  0  0  0  0  0  0  0  0  0  0
   -9.5130   15.2390    3.1180 O   0  0  0  0  0  0  0  0  0  0  0  0
   -7.6020   14.8030    1.8710 C   0  0  0  0  0  0  0  0  0  0  0  0
   -8.2750   14.5930    0.7070 C   0  0  0  0  0  0  0  0  0  0  0  0
   -6.2190   14.8250    1.7780 C   0  0  0  0  0  0  0  0  0  0  0  0
   -7.6820   14.4230   -0.4680 N   0  0  0  0  0  0  0  0  0  0  0  0
   -5.5580   14.6570    0.6110 N   0  0  0  0  0  0  0  0  0  0  0  0
   -6.3460   14.4650   -0.4790 C   0  0  0  0  0  0  0  0  0  0  0  0
   -5.7660   14.2900   -1.8460 C   0  0  2  0  0  0  0  0  0  0  0  0
   -4.8390   13.2870   -1.9370 F   0  0  0  0  0  0  0  0  0  0  0  0
   -5.1360   15.5000   -2.1520 O   0  0  0  0  0  0  0  0  0  0  0  0
   -3.8540   15.2430   -2.0850 C   0  0  0  0  0  0  0  0  0  0  0  0
   -3.1250   15.0640   -0.9220 C   0  0  0  0  0  0  0  0  0  0  0  0
   -3.2830   15.1420   -3.3330 C   0  0  0  0  0  0  0  0  0  0  0  0
   -1.7720   14.7720   -1.0240 C   0  0  0  0  0  0  0  0  0  0  0  0
   -1.9430   14.8530   -3.4400 C   0  0  0  0  0  0  0  0  0  0  0  0
   -1.3920   14.7530   -4.6910 O   0  0  0  0  0  0  0  0  0  0  0  0
   -1.1720   14.6660   -2.2880 C   0  0  0  0  0  0  0  0  0  0  0  0
    0.2730   14.3580   -2.3170 C   0  0  0  0  0  0  0  0  0  0  0  0
    0.9770   14.4380   -1.3290 O   0  0  0  0  0  0  0  0  0  0  0  0
    0.7430   13.9840   -3.5210 O   0  0  0  0  0  0  0  0  0  0  0  0
  1  2  1  0
  2  3  2  0
  2  4  1  0
  4  5  2  0
  4  6  1  0
  5  7  1  0
  6  8  2  0
  7  9  2  0
  8  9  1  0
  9 10  1  0
 10 11  1  1
 10 12  1  0
 12 13  1  0
 13 14  2  0
 13 15  1  0
 14 16  1  0
 15 17  2  0
 17 18  1  0
 16 19  2  0
 17 19  1  0
 19 20  1  0
 20 21  2  0
 20 22  1  0
M  END
