diamond-x0282_0_A-mac-x0193
     RDKit          3D

 29 31  0  0  0  0  0  0  0  0999 V2000
   -7.7270   14.3470    1.0980 C   0  0  0  0  0  0  0  0  0  0  0  0
   -8.4930   14.5800   -0.0690 O   0  0  0  0  0  0  0  0  0  0  0  0
   -6.2380   14.2240    0.7770 C   0  0  0  0  0  0  0  0  0  0  0  0
   -5.3690   14.6140    1.9660 C   0  0  0  0  0  0  0  0  0  0  0  0
   -5.7780   14.9450   -0.4990 C   0  0  0  0  0  0  0  0  0  0  0  0
   -3.9670   14.0920    1.7820 C   0  0  0  0  0  0  0  0  0  0  0  0
   -4.2500   15.1120   -0.4950 C   0  0  0  0  0  0  0  0  0  0  0  0
   -3.5430   14.1790    0.3960 N   0  0  0  0  0  0  0  0  0  0  0  0
   -2.1820   14.3570    0.3040 C   0  0  0  0  0  0  0  0  0  0  0  0
   -1.6580   14.4810   -0.9430 N   0  0  0  0  0  0  0  0  0  0  0  0
   -1.4560   14.4020    1.4440 N   0  0  0  0  0  0  0  0  0  0  0  0
   -0.3270   14.6740   -1.0050 C   0  0  0  0  0  0  0  0  0  0  0  0
   -0.1520   14.5860    1.3030 C   0  0  0  0  0  0  0  0  0  0  0  0
    0.4080   14.8630   -2.3050 C   0  0  0  0  0  0  0  0  0  0  0  0
    0.4470   14.7360    0.0830 C   0  0  0  0  0  0  0  0  0  0  0  0
    0.6060   13.8790   -3.3690 N   0  0  0  0  0  0  0  0  0  0  0  0
    0.6130   12.6110   -3.5430 C   0  0  0  0  0  0  0  0  0  0  0  0
    0.4050   11.5710   -2.6950 O   0  0  0  0  0  0  0  0  0  0  0  0
    0.9220   12.2750   -4.9850 C   0  0  0  0  0  0  0  0  0  0  0  0
    0.1210   11.2750   -5.6890 N   0  0  0  0  0  0  0  0  0  0  0  0
    0.6100   11.0520   -6.9480 C   0  0  0  0  0  0  0  0  0  0  0  0
    1.6900   11.5100   -7.2350 O   0  0  0  0  0  0  0  0  0  0  0  0
   -0.1930   10.3080   -7.7720 N   0  0  0  0  0  0  0  0  0  0  0  0
    0.2550    9.5310   -8.9310 C   0  0  0  0  0  0  0  0  0  0  0  0
    1.3720    8.5370   -8.5960 C   0  0  0  0  0  0  0  0  0  0  0  0
    0.6030   10.4250  -10.1190 C   0  0  0  0  0  0  0  0  0  0  0  0
    2.1180    8.0480   -9.8470 C   0  0  0  0  0  0  0  0  0  0  0  0
    0.8850    9.6220  -11.3920 C   0  0  0  0  0  0  0  0  0  0  0  0
    1.2690    8.1720  -11.1030 C   0  0  0  0  0  0  0  0  0  0  0  0
  1  2  1  0
  1  3  1  0
  3  4  1  0
  3  5  1  0
  4  6  1  0
  5  7  1  0
  6  8  1  0
  7  8  1  0
  8  9  1  0
  9 10  2  0
  9 11  1  0
 10 12  1  0
 11 13  2  0
 12 14  1  0
 12 15  2  0
 13 15  1  0
 14 16  1  0
 16 17  2  3
 17 18  1  0
 17 19  1  0
 19 20  1  0
 20 21  1  0
 21 22  2  0
 21 23  1  0
 23 24  1  0
 24 25  1  0
 24 26  1  0
 25 27  1  0
 26 28  1  0
 27 29  1  0
 28 29  1  0
M  END
