diamond-x0962_2_B-mac-x0301
     RDKit          3D

 22 24  0  0  0  0  0  0  0  0999 V2000
  -10.3250   16.2270    0.9290 N   0  0  0  0  0  0  0  0  0  0  0  0
   -9.6290   15.9010    1.7980 C   0  0  0  0  0  0  0  0  0  0  0  0
   -8.8230   15.5540    2.9170 C   0  0  0  0  0  0  0  0  0  0  0  0
   -9.1420   15.9220    4.1940 N   0  0  0  0  0  0  0  0  0  0  0  0
   -7.6260   14.8480    3.0350 C   0  0  0  0  0  0  0  0  0  0  0  0
   -6.7150   14.1940    2.0320 C   0  0  0  0  0  0  0  0  0  0  0  0
   -8.1740   15.4410    5.0230 C   0  0  0  0  0  0  0  0  0  0  0  0
   -7.2580   14.7920    4.3580 N   0  0  0  0  0  0  0  0  0  0  0  0
   -5.4930   15.0890    1.7350 C   0  0  0  0  0  0  0  0  0  0  0  0
   -4.0900   14.5270    1.7180 C   0  0  0  0  0  0  0  0  0  0  0  0
   -3.3340   14.6820    0.4220 C   0  0  0  0  0  0  0  0  0  0  0  0
   -1.9710   14.7040    0.4460 C   0  0  0  0  0  0  0  0  0  0  0  0
   -3.9530   14.7860   -0.8390 C   0  0  0  0  0  0  0  0  0  0  0  0
   -1.1990   14.7790   -0.7070 C   0  0  0  0  0  0  0  0  0  0  0  0
   -3.1810   14.8730   -2.0200 C   0  0  0  0  0  0  0  0  0  0  0  0
   -1.2360   14.6420    1.5900 O   0  0  0  0  0  0  0  0  0  0  0  0
   -1.7770   14.8530   -1.9700 C   0  0  0  0  0  0  0  0  0  0  0  0
    0.1150   14.7560   -0.4040 O   0  0  0  0  0  0  0  0  0  0  0  0
    0.0600   14.5230    1.0130 C   0  0  0  0  0  0  0  0  0  0  0  0
   -0.9470   14.8970   -3.2070 C   0  0  0  0  0  0  0  0  0  0  0  0
    0.3730   14.9110   -2.9500 O   0  0  0  0  0  0  0  0  0  0  0  0
   -1.3370   14.8920   -4.3600 O   0  0  0  0  0  0  0  0  0  0  0  0
  1  2  3  0
  2  3  1  0
  3  4  1  0
  3  5  2  0
  5  6  1  0
  4  7  1  0
  5  8  1  0
  7  8  2  0
  6  9  1  0
  9 10  1  0
 10 11  1  0
 11 12  1  0
 11 13  2  0
 12 14  2  0
 13 15  1  0
 12 16  1  0
 14 17  1  0
 15 17  2  0
 14 18  1  0
 16 19  1  0
 18 19  1  0
 17 20  1  0
 20 21  1  0
 20 22  2  0
M  END
