diamond-x0844_0_A-diamond-x0662_0_A
     RDKit          3D

 29 31  0  0  0  0  0  0  0  0999 V2000
   -7.5210   14.8230   -0.1940 O   0  0  0  0  0  0  0  0  0  0  0  0
   -6.2910   14.9190   -0.1500 C   0  0  0  0  0  0  0  0  0  0  0  0
   -5.6240   14.8520    1.0510 N   0  0  0  0  0  0  0  0  0  0  0  0
   -5.4260   15.1200   -1.3740 C   0  0  0  0  0  0  0  0  0  0  0  0
   -4.3010   15.1610    1.1990 C   0  0  0  0  0  0  0  0  0  0  0  0
   -4.0150   14.5680   -1.1670 C   0  0  1  0  0  0  0  0  0  0  0  0
   -3.1590   14.9890   -2.2520 O   0  0  0  0  0  0  0  0  0  0  0  0
   -3.4800   15.0400    0.1540 C   0  0  0  0  0  0  0  0  0  0  0  0
   -1.9690   14.1710   -2.3610 C   0  0  0  0  0  0  0  0  0  0  0  0
   -2.0110   13.3320   -3.6440 C   0  0  0  0  0  0  0  0  0  0  0  0
   -0.7520   12.4680   -3.8290 C   0  0  0  0  0  0  0  0  0  0  0  0
   -0.9070   11.6140   -5.0100 N   0  0  0  0  0  0  0  0  0  0  0  0
    0.0570   11.4810   -5.8640 C   0  0  0  0  0  0  0  0  0  0  0  0
    1.1860   12.0040   -5.8300 O   0  0  0  0  0  0  0  0  0  0  0  0
   -0.0260   10.6340   -7.1090 C   0  0  0  0  0  0  0  0  0  0  0  0
   -0.9550    9.5890   -7.1790 C   0  0  0  0  0  0  0  0  0  0  0  0
    0.8170   10.8850   -8.2010 C   0  0  0  0  0  0  0  0  0  0  0  0
   -1.0360    8.8130   -8.3320 C   0  0  0  0  0  0  0  0  0  0  0  0
    0.7430   10.1170   -9.3690 C   0  0  0  0  0  0  0  0  0  0  0  0
    1.5410   10.3030  -10.5270 N   0  0  0  0  0  0  0  0  0  0  0  0
   -0.1960    9.0740   -9.4190 C   0  0  0  0  0  0  0  0  0  0  0  0
    2.2270    9.3550  -11.2770 C   0  0  0  0  0  0  0  0  0  0  0  0
    2.3200    8.1620  -11.0310 O   0  0  0  0  0  0  0  0  0  0  0  0
    2.9100    9.9130  -12.4770 C   0  0  0  0  0  0  0  0  0  0  0  0
    2.7030   11.1700  -13.1170 C   0  0  0  0  0  0  0  0  0  0  0  0
    3.8800    9.2130  -13.1110 N   0  0  0  0  0  0  0  0  0  0  0  0
    4.2680   10.0150  -14.1180 N   0  0  0  0  0  0  0  0  0  0  0  0
    3.5930   11.1990  -14.1660 C   0  0  0  0  0  0  0  0  0  0  0  0
    5.3150    9.5700  -15.0090 C   0  0  0  0  0  0  0  0  0  0  0  0
  1  2  2  0
  2  3  1  0
  2  4  1  0
  3  5  1  0
  4  6  1  0
  6  7  1  6
  5  8  2  0
  6  8  1  0
  7  9  1  0
  9 10  1  0
 10 11  1  0
 11 12  1  0
 12 13  2  3
 13 14  1  0
 13 15  1  0
 15 16  2  0
 15 17  1  0
 16 18  1  0
 17 19  2  0
 19 20  1  0
 18 21  2  0
 19 21  1  0
 20 22  1  0
 22 23  2  0
 22 24  1  0
 24 25  1  0
 24 26  2  0
 26 27  1  0
 25 28  2  0
 27 28  1  0
 27 29  1  0
M  CHG  1  14  -1
M  END
