diamond-x0766_0_A-mac-x0179
     RDKit          3D

 25 28  0  0  0  0  0  0  0  0999 V2000
    0.2750   12.3700   -2.8410 C   0  0  0  0  0  0  0  0  0  0  0  0
   -0.4250   12.2390   -1.6150 O   0  0  0  0  0  0  0  0  0  0  0  0
    1.1690   11.3070   -2.8490 O   0  0  0  0  0  0  0  0  0  0  0  0
   -0.4520   12.3460   -4.1950 C   0  0  0  0  0  0  0  0  0  0  0  0
    0.8700   13.7260   -2.9350 C   0  0  1  0  0  0  0  0  0  0  0  0
    1.7950   13.9650   -4.1340 C   0  0  0  0  0  0  0  0  0  0  0  0
   -0.3020   14.6300   -3.3400 C   0  0  2  0  0  0  0  0  0  0  0  0
   -0.2930   11.2520   -5.0660 N   0  0  0  0  0  0  0  0  0  0  0  0
    1.7390   15.4750   -4.2560 C   0  0  0  0  0  0  0  0  0  0  0  0
    0.3930   15.9230   -3.7040 C   0  0  0  0  0  0  0  0  0  0  0  0
   -1.4370   14.7330   -2.3450 C   0  0  0  0  0  0  0  0  0  0  0  0
    0.4080   11.2680   -6.2540 C   0  0  0  0  0  0  0  0  0  0  0  0
   -1.4270   10.5590   -5.1980 C   0  0  0  0  0  0  0  0  0  0  0  0
    1.3470   11.9750   -6.5730 O   0  0  0  0  0  0  0  0  0  0  0  0
   -2.3800   10.5600   -4.4520 O   0  0  0  0  0  0  0  0  0  0  0  0
   -2.7640   14.9210   -2.7120 C   0  0  0  0  0  0  0  0  0  0  0  0
   -1.3220   14.6530   -0.9190 C   0  0  0  0  0  0  0  0  0  0  0  0
   -0.1960   10.2230   -7.0770 C   0  0  0  0  0  0  0  0  0  0  0  0
   -1.3280    9.7950   -6.4100 C   0  0  0  0  0  0  0  0  0  0  0  0
   -2.5360   14.7830   -0.2760 C   0  0  0  0  0  0  0  0  0  0  0  0
   -3.8240   15.0030   -1.3720 S   0  0  0  0  0  0  0  0  0  0  0  0
    0.1740    9.6720   -8.2840 C   0  0  0  0  0  0  0  0  0  0  0  0
   -2.1580    8.8160   -6.8850 C   0  0  0  0  0  0  0  0  0  0  0  0
   -0.6550    8.6650   -8.7960 C   0  0  0  0  0  0  0  0  0  0  0  0
   -1.8120    8.2420   -8.1010 C   0  0  0  0  0  0  0  0  0  0  0  0
  1  2  1  0
  1  3  1  0
  1  4  1  0
  5  1  1  6
  5  6  1  0
  5  7  1  0
  4  8  1  0
  6  9  1  0
  7 10  1  0
  9 10  1  0
  7 11  1  1
  8 12  1  0
  8 13  1  0
 12 14  2  0
 13 15  2  0
 11 16  2  0
 11 17  1  0
 12 18  1  0
 13 19  1  0
 18 19  2  0
 17 20  2  0
 16 21  1  0
 20 21  1  0
 18 22  1  0
 19 23  1  0
 22 24  2  0
 23 25  2  0
 24 25  1  0
M  END
