diamond-x0465_0_A-mac-x0148
     RDKit          3D

 31 35  0  0  0  0  0  0  0  0999 V2000
    2.0250   13.2160   -5.1340 C   0  0  0  0  0  0  0  0  0  0  0  0
    0.9000   12.2580   -4.7410 C   0  0  1  0  0  0  0  0  0  0  0  0
    0.5890   11.4210   -5.8730 O   0  0  0  0  0  0  0  0  0  0  0  0
    1.2360   11.7960   -3.2910 C   0  0  0  0  0  0  0  0  0  0  0  0
   -0.3500   12.9850   -4.2810 C   0  0  1  0  0  0  0  0  0  0  0  0
    1.9030   12.4120   -2.4810 O   0  0  0  0  0  0  0  0  0  0  0  0
    0.6810   10.6150   -2.9350 O   0  0  0  0  0  0  0  0  0  0  0  0
   -0.5790   10.7140   -5.9490 C   0  0  0  0  0  0  0  0  0  0  0  0
   -1.0740   14.1380   -4.9310 C   0  0  1  0  0  0  0  0  0  0  0  0
   -1.3510   12.0410   -3.6600 C   0  0  0  0  0  0  0  0  0  0  0  0
   -0.6540    9.5730   -6.7360 C   0  0  0  0  0  0  0  0  0  0  0  0
   -1.7070   11.1250   -5.2460 C   0  0  0  0  0  0  0  0  0  0  0  0
   -2.3800   13.8700   -5.6750 C   0  0  0  0  0  0  0  0  0  0  0  0
   -1.4910   14.9930   -3.7120 C   0  0  1  0  0  0  0  0  0  0  0  0
   -1.8280   12.8080   -2.4850 C   0  0  0  0  0  0  0  0  0  0  0  0
    0.4140    9.1570   -7.4310 F   0  0  0  0  0  0  0  0  0  0  0  0
   -1.8290    8.8380   -6.8250 C   0  0  0  0  0  0  0  0  0  0  0  0
   -2.8930   10.3950   -5.3280 C   0  0  0  0  0  0  0  0  0  0  0  0
   -3.1830   15.0130   -5.3970 O   0  0  0  0  0  0  0  0  0  0  0  0
   -2.9780   15.2480   -3.9980 C   0  0  0  0  0  0  0  0  0  0  0  0
   -1.2280   14.1550   -2.4620 N   0  0  0  0  0  0  0  0  0  0  0  0
   -2.9570    9.2510   -6.1150 C   0  0  0  0  0  0  0  0  0  0  0  0
   -1.3620   14.5470   -1.1460 C   0  0  0  0  0  0  0  0  0  0  0  0
   -0.2600   14.5890   -0.3260 N   0  0  0  0  0  0  0  0  0  0  0  0
   -2.5290   14.8480   -0.5860 C   0  0  0  0  0  0  0  0  0  0  0  0
   -0.3890   14.8070    1.0140 C   0  0  0  0  0  0  0  0  0  0  0  0
   -2.5840   15.1560    0.8530 C   0  0  0  0  0  0  0  0  0  0  0  0
   -3.8820   14.9610   -1.0080 C   0  0  0  0  0  0  0  0  0  0  0  0
   -1.4780   15.0820    1.6400 N   0  0  0  0  0  0  0  0  0  0  0  0
   -3.7810   15.4790    1.2340 N   0  0  0  0  0  0  0  0  0  0  0  0
   -4.5470   15.3440    0.0870 C   0  0  0  0  0  0  0  0  0  0  0  0
  2  1  1  6
  2  3  1  0
  2  4  1  0
  2  5  1  0
  4  6  2  0
  4  7  1  0
  3  8  1  0
  5  9  1  0
  5 10  1  6
  8 11  2  0
  8 12  1  0
  9 13  1  1
  9 14  1  0
 10 15  1  0
 11 16  1  0
 11 17  1  0
 12 18  2  0
 13 19  1  0
 14 20  1  6
 19 20  1  0
 14 21  1  0
 15 21  1  0
 17 22  2  0
 18 22  1  0
 21 23  1  0
 23 24  1  0
 23 25  2  0
 24 26  1  0
 25 27  1  0
 25 28  1  0
 26 29  2  0
 27 29  1  0
 27 30  2  0
 28 31  2  0
 30 31  1  0
M  END
