diamond-x0465_0_A-diamond-x0626_0_A
     RDKit          3D

 26 27  0  0  0  0  0  0  0  0999 V2000
    2.3250   13.0080   -5.0710 C   0  0  0  0  0  0  0  0  0  0  0  0
    0.9400   12.4460   -4.8670 C   0  0  1  0  0  0  0  0  0  0  0  0
    0.6340   11.3400   -5.7010 O   0  0  0  0  0  0  0  0  0  0  0  0
    0.6200   12.2970   -3.4000 C   0  0  0  0  0  0  0  0  0  0  0  0
    0.4830   13.3510   -2.7050 N   0  0  0  0  0  0  0  0  0  0  0  0
    0.5070   11.0320   -2.9250 O   0  0  0  0  0  0  0  0  0  0  0  0
   -0.5940   10.7500   -5.7310 C   0  0  0  0  0  0  0  0  0  0  0  0
    0.1810   13.1630   -1.3160 C   0  0  0  0  0  0  0  0  0  0  0  0
   -0.7050    9.6670   -6.6090 C   0  0  0  0  0  0  0  0  0  0  0  0
   -1.7100   11.1240   -4.9840 C   0  0  0  0  0  0  0  0  0  0  0  0
    0.3480    9.2830   -7.3470 F   0  0  0  0  0  0  0  0  0  0  0  0
    0.5800   14.4450   -0.6010 C   0  0  0  0  0  0  0  0  0  0  0  0
   -1.8950    8.9620   -6.7480 C   0  0  0  0  0  0  0  0  0  0  0  0
   -2.9120   10.4170   -5.1210 C   0  0  0  0  0  0  0  0  0  0  0  0
   -0.1150   14.5630    0.7510 C   0  0  0  0  0  0  0  0  0  0  0  0
   -3.0030    9.3410   -5.9990 C   0  0  0  0  0  0  0  0  0  0  0  0
   -1.5560   14.6820    0.4670 C   0  0  0  0  0  0  0  0  0  0  0  0
   -2.4990   14.7000    1.4760 N   0  0  0  0  0  0  0  0  0  0  0  0
   -2.0550   14.7830   -0.8170 C   0  0  0  0  0  0  0  0  0  0  0  0
   -3.6890   14.8220    0.9100 C   0  0  0  0  0  0  0  0  0  0  0  0
   -3.7490   14.9180   -0.7920 S   0  0  0  0  0  0  0  0  0  0  0  0
   -4.9190   14.8800    1.4730 N   0  0  0  0  0  0  0  0  0  0  0  0
   -6.1020   14.7060    0.8200 C   0  0  0  0  0  0  0  0  0  0  0  0
   -6.1380   14.8560   -0.4090 O   0  0  0  0  0  0  0  0  0  0  0  0
   -7.3400   14.3390    1.6120 C   0  0  0  0  0  0  0  0  0  0  0  0
   -8.6210   14.6640    0.8610 C   0  0  0  0  0  0  0  0  0  0  0  0
  2  1  1  1
  2  3  1  0
  2  4  1  0
  4  5  2  3
  4  6  1  0
  3  7  1  0
  5  8  1  0
  7  9  2  0
  7 10  1  0
  9 11  1  0
  8 12  1  0
  9 13  1  0
 10 14  2  0
 12 15  1  0
 13 16  2  0
 14 16  1  0
 15 17  1  0
 17 18  1  0
 17 19  2  0
 18 20  2  0
 19 21  1  0
 20 21  1  0
 20 22  1  0
 22 23  1  0
 23 24  2  0
 23 25  1  0
 25 26  1  0
M  END
