diamond-x0253_0_A-mac-x0361
     RDKit          3D

 26 27  0  0  0  0  0  0  0  0999 V2000
    0.4760   12.0450   -5.4490 N   0  0  0  0  0  0  0  0  0  0  0  0
    1.1420   11.6930   -6.5750 C   0  0  0  0  0  0  0  0  0  0  0  0
    2.2520   12.1220   -6.7330 O   0  0  0  0  0  0  0  0  0  0  0  0
    1.2570   12.8070   -4.4710 C   0  0  0  0  0  0  0  0  0  0  0  0
    0.5440   12.7370   -3.1220 C   0  0  0  0  0  0  0  0  0  0  0  0
    0.4860   10.7580   -7.5480 C   0  0  0  0  0  0  0  0  0  0  0  0
    1.3840   13.1950   -2.0730 O   0  0  0  0  0  0  0  0  0  0  0  0
    0.3000   11.3650   -2.8180 O   0  0  0  0  0  0  0  0  0  0  0  0
   -0.7640   13.5400   -3.1380 C   0  0  0  0  0  0  0  0  0  0  0  0
   -0.4920    9.8500   -7.1270 C   0  0  0  0  0  0  0  0  0  0  0  0
    0.8510   10.7800   -8.9050 C   0  0  0  0  0  0  0  0  0  0  0  0
   -0.7750   15.0340   -3.2430 C   0  0  0  0  0  0  0  0  0  0  0  0
   -1.0990    8.9810   -8.0460 C   0  0  0  0  0  0  0  0  0  0  0  0
    0.2530    9.9200   -9.8190 C   0  0  0  0  0  0  0  0  0  0  0  0
   -2.1500    8.0130   -7.5890 C   0  0  0  0  0  0  0  0  0  0  0  0
   -2.1490   15.3800   -3.5450 O   0  0  0  0  0  0  0  0  0  0  0  0
   -0.7200    9.0210   -9.3920 C   0  0  0  0  0  0  0  0  0  0  0  0
   -3.1070   15.1720   -2.5490 C   0  0  0  0  0  0  0  0  0  0  0  0
   -2.7940   14.9610   -1.2000 C   0  0  0  0  0  0  0  0  0  0  0  0
   -4.4410   15.1920   -2.9410 C   0  0  0  0  0  0  0  0  0  0  0  0
   -3.8220   14.7850   -0.2500 C   0  0  0  0  0  0  0  0  0  0  0  0
   -5.4630   15.0210   -2.0060 C   0  0  0  0  0  0  0  0  0  0  0  0
   -5.1710   14.8190   -0.6520 C   0  0  0  0  0  0  0  0  0  0  0  0
   -6.3260   14.6490    0.2880 C   0  0  0  0  0  0  0  0  0  0  0  0
   -6.1480   14.8160    1.6420 N   0  0  0  0  0  0  0  0  0  0  0  0
   -7.4480   14.3810   -0.1340 O   0  0  0  0  0  0  0  0  0  0  0  0
  1  2  1  0
  2  3  2  0
  1  4  1  0
  4  5  1  0
  2  6  1  0
  5  7  1  0
  5  8  1  0
  5  9  1  0
  6 10  2  0
  6 11  1  0
  9 12  1  0
 10 13  1  0
 11 14  2  0
 13 15  1  0
 12 16  1  0
 13 17  2  0
 14 17  1  0
 16 18  1  0
 18 19  2  0
 18 20  1  0
 19 21  1  0
 20 22  2  0
 21 23  2  0
 22 23  1  0
 23 24  1  0
 24 25  1  0
 24 26  2  0
M  END
