diamond-x0742_0_A-mac-x0354
     RDKit          3D

 33 37  0  0  0  0  0  0  0  0999 V2000
   -5.4300   12.5820   -0.5160 C   0  0  0  0  0  0  0  0  0  0  0  0
   -6.2900   11.8950    0.5170 C   0  0  0  0  0  0  0  0  0  0  0  0
   -4.9750   11.9160   -1.4570 O   0  0  0  0  0  0  0  0  0  0  0  0
   -5.1690   14.1220   -0.3960 C   0  0  2  0  0  0  0  0  0  0  0  0
   -5.1600   14.5930    1.0560 C   0  0  0  0  0  0  0  0  0  0  0  0
   -6.2140   14.8180   -1.2960 C   0  0  0  0  0  0  0  0  0  0  0  0
   -3.9560   14.6760   -1.1440 C   0  0  2  0  0  0  0  0  0  0  0  0
   -4.2050   14.2280   -2.5760 C   0  0  0  0  0  0  0  0  0  0  0  0
   -2.6430   14.5840   -0.4330 C   0  0  0  0  0  0  0  0  0  0  0  0
   -3.8360   14.3170    1.7760 C   0  0  0  0  0  0  0  0  0  0  0  0
   -5.7310   14.4150   -2.7030 C   0  0  0  0  0  0  0  0  0  0  0  0
   -1.4520   14.6610   -1.1090 C   0  0  0  0  0  0  0  0  0  0  0  0
   -2.5910   14.4280    0.9680 C   0  0  0  0  0  0  0  0  0  0  0  0
   -1.4520   14.3680    1.6730 N   0  0  0  0  0  0  0  0  0  0  0  0
   -0.2710   14.6010   -0.4170 C   0  0  0  0  0  0  0  0  0  0  0  0
    0.9950   14.6930   -1.1840 C   0  0  0  0  0  0  0  0  0  0  0  0
   -0.3210   14.4580    0.9700 C   0  0  0  0  0  0  0  0  0  0  0  0
    1.4230   13.3060   -1.5880 C   0  0  0  0  0  0  0  0  0  0  0  0
    1.3440   13.0470   -2.9800 N   0  0  0  0  0  0  0  0  0  0  0  0
    0.8410   12.0170   -3.5270 C   0  0  0  0  0  0  0  0  0  0  0  0
    0.2850   11.0280   -2.7930 O   0  0  0  0  0  0  0  0  0  0  0  0
    0.9230   11.8880   -4.9220 C   0  0  0  0  0  0  0  0  0  0  0  0
    1.8810   12.5970   -5.6300 C   0  0  0  0  0  0  0  0  0  0  0  0
    0.2410   11.1520   -5.8950 C   0  0  0  0  0  0  0  0  0  0  0  0
    0.8520   11.4910   -7.0600 N   0  0  0  0  0  0  0  0  0  0  0  0
    1.8380   12.3570   -6.8970 N   0  0  0  0  0  0  0  0  0  0  0  0
   -0.8490   10.2050   -5.8920 C   0  0  0  0  0  0  0  0  0  0  0  0
    0.5400   11.0130   -8.3880 C   0  0  0  0  0  0  0  0  0  0  0  0
   -0.6440    8.9380   -6.4560 C   0  0  0  0  0  0  0  0  0  0  0  0
   -2.0870   10.5290   -5.3520 C   0  0  0  0  0  0  0  0  0  0  0  0
   -1.6710    8.0060   -6.4760 C   0  0  0  0  0  0  0  0  0  0  0  0
   -3.1160    9.5910   -5.3740 C   0  0  0  0  0  0  0  0  0  0  0  0
   -2.9100    8.3340   -5.9330 C   0  0  0  0  0  0  0  0  0  0  0  0
  1  2  1  0
  1  3  2  0
  4  1  1  1
  4  5  1  0
  4  6  1  0
  4  7  1  0
  7  8  1  6
  7  9  1  0
  5 10  1  0
  6 11  1  0
  8 11  1  0
  9 12  1  0
  9 13  2  0
 10 13  1  0
 13 14  1  0
 12 15  2  0
 15 16  1  0
 14 17  2  0
 15 17  1  0
 16 18  1  0
 18 19  1  0
 19 20  2  3
 20 21  1  0
 20 22  1  0
 22 23  1  0
 22 24  2  0
 24 25  1  0
 23 26  2  0
 25 26  1  0
 24 27  1  0
 25 28  1  0
 27 29  2  0
 27 30  1  0
 29 31  1  0
 30 32  2  0
 31 33  2  0
 32 33  1  0
M  END
