diamond-x0685_1_A-mac-x0341
     RDKit          3D

 26 28  0  0  0  0  0  0  0  0999 V2000
   -0.9100   10.6080   -4.8560 N   0  0  0  0  0  0  0  0  0  0  0  0
   -1.4260   11.9530   -4.5230 C   0  0  0  0  0  0  0  0  0  0  0  0
   -0.3090   12.8340   -3.9440 C   0  0  0  0  0  0  0  0  0  0  0  0
   -1.2150   10.0720   -6.2010 C   0  0  0  0  0  0  0  0  0  0  0  0
   -0.1260    9.1520   -6.7550 C   0  0  0  0  0  0  0  0  0  0  0  0
   -1.4560   11.1960   -7.2350 C   0  0  0  0  0  0  0  0  0  0  0  0
    0.5590   12.1410   -2.5200 S   0  0  0  0  0  0  0  0  0  0  0  0
   -0.5150    8.4240   -8.0270 C   0  0  0  0  0  0  0  0  0  0  0  0
   -1.1300   10.8250   -8.6970 C   0  0  0  0  0  0  0  0  0  0  0  0
    2.1240   12.4270   -2.7900 O   0  0  0  0  0  0  0  0  0  0  0  0
    0.2730   10.5520   -2.5200 O   0  0  0  0  0  0  0  0  0  0  0  0
   -0.0020   12.8150   -1.1450 O   0  0  0  0  0  0  0  0  0  0  0  0
   -1.2220    9.3330   -9.0340 C   0  0  0  0  0  0  0  0  0  0  0  0
   -0.2830   14.2220   -0.9680 C   0  0  0  0  0  0  0  0  0  0  0  0
   -1.7850   14.4920   -0.9640 C   0  0  0  0  0  0  0  0  0  0  0  0
   -2.5620   14.4630    0.2220 C   0  0  0  0  0  0  0  0  0  0  0  0
   -2.4260   14.7700   -2.1820 C   0  0  0  0  0  0  0  0  0  0  0  0
   -3.9520   14.6910    0.1730 C   0  0  0  0  0  0  0  0  0  0  0  0
   -3.7930   14.9950   -2.2350 C   0  0  0  0  0  0  0  0  0  0  0  0
   -4.5380   14.9450   -1.0660 C   0  0  0  0  0  0  0  0  0  0  0  0
   -4.7200   14.6460    1.3500 N   0  0  0  0  0  0  0  0  0  0  0  0
   -6.0100   14.7240    1.2600 C   0  0  0  0  0  0  0  0  0  0  0  0
   -5.9940   15.1470   -1.1050 C   0  0  0  0  0  0  0  0  0  0  0  0
   -6.7890   14.6730    2.3730 N   0  0  0  0  0  0  0  0  0  0  0  0
   -6.5680   15.5110   -2.1200 O   0  0  0  0  0  0  0  0  0  0  0  0
   -6.6560   14.8640    0.0620 N   0  0  0  0  0  0  0  0  0  0  0  0
  1  2  1  0
  2  3  1  0
  1  4  1  0
  4  5  1  0
  4  6  1  0
  3  7  1  0
  5  8  1  0
  6  9  1  0
  7 10  1  0
  7 11  1  0
  7 12  1  0
  8 13  1  0
  9 13  1  0
 12 14  1  0
 14 15  1  0
 15 16  2  0
 15 17  1  0
 16 18  1  0
 17 19  2  0
 18 20  2  0
 19 20  1  0
 18 21  1  0
 21 22  2  0
 20 23  1  0
 22 24  1  0
 23 25  2  0
 22 26  1  0
 23 26  1  0
M  END
