diamond-x0962_0_A-diamond-x0128_0_A
     RDKit          3D

 17 18  0  0  0  0  0  0  0  0999 V2000
   -2.7890   14.9360   -2.2790 N   0  0  0  0  0  0  0  0  0  0  0  0
   -3.4400   14.9840   -1.3150 C   0  0  0  0  0  0  0  0  0  0  0  0
   -4.1940   15.0080   -0.0930 C   0  0  0  0  0  0  0  0  0  0  0  0
   -3.7280   15.6720    1.0130 N   0  0  0  0  0  0  0  0  0  0  0  0
   -5.4180   14.4080    0.1700 C   0  0  0  0  0  0  0  0  0  0  0  0
   -4.6490   15.4840    1.9420 C   0  0  0  0  0  0  0  0  0  0  0  0
   -5.6750   14.7240    1.4780 N   0  0  0  0  0  0  0  0  0  0  0  0
   -6.7850   14.3170    2.1960 N   0  0  0  0  0  0  0  0  0  0  0  0
   -7.6960   15.1450    2.8370 C   0  0  0  0  0  0  0  0  0  0  0  0
   -8.6470   15.6660    2.2550 O   0  0  0  0  0  0  0  0  0  0  0  0
   -7.5600   15.3820    4.1910 N   0  0  0  0  0  0  0  0  0  0  0  0
   -8.3710   16.0600    5.1560 C   0  0  0  0  0  0  0  0  0  0  0  0
   -9.0840   17.2010    4.7740 C   0  0  0  0  0  0  0  0  0  0  0  0
   -8.5160   15.6680    6.4870 C   0  0  0  0  0  0  0  0  0  0  0  0
   -9.8860   17.9310    5.5900 N   0  0  0  0  0  0  0  0  0  0  0  0
   -9.3370   16.4040    7.3550 C   0  0  0  0  0  0  0  0  0  0  0  0
   -9.9940   17.5180    6.8620 C   0  0  0  0  0  0  0  0  0  0  0  0
  1  2  3  0
  2  3  1  0
  3  4  1  0
  3  5  2  0
  4  6  2  0
  5  7  1  0
  6  7  1  0
  7  8  1  0
  8  9  1  0
  9 10  2  0
  9 11  1  0
 11 12  1  0
 12 13  2  0
 12 14  1  0
 13 15  1  0
 14 16  2  0
 15 17  2  0
 16 17  1  0
M  END
