diamond-x0962_2_B-mac-x0123
     RDKit          3D

 21 24  0  0  0  0  0  0  0  0999 V2000
  -11.2830   15.7120    1.6060 N   0  0  0  0  0  0  0  0  0  0  0  0
   -9.8830   16.0860    1.6450 C   0  0  2  0  0  0  0  0  0  0  0  0
   -9.1800   15.5800    0.3540 C   0  0  0  0  0  0  0  0  0  0  0  0
   -9.2680   15.6300    2.9310 C   0  0  0  0  0  0  0  0  0  0  0  0
   -8.8470   16.4580    3.9520 N   0  0  0  0  0  0  0  0  0  0  0  0
   -8.9860   14.3630    3.3950 C   0  0  0  0  0  0  0  0  0  0  0  0
   -8.3200   14.2980    0.4730 C   0  0  1  0  0  0  0  0  0  0  0  0
   -8.3350   15.6720    4.9440 C   0  0  0  0  0  0  0  0  0  0  0  0
   -8.4140   14.4010    4.6350 N   0  0  0  0  0  0  0  0  0  0  0  0
   -6.9110   14.4930   -0.0340 C   0  0  0  0  0  0  0  0  0  0  0  0
   -8.0370   13.8250    1.9050 C   0  0  0  0  0  0  0  0  0  0  0  0
   -6.6270   14.5910   -1.2870 N   0  0  0  0  0  0  0  0  0  0  0  0
   -5.9340   14.5450    1.1030 C   0  0  0  0  0  0  0  0  0  0  0  0
   -6.6840   14.3750    2.3640 C   0  0  0  0  0  0  0  0  0  0  0  0
   -4.6370   14.7220    0.8010 C   0  0  0  0  0  0  0  0  0  0  0  0
   -5.3010   14.7530   -1.5760 C   0  0  0  0  0  0  0  0  0  0  0  0
   -3.5800   14.8060    1.7070 N   0  0  0  0  0  0  0  0  0  0  0  0
   -4.3220   14.8200   -0.5700 N   0  0  0  0  0  0  0  0  0  0  0  0
   -4.7150   14.8630   -2.7460 N   0  0  0  0  0  0  0  0  0  0  0  0
   -3.0970   14.9770   -1.1390 N   0  0  0  0  0  0  0  0  0  0  0  0
   -3.3980   14.9960   -2.4330 C   0  0  0  0  0  0  0  0  0  0  0  0
  2  1  1  6
  2  3  1  0
  2  4  1  0
  4  5  1  0
  4  6  2  0
  7  3  1  1
  5  8  1  0
  6  9  1  0
  8  9  2  0
  7 10  1  0
  7 11  1  0
 10 12  2  0
 10 13  1  0
 11 14  1  0
 13 14  1  0
 13 15  2  0
 12 16  1  0
 15 17  1  0
 15 18  1  0
 16 18  1  0
 16 19  2  0
 18 20  1  0
 19 21  1  0
 20 21  2  0
M  END
