diamond-x0371_0_A-mac-x0392
     RDKit          3D

 22 24  0  0  0  0  0  0  0  0999 V2000
   -8.0860   14.6580    2.7790 N   0  0  0  0  0  0  0  0  0  0  0  0
   -8.8120   15.5720    3.5140 C   0  0  0  0  0  0  0  0  0  0  0  0
   -9.5720   16.3690    2.9730 O   0  0  0  0  0  0  0  0  0  0  0  0
   -8.2210   14.6030    1.3420 C   0  0  0  0  0  0  0  0  0  0  0  0
   -6.8650   14.6830    0.7140 C   0  0  0  0  0  0  0  0  0  0  0  0
   -8.6200   15.5200    4.9500 C   0  0  0  0  0  0  0  0  0  0  0  0
   -5.7170   14.6390    1.4620 N   0  0  0  0  0  0  0  0  0  0  0  0
   -6.5650   14.8030   -0.5790 N   0  0  0  0  0  0  0  0  0  0  0  0
   -8.0390   14.4190    5.5210 O   0  0  0  0  0  0  0  0  0  0  0  0
   -8.9320   16.4330    5.9370 C   0  0  0  0  0  0  0  0  0  0  0  0
   -5.1780   14.8170   -0.6470 C   0  0  0  0  0  0  0  0  0  0  0  0
   -4.6410   14.7190    0.6230 C   0  0  0  0  0  0  0  0  0  0  0  0
   -8.5200   15.8610    7.1670 C   0  0  0  0  0  0  0  0  0  0  0  0
   -7.9810   14.6370    6.8590 C   0  0  0  0  0  0  0  0  0  0  0  0
   -3.2760   14.7020    0.9000 C   0  0  0  0  0  0  0  0  0  0  0  0
   -4.2850   14.9030   -1.7510 C   0  0  0  0  0  0  0  0  0  0  0  0
   -2.3710   14.7740   -0.1710 C   0  0  0  0  0  0  0  0  0  0  0  0
   -2.8690   14.8680   -1.4960 C   0  0  0  0  0  0  0  0  0  0  0  0
   -0.9860   14.7320    0.1520 N   0  0  0  0  0  0  0  0  0  0  0  0
   -1.8610   14.9170   -2.6250 C   0  0  0  0  0  0  0  0  0  0  0  0
   -2.1660   14.9700   -3.7980 O   0  0  0  0  0  0  0  0  0  0  0  0
   -0.5500   14.8900   -2.2460 O   0  0  0  0  0  0  0  0  0  0  0  0
  1  2  1  0
  2  3  2  0
  1  4  1  0
  4  5  1  0
  2  6  1  0
  5  7  1  0
  5  8  2  0
  6  9  1  0
  6 10  2  0
  8 11  1  0
  7 12  1  0
 11 12  2  0
 10 13  1  0
  9 14  1  0
 13 14  2  0
 12 15  1  0
 11 16  1  0
 15 17  2  0
 16 18  2  0
 17 18  1  0
 17 19  1  0
 18 20  1  0
 20 21  2  0
 20 22  1  0
M  END
