diamond-x0969_0_A-mac-x1493
     RDKit          3D

 13 14  0  0  0  0  0  0  0  0999 V2000
   -6.7170   14.7910    2.5920 N   0  0  0  0  0  0  0  0  0  0  0  0
   -6.5560   14.7610    1.2510 C   0  0  0  0  0  0  0  0  0  0  0  0
   -7.5160   14.6620    0.3580 N   0  0  0  0  0  0  0  0  0  0  0  0
   -5.3330   14.8420    0.5980 N   0  0  0  0  0  0  0  0  0  0  0  0
   -6.9550   14.6760   -0.8970 N   0  0  0  0  0  0  0  0  0  0  0  0
   -5.6540   14.7800   -0.7530 C   0  0  0  0  0  0  0  0  0  0  0  0
   -4.0220   14.9600    1.0620 C   0  0  0  0  0  0  0  0  0  0  0  0
   -4.5970   14.8230   -1.7000 C   0  0  0  0  0  0  0  0  0  0  0  0
   -3.0150   14.9940    0.1640 C   0  0  0  0  0  0  0  0  0  0  0  0
   -3.3230   14.9110   -1.2710 C   0  0  0  0  0  0  0  0  0  0  0  0
   -2.2210   14.9100   -2.2730 C   0  0  0  0  0  0  0  0  0  0  0  0
   -0.9940   14.7790   -1.7310 O   0  0  0  0  0  0  0  0  0  0  0  0
   -2.4020   15.0160   -3.4770 O   0  0  0  0  0  0  0  0  0  0  0  0
  1  2  1  0
  2  3  2  0
  2  4  1  0
  3  5  1  0
  4  6  1  0
  5  6  2  0
  4  7  1  0
  6  8  1  0
  7  9  2  0
  8 10  2  0
  9 10  1  0
 10 11  1  0
 11 12  1  0
 11 13  2  0
M  END
