diamond-x0681_0_A-mac-x0394
     RDKit          3D

 26 28  0  0  0  0  0  0  0  0999 V2000
   -4.1280   15.7020   -2.3230 N   0  0  0  0  0  0  0  0  0  0  0  0
   -3.6380   14.5230   -1.8340 C   0  0  0  0  0  0  0  0  0  0  0  0
   -3.2770   13.6120   -2.6690 N   0  0  0  0  0  0  0  0  0  0  0  0
   -3.5930   14.2750   -0.3380 C   0  0  2  0  0  0  0  0  0  0  0  0
   -3.3290   13.6410   -4.1170 C   0  0  0  0  0  0  0  0  0  0  0  0
   -4.7090   13.2860   -0.2060 C   0  0  0  0  0  0  0  0  0  0  0  0
   -3.8330   15.5350    0.5110 C   0  0  0  0  0  0  0  0  0  0  0  0
   -3.9640   14.9270   -4.6050 C   0  0  0  0  0  0  0  0  0  0  0  0
   -5.6990   13.4080    0.7120 N   0  0  0  0  0  0  0  0  0  0  0  0
   -4.4210   15.1490    1.8530 C   0  0  0  0  0  0  0  0  0  0  0  0
   -4.8920   12.2130   -0.9470 N   0  0  0  0  0  0  0  0  0  0  0  0
   -3.1120   15.5960   -5.6530 C   0  0  0  0  0  0  0  0  0  0  0  0
   -5.7840   14.4830    1.6530 C   0  0  0  0  0  0  0  0  0  0  0  0
   -6.5580   12.3660    0.5670 C   0  0  0  0  0  0  0  0  0  0  0  0
   -6.0400   11.6340   -0.4720 C   0  0  0  0  0  0  0  0  0  0  0  0
   -1.6570   15.5940   -5.2770 C   0  0  0  0  0  0  0  0  0  0  0  0
   -0.9460   14.4100   -4.9920 C   0  0  0  0  0  0  0  0  0  0  0  0
   -0.9940   16.8010   -5.2220 C   0  0  0  0  0  0  0  0  0  0  0  0
    0.4180   14.4380   -4.6530 C   0  0  0  0  0  0  0  0  0  0  0  0
    0.3390   16.8280   -4.8950 C   0  0  0  0  0  0  0  0  0  0  0  0
    1.0810   18.3440   -4.8620 Cl  0  0  0  0  0  0  0  0  0  0  0  0
    1.1820   13.1690   -4.3500 C   0  0  0  0  0  0  0  0  0  0  0  0
    1.0580   15.6760   -4.6080 C   0  0  0  0  0  0  0  0  0  0  0  0
    0.8210   12.5150   -3.0350 C   0  0  0  0  0  0  0  0  0  0  0  0
    0.1970   11.3280   -3.2240 O   0  0  0  0  0  0  0  0  0  0  0  0
    1.0230   12.9240   -1.9030 O   0  0  0  0  0  0  0  0  0  0  0  0
  1  2  1  0
  2  3  2  3
  4  2  1  6
  3  5  1  0
  4  6  1  0
  4  7  1  0
  5  8  1  0
  6  9  1  0
  7 10  1  0
  6 11  2  0
  8 12  1  0
  9 13  1  0
 10 13  1  0
  9 14  1  0
 11 15  1  0
 14 15  2  0
 12 16  1  0
 16 17  2  0
 16 18  1  0
 17 19  1  0
 18 20  2  0
 20 21  1  0
 19 22  1  0
 19 23  2  0
 20 23  1  0
 22 24  1  0
 24 25  1  0
 24 26  2  0
M  END
