diamond-x0852_0_B-mac-x0568
     RDKit          3D

 22 23  0  0  0  0  0  0  0  0999 V2000
   -9.7250   17.8070    7.3180 N   0  0  0  0  0  0  0  0  0  0  0  0
   -9.4710   17.2920    6.3080 C   0  0  0  0  0  0  0  0  0  0  0  0
   -9.1990   16.5940    5.0880 C   0  0  0  0  0  0  0  0  0  0  0  0
   -8.2270   15.5910    5.0210 C   0  0  0  0  0  0  0  0  0  0  0  0
   -9.9360   16.9300    3.9410 C   0  0  0  0  0  0  0  0  0  0  0  0
   -7.5010   15.2490    6.1300 O   0  0  0  0  0  0  0  0  0  0  0  0
   -7.9910   14.9300    3.8290 C   0  0  0  0  0  0  0  0  0  0  0  0
   -9.7010   16.2610    2.7390 C   0  0  0  0  0  0  0  0  0  0  0  0
  -10.4700   16.6370    1.6700 O   0  0  0  0  0  0  0  0  0  0  0  0
   -8.7300   15.2700    2.6980 C   0  0  0  0  0  0  0  0  0  0  0  0
  -10.8530   15.5450    0.8400 C   0  0  0  0  0  0  0  0  0  0  0  0
   -9.6290   15.1080    0.0490 C   0  0  0  0  0  0  0  0  0  0  0  0
   -8.6490   14.2680    0.8730 C   0  0  0  0  0  0  0  0  0  0  0  0
   -7.2340   14.4870    0.4300 C   0  0  0  0  0  0  0  0  0  0  0  0
   -7.0840   14.6650   -0.8950 N   0  0  0  0  0  0  0  0  0  0  0  0
   -6.1610   14.5020    1.3210 C   0  0  0  0  0  0  0  0  0  0  0  0
   -5.8370   14.8530   -1.3560 C   0  0  0  0  0  0  0  0  0  0  0  0
   -4.8740   14.6990    0.8170 C   0  0  0  0  0  0  0  0  0  0  0  0
   -4.7120   14.8740   -0.5600 C   0  0  0  0  0  0  0  0  0  0  0  0
   -3.3870   15.0650   -1.1670 C   0  0  0  0  0  0  0  0  0  0  0  0
   -3.2940   15.4030   -2.3410 O   0  0  0  0  0  0  0  0  0  0  0  0
   -2.2760   14.8240   -0.4060 N   0  0  0  0  0  0  0  0  0  0  0  0
  1  2  3  0
  2  3  1  0
  3  4  2  0
  3  5  1  0
  4  6  1  0
  4  7  1  0
  5  8  2  0
  8  9  1  0
  7 10  2  0
  8 10  1  0
  9 11  1  0
 11 12  1  0
 12 13  1  0
 13 14  1  0
 14 15  2  0
 14 16  1  0
 15 17  1  0
 16 18  2  0
 17 19  2  0
 18 19  1  0
 19 20  1  0
 20 21  2  0
 20 22  1  0
M  END
