diamond-x0592_0_A-diamond-x0849_0_A
     RDKit          3D

 20 22  0  0  0  0  0  0  0  0999 V2000
   -3.3190   14.1530   -2.2450 N   0  0  0  0  0  0  0  0  0  0  0  0
   -3.9400   15.2470   -1.5570 C   0  0  1  0  0  0  0  0  0  0  0  0
   -5.3740   15.0950   -1.2150 C   0  0  0  0  0  0  0  0  0  0  0  0
   -3.5140   15.1700   -0.2140 C   0  0  0  0  0  0  0  0  0  0  0  0
   -6.5120   15.3120   -1.9910 C   0  0  0  0  0  0  0  0  0  0  0  0
   -5.9090   14.6900    0.0220 C   0  0  0  0  0  0  0  0  0  0  0  0
   -2.2760   14.7470    0.2090 C   0  0  0  0  0  0  0  0  0  0  0  0
   -4.5030   15.5400    0.6700 C   0  0  0  0  0  0  0  0  0  0  0  0
   -7.6470   15.0830   -1.3360 N   0  0  0  0  0  0  0  0  0  0  0  0
   -7.2600   14.7130   -0.1130 N   0  0  0  0  0  0  0  0  0  0  0  0
   -2.1390   14.7030    1.5660 C   0  0  0  0  0  0  0  0  0  0  0  0
   -4.2350   15.4580    1.9810 C   0  0  0  0  0  0  0  0  0  0  0  0
   -1.1720   14.3590   -0.5810 C   0  0  0  0  0  0  0  0  0  0  0  0
   -8.2700   14.4010    0.8840 C   0  0  0  0  0  0  0  0  0  0  0  0
   -3.0600   15.0340    2.4070 N   0  0  0  0  0  0  0  0  0  0  0  0
   -1.0830   14.3200    2.1320 N   0  0  0  0  0  0  0  0  0  0  0  0
   -0.0200   13.9440    0.0510 C   0  0  0  0  0  0  0  0  0  0  0  0
   -7.6950   13.8840    2.1960 C   0  0  0  0  0  0  0  0  0  0  0  0
   -0.0740   13.9480    1.4210 C   0  0  0  0  0  0  0  0  0  0  0  0
   -7.2720   14.9460    3.0490 O   0  0  0  0  0  0  0  0  0  0  0  0
  2  1  1  6
  2  3  1  0
  2  4  1  0
  3  5  1  0
  3  6  2  0
  4  7  1  0
  4  8  2  0
  5  9  2  0
  6 10  1  0
  9 10  1  0
  7 11  2  0
  8 12  1  0
  7 13  1  0
 10 14  1  0
 11 15  1  0
 12 15  2  0
 11 16  1  0
 13 17  2  0
 14 18  1  0
 16 19  2  0
 17 19  1  0
 18 20  1  0
M  END
