diamond-x0849_0_A-diamond-x0967_0_A
     RDKit          3D

 16 18  0  0  0  0  0  0  0  0999 V2000
   -3.3980   15.3000   -2.9310 Br  0  0  0  0  0  0  0  0  0  0  0  0
   -3.5680   14.8070   -1.0410 C   0  0  1  0  0  0  0  0  0  0  0  0
   -2.2930   14.7170   -0.2900 C   0  0  0  0  0  0  0  0  0  0  0  0
   -4.5700   15.6090   -0.2150 C   0  0  0  0  0  0  0  0  0  0  0  0
   -2.4230   14.5480    1.0770 C   0  0  0  0  0  0  0  0  0  0  0  0
   -4.9070   14.7040    0.9580 C   0  0  2  0  0  0  0  0  0  0  0  0
   -1.0070   14.7890   -0.8460 C   0  0  0  0  0  0  0  0  0  0  0  0
   -3.6590   14.4520    1.6850 N   0  0  0  0  0  0  0  0  0  0  0  0
   -1.3800   14.4630    1.8890 N   0  0  0  0  0  0  0  0  0  0  0  0
    0.0890   14.6960   -0.0000 C   0  0  0  0  0  0  0  0  0  0  0  0
   -5.5010   13.4580    0.2260 C   0  0  0  0  0  0  0  0  0  0  0  0
   -5.9610   15.0180    1.9790 C   0  0  0  0  0  0  0  0  0  0  0  0
   -0.1670   14.5370    1.3490 C   0  0  0  0  0  0  0  0  0  0  0  0
   -6.7560   13.8160   -0.4890 N   0  0  0  0  0  0  0  0  0  0  0  0
   -7.2660   14.7880    1.7440 C   0  0  0  0  0  0  0  0  0  0  0  0
   -7.7960   14.2270    0.4590 C   0  0  0  0  0  0  0  0  0  0  0  0
  2  1  1  6
  2  3  1  0
  2  4  1  0
  3  5  2  0
  6  4  1  6
  3  7  1  0
  5  8  1  0
  6  8  1  0
  5  9  1  0
  7 10  2  0
  6 11  1  0
  6 12  1  0
  9 13  2  0
 10 13  1  0
 11 14  1  0
 12 15  2  0
 14 16  1  0
 15 16  1  0
M  END
