diamond-x0724_0_A-mac-x0319
     RDKit          3D

 27 29  0  0  0  0  0  0  0  0999 V2000
   -8.2920   13.8130    4.3410 N   0  0  0  0  0  0  0  0  0  0  0  0
   -8.7460   14.0570    5.7030 C   0  0  0  0  0  0  0  0  0  0  0  0
   -8.5930   14.9420    3.4690 C   0  0  0  0  0  0  0  0  0  0  0  0
   -7.8130   14.8110    2.2050 C   0  0  0  0  0  0  0  0  0  0  0  0
   -6.4500   14.8110    2.0490 C   0  0  0  0  0  0  0  0  0  0  0  0
   -8.2870   14.6660    0.8830 C   0  0  0  0  0  0  0  0  0  0  0  0
   -7.3040   14.5880   -0.0320 N   0  0  0  0  0  0  0  0  0  0  0  0
   -6.1570   14.6820    0.7080 N   0  0  0  0  0  0  0  0  0  0  0  0
   -4.8250   14.6580    0.2000 C   0  0  0  0  0  0  0  0  0  0  0  0
   -3.8260   14.7830    1.1510 C   0  0  0  0  0  0  0  0  0  0  0  0
   -4.4620   14.5160   -1.1590 C   0  0  0  0  0  0  0  0  0  0  0  0
   -2.4940   14.7660    0.8000 C   0  0  0  0  0  0  0  0  0  0  0  0
   -3.0810   14.5000   -1.5160 C   0  0  0  0  0  0  0  0  0  0  0  0
   -2.0820   14.6240   -0.5080 C   0  0  0  0  0  0  0  0  0  0  0  0
   -0.5580   14.6270   -0.6660 C   0  0  0  0  0  0  0  0  0  0  0  0
    0.0850   13.8630   -1.8120 C   0  0  0  0  0  0  0  0  0  0  0  0
    0.1130   12.4230   -1.5520 N   0  0  0  0  0  0  0  0  0  0  0  0
    0.5570   11.6980   -2.5150 C   0  0  0  0  0  0  0  0  0  0  0  0
    0.5860   10.3450   -2.4210 O   0  0  0  0  0  0  0  0  0  0  0  0
    1.0650   12.3000   -3.8330 C   0  0  0  0  0  0  0  0  0  0  0  0
    0.4710   13.6650   -4.1260 C   0  0  0  0  0  0  0  0  0  0  0  0
    1.2190   14.8560   -4.0190 C   0  0  0  0  0  0  0  0  0  0  0  0
   -0.8750   13.7520   -4.5100 C   0  0  0  0  0  0  0  0  0  0  0  0
    0.6020   16.0800   -4.2900 C   0  0  0  0  0  0  0  0  0  0  0  0
   -1.4680   14.9870   -4.7790 C   0  0  0  0  0  0  0  0  0  0  0  0
    1.3130   17.2380   -4.1760 O   0  0  0  0  0  0  0  0  0  0  0  0
   -0.7260   16.1530   -4.6670 C   0  0  0  0  0  0  0  0  0  0  0  0
  1  2  1  0
  1  3  1  0
  3  4  1  0
  4  5  2  0
  4  6  1  0
  6  7  2  0
  5  8  1  0
  7  8  1  0
  8  9  1  0
  9 10  2  0
  9 11  1  0
 10 12  1  0
 11 13  2  0
 12 14  2  0
 13 14  1  0
 14 15  1  0
 15 16  1  0
 16 17  1  0
 17 18  2  3
 18 19  1  0
 18 20  1  0
 20 21  1  0
 21 22  2  0
 21 23  1  0
 22 24  1  0
 23 25  2  0
 24 26  1  0
 24 27  2  0
 25 27  1  0
M  END
