diamond-x0290_0_A-diamond-x0685_0_A
     RDKit          3D

 22 23  0  0  0  0  0  0  0  0999 V2000
   -7.7320   14.3570    2.0550 N   0  0  0  0  0  0  0  0  0  0  0  0
   -8.6330   15.1210    1.1760 C   0  0  0  0  0  0  0  0  0  0  0  0
   -6.5650   13.7960    1.3100 C   0  0  2  0  0  0  0  0  0  0  0  0
   -7.4150   15.0690    3.2940 C   0  0  0  0  0  0  0  0  0  0  0  0
   -5.2230   13.3840    1.9050 C   0  0  0  0  0  0  0  0  0  0  0  0
   -5.8510   14.3970    0.2070 C   0  0  0  0  0  0  0  0  0  0  0  0
   -5.1680   12.2580    2.3220 O   0  0  0  0  0  0  0  0  0  0  0  0
   -4.0330   14.1090    1.9000 N   0  0  0  0  0  0  0  0  0  0  0  0
   -4.8050   15.2490    0.4480 C   0  0  0  0  0  0  0  0  0  0  0  0
   -6.2490   13.9990   -0.9970 N   0  0  0  0  0  0  0  0  0  0  0  0
   -2.8400   14.2390    1.1280 C   0  0  0  0  0  0  0  0  0  0  0  0
   -4.1010   15.6700   -0.6270 C   0  0  0  0  0  0  0  0  0  0  0  0
   -5.5350   14.4350   -2.0280 C   0  0  0  0  0  0  0  0  0  0  0  0
   -1.7420   14.4040    1.9020 N   0  0  0  0  0  0  0  0  0  0  0  0
   -2.7000   14.2120   -0.2590 C   0  0  0  0  0  0  0  0  0  0  0  0
   -4.4480   15.2490   -1.8910 C   0  0  0  0  0  0  0  0  0  0  0  0
   -3.7150   15.6140   -3.0400 C   0  0  0  0  0  0  0  0  0  0  0  0
   -0.5340   14.5420    1.3140 C   0  0  0  0  0  0  0  0  0  0  0  0
   -1.4350   14.3620   -0.8580 C   0  0  0  0  0  0  0  0  0  0  0  0
   -1.2760   14.3380   -2.3480 C   0  0  0  0  0  0  0  0  0  0  0  0
   -3.0900   15.8470   -3.9830 N   0  0  0  0  0  0  0  0  0  0  0  0
   -0.3260   14.5320   -0.0420 C   0  0  0  0  0  0  0  0  0  0  0  0
  1  2  1  0
  1  3  1  0
  1  4  1  0
  3  5  1  1
  3  6  1  0
  5  7  2  0
  5  8  1  0
  6  9  2  0
  6 10  1  0
  8 11  1  0
  9 12  1  0
 10 13  2  0
 11 14  2  0
 11 15  1  0
 12 16  2  0
 13 16  1  0
 16 17  1  0
 14 18  1  0
 15 19  2  0
 19 20  1  0
 17 21  3  0
 18 22  2  0
 19 22  1  0
M  END
