diamond-x0626_0_A-mac-x0302
     RDKit          3D

 23 24  0  0  0  0  0  0  0  0999 V2000
   -5.0030   13.7620    1.7670 N   0  0  0  0  0  0  0  0  0  0  0  0
   -5.9920   14.7930    1.5660 C   0  0  2  0  0  0  0  0  0  0  0  0
   -7.4670   14.3380    1.7050 C   0  0  0  0  0  0  0  0  0  0  0  0
   -3.7810   13.8280    1.1270 C   0  0  0  0  0  0  0  0  0  0  0  0
   -2.6520   14.2310    1.7340 N   0  0  0  0  0  0  0  0  0  0  0  0
   -3.5630   13.4110   -0.5390 S   0  0  0  0  0  0  0  0  0  0  0  0
   -5.3360   15.0970    0.3020 C   0  0  0  0  0  0  0  0  0  0  0  0
   -8.4050   14.7810    0.5860 C   0  0  0  0  0  0  0  0  0  0  0  0
   -1.9140   13.8060   -0.4450 C   0  0  0  0  0  0  0  0  0  0  0  0
   -1.5980   14.2170    0.8250 C   0  0  0  0  0  0  0  0  0  0  0  0
   -5.8670   14.8730   -0.9520 C   0  0  0  0  0  0  0  0  0  0  0  0
   -4.0460   15.6000    0.4750 C   0  0  0  0  0  0  0  0  0  0  0  0
   -0.2460   14.6160    1.2360 C   0  0  0  0  0  0  0  0  0  0  0  0
   -5.0730   15.1160   -2.0580 C   0  0  0  0  0  0  0  0  0  0  0  0
   -3.2560   15.8360   -0.6170 C   0  0  0  0  0  0  0  0  0  0  0  0
   -3.7610   15.5760   -1.8820 C   0  0  0  0  0  0  0  0  0  0  0  0
   -2.8450   15.7930   -3.0120 C   0  0  0  0  0  0  0  0  0  0  0  0
   -1.5220   15.4770   -2.7680 N   0  0  0  0  0  0  0  0  0  0  0  0
   -3.2540   16.2000   -4.0850 O   0  0  0  0  0  0  0  0  0  0  0  0
   -0.8220   14.5290   -3.6250 C   0  0  0  0  0  0  0  0  0  0  0  0
    0.4950   14.0860   -3.0010 C   0  0  0  0  0  0  0  0  0  0  0  0
    1.5680   14.3310   -3.7790 O   0  0  0  0  0  0  0  0  0  0  0  0
    0.6480   13.5520   -1.9130 O   0  0  0  0  0  0  0  0  0  0  0  0
  1  2  1  0
  2  3  1  6
  1  4  1  0
  4  5  2  0
  4  6  1  0
  2  7  1  0
  3  8  1  0
  6  9  1  0
  5 10  1  0
  9 10  2  0
  7 11  2  0
  7 12  1  0
 10 13  1  0
 11 14  1  0
 12 15  2  0
 14 16  2  0
 15 16  1  0
 16 17  1  0
 17 18  1  0
 17 19  2  0
 18 20  1  0
 20 21  1  0
 21 22  1  0
 21 23  2  0
M  END
