diamond-x0465_0_A-mac-x0277
     RDKit          3D

 21 22  0  0  0  0  0  0  0  0999 V2000
    2.5270   12.9180   -4.7380 C   0  0  0  0  0  0  0  0  0  0  0  0
    1.0160   12.7160   -4.5250 C   0  0  1  0  0  0  0  0  0  0  0  0
    0.6320   11.7880   -5.5900 O   0  0  0  0  0  0  0  0  0  0  0  0
    0.8780   12.1190   -3.0900 C   0  0  0  0  0  0  0  0  0  0  0  0
    0.4530   14.1600   -4.6750 C   0  0  0  0  0  0  0  0  0  0  0  0
    1.0620   12.7060   -2.0370 O   0  0  0  0  0  0  0  0  0  0  0  0
    0.5300   10.8130   -3.0340 O   0  0  0  0  0  0  0  0  0  0  0  0
   -0.5430   11.0650   -5.6330 C   0  0  0  0  0  0  0  0  0  0  0  0
   -0.9040   14.3620   -4.9580 C   0  0  0  0  0  0  0  0  0  0  0  0
    1.2550   15.3170   -4.5380 C   0  0  0  0  0  0  0  0  0  0  0  0
   -0.6000   10.0160   -6.5820 C   0  0  0  0  0  0  0  0  0  0  0  0
   -1.6700   11.2720   -4.8360 C   0  0  0  0  0  0  0  0  0  0  0  0
   -1.4420   15.6430   -5.1010 C   0  0  0  0  0  0  0  0  0  0  0  0
    0.7180   16.6040   -4.6850 C   0  0  0  0  0  0  0  0  0  0  0  0
    0.4410    9.7540   -7.3900 F   0  0  0  0  0  0  0  0  0  0  0  0
   -3.1250   15.7520   -5.4500 Cl  0  0  0  0  0  0  0  0  0  0  0  0
   -1.7270    9.2110   -6.7240 C   0  0  0  0  0  0  0  0  0  0  0  0
   -2.8070   10.4630   -4.9800 C   0  0  0  0  0  0  0  0  0  0  0  0
   -0.6330   16.7680   -4.9710 C   0  0  0  0  0  0  0  0  0  0  0  0
   -1.2440   18.3690   -5.1530 Cl  0  0  0  0  0  0  0  0  0  0  0  0
   -2.8360    9.4360   -5.9200 C   0  0  0  0  0  0  0  0  0  0  0  0
  2  1  1  6
  2  3  1  0
  2  4  1  0
  2  5  1  0
  4  6  2  0
  4  7  1  0
  3  8  1  0
  5  9  2  0
  5 10  1  0
  8 11  2  0
  8 12  1  0
  9 13  1  0
 10 14  2  0
 11 15  1  0
 13 16  1  0
 11 17  1  0
 12 18  2  0
 13 19  2  0
 14 19  1  0
 19 20  1  0
 17 21  2  0
 18 21  1  0
M  END
