diamond-x0421_0_A-mac-x0182
     RDKit          3D

 25 28  0  0  0  0  0  0  0  0999 V2000
   -4.0610   15.3410   -2.7410 N   0  0  0  0  0  0  0  0  0  0  0  0
   -3.0580   14.9870   -1.8920 C   0  0  0  0  0  0  0  0  0  0  0  0
   -1.8920   14.7630   -2.3680 N   0  0  0  0  0  0  0  0  0  0  0  0
   -3.5480   14.9340   -0.5150 C   0  0  0  0  0  0  0  0  0  0  0  0
   -1.6390   14.8930   -3.7980 C   0  0  0  0  0  0  0  0  0  0  0  0
   -2.8840   15.0130    0.6920 C   0  0  0  0  0  0  0  0  0  0  0  0
   -4.9130   14.7800   -0.2830 N   0  0  0  0  0  0  0  0  0  0  0  0
   -0.8690   13.6910   -4.3460 C   0  0  0  0  0  0  0  0  0  0  0  0
   -3.8510   14.9050    1.6500 N   0  0  0  0  0  0  0  0  0  0  0  0
   -5.0500   14.7650    1.0200 C   0  0  0  0  0  0  0  0  0  0  0  0
   -1.5480   12.3930   -4.1190 N   0  0  0  0  0  0  0  0  0  0  0  0
   -6.4160   14.6050    1.7350 C   0  0  0  0  0  0  0  0  0  0  0  0
   -7.6990   14.6470    0.9500 C   0  0  0  0  0  0  0  0  0  0  0  0
   -7.2230   13.3490    1.5410 C   0  0  0  0  0  0  0  0  0  0  0  0
   -0.6470   11.1810   -4.2700 S   0  0  2  0  0  0  0  0  0  0  0  0
   -0.0730   10.3520   -3.2380 O   0  0  0  0  0  0  0  0  0  0  0  0
    0.6520   11.9220   -5.0310 N   0  0  0  0  0  0  0  0  0  0  0  0
   -1.1020   10.2100   -5.6320 C   0  0  0  0  0  0  0  0  0  0  0  0
    0.7920   11.4870   -6.3200 C   0  0  0  0  0  0  0  0  0  0  0  0
   -0.2310   10.4810   -6.6800 C   0  0  0  0  0  0  0  0  0  0  0  0
   -2.1370    9.3000   -5.7320 C   0  0  0  0  0  0  0  0  0  0  0  0
    1.6590   11.8350   -7.0690 O   0  0  0  0  0  0  0  0  0  0  0  0
   -2.2860    8.6390   -6.9550 C   0  0  0  0  0  0  0  0  0  0  0  0
   -0.3710    9.8320   -7.8990 C   0  0  0  0  0  0  0  0  0  0  0  0
   -1.4100    8.9020   -8.0290 C   0  0  0  0  0  0  0  0  0  0  0  0
  1  2  1  0
  2  3  2  3
  2  4  1  0
  3  5  1  0
  4  6  2  0
  4  7  1  0
  5  8  1  0
  6  9  1  0
  7 10  2  0
  9 10  1  0
  8 11  1  0
 10 12  1  0
 12 13  1  0
 12 14  1  0
 13 14  1  0
 11 15  2  0
 15 16  2  0
 15 17  1  6
 15 18  1  0
 17 19  1  0
 18 20  2  0
 19 20  1  0
 18 21  1  0
 19 22  2  0
 21 23  2  0
 20 24  1  0
 23 25  1  0
 24 25  2  0
M  END
