diamond-x0438_0_A-mac-x0357
     RDKit          3D

 27 29  0  0  0  0  0  0  0  0999 V2000
   -8.1820   15.5840    3.9160 C   0  0  0  0  0  0  0  0  0  0  0  0
   -9.4080   15.3770    2.6370 S   0  0  0  0  0  0  0  0  0  0  0  0
  -10.6230   14.8990    3.2730 O   0  0  0  0  0  0  0  0  0  0  0  0
   -8.8160   14.0400    1.6230 C   0  0  0  0  0  0  0  0  0  0  0  0
   -9.4690   16.5650    1.8120 O   0  0  0  0  0  0  0  0  0  0  0  0
   -7.4930   14.3110    1.0090 C   0  0  0  0  0  0  0  0  0  0  0  0
   -7.3240   14.9030   -0.2240 N   0  0  0  0  0  0  0  0  0  0  0  0
   -6.3330   14.0150    1.5440 N   0  0  0  0  0  0  0  0  0  0  0  0
   -5.3880   14.4020    0.6370 C   0  0  0  0  0  0  0  0  0  0  0  0
   -5.9790   14.9670   -0.4810 C   0  0  0  0  0  0  0  0  0  0  0  0
   -5.2590   15.4520   -1.5680 C   0  0  0  0  0  0  0  0  0  0  0  0
   -4.0010   14.2910    0.7020 C   0  0  0  0  0  0  0  0  0  0  0  0
   -3.8730   15.3290   -1.4960 C   0  0  0  0  0  0  0  0  0  0  0  0
   -3.2480   14.7510   -0.3850 C   0  0  0  0  0  0  0  0  0  0  0  0
   -1.7650   14.6020   -0.3720 C   0  0  0  0  0  0  0  0  0  0  0  0
   -1.2560   14.3820   -1.8000 C   0  0  0  0  0  0  0  0  0  0  0  0
    0.0630   13.8430   -1.7050 N   0  0  0  0  0  0  0  0  0  0  0  0
    0.6840   13.0740   -2.4980 C   0  0  0  0  0  0  0  0  0  0  0  0
    1.9130   12.6540   -2.2260 O   0  0  0  0  0  0  0  0  0  0  0  0
    0.2650   12.4910   -3.7980 C   0  0  0  0  0  0  0  0  0  0  0  0
    1.1870   12.4310   -4.8540 C   0  0  0  0  0  0  0  0  0  0  0  0
   -1.0400   11.9870   -3.9650 C   0  0  0  0  0  0  0  0  0  0  0  0
    2.5820   12.9710   -4.6890 C   0  0  0  0  0  0  0  0  0  0  0  0
   -1.4240   11.4180   -5.1890 C   0  0  0  0  0  0  0  0  0  0  0  0
    0.7780   11.8500   -6.0600 C   0  0  0  0  0  0  0  0  0  0  0  0
    1.6780   11.7680   -7.0750 O   0  0  0  0  0  0  0  0  0  0  0  0
   -0.5100   11.3490   -6.2360 C   0  0  0  0  0  0  0  0  0  0  0  0
  2  1  1  0
  2  3  2  0
  2  4  1  0
  2  5  2  0
  4  6  1  0
  6  7  1  0
  6  8  2  0
  8  9  1  0
  7 10  1  0
  9 10  2  0
 10 11  1  0
  9 12  1  0
 11 13  2  0
 12 14  2  0
 13 14  1  0
 14 15  1  0
 15 16  1  0
 16 17  1  0
 17 18  2  3
 18 19  1  0
 18 20  1  0
 20 21  2  0
 20 22  1  0
 21 23  1  0
 22 24  2  0
 21 25  1  0
 25 26  1  0
 24 27  1  0
 25 27  2  0
M  END
