diamond-x1015_0_A-mac-x0509
     RDKit          3D

 25 28  0  0  0  0  0  0  0  0999 V2000
   -1.1080   14.3840   -4.2600 C   0  0  0  0  0  0  0  0  0  0  0  0
    0.2350   13.7820   -3.8530 C   0  0  2  0  0  0  0  0  0  0  0  0
    0.2550   12.3220   -3.8780 N   0  0  0  0  0  0  0  0  0  0  0  0
    0.4520   14.0490   -2.3800 C   0  0  0  0  0  0  0  0  0  0  0  0
    0.4960   15.1490   -1.8530 O   0  0  0  0  0  0  0  0  0  0  0  0
    0.3550   11.8190   -2.5710 C   0  0  0  0  0  0  0  0  0  0  0  0
    0.5850   12.8700   -1.7340 N   0  0  0  0  0  0  0  0  0  0  0  0
   -0.4410   11.6650   -4.9030 C   0  0  0  0  0  0  0  0  0  0  0  0
    0.2620   10.6520   -2.1720 O   0  0  0  0  0  0  0  0  0  0  0  0
   -0.0820   11.8370   -6.2460 C   0  0  0  0  0  0  0  0  0  0  0  0
   -1.5150   10.8330   -4.5960 C   0  0  0  0  0  0  0  0  0  0  0  0
   -0.7910   11.1940   -7.2540 C   0  0  0  0  0  0  0  0  0  0  0  0
   -2.2220   10.1940   -5.5940 C   0  0  0  0  0  0  0  0  0  0  0  0
   -1.8690   10.3720   -6.9160 C   0  0  0  0  0  0  0  0  0  0  0  0
   -2.6580    9.6670   -7.9500 C   0  0  0  0  0  0  0  0  0  0  0  0
   -1.9320    8.4110   -8.2280 C   0  0  2  0  0  0  0  0  0  0  0  0
   -1.4260    7.7900   -6.9110 C   0  0  0  0  0  0  0  0  0  0  0  0
   -0.6510    8.6920   -8.9220 C   0  0  0  0  0  0  0  0  0  0  0  0
   -2.0160    7.7430   -5.8440 O   0  0  0  0  0  0  0  0  0  0  0  0
    0.3640    7.9940   -8.2830 C   0  0  0  0  0  0  0  0  0  0  0  0
   -0.1570    7.3020   -7.1970 N   0  0  0  0  0  0  0  0  0  0  0  0
   -0.4010    9.4850  -10.0220 C   0  0  0  0  0  0  0  0  0  0  0  0
    0.9070    9.5540  -10.4870 C   0  0  0  0  0  0  0  0  0  0  0  0
    1.6570    8.0420   -8.7320 C   0  0  0  0  0  0  0  0  0  0  0  0
    1.9190    8.8320   -9.8510 C   0  0  0  0  0  0  0  0  0  0  0  0
  2  1  1  1
  2  3  1  0
  2  4  1  0
  4  5  2  0
  3  6  1  0
  4  7  1  0
  6  7  1  0
  3  8  1  0
  6  9  2  0
  8 10  2  0
  8 11  1  0
 10 12  1  0
 11 13  2  0
 12 14  2  0
 13 14  1  0
 14 15  1  0
 16 15  1  1
 16 17  1  0
 16 18  1  0
 17 19  2  0
 18 20  2  0
 17 21  1  0
 20 21  1  0
 18 22  1  0
 22 23  2  0
 20 24  1  0
 23 25  1  0
 24 25  2  0
M  END
