diamond-x1018_0_A-mac-x0303
     RDKit          3D

 13 14  0  0  0  0  0  0  0  0999 V2000
   -7.9530   14.4180    1.6720 C   0  0  0  0  0  0  0  0  0  0  0  0
   -8.1990   13.0210    1.9200 N   0  0  0  0  0  0  0  0  0  0  0  0
   -7.8450   14.9840    2.9500 O   0  0  0  0  0  0  0  0  0  0  0  0
   -9.1000   14.9150    1.0580 O   0  0  0  0  0  0  0  0  0  0  0  0
   -6.5980   14.5990    0.8540 C   0  0  0  0  0  0  0  0  0  0  0  0
   -6.5360   14.5750   -0.4590 N   0  0  0  0  0  0  0  0  0  0  0  0
   -5.4100   14.7990    1.7370 C   0  0  0  0  0  0  0  0  0  0  0  0
   -5.2530   14.7270   -0.9230 N   0  0  0  0  0  0  0  0  0  0  0  0
   -4.2010   14.9300    1.1970 C   0  0  0  0  0  0  0  0  0  0  0  0
   -4.9350   14.7280   -2.2240 N   0  0  0  0  0  0  0  0  0  0  0  0
   -4.0880   14.8940   -0.1970 C   0  0  0  0  0  0  0  0  0  0  0  0
   -3.0720   14.9880   -1.0200 N   0  0  0  0  0  0  0  0  0  0  0  0
   -3.6140   14.8850   -2.2770 N   0  0  0  0  0  0  0  0  0  0  0  0
  1  2  1  0
  1  3  1  0
  1  4  1  0
  1  5  1  0
  5  6  2  0
  5  7  1  0
  6  8  1  0
  7  9  2  0
  8 10  1  0
  8 11  1  0
  9 11  1  0
 11 12  2  0
 10 13  2  0
 12 13  1  0
M  END
