diamond-x0895_1_A-mac-x0282
     RDKit          3D

 11 12  0  0  0  0  0  0  0  0999 V2000
   -2.3130   13.7980    2.0100 O   0  0  0  0  0  0  0  0  0  0  0  0
   -2.5520   14.7750    1.0800 C   0  0  1  0  0  0  0  0  0  0  0  0
   -2.7660   14.3430   -0.4110 C   0  0  1  0  0  0  0  0  0  0  0  0
   -3.8310   15.1880    1.5070 N   0  0  0  0  0  0  0  0  0  0  0  0
   -1.4360   15.6010    1.3010 N   0  0  0  0  0  0  0  0  0  0  0  0
   -3.9180   15.1180   -0.7530 N   0  0  0  0  0  0  0  0  0  0  0  0
   -4.6960   15.0540    0.4170 C   0  0  0  0  0  0  0  0  0  0  0  0
   -1.5220   14.3850   -1.2640 C   0  0  0  0  0  0  0  0  0  0  0  0
   -0.2450   14.8910    0.8220 C   0  0  0  0  0  0  0  0  0  0  0  0
   -5.9050   14.9000    0.4740 O   0  0  0  0  0  0  0  0  0  0  0  0
   -0.3370   14.6350   -0.6570 C   0  0  0  0  0  0  0  0  0  0  0  0
  2  1  1  1
  2  3  1  0
  2  4  1  0
  2  5  1  0
  3  6  1  0
  4  7  1  0
  6  7  1  0
  3  8  1  6
  5  9  1  0
  7 10  2  0
  8 11  2  0
  9 11  1  0
M  END
