diamond-x0282_0_A-mac-x0365
     RDKit          3D

 18 19  0  0  0  0  0  0  0  0999 V2000
   -7.5860   14.6740   -0.0400 C   0  0  0  0  0  0  0  0  0  0  0  0
   -8.4450   14.4890    1.0640 O   0  0  0  0  0  0  0  0  0  0  0  0
   -6.1430   14.2120    0.1880 C   0  0  2  0  0  0  0  0  0  0  0  0
   -5.3820   14.8940    1.3430 C   0  0  0  0  0  0  0  0  0  0  0  0
   -5.3530   14.4030   -1.1220 C   0  0  1  0  0  0  0  0  0  0  0  0
   -6.0310   15.2460   -1.9600 F   0  0  0  0  0  0  0  0  0  0  0  0
   -4.0330   14.2260    1.5630 C   0  0  0  0  0  0  0  0  0  0  0  0
   -3.9160   14.8830   -0.8790 C   0  0  2  0  0  0  0  0  0  0  0  0
   -3.0180   14.8020   -2.1680 C   0  0  0  0  0  0  0  0  0  0  0  0
   -3.3540   14.1330    0.2780 N   0  0  0  0  0  0  0  0  0  0  0  0
   -1.6850   14.8040   -1.9220 O   0  0  0  0  0  0  0  0  0  0  0  0
   -3.3480   14.7440   -3.3420 O   0  0  0  0  0  0  0  0  0  0  0  0
   -2.0110   14.3740    0.3230 C   0  0  0  0  0  0  0  0  0  0  0  0
   -1.4680   14.5520   -0.8720 N   0  0  0  0  0  0  0  0  0  0  0  0
   -1.3290   14.4280    1.4760 N   0  0  0  0  0  0  0  0  0  0  0  0
   -0.1880   14.8140   -0.9690 C   0  0  0  0  0  0  0  0  0  0  0  0
   -0.0310   14.6900    1.3190 C   0  0  0  0  0  0  0  0  0  0  0  0
    0.5840   14.9030    0.1020 C   0  0  0  0  0  0  0  0  0  0  0  0
  1  2  1  0
  3  1  1  6
  3  4  1  0
  3  5  1  0
  5  6  1  6
  4  7  1  0
  5  8  1  0
  8  9  1  6
  7 10  1  0
  8 10  1  0
  9 11  1  0
  9 12  2  0
 10 13  1  0
 13 14  2  0
 13 15  1  0
 14 16  1  0
 15 17  2  0
 16 18  2  0
 17 18  1  0
M  END
