diamond-x0722_0_A-mac-x0345
     RDKit          3D

 18 19  0  0  0  0  0  0  0  0999 V2000
   -4.7080   15.3500    1.6710 C   0  0  0  0  0  0  0  0  0  0  0  0
   -3.4190   14.8360    1.1720 C   0  0  0  0  0  0  0  0  0  0  0  0
   -2.3050   14.8950    1.8720 N   0  0  0  0  0  0  0  0  0  0  0  0
   -5.3090   15.2680    0.3150 C   0  0  0  0  0  0  0  0  0  0  0  0
   -3.2070   14.2330   -0.1050 C   0  0  0  0  0  0  0  0  0  0  0  0
   -6.5890   14.8110    0.0110 C   0  0  0  0  0  0  0  0  0  0  0  0
   -4.5000   15.6590   -0.7400 C   0  0  0  0  0  0  0  0  0  0  0  0
   -4.1780   13.9570   -1.2060 C   0  0  0  0  0  0  0  0  0  0  0  0
   -1.8720   13.9490   -0.1320 C   0  0  0  0  0  0  0  0  0  0  0  0
   -1.3940   14.3580    1.0650 N   0  0  0  0  0  0  0  0  0  0  0  0
   -4.9570   15.5650   -2.0380 C   0  0  0  0  0  0  0  0  0  0  0  0
   -7.0620   14.7180   -1.2610 N   0  0  0  0  0  0  0  0  0  0  0  0
   -0.0440   14.2470    1.4850 C   0  0  0  0  0  0  0  0  0  0  0  0
   -1.0330   13.3320   -1.1830 C   0  0  0  0  0  0  0  0  0  0  0  0
   -5.1430   12.7840   -0.9600 C   0  0  0  0  0  0  0  0  0  0  0  0
   -6.2320   15.0840   -2.2530 C   0  0  0  0  0  0  0  0  0  0  0  0
   -5.6420   12.6890    0.4110 N   0  0  0  0  0  0  0  0  0  0  0  0
   -6.7040   14.9490   -3.5460 N   0  0  0  0  0  0  0  0  0  0  0  0
  1  2  1  0
  2  3  2  0
  1  4  1  0
  2  5  1  0
  4  6  2  0
  4  7  1  0
  5  8  1  0
  5  9  2  0
  3 10  1  0
  9 10  1  0
  7 11  2  0
  6 12  1  0
 10 13  1  0
  9 14  1  0
  8 15  1  0
 11 16  1  0
 12 16  2  0
 15 17  1  0
 16 18  1  0
M  END
