diamond-x0465_0_A-diamond-x0910_0_A
     RDKit          3D

 21 22  0  0  0  0  0  0  0  0999 V2000
    2.4450   12.9450   -4.6970 C   0  0  0  0  0  0  0  0  0  0  0  0
    0.9740   12.5790   -4.8820 C   0  0  1  0  0  0  0  0  0  0  0  0
    0.8390   11.5300   -5.8510 O   0  0  0  0  0  0  0  0  0  0  0  0
    0.3460   12.2100   -3.5500 C   0  0  0  0  0  0  0  0  0  0  0  0
   -0.2330   12.9860   -2.7400 N   0  0  0  0  0  0  0  0  0  0  0  0
    0.3690   10.9040   -3.2030 O   0  0  0  0  0  0  0  0  0  0  0  0
   -0.3700   10.8490   -5.8880 C   0  0  0  0  0  0  0  0  0  0  0  0
   -0.8870   12.4040   -1.5840 C   0  0  0  0  0  0  0  0  0  0  0  0
   -0.5550    9.7050   -6.6700 C   0  0  0  0  0  0  0  0  0  0  0  0
   -1.4470   11.3170   -5.1210 C   0  0  0  0  0  0  0  0  0  0  0  0
    0.4440    9.2230   -7.4220 F   0  0  0  0  0  0  0  0  0  0  0  0
   -2.3810   12.7650   -1.7890 C   0  0  0  0  0  0  0  0  0  0  0  0
   -1.7710    9.0320   -6.6930 C   0  0  0  0  0  0  0  0  0  0  0  0
   -2.6750   10.6400   -5.1430 C   0  0  0  0  0  0  0  0  0  0  0  0
   -2.5410   14.1820   -1.4830 N   0  0  0  0  0  0  0  0  0  0  0  0
   -2.8360    9.4990   -5.9270 C   0  0  0  0  0  0  0  0  0  0  0  0
   -1.6940   14.5540   -0.5240 C   0  0  0  0  0  0  0  0  0  0  0  0
   -2.0960   14.6420    0.7730 N   0  0  0  0  0  0  0  0  0  0  0  0
   -0.4230   14.8650   -0.6140 N   0  0  0  0  0  0  0  0  0  0  0  0
   -1.0800   15.0070    1.5530 N   0  0  0  0  0  0  0  0  0  0  0  0
   -0.0890   15.1340    0.6760 C   0  0  0  0  0  0  0  0  0  0  0  0
  2  1  1  1
  2  3  1  0
  2  4  1  0
  4  5  2  3
  4  6  1  0
  3  7  1  0
  5  8  1  0
  7  9  2  0
  7 10  1  0
  9 11  1  0
  8 12  1  0
  9 13  1  0
 10 14  2  0
 12 15  1  0
 13 16  2  0
 14 16  1  0
 15 17  1  0
 17 18  1  0
 17 19  2  0
 18 20  1  0
 19 21  1  0
 20 21  2  0
M  END
