diamond-x0900_1_A-diamond-x0711_0_A
     RDKit          3D

 22 23  0  0  0  0  0  0  0  0999 V2000
   -1.0910   10.1370   -9.4840 O   0  0  0  0  0  0  0  0  0  0  0  0
   -0.8480    9.7170   -8.3640 C   0  0  0  0  0  0  0  0  0  0  0  0
    0.1290    8.8120   -8.0480 N   0  0  0  0  0  0  0  0  0  0  0  0
   -1.5530   10.0790   -7.0670 C   0  0  2  0  0  0  0  0  0  0  0  0
   -0.9030   11.3490   -6.4380 C   0  0  0  0  0  0  0  0  0  0  0  0
   -1.3660    8.7810   -6.2490 C   0  0  0  0  0  0  0  0  0  0  0  0
   -0.2760    7.9880   -6.9560 C   0  0  0  0  0  0  0  0  0  0  0  0
   -0.9400   11.4650   -4.8920 C   0  0  0  0  0  0  0  0  0  0  0  0
   -1.6460   12.7350   -4.3570 C   0  0  0  0  0  0  0  0  0  0  0  0
   -0.6020   13.7430   -3.2730 S   0  0  0  0  0  0  0  0  0  0  0  0
   -1.6090   14.9890   -2.7390 N   0  0  0  0  0  0  0  0  0  0  0  0
    0.4360   14.3490   -4.0760 O   0  0  0  0  0  0  0  0  0  0  0  0
   -0.2660   12.9810   -2.0860 O   0  0  0  0  0  0  0  0  0  0  0  0
   -2.7790   14.8700   -1.9160 C   0  0  0  0  0  0  0  0  0  0  0  0
   -4.0120   15.1270   -2.5130 C   0  0  0  0  0  0  0  0  0  0  0  0
   -2.7340   14.5250   -0.5550 C   0  0  0  0  0  0  0  0  0  0  0  0
   -5.1940   15.0460   -1.7750 C   0  0  0  0  0  0  0  0  0  0  0  0
   -3.9210   14.4420    0.1910 C   0  0  0  0  0  0  0  0  0  0  0  0
   -5.1620   14.7030   -0.4160 C   0  0  0  0  0  0  0  0  0  0  0  0
   -6.4170   14.6110    0.3840 C   0  0  0  0  0  0  0  0  0  0  0  0
   -6.3620   14.7220    1.7500 N   0  0  0  0  0  0  0  0  0  0  0  0
   -7.5010   14.4550   -0.1670 O   0  0  0  0  0  0  0  0  0  0  0  0
  1  2  2  0
  2  3  1  0
  2  4  1  0
  4  5  1  1
  4  6  1  0
  3  7  1  0
  6  7  1  0
  5  8  1  0
  8  9  1  0
  9 10  1  0
 10 11  1  0
 10 12  2  0
 10 13  2  0
 11 14  1  0
 14 15  2  0
 14 16  1  0
 15 17  1  0
 16 18  2  0
 17 19  2  0
 18 19  1  0
 19 20  1  0
 20 21  1  0
 20 22  2  0
M  END
