diamond-x1012_0_A-mac-x0555
     RDKit          3D

 25 27  0  0  0  0  0  0  0  0999 V2000
   -0.8880   17.7600   -4.7600 N   0  0  0  0  0  0  0  0  0  0  0  0
   -1.0660   16.4100   -4.9450 C   0  0  0  0  0  0  0  0  0  0  0  0
   -2.0760   15.6800   -4.9560 N   0  0  0  0  0  0  0  0  0  0  0  0
    0.0230   15.6590   -5.1640 N   0  0  0  0  0  0  0  0  0  0  0  0
   -3.3710   16.0860   -4.7530 C   0  0  0  0  0  0  0  0  0  0  0  0
   -0.4060   14.2650   -5.4170 C   0  0  0  0  0  0  0  0  0  0  0  0
    1.1650   15.7640   -4.2380 C   0  0  0  0  0  0  0  0  0  0  0  0
   -4.1380   14.9030   -4.2130 C   0  0  0  0  0  0  0  0  0  0  0  0
   -0.6930   13.5530   -4.1160 C   0  0  0  0  0  0  0  0  0  0  0  0
    1.1120   14.8110   -3.0290 C   0  0  0  0  0  0  0  0  0  0  0  0
    0.6250   13.4010   -3.3970 C   0  0  0  0  0  0  0  0  0  0  0  0
   -4.4120   14.9470   -2.7290 C   0  0  0  0  0  0  0  0  0  0  0  0
    0.4970   12.4440   -2.2310 C   0  0  0  0  0  0  0  0  0  0  0  0
   -5.7280   14.7420   -2.3310 C   0  0  0  0  0  0  0  0  0  0  0  0
   -3.4300   15.1640   -1.7560 C   0  0  0  0  0  0  0  0  0  0  0  0
    0.3420   11.1550   -2.6040 O   0  0  0  0  0  0  0  0  0  0  0  0
    0.5100   12.7270   -1.0530 O   0  0  0  0  0  0  0  0  0  0  0  0
   -6.1070   14.7200   -1.0130 C   0  0  0  0  0  0  0  0  0  0  0  0
   -3.7840   15.1580   -0.4040 C   0  0  0  0  0  0  0  0  0  0  0  0
   -5.1230   14.9250   -0.0350 C   0  0  0  0  0  0  0  0  0  0  0  0
   -7.3990   14.4950   -0.7170 N   0  0  0  0  0  0  0  0  0  0  0  0
   -5.5240   14.8800    1.2950 C   0  0  0  0  0  0  0  0  0  0  0  0
   -7.7450   14.4540    0.5840 C   0  0  0  0  0  0  0  0  0  0  0  0
   -6.8570   14.6330    1.6340 C   0  0  0  0  0  0  0  0  0  0  0  0
   -7.2300   14.5750    2.9710 N   0  0  0  0  0  0  0  0  0  0  0  0
  1  2  1  0
  2  3  2  3
  2  4  1  0
  3  5  1  0
  4  6  1  0
  4  7  1  0
  5  8  1  0
  6  9  1  0
  7 10  1  0
  9 11  1  0
 10 11  1  0
  8 12  1  0
 11 13  1  0
 12 14  2  0
 12 15  1  0
 13 16  1  0
 13 17  2  0
 14 18  1  0
 15 19  2  0
 18 20  2  0
 19 20  1  0
 18 21  1  0
 20 22  1  0
 21 23  2  0
 22 24  2  0
 23 24  1  0
 24 25  1  0
M  END
