diamond-x0290_0_A-mac-x0345
     RDKit          3D

 20 22  0  0  0  0  0  0  0  0999 V2000
   -7.4840   13.6130    1.5080 N   0  0  0  0  0  0  0  0  0  0  0  0
   -7.6320   14.5710    0.4340 C   0  0  0  0  0  0  0  0  0  0  0  0
   -6.4180   14.8180   -0.4730 C   0  0  0  0  0  0  0  0  0  0  0  0
   -6.3520   13.9090    2.3820 C   0  0  0  0  0  0  0  0  0  0  0  0
   -5.0230   13.8000    1.6410 C   0  0  0  0  0  0  0  0  0  0  0  0
   -4.5580   12.7020    1.4240 O   0  0  0  0  0  0  0  0  0  0  0  0
   -4.4460   14.9430    1.1320 N   0  0  0  0  0  0  0  0  0  0  0  0
   -5.0390   15.0040   -0.1280 C   0  0  0  0  0  0  0  0  0  0  0  0
   -6.8010   14.8230   -1.7570 N   0  0  0  0  0  0  0  0  0  0  0  0
   -3.0150   14.7670    0.8620 C   0  0  0  0  0  0  0  0  0  0  0  0
   -4.1470   15.2350   -1.1600 C   0  0  0  0  0  0  0  0  0  0  0  0
   -5.8970   15.0080   -2.7070 C   0  0  0  0  0  0  0  0  0  0  0  0
   -6.3610   14.9470   -4.0030 N   0  0  0  0  0  0  0  0  0  0  0  0
   -2.0490   14.6320    1.8200 N   0  0  0  0  0  0  0  0  0  0  0  0
   -2.6330   14.7270   -0.4880 C   0  0  0  0  0  0  0  0  0  0  0  0
   -4.5700   15.2370   -2.4580 C   0  0  0  0  0  0  0  0  0  0  0  0
   -0.7560   14.4680    1.4200 C   0  0  0  0  0  0  0  0  0  0  0  0
   -1.3040   14.5620   -0.8780 C   0  0  0  0  0  0  0  0  0  0  0  0
   -0.9490   14.5330   -2.3330 C   0  0  0  0  0  0  0  0  0  0  0  0
   -0.3410   14.4300    0.1070 C   0  0  0  0  0  0  0  0  0  0  0  0
  1  2  1  0
  2  3  1  0
  1  4  1  0
  4  5  1  0
  5  6  2  0
  5  7  1  0
  3  8  2  0
  7  8  1  0
  3  9  1  0
  7 10  1  0
  8 11  1  0
  9 12  2  0
 12 13  1  0
 10 14  2  0
 10 15  1  0
 11 16  2  0
 12 16  1  0
 14 17  1  0
 15 18  2  0
 18 19  1  0
 17 20  2  0
 18 20  1  0
M  END
