diamond-x0805_0_A-mac-x0178
     RDKit          3D

 21 22  0  0  0  0  0  0  0  0999 V2000
   -4.3760   15.4580    0.7000 C   0  0  0  0  0  0  0  0  0  0  0  0
   -3.1220   15.3890    0.0390 O   0  0  0  0  0  0  0  0  0  0  0  0
   -3.0430   14.7510   -1.1690 C   0  0  0  0  0  0  0  0  0  0  0  0
   -4.1690   14.0290   -1.5610 C   0  0  0  0  0  0  0  0  0  0  0  0
   -1.9300   14.7790   -2.0070 C   0  0  0  0  0  0  0  0  0  0  0  0
   -4.1770   13.3460   -2.7780 C   0  0  0  0  0  0  0  0  0  0  0  0
   -1.9120   14.1080   -3.2310 C   0  0  0  0  0  0  0  0  0  0  0  0
   -3.0550   13.3880   -3.6060 C   0  0  0  0  0  0  0  0  0  0  0  0
   -0.7010   14.1280   -4.1530 C   0  0  2  0  0  0  0  0  0  0  0  0
    0.5590   13.6090   -3.4160 C   0  0  1  0  0  0  0  0  0  0  0  0
   -0.2380   15.4510   -4.8580 C   0  0  1  0  0  0  0  0  0  0  0  0
    0.3970   12.3480   -2.6000 C   0  0  0  0  0  0  0  0  0  0  0  0
   -1.4190   16.8140   -5.3230 S   0  0  0  0  0  0  0  0  0  0  0  0
    1.7430   13.5170   -4.3510 C   0  0  0  0  0  0  0  0  0  0  0  0
    1.1470   15.8740   -4.3510 C   0  0  0  0  0  0  0  0  0  0  0  0
    0.3120   11.2020   -3.2950 O   0  0  0  0  0  0  0  0  0  0  0  0
    0.3490   12.3540   -1.3800 O   0  0  0  0  0  0  0  0  0  0  0  0
   -0.4690   17.7130   -6.3800 N   0  0  0  0  0  0  0  0  0  0  0  0
   -2.5100   16.3440   -6.1520 O   0  0  0  0  0  0  0  0  0  0  0  0
   -1.6820   17.8560   -4.3820 O   0  0  0  0  0  0  0  0  0  0  0  0
    2.1930   14.8570   -4.4810 O   0  0  0  0  0  0  0  0  0  0  0  0
  1  2  1  0
  2  3  1  0
  3  4  2  0
  3  5  1  0
  4  6  1  0
  5  7  2  0
  6  8  2  0
  7  8  1  0
  9  7  1  1
  9 10  1  0
  9 11  1  0
 10 12  1  6
 11 13  1  1
 10 14  1  0
 11 15  1  0
 12 16  1  0
 12 17  2  0
 13 18  1  0
 13 19  2  0
 13 20  2  0
 14 21  1  0
 15 21  1  0
M  END
