diamond-x0689_0_A-diamond-x0900_0_A
     RDKit          3D

 13 14  0  0  0  0  0  0  0  0999 V2000
   -3.3980   15.3440    1.8250 N   0  0  0  0  0  0  0  0  0  0  0  0
   -2.4220   14.6320    1.0590 C   0  0  2  0  0  0  0  0  0  0  0  0
   -1.1770   15.0320    1.6080 N   0  0  0  0  0  0  0  0  0  0  0  0
   -2.5850   14.6820   -0.3650 N   0  0  0  0  0  0  0  0  0  0  0  0
   -1.4510   14.4960   -1.1410 C   0  0  0  0  0  0  0  0  0  0  0  0
   -0.0230   14.5990    0.8580 C   0  0  0  0  0  0  0  0  0  0  0  0
   -3.9090   14.2070   -0.6640 C   0  0  2  0  0  0  0  0  0  0  0  0
   -0.2280   14.4520   -0.6070 C   0  0  0  0  0  0  0  0  0  0  0  0
   -4.7870   15.2460   -1.0780 N   0  0  0  0  0  0  0  0  0  0  0  0
   -4.5730   13.6310    0.5960 C   0  0  0  0  0  0  0  0  0  0  0  0
   -5.9970   15.1150   -0.4420 C   0  0  0  0  0  0  0  0  0  0  0  0
   -5.7090   14.5840    0.9240 C   0  0  0  0  0  0  0  0  0  0  0  0
   -7.0950   15.3600   -0.9060 O   0  0  0  0  0  0  0  0  0  0  0  0
  2  1  1  1
  2  3  1  0
  2  4  1  0
  4  5  1  0
  3  6  1  0
  7  4  1  1
  5  8  2  0
  6  8  1  0
  7  9  1  0
  7 10  1  0
  9 11  1  0
 10 12  1  0
 11 12  1  0
 11 13  2  0
M  END
