diamond-x0849_0_A-mac-x0179
     RDKit          3D

 27 30  0  0  0  0  0  0  0  0999 V2000
   -3.8820   15.2030   -2.7840 Br  0  0  0  0  0  0  0  0  0  0  0  0
   -3.7210   15.1410   -0.8950 C   0  0  0  0  0  0  0  0  0  0  0  0
   -2.4940   14.8550   -0.2970 C   0  0  0  0  0  0  0  0  0  0  0  0
   -4.8400   15.3810   -0.1250 C   0  0  0  0  0  0  0  0  0  0  0  0
   -2.4470   14.8170    1.0950 C   0  0  0  0  0  0  0  0  0  0  0  0
   -4.6750   15.3160    1.2380 C   0  0  0  0  0  0  0  0  0  0  0  0
   -1.3200   14.6080   -1.0160 C   0  0  0  0  0  0  0  0  0  0  0  0
   -3.5110   15.0400    1.8300 N   0  0  0  0  0  0  0  0  0  0  0  0
   -1.3340   14.5540    1.7360 N   0  0  0  0  0  0  0  0  0  0  0  0
   -0.1470   14.3330   -0.3650 C   0  0  0  0  0  0  0  0  0  0  0  0
    1.0760   14.0740   -1.1920 C   0  0  0  0  0  0  0  0  0  0  0  0
   -0.2260   14.3200    1.0290 C   0  0  0  0  0  0  0  0  0  0  0  0
    0.6710   13.9480   -2.5550 O   0  0  0  0  0  0  0  0  0  0  0  0
    0.7890   12.7370   -3.1830 C   0  0  0  0  0  0  0  0  0  0  0  0
    0.9600   11.6350   -2.6550 O   0  0  0  0  0  0  0  0  0  0  0  0
    0.6690   12.9510   -4.6830 C   0  0  0  0  0  0  0  0  0  0  0  0
    0.1710   11.8100   -5.4080 N   0  0  0  0  0  0  0  0  0  0  0  0
    0.7530   11.3880   -6.5500 C   0  0  0  0  0  0  0  0  0  0  0  0
   -1.0150   11.1710   -5.1760 C   0  0  0  0  0  0  0  0  0  0  0  0
    1.7770   11.7760   -7.0270 O   0  0  0  0  0  0  0  0  0  0  0  0
   -1.8130   11.3470   -4.2780 O   0  0  0  0  0  0  0  0  0  0  0  0
   -0.0840   10.3290   -7.0950 C   0  0  0  0  0  0  0  0  0  0  0  0
   -1.1690   10.1890   -6.2540 C   0  0  0  0  0  0  0  0  0  0  0  0
    0.0830    9.5500   -8.2250 C   0  0  0  0  0  0  0  0  0  0  0  0
   -2.1590    9.2560   -6.4900 C   0  0  0  0  0  0  0  0  0  0  0  0
   -0.9060    8.5980   -8.4870 C   0  0  0  0  0  0  0  0  0  0  0  0
   -2.0160    8.4500   -7.6280 C   0  0  0  0  0  0  0  0  0  0  0  0
  1  2  1  0
  2  3  2  0
  2  4  1  0
  3  5  1  0
  4  6  2  0
  3  7  1  0
  5  8  2  0
  6  8  1  0
  5  9  1  0
  7 10  2  0
 10 11  1  0
  9 12  2  0
 10 12  1  0
 11 13  1  0
 13 14  1  0
 14 15  2  0
 14 16  1  0
 16 17  1  0
 17 18  1  0
 17 19  1  0
 18 20  2  0
 19 21  2  0
 18 22  1  0
 19 23  1  0
 22 23  2  0
 22 24  1  0
 23 25  1  0
 24 26  2  0
 25 27  2  0
 26 27  1  0
M  END
