diamond-x0910_0_A-mac-x0137
     RDKit          3D

 15 17  0  0  0  0  0  0  0  0999 V2000
   -2.9640   13.1690   -1.2380 N   0  0  0  0  0  0  0  0  0  0  0  0
   -2.2780   14.3930   -0.9170 C   0  0  1  0  0  0  0  0  0  0  0  0
   -2.0220   14.3810    0.5700 N   0  0  0  0  0  0  0  0  0  0  0  0
   -0.8740   14.5180   -1.5890 C   0  0  2  0  0  0  0  0  0  0  0  0
   -3.2950   15.4800   -1.0780 C   0  0  0  0  0  0  0  0  0  0  0  0
   -0.7970   15.0970    0.7890 N   0  0  0  0  0  0  0  0  0  0  0  0
   -0.2400   15.4660   -0.5330 C   0  0  0  0  0  0  0  0  0  0  0  0
   -1.0130   15.0460   -3.0480 C   0  0  0  0  0  0  0  0  0  0  0  0
    0.0250   13.2210   -1.6860 C   0  0  0  0  0  0  0  0  0  0  0  0
   -3.1310   15.0640    1.1260 N   0  0  0  0  0  0  0  0  0  0  0  0
   -3.7440   15.7950    0.1420 C   0  0  0  0  0  0  0  0  0  0  0  0
   -1.4560   13.9750   -4.0730 C   0  0  2  0  0  0  0  0  0  0  0  0
   -0.2910   12.1820   -2.7840 C   0  0  0  0  0  0  0  0  0  0  0  0
   -2.6760   13.4720   -3.7200 F   0  0  0  0  0  0  0  0  0  0  0  0
   -0.4930   12.8090   -4.1590 C   0  0  0  0  0  0  0  0  0  0  0  0
  2  1  1  6
  2  3  1  0
  2  4  1  0
  2  5  1  0
  3  6  1  0
  4  7  1  1
  6  7  1  0
  4  8  1  0
  4  9  1  0
  3 10  1  0
  5 11  2  0
 10 11  1  0
  8 12  1  0
  9 13  1  0
 12 14  1  1
 12 15  1  0
 13 15  1  0
M  END
