diamond-x0128_0_A-diamond-x0711_0_A
     RDKit          3D

 22 23  0  0  0  0  0  0  0  0999 V2000
   -6.3190   14.7890    2.2530 N   0  0  0  0  0  0  0  0  0  0  0  0
   -7.5910   15.1460    2.7760 C   0  0  0  0  0  0  0  0  0  0  0  0
   -8.6070   15.3220    2.1120 O   0  0  0  0  0  0  0  0  0  0  0  0
   -5.7240   14.8370    0.9230 C   0  0  0  0  0  0  0  0  0  0  0  0
   -7.5450   15.2870    4.1800 N   0  0  0  0  0  0  0  0  0  0  0  0
   -6.6050   14.8400   -0.1710 C   0  0  0  0  0  0  0  0  0  0  0  0
   -4.3170   14.8820    0.6280 C   0  0  0  0  0  0  0  0  0  0  0  0
   -6.1400   14.8900   -1.4840 C   0  0  0  0  0  0  0  0  0  0  0  0
   -3.8280   14.9290   -0.7310 C   0  0  0  0  0  0  0  0  0  0  0  0
   -8.3860   16.0590    5.0470 C   0  0  0  0  0  0  0  0  0  0  0  0
   -7.9530   14.7920    0.0610 O   0  0  0  0  0  0  0  0  0  0  0  0
   -2.3710   14.9830   -1.0550 N   0  0  0  0  0  0  0  0  0  0  0  0
   -4.7670   14.9350   -1.7620 C   0  0  0  0  0  0  0  0  0  0  0  0
   -9.1210   17.1940    4.6970 C   0  0  0  0  0  0  0  0  0  0  0  0
   -8.4950   15.6500    6.3860 C   0  0  0  0  0  0  0  0  0  0  0  0
   -1.4300   14.1530   -2.2730 S   0  0  0  0  0  0  0  0  0  0  0  0
   -9.9090   17.9020    5.5530 N   0  0  0  0  0  0  0  0  0  0  0  0
   -9.2970   16.3610    7.2850 C   0  0  0  0  0  0  0  0  0  0  0  0
   -2.5670   13.2700   -3.3170 C   0  0  0  0  0  0  0  0  0  0  0  0
   -0.8080   15.1600   -3.1250 O   0  0  0  0  0  0  0  0  0  0  0  0
   -0.5510   13.1950   -1.6340 O   0  0  0  0  0  0  0  0  0  0  0  0
   -9.9800   17.4740    6.8250 C   0  0  0  0  0  0  0  0  0  0  0  0
  1  2  1  0
  2  3  2  0
  1  4  1  0
  2  5  1  0
  4  6  2  0
  4  7  1  0
  6  8  1  0
  7  9  2  0
  5 10  1  0
  6 11  1  0
  9 12  1  0
  8 13  2  0
  9 13  1  0
 10 14  2  0
 10 15  1  0
 16 12  1  0
 14 17  1  0
 15 18  2  0
 16 19  1  0
 16 20  2  0
 16 21  2  0
 17 22  2  0
 18 22  1  0
M  END
