diamond-x0969_0_A-mac-x0404
     RDKit          3D

 28 31  0  0  0  0  0  0  0  0999 V2000
   -6.7500   14.8470    2.6140 N   0  0  0  0  0  0  0  0  0  0  0  0
   -6.5770   14.7800    1.2750 C   0  0  0  0  0  0  0  0  0  0  0  0
   -7.5250   14.6760    0.3670 N   0  0  0  0  0  0  0  0  0  0  0  0
   -5.3450   14.8230    0.6420 N   0  0  0  0  0  0  0  0  0  0  0  0
   -6.9400   14.6440   -0.8780 N   0  0  0  0  0  0  0  0  0  0  0  0
   -5.6380   14.7260   -0.7090 C   0  0  0  0  0  0  0  0  0  0  0  0
   -4.0480   14.9310    1.1390 C   0  0  0  0  0  0  0  0  0  0  0  0
   -4.5510   14.7110   -1.6230 C   0  0  0  0  0  0  0  0  0  0  0  0
   -3.0210   14.9090    0.2770 C   0  0  0  0  0  0  0  0  0  0  0  0
   -3.2860   14.7730   -1.1540 C   0  0  0  0  0  0  0  0  0  0  0  0
   -2.0920   14.6750   -2.0580 C   0  0  0  0  0  0  0  0  0  0  0  0
   -1.2680   13.4180   -1.8200 C   0  0  0  0  0  0  0  0  0  0  0  0
    0.1990   13.6890   -1.5040 C   0  0  0  0  0  0  0  0  0  0  0  0
    0.9080   12.4640   -1.6050 O   0  0  0  0  0  0  0  0  0  0  0  0
    0.8230   11.8670   -2.8390 C   0  0  0  0  0  0  0  0  0  0  0  0
    0.2910   10.7820   -3.0140 O   0  0  0  0  0  0  0  0  0  0  0  0
    1.4720   12.6720   -3.9810 C   0  0  0  0  0  0  0  0  0  0  0  0
    1.1470   14.0500   -4.0890 O   0  0  0  0  0  0  0  0  0  0  0  0
   -0.1000   14.4600   -4.5210 C   0  0  0  0  0  0  0  0  0  0  0  0
   -0.2130   15.8340   -4.8500 C   0  0  0  0  0  0  0  0  0  0  0  0
   -1.2230   13.6360   -4.6490 C   0  0  0  0  0  0  0  0  0  0  0  0
   -1.4520   16.3530   -5.2930 C   0  0  0  0  0  0  0  0  0  0  0  0
   -2.4410   14.1590   -5.0860 C   0  0  0  0  0  0  0  0  0  0  0  0
    0.8750   16.7150   -4.7540 C   0  0  0  0  0  0  0  0  0  0  0  0
   -2.5590   15.5070   -5.4040 C   0  0  0  0  0  0  0  0  0  0  0  0
   -1.5660   17.7090   -5.6240 C   0  0  0  0  0  0  0  0  0  0  0  0
    0.7530   18.0610   -5.0890 C   0  0  0  0  0  0  0  0  0  0  0  0
   -0.4690   18.5530   -5.5250 C   0  0  0  0  0  0  0  0  0  0  0  0
  1  2  1  0
  2  3  2  0
  2  4  1  0
  3  5  1  0
  4  6  1  0
  5  6  2  0
  4  7  1  0
  6  8  1  0
  7  9  2  0
  8 10  2  0
  9 10  1  0
 10 11  1  0
 11 12  1  0
 12 13  1  0
 13 14  1  0
 14 15  1  0
 15 16  2  0
 15 17  1  0
 17 18  1  0
 18 19  1  0
 19 20  1  0
 19 21  2  0
 20 22  2  0
 21 23  1  0
 20 24  1  0
 22 25  1  0
 23 25  2  0
 22 26  1  0
 24 27  2  0
 26 28  2  0
 27 28  1  0
M  END
