diamond-x0681_0_A-mac-x0565
     RDKit          3D

 24 27  0  0  0  0  0  0  0  0999 V2000
   -4.0640   15.8420   -1.3380 N   0  0  0  0  0  0  0  0  0  0  0  0
   -3.2110   14.8110   -1.0170 C   0  0  0  0  0  0  0  0  0  0  0  0
   -2.3570   14.4510   -1.9360 N   0  0  0  0  0  0  0  0  0  0  0  0
   -3.3600   14.1940    0.3620 C   0  0  2  0  0  0  0  0  0  0  0  0
   -4.6150   13.3710    0.3700 C   0  0  0  0  0  0  0  0  0  0  0  0
   -3.4150   15.3480    1.3640 C   0  0  0  0  0  0  0  0  0  0  0  0
   -2.5330   15.1770   -3.0610 N   0  0  0  0  0  0  0  0  0  0  0  0
   -5.5640   13.4920    1.3470 N   0  0  0  0  0  0  0  0  0  0  0  0
   -4.0720   14.9240    2.6770 C   0  0  0  0  0  0  0  0  0  0  0  0
   -4.9770   12.4620   -0.5160 N   0  0  0  0  0  0  0  0  0  0  0  0
   -3.8380   14.9650   -3.5640 C   0  0  0  0  0  0  0  0  0  0  0  0
   -1.7690   14.8350   -4.2820 C   0  0  0  0  0  0  0  0  0  0  0  0
   -5.4830   14.3990    2.4670 C   0  0  0  0  0  0  0  0  0  0  0  0
   -6.5730   12.6210    1.0770 C   0  0  0  0  0  0  0  0  0  0  0  0
   -6.1890   11.9930   -0.0820 C   0  0  0  0  0  0  0  0  0  0  0  0
   -5.0130   14.8280   -2.8300 C   0  0  0  0  0  0  0  0  0  0  0  0
   -3.8480   14.8950   -4.9410 C   0  0  0  0  0  0  0  0  0  0  0  0
   -2.5940   15.0510   -5.4650 O   0  0  0  0  0  0  0  0  0  0  0  0
   -6.2120   14.6200   -3.5080 C   0  0  0  0  0  0  0  0  0  0  0  0
   -5.0150   14.6890   -5.6510 C   0  0  0  0  0  0  0  0  0  0  0  0
   -7.5090   14.4710   -2.7830 C   0  0  0  0  0  0  0  0  0  0  0  0
   -6.2100   14.5500   -4.9250 C   0  0  0  0  0  0  0  0  0  0  0  0
   -7.4960   15.0130   -1.5470 O   0  0  0  0  0  0  0  0  0  0  0  0
   -8.5050   13.9220   -3.2070 O   0  0  0  0  0  0  0  0  0  0  0  0
  1  2  1  0
  2  3  2  3
  4  2  1  6
  4  5  1  0
  4  6  1  0
  3  7  1  0
  5  8  1  0
  6  9  1  0
  5 10  2  0
  7 11  1  0
  7 12  1  0
  8 13  1  0
  9 13  1  0
  8 14  1  0
 10 15  1  0
 14 15  2  0
 11 16  2  0
 11 17  1  0
 12 18  1  0
 17 18  1  0
 16 19  1  0
 17 20  2  0
 19 21  1  0
 19 22  2  0
 20 22  1  0
 21 23  1  0
 21 24  2  0
M  END
