diamond-x0969_0_A-diamond-x0722_0_A
     RDKit          3D

 15 16  0  0  0  0  0  0  0  0999 V2000
   -6.5450   14.8440    2.5900 N   0  0  0  0  0  0  0  0  0  0  0  0
   -6.2890   14.9640    1.2720 C   0  0  0  0  0  0  0  0  0  0  0  0
   -7.2700   14.8870    0.3960 N   0  0  0  0  0  0  0  0  0  0  0  0
   -5.0140   15.2320    0.7610 N   0  0  0  0  0  0  0  0  0  0  0  0
   -6.6900   15.0710   -0.8470 N   0  0  0  0  0  0  0  0  0  0  0  0
   -5.2660   14.8180   -0.5890 C   0  0  1  0  0  0  0  0  0  0  0  0
   -3.7250   15.0580    1.2410 C   0  0  0  0  0  0  0  0  0  0  0  0
   -4.1410   15.2000   -1.5010 C   0  0  0  0  0  0  0  0  0  0  0  0
   -2.6470   15.0660    0.4200 C   0  0  0  0  0  0  0  0  0  0  0  0
   -7.1340   14.0870   -1.5730 N   0  0  0  0  0  0  0  0  0  0  0  0
   -1.2320   14.8540    0.9320 C   0  0  0  0  0  0  0  0  0  0  0  0
   -2.8830   15.2980   -1.0200 C   0  0  0  0  0  0  0  0  0  0  0  0
   -6.6150   13.0720   -0.9870 C   0  0  0  0  0  0  0  0  0  0  0  0
   -1.7210   15.6270   -1.9020 C   0  0  0  0  0  0  0  0  0  0  0  0
   -6.6820   11.7580   -1.2450 N   0  0  0  0  0  0  0  0  0  0  0  0
  1  2  1  0
  2  3  2  0
  2  4  1  0
  3  5  1  0
  4  6  1  0
  5  6  1  0
  4  7  1  0
  6  8  1  6
  7  9  2  0
  5 10  1  0
  9 11  1  0
  8 12  2  0
  9 12  1  0
 10 13  2  3
 12 14  1  0
 13 15  1  0
M  END
