diamond-x0962_3_A-mac-x0182
     RDKit          3D

 13 15  0  0  0  0  0  0  0  0999 V2000
    1.4220   11.5090   -7.2370 C   0  0  0  0  0  0  0  0  0  0  0  0
    1.0110   10.9550   -8.3880 C   0  0  0  0  0  0  0  0  0  0  0  0
   -0.3050   10.2700   -8.2560 C   0  0  2  0  0  0  0  0  0  0  0  0
    0.4820   11.3010   -6.1880 C   0  0  2  0  0  0  0  0  0  0  0  0
   -0.5950   10.2950   -6.7420 C   0  0  2  0  0  0  0  0  0  0  0  0
   -0.1020   12.5670   -5.9420 N   0  0  0  0  0  0  0  0  0  0  0  0
   -0.1540    8.8610   -8.6330 N   0  0  0  0  0  0  0  0  0  0  0  0
   -0.5520    8.8560   -6.3920 N   0  0  0  0  0  0  0  0  0  0  0  0
   -1.2440   11.9560   -4.9520 S   0  0  0  0  0  0  0  0  0  0  0  0
   -1.8850   10.8930   -6.2250 C   0  0  0  0  0  0  0  0  0  0  0  0
   -2.1260   13.0470   -4.6470 O   0  0  0  0  0  0  0  0  0  0  0  0
   -0.5310   11.1560   -3.9620 O   0  0  0  0  0  0  0  0  0  0  0  0
   -0.8560    8.1270   -7.6050 C   0  0  0  0  0  0  0  0  0  0  0  0
  1  2  2  0
  3  2  1  1
  4  1  1  6
  3  5  1  0
  4  5  1  0
  4  6  1  0
  3  7  1  0
  5  8  1  0
  9  6  1  0
  5 10  1  6
  9 10  1  0
  9 11  2  0
  9 12  2  0
  7 13  1  0
  8 13  1  0
M  END
