diamond-x0465_0_A-diamond-x0950_0_A
     RDKit          3D

 13 13  0  0  0  0  0  0  0  0999 V2000
    1.9390   13.2960   -5.0250 C   0  0  0  0  0  0  0  0  0  0  0  0
    0.6720   12.5230   -4.7140 C   0  0  1  0  0  0  0  0  0  0  0  0
    0.6880   11.4110   -5.6280 O   0  0  0  0  0  0  0  0  0  0  0  0
    0.7330   12.1180   -3.2310 C   0  0  0  0  0  0  0  0  0  0  0  0
    0.9340   12.8880   -2.3000 O   0  0  0  0  0  0  0  0  0  0  0  0
    0.5550   10.7970   -3.0200 O   0  0  0  0  0  0  0  0  0  0  0  0
   -0.5170   10.8330   -5.9250 C   0  0  0  0  0  0  0  0  0  0  0  0
   -0.6170    9.6290   -6.6380 C   0  0  0  0  0  0  0  0  0  0  0  0
   -1.6810   11.4640   -5.5090 C   0  0  0  0  0  0  0  0  0  0  0  0
    0.4760    8.9930   -7.0770 F   0  0  0  0  0  0  0  0  0  0  0  0
   -1.8500    9.0600   -6.9180 C   0  0  0  0  0  0  0  0  0  0  0  0
   -2.9210   10.8960   -5.7980 C   0  0  0  0  0  0  0  0  0  0  0  0
   -3.0080    9.6950   -6.4940 C   0  0  0  0  0  0  0  0  0  0  0  0
  2  1  1  6
  2  3  1  0
  2  4  1  0
  4  5  2  0
  4  6  1  0
  3  7  1  0
  7  8  2  0
  7  9  1  0
  8 10  1  0
  8 11  1  0
  9 12  2  0
 11 13  2  0
 12 13  1  0
M  END
