diamond-x0962_2_B-diamond-x0626_0_A
     RDKit          3D

 19 20  0  0  0  0  0  0  0  0999 V2000
  -11.3510   15.7210    1.6460 N   0  0  0  0  0  0  0  0  0  0  0  0
   -9.9730   16.1670    1.6640 C   0  0  2  0  0  0  0  0  0  0  0  0
   -9.3200   15.7000    0.3530 C   0  0  0  0  0  0  0  0  0  0  0  0
   -9.2720   15.6640    2.8890 C   0  0  0  0  0  0  0  0  0  0  0  0
   -8.5160   14.3890    0.4500 C   0  0  0  0  0  0  0  0  0  0  0  0
   -8.8750   16.4440    3.9510 N   0  0  0  0  0  0  0  0  0  0  0  0
   -8.8740   14.3900    3.2400 C   0  0  0  0  0  0  0  0  0  0  0  0
   -7.2840   14.3970    1.3660 C   0  0  0  0  0  0  0  0  0  0  0  0
   -8.2650   15.6280    4.8640 C   0  0  0  0  0  0  0  0  0  0  0  0
   -8.2530   14.3790    4.4610 N   0  0  0  0  0  0  0  0  0  0  0  0
   -5.9970   14.7110    0.6410 C   0  0  0  0  0  0  0  0  0  0  0  0
   -4.8580   14.8830    1.3670 N   0  0  0  0  0  0  0  0  0  0  0  0
   -5.9510   14.8200   -0.5880 O   0  0  0  0  0  0  0  0  0  0  0  0
   -3.6000   14.8780    0.8750 C   0  0  0  0  0  0  0  0  0  0  0  0
   -2.4580   14.7630    1.5200 N   0  0  0  0  0  0  0  0  0  0  0  0
   -3.5280   15.0360   -0.8220 S   0  0  0  0  0  0  0  0  0  0  0  0
   -1.8240   14.9330   -0.7120 C   0  0  0  0  0  0  0  0  0  0  0  0
   -1.4360   14.7940    0.6070 C   0  0  0  0  0  0  0  0  0  0  0  0
   -0.0600   14.6660    1.1000 C   0  0  0  0  0  0  0  0  0  0  0  0
  2  1  1  6
  2  3  1  0
  2  4  1  0
  3  5  1  0
  4  6  1  0
  4  7  2  0
  5  8  1  0
  6  9  1  0
  7 10  1  0
  9 10  2  0
  8 11  1  0
 11 12  1  0
 11 13  2  0
 12 14  1  0
 14 15  2  0
 14 16  1  0
 16 17  1  0
 15 18  1  0
 17 18  2  0
 18 19  1  0
M  END
