diamond-x0681_0_A-mac-x0255
     RDKit          3D

 26 29  0  0  0  0  0  0  0  0999 V2000
   -2.8010   15.2760   -2.9020 N   0  0  0  0  0  0  0  0  0  0  0  0
   -2.4380   15.0800   -1.5940 C   0  0  0  0  0  0  0  0  0  0  0  0
   -1.1100   14.9840   -1.2790 N   0  0  0  0  0  0  0  0  0  0  0  0
   -3.6720   15.0370   -0.6470 C   0  0  1  0  0  0  0  0  0  0  0  0
    0.1240   15.0660   -2.1770 C   0  0  0  0  0  0  0  0  0  0  0  0
   -4.5110   13.7560   -0.6110 C   0  0  0  0  0  0  0  0  0  0  0  0
   -3.2780   15.5810    0.7350 C   0  0  0  0  0  0  0  0  0  0  0  0
   -5.3430   13.5380    0.4410 N   0  0  0  0  0  0  0  0  0  0  0  0
   -4.0750   15.0050    1.8980 C   0  0  0  0  0  0  0  0  0  0  0  0
   -4.6100   12.7500   -1.4610 N   0  0  0  0  0  0  0  0  0  0  0  0
   -0.4860   14.9390   -3.4910 C   0  0  0  0  0  0  0  0  0  0  0  0
   -5.4490   14.4550    1.5220 C   0  0  0  0  0  0  0  0  0  0  0  0
   -6.0080   12.3590    0.2760 C   0  0  0  0  0  0  0  0  0  0  0  0
   -5.5390   11.8840   -0.9190 C   0  0  0  0  0  0  0  0  0  0  0  0
   -0.7300   13.7460   -4.1320 C   0  0  0  0  0  0  0  0  0  0  0  0
   -0.9400   16.1080   -4.2130 C   0  0  0  0  0  0  0  0  0  0  0  0
   -0.4000   12.2840   -3.8540 C   0  0  0  0  0  0  0  0  0  0  0  0
   -1.6420   15.7470   -5.3190 C   0  0  0  0  0  0  0  0  0  0  0  0
   -1.6370   14.0420   -5.5260 S   0  0  0  0  0  0  0  0  0  0  0  0
   -0.8080   17.4910   -3.9780 C   0  0  0  0  0  0  0  0  0  0  0  0
    0.1230   11.7760   -2.5120 C   0  0  0  0  0  0  0  0  0  0  0  0
   -1.3940   18.4300   -4.8240 C   0  0  0  0  0  0  0  0  0  0  0  0
   -2.2640   16.7100   -6.1380 C   0  0  0  0  0  0  0  0  0  0  0  0
    0.3980   12.6060   -1.4790 O   0  0  0  0  0  0  0  0  0  0  0  0
    0.2730   10.5720   -2.3440 O   0  0  0  0  0  0  0  0  0  0  0  0
   -2.1290   18.0410   -5.8880 C   0  0  0  0  0  0  0  0  0  0  0  0
  1  2  1  0
  2  3  2  3
  4  2  1  6
  3  5  1  0
  4  6  1  0
  4  7  1  0
  6  8  1  0
  7  9  1  0
  6 10  2  0
  5 11  1  0
  8 12  1  0
  9 12  1  0
  8 13  1  0
 10 14  1  0
 13 14  2  0
 11 15  2  0
 11 16  1  0
 15 17  1  0
 16 18  2  0
 15 19  1  0
 18 19  1  0
 16 20  1  0
 17 21  1  0
 20 22  2  0
 18 23  1  0
 21 24  1  0
 21 25  2  0
 22 26  1  0
 23 26  2  0
M  END
