diamond-x0724_0_A-mac-x0345
     RDKit          3D

 17 18  0  0  0  0  0  0  0  0999 V2000
   -8.5800   13.6440    4.5700 N   0  0  0  0  0  0  0  0  0  0  0  0
   -8.7120   13.7480    6.0100 C   0  0  0  0  0  0  0  0  0  0  0  0
   -8.4080   14.9660    4.0000 C   0  0  0  0  0  0  0  0  0  0  0  0
   -7.8420   14.8300    2.6420 C   0  0  0  0  0  0  0  0  0  0  0  0
   -6.5250   14.9000    2.2770 C   0  0  0  0  0  0  0  0  0  0  0  0
   -8.5250   14.6120    1.4350 C   0  0  0  0  0  0  0  0  0  0  0  0
   -7.7090   14.5620    0.3910 N   0  0  0  0  0  0  0  0  0  0  0  0
   -6.4690   14.7510    0.9120 N   0  0  0  0  0  0  0  0  0  0  0  0
   -5.3330   14.7920    0.0790 C   0  0  0  0  0  0  0  0  0  0  0  0
   -4.0670   14.8100    0.6170 C   0  0  0  0  0  0  0  0  0  0  0  0
   -5.5340   14.8290   -1.2980 C   0  0  0  0  0  0  0  0  0  0  0  0
   -6.9620   14.8220   -1.7890 C   0  0  0  0  0  0  0  0  0  0  0  0
   -3.8220   14.7810    2.4820 Br  0  0  0  0  0  0  0  0  0  0  0  0
   -2.9420   14.8550   -0.2120 C   0  0  0  0  0  0  0  0  0  0  0  0
   -4.4160   14.8810   -2.1590 C   0  0  0  0  0  0  0  0  0  0  0  0
   -4.5680   14.9280   -3.5530 N   0  0  0  0  0  0  0  0  0  0  0  0
   -3.1220   14.8890   -1.6000 C   0  0  0  0  0  0  0  0  0  0  0  0
  1  2  1  0
  1  3  1  0
  3  4  1  0
  4  5  2  0
  4  6  1  0
  6  7  2  0
  5  8  1  0
  7  8  1  0
  8  9  1  0
  9 10  2  0
  9 11  1  0
 11 12  1  0
 10 13  1  0
 10 14  1  0
 11 15  2  0
 15 16  1  0
 14 17  2  0
 15 17  1  0
M  END
