diamond-x0742_0_A-mac-x0347
     RDKit          3D

 24 27  0  0  0  0  0  0  0  0999 V2000
   -5.2470   12.2460   -0.7790 C   0  0  0  0  0  0  0  0  0  0  0  0
   -6.1920   11.8860    0.3480 C   0  0  0  0  0  0  0  0  0  0  0  0
   -5.0210   11.3920   -1.6440 O   0  0  0  0  0  0  0  0  0  0  0  0
   -4.6320   13.6970   -0.8630 C   0  0  2  0  0  0  0  0  0  0  0  0
   -4.6620   14.4410    0.4910 C   0  0  2  0  0  0  0  0  0  0  0  0
   -5.6860   14.5430   -1.5760 C   0  0  0  0  0  0  0  0  0  0  0  0
   -3.1400   13.7860   -1.5190 C   0  0  2  0  0  0  0  0  0  0  0  0
   -4.4130   15.8450    0.0660 C   0  0  0  0  0  0  0  0  0  0  0  0
   -2.0810   13.9530   -0.4080 C   0  0  0  0  0  0  0  0  0  0  0  0
   -3.7180   13.9180    1.5150 C   0  0  0  0  0  0  0  0  0  0  0  0
   -2.8470   15.0540   -2.3660 C   0  0  0  0  0  0  0  0  0  0  0  0
   -2.7760   12.7090   -2.6000 C   0  0  0  0  0  0  0  0  0  0  0  0
   -5.2450   15.9480   -1.2020 C   0  0  0  0  0  0  0  0  0  0  0  0
   -0.7700   14.0730   -0.7840 C   0  0  0  0  0  0  0  0  0  0  0  0
   -2.3470   14.0250    0.9640 C   0  0  0  0  0  0  0  0  0  0  0  0
   -1.5420   14.9720   -3.2710 C   0  0  1  0  0  0  0  0  0  0  0  0
   -2.9620   13.2150   -3.9930 N   0  0  0  0  0  0  0  0  0  0  0  0
   -0.1570   14.4760   -2.7760 C   0  0  0  0  0  0  0  0  0  0  0  0
   -1.4000   14.2050    1.8950 N   0  0  0  0  0  0  0  0  0  0  0  0
    0.2130   14.2550    0.1380 C   0  0  0  0  0  0  0  0  0  0  0  0
   -1.9050   14.1070   -4.4230 C   0  0  0  0  0  0  0  0  0  0  0  0
    0.9160   15.1460   -3.2600 O   0  0  0  0  0  0  0  0  0  0  0  0
    0.0280   13.5200   -2.0280 O   0  0  0  0  0  0  0  0  0  0  0  0
   -0.1480   14.3140    1.4650 C   0  0  0  0  0  0  0  0  0  0  0  0
  1  2  1  0
  1  3  2  0
  4  1  1  1
  4  5  1  0
  4  6  1  0
  4  7  1  0
  5  8  1  6
  7  9  1  0
  5 10  1  0
  7 11  1  6
  7 12  1  0
  6 13  1  0
  8 13  1  0
  9 14  1  0
  9 15  2  0
 10 15  1  0
 11 16  1  0
 12 17  1  0
 16 18  1  1
 15 19  1  0
 14 20  2  0
 16 21  1  0
 17 21  1  0
 18 22  1  0
 18 23  2  0
 19 24  2  0
 20 24  1  0
M  END
