diamond-x0962_0_A-mac-x0223
     RDKit          3D

 23 24  0  0  0  0  0  0  0  0999 V2000
   -3.0470   15.1730   -2.4000 N   0  0  0  0  0  0  0  0  0  0  0  0
   -2.8000   14.3710   -1.2230 C   0  0  1  0  0  0  0  0  0  0  0  0
   -1.3690   14.4590   -0.6520 C   0  0  0  0  0  0  0  0  0  0  0  0
   -3.7980   14.6780   -0.1680 C   0  0  0  0  0  0  0  0  0  0  0  0
   -0.2460   14.5960   -1.6840 C   0  0  0  0  0  0  0  0  0  0  0  0
   -3.4630   15.0810    1.1010 N   0  0  0  0  0  0  0  0  0  0  0  0
   -5.1730   14.6370   -0.1750 C   0  0  0  0  0  0  0  0  0  0  0  0
    1.0620   13.9320   -1.2820 C   0  0  0  0  0  0  0  0  0  0  0  0
   -4.6260   15.2560    1.7950 C   0  0  0  0  0  0  0  0  0  0  0  0
   -5.6730   14.9890    1.0440 N   0  0  0  0  0  0  0  0  0  0  0  0
    1.4920   12.9420   -2.2400 O   0  0  0  0  0  0  0  0  0  0  0  0
    0.6100   12.4930   -3.1820 C   0  0  0  0  0  0  0  0  0  0  0  0
    0.7910   13.2560   -4.4910 C   0  0  0  0  0  0  0  0  0  0  0  0
   -0.1990   11.5880   -2.9950 O   0  0  0  0  0  0  0  0  0  0  0  0
   -0.0550   14.5160   -4.5930 C   0  0  0  0  0  0  0  0  0  0  0  0
   -1.4610   14.4460   -4.6440 C   0  0  0  0  0  0  0  0  0  0  0  0
    0.5680   15.7780   -4.6380 C   0  0  0  0  0  0  0  0  0  0  0  0
   -0.2060   16.9320   -4.7290 C   0  0  0  0  0  0  0  0  0  0  0  0
   -2.2300   15.6140   -4.7370 C   0  0  0  0  0  0  0  0  0  0  0  0
    0.2470   18.2100   -4.7800 O   0  0  0  0  0  0  0  0  0  0  0  0
   -1.5860   16.8390   -4.7770 C   0  0  0  0  0  0  0  0  0  0  0  0
    1.2320   18.4390   -5.7610 C   0  0  0  0  0  0  0  0  0  0  0  0
   -2.3140   17.9970   -4.8590 O   0  0  0  0  0  0  0  0  0  0  0  0
  2  1  1  6
  2  3  1  0
  2  4  1  0
  3  5  1  0
  4  6  1  0
  4  7  2  0
  5  8  1  0
  6  9  1  0
  7 10  1  0
  9 10  2  0
  8 11  1  0
 11 12  1  0
 12 13  1  0
 12 14  2  0
 13 15  1  0
 15 16  2  0
 15 17  1  0
 17 18  2  0
 16 19  1  0
 18 20  1  0
 18 21  1  0
 19 21  2  0
 20 22  1  0
 21 23  1  0
M  END
