diamond-x1012_0_A-mac-x0139
     RDKit          3D

 25 27  0  0  0  0  0  0  0  0999 V2000
   -0.4780   18.1530   -4.6850 N   0  0  0  0  0  0  0  0  0  0  0  0
   -1.3570   17.1370   -4.8610 C   0  0  0  0  0  0  0  0  0  0  0  0
   -2.5460   17.3760   -4.7530 O   0  0  0  0  0  0  0  0  0  0  0  0
   -0.8200   15.8870   -5.1310 N   0  0  0  0  0  0  0  0  0  0  0  0
   -1.7580   14.7180   -5.1080 C   0  0  0  0  0  0  0  0  0  0  0  0
    0.6470   15.6960   -5.1310 C   0  0  0  0  0  0  0  0  0  0  0  0
   -1.2100   13.3910   -4.5570 C   0  0  0  0  0  0  0  0  0  0  0  0
    1.0730   14.2620   -4.9080 C   0  0  0  0  0  0  0  0  0  0  0  0
    0.1250   13.6670   -3.8920 C   0  0  0  0  0  0  0  0  0  0  0  0
    0.7660   12.6610   -2.9320 C   0  0  0  0  0  0  0  0  0  0  0  0
   -0.0560   11.5530   -2.5770 O   0  0  0  0  0  0  0  0  0  0  0  0
    1.9900   12.1510   -3.3620 O   0  0  0  0  0  0  0  0  0  0  0  0
    1.1060   13.5580   -1.7890 C   0  0  0  0  0  0  0  0  0  0  0  0
    0.5510   14.9560   -2.0870 C   0  0  0  0  0  0  0  0  0  0  0  0
   -0.9200   14.9370   -2.0090 N   0  0  0  0  0  0  0  0  0  0  0  0
   -1.6230   15.9140   -2.8340 C   0  0  0  0  0  0  0  0  0  0  0  0
   -1.2720   14.9090   -0.6990 C   0  0  0  0  0  0  0  0  0  0  0  0
   -2.5170   15.1320   -0.2960 C   0  0  0  0  0  0  0  0  0  0  0  0
   -0.2330   14.6340    0.1720 N   0  0  0  0  0  0  0  0  0  0  0  0
   -2.7680   15.0560    1.1400 C   0  0  0  0  0  0  0  0  0  0  0  0
   -0.5020   14.5550    1.4100 C   0  0  0  0  0  0  0  0  0  0  0  0
   -3.7770   15.4430   -0.8650 C   0  0  0  0  0  0  0  0  0  0  0  0
   -1.7360   14.7270    1.9440 N   0  0  0  0  0  0  0  0  0  0  0  0
   -4.0070   15.3150    1.4190 N   0  0  0  0  0  0  0  0  0  0  0  0
   -4.5960   15.5400    0.1840 C   0  0  0  0  0  0  0  0  0  0  0  0
  1  2  1  0
  2  3  2  0
  2  4  1  0
  4  5  1  0
  4  6  1  0
  5  7  1  0
  6  8  1  0
  7  9  1  0
  8  9  1  0
  9 10  1  0
 10 11  1  0
 10 12  1  0
 10 13  1  0
 13 14  1  0
 14 15  1  0
 15 16  1  0
 15 17  1  0
 17 18  2  0
 17 19  1  0
 18 20  1  0
 19 21  2  0
 18 22  1  0
 20 23  1  0
 21 23  1  0
 20 24  2  0
 22 25  2  0
 24 25  1  0
M  END
