diamond-x0574_0_A-mac-x0439
     RDKit          3D

 26 29  0  0  0  0  0  0  0  0999 V2000
    0.0660   13.6800    1.8300 N   0  0  0  0  0  0  0  0  0  0  0  0
   -1.0370   14.2660    1.3570 C   0  0  0  0  0  0  0  0  0  0  0  0
   -2.0550   14.6510    2.0420 N   0  0  0  0  0  0  0  0  0  0  0  0
   -1.3190   14.5350   -0.3570 S   0  0  0  0  0  0  0  0  0  0  0  0
   -0.3510   14.1580   -1.8420 C   0  0  0  0  0  0  0  0  0  0  0  0
   -3.1670   15.2590    1.2170 C   0  0  1  0  0  0  0  0  0  0  0  0
   -2.9200   15.1350   -0.2460 C   0  0  0  0  0  0  0  0  0  0  0  0
    1.0310   13.8400   -1.5630 N   0  0  0  0  0  0  0  0  0  0  0  0
   -4.5360   14.8010    1.4800 C   0  0  0  0  0  0  0  0  0  0  0  0
   -3.8890   15.5010   -1.2580 C   0  0  0  0  0  0  0  0  0  0  0  0
    1.6560   14.4350   -2.4510 C   0  0  0  0  0  0  0  0  0  0  0  0
   -5.4590   14.8650    0.5150 C   0  0  0  0  0  0  0  0  0  0  0  0
   -5.1520   15.3550   -0.8280 C   0  0  0  0  0  0  0  0  0  0  0  0
   -6.7560   14.4760    0.7440 O   0  0  0  0  0  0  0  0  0  0  0  0
    2.9990   14.3570   -2.4710 O   0  0  0  0  0  0  0  0  0  0  0  0
    1.0640   15.2530   -3.5240 C   0  0  0  0  0  0  0  0  0  0  0  0
   -7.0110   14.4710    2.1580 C   0  0  0  0  0  0  0  0  0  0  0  0
    0.0010   14.8540   -4.2110 C   0  0  0  0  0  0  0  0  0  0  0  0
    1.5080   16.4840   -3.8830 N   0  0  0  0  0  0  0  0  0  0  0  0
   -0.3120   15.8840   -5.2140 C   0  0  2  0  0  0  0  0  0  0  0  0
    0.7310   16.8700   -4.8150 C   0  0  0  0  0  0  0  0  0  0  0  0
   -1.6170   16.5950   -5.3750 C   0  0  0  0  0  0  0  0  0  0  0  0
    0.7880   18.1580   -5.5270 C   0  0  0  0  0  0  0  0  0  0  0  0
   -3.0650   15.7050   -5.1170 Cl  0  0  0  0  0  0  0  0  0  0  0  0
   -1.6390   17.8950   -5.7370 C   0  0  0  0  0  0  0  0  0  0  0  0
   -0.3970   18.6150   -5.9600 C   0  0  0  0  0  0  0  0  0  0  0  0
  1  2  1  0
  2  3  2  0
  2  4  1  0
  4  5  1  0
  3  6  1  0
  4  7  2  0
  6  7  1  0
  5  8  1  0
  6  9  1  6
  7 10  1  0
  8 11  2  3
  9 12  2  0
 10 13  2  0
 12 13  1  0
 12 14  1  0
 11 15  1  0
 11 16  1  0
 14 17  1  0
 16 18  2  0
 16 19  1  0
 20 18  1  1
 19 21  2  0
 20 21  1  0
 20 22  1  0
 21 23  1  0
 22 24  1  0
 22 25  2  0
 23 26  2  0
 25 26  1  0
M  END
