diamond-x0681_0_A-diamond-x0421_0_A
     RDKit          3D

 14 16  0  0  0  0  0  0  0  0999 V2000
   -4.4300   15.5500   -2.3370 N   0  0  0  0  0  0  0  0  0  0  0  0
   -3.3670   14.9360   -1.7460 C   0  0  0  0  0  0  0  0  0  0  0  0
   -2.3030   14.8230   -2.3440 O   0  0  0  0  0  0  0  0  0  0  0  0
   -3.6410   14.4110   -0.3370 C   0  0  2  0  0  0  0  0  0  0  0  0
   -4.6280   13.2970   -0.5000 C   0  0  0  0  0  0  0  0  0  0  0  0
   -4.1530   15.5040    0.6190 C   0  0  0  0  0  0  0  0  0  0  0  0
   -5.7180   13.1490    0.2960 N   0  0  0  0  0  0  0  0  0  0  0  0
   -4.8570   14.8860    1.8350 C   0  0  0  0  0  0  0  0  0  0  0  0
   -4.6060   12.3320   -1.3990 N   0  0  0  0  0  0  0  0  0  0  0  0
   -6.0590   14.0470    1.3980 C   0  0  0  0  0  0  0  0  0  0  0  0
   -6.4260   12.0640   -0.0830 C   0  0  0  0  0  0  0  0  0  0  0  0
   -5.7210   11.5660   -1.1430 C   0  0  0  0  0  0  0  0  0  0  0  0
   -7.4730   14.6060    1.5340 C   0  0  0  0  0  0  0  0  0  0  0  0
   -7.0370   13.4820    2.4100 C   0  0  0  0  0  0  0  0  0  0  0  0
  1  2  1  0
  2  3  2  0
  4  2  1  6
  4  5  1  0
  4  6  1  0
  5  7  1  0
  6  8  1  0
  5  9  2  0
  7 10  1  0
 10  8  1  0
  7 11  1  0
  9 12  1  0
 11 12  2  0
 10 13  1  0
 10 14  1  0
 13 14  1  0
M  END
