diamond-x0766_0_A-mac-x0568
     RDKit          3D

 22 24  0  0  0  0  0  0  0  0999 V2000
    0.6470   12.2800   -2.8480 C   0  0  0  0  0  0  0  0  0  0  0  0
    0.0100   11.0920   -2.8000 O   0  0  0  0  0  0  0  0  0  0  0  0
    1.3890   12.6090   -1.9450 O   0  0  0  0  0  0  0  0  0  0  0  0
    0.3230   13.0920   -4.0800 C   0  0  2  0  0  0  0  0  0  0  0  0
    1.6060   13.5020   -4.8140 C   0  0  0  0  0  0  0  0  0  0  0  0
   -0.3460   14.4210   -3.7050 C   0  0  2  0  0  0  0  0  0  0  0  0
    1.7800   14.9980   -4.5450 C   0  0  0  0  0  0  0  0  0  0  0  0
    0.8090   15.3780   -3.4650 C   0  0  0  0  0  0  0  0  0  0  0  0
   -1.2790   14.3400   -2.5710 C   0  0  0  0  0  0  0  0  0  0  0  0
   -2.5330   13.9270   -2.5610 C   0  0  0  0  0  0  0  0  0  0  0  0
   -0.8800   14.7290   -1.2340 C   0  0  0  0  0  0  0  0  0  0  0  0
   -1.9090   14.5690   -0.4020 C   0  0  0  0  0  0  0  0  0  0  0  0
   -3.0780   14.0520   -1.1830 C   0  0  1  0  0  0  0  0  0  0  0  0
   -4.1470   15.0750   -1.3050 C   0  0  0  0  0  0  0  0  0  0  0  0
   -4.1140   15.9530   -2.1470 O   0  0  0  0  0  0  0  0  0  0  0  0
   -5.2950   14.9320   -0.4250 C   0  0  0  0  0  0  0  0  0  0  0  0
   -6.5240   14.9380   -1.0400 C   0  0  0  0  0  0  0  0  0  0  0  0
   -5.2280   14.7820    0.9550 C   0  0  0  0  0  0  0  0  0  0  0  0
   -7.6890   14.8010   -0.3800 N   0  0  0  0  0  0  0  0  0  0  0  0
   -6.4250   14.6390    1.6570 C   0  0  0  0  0  0  0  0  0  0  0  0
   -7.6220   14.6520    0.9550 C   0  0  0  0  0  0  0  0  0  0  0  0
   -8.9170   14.5010    1.6820 C   0  0  0  0  0  0  0  0  0  0  0  0
  1  2  1  0
  1  3  2  0
  4  1  1  1
  4  5  1  0
  4  6  1  0
  5  7  1  0
  6  8  1  0
  7  8  1  0
  6  9  1  1
  9 10  2  0
  9 11  1  0
 11 12  2  0
 10 13  1  0
 12 13  1  0
 13 14  1  6
 14 15  2  0
 14 16  1  0
 16 17  2  0
 16 18  1  0
 17 19  1  0
 18 20  2  0
 19 21  2  0
 20 21  1  0
 21 22  1  0
M  END
