diamond-x0104_0_A-diamond-x0933_0_A
     RDKit          3D

 17 18  0  0  0  0  0  0  0  0999 V2000
   -6.8180   14.6560    2.6770 N   0  0  0  0  0  0  0  0  0  0  0  0
   -8.0470   15.0760    3.1620 C   0  0  0  0  0  0  0  0  0  0  0  0
   -8.0190   15.0930    4.5500 N   0  0  0  0  0  0  0  0  0  0  0  0
   -6.2830   14.7240    1.3750 C   0  0  0  0  0  0  0  0  0  0  0  0
   -9.0090   15.3840    2.4680 O   0  0  0  0  0  0  0  0  0  0  0  0
   -4.9210   14.8250    1.0940 C   0  0  0  0  0  0  0  0  0  0  0  0
   -7.1590   14.6890    0.2880 C   0  0  0  0  0  0  0  0  0  0  0  0
   -4.3990   14.8910   -0.1570 N   0  0  0  0  0  0  0  0  0  0  0  0
   -6.6490   14.7620   -1.0080 C   0  0  0  0  0  0  0  0  0  0  0  0
   -9.1310   15.0980    5.3640 C   0  0  0  0  0  0  0  0  0  0  0  0
   -5.2770   14.8600   -1.1780 C   0  0  0  0  0  0  0  0  0  0  0  0
   -9.2880   15.2140    6.7220 C   0  0  0  0  0  0  0  0  0  0  0  0
  -10.6180   14.9220    4.5460 S   0  0  0  0  0  0  0  0  0  0  0  0
   -4.8330   14.9210   -2.4830 O   0  0  0  0  0  0  0  0  0  0  0  0
  -11.4970   15.0010    6.0150 C   0  0  0  0  0  0  0  0  0  0  0  0
  -10.6640   15.1590    7.1030 C   0  0  0  0  0  0  0  0  0  0  0  0
   -3.4290   15.0830   -2.5970 C   0  0  0  0  0  0  0  0  0  0  0  0
  1  2  1  0
  2  3  1  0
  1  4  1  0
  2  5  2  0
  4  6  2  0
  4  7  1  0
  6  8  1  0
  7  9  2  0
  3 10  1  0
  8 11  2  0
  9 11  1  0
 10 12  2  0
 10 13  1  0
 11 14  1  0
 13 15  1  0
 12 16  1  0
 15 16  2  0
 14 17  1  0
M  END
