diamond-x0689_0_A-mac-x0584
     RDKit          3D

 19 22  0  0  0  0  0  0  0  0999 V2000
   -3.6110   13.6970    1.1040 N   0  0  0  0  0  0  0  0  0  0  0  0
   -4.9020   14.3700    1.1440 C   0  0  0  0  0  0  0  0  0  0  0  0
   -2.5720   14.5200    0.5570 C   0  0  2  0  0  0  0  0  0  0  0  0
   -2.4360   14.4210   -0.9500 N   0  0  0  0  0  0  0  0  0  0  0  0
   -1.3330   14.5780    1.2740 N   0  0  0  0  0  0  0  0  0  0  0  0
   -3.0940   15.8720    0.5720 N   0  0  0  0  0  0  0  0  0  0  0  0
   -1.1700   14.8690   -1.6500 C   0  0  1  0  0  0  0  0  0  0  0  0
   -0.1970   15.0260    0.6900 C   0  0  0  0  0  0  0  0  0  0  0  0
   -3.6890   14.9140   -1.3280 C   0  0  0  0  0  0  0  0  0  0  0  0
   -4.0830   15.8010   -0.3970 C   0  0  0  0  0  0  0  0  0  0  0  0
   -0.0850   15.1730   -0.6290 C   0  0  0  0  0  0  0  0  0  0  0  0
   -0.5250   14.1130   -2.8780 C   0  0  1  0  0  0  0  0  0  0  0  0
   -1.5630   16.0920   -2.5190 C   0  0  0  0  0  0  0  0  0  0  0  0
   -0.1370   12.6660   -2.7000 C   0  0  0  0  0  0  0  0  0  0  0  0
   -1.4510   14.2830   -4.0970 C   0  0  0  0  0  0  0  0  0  0  0  0
   -2.0500   15.6450   -3.9060 C   0  0  0  0  0  0  0  0  0  0  0  0
    0.9850   12.1620   -3.6500 C   0  0  0  0  0  0  0  0  0  0  0  0
   -1.0720   11.6590   -3.4140 C   0  0  0  0  0  0  0  0  0  0  0  0
    0.1730   10.8550   -3.7510 C   0  0  0  0  0  0  0  0  0  0  0  0
  1  2  1  0
  3  1  1  1
  3  4  1  0
  3  5  1  0
  3  6  1  0
  4  7  1  0
  5  8  1  0
  4  9  1  0
  6 10  1  0
  9 10  2  0
  7 11  1  1
  8 11  2  0
  7 12  1  0
  7 13  1  0
 12 14  1  1
 12 15  1  0
 13 16  1  0
 15 16  1  0
 14 17  1  0
 14 18  1  0
 17 19  1  0
 18 19  1  0
M  END
