diamond-x0837_0_A-mac-x0373
     RDKit          3D

 17 18  0  0  0  0  0  0  0  0999 V2000
   -7.3810   14.7510   -0.2510 O   0  0  0  0  0  0  0  0  0  0  0  0
   -6.1850   14.8890   -0.0350 C   0  0  0  0  0  0  0  0  0  0  0  0
   -5.6660   14.9010    1.2850 N   0  0  0  0  0  0  0  0  0  0  0  0
   -5.1990   15.0550   -1.1380 C   0  0  0  0  0  0  0  0  0  0  0  0
   -4.2850   15.3230    1.4690 C   0  0  0  0  0  0  0  0  0  0  0  0
   -3.8380   14.5280   -0.7330 C   0  0  1  0  0  0  0  0  0  0  0  0
   -2.2900   14.5380   -2.4060 I   0  0  0  0  0  0  0  0  0  0  0  0
   -3.4220   15.1340    0.4960 C   0  0  0  0  0  0  0  0  0  0  0  0
   -0.1820   14.5790   -1.6260 C   0  0  0  0  0  0  0  0  0  0  0  0
   -2.2720   12.8020   -3.7610 C   0  0  0  0  0  0  0  0  0  0  0  0
    0.4360   13.3360   -1.5430 O   0  0  0  0  0  0  0  0  0  0  0  0
    0.5050   15.5010   -1.2940 O   0  0  0  0  0  0  0  0  0  0  0  0
   -1.5070   12.7720   -4.8900 C   0  0  0  0  0  0  0  0  0  0  0  0
   -3.0380   11.7090   -3.4580 C   0  0  0  0  0  0  0  0  0  0  0  0
   -1.4940   11.6580   -5.7360 C   0  0  0  0  0  0  0  0  0  0  0  0
   -3.0610   10.5910   -4.2560 C   0  0  0  0  0  0  0  0  0  0  0  0
   -2.2800   10.6170   -5.3680 C   0  0  0  0  0  0  0  0  0  0  0  0
  1  2  2  0
  2  3  1  0
  2  4  1  0
  3  5  1  0
  4  6  1  0
  6  7  1  6
  5  8  2  0
  6  8  1  0
  7  9  1  0
  7 10  1  0
  9 11  1  0
  9 12  2  0
 10 13  2  0
 10 14  1  0
 13 15  1  0
 14 16  2  0
 15 17  2  0
 16 17  1  0
M  END
