diamond-x0910_0_A-mac-x0204
     RDKit          3D

 17 18  0  0  0  0  0  0  0  0999 V2000
   -2.1510   14.5520   -1.7460 N   0  0  0  0  0  0  0  0  0  0  0  0
   -1.6030   14.6450   -0.5240 C   0  0  0  0  0  0  0  0  0  0  0  0
   -2.2890   14.7510    0.5810 N   0  0  0  0  0  0  0  0  0  0  0  0
   -0.2450   14.6520   -0.2200 N   0  0  0  0  0  0  0  0  0  0  0  0
    0.9300   14.5600   -1.0820 C   0  0  0  0  0  0  0  0  0  0  0  0
   -1.4080   14.8290    1.6100 N   0  0  0  0  0  0  0  0  0  0  0  0
   -0.2040   14.7740    1.1260 C   0  0  0  0  0  0  0  0  0  0  0  0
    0.4450   14.9850   -2.3640 N   0  0  0  0  0  0  0  0  0  0  0  0
   -0.3180   14.1140   -2.8290 C   0  0  0  0  0  0  0  0  0  0  0  0
   -0.4090   12.9740   -2.1280 O   0  0  0  0  0  0  0  0  0  0  0  0
   -1.1930   14.0530   -3.9630 C   0  0  0  0  0  0  0  0  0  0  0  0
   -1.6440   15.2490   -4.5090 C   0  0  0  0  0  0  0  0  0  0  0  0
   -1.6090   12.8440   -4.4900 C   0  0  0  0  0  0  0  0  0  0  0  0
   -2.5140   15.1870   -5.5720 C   0  0  0  0  0  0  0  0  0  0  0  0
   -2.4590   12.7640   -5.5360 N   0  0  0  0  0  0  0  0  0  0  0  0
   -3.0060   16.3160   -6.1610 O   0  0  0  0  0  0  0  0  0  0  0  0
   -2.8940   13.9410   -6.0520 C   0  0  0  0  0  0  0  0  0  0  0  0
  1  2  1  0
  2  3  2  0
  2  4  1  0
  4  5  1  0
  3  6  1  0
  4  7  1  0
  6  7  2  0
  5  8  1  0
  8  9  2  3
  9 10  1  0
  9 11  1  0
 11 12  2  0
 11 13  1  0
 12 14  1  0
 13 15  2  0
 14 16  1  0
 14 17  2  0
 15 17  1  0
M  END
