diamond-x0722_0_A-mac-x0358
     RDKit          3D

 25 26  0  0  0  0  0  0  0  0999 V2000
   -4.9320   15.2410    2.0010 C   0  0  0  0  0  0  0  0  0  0  0  0
   -3.6990   14.9880    1.2570 C   0  0  0  0  0  0  0  0  0  0  0  0
   -2.5660   14.7120    1.8830 N   0  0  0  0  0  0  0  0  0  0  0  0
   -3.5580   14.9980   -0.1400 C   0  0  0  0  0  0  0  0  0  0  0  0
   -4.6510   15.2800   -1.1280 C   0  0  0  0  0  0  0  0  0  0  0  0
   -2.2220   14.6920   -0.3480 C   0  0  0  0  0  0  0  0  0  0  0  0
   -1.6720   14.5390    0.9070 N   0  0  0  0  0  0  0  0  0  0  0  0
   -0.3060   14.2260    1.2650 C   0  0  0  0  0  0  0  0  0  0  0  0
   -1.4220   14.5310   -1.5980 C   0  0  0  0  0  0  0  0  0  0  0  0
   -5.9890   14.6750   -0.7280 C   0  0  0  0  0  0  0  0  0  0  0  0
   -7.0630   15.2620   -0.8550 O   0  0  0  0  0  0  0  0  0  0  0  0
   -5.9650   13.4150   -0.1960 N   0  0  0  0  0  0  0  0  0  0  0  0
   -0.4940   13.3300   -1.5240 C   0  0  0  0  0  0  0  0  0  0  0  0
    0.9650   13.7720   -1.5960 C   0  0  0  0  0  0  0  0  0  0  0  0
    1.7100   12.7550   -2.2640 O   0  0  0  0  0  0  0  0  0  0  0  0
    0.9780   12.1190   -3.2170 C   0  0  0  0  0  0  0  0  0  0  0  0
    0.4250   11.0370   -3.0430 O   0  0  0  0  0  0  0  0  0  0  0  0
    0.9130   12.9100   -4.5050 C   0  0  0  0  0  0  0  0  0  0  0  0
   -0.4480   13.4610   -4.8610 C   0  0  0  0  0  0  0  0  0  0  0  0
   -1.5050   12.6160   -5.2170 C   0  0  0  0  0  0  0  0  0  0  0  0
   -0.6840   14.8470   -4.8420 C   0  0  0  0  0  0  0  0  0  0  0  0
   -1.2950   11.2630   -5.2380 O   0  0  0  0  0  0  0  0  0  0  0  0
   -2.7620   13.1260   -5.5470 C   0  0  0  0  0  0  0  0  0  0  0  0
   -1.9440   15.3640   -5.1690 C   0  0  0  0  0  0  0  0  0  0  0  0
   -2.9820   14.5020   -5.5230 C   0  0  0  0  0  0  0  0  0  0  0  0
  1  2  1  0
  2  3  2  0
  2  4  1  0
  4  5  1  0
  4  6  2  0
  3  7  1  0
  6  7  1  0
  7  8  1  0
  6  9  1  0
  5 10  1  0
 10 11  2  0
 10 12  1  0
  9 13  1  0
 13 14  1  0
 14 15  1  0
 15 16  1  0
 16 17  2  0
 16 18  1  0
 18 19  1  0
 19 20  2  0
 19 21  1  0
 20 22  1  0
 20 23  1  0
 21 24  2  0
 23 25  2  0
 24 25  1  0
M  END
