diamond-x0933_0_A-mac-x0357
     RDKit          3D

 20 21  0  0  0  0  0  0  0  0999 V2000
   -6.0870   14.7800    1.8900 N   0  0  0  0  0  0  0  0  0  0  0  0
   -5.1290   15.1620    0.9140 C   0  0  1  0  0  0  0  0  0  0  0  0
   -3.8900   14.6550    1.3440 N   0  0  0  0  0  0  0  0  0  0  0  0
   -5.5660   14.4920   -0.2280 N   0  0  0  0  0  0  0  0  0  0  0  0
   -4.8170   15.0450   -1.3240 C   0  0  0  0  0  0  0  0  0  0  0  0
   -2.8510   14.6170    0.3130 C   0  0  0  0  0  0  0  0  0  0  0  0
   -3.3080   14.8630   -1.1520 C   0  0  1  0  0  0  0  0  0  0  0  0
   -2.7890   13.7920   -2.1080 C   0  0  0  0  0  0  0  0  0  0  0  0
   -1.6230   14.3240   -2.9230 C   0  0  0  0  0  0  0  0  0  0  0  0
   -0.4290   14.0400   -2.1490 N   0  0  0  0  0  0  0  0  0  0  0  0
    0.3670   13.1690   -2.6200 C   0  0  0  0  0  0  0  0  0  0  0  0
    1.4940   12.7910   -1.9950 O   0  0  0  0  0  0  0  0  0  0  0  0
    0.1360   12.4880   -3.9120 C   0  0  0  0  0  0  0  0  0  0  0  0
    1.1330   12.4550   -4.8910 C   0  0  0  0  0  0  0  0  0  0  0  0
   -1.1100   11.8780   -4.1240 C   0  0  0  0  0  0  0  0  0  0  0  0
    2.4770   13.0960   -4.6750 C   0  0  0  0  0  0  0  0  0  0  0  0
   -1.3720   11.2270   -5.3300 C   0  0  0  0  0  0  0  0  0  0  0  0
    0.8380   11.7940   -6.0860 C   0  0  0  0  0  0  0  0  0  0  0  0
    1.7930   11.7410   -7.0400 O   0  0  0  0  0  0  0  0  0  0  0  0
   -0.3940   11.1850   -6.3180 C   0  0  0  0  0  0  0  0  0  0  0  0
  2  1  1  1
  2  3  1  0
  2  4  1  0
  4  5  1  0
  3  6  1  0
  5  7  1  0
  6  7  1  0
  7  8  1  6
  8  9  1  0
  9 10  1  0
 10 11  2  3
 11 12  1  0
 11 13  1  0
 13 14  2  0
 13 15  1  0
 14 16  1  0
 15 17  2  0
 14 18  1  0
 18 19  1  0
 17 20  1  0
 18 20  2  0
M  END
