diamond-x0900_0_A-mac-x0223
     RDKit          3D

 22 23  0  0  0  0  0  0  0  0999 V2000
   -7.1240   15.0360   -0.6690 O   0  0  0  0  0  0  0  0  0  0  0  0
   -5.9410   14.9620   -0.3810 C   0  0  0  0  0  0  0  0  0  0  0  0
   -4.8670   15.0750   -1.2500 N   0  0  0  0  0  0  0  0  0  0  0  0
   -5.3840   14.7250    1.0060 C   0  0  0  0  0  0  0  0  0  0  0  0
   -4.9620   14.9160   -2.7000 C   0  0  0  0  0  0  0  0  0  0  0  0
   -3.9900   15.3140    0.8850 C   0  0  0  0  0  0  0  0  0  0  0  0
   -3.6190   14.9340   -0.5380 C   0  0  0  0  0  0  0  0  0  0  0  0
   -3.6810   15.3560   -3.4210 C   0  0  0  0  0  0  0  0  0  0  0  0
   -3.6900   15.6340   -4.9550 C   0  0  0  0  0  0  0  0  0  0  0  0
   -2.8020   16.7620   -5.1660 O   0  0  0  0  0  0  0  0  0  0  0  0
   -1.6560   16.1160   -4.9510 C   0  0  0  0  0  0  0  0  0  0  0  0
   -0.3670   16.6830   -4.8610 C   0  0  0  0  0  0  0  0  0  0  0  0
   -1.8430   14.7620   -4.8120 C   0  0  0  0  0  0  0  0  0  0  0  0
   -0.2070   18.0300   -5.0120 O   0  0  0  0  0  0  0  0  0  0  0  0
   -0.8100   13.9250   -4.5770 C   0  0  0  0  0  0  0  0  0  0  0  0
    0.7010   15.8020   -4.6160 C   0  0  0  0  0  0  0  0  0  0  0  0
    1.0730   18.3820   -5.5140 C   0  0  0  0  0  0  0  0  0  0  0  0
    0.4630   14.4200   -4.4720 C   0  0  0  0  0  0  0  0  0  0  0  0
    1.5220   13.4120   -4.1970 C   0  0  0  0  0  0  0  0  0  0  0  0
    1.0120   12.5150   -3.0950 C   0  0  0  0  0  0  0  0  0  0  0  0
    0.3820   11.4750   -3.2090 O   0  0  0  0  0  0  0  0  0  0  0  0
    1.3120   12.9890   -1.8730 O   0  0  0  0  0  0  0  0  0  0  0  0
  1  2  2  0
  2  3  1  0
  2  4  1  0
  3  5  1  0
  4  6  1  0
  3  7  1  0
  6  7  1  0
  5  8  1  0
  8  9  1  0
  9 10  1  0
 10 11  1  0
 11 12  2  0
 11 13  1  0
 12 14  1  0
 13 15  2  0
 12 16  1  0
 14 17  1  0
 15 18  1  0
 16 18  2  0
 18 19  1  0
 19 20  1  0
 20 21  2  0
 20 22  1  0
M  END
