diamond-x0574_0_A-mac-x0361
     RDKit          3D

 15 16  0  0  0  0  0  0  0  0999 V2000
    0.2020   14.0650    2.2020 N   0  0  0  0  0  0  0  0  0  0  0  0
   -0.8190   14.3040    1.4250 C   0  0  0  0  0  0  0  0  0  0  0  0
   -1.9720   14.3350    1.9470 N   0  0  0  0  0  0  0  0  0  0  0  0
   -0.7150   14.5750   -0.2600 S   0  0  0  0  0  0  0  0  0  0  0  0
   -2.8980   14.5590    0.9990 C   0  0  0  0  0  0  0  0  0  0  0  0
   -2.4350   14.7240   -0.2960 C   0  0  0  0  0  0  0  0  0  0  0  0
   -4.2430   14.6180    1.2780 C   0  0  0  0  0  0  0  0  0  0  0  0
   -3.3310   14.9620   -1.3430 C   0  0  0  0  0  0  0  0  0  0  0  0
   -2.8650   15.1320   -2.6400 O   0  0  0  0  0  0  0  0  0  0  0  0
   -5.1650   14.8350    0.2920 C   0  0  0  0  0  0  0  0  0  0  0  0
   -4.7040   15.0130   -1.0300 C   0  0  0  0  0  0  0  0  0  0  0  0
   -6.5360   14.8650    0.6420 N   0  0  0  0  0  0  0  0  0  0  0  0
   -6.9420   14.5810    2.0200 C   0  0  0  0  0  0  0  0  0  0  0  0
   -7.5230   15.0110   -0.2960 C   0  0  0  0  0  0  0  0  0  0  0  0
   -8.5740   14.3980   -0.2990 O   0  0  0  0  0  0  0  0  0  0  0  0
  1  2  1  0
  2  3  2  0
  2  4  1  0
  3  5  1  0
  4  6  1  0
  5  6  2  0
  5  7  1  0
  6  8  1  0
  8  9  1  0
  7 10  2  0
  8 11  2  0
 10 11  1  0
 10 12  1  0
 12 13  1  0
 12 14  1  0
 14 15  2  0
M  END
