diamond-x0524_0_A-mac-x0231
     RDKit          3D

 34 37  0  0  0  0  0  0  0  0999 V2000
   -0.5290    8.5520   -8.3080 N   0  0  0  0  0  0  0  0  0  0  0  0
   -0.6300    9.4820   -7.3180 C   0  0  0  0  0  0  0  0  0  0  0  0
   -1.7920    9.4090   -6.3390 C   0  0  0  0  0  0  0  0  0  0  0  0
    0.5750    8.5280   -9.1970 C   0  0  0  0  0  0  0  0  0  0  0  0
    0.2200   10.4310   -7.1580 N   0  0  0  0  0  0  0  0  0  0  0  0
    1.7630    7.8130   -8.9650 C   0  0  0  0  0  0  0  0  0  0  0  0
    0.4660    9.2770  -10.3920 C   0  0  0  0  0  0  0  0  0  0  0  0
    0.1940   11.4400   -6.1200 C   0  0  0  0  0  0  0  0  0  0  0  0
    2.8100    7.8370   -9.8910 C   0  0  0  0  0  0  0  0  0  0  0  0
    1.5060    9.3070  -11.3250 C   0  0  0  0  0  0  0  0  0  0  0  0
    1.6200   11.8110   -5.7110 C   0  0  0  0  0  0  0  0  0  0  0  0
    2.6860    8.5830  -11.0760 C   0  0  0  0  0  0  0  0  0  0  0  0
    3.7390    8.6060  -12.0150 N   0  0  0  0  0  0  0  0  0  0  0  0
    1.7470   12.5590   -4.3660 C   0  0  2  0  0  0  0  0  0  0  0  0
    1.2350   11.8750   -3.1230 C   0  0  0  0  0  0  0  0  0  0  0  0
    3.9340    9.5120  -13.0930 C   0  0  0  0  0  0  0  0  0  0  0  0
    1.1770   13.9720   -4.4640 C   0  0  0  0  0  0  0  0  0  0  0  0
    0.7200   10.6450   -3.3070 O   0  0  0  0  0  0  0  0  0  0  0  0
    1.2500   12.3510   -1.9980 O   0  0  0  0  0  0  0  0  0  0  0  0
    3.1900   10.7050  -13.1860 C   0  0  0  0  0  0  0  0  0  0  0  0
    4.8760    9.2430  -14.0870 C   0  0  0  0  0  0  0  0  0  0  0  0
   -0.2670   14.2540   -4.7520 C   0  0  0  0  0  0  0  0  0  0  0  0
    2.0390   14.9160   -4.2580 N   0  0  0  0  0  0  0  0  0  0  0  0
    3.3930   11.5900  -14.2420 C   0  0  0  0  0  0  0  0  0  0  0  0
    5.0720   10.1350  -15.1380 C   0  0  0  0  0  0  0  0  0  0  0  0
   -0.6430   15.5950   -4.8320 C   0  0  0  0  0  0  0  0  0  0  0  0
    1.6310   16.2050   -4.3140 N   0  0  0  0  0  0  0  0  0  0  0  0
   -1.2540   13.2810   -4.9370 C   0  0  0  0  0  0  0  0  0  0  0  0
    4.3320   11.3120  -15.2190 C   0  0  0  0  0  0  0  0  0  0  0  0
    0.3720   16.6400   -4.6390 C   0  0  0  0  0  0  0  0  0  0  0  0
   -1.9770   15.9600   -5.0920 C   0  0  0  0  0  0  0  0  0  0  0  0
   -2.5830   13.6370   -5.1990 C   0  0  0  0  0  0  0  0  0  0  0  0
    0.0950   17.8280   -4.7600 O   0  0  0  0  0  0  0  0  0  0  0  0
   -2.9450   14.9790   -5.2760 C   0  0  0  0  0  0  0  0  0  0  0  0
  1  2  1  0
  2  3  1  0
  1  4  1  0
  2  5  2  3
  4  6  2  0
  4  7  1  0
  5  8  1  0
  6  9  1  0
  7 10  2  0
  8 11  1  0
  9 12  2  0
 10 12  1  0
 12 13  1  0
 14 11  1  6
 14 15  1  0
 13 16  1  0
 14 17  1  0
 15 18  1  0
 15 19  2  0
 16 20  2  0
 16 21  1  0
 17 22  1  0
 17 23  2  0
 20 24  1  0
 21 25  2  0
 22 26  2  0
 23 27  1  0
 22 28  1  0
 24 29  2  0
 25 29  1  0
 26 30  1  0
 27 30  1  0
 26 31  1  0
 28 32  2  0
 30 33  2  0
 31 34  2  0
 32 34  1  0
M  END
