diamond-x0950_0_A-diamond-x1015_0_A
     RDKit          3D

 20 22  0  0  0  0  0  0  0  0999 V2000
    3.1940   12.3410   -4.2050 C   0  0  0  0  0  0  0  0  0  0  0  0
    1.7030   12.5770   -4.3410 C   0  0  1  0  0  0  0  0  0  0  0  0
    1.3260   12.3310   -5.6760 O   0  0  0  0  0  0  0  0  0  0  0  0
    0.8390   11.7880   -3.3410 C   0  0  2  0  0  0  0  0  0  0  0  0
   -0.5960   12.0830   -3.1250 C   0  0  2  0  0  0  0  0  0  0  0  0
    1.2400   12.0860   -1.9410 C   0  0  0  0  0  0  0  0  0  0  0  0
    0.2750   12.7880   -1.1860 O   0  0  0  0  0  0  0  0  0  0  0  0
   -1.2150   12.6370   -4.2660 N   0  0  0  0  0  0  0  0  0  0  0  0
   -0.6030   13.1490   -2.1900 N   0  0  0  0  0  0  0  0  0  0  0  0
   -0.6890   14.0380   -4.3100 C   0  0  2  0  0  0  0  0  0  0  0  0
   -0.2010   14.2820   -2.8670 C   0  0  0  0  0  0  0  0  0  0  0  0
   -1.2760   11.7550   -5.3270 C   0  0  0  0  0  0  0  0  0  0  0  0
   -1.7700   15.0340   -4.6620 C   0  0  0  0  0  0  0  0  0  0  0  0
    0.3980   15.2530   -2.4220 O   0  0  0  0  0  0  0  0  0  0  0  0
   -0.6300   11.9680   -6.5580 C   0  0  0  0  0  0  0  0  0  0  0  0
   -2.0110   10.5670   -5.2020 C   0  0  0  0  0  0  0  0  0  0  0  0
   -0.7190   11.0450   -7.6060 C   0  0  0  0  0  0  0  0  0  0  0  0
   -2.1120    9.6410   -6.2360 C   0  0  0  0  0  0  0  0  0  0  0  0
   -1.4660    9.8840   -7.4380 C   0  0  0  0  0  0  0  0  0  0  0  0
   -1.5930    8.7410   -8.7110 Cl  0  0  0  0  0  0  0  0  0  0  0  0
  2  1  1  6
  2  3  1  0
  2  4  1  0
  4  5  1  0
  4  6  1  1
  6  7  1  0
  5  8  1  6
  5  9  1  0
  7  9  1  0
  8 10  1  0
  9 11  1  0
 10 11  1  0
  8 12  1  0
 10 13  1  1
 11 14  2  0
 12 15  2  0
 12 16  1  0
 15 17  1  0
 16 18  2  0
 17 19  2  0
 18 19  1  0
 19 20  1  0
M  END
