diamond-x0591_0_A-diamond-x0962_2_B
     RDKit          3D

 21 22  0  0  0  0  0  0  0  0999 V2000
   -6.1940   14.6060    0.9790 N   0  0  0  0  0  0  0  0  0  0  0  0
   -7.2080   13.9150    1.7770 C   0  0  0  0  0  0  0  0  0  0  0  0
   -7.8860   14.7860    2.8180 C   0  0  0  0  0  0  0  0  0  0  0  0
   -6.4470   14.8430   -0.3570 C   0  0  0  0  0  0  0  0  0  0  0  0
   -7.5790   15.1110   -0.7310 O   0  0  0  0  0  0  0  0  0  0  0  0
   -5.3720   14.7620   -1.4100 C   0  0  0  0  0  0  0  0  0  0  0  0
   -4.0130   14.5570   -1.1050 C   0  0  0  0  0  0  0  0  0  0  0  0
   -5.7530   14.8960   -2.7470 C   0  0  0  0  0  0  0  0  0  0  0  0
   -8.9880   15.6320    2.7480 C   0  0  0  0  0  0  0  0  0  0  0  0
   -7.3980   14.8140    4.1120 N   0  0  0  0  0  0  0  0  0  0  0  0
   -9.8420   15.9520    1.6700 C   0  0  0  0  0  0  0  0  0  0  0  0
   -3.0560   14.4920   -2.1480 C   0  0  0  0  0  0  0  0  0  0  0  0
   -4.8110   14.8270   -3.7720 C   0  0  0  0  0  0  0  0  0  0  0  0
   -9.1330   16.1640    4.0060 N   0  0  0  0  0  0  0  0  0  0  0  0
   -8.1510   15.6400    4.7880 C   0  0  0  0  0  0  0  0  0  0  0  0
  -10.5680   16.2370    0.8150 N   0  0  0  0  0  0  0  0  0  0  0  0
   -3.4740   14.6290   -3.4800 C   0  0  0  0  0  0  0  0  0  0  0  0
   -2.3470   14.5550   -4.8540 S   0  0  0  0  0  0  0  0  0  0  0  0
   -1.0910   15.5700   -4.4010 N   0  0  0  0  0  0  0  0  0  0  0  0
   -1.7830   13.2330   -4.9330 O   0  0  0  0  0  0  0  0  0  0  0  0
   -2.9770   15.1880   -5.9920 O   0  0  0  0  0  0  0  0  0  0  0  0
  1  2  1  0
  2  3  1  0
  1  4  1  0
  4  5  2  0
  4  6  1  0
  6  7  2  0
  6  8  1  0
  3  9  2  0
  3 10  1  0
  9 11  1  0
  7 12  1  0
  8 13  2  0
  9 14  1  0
 10 15  2  0
 14 15  1  0
 11 16  3  0
 12 17  2  0
 13 17  1  0
 17 18  1  0
 18 19  1  0
 18 20  2  0
 18 21  2  0
M  END
