diamond-x0837_0_A-mac-x0326
     RDKit          3D

 22 24  0  0  0  0  0  0  0  0999 V2000
   -7.2380   12.5730   -1.4490 O   0  0  0  0  0  0  0  0  0  0  0  0
   -6.2770   13.2790   -1.1780 C   0  0  0  0  0  0  0  0  0  0  0  0
   -6.0540   13.6530    0.0840 N   0  0  0  0  0  0  0  0  0  0  0  0
   -5.3020   13.8270   -2.1990 C   0  0  0  0  0  0  0  0  0  0  0  0
   -6.0570   14.9590    0.2980 C   0  0  0  0  0  0  0  0  0  0  0  0
   -4.6690   15.1410   -1.7360 C   0  0  1  0  0  0  0  0  0  0  0  0
   -5.4110   15.7510   -0.5830 C   0  0  0  0  0  0  0  0  0  0  0  0
   -3.2850   14.9730   -1.1820 C   0  0  0  0  0  0  0  0  0  0  0  0
   -2.0430   14.7770   -1.8720 C   0  0  0  0  0  0  0  0  0  0  0  0
   -3.2270   15.0280    0.2140 C   0  0  0  0  0  0  0  0  0  0  0  0
   -4.6250   15.2800    1.1750 Cl  0  0  0  0  0  0  0  0  0  0  0  0
   -1.8070   14.6940   -3.2490 N   0  0  0  0  0  0  0  0  0  0  0  0
   -0.8840   14.6520   -1.0910 C   0  0  0  0  0  0  0  0  0  0  0  0
   -2.0740   14.8930    0.9370 C   0  0  0  0  0  0  0  0  0  0  0  0
   -0.5130   14.5170   -3.4740 C   0  0  0  0  0  0  0  0  0  0  0  0
    0.4830   14.4380   -2.0860 S   0  0  0  0  0  0  0  0  0  0  0  0
   -0.8780   14.7030    0.3040 C   0  0  0  0  0  0  0  0  0  0  0  0
    0.1310   14.3830   -4.8240 C   0  0  0  0  0  0  0  0  0  0  0  0
    1.2250   13.3150   -4.8570 C   0  0  0  0  0  0  0  0  0  0  0  0
    1.0980   12.3260   -3.7370 C   0  0  0  0  0  0  0  0  0  0  0  0
    0.1860   11.3700   -3.9920 O   0  0  0  0  0  0  0  0  0  0  0  0
    1.7170   12.3260   -2.6920 O   0  0  0  0  0  0  0  0  0  0  0  0
  1  2  2  0
  2  3  1  0
  2  4  1  0
  3  5  1  0
  4  6  1  0
  5  7  2  0
  6  7  1  0
  6  8  1  1
  8  9  1  0
  8 10  2  0
 10 11  1  0
  9 12  1  0
  9 13  2  0
 10 14  1  0
 12 15  2  0
 13 16  1  0
 15 16  1  0
 13 17  1  0
 14 17  2  0
 15 18  1  0
 18 19  1  0
 19 20  1  0
 20 21  1  0
 20 22  2  0
M  END
