diamond-x0967_0_A-mac-x0282
     RDKit          3D

 15 17  0  0  0  0  0  0  0  0999 V2000
   -7.0720   14.9770   -0.8920 N   0  0  0  0  0  0  0  0  0  0  0  0
   -7.8530   14.8650    0.2090 C   0  0  0  0  0  0  0  0  0  0  0  0
   -7.3800   14.4630    1.4390 C   0  0  0  0  0  0  0  0  0  0  0  0
   -5.7670   14.6720   -0.7580 C   0  0  0  0  0  0  0  0  0  0  0  0
   -5.2120   14.2550    0.4250 C   0  0  0  0  0  0  0  0  0  0  0  0
   -4.9520   14.7820   -1.8620 N   0  0  0  0  0  0  0  0  0  0  0  0
   -6.0370   14.1530    1.5370 C   0  0  0  0  0  0  0  0  0  0  0  0
   -3.6700   15.4150   -1.6000 C   0  0  0  0  0  0  0  0  0  0  0  0
   -3.7430   13.9110    0.4850 C   0  0  0  0  0  0  0  0  0  0  0  0
   -2.8410   14.7440   -0.4620 C   0  0  1  0  0  0  0  0  0  0  0  0
   -1.6210   13.9880   -1.0170 C   0  0  0  0  0  0  0  0  0  0  0  0
   -2.2180   15.7990    0.4520 C   0  0  0  0  0  0  0  0  0  0  0  0
   -0.4500   13.9330   -0.3430 C   0  0  0  0  0  0  0  0  0  0  0  0
   -1.4710   15.1470    1.5240 N   0  0  0  0  0  0  0  0  0  0  0  0
   -0.2370   14.5790    0.9890 C   0  0  0  0  0  0  0  0  0  0  0  0
  1  2  2  0
  2  3  1  0
  1  4  1  0
  4  5  2  0
  4  6  1  0
  3  7  2  0
  5  7  1  0
  6  8  1  0
  5  9  1  0
 10  8  1  6
  9 10  1  0
 10 11  1  0
 10 12  1  0
 11 13  2  0
 12 14  1  0
 13 15  1  0
 14 15  1  0
M  END
