diamond-x0766_0_A-mac-x0453
     RDKit          3D

 16 17  0  0  0  0  0  0  0  0999 V2000
    0.3300   12.2010   -2.4470 C   0  0  0  0  0  0  0  0  0  0  0  0
    0.2400   10.9200   -2.8220 O   0  0  0  0  0  0  0  0  0  0  0  0
    0.5160   12.4900   -1.2770 O   0  0  0  0  0  0  0  0  0  0  0  0
    0.1400   13.2360   -3.5130 C   0  0  2  0  0  0  0  0  0  0  0  0
    1.3270   13.5350   -4.4520 C   0  0  0  0  0  0  0  0  0  0  0  0
   -0.1930   14.5560   -2.7990 C   0  0  1  0  0  0  0  0  0  0  0  0
    1.4480   15.0620   -4.4990 C   0  0  0  0  0  0  0  0  0  0  0  0
    0.2010   15.6190   -3.8210 C   0  0  0  0  0  0  0  0  0  0  0  0
   -1.6030   14.6850   -2.1970 C   0  0  0  0  0  0  0  0  0  0  0  0
   -2.7950   14.8520   -2.8770 C   0  0  0  0  0  0  0  0  0  0  0  0
   -1.8680   14.6550   -0.7620 C   0  0  0  0  0  0  0  0  0  0  0  0
   -3.2250   14.8010   -0.4290 C   0  0  0  0  0  0  0  0  0  0  0  0
   -4.1560   14.9700   -1.8440 S   0  0  0  0  0  0  0  0  0  0  0  0
   -3.9470   14.8300    0.9260 C   0  0  0  0  0  0  0  0  0  0  0  0
   -5.1100   13.8030    1.0630 C   0  0  0  0  0  0  0  0  0  0  0  0
   -6.2240   14.2320    1.9290 N   0  0  0  0  0  0  0  0  0  0  0  0
  1  2  1  0
  1  3  2  0
  4  1  1  1
  4  5  1  0
  4  6  1  0
  5  7  1  0
  6  8  1  0
  7  8  1  0
  6  9  1  6
  9 10  2  0
  9 11  1  0
 11 12  2  0
 10 13  1  0
 12 13  1  0
 12 14  1  0
 14 15  1  0
 15 16  1  0
M  END
