diamond-x0128_0_A-diamond-x0766_0_A
     RDKit          3D

 28 31  0  0  0  0  0  0  0  0999 V2000
   -6.5050   14.3610    2.2980 N   0  0  0  0  0  0  0  0  0  0  0  0
   -7.6300   15.0510    2.8070 C   0  0  0  0  0  0  0  0  0  0  0  0
   -8.5610   15.4300    2.1040 O   0  0  0  0  0  0  0  0  0  0  0  0
   -5.7600   14.7940    1.0990 C   0  0  2  0  0  0  0  0  0  0  0  0
   -7.5160   15.2200    4.1810 N   0  0  0  0  0  0  0  0  0  0  0  0
   -6.7450   14.7940   -0.0140 C   0  0  0  0  0  0  0  0  0  0  0  0
   -4.4500   14.0900    0.5980 C   0  0  0  0  0  0  0  0  0  0  0  0
   -6.3500   15.1360   -1.2300 C   0  0  0  0  0  0  0  0  0  0  0  0
   -3.8190   14.7770   -0.6950 C   0  0  2  0  0  0  0  0  0  0  0  0
   -8.3280   15.9490    5.1120 C   0  0  0  0  0  0  0  0  0  0  0  0
   -4.9300   15.5360   -1.4800 C   0  0  0  0  0  0  0  0  0  0  0  0
   -9.0200   17.1000    4.7030 C   0  0  0  0  0  0  0  0  0  0  0  0
   -8.4950   15.5940    6.4490 C   0  0  0  0  0  0  0  0  0  0  0  0
   -3.0520   13.8600   -1.7430 C   0  0  0  0  0  0  0  0  0  0  0  0
   -2.6980   15.7360   -0.3580 C   0  0  0  0  0  0  0  0  0  0  0  0
   -9.8130   17.8650    5.4990 N   0  0  0  0  0  0  0  0  0  0  0  0
   -9.3060   16.3610    7.2970 C   0  0  0  0  0  0  0  0  0  0  0  0
   -1.5400   14.2600   -1.7950 C   0  0  2  0  0  0  0  0  0  0  0  0
   -1.5130   15.4790   -0.9410 C   0  0  0  0  0  0  0  0  0  0  0  0
   -9.9370   17.4790    6.7790 C   0  0  0  0  0  0  0  0  0  0  0  0
   -0.7480   14.2960   -3.1650 C   0  0  2  0  0  0  0  0  0  0  0  0
    0.5490   13.4890   -3.1360 C   0  0  1  0  0  0  0  0  0  0  0  0
   -0.1140   15.6120   -3.6690 C   0  0  0  0  0  0  0  0  0  0  0  0
    0.3550   12.1510   -2.5130 C   0  0  0  0  0  0  0  0  0  0  0  0
    1.0940   13.6520   -4.5400 C   0  0  0  0  0  0  0  0  0  0  0  0
    1.0570   15.1830   -4.6030 C   0  0  0  0  0  0  0  0  0  0  0  0
    0.4800   12.0070   -1.3210 O   0  0  0  0  0  0  0  0  0  0  0  0
    0.0200   11.1240   -3.3060 O   0  0  0  0  0  0  0  0  0  0  0  0
  1  2  1  0
  2  3  2  0
  4  1  1  1
  2  5  1  0
  4  6  1  0
  4  7  1  0
  6  8  2  0
  9  7  1  1
  5 10  1  0
  8 11  1  0
  9 11  1  0
 10 12  2  0
 10 13  1  0
  9 14  1  0
  9 15  1  0
 12 16  1  0
 13 17  2  0
 18 14  1  6
 15 19  2  0
 18 19  1  0
 16 20  2  0
 17 20  1  0
 18 21  1  0
 21 22  1  0
 21 23  1  1
 22 24  1  6
 22 25  1  0
 23 26  1  0
 25 26  1  0
 24 27  2  0
 24 28  1  0
M  END
