diamond-x0128_0_A-mac-x0271
     RDKit          3D

 22 24  0  0  0  0  0  0  0  0999 V2000
   -6.7150   14.7370    2.5440 N   0  0  0  0  0  0  0  0  0  0  0  0
   -7.7880   15.2830    3.2210 C   0  0  0  0  0  0  0  0  0  0  0  0
   -8.8310   15.5720    2.6480 O   0  0  0  0  0  0  0  0  0  0  0  0
   -6.9370   13.7610    1.4630 C   0  0  1  0  0  0  0  0  0  0  0  0
   -7.5350   15.4610    4.5600 N   0  0  0  0  0  0  0  0  0  0  0  0
   -6.7490   12.3720    2.0200 C   0  0  0  0  0  0  0  0  0  0  0  0
   -8.3560   13.8550    0.9250 C   0  0  0  0  0  0  0  0  0  0  0  0
   -5.8720   13.9080    0.3560 C   0  0  1  0  0  0  0  0  0  0  0  0
   -6.4010   14.5580   -0.9340 C   0  0  2  0  0  0  0  0  0  0  0  0
   -4.6680   14.7330    0.7050 C   0  0  0  0  0  0  0  0  0  0  0  0
   -8.3890   16.1410    5.4510 C   0  0  0  0  0  0  0  0  0  0  0  0
   -8.5830   15.0520    0.0900 C   0  0  0  0  0  0  0  0  0  0  0  0
   -9.6130   15.7140    0.1900 O   0  0  0  0  0  0  0  0  0  0  0  0
   -5.2360   15.4230   -1.4580 C   0  0  1  0  0  0  0  0  0  0  0  0
   -4.3350   15.5430   -0.2850 C   0  0  0  0  0  0  0  0  0  0  0  0
   -9.0760   17.2650    4.9880 C   0  0  0  0  0  0  0  0  0  0  0  0
   -8.6030   15.7710    6.7710 C   0  0  0  0  0  0  0  0  0  0  0  0
   -7.6010   15.3630   -0.7810 O   0  0  0  0  0  0  0  0  0  0  0  0
   -4.4840   14.8180   -2.5120 O   0  0  0  0  0  0  0  0  0  0  0  0
   -9.9270   18.0120    5.7290 N   0  0  0  0  0  0  0  0  0  0  0  0
   -9.4750   16.5230    7.5640 C   0  0  0  0  0  0  0  0  0  0  0  0
  -10.1050   17.6220    7.0030 C   0  0  0  0  0  0  0  0  0  0  0  0
  1  2  1  0
  2  3  2  0
  4  1  1  0
  2  5  1  0
  4  6  1  1
  4  7  1  0
  4  8  1  0
  8  9  1  0
  8 10  1  1
  5 11  1  0
  7 12  1  0
 12 13  2  0
  9 14  1  0
 10 15  2  0
 14 15  1  0
 11 16  2  0
 11 17  1  0
  9 18  1  1
 12 18  1  0
 14 19  1  6
 16 20  1  0
 17 21  2  0
 20 22  2  0
 21 22  1  0
M  END
