diamond-x0592_0_A-diamond-x0962_2_B
     RDKit          3D

 18 19  0  0  0  0  0  0  0  0999 V2000
   -2.8090   15.0730    1.1930 N   0  0  0  0  0  0  0  0  0  0  0  0
   -3.2520   14.9180   -0.0860 C   0  0  0  0  0  0  0  0  0  0  0  0
   -2.4550   14.8060   -1.0090 O   0  0  0  0  0  0  0  0  0  0  0  0
   -4.6860   14.8920   -0.2860 C   0  0  0  0  0  0  0  0  0  0  0  0
   -5.3530   15.2390   -1.4810 C   0  0  0  0  0  0  0  0  0  0  0  0
   -5.7130   14.5440    0.5780 C   0  0  0  0  0  0  0  0  0  0  0  0
   -6.6750   15.1230   -1.3900 N   0  0  0  0  0  0  0  0  0  0  0  0
   -6.8780   14.7010   -0.1370 N   0  0  0  0  0  0  0  0  0  0  0  0
   -8.2460   14.4710    0.3000 C   0  0  0  0  0  0  0  0  0  0  0  0
   -8.3480   13.7120    1.6050 C   0  0  0  0  0  0  0  0  0  0  0  0
   -7.4490   14.2920    2.5150 O   0  0  0  0  0  0  0  0  0  0  0  0
   -8.0550   15.0240    3.4350 C   0  0  0  0  0  0  0  0  0  0  0  0
   -9.1460   15.8220    3.1850 C   0  0  0  0  0  0  0  0  0  0  0  0
   -7.6810   15.0920    4.7400 N   0  0  0  0  0  0  0  0  0  0  0  0
   -9.8810   16.0670    2.0010 C   0  0  0  0  0  0  0  0  0  0  0  0
   -9.4210   16.3970    4.3900 N   0  0  0  0  0  0  0  0  0  0  0  0
   -8.5120   15.9270    5.2910 C   0  0  0  0  0  0  0  0  0  0  0  0
  -10.5550   16.2890    1.0820 N   0  0  0  0  0  0  0  0  0  0  0  0
  1  2  1  0
  2  3  2  0
  2  4  1  0
  4  5  1  0
  4  6  2  0
  5  7  2  0
  6  8  1  0
  7  8  1  0
  8  9  1  0
  9 10  1  0
 10 11  1  0
 11 12  1  0
 12 13  2  0
 12 14  1  0
 13 15  1  0
 13 16  1  0
 14 17  2  0
 16 17  1  0
 15 18  3  0
M  END
