diamond-x0685_1_A-diamond-x0290_0_A
     RDKit          3D

 27 28  0  0  0  0  0  0  0  0999 V2000
   -1.5230   10.5770   -4.9700 N   0  0  0  0  0  0  0  0  0  0  0  0
   -1.3290   11.9450   -4.4670 C   0  0  0  0  0  0  0  0  0  0  0  0
    0.1050   12.4630   -4.4680 C   0  0  0  0  0  0  0  0  0  0  0  0
   -0.7970   10.3040   -6.2230 C   0  0  0  0  0  0  0  0  0  0  0  0
   -0.5400    8.8040   -6.4770 C   0  0  0  0  0  0  0  0  0  0  0  0
   -1.6220   10.9360   -7.3630 C   0  0  0  0  0  0  0  0  0  0  0  0
    0.9510   12.1790   -2.9210 S   0  0  0  0  0  0  0  0  0  0  0  0
    0.1190    8.5580   -7.8240 C   0  0  0  0  0  0  0  0  0  0  0  0
   -0.9940   10.6780   -8.7280 C   0  0  0  0  0  0  0  0  0  0  0  0
    2.5070   12.1840   -3.2670 O   0  0  0  0  0  0  0  0  0  0  0  0
    0.4390   10.7670   -2.3080 O   0  0  0  0  0  0  0  0  0  0  0  0
    0.6530   13.4470   -2.0120 O   0  0  0  0  0  0  0  0  0  0  0  0
   -0.7010    9.1880   -8.9510 C   0  0  0  0  0  0  0  0  0  0  0  0
    0.1640   14.6100   -2.6640 C   0  0  0  0  0  0  0  0  0  0  0  0
   -1.3200   14.6060   -2.4070 C   0  0  0  0  0  0  0  0  0  0  0  0
   -1.5440   14.6130   -0.9230 C   0  0  0  0  0  0  0  0  0  0  0  0
   -0.4420   14.5040   -0.0650 C   0  0  0  0  0  0  0  0  0  0  0  0
   -2.8110   14.7240   -0.3690 C   0  0  0  0  0  0  0  0  0  0  0  0
   -0.6690   14.5080    1.2920 C   0  0  0  0  0  0  0  0  0  0  0  0
   -2.9570   14.7220    1.0100 C   0  0  0  0  0  0  0  0  0  0  0  0
   -4.2640   14.8360    1.5010 N   0  0  0  0  0  0  0  0  0  0  0  0
   -1.8900   14.6120    1.8330 N   0  0  0  0  0  0  0  0  0  0  0  0
   -5.3810   14.5070    0.7610 C   0  0  0  0  0  0  0  0  0  0  0  0
   -5.5020   14.4970   -0.4620 O   0  0  0  0  0  0  0  0  0  0  0  0
   -6.5690   14.1060    1.6520 C   0  0  0  0  0  0  0  0  0  0  0  0
   -7.7800   13.8010    0.8620 N   0  0  0  0  0  0  0  0  0  0  0  0
   -8.6340   14.9640    0.6920 C   0  0  0  0  0  0  0  0  0  0  0  0
  1  2  1  0
  2  3  1  0
  1  4  1  0
  4  5  1  0
  4  6  1  0
  3  7  1  0
  5  8  1  0
  6  9  1  0
  7 10  1  0
  7 11  1  0
  7 12  1  0
  8 13  1  0
  9 13  1  0
 12 14  1  0
 14 15  1  0
 15 16  1  0
 16 17  2  0
 16 18  1  0
 17 19  1  0
 18 20  2  0
 20 21  1  0
 19 22  2  0
 20 22  1  0
 21 23  1  0
 23 24  2  0
 23 25  1  0
 25 26  1  0
 26 27  1  0
M  END
