diamond-x0465_0_A-mac-x0337
     RDKit          3D

 27 28  0  0  0  0  0  0  0  0999 V2000
    2.1100   13.0530   -5.1730 C   0  0  0  0  0  0  0  0  0  0  0  0
    0.7060   12.5600   -4.9100 C   0  0  1  0  0  0  0  0  0  0  0  0
    0.5580   11.3560   -5.6550 O   0  0  0  0  0  0  0  0  0  0  0  0
    0.6330   12.3590   -3.4130 C   0  0  0  0  0  0  0  0  0  0  0  0
    0.6040   13.3820   -2.6460 N   0  0  0  0  0  0  0  0  0  0  0  0
    0.6140   11.0770   -2.9760 O   0  0  0  0  0  0  0  0  0  0  0  0
   -0.6740   10.7710   -5.7250 C   0  0  0  0  0  0  0  0  0  0  0  0
    0.5640   13.0880   -1.2440 C   0  0  0  0  0  0  0  0  0  0  0  0
   -0.8310    9.7970   -6.7210 C   0  0  0  0  0  0  0  0  0  0  0  0
   -1.7560   11.0660   -4.8980 C   0  0  0  0  0  0  0  0  0  0  0  0
    0.1790    9.4880   -7.5450 F   0  0  0  0  0  0  0  0  0  0  0  0
   -0.7880   13.3010   -0.5660 C   0  0  0  0  0  0  0  0  0  0  0  0
   -2.0310    9.1240   -6.8900 C   0  0  0  0  0  0  0  0  0  0  0  0
   -2.9670   10.3910   -5.0690 C   0  0  0  0  0  0  0  0  0  0  0  0
   -1.2330   14.7370   -0.4590 C   0  0  0  0  0  0  0  0  0  0  0  0
   -3.1070    9.4210   -6.0590 C   0  0  0  0  0  0  0  0  0  0  0  0
   -2.6040   14.8110    0.0910 N   0  0  0  0  0  0  0  0  0  0  0  0
   -3.7170   14.8390   -0.9490 S   0  0  2  0  0  0  0  0  0  0  0  0
   -3.6670   15.5810   -2.1840 O   0  0  0  0  0  0  0  0  0  0  0  0
   -4.8910   15.6570   -0.0830 N   0  0  0  0  0  0  0  0  0  0  0  0
   -4.3100   13.2030   -1.2670 C   0  0  0  0  0  0  0  0  0  0  0  0
   -3.5700   12.3370   -2.0700 C   0  0  0  0  0  0  0  0  0  0  0  0
   -5.5240   12.7870   -0.7120 C   0  0  0  0  0  0  0  0  0  0  0  0
   -4.0490   11.0500   -2.3260 C   0  0  0  0  0  0  0  0  0  0  0  0
   -5.9990   11.5010   -0.9720 C   0  0  0  0  0  0  0  0  0  0  0  0
   -5.2690   10.6260   -1.7820 C   0  0  0  0  0  0  0  0  0  0  0  0
   -5.7840    9.2430   -2.0660 C   0  0  0  0  0  0  0  0  0  0  0  0
  2  1  1  1
  2  3  1  0
  2  4  1  0
  4  5  2  3
  4  6  1  0
  3  7  1  0
  5  8  1  0
  7  9  2  0
  7 10  1  0
  9 11  1  0
  8 12  1  0
  9 13  1  0
 10 14  2  0
 12 15  1  0
 13 16  2  0
 14 16  1  0
 15 17  1  0
 17 18  2  0
 18 19  2  0
 18 20  1  1
 18 21  1  0
 21 22  2  0
 21 23  1  0
 22 24  1  0
 23 25  2  0
 24 26  2  0
 25 26  1  0
 26 27  1  0
M  END
