diamond-x0905_0_A-mac-x1493
     RDKit          3D

 14 15  0  0  0  0  0  0  0  0999 V2000
   -6.4680   16.1160   -0.8110 O   0  0  0  0  0  0  0  0  0  0  0  0
   -5.6950   15.0120   -0.4170 C   0  0  2  0  0  0  0  0  0  0  0  0
   -5.0050   15.2860    0.8900 N   0  0  0  0  0  0  0  0  0  0  0  0
   -4.7100   14.8700   -1.5560 C   0  0  0  0  0  0  0  0  0  0  0  0
   -6.7850   13.9930   -0.2140 C   0  0  0  0  0  0  0  0  0  0  0  0
   -3.6410   15.1990    0.9950 C   0  0  0  0  0  0  0  0  0  0  0  0
   -3.3660   14.8770   -1.3630 C   0  0  0  0  0  0  0  0  0  0  0  0
   -7.2940   13.7100    1.0060 C   0  0  0  0  0  0  0  0  0  0  0  0
   -5.6920   15.1030    2.0710 C   0  0  0  0  0  0  0  0  0  0  0  0
   -2.4300   14.7530   -2.5090 C   0  0  0  0  0  0  0  0  0  0  0  0
   -2.8300   15.0060   -0.0290 C   0  0  0  0  0  0  0  0  0  0  0  0
   -6.7880   14.3730    2.1740 C   0  0  0  0  0  0  0  0  0  0  0  0
   -1.1790   14.4680   -2.1030 O   0  0  0  0  0  0  0  0  0  0  0  0
   -2.6730   14.8910   -3.6930 O   0  0  0  0  0  0  0  0  0  0  0  0
  2  1  1  6
  2  3  1  0
  2  4  1  0
  2  5  1  0
  3  6  1  0
  4  7  2  0
  5  8  2  0
  3  9  1  0
  7 10  1  0
  6 11  2  0
  7 11  1  0
  8 12  1  0
  9 12  2  0
 10 13  1  0
 10 14  2  0
M  END
