diamond-x0471_0_A-mac-x0346
     RDKit          3D

 21 23  0  0  0  0  0  0  0  0999 V2000
   -9.1430   14.2740    1.6930 N   0  0  0  0  0  0  0  0  0  0  0  0
   -9.0760   15.2690    2.6520 C   0  0  0  0  0  0  0  0  0  0  0  0
   -9.2230   16.4480    2.3740 O   0  0  0  0  0  0  0  0  0  0  0  0
   -8.0750   13.7940    0.8280 C   0  0  1  0  0  0  0  0  0  0  0  0
   -8.8550   14.8040    4.0980 C   0  0  0  0  0  0  0  0  0  0  0  0
   -8.5920   13.8630   -0.5060 N   0  0  0  0  0  0  0  0  0  0  0  0
   -6.7040   14.4290    0.9060 C   0  0  0  0  0  0  0  0  0  0  0  0
   -8.4490   13.3360    4.1770 C   0  0  0  0  0  0  0  0  0  0  0  0
   -7.8500   15.6950    4.8310 C   0  0  0  0  0  0  0  0  0  0  0  0
   -7.8010   13.7300   -1.6220 C   0  0  0  0  0  0  0  0  0  0  0  0
   -5.9450   14.6450   -0.2690 C   0  0  0  0  0  0  0  0  0  0  0  0
   -6.1220   14.8100    2.0990 C   0  0  0  0  0  0  0  0  0  0  0  0
   -8.2510   13.1550   -2.5990 O   0  0  0  0  0  0  0  0  0  0  0  0
   -4.8960   15.3650    2.2090 N   0  0  0  0  0  0  0  0  0  0  0  0
   -4.6570   15.2100   -0.1670 C   0  0  0  0  0  0  0  0  0  0  0  0
   -6.4290   14.3110   -1.5440 C   0  0  0  0  0  0  0  0  0  0  0  0
   -5.6260   14.5290   -2.6810 C   0  0  0  0  0  0  0  0  0  0  0  0
   -3.8840   15.4140   -1.3040 C   0  0  0  0  0  0  0  0  0  0  0  0
   -4.1940   15.5480    1.0870 C   0  0  0  0  0  0  0  0  0  0  0  0
   -6.0600   14.2090   -3.9340 O   0  0  0  0  0  0  0  0  0  0  0  0
   -4.3570   15.0780   -2.5540 C   0  0  0  0  0  0  0  0  0  0  0  0
  1  2  1  0
  2  3  2  0
  4  1  1  1
  2  5  1  0
  4  6  1  0
  4  7  1  0
  5  8  1  0
  5  9  1  0
  6 10  1  0
  7 11  2  0
  7 12  1  0
 10 13  2  0
 12 14  2  0
 11 15  1  0
 10 16  1  0
 11 16  1  0
 16 17  2  0
 15 18  1  0
 14 19  1  0
 15 19  2  0
 17 20  1  0
 17 21  1  0
 18 21  2  0
M  END
