diamond-x0766_0_A-mac-x0365
     RDKit          3D

 24 26  0  0  0  0  0  0  0  0999 V2000
    0.6090   11.8130   -2.5930 C   0  0  0  0  0  0  0  0  0  0  0  0
    0.2220   10.5120   -2.6110 O   0  0  0  0  0  0  0  0  0  0  0  0
    0.9360   12.3220   -1.5350 O   0  0  0  0  0  0  0  0  0  0  0  0
    0.4840   12.5520   -3.9170 C   0  0  2  0  0  0  0  0  0  0  0  0
    1.7560   13.2130   -4.4670 C   0  0  0  0  0  0  0  0  0  0  0  0
   -0.3330   13.7510   -3.5140 C   0  0  1  0  0  0  0  0  0  0  0  0
    1.3340   14.6380   -4.8980 C   0  0  0  0  0  0  0  0  0  0  0  0
   -0.1480   14.7940   -4.5830 C   0  0  0  0  0  0  0  0  0  0  0  0
   -1.6900   13.3690   -2.9990 C   0  0  0  0  0  0  0  0  0  0  0  0
   -2.6210   12.4860   -3.4910 C   0  0  0  0  0  0  0  0  0  0  0  0
   -2.1760   13.9360   -1.8370 C   0  0  0  0  0  0  0  0  0  0  0  0
   -1.5220   14.9180   -1.0960 C   0  0  0  0  0  0  0  0  0  0  0  0
   -3.4030   13.4950   -1.4420 C   0  0  0  0  0  0  0  0  0  0  0  0
   -4.0220   12.3750   -2.5120 S   0  0  0  0  0  0  0  0  0  0  0  0
   -0.6430   14.4560   -0.1220 O   0  0  0  0  0  0  0  0  0  0  0  0
   -0.8030   15.4740   -2.1760 O   0  0  0  0  0  0  0  0  0  0  0  0
   -3.0040   15.1230   -0.8100 C   0  0  0  0  0  0  0  0  0  0  0  0
   -3.9180   15.1950   -1.8970 C   0  0  0  0  0  0  0  0  0  0  0  0
   -3.5180   15.1910    0.4910 C   0  0  0  0  0  0  0  0  0  0  0  0
   -5.2820   15.3010   -1.6700 C   0  0  0  0  0  0  0  0  0  0  0  0
   -4.8920   15.3010    0.7050 C   0  0  0  0  0  0  0  0  0  0  0  0
   -6.1310   15.3480   -2.7040 F   0  0  0  0  0  0  0  0  0  0  0  0
   -5.7670   15.3440   -0.3860 C   0  0  0  0  0  0  0  0  0  0  0  0
   -7.1190   15.4230   -0.2310 O   0  0  0  0  0  0  0  0  0  0  0  0
  1  2  1  0
  1  3  2  0
  4  1  1  1
  4  5  1  0
  4  6  1  0
  5  7  1  0
  6  8  1  0
  7  8  1  0
  6  9  1  6
  9 10  2  0
  9 11  1  0
 11 12  1  0
 11 13  2  0
 10 14  1  0
 13 14  1  0
 12 15  1  0
 12 16  1  0
 12 17  1  0
 17 18  2  0
 17 19  1  0
 18 20  1  0
 19 21  2  0
 20 22  1  0
 20 23  2  0
 21 23  1  0
 23 24  1  0
M  END
