diamond-x0933_0_A-mac-x0472
     RDKit          3D

 17 18  0  0  0  0  0  0  0  0999 V2000
   -6.4620   14.6720    2.1030 N   0  0  0  0  0  0  0  0  0  0  0  0
   -5.4730   14.4320    1.1290 C   0  0  2  0  0  0  0  0  0  0  0  0
   -4.3600   15.1520    1.6340 N   0  0  0  0  0  0  0  0  0  0  0  0
   -5.9440   15.0580   -0.0350 N   0  0  0  0  0  0  0  0  0  0  0  0
   -4.9560   14.9250   -1.0860 C   0  0  0  0  0  0  0  0  0  0  0  0
   -3.2040   14.8880    0.8000 C   0  0  0  0  0  0  0  0  0  0  0  0
   -3.5270   15.2840   -0.6520 C   0  0  1  0  0  0  0  0  0  0  0  0
   -2.5980   14.6610   -1.5840 N   0  0  0  0  0  0  0  0  0  0  0  0
   -3.3170   14.1910   -2.9990 S   0  0  0  0  0  0  0  0  0  0  0  0
   -4.3630   15.1460   -3.2820 O   0  0  0  0  0  0  0  0  0  0  0  0
   -2.2470   13.9660   -3.9330 O   0  0  0  0  0  0  0  0  0  0  0  0
   -4.0470   12.6290   -2.5450 C   0  0  0  0  0  0  0  0  0  0  0  0
   -3.3020   11.4630   -2.7090 C   0  0  0  0  0  0  0  0  0  0  0  0
   -5.3520   12.5700   -2.0330 C   0  0  0  0  0  0  0  0  0  0  0  0
   -3.8640   10.2340   -2.3630 C   0  0  0  0  0  0  0  0  0  0  0  0
   -5.9080   11.3420   -1.6860 C   0  0  0  0  0  0  0  0  0  0  0  0
   -5.1650   10.1780   -1.8550 C   0  0  0  0  0  0  0  0  0  0  0  0
  2  1  1  1
  2  3  1  0
  2  4  1  0
  4  5  1  0
  3  6  1  0
  5  7  1  0
  6  7  1  0
  7  8  1  6
  9  8  1  0
  9 10  2  0
  9 11  2  0
  9 12  1  0
 12 13  2  0
 12 14  1  0
 13 15  1  0
 14 16  2  0
 15 17  2  0
 16 17  1  0
M  END
