diamond-x0371_0_A-diamond-x0438_0_A
     RDKit          3D

 20 22  0  0  0  0  0  0  0  0999 V2000
   -8.3000   14.1900    3.0370 N   0  0  0  0  0  0  0  0  0  0  0  0
   -8.7100   15.4940    3.5950 C   0  0  1  0  0  0  0  0  0  0  0  0
  -10.0660   15.8850    3.1380 N   0  0  0  0  0  0  0  0  0  0  0  0
   -8.4570   14.1700    1.5710 C   0  0  0  0  0  0  0  0  0  0  0  0
   -7.1730   14.4530    0.8480 C   0  0  0  0  0  0  0  0  0  0  0  0
   -8.6220   15.4920    5.0950 C   0  0  0  0  0  0  0  0  0  0  0  0
  -10.8620   14.6800    2.9300 O   0  0  0  0  0  0  0  0  0  0  0  0
   -9.9160   16.5300    1.8460 O   0  0  0  0  0  0  0  0  0  0  0  0
   -5.9290   14.4180    1.4390 N   0  0  0  0  0  0  0  0  0  0  0  0
   -7.0650   14.7630   -0.4320 N   0  0  0  0  0  0  0  0  0  0  0  0
   -8.0410   14.3960    5.6610 O   0  0  0  0  0  0  0  0  0  0  0  0
   -9.0020   16.3790    6.0820 C   0  0  0  0  0  0  0  0  0  0  0  0
   -5.7250   14.9220   -0.6700 C   0  0  0  0  0  0  0  0  0  0  0  0
   -4.9920   14.7090    0.4880 C   0  0  0  0  0  0  0  0  0  0  0  0
   -8.6260   15.7890    7.3130 C   0  0  0  0  0  0  0  0  0  0  0  0
   -8.0450   14.5860    7.0030 C   0  0  0  0  0  0  0  0  0  0  0  0
   -3.6070   14.7970    0.5510 C   0  0  0  0  0  0  0  0  0  0  0  0
   -5.0580   15.2470   -1.8550 C   0  0  0  0  0  0  0  0  0  0  0  0
   -2.9570   15.1130   -0.6420 C   0  0  0  0  0  0  0  0  0  0  0  0
   -3.6660   15.3380   -1.8270 C   0  0  0  0  0  0  0  0  0  0  0  0
  2  1  1  1
  2  3  1  0
  1  4  1  0
  4  5  1  0
  2  6  1  0
  3  7  1  0
  3  8  1  0
  5  9  1  0
  5 10  2  0
  6 11  1  0
  6 12  2  0
 10 13  1  0
  9 14  1  0
 13 14  2  0
 12 15  1  0
 11 16  1  0
 15 16  2  0
 14 17  1  0
 13 18  1  0
 17 19  2  0
 18 20  2  0
 19 20  1  0
M  END
