diamond-x0587_0_A-mac-x0159
     RDKit          3D

 31 34  0  0  0  0  0  0  0  0999 V2000
   -7.7230   14.9560    4.2320 N   0  0  0  0  0  0  0  0  0  0  0  0
   -8.3680   15.0210    3.0320 C   0  0  0  0  0  0  0  0  0  0  0  0
   -9.5660   15.2870    2.9590 O   0  0  0  0  0  0  0  0  0  0  0  0
   -7.5810   14.7680    1.8220 C   0  0  0  0  0  0  0  0  0  0  0  0
   -8.1290   14.5360    0.5860 C   0  0  0  0  0  0  0  0  0  0  0  0
   -6.2070   14.7580    1.8660 C   0  0  0  0  0  0  0  0  0  0  0  0
   -7.4060   14.3130   -0.5280 N   0  0  0  0  0  0  0  0  0  0  0  0
   -5.4300   14.5430    0.7820 N   0  0  0  0  0  0  0  0  0  0  0  0
   -6.0560   14.3240   -0.4040 C   0  0  0  0  0  0  0  0  0  0  0  0
   -5.2320   14.0730   -1.6820 C   0  0  0  0  0  0  0  0  0  0  0  0
   -3.8330   13.9970   -1.4370 O   0  0  0  0  0  0  0  0  0  0  0  0
   -5.5860   12.9110   -2.3090 F   0  0  0  0  0  0  0  0  0  0  0  0
   -5.3980   15.0560   -2.6150 F   0  0  0  0  0  0  0  0  0  0  0  0
   -3.5040   13.4600   -0.1720 C   0  0  0  0  0  0  0  0  0  0  0  0
   -3.1250   14.5550    0.6690 N   0  0  0  0  0  0  0  0  0  0  0  0
   -2.7080   15.7280   -0.0740 C   0  0  2  0  0  0  0  0  0  0  0  0
   -3.3480   15.6630   -1.3990 N   0  0  0  0  0  0  0  0  0  0  0  0
   -1.1380   15.7810   -0.1040 C   0  0  2  0  0  0  0  0  0  0  0  0
   -2.4380   15.6280   -2.5480 C   0  0  0  0  0  0  0  0  0  0  0  0
   -0.4870   15.0680   -1.2750 C   0  0  2  0  0  0  0  0  0  0  0  0
   -0.4620   15.2010    1.0790 N   0  0  0  0  0  0  0  0  0  0  0  0
   -1.3290   14.7140   -2.3870 N   0  0  0  0  0  0  0  0  0  0  0  0
    0.0320   13.8160   -0.6920 N   0  0  0  0  0  0  0  0  0  0  0  0
   -0.3970   13.8250    0.7020 C   0  0  0  0  0  0  0  0  0  0  0  0
   -0.5640   14.6180   -3.6470 C   0  0  0  0  0  0  0  0  0  0  0  0
   -0.2860   15.9300   -4.3620 C   0  0  0  0  0  0  0  0  0  0  0  0
    0.9570   16.5260   -4.4450 C   0  0  0  0  0  0  0  0  0  0  0  0
   -1.2950   16.6470   -5.0050 N   0  0  0  0  0  0  0  0  0  0  0  0
   -0.8110   17.7430   -5.5490 C   0  0  0  0  0  0  0  0  0  0  0  0
    0.8670   17.9880   -5.3330 S   0  0  0  0  0  0  0  0  0  0  0  0
   -1.6220   18.7310   -6.3110 C   0  0  0  0  0  0  0  0  0  0  0  0
  1  2  1  0
  2  3  2  0
  2  4  1  0
  4  5  2  0
  4  6  1  0
  5  7  1  0
  6  8  2  0
  7  9  2  0
  8  9  1  0
  9 10  1  0
 10 11  1  0
 10 12  1  0
 10 13  1  0
 11 14  1  0
 14 15  1  0
 16 15  1  1
 16 17  1  0
 16 18  1  0
 17 19  1  0
 18 20  1  0
 18 21  1  1
 19 22  1  0
 20 22  1  0
 20 23  1  1
 21 24  1  0
 23 24  1  0
 22 25  1  0
 25 26  1  0
 26 27  2  0
 26 28  1  0
 28 29  2  0
 27 30  1  0
 29 30  1  0
 29 31  1  0
M  END
