diamond-x0142_0_A-diamond-x0814_0_B
     RDKit          3D

 31 33  0  0  0  0  0  0  0  0999 V2000
   15.1200    6.8020   12.0470 N   0  0  0  0  0  0  0  0  0  0  0  0
   14.9330    6.4780   10.7070 C   0  0  0  0  0  0  0  0  0  0  0  0
   14.7250    5.1100   10.6590 N   0  0  0  0  0  0  0  0  0  0  0  0
   15.1420    8.0620   12.6580 C   0  0  0  0  0  0  0  0  0  0  0  0
   14.9460    7.2500    9.7340 O   0  0  0  0  0  0  0  0  0  0  0  0
   14.5630    8.3370   13.8990 C   0  0  0  0  0  0  0  0  0  0  0  0
   15.7850    9.0820   11.9670 C   0  0  0  0  0  0  0  0  0  0  0  0
   14.6200    9.6270   14.4430 C   0  0  0  0  0  0  0  0  0  0  0  0
   15.8410   10.3610   12.5070 C   0  0  0  0  0  0  0  0  0  0  0  0
   14.9600    4.2280    9.5940 C   0  0  0  0  0  0  0  0  0  0  0  0
   15.2560   10.6520   13.7450 C   0  0  0  0  0  0  0  0  0  0  0  0
   15.7870    4.5000    8.5180 C   0  0  0  0  0  0  0  0  0  0  0  0
   14.3050    3.0000    9.6430 C   0  0  0  0  0  0  0  0  0  0  0  0
   15.3560   11.9860   14.1650 N   0  0  0  0  0  0  0  0  0  0  0  0
   15.9210    3.5340    7.5340 C   0  0  0  0  0  0  0  0  0  0  0  0
   14.5020    2.1000    8.6130 C   0  0  0  0  0  0  0  0  0  0  0  0
   15.0930   12.1090   15.6110 C   0  0  0  0  0  0  0  0  0  0  0  0
   15.2950    2.3390    7.5540 N   0  0  0  0  0  0  0  0  0  0  0  0
   14.5560   12.8630   13.2460 C   0  0  2  0  0  0  0  0  0  0  0  0
   13.2910   12.1200   12.9020 N   0  0  0  0  0  0  0  0  0  0  0  0
   15.4090   13.0380   11.9750 C   0  0  2  0  0  0  0  0  0  0  0  0
   15.8720   14.4790   11.8020 C   0  0  0  0  0  0  0  0  0  0  0  0
   11.8080   12.6950   13.3290 S   0  0  0  0  0  0  0  0  0  0  0  0
   13.2990   10.9270   12.0480 C   0  0  0  0  0  0  0  0  0  0  0  0
   14.7380   12.5200   10.7170 C   0  0  0  0  0  0  0  0  0  0  0  0
   11.9080   14.1390   13.3160 O   0  0  0  0  0  0  0  0  0  0  0  0
   17.1660   14.6070   11.3790 N   0  0  0  0  0  0  0  0  0  0  0  0
   10.7960   11.9890   12.5660 O   0  0  0  0  0  0  0  0  0  0  0  0
   15.2020   15.4770   12.0260 O   0  0  0  0  0  0  0  0  0  0  0  0
   11.7490   12.1340   15.0190 C   0  0  0  0  0  0  0  0  0  0  0  0
   14.0600   11.1580   10.7800 C   0  0  0  0  0  0  0  0  0  0  0  0
  1  2  1  0
  2  3  1  0
  1  4  1  0
  2  5  2  0
  4  6  2  0
  4  7  1  0
  6  8  1  0
  7  9  2  0
  3 10  1  0
  8 11  2  0
  9 11  1  0
 10 12  2  0
 10 13  1  0
 11 14  1  0
 12 15  1  0
 13 16  2  0
 14 17  1  0
 15 18  2  0
 16 18  1  0
 19 14  1  1
 19 20  1  0
 19 21  1  0
 21 22  1  6
 20 23  1  0
 20 24  1  0
 21 25  1  0
 23 26  2  0
 22 27  1  0
 23 28  2  0
 22 29  2  0
 23 30  1  0
 24 31  1  0
 25 31  1  0
M  END
