diamond-x0104_0_A-mac-x0326
     RDKit          3D

 30 33  0  0  0  0  0  0  0  0999 V2000
   -7.5330   14.4710    2.7060 N   0  0  0  0  0  0  0  0  0  0  0  0
   -8.4390   15.3400    3.2270 C   0  0  0  0  0  0  0  0  0  0  0  0
   -8.2600   15.4000    4.5930 N   0  0  0  0  0  0  0  0  0  0  0  0
   -6.7860   14.6110    1.5450 C   0  0  0  0  0  0  0  0  0  0  0  0
   -9.2720   15.9470    2.5750 O   0  0  0  0  0  0  0  0  0  0  0  0
   -5.4470   14.6270    1.6730 C   0  0  0  0  0  0  0  0  0  0  0  0
   -7.3330   14.7320    0.2420 C   0  0  0  0  0  0  0  0  0  0  0  0
   -4.6390   14.7200    0.6870 N   0  0  0  0  0  0  0  0  0  0  0  0
   -6.4520   14.8440   -0.8630 C   0  0  0  0  0  0  0  0  0  0  0  0
   -9.3020   15.2590    5.4680 C   0  0  0  0  0  0  0  0  0  0  0  0
   -5.1070   14.8150   -0.5280 C   0  0  0  0  0  0  0  0  0  0  0  0
   -9.3920   15.2690    6.8340 C   0  0  0  0  0  0  0  0  0  0  0  0
  -10.8060   15.0190    4.7040 S   0  0  0  0  0  0  0  0  0  0  0  0
  -11.6110   14.9260    6.2130 C   0  0  0  0  0  0  0  0  0  0  0  0
  -10.7390   15.0750    7.2710 C   0  0  0  0  0  0  0  0  0  0  0  0
   -3.8540   14.8340   -1.1590 C   0  0  0  0  0  0  0  0  0  0  0  0
   -3.4020   14.8280   -2.4810 C   0  0  0  0  0  0  0  0  0  0  0  0
   -2.9790   14.8210   -0.0780 C   0  0  0  0  0  0  0  0  0  0  0  0
   -1.9910   14.7830   -2.6280 C   0  0  0  0  0  0  0  0  0  0  0  0
   -1.6360   14.7880   -0.2070 C   0  0  0  0  0  0  0  0  0  0  0  0
   -4.3200   14.8390   -3.6460 C   0  0  0  0  0  0  0  0  0  0  0  0
   -1.2960   14.7430   -3.8170 N   0  0  0  0  0  0  0  0  0  0  0  0
   -1.1660   14.7630   -1.4910 C   0  0  0  0  0  0  0  0  0  0  0  0
   -0.0040   14.6840   -3.5690 C   0  0  0  0  0  0  0  0  0  0  0  0
    0.4770   14.7020   -1.9320 S   0  0  0  0  0  0  0  0  0  0  0  0
    1.0440   14.5860   -4.6170 C   0  0  0  0  0  0  0  0  0  0  0  0
    1.4400   13.1200   -4.7820 C   0  0  0  0  0  0  0  0  0  0  0  0
    1.2160   12.3370   -3.5060 C   0  0  0  0  0  0  0  0  0  0  0  0
    0.3340   11.3270   -3.6420 O   0  0  0  0  0  0  0  0  0  0  0  0
    1.7550   12.5460   -2.4330 O   0  0  0  0  0  0  0  0  0  0  0  0
  1  2  1  0
  2  3  1  0
  1  4  1  0
  2  5  2  0
  4  6  2  0
  4  7  1  0
  6  8  1  0
  7  9  2  0
  3 10  1  0
  8 11  2  0
  9 11  1  0
 10 12  2  0
 10 13  1  0
 13 14  1  0
 12 15  1  0
 14 15  2  0
 11 16  1  0
 16 17  2  0
 16 18  1  0
 17 19  1  0
 18 20  2  0
 17 21  1  0
 19 22  1  0
 19 23  2  0
 20 23  1  0
 22 24  2  0
 23 25  1  0
 24 25  1  0
 24 26  1  0
 26 27  1  0
 27 28  1  0
 28 29  1  0
 28 30  2  0
M  END
