diamond-x0421_0_A-mac-x0568
     RDKit          3D

 12 13  0  0  0  0  0  0  0  0999 V2000
   -3.7610   15.1410   -2.8560 N   0  0  0  0  0  0  0  0  0  0  0  0
   -2.8750   14.9290   -1.8390 C   0  0  0  0  0  0  0  0  0  0  0  0
   -1.6770   14.7670   -2.0420 O   0  0  0  0  0  0  0  0  0  0  0  0
   -3.4950   14.9110   -0.5200 C   0  0  0  0  0  0  0  0  0  0  0  0
   -2.8550   15.0500    0.7050 C   0  0  0  0  0  0  0  0  0  0  0  0
   -4.8570   14.7410   -0.3230 N   0  0  0  0  0  0  0  0  0  0  0  0
   -3.8440   14.9570    1.6360 N   0  0  0  0  0  0  0  0  0  0  0  0
   -5.0170   14.7710    0.9780 C   0  0  0  0  0  0  0  0  0  0  0  0
   -6.3720   14.6090    1.7030 C   0  0  1  0  0  0  0  0  0  0  0  0
   -7.6460   14.4980    0.9020 C   0  0  1  0  0  0  0  0  0  0  0  0
   -7.0630   13.2800    1.5560 C   0  0  0  0  0  0  0  0  0  0  0  0
   -8.9230   15.0460    1.4190 C   0  0  0  0  0  0  0  0  0  0  0  0
  1  2  1  0
  2  3  2  0
  2  4  1  0
  4  5  2  0
  4  6  1  0
  5  7  1  0
  6  8  2  0
  7  8  1  0
  9  8  1  6
  9 10  1  0
  9 11  1  0
 10 11  1  0
 10 12  1  1
M  END
