diamond-x0933_0_A-diamond-x0685_1_A
     RDKit          3D

 22 23  0  0  0  0  0  0  0  0999 V2000
   -6.2140   14.7140    1.6960 N   0  0  0  0  0  0  0  0  0  0  0  0
   -5.2560   15.0900    0.7180 C   0  0  1  0  0  0  0  0  0  0  0  0
   -4.0600   15.2630    1.4620 N   0  0  0  0  0  0  0  0  0  0  0  0
   -5.1880   13.9440   -0.0980 N   0  0  0  0  0  0  0  0  0  0  0  0
   -4.3620   14.2090   -1.2610 C   0  0  0  0  0  0  0  0  0  0  0  0
   -2.8880   14.7990    0.7170 C   0  0  0  0  0  0  0  0  0  0  0  0
   -3.0860   14.9140   -0.8080 C   0  0  1  0  0  0  0  0  0  0  0  0
   -1.8480   14.4610   -1.6120 C   0  0  0  0  0  0  0  0  0  0  0  0
   -1.2110   13.1550   -1.1570 C   0  0  0  0  0  0  0  0  0  0  0  0
    0.1490   13.1290   -1.5790 O   0  0  0  0  0  0  0  0  0  0  0  0
    0.6500   12.1520   -2.7520 S   0  0  0  0  0  0  0  0  0  0  0  0
   -0.0320   12.6310   -4.3450 C   0  0  0  0  0  0  0  0  0  0  0  0
    2.2320   12.2900   -2.9590 O   0  0  0  0  0  0  0  0  0  0  0  0
    0.2480   10.6090   -2.4730 O   0  0  0  0  0  0  0  0  0  0  0  0
   -1.3840   12.0010   -4.6800 C   0  0  0  0  0  0  0  0  0  0  0  0
   -1.3370   10.5440   -4.8870 N   0  0  0  0  0  0  0  0  0  0  0  0
   -1.3570   10.0270   -6.2720 C   0  0  0  0  0  0  0  0  0  0  0  0
   -0.0980    9.2470   -6.6390 C   0  0  0  0  0  0  0  0  0  0  0  0
   -1.5460   11.1580   -7.3040 C   0  0  0  0  0  0  0  0  0  0  0  0
   -0.2050    8.5260   -7.9730 C   0  0  0  0  0  0  0  0  0  0  0  0
   -1.1380   10.7770   -8.7350 C   0  0  0  0  0  0  0  0  0  0  0  0
   -1.0950    9.2640   -8.9740 C   0  0  0  0  0  0  0  0  0  0  0  0
  2  1  1  1
  2  3  1  0
  2  4  1  0
  4  5  1  0
  3  6  1  0
  5  7  1  0
  6  7  1  0
  7  8  1  6
  8  9  1  0
  9 10  1  0
 11 10  1  0
 11 12  1  0
 11 13  1  0
 11 14  1  0
 12 15  1  0
 15 16  1  0
 16 17  1  0
 17 18  1  0
 17 19  1  0
 18 20  1  0
 19 21  1  0
 20 22  1  0
 21 22  1  0
M  END
