diamond-x0950_1_A-mac-x0277
     RDKit          3D

 14 14  0  0  0  0  0  0  0  0999 V2000
    2.6080   12.9590   -4.6010 C   0  0  0  0  0  0  0  0  0  0  0  0
    1.1170   12.8780   -4.3900 C   0  0  1  0  0  0  0  0  0  0  0  0
    0.6160   11.9900   -5.4110 O   0  0  0  0  0  0  0  0  0  0  0  0
    0.8560   12.2530   -3.0000 C   0  0  0  0  0  0  0  0  0  0  0  0
    0.5010   14.2650   -4.5720 C   0  0  0  0  0  0  0  0  0  0  0  0
    0.2220   11.2220   -2.7970 O   0  0  0  0  0  0  0  0  0  0  0  0
    1.4000   12.9340   -1.9750 O   0  0  0  0  0  0  0  0  0  0  0  0
   -0.8600   14.4080   -4.8680 C   0  0  0  0  0  0  0  0  0  0  0  0
    1.2690   15.4450   -4.4600 C   0  0  0  0  0  0  0  0  0  0  0  0
   -1.4370   15.6650   -5.0510 C   0  0  0  0  0  0  0  0  0  0  0  0
    0.6950   16.7050   -4.6440 C   0  0  0  0  0  0  0  0  0  0  0  0
   -3.1200   15.7160   -5.4150 Cl  0  0  0  0  0  0  0  0  0  0  0  0
   -0.6600   16.8170   -4.9420 C   0  0  0  0  0  0  0  0  0  0  0  0
   -1.3170   18.3940   -5.1710 Cl  0  0  0  0  0  0  0  0  0  0  0  0
  2  1  1  6
  2  3  1  0
  2  4  1  0
  2  5  1  0
  4  6  2  0
  4  7  1  0
  5  8  2  0
  5  9  1  0
  8 10  1  0
  9 11  2  0
 10 12  1  0
 10 13  2  0
 11 13  1  0
 13 14  1  0
M  END
