diamond-x0592_0_A-diamond-x0591_0_A
     RDKit          3D

 23 25  0  0  0  0  0  0  0  0999 V2000
   -1.6810   14.6280    1.5330 N   0  0  0  0  0  0  0  0  0  0  0  0
   -2.1100   14.8560    0.2790 C   0  0  0  0  0  0  0  0  0  0  0  0
   -1.3660   14.8840   -0.6840 O   0  0  0  0  0  0  0  0  0  0  0  0
   -3.4930   15.0270    0.1590 C   0  0  0  0  0  0  0  0  0  0  0  0
   -4.1570   15.8420   -0.7510 C   0  0  0  0  0  0  0  0  0  0  0  0
   -4.4590   14.4250    0.8710 C   0  0  0  0  0  0  0  0  0  0  0  0
   -5.4410   15.7730   -0.6370 N   0  0  0  0  0  0  0  0  0  0  0  0
   -5.6020   14.8760    0.3540 N   0  0  0  0  0  0  0  0  0  0  0  0
   -6.7840   14.5250    0.6000 C   0  0  0  0  0  0  0  0  0  0  0  0
   -7.6920   14.4740    1.7590 C   0  0  0  0  0  0  0  0  0  0  0  0
   -7.1920   14.0800   -0.4870 C   0  0  0  0  0  0  0  0  0  0  0  0
   -8.8690   13.9600    1.0910 O   0  0  0  0  0  0  0  0  0  0  0  0
   -8.4610   13.6600   -0.2810 N   0  0  0  0  0  0  0  0  0  0  0  0
   -6.1950   14.1340   -1.6540 C   0  0  0  0  0  0  0  0  0  0  0  0
   -4.8640   13.6380   -1.4310 C   0  0  0  0  0  0  0  0  0  0  0  0
   -6.4340   14.6610   -2.9340 C   0  0  0  0  0  0  0  0  0  0  0  0
   -3.8420   13.6880   -2.4100 C   0  0  0  0  0  0  0  0  0  0  0  0
   -5.4060   14.7010   -3.9210 C   0  0  0  0  0  0  0  0  0  0  0  0
   -4.1100   14.2290   -3.6630 C   0  0  0  0  0  0  0  0  0  0  0  0
   -2.8420   14.3290   -4.9370 S   0  0  0  0  0  0  0  0  0  0  0  0
   -1.7150   15.4270   -4.3330 N   0  0  0  0  0  0  0  0  0  0  0  0
   -2.1270   13.0750   -5.0060 O   0  0  0  0  0  0  0  0  0  0  0  0
   -3.3770   14.9760   -6.1110 O   0  0  0  0  0  0  0  0  0  0  0  0
  1  2  1  0
  2  3  2  0
  2  4  1  0
  4  5  1  0
  4  6  2  0
  5  7  2  0
  6  8  1  0
  7  8  1  0
  8  9  1  0
  9 10  1  0
  9 11  2  0
 10 12  1  0
 11 13  1  0
 12 13  1  0
 11 14  1  0
 14 15  2  0
 14 16  1  0
 15 17  1  0
 16 18  2  0
 17 19  2  0
 18 19  1  0
 19 20  1  0
 20 21  1  0
 20 22  2  0
 20 23  2  0
M  END
