diamond-x0742_0_A-mac-x0306
     RDKit          3D

 20 23  0  0  0  0  0  0  0  0999 V2000
   -5.1190   12.2440   -1.0630 C   0  0  0  0  0  0  0  0  0  0  0  0
   -6.1750   11.3690   -0.4260 C   0  0  0  0  0  0  0  0  0  0  0  0
   -4.3000   11.7280   -1.8240 O   0  0  0  0  0  0  0  0  0  0  0  0
   -5.1360   13.7580   -0.7430 C   0  0  2  0  0  0  0  0  0  0  0  0
   -5.4310   13.8920    0.7770 C   0  0  0  0  0  0  0  0  0  0  0  0
   -6.1060   14.4460   -1.7330 C   0  0  0  0  0  0  0  0  0  0  0  0
   -3.8760   14.5190   -1.2460 C   0  0  2  0  0  0  0  0  0  0  0  0
   -3.9040   14.1830   -2.7450 C   0  0  0  0  0  0  0  0  0  0  0  0
   -2.6170   14.4050   -0.4100 C   0  0  0  0  0  0  0  0  0  0  0  0
   -4.1170   13.9460    1.6470 C   0  0  0  0  0  0  0  0  0  0  0  0
   -6.1610   15.1060    1.1610 N   0  0  0  0  0  0  0  0  0  0  0  0
   -6.4050   12.7950    1.1270 N   0  0  0  0  0  0  0  0  0  0  0  0
   -5.4010   14.2380   -3.0800 C   0  0  0  0  0  0  0  0  0  0  0  0
   -1.3120   14.5480   -0.9140 C   0  0  0  0  0  0  0  0  0  0  0  0
   -2.7530   14.1560    0.9680 C   0  0  0  0  0  0  0  0  0  0  0  0
   -7.4670   13.3370    1.5920 C   0  0  0  0  0  0  0  0  0  0  0  0
   -7.3170   14.7570    1.6250 C   0  0  0  0  0  0  0  0  0  0  0  0
   -1.6670   14.0850    1.7930 N   0  0  0  0  0  0  0  0  0  0  0  0
   -0.2090   14.4570   -0.0670 C   0  0  0  0  0  0  0  0  0  0  0  0
   -0.4390   14.2310    1.2710 C   0  0  0  0  0  0  0  0  0  0  0  0
  1  2  1  0
  1  3  2  0
  4  1  1  6
  4  5  1  0
  4  6  1  0
  4  7  1  0
  7  8  1  6
  7  9  1  0
  5 10  1  0
  5 11  1  0
  5 12  1  0
  6 13  1  0
  8 13  1  0
  9 14  1  0
  9 15  2  0
 10 15  1  0
 12 16  2  0
 11 17  2  0
 16 17  1  0
 15 18  1  0
 14 19  2  0
 18 20  2  0
 19 20  1  0
M  END
