diamond-x0685_0_A-mac-x0546
     RDKit          3D

 27 29  0  0  0  0  0  0  0  0999 V2000
   -6.2920   15.1060    2.7060 N   0  0  0  0  0  0  0  0  0  0  0  0
   -7.7090   14.7870    2.7490 C   0  0  0  0  0  0  0  0  0  0  0  0
   -7.9170   13.3160    3.0570 C   0  0  0  0  0  0  0  0  0  0  0  0
   -5.6480   15.0690    1.4690 C   0  0  0  0  0  0  0  0  0  0  0  0
   -4.2520   15.2320    1.4190 C   0  0  0  0  0  0  0  0  0  0  0  0
   -6.3900   14.8950    0.3790 N   0  0  0  0  0  0  0  0  0  0  0  0
   -3.6050   15.2260    0.1820 C   0  0  0  0  0  0  0  0  0  0  0  0
   -5.7530   14.9000   -0.7840 C   0  0  0  0  0  0  0  0  0  0  0  0
   -4.4020   15.0600   -0.9390 C   0  0  0  0  0  0  0  0  0  0  0  0
   -3.9910   15.0330   -2.2730 C   0  0  0  0  0  0  0  0  0  0  0  0
   -4.0210   14.9650   -3.4430 C   0  0  0  0  0  0  0  0  0  0  0  0
   -4.4270   14.8080   -4.8290 C   0  0  0  0  0  0  0  0  0  0  0  0
   -3.6730   15.6860   -5.7140 N   0  0  0  0  0  0  0  0  0  0  0  0
   -3.8800   14.9700   -6.9580 C   0  0  0  0  0  0  0  0  0  0  0  0
   -2.3950   15.9030   -5.2120 C   0  0  0  0  0  0  0  0  0  0  0  0
   -1.7460   14.8480   -4.7230 C   0  0  0  0  0  0  0  0  0  0  0  0
   -1.7370   17.2370   -5.1520 C   0  0  0  0  0  0  0  0  0  0  0  0
   -0.4320   14.9650   -4.0980 C   0  0  2  0  0  0  0  0  0  0  0  0
   -0.4190   17.4050   -4.8770 C   0  0  0  0  0  0  0  0  0  0  0  0
    0.3140   16.1500   -4.6560 C   0  0  0  0  0  0  0  0  0  0  0  0
    0.6570   13.9640   -4.2540 C   0  0  0  0  0  0  0  0  0  0  0  0
    0.5560   12.4970   -4.0200 C   0  0  0  0  0  0  0  0  0  0  0  0
    1.5590   15.9370   -4.8770 N   0  0  0  0  0  0  0  0  0  0  0  0
    1.7420   14.6000   -4.6320 C   0  0  0  0  0  0  0  0  0  0  0  0
    0.2470   12.0110   -2.6090 C   0  0  0  0  0  0  0  0  0  0  0  0
    0.4980   12.5500   -1.5400 O   0  0  0  0  0  0  0  0  0  0  0  0
   -0.3830   10.8120   -2.6550 O   0  0  0  0  0  0  0  0  0  0  0  0
  1  2  1  0
  2  3  1  0
  1  4  1  0
  4  5  2  0
  4  6  1  0
  5  7  1  0
  6  8  2  0
  7  9  2  0
  8  9  1  0
  9 10  1  0
 10 11  3  0
 11 12  1  0
 12 13  1  0
 13 14  1  0
 13 15  1  0
 15 16  2  0
 15 17  1  0
 18 16  1  6
 17 19  2  0
 18 20  1  0
 19 20  1  0
 18 21  1  0
 21 22  1  0
 20 23  2  0
 21 24  2  0
 23 24  1  0
 22 25  1  0
 25 26  2  0
 25 27  1  0
M  END
