diamond-x0628_0_A-mac-x0417
     RDKit          3D

 16 17  0  0  0  0  0  0  0  0999 V2000
   -0.2200    8.7070   -6.4150 C   0  0  0  0  0  0  0  0  0  0  0  0
   -0.6980   10.0840   -6.8840 C   0  0  1  0  0  0  0  0  0  0  0  0
   -1.8050   10.4650   -6.0360 N   0  0  0  0  0  0  0  0  0  0  0  0
    0.3400   11.1340   -6.9150 N   0  0  0  0  0  0  0  0  0  0  0  0
   -1.2520    9.7680   -8.2150 C   0  0  0  0  0  0  0  0  0  0  0  0
   -0.1970   12.1470   -5.9240 N   0  0  0  0  0  0  0  0  0  0  0  0
   -1.1340   11.3430   -5.0710 C   0  0  1  0  0  0  0  0  0  0  0  0
   -2.4240    9.1250   -8.2650 C   0  0  0  0  0  0  0  0  0  0  0  0
   -2.7670    9.4990   -5.9040 C   0  0  0  0  0  0  0  0  0  0  0  0
   -2.1360   12.2390   -4.3410 C   0  0  0  0  0  0  0  0  0  0  0  0
    0.9560   12.8160   -5.3080 C   0  0  0  0  0  0  0  0  0  0  0  0
   -3.0990    8.7950   -7.0070 C   0  0  0  0  0  0  0  0  0  0  0  0
    0.7090   13.3410   -3.9150 C   0  0  0  0  0  0  0  0  0  0  0  0
    0.9430   12.3440   -2.8330 C   0  0  0  0  0  0  0  0  0  0  0  0
    0.6300   11.1660   -2.8240 O   0  0  0  0  0  0  0  0  0  0  0  0
    1.5700   12.8910   -1.7830 O   0  0  0  0  0  0  0  0  0  0  0  0
  2  1  1  1
  2  3  1  0
  2  4  1  0
  2  5  1  0
  4  6  1  0
  3  7  1  0
  6  7  1  0
  5  8  2  0
  3  9  1  0
  7 10  1  6
  6 11  1  0
  8 12  1  0
  9 12  2  0
 11 13  1  0
 13 14  1  0
 14 15  2  0
 14 16  1  0
M  END
