diamond-x0689_0_A-mac-x0193
     RDKit          3D

 23 24  0  0  0  0  0  0  0  0999 V2000
   -3.5090   15.4490    1.6450 N   0  0  0  0  0  0  0  0  0  0  0  0
   -4.8000   15.0430    1.1550 C   0  0  0  0  0  0  0  0  0  0  0  0
   -2.4550   14.9480    0.9180 C   0  0  0  0  0  0  0  0  0  0  0  0
   -2.5300   14.9000   -0.4180 N   0  0  0  0  0  0  0  0  0  0  0  0
   -1.4010   14.5380    1.6270 N   0  0  0  0  0  0  0  0  0  0  0  0
   -1.4700   14.4070   -1.0790 C   0  0  0  0  0  0  0  0  0  0  0  0
   -0.3660   14.0510    0.9210 C   0  0  0  0  0  0  0  0  0  0  0  0
   -0.3360   13.9550   -0.4640 C   0  0  0  0  0  0  0  0  0  0  0  0
    0.8210   13.3940   -1.2320 C   0  0  0  0  0  0  0  0  0  0  0  0
    0.7550   13.4950   -2.6690 N   0  0  0  0  0  0  0  0  0  0  0  0
    0.6380   12.4540   -3.4180 C   0  0  0  0  0  0  0  0  0  0  0  0
    0.5510   11.1740   -2.9850 O   0  0  0  0  0  0  0  0  0  0  0  0
    0.5900   12.6390   -4.9250 C   0  0  0  0  0  0  0  0  0  0  0  0
    0.0960   11.5070   -5.6880 N   0  0  0  0  0  0  0  0  0  0  0  0
    0.7940   11.2820   -6.8340 C   0  0  0  0  0  0  0  0  0  0  0  0
    1.8940   11.7500   -6.9760 O   0  0  0  0  0  0  0  0  0  0  0  0
    0.1270   10.4880   -7.7410 N   0  0  0  0  0  0  0  0  0  0  0  0
    0.8230   10.0190   -8.9420 C   0  0  0  0  0  0  0  0  0  0  0  0
    1.4190    8.6130   -8.7500 C   0  0  0  0  0  0  0  0  0  0  0  0
   -0.0850   10.0200  -10.1680 C   0  0  0  0  0  0  0  0  0  0  0  0
    2.1560    8.0670   -9.9800 C   0  0  0  0  0  0  0  0  0  0  0  0
    0.6330    9.4950  -11.4170 C   0  0  0  0  0  0  0  0  0  0  0  0
    1.2920    8.1250  -11.2300 C   0  0  0  0  0  0  0  0  0  0  0  0
  1  2  1  0
  1  3  1  0
  3  4  2  0
  3  5  1  0
  4  6  1  0
  5  7  2  0
  6  8  2  0
  7  8  1  0
  8  9  1  0
  9 10  1  0
 10 11  2  3
 11 12  1  0
 11 13  1  0
 13 14  1  0
 14 15  1  0
 15 16  2  0
 15 17  1  0
 17 18  1  0
 18 19  1  0
 18 20  1  0
 19 21  1  0
 20 22  1  0
 21 23  1  0
 22 23  1  0
M  END
