diamond-x0628_0_A-mac-x0213
     RDKit          3D

 21 23  0  0  0  0  0  0  0  0999 V2000
   -0.9290    8.7660   -7.4220 C   0  0  0  0  0  0  0  0  0  0  0  0
   -0.9000    9.9830   -6.5990 C   0  0  0  0  0  0  0  0  0  0  0  0
   -1.8760   10.2880   -5.6980 N   0  0  0  0  0  0  0  0  0  0  0  0
    0.0870   10.8690   -6.6800 N   0  0  0  0  0  0  0  0  0  0  0  0
   -0.2820   11.7860   -5.7760 N   0  0  0  0  0  0  0  0  0  0  0  0
   -1.4840   11.4300   -5.1760 C   0  0  0  0  0  0  0  0  0  0  0  0
   -2.2370   12.1600   -4.1270 C   0  0  0  0  0  0  0  0  0  0  0  0
    0.6100   12.9110   -5.6110 C   0  0  0  0  0  0  0  0  0  0  0  0
    1.5460   12.7930   -4.4160 C   0  0  0  0  0  0  0  0  0  0  0  0
    0.8420   12.9190   -3.0770 C   0  0  0  0  0  0  0  0  0  0  0  0
    0.0450   11.7920   -2.7740 O   0  0  0  0  0  0  0  0  0  0  0  0
    1.8370   12.8990   -2.0690 O   0  0  0  0  0  0  0  0  0  0  0  0
    0.1440   14.2910   -3.1240 C   0  0  0  0  0  0  0  0  0  0  0  0
   -1.2280   14.3780   -3.8660 C   0  0  0  0  0  0  0  0  0  0  0  0
    1.0540   15.3060   -3.8540 C   0  0  0  0  0  0  0  0  0  0  0  0
   -1.1870   15.7220   -4.5290 C   0  0  0  0  0  0  0  0  0  0  0  0
    0.1060   16.2410   -4.5140 C   0  0  0  0  0  0  0  0  0  0  0  0
   -2.2300   16.4300   -5.1060 C   0  0  0  0  0  0  0  0  0  0  0  0
    0.3930   17.4730   -5.0650 C   0  0  0  0  0  0  0  0  0  0  0  0
   -1.9460   17.6770   -5.6700 C   0  0  0  0  0  0  0  0  0  0  0  0
   -0.6440   18.1940   -5.6460 C   0  0  0  0  0  0  0  0  0  0  0  0
  1  2  1  0
  2  3  1  0
  2  4  2  0
  4  5  1  0
  3  6  2  0
  5  6  1  0
  6  7  1  0
  5  8  1  0
  8  9  1  0
  9 10  1  0
 10 11  1  0
 10 12  1  0
 10 13  1  0
 13 14  1  0
 13 15  1  0
 14 16  1  0
 15 17  1  0
 16 17  2  0
 16 18  1  0
 17 19  1  0
 18 20  2  0
 19 21  2  0
 20 21  1  0
M  END
