diamond-x0792_0_A-diamond-x0822_0_A
     RDKit          3D

 24 26  0  0  0  0  0  0  0  0999 V2000
    9.7350   22.1650   18.4470 C   0  0  0  0  0  0  0  0  0  0  0  0
    9.8410   21.3690   17.2810 O   0  0  0  0  0  0  0  0  0  0  0  0
    9.0440   23.5570   18.3260 C   0  0  1  0  0  0  0  0  0  0  0  0
    8.6850   24.1700   16.9820 C   0  0  0  0  0  0  0  0  0  0  0  0
    7.7940   23.5730   19.1420 C   0  0  0  0  0  0  0  0  0  0  0  0
    6.7250   24.3170   18.4760 N   0  0  0  0  0  0  0  0  0  0  0  0
    8.1000   25.5620   17.1280 C   0  0  1  0  0  0  0  0  0  0  0  0
    7.1890   25.9520   16.0120 C   0  0  0  0  0  0  0  0  0  0  0  0
    7.2500   25.6310   18.3400 C   0  0  0  0  0  0  0  0  0  0  0  0
    5.7670   26.1660   16.4720 C   0  0  1  0  0  0  0  0  0  0  0  0
    4.6010   26.4450   15.5560 C   0  0  0  0  0  0  0  0  0  0  0  0
    5.4420   25.0290   17.2550 O   0  0  0  0  0  0  0  0  0  0  0  0
    3.5850   27.0110   16.5750 C   0  0  2  0  0  0  0  0  0  0  0  0
    4.6980   25.5270   18.3540 C   0  0  0  0  0  0  0  0  0  0  0  0
    3.3910   26.1360   17.8520 C   0  0  2  0  0  0  0  0  0  0  0  0
    2.2380   27.4380   16.0750 C   0  0  0  0  0  0  0  0  0  0  0  0
    2.4440   25.0400   17.6450 N   0  0  0  0  0  0  0  0  0  0  0  0
    1.7950   28.7470   16.2660 C   0  0  0  0  0  0  0  0  0  0  0  0
    1.4010   26.5200   15.4270 C   0  0  0  0  0  0  0  0  0  0  0  0
    0.5390   29.1370   15.8220 C   0  0  0  0  0  0  0  0  0  0  0  0
    0.1370   26.9050   14.9850 C   0  0  0  0  0  0  0  0  0  0  0  0
   -0.5790   25.9120   14.3810 O   0  0  0  0  0  0  0  0  0  0  0  0
   -0.2930   28.2170   15.1830 C   0  0  0  0  0  0  0  0  0  0  0  0
   -1.9700   26.1560   14.1990 C   0  0  0  0  0  0  0  0  0  0  0  0
  1  2  1  0
  3  1  1  6
  3  4  1  0
  3  5  1  0
  5  6  1  0
  4  7  1  0
  7  8  1  6
  6  9  1  0
  7  9  1  0
 10  8  1  6
 10 11  1  0
 10 12  1  0
 11 13  1  0
 12 14  1  0
 13 15  1  0
 14 15  1  0
 13 16  1  6
 15 17  1  6
 16 18  2  0
 16 19  1  0
 18 20  1  0
 19 21  2  0
 21 22  1  0
 20 23  2  0
 21 23  1  0
 22 24  1  0
M  END
