diamond-x0864_0_A-mac-x0193
     RDKit          3D

 21 23  0  0  0  0  0  0  0  0999 V2000
    0.7490   11.3180   -6.8970 C   0  0  1  0  0  0  0  0  0  0  0  0
    0.7580   11.3180   -5.4670 N   0  0  0  0  0  0  0  0  0  0  0  0
   -0.0180   12.4960   -5.1640 C   0  0  1  0  0  0  0  0  0  0  0  0
    1.6450   12.2860   -7.2400 O   0  0  0  0  0  0  0  0  0  0  0  0
    1.0300   10.0420   -7.5000 N   0  0  0  0  0  0  0  0  0  0  0  0
   -0.7450   11.6420   -7.2010 C   0  0  2  0  0  0  0  0  0  0  0  0
   -1.2510   12.2800   -5.9470 N   0  0  0  0  0  0  0  0  0  0  0  0
   -1.4930   10.3550   -7.5570 C   0  0  0  0  0  0  0  0  0  0  0  0
    1.0780    9.6990   -8.9300 C   0  0  0  0  0  0  0  0  0  0  0  0
   -0.0270   12.6180   -3.6000 C   0  0  0  0  0  0  0  0  0  0  0  0
   -2.4840   11.9270   -5.4840 C   0  0  0  0  0  0  0  0  0  0  0  0
   -2.0310    9.7060   -6.3020 C   0  0  2  0  0  0  0  0  0  0  0  0
    1.6710    8.3090   -9.1850 C   0  0  0  0  0  0  0  0  0  0  0  0
   -0.0270   10.0040   -9.9460 C   0  0  0  0  0  0  0  0  0  0  0  0
    0.1240   11.4540   -2.9220 O   0  0  0  0  0  0  0  0  0  0  0  0
   -0.1260   13.6510   -2.9510 O   0  0  0  0  0  0  0  0  0  0  0  0
   -3.0320    8.1050   -6.8190 Br  0  0  0  0  0  0  0  0  0  0  0  0
   -2.9260   10.6760   -5.6300 C   0  0  0  0  0  0  0  0  0  0  0  0
    2.1540    8.0950  -10.6060 C   0  0  0  0  0  0  0  0  0  0  0  0
    0.4060    9.7700  -11.3960 C   0  0  0  0  0  0  0  0  0  0  0  0
    1.0450    8.3980  -11.6070 C   0  0  0  0  0  0  0  0  0  0  0  0
  1  2  1  0
  2  3  1  0
  1  4  1  6
  1  5  1  0
  1  6  1  0
  3  7  1  0
  6  7  1  0
  6  8  1  1
  5  9  1  0
  3 10  1  1
  7 11  1  0
  8 12  1  0
  9 13  1  0
  9 14  1  0
 10 15  1  0
 10 16  2  0
 12 17  1  6
 11 18  2  0
 12 18  1  0
 13 19  1  0
 14 20  1  0
 19 21  1  0
 20 21  1  0
M  END
