diamond-x1018_0_A-diamond-x0805_0_A
     RDKit          3D

 20 22  0  0  0  0  0  0  0  0999 V2000
   -7.8030   14.6760   -0.0990 Cl  0  0  0  0  0  0  0  0  0  0  0  0
   -6.0880   14.4640   -0.2720 C   0  0  0  0  0  0  0  0  0  0  0  0
   -5.3040   14.2630    0.9720 C   0  0  0  0  0  0  0  0  0  0  0  0
   -5.5690   14.4780   -1.4920 N   0  0  0  0  0  0  0  0  0  0  0  0
   -4.1930   14.2870   -1.5830 N   0  0  0  0  0  0  0  0  0  0  0  0
   -3.9890   13.9900    0.8380 C   0  0  0  0  0  0  0  0  0  0  0  0
   -3.4360   14.2750   -2.8020 N   0  0  0  0  0  0  0  0  0  0  0  0
   -3.3210   13.8920   -0.5030 C   0  0  2  0  0  0  0  0  0  0  0  0
   -2.1450   14.7020   -0.8760 N   0  0  0  0  0  0  0  0  0  0  0  0
   -1.9660   14.5610   -2.4230 C   0  0  1  0  0  0  0  0  0  0  0  0
   -2.4550   16.0410   -0.3690 O   0  0  0  0  0  0  0  0  0  0  0  0
   -0.6970   13.5970   -2.7730 C   0  0  1  0  0  0  0  0  0  0  0  0
   -1.3450   15.7690   -3.2380 C   0  0  0  0  0  0  0  0  0  0  0  0
   -3.5240   16.0970    0.6030 C   0  0  0  0  0  0  0  0  0  0  0  0
   -0.3500   12.2950   -2.1190 C   0  0  0  0  0  0  0  0  0  0  0  0
   -0.1850   13.5890   -4.2220 C   0  0  0  0  0  0  0  0  0  0  0  0
    0.2090   15.7650   -3.5390 C   0  0  0  0  0  0  0  0  0  0  0  0
   -0.7060   11.1590   -2.7630 O   0  0  0  0  0  0  0  0  0  0  0  0
    0.2690   12.2780   -1.0840 O   0  0  0  0  0  0  0  0  0  0  0  0
    0.6550   14.7110   -4.3990 O   0  0  0  0  0  0  0  0  0  0  0  0
  1  2  1  0
  2  3  1  0
  2  4  2  0
  4  5  1  0
  3  6  2  0
  5  7  1  0
  5  8  1  0
  8  6  1  1
  8  9  1  0
 10  7  1  0
  9 10  1  0
  9 11  1  0
 10 12  1  0
 10 13  1  6
 11 14  1  0
 12 15  1  6
 12 16  1  0
 13 17  1  0
 15 18  1  0
 15 19  2  0
 16 20  1  0
 17 20  1  0
M  END
