diamond-x0290_0_A-mac-x0341
     RDKit          3D

 23 25  0  0  0  0  0  0  0  0999 V2000
   -5.3460   12.5920    1.6010 O   0  0  0  0  0  0  0  0  0  0  0  0
   -4.7660   13.6520    1.5080 C   0  0  0  0  0  0  0  0  0  0  0  0
   -3.5200   13.8470    1.9630 N   0  0  0  0  0  0  0  0  0  0  0  0
   -5.2940   14.6690    0.8710 N   0  0  0  0  0  0  0  0  0  0  0  0
   -2.3970   14.0820    1.1450 C   0  0  0  0  0  0  0  0  0  0  0  0
   -6.6370   14.4410    0.4410 C   0  0  2  0  0  0  0  0  0  0  0  0
   -4.3220   14.7700   -0.1830 C   0  0  1  0  0  0  0  0  0  0  0  0
   -1.3180   14.4680    1.8290 N   0  0  0  0  0  0  0  0  0  0  0  0
   -2.3710   13.9300   -0.2490 C   0  0  0  0  0  0  0  0  0  0  0  0
   -6.9460   15.3120   -0.6060 N   0  0  0  0  0  0  0  0  0  0  0  0
   -4.8030   14.7710   -1.6150 C   0  0  1  0  0  0  0  0  0  0  0  0
   -3.0760   15.5560    0.1340 C   0  0  0  0  0  0  0  0  0  0  0  0
   -7.6420   14.5830    1.4540 N   0  0  0  0  0  0  0  0  0  0  0  0
   -0.1990   14.7190    1.1320 C   0  0  0  0  0  0  0  0  0  0  0  0
   -1.1920   14.1970   -0.9520 C   0  0  0  0  0  0  0  0  0  0  0  0
   -6.2270   15.2410   -1.7410 C   0  0  0  0  0  0  0  0  0  0  0  0
   -2.3080   16.0470   -0.8340 C   0  0  0  0  0  0  0  0  0  0  0  0
   -3.8190   15.3290   -2.6070 C   0  0  0  0  0  0  0  0  0  0  0  0
   -8.9260   14.9610    0.8900 C   0  0  0  0  0  0  0  0  0  0  0  0
   -1.1260   14.0480   -2.4450 C   0  0  0  0  0  0  0  0  0  0  0  0
   -0.0810   14.6030   -0.2350 C   0  0  0  0  0  0  0  0  0  0  0  0
   -6.7440   15.4990   -2.8040 O   0  0  0  0  0  0  0  0  0  0  0  0
   -2.6650   15.8990   -2.2280 C   0  0  0  0  0  0  0  0  0  0  0  0
  1  2  2  0
  2  3  1  0
  2  4  1  0
  3  5  1  0
  4  6  1  0
  4  7  1  0
  5  8  2  0
  5  9  1  0
  6 10  1  0
  7 11  1  0
  7 12  1  1
  6 13  1  1
  8 14  1  0
  9 15  2  0
 10 16  1  0
 11 16  1  0
 12 17  2  0
 11 18  1  6
 13 19  1  0
 15 20  1  0
 14 21  2  0
 15 21  1  0
 16 22  2  0
 17 23  1  0
 18 23  2  0
M  END
