diamond-x0421_0_A-mac-x0385
     RDKit          3D

 12 13  0  0  0  0  0  0  0  0999 V2000
   -3.6970   15.1140   -2.8420 N   0  0  0  0  0  0  0  0  0  0  0  0
   -2.7720   14.8750   -1.8700 C   0  0  0  0  0  0  0  0  0  0  0  0
   -1.5840   14.7140   -2.1330 O   0  0  0  0  0  0  0  0  0  0  0  0
   -3.3280   14.8330   -0.5210 C   0  0  0  0  0  0  0  0  0  0  0  0
   -2.6250   14.8330    0.6830 C   0  0  0  0  0  0  0  0  0  0  0  0
   -4.7000   14.7790   -0.2930 N   0  0  0  0  0  0  0  0  0  0  0  0
   -1.1480   14.8700    0.9760 C   0  0  0  0  0  0  0  0  0  0  0  0
   -3.6180   14.7830    1.6420 N   0  0  0  0  0  0  0  0  0  0  0  0
   -4.8320   14.7480    1.0090 C   0  0  0  0  0  0  0  0  0  0  0  0
   -6.2150   14.6710    1.7270 C   0  0  0  0  0  0  0  0  0  0  0  0
   -7.5020   14.6610    0.9410 C   0  0  0  0  0  0  0  0  0  0  0  0
   -7.0340   13.4110    1.6300 C   0  0  0  0  0  0  0  0  0  0  0  0
  1  2  1  0
  2  3  2  0
  2  4  1  0
  4  5  2  0
  4  6  1  0
  5  7  1  0
  5  8  1  0
  6  9  2  0
  8  9  1  0
  9 10  1  0
 10 11  1  0
 10 12  1  0
 11 12  1  0
M  END
