diamond-x1018_0_A-mac-x0347
     RDKit          3D

 18 20  0  0  0  0  0  0  0  0999 V2000
   -7.2070   14.5780    1.6370 Cl  0  0  0  0  0  0  0  0  0  0  0  0
   -5.8670   14.1990    0.5250 C   0  0  2  0  0  0  0  0  0  0  0  0
   -4.3860   14.6520    0.8370 C   0  0  0  0  0  0  0  0  0  0  0  0
   -6.2720   14.6440   -0.7780 N   0  0  0  0  0  0  0  0  0  0  0  0
   -5.4640   14.1880   -1.7160 C   0  0  0  0  0  0  0  0  0  0  0  0
   -3.3930   14.6770   -0.4490 C   0  0  2  0  0  0  0  0  0  0  0  0
   -5.7670   13.6770   -2.9100 N   0  0  0  0  0  0  0  0  0  0  0  0
   -4.1390   14.1900   -1.5480 C   0  0  0  0  0  0  0  0  0  0  0  0
   -1.9110   14.1450   -0.4880 C   0  0  0  0  0  0  0  0  0  0  0  0
   -3.2970   16.0090   -1.1340 C   0  0  0  0  0  0  0  0  0  0  0  0
   -3.6300   13.6600   -2.6580 N   0  0  0  0  0  0  0  0  0  0  0  0
   -4.6130   13.3500   -3.4910 N   0  0  0  0  0  0  0  0  0  0  0  0
   -1.2550   14.1410   -1.9310 C   0  0  2  0  0  0  0  0  0  0  0  0
   -2.9720   15.8760   -2.5830 N   0  0  0  0  0  0  0  0  0  0  0  0
    0.2530   13.9630   -1.9830 C   0  0  0  0  0  0  0  0  0  0  0  0
   -1.6400   15.3260   -2.8330 C   0  0  0  0  0  0  0  0  0  0  0  0
    0.7850   14.2420   -3.1950 O   0  0  0  0  0  0  0  0  0  0  0  0
    0.9770   13.6030   -1.0850 O   0  0  0  0  0  0  0  0  0  0  0  0
  2  1  1  1
  2  3  1  0
  2  4  1  0
  4  5  1  0
  6  3  1  1
  5  7  1  0
  5  8  2  0
  6  8  1  0
  6  9  1  0
  6 10  1  0
  8 11  1  0
  7 12  2  0
 11 12  1  0
  9 13  1  0
 10 14  1  0
 13 15  1  1
 13 16  1  0
 14 16  1  0
 15 17  1  0
 15 18  2  0
M  END
