diamond-x1012_0_A-mac-x0348
     RDKit          3D

 22 23  0  0  0  0  0  0  0  0999 V2000
   -0.4120   17.1020   -3.6670 N   0  0  0  0  0  0  0  0  0  0  0  0
   -1.5300   16.3150   -3.4660 C   0  0  0  0  0  0  0  0  0  0  0  0
   -2.5320   16.5030   -4.1570 O   0  0  0  0  0  0  0  0  0  0  0  0
   -0.7280   18.3020   -4.3320 N   0  0  0  0  0  0  0  0  0  0  0  0
   -1.4870   15.3920   -2.4010 N   0  0  0  0  0  0  0  0  0  0  0  0
   -0.6650   18.3550   -5.6810 C   0  0  0  0  0  0  0  0  0  0  0  0
   -1.1910   13.9000   -2.3240 C   0  0  2  0  0  0  0  0  0  0  0  0
   -2.6800   15.3860   -1.5830 C   0  0  0  0  0  0  0  0  0  0  0  0
   -1.5140   17.9080   -6.5820 C   0  0  0  0  0  0  0  0  0  0  0  0
    0.1480   13.0840   -2.6680 C   0  0  0  0  0  0  0  0  0  0  0  0
   -2.5040   13.3560   -2.9030 C   0  0  0  0  0  0  0  0  0  0  0  0
   -2.7690   17.2300   -6.3530 C   0  0  0  0  0  0  0  0  0  0  0  0
   -3.5310   14.2980   -2.2490 C   0  0  0  0  0  0  0  0  0  0  0  0
    0.5130   12.1100   -1.6970 O   0  0  0  0  0  0  0  0  0  0  0  0
   -0.0770   12.2290   -3.7530 O   0  0  0  0  0  0  0  0  0  0  0  0
    1.2770   13.9350   -3.1050 C   0  0  0  0  0  0  0  0  0  0  0  0
   -3.0530   15.9810   -5.9100 C   0  0  0  0  0  0  0  0  0  0  0  0
    1.3000   15.0290   -3.8560 C   0  0  0  0  0  0  0  0  0  0  0  0
   -2.1460   14.9040   -5.5380 C   0  0  0  0  0  0  0  0  0  0  0  0
    0.1910   15.7900   -4.5320 C   0  0  2  0  0  0  0  0  0  0  0  0
   -0.8910   14.8320   -5.0120 C   0  0  0  0  0  0  0  0  0  0  0  0
    0.7900   16.7540   -5.5500 C   0  0  0  0  0  0  0  0  0  0  0  0
  1  2  1  0
  2  3  2  0
  1  4  1  0
  2  5  1  0
  4  6  1  0
  5  7  1  0
  5  8  1  0
  6  9  2  0
  7 10  1  0
  7 11  1  6
  9 12  1  0
  8 13  1  0
 11 13  1  0
 10 14  1  0
 10 15  1  0
 10 16  1  0
 12 17  2  0
 16 18  2  0
 17 19  1  0
 18 20  1  0
 19 21  2  0
 20 21  1  0
 20 22  1  6
M  END
