diamond-x0905_0_B-diamond-x0918_4_B
     RDKit          3D

  8  8  0  0  0  0  0  0  0  0999 V2000
   14.0530   19.5230   11.5920 O   0  0  0  0  0  0  0  0  0  0  0  0
   13.4140   20.2070   12.5710 C   0  0  0  0  0  0  0  0  0  0  0  0
   12.5170   19.5020   13.2840 N   0  0  0  0  0  0  0  0  0  0  0  0
   13.7280   21.5340   12.7570 C   0  0  0  0  0  0  0  0  0  0  0  0
   11.8890   20.1960   14.2540 C   0  0  0  0  0  0  0  0  0  0  0  0
   13.0730   22.2230   13.7590 C   0  0  0  0  0  0  0  0  0  0  0  0
   13.3630   23.5700   13.9800 N   0  0  0  0  0  0  0  0  0  0  0  0
   12.1280   21.5390   14.5280 C   0  0  0  0  0  0  0  0  0  0  0  0
  1  2  1  0
  2  3  2  0
  2  4  1  0
  3  5  1  0
  4  6  2  0
  6  7  1  0
  5  8  2  0
  6  8  1  0
M  END
