diamond-x0282_0_A-mac-x0231
     RDKit          3D

 30 33  0  0  0  0  0  0  0  0999 V2000
   -7.3800   13.3870    0.4020 C   0  0  0  0  0  0  0  0  0  0  0  0
   -8.7030   13.8340    0.1180 O   0  0  0  0  0  0  0  0  0  0  0  0
   -6.5510   14.6260    0.6770 C   0  0  0  0  0  0  0  0  0  0  0  0
   -5.5740   14.4120    1.8410 C   0  0  0  0  0  0  0  0  0  0  0  0
   -5.8560   15.1610   -0.5790 C   0  0  0  0  0  0  0  0  0  0  0  0
   -4.2260   15.1360    1.7910 C   0  0  0  0  0  0  0  0  0  0  0  0
   -4.4150   14.6950   -0.6520 C   0  0  0  0  0  0  0  0  0  0  0  0
   -3.6480   15.1860    0.4860 N   0  0  0  0  0  0  0  0  0  0  0  0
   -2.3790   14.6970    0.4530 C   0  0  0  0  0  0  0  0  0  0  0  0
   -2.1240   13.8670   -0.5310 N   0  0  0  0  0  0  0  0  0  0  0  0
   -1.4760   15.0560    1.3850 N   0  0  0  0  0  0  0  0  0  0  0  0
   -0.9070   13.3670   -0.6150 C   0  0  0  0  0  0  0  0  0  0  0  0
   -0.2530   14.5450    1.2470 C   0  0  0  0  0  0  0  0  0  0  0  0
   -0.6750   12.3920   -1.7170 C   0  0  0  0  0  0  0  0  0  0  0  0
    0.0730   13.6990    0.2510 C   0  0  0  0  0  0  0  0  0  0  0  0
    0.2630   12.8570   -2.6660 N   0  0  0  0  0  0  0  0  0  0  0  0
    0.8330   12.0420   -3.4250 C   0  0  0  0  0  0  0  0  0  0  0  0
    0.5480   10.7390   -3.2660 O   0  0  0  0  0  0  0  0  0  0  0  0
    1.7190   12.6120   -4.4630 C   0  0  0  0  0  0  0  0  0  0  0  0
    1.2870   14.0460   -4.5820 C   0  0  0  0  0  0  0  0  0  0  0  0
   -0.1530   14.2820   -4.8810 C   0  0  0  0  0  0  0  0  0  0  0  0
    2.1230   14.9970   -4.3640 N   0  0  0  0  0  0  0  0  0  0  0  0
   -0.5990   15.6010   -4.8940 C   0  0  0  0  0  0  0  0  0  0  0  0
    1.6630   16.2700   -4.4350 N   0  0  0  0  0  0  0  0  0  0  0  0
   -1.0690   13.2480   -5.1350 C   0  0  0  0  0  0  0  0  0  0  0  0
    0.3710   16.6700   -4.6320 C   0  0  0  0  0  0  0  0  0  0  0  0
   -1.9430   15.9040   -5.1500 C   0  0  0  0  0  0  0  0  0  0  0  0
   -2.4110   13.5440   -5.3930 C   0  0  0  0  0  0  0  0  0  0  0  0
    0.0360   17.8500   -4.5960 O   0  0  0  0  0  0  0  0  0  0  0  0
   -2.8510   14.8720   -5.4000 C   0  0  0  0  0  0  0  0  0  0  0  0
  1  2  1  0
  1  3  1  0
  3  4  1  0
  3  5  1  0
  4  6  1  0
  5  7  1  0
  6  8  1  0
  7  8  1  0
  8  9  1  0
  9 10  2  0
  9 11  1  0
 10 12  1  0
 11 13  2  0
 12 14  1  0
 12 15  2  0
 13 15  1  0
 14 16  1  0
 16 17  2  3
 17 18  1  0
 17 19  1  0
 19 20  1  0
 20 21  1  0
 20 22  2  0
 21 23  2  0
 22 24  1  0
 21 25  1  0
 23 26  1  0
 24 26  1  0
 23 27  1  0
 25 28  2  0
 26 29  2  0
 27 30  2  0
 28 30  1  0
M  END
