diamond-x0950_1_A-mac-x0587
     RDKit          3D

 16 16  0  0  0  0  0  0  0  0999 V2000
   -0.2490   13.6370   -4.9000 C   0  0  0  0  0  0  0  0  0  0  0  0
    1.0050   12.8660   -4.4550 C   0  0  2  0  0  0  0  0  0  0  0  0
    1.1820   11.8600   -5.4530 O   0  0  0  0  0  0  0  0  0  0  0  0
   -0.6040   14.9860   -4.2190 C   0  0  2  0  0  0  0  0  0  0  0  0
    0.8570   12.1740   -3.0910 C   0  0  0  0  0  0  0  0  0  0  0  0
    0.5280   15.6580   -3.4460 C   0  0  0  0  0  0  0  0  0  0  0  0
   -2.0340   15.0390   -3.6030 C   0  0  0  0  0  0  0  0  0  0  0  0
    0.2110   11.1720   -2.8220 O   0  0  0  0  0  0  0  0  0  0  0  0
    1.5700   12.8150   -2.1360 O   0  0  0  0  0  0  0  0  0  0  0  0
   -2.9520   15.2910   -4.3960 O   0  0  0  0  0  0  0  0  0  0  0  0
   -2.3850   14.8320   -2.2580 N   0  0  0  0  0  0  0  0  0  0  0  0
   -3.7830   15.0680   -1.9000 C   0  0  0  0  0  0  0  0  0  0  0  0
   -1.6420   14.7580   -1.0540 C   0  0  0  0  0  0  0  0  0  0  0  0
   -0.4460   14.7780   -0.8740 O   0  0  0  0  0  0  0  0  0  0  0  0
   -3.8200   15.1690   -0.3850 C   0  0  0  0  0  0  0  0  0  0  0  0
   -2.5420   14.6700    0.0060 N   0  0  0  0  0  0  0  0  0  0  0  0
  1  2  1  0
  2  3  1  6
  1  4  1  0
  2  5  1  0
  4  6  1  1
  4  7  1  0
  5  8  2  0
  5  9  1  0
  7 10  2  0
  7 11  1  0
 11 12  1  0
 11 13  1  0
 13 14  2  0
 12 15  1  0
 13 16  1  0
 15 16  1  0
M  END
