diamond-x0950_0_A-mac-x0472
     RDKit          3D

 23 24  0  0  0  0  0  0  0  0999 V2000
    2.8190   12.9810   -4.1750 C   0  0  0  0  0  0  0  0  0  0  0  0
    1.3220   12.7680   -4.2150 C   0  0  1  0  0  0  0  0  0  0  0  0
    0.9920   12.0630   -5.4150 O   0  0  0  0  0  0  0  0  0  0  0  0
    0.8330   12.0210   -2.9720 C   0  0  0  0  0  0  0  0  0  0  0  0
    0.3710   10.8830   -2.9960 O   0  0  0  0  0  0  0  0  0  0  0  0
    0.9800   12.7660   -1.8430 O   0  0  0  0  0  0  0  0  0  0  0  0
   -0.2530   13.1770   -1.2270 C   0  0  0  0  0  0  0  0  0  0  0  0
   -0.7800   14.4470   -1.8920 C   0  0  0  0  0  0  0  0  0  0  0  0
   -2.2200   14.6860   -1.5410 N   0  0  0  0  0  0  0  0  0  0  0  0
   -3.4700   14.5100   -2.6870 S   0  0  0  0  0  0  0  0  0  0  0  0
   -2.6960   14.8050   -0.1640 C   0  0  0  0  0  0  0  0  0  0  0  0
   -4.5370   15.4360   -2.3900 O   0  0  0  0  0  0  0  0  0  0  0  0
   -2.8680   14.4690   -4.0020 O   0  0  0  0  0  0  0  0  0  0  0  0
   -1.9920   14.4150    0.8660 N   0  0  0  0  0  0  0  0  0  0  0  0
   -4.2300   15.4740    0.2160 S   0  0  0  0  0  0  0  0  0  0  0  0
   -4.1420   12.8810   -2.3510 C   0  0  0  0  0  0  0  0  0  0  0  0
   -3.8430   15.1790    1.8530 C   0  0  0  0  0  0  0  0  0  0  0  0
   -2.6650   14.6350    2.0420 N   0  0  0  0  0  0  0  0  0  0  0  0
   -3.4370   11.7330   -2.7280 C   0  0  0  0  0  0  0  0  0  0  0  0
   -5.3860   12.7790   -1.7140 C   0  0  0  0  0  0  0  0  0  0  0  0
   -3.9880   10.4800   -2.4710 C   0  0  0  0  0  0  0  0  0  0  0  0
   -5.9280   11.5190   -1.4610 C   0  0  0  0  0  0  0  0  0  0  0  0
   -5.2310   10.3750   -1.8420 C   0  0  0  0  0  0  0  0  0  0  0  0
  2  1  1  1
  2  3  1  0
  2  4  1  0
  4  5  2  0
  4  6  1  0
  6  7  1  0
  7  8  1  0
  8  9  1  0
 10  9  1  0
  9 11  1  0
 10 12  2  0
 10 13  2  0
 11 14  2  0
 11 15  1  0
 10 16  1  0
 15 17  1  0
 14 18  1  0
 17 18  2  0
 16 19  2  0
 16 20  1  0
 19 21  1  0
 20 22  2  0
 21 23  2  0
 22 23  1  0
M  END
