diamond-x0837_0_A-diamond-x0895_0_A
     RDKit          3D

  9  9  0  0  0  0  0  0  0  0999 V2000
   -7.4040   14.6230    0.0430 O   0  0  0  0  0  0  0  0  0  0  0  0
   -6.2000   14.8220    0.1730 C   0  0  0  0  0  0  0  0  0  0  0  0
   -5.6120   15.1100    1.3650 N   0  0  0  0  0  0  0  0  0  0  0  0
   -5.3290   14.7580   -1.0140 C   0  0  0  0  0  0  0  0  0  0  0  0
   -4.3310   15.1450    1.4990 C   0  0  0  0  0  0  0  0  0  0  0  0
   -3.9930   14.7690   -0.9420 C   0  0  0  0  0  0  0  0  0  0  0  0
   -2.8550   14.6530   -2.6300 I   0  0  0  0  0  0  0  0  0  0  0  0
   -3.3720   14.8570    0.4020 C   0  0  0  0  0  0  0  0  0  0  0  0
   -2.1850   14.7070    0.7020 O   0  0  0  0  0  0  0  0  0  0  0  0
  1  2  2  0
  2  3  1  0
  2  4  1  0
  3  5  2  0
  4  6  2  0
  6  7  1  0
  5  8  1  0
  6  8  1  0
  8  9  2  0
M  END
