diamond-x0962_0_A-mac-x0404
     RDKit          3D

 25 27  0  0  0  0  0  0  0  0999 V2000
   -3.1910   13.7720   -2.3160 N   0  0  0  0  0  0  0  0  0  0  0  0
   -2.7820   14.7470   -1.3340 C   0  0  2  0  0  0  0  0  0  0  0  0
   -1.4500   14.3600   -0.6630 C   0  0  0  0  0  0  0  0  0  0  0  0
   -3.8220   14.9160   -0.2960 C   0  0  0  0  0  0  0  0  0  0  0  0
   -0.6090   13.4000   -1.5090 C   0  0  0  0  0  0  0  0  0  0  0  0
   -3.4900   15.3270    0.9610 N   0  0  0  0  0  0  0  0  0  0  0  0
   -5.1850   14.7470   -0.2690 C   0  0  0  0  0  0  0  0  0  0  0  0
    0.8460   13.8440   -1.5810 C   0  0  0  0  0  0  0  0  0  0  0  0
   -4.6390   15.3860    1.6860 C   0  0  0  0  0  0  0  0  0  0  0  0
   -5.6830   15.0370    0.9680 N   0  0  0  0  0  0  0  0  0  0  0  0
    1.5990   12.7060   -2.0060 O   0  0  0  0  0  0  0  0  0  0  0  0
    1.1110   12.0120   -3.0600 C   0  0  0  0  0  0  0  0  0  0  0  0
    0.4720   10.9690   -2.9760 O   0  0  0  0  0  0  0  0  0  0  0  0
    1.4740   12.6990   -4.3720 C   0  0  0  0  0  0  0  0  0  0  0  0
    1.1910   14.0830   -4.4250 O   0  0  0  0  0  0  0  0  0  0  0  0
   -0.0880   14.5010   -4.7070 C   0  0  0  0  0  0  0  0  0  0  0  0
   -0.2170   15.8750   -4.9930 C   0  0  0  0  0  0  0  0  0  0  0  0
   -1.2220   13.6840   -4.7280 C   0  0  0  0  0  0  0  0  0  0  0  0
   -1.4820   16.4190   -5.2980 C   0  0  0  0  0  0  0  0  0  0  0  0
   -2.4710   14.2280   -5.0280 C   0  0  0  0  0  0  0  0  0  0  0  0
    0.8890   16.7270   -4.9860 C   0  0  0  0  0  0  0  0  0  0  0  0
   -2.6030   15.5860   -5.3110 C   0  0  0  0  0  0  0  0  0  0  0  0
   -1.6000   17.7820   -5.5910 C   0  0  0  0  0  0  0  0  0  0  0  0
    0.7690   18.0830   -5.2780 C   0  0  0  0  0  0  0  0  0  0  0  0
   -0.4820   18.6040   -5.5810 C   0  0  0  0  0  0  0  0  0  0  0  0
  2  1  1  6
  2  3  1  0
  2  4  1  0
  3  5  1  0
  4  6  1  0
  4  7  2  0
  5  8  1  0
  6  9  1  0
  7 10  1  0
  9 10  2  0
  8 11  1  0
 11 12  1  0
 12 13  2  0
 12 14  1  0
 14 15  1  0
 15 16  1  0
 16 17  1  0
 16 18  2  0
 17 19  2  0
 18 20  1  0
 17 21  1  0
 19 22  1  0
 20 22  2  0
 19 23  1  0
 21 24  2  0
 23 25  2  0
 24 25  1  0
M  END
