diamond-x0864_0_A-diamond-x0950_0_A
     RDKit          3D

 13 13  0  0  0  0  0  0  0  0999 V2000
    1.6220   11.8530   -6.9140 O   0  0  0  0  0  0  0  0  0  0  0  0
    0.5990   11.3580   -6.4700 C   0  0  0  0  0  0  0  0  0  0  0  0
    0.0060   11.8050   -5.2980 N   0  0  0  0  0  0  0  0  0  0  0  0
   -0.0340   10.2230   -7.1800 C   0  0  0  0  0  0  0  0  0  0  0  0
    0.8070   12.7030   -4.4120 C   0  0  1  0  0  0  0  0  0  0  0  0
   -1.2230   11.2940   -4.8960 C   0  0  0  0  0  0  0  0  0  0  0  0
   -1.1930    9.7240   -6.7290 C   0  0  0  0  0  0  0  0  0  0  0  0
    0.7240   12.2090   -2.9690 C   0  0  0  0  0  0  0  0  0  0  0  0
   -2.0410    8.2890   -7.5730 Br  0  0  0  0  0  0  0  0  0  0  0  0
    2.2840   12.9790   -4.7510 C   0  0  0  0  0  0  0  0  0  0  0  0
   -1.8230   10.2940   -5.5620 C   0  0  0  0  0  0  0  0  0  0  0  0
    0.2380   10.9520   -2.8520 O   0  0  0  0  0  0  0  0  0  0  0  0
    1.0640   12.8690   -2.0000 O   0  0  0  0  0  0  0  0  0  0  0  0
  1  2  2  0
  2  3  1  0
  2  4  1  0
  3  5  1  0
  3  6  1  0
  4  7  2  0
  5  8  1  0
  7  9  1  0
  5 10  1  6
  6 11  2  0
  7 11  1  0
  8 12  1  0
  8 13  2  0
M  END
