diamond-x0855_0_A-mac-x0124
     RDKit          3D

 22 24  0  0  0  0  0  0  0  0999 V2000
    1.9500   12.8640   -2.7880 O   0  0  0  0  0  0  0  0  0  0  0  0
    0.9940   12.1480   -3.4040 C   0  0  0  0  0  0  0  0  0  0  0  0
    0.4400   12.6920   -4.7110 C   0  0  2  0  0  0  0  0  0  0  0  0
    0.5990   11.0870   -2.9320 O   0  0  0  0  0  0  0  0  0  0  0  0
   -0.1590   14.1110   -4.5380 C   0  0  0  0  0  0  0  0  0  0  0  0
   -0.5290   11.7380   -5.2170 N   0  0  0  0  0  0  0  0  0  0  0  0
   -0.0270   14.7470   -3.1430 C   0  0  0  0  0  0  0  0  0  0  0  0
   -0.3420   10.7690   -6.1550 C   0  0  0  0  0  0  0  0  0  0  0  0
   -1.7900   11.7740   -4.7180 N   0  0  0  0  0  0  0  0  0  0  0  0
   -1.5510   10.1380   -6.2640 C   0  0  0  0  0  0  0  0  0  0  0  0
   -2.4100   10.7850   -5.3700 C   0  0  0  0  0  0  0  0  0  0  0  0
   -1.2270   14.8330   -2.3220 N   0  0  0  0  0  0  0  0  0  0  0  0
   -2.0080    8.7060   -7.3610 Br  0  0  0  0  0  0  0  0  0  0  0  0
   -2.5250   14.9850   -2.7670 C   0  0  0  0  0  0  0  0  0  0  0  0
   -1.2140   14.7780   -0.9510 C   0  0  0  0  0  0  0  0  0  0  0  0
   -3.3450   15.0340   -1.6530 C   0  0  0  0  0  0  0  0  0  0  0  0
   -2.5190   14.9020   -0.5000 C   0  0  0  0  0  0  0  0  0  0  0  0
   -0.1150   14.6350   -0.2040 N   0  0  0  0  0  0  0  0  0  0  0  0
   -2.7020   14.8770    0.8880 C   0  0  0  0  0  0  0  0  0  0  0  0
   -0.4170   14.6130    1.1070 C   0  0  0  0  0  0  0  0  0  0  0  0
   -3.9490   15.0150    1.4770 N   0  0  0  0  0  0  0  0  0  0  0  0
   -1.6290   14.7160    1.6890 N   0  0  0  0  0  0  0  0  0  0  0  0
  1  2  1  0
  2  3  1  0
  2  4  2  0
  3  5  1  1
  3  6  1  0
  5  7  1  0
  6  8  1  0
  6  9  1  0
  8 10  2  0
  9 11  2  0
 10 11  1  0
  7 12  1  0
 10 13  1  0
 12 14  1  0
 12 15  1  0
 14 16  2  0
 15 17  2  0
 16 17  1  0
 15 18  1  0
 17 19  1  0
 18 20  2  0
 19 21  1  0
 19 22  2  0
 20 22  1  0
M  END
