diamond-x0855_0_A-mac-x0439
     RDKit          3D

 22 24  0  0  0  0  0  0  0  0999 V2000
    1.8550   12.7830   -2.6400 N   0  0  0  0  0  0  0  0  0  0  0  0
    0.9510   12.0520   -3.3480 C   0  0  0  0  0  0  0  0  0  0  0  0
    0.5600   12.4930   -4.7380 C   0  0  0  0  0  0  0  0  0  0  0  0
    1.8180   14.0610   -2.6780 C   0  0  0  0  0  0  0  0  0  0  0  0
    0.4570   11.0260   -2.8750 O   0  0  0  0  0  0  0  0  0  0  0  0
    2.7900   14.6250   -1.9100 O   0  0  0  0  0  0  0  0  0  0  0  0
    0.9700   15.1230   -3.3530 C   0  0  0  0  0  0  0  0  0  0  0  0
   -0.4890   11.6400   -5.2380 N   0  0  0  0  0  0  0  0  0  0  0  0
   -0.3790   15.2030   -3.3610 C   0  0  0  0  0  0  0  0  0  0  0  0
    1.5510   16.1560   -4.0410 N   0  0  0  0  0  0  0  0  0  0  0  0
   -0.3720   10.6840   -6.2010 C   0  0  0  0  0  0  0  0  0  0  0  0
   -1.7370   11.7490   -4.7290 N   0  0  0  0  0  0  0  0  0  0  0  0
   -0.8010   16.4680   -4.0530 C   0  0  1  0  0  0  0  0  0  0  0  0
    0.5850   16.9140   -4.4470 C   0  0  0  0  0  0  0  0  0  0  0  0
   -1.6190   10.1370   -6.3110 C   0  0  0  0  0  0  0  0  0  0  0  0
   -2.4240   10.8210   -5.3930 C   0  0  0  0  0  0  0  0  0  0  0  0
   -1.7270   16.6410   -5.2120 C   0  0  0  0  0  0  0  0  0  0  0  0
    0.7260   18.1560   -5.2320 C   0  0  0  0  0  0  0  0  0  0  0  0
   -2.1730    8.7620   -7.4350 Br  0  0  0  0  0  0  0  0  0  0  0  0
   -3.1100   15.6230   -5.3540 Cl  0  0  0  0  0  0  0  0  0  0  0  0
   -1.4880   17.6010   -6.1240 C   0  0  0  0  0  0  0  0  0  0  0  0
   -0.3140   18.4570   -6.0290 C   0  0  0  0  0  0  0  0  0  0  0  0
  1  2  1  0
  2  3  1  0
  1  4  2  3
  2  5  2  0
  4  6  1  0
  4  7  1  0
  3  8  1  0
  7  9  2  0
  7 10  1  0
  8 11  1  0
  8 12  1  0
 13  9  1  6
 10 14  2  0
 13 14  1  0
 11 15  2  0
 12 16  2  0
 15 16  1  0
 13 17  1  0
 14 18  1  0
 15 19  1  0
 17 20  1  0
 17 21  2  0
 18 22  2  0
 21 22  1  0
M  END
