diamond-x0849_0_A-diamond-x0855_0_A
     RDKit          3D

 22 24  0  0  0  0  0  0  0  0999 V2000
   -3.8540   15.2250   -2.8280 Br  0  0  0  0  0  0  0  0  0  0  0  0
   -3.6620   15.1890   -0.9410 C   0  0  0  0  0  0  0  0  0  0  0  0
   -2.4570   14.8060   -0.3570 C   0  0  0  0  0  0  0  0  0  0  0  0
   -4.7430   15.5410   -0.1620 C   0  0  0  0  0  0  0  0  0  0  0  0
   -2.3860   14.7930    1.0370 C   0  0  0  0  0  0  0  0  0  0  0  0
   -4.5590   15.4860    1.1980 C   0  0  0  0  0  0  0  0  0  0  0  0
   -1.3260   14.4340   -1.0940 C   0  0  0  0  0  0  0  0  0  0  0  0
   -3.4150   15.1220    1.7780 N   0  0  0  0  0  0  0  0  0  0  0  0
   -1.2930   14.4470    1.6710 N   0  0  0  0  0  0  0  0  0  0  0  0
   -0.1770   14.0540   -0.4540 C   0  0  0  0  0  0  0  0  0  0  0  0
    1.0200   13.6270   -1.2610 C   0  0  0  0  0  0  0  0  0  0  0  0
   -0.2310   14.0840    0.9450 C   0  0  0  0  0  0  0  0  0  0  0  0
    0.8170   13.6870   -2.6780 O   0  0  0  0  0  0  0  0  0  0  0  0
    0.7910   12.4670   -3.3140 C   0  0  0  0  0  0  0  0  0  0  0  0
    0.8850   11.3790   -2.7530 O   0  0  0  0  0  0  0  0  0  0  0  0
    0.6120   12.6580   -4.7920 C   0  0  0  0  0  0  0  0  0  0  0  0
   -0.4100   11.7470   -5.2480 N   0  0  0  0  0  0  0  0  0  0  0  0
   -0.2880   10.7710   -6.1920 C   0  0  0  0  0  0  0  0  0  0  0  0
   -1.6460   11.8210   -4.7040 N   0  0  0  0  0  0  0  0  0  0  0  0
   -1.5190   10.1740   -6.2530 C   0  0  0  0  0  0  0  0  0  0  0  0
   -2.3210   10.8520   -5.3260 C   0  0  0  0  0  0  0  0  0  0  0  0
   -2.0570    8.7560   -7.3280 Br  0  0  0  0  0  0  0  0  0  0  0  0
  1  2  1  0
  2  3  2  0
  2  4  1  0
  3  5  1  0
  4  6  2  0
  3  7  1  0
  5  8  2  0
  6  8  1  0
  5  9  1  0
  7 10  2  0
 10 11  1  0
  9 12  2  0
 10 12  1  0
 11 13  1  0
 13 14  1  0
 14 15  2  0
 14 16  1  0
 16 17  1  0
 17 18  1  0
 17 19  1  0
 18 20  2  0
 19 21  2  0
 20 21  1  0
 20 22  1  0
M  END
