diamond-x0967_0_A-diamond-x0910_1_A
     RDKit          3D

 10 11  0  0  0  0  0  0  0  0999 V2000
   -7.0990   14.6740   -0.7390 N   0  0  0  0  0  0  0  0  0  0  0  0
   -7.8640   14.5720    0.3690 C   0  0  0  0  0  0  0  0  0  0  0  0
   -7.3640   14.5910    1.6540 C   0  0  0  0  0  0  0  0  0  0  0  0
   -5.7770   14.7990   -0.6060 C   0  0  0  0  0  0  0  0  0  0  0  0
   -5.1820   14.8250    0.6700 C   0  0  0  0  0  0  0  0  0  0  0  0
   -5.0280   14.8950   -1.7080 N   0  0  0  0  0  0  0  0  0  0  0  0
   -5.9950   14.7230    1.7970 C   0  0  0  0  0  0  0  0  0  0  0  0
   -3.6920   15.0160   -1.5720 C   0  0  0  0  0  0  0  0  0  0  0  0
   -3.7970   14.9510    0.7890 C   0  0  0  0  0  0  0  0  0  0  0  0
   -3.0340   15.0450   -0.3560 C   0  0  0  0  0  0  0  0  0  0  0  0
  1  2  2  0
  2  3  1  0
  1  4  1  0
  4  5  2  0
  4  6  1  0
  3  7  2  0
  5  7  1  0
  6  8  2  0
  5  9  1  0
  8 10  1  0
  9 10  2  0
M  END
