diamond-x0950_1_A-diamond-x0722_0_A
     RDKit          3D

 20 20  0  0  0  0  0  0  0  0999 V2000
    1.0320   13.9940   -4.7770 C   0  0  0  0  0  0  0  0  0  0  0  0
    1.3700   12.5240   -4.5750 C   0  0  2  0  0  0  0  0  0  0  0  0
    0.6350   11.7660   -5.5360 O   0  0  0  0  0  0  0  0  0  0  0  0
    1.0670   12.0240   -3.1530 C   0  0  0  0  0  0  0  0  0  0  0  0
    0.3680   11.0420   -2.9020 O   0  0  0  0  0  0  0  0  0  0  0  0
    1.6750   12.7910   -2.2170 O   0  0  0  0  0  0  0  0  0  0  0  0
    0.8250   13.7940   -1.6540 C   0  0  0  0  0  0  0  0  0  0  0  0
   -0.5980   13.2330   -1.5880 C   0  0  0  0  0  0  0  0  0  0  0  0
   -1.6850   14.2920   -1.7020 C   0  0  0  0  0  0  0  0  0  0  0  0
   -2.2710   14.6520   -0.3770 C   0  0  0  0  0  0  0  0  0  0  0  0
   -3.5360   15.1370   -0.0570 C   0  0  0  0  0  0  0  0  0  0  0  0
   -1.5880   14.5590    0.8190 N   0  0  0  0  0  0  0  0  0  0  0  0
   -0.2460   14.1360    1.1140 C   0  0  0  0  0  0  0  0  0  0  0  0
   -4.6920   15.4440   -0.9600 C   0  0  0  0  0  0  0  0  0  0  0  0
   -2.3140   14.9330    1.8450 N   0  0  0  0  0  0  0  0  0  0  0  0
   -3.4710   15.2880    1.3410 C   0  0  0  0  0  0  0  0  0  0  0  0
   -4.4690   15.7790    2.2660 C   0  0  0  0  0  0  0  0  0  0  0  0
   -5.9590   14.6860   -0.5980 C   0  0  0  0  0  0  0  0  0  0  0  0
   -7.0870   15.1500   -0.7400 O   0  0  0  0  0  0  0  0  0  0  0  0
   -5.7960   13.4280   -0.0900 N   0  0  0  0  0  0  0  0  0  0  0  0
  2  1  1  1
  2  3  1  0
  2  4  1  0
  4  5  2  0
  4  6  1  0
  6  7  1  0
  7  8  1  0
  8  9  1  0
  9 10  1  0
 10 11  2  0
 10 12  1  0
 12 13  1  0
 11 14  1  0
 12 15  1  0
 11 16  1  0
 15 16  2  0
 16 17  1  0
 14 18  1  0
 18 19  2  0
 18 20  1  0
M  END
