diamond-x0689_0_A-diamond-x0837_0_A
     RDKit          3D

 15 16  0  0  0  0  0  0  0  0999 V2000
   -3.1210   15.0050    2.2110 N   0  0  0  0  0  0  0  0  0  0  0  0
   -2.1190   15.0640    1.2010 C   0  0  1  0  0  0  0  0  0  0  0  0
   -1.1470   14.1890    1.7360 N   0  0  0  0  0  0  0  0  0  0  0  0
   -2.4990   14.8370   -0.1530 N   0  0  0  0  0  0  0  0  0  0  0  0
   -1.4680   14.5320   -1.0220 C   0  0  0  0  0  0  0  0  0  0  0  0
    0.0080   14.1890    0.8890 C   0  0  0  0  0  0  0  0  0  0  0  0
   -3.8510   14.2960   -0.1470 C   0  0  1  0  0  0  0  0  0  0  0  0
   -0.2580   14.2210   -0.5690 C   0  0  0  0  0  0  0  0  0  0  0  0
   -4.6610   14.8000    1.0640 C   0  0  0  0  0  0  0  0  0  0  0  0
   -4.6270   14.3970   -1.4700 C   0  0  2  0  0  0  0  0  0  0  0  0
   -3.4440   14.9130   -3.2350 I   0  0  0  0  0  0  0  0  0  0  0  0
   -6.0670   14.5460    0.9420 N   0  0  0  0  0  0  0  0  0  0  0  0
   -5.8190   15.3430   -1.3080 C   0  0  0  0  0  0  0  0  0  0  0  0
   -6.7180   14.9140   -0.1740 C   0  0  0  0  0  0  0  0  0  0  0  0
   -7.9420   14.8850   -0.2240 O   0  0  0  0  0  0  0  0  0  0  0  0
  2  1  1  1
  2  3  1  0
  2  4  1  0
  4  5  1  0
  3  6  1  0
  7  4  1  6
  5  8  2  0
  6  8  1  0
  7  9  1  0
  7 10  1  0
 10 11  1  6
  9 12  1  0
 10 13  1  0
 12 14  1  0
 13 14  1  0
 14 15  2  0
M  END
