diamond-x0626_0_A-mac-x0381
     RDKit          3D

 25 27  0  0  0  0  0  0  0  0999 V2000
   -4.9570   14.8160    1.2790 N   0  0  0  0  0  0  0  0  0  0  0  0
   -6.1400   14.7530    0.5820 C   0  0  0  0  0  0  0  0  0  0  0  0
   -6.0940   14.7950   -0.6530 O   0  0  0  0  0  0  0  0  0  0  0  0
   -3.6740   14.7580    0.8150 C   0  0  0  0  0  0  0  0  0  0  0  0
   -7.4840   14.6380    1.3180 C   0  0  1  0  0  0  0  0  0  0  0  0
   -2.5410   14.6580    1.4890 N   0  0  0  0  0  0  0  0  0  0  0  0
   -3.5400   14.8170   -0.8860 S   0  0  0  0  0  0  0  0  0  0  0  0
   -8.3140   13.5310    0.6910 C   0  0  0  0  0  0  0  0  0  0  0  0
   -7.1370   14.3850    2.7890 C   0  0  0  0  0  0  0  0  0  0  0  0
   -1.8390   14.6850   -0.7300 C   0  0  0  0  0  0  0  0  0  0  0  0
   -1.4880   14.6120    0.6040 C   0  0  0  0  0  0  0  0  0  0  0  0
   -0.1230   14.4890    1.1400 C   0  0  0  0  0  0  0  0  0  0  0  0
   -8.1900   14.6230    3.8930 C   0  0  0  0  0  0  0  0  0  0  0  0
   -8.3800   13.3570    4.5630 N   0  0  0  0  0  0  0  0  0  0  0  0
   -7.5610   15.3990    4.9420 N   0  0  0  0  0  0  0  0  0  0  0  0
   -9.5380   15.1900    3.4450 C   0  0  0  0  0  0  0  0  0  0  0  0
   -9.6470   15.9770    2.2850 C   0  0  0  0  0  0  0  0  0  0  0  0
  -10.7170   14.9510    4.1670 C   0  0  0  0  0  0  0  0  0  0  0  0
  -10.8650   16.5100    1.8500 C   0  0  0  0  0  0  0  0  0  0  0  0
  -11.9440   15.4710    3.7500 C   0  0  0  0  0  0  0  0  0  0  0  0
  -12.0340   16.2510    2.5940 C   0  0  0  0  0  0  0  0  0  0  0  0
  -10.9480   17.2940    0.6900 C   0  0  0  0  0  0  0  0  0  0  0  0
  -13.2590   16.7770    2.1640 C   0  0  0  0  0  0  0  0  0  0  0  0
  -12.1730   17.8140    0.2740 C   0  0  0  0  0  0  0  0  0  0  0  0
  -13.3300   17.5570    1.0090 C   0  0  0  0  0  0  0  0  0  0  0  0
  1  2  1  0
  2  3  2  0
  1  4  1  0
  2  5  1  0
  4  6  2  0
  4  7  1  0
  5  8  1  6
  5  9  1  0
  7 10  1  0
  6 11  1  0
 10 11  2  0
 11 12  1  0
  9 13  1  0
 13 14  1  0
 13 15  1  0
 13 16  1  0
 16 17  2  0
 16 18  1  0
 17 19  1  0
 18 20  2  0
 19 21  2  0
 20 21  1  0
 19 22  1  0
 21 23  1  0
 22 24  2  0
 23 25  2  0
 24 25  1  0
M  END
