diamond-x0471_0_A-mac-x0568
     RDKit          3D

 19 20  0  0  0  0  0  0  0  0999 V2000
   -8.5960   13.9560    2.2940 N   0  0  0  0  0  0  0  0  0  0  0  0
   -8.8620   14.9120    3.2970 C   0  0  0  0  0  0  0  0  0  0  0  0
   -9.2470   16.0530    3.0720 O   0  0  0  0  0  0  0  0  0  0  0  0
   -8.3250   14.2980    0.8710 C   0  0  0  0  0  0  0  0  0  0  0  0
   -8.6360   14.3920    4.7340 C   0  0  0  0  0  0  0  0  0  0  0  0
   -6.8650   14.6160    0.6150 C   0  0  0  0  0  0  0  0  0  0  0  0
   -9.8770   13.6760    5.2740 C   0  0  0  0  0  0  0  0  0  0  0  0
   -8.2430   15.5250    5.6880 C   0  0  0  0  0  0  0  0  0  0  0  0
   -6.0390   14.7390   -0.5610 N   0  0  0  0  0  0  0  0  0  0  0  0
   -6.0820   14.8470    1.6570 N   0  0  0  0  0  0  0  0  0  0  0  0
   -5.9190   14.6740   -1.9380 C   0  0  0  0  0  0  0  0  0  0  0  0
   -4.8320   15.1090    1.1560 C   0  0  0  0  0  0  0  0  0  0  0  0
   -4.8310   15.0540   -0.1820 C   0  0  0  0  0  0  0  0  0  0  0  0
   -6.6410   15.1670   -2.7410 O   0  0  0  0  0  0  0  0  0  0  0  0
   -4.7580   13.9960   -2.2630 N   0  0  0  0  0  0  0  0  0  0  0  0
   -3.7400   15.2860   -1.0170 C   0  0  0  0  0  0  0  0  0  0  0  0
   -3.6210   15.4080    1.7570 C   0  0  0  0  0  0  0  0  0  0  0  0
   -2.5530   15.5830   -0.4240 C   0  0  0  0  0  0  0  0  0  0  0  0
   -2.4900   15.6390    0.9490 C   0  0  0  0  0  0  0  0  0  0  0  0
  1  2  1  0
  2  3  2  0
  1  4  1  0
  2  5  1  0
  4  6  1  0
  5  7  1  0
  5  8  1  0
  6  9  1  0
  6 10  2  0
  9 11  1  0
 10 12  1  0
  9 13  1  0
 12 13  2  0
 11 14  2  0
 11 15  1  0
 13 16  1  0
 12 17  1  0
 16 18  2  0
 17 19  2  0
 18 19  1  0
M  END
