diamond-x0689_0_A-diamond-x0864_0_A
     RDKit          3D

 21 22  0  0  0  0  0  0  0  0999 V2000
   -3.6810   15.2730    1.6860 N   0  0  0  0  0  0  0  0  0  0  0  0
   -4.7780   15.3660    0.7670 C   0  0  0  0  0  0  0  0  0  0  0  0
   -2.5240   14.8500    1.0690 C   0  0  0  0  0  0  0  0  0  0  0  0
   -2.5810   14.8390   -0.2680 N   0  0  0  0  0  0  0  0  0  0  0  0
   -1.4510   14.4880    1.7670 N   0  0  0  0  0  0  0  0  0  0  0  0
   -1.4890   14.4330   -0.9280 C   0  0  0  0  0  0  0  0  0  0  0  0
   -0.3820   14.0860    1.0680 C   0  0  0  0  0  0  0  0  0  0  0  0
   -0.3370   14.0330   -0.3140 C   0  0  0  0  0  0  0  0  0  0  0  0
    0.8380   13.5720   -1.1070 C   0  0  0  0  0  0  0  0  0  0  0  0
    0.7350   13.7560   -2.5310 N   0  0  0  0  0  0  0  0  0  0  0  0
    0.6570   12.7630   -3.3390 C   0  0  0  0  0  0  0  0  0  0  0  0
    0.5440   12.8470   -4.8420 C   0  0  0  0  0  0  0  0  0  0  0  0
    0.6720   11.5120   -2.8210 O   0  0  0  0  0  0  0  0  0  0  0  0
   -0.0830   11.6790   -5.4330 N   0  0  0  0  0  0  0  0  0  0  0  0
   -1.2800   11.1800   -4.9510 C   0  0  0  0  0  0  0  0  0  0  0  0
    0.5020   11.2150   -6.5930 C   0  0  0  0  0  0  0  0  0  0  0  0
    1.5300   11.6710   -7.0630 O   0  0  0  0  0  0  0  0  0  0  0  0
   -1.8960   10.1660   -5.5760 C   0  0  0  0  0  0  0  0  0  0  0  0
   -0.1680   10.0810   -7.2630 C   0  0  0  0  0  0  0  0  0  0  0  0
   -1.3060    9.5920   -6.7650 C   0  0  0  0  0  0  0  0  0  0  0  0
   -2.1830    8.1580   -7.5740 Br  0  0  0  0  0  0  0  0  0  0  0  0
  1  2  1  0
  1  3  1  0
  3  4  2  0
  3  5  1  0
  4  6  1  0
  5  7  2  0
  6  8  2  0
  7  8  1  0
  8  9  1  0
  9 10  1  0
 10 11  2  3
 11 12  1  0
 11 13  1  0
 12 14  1  0
 14 15  1  0
 14 16  1  0
 16 17  2  0
 15 18  2  0
 16 19  1  0
 18 20  1  0
 19 20  2  0
 20 21  1  0
M  END
