diamond-x0253_0_A-diamond-x0895_0_A
     RDKit          3D

 24 25  0  0  0  0  0  0  0  0999 V2000
    0.3370   11.9150   -5.5240 N   0  0  0  0  0  0  0  0  0  0  0  0
    1.0700   11.6010   -6.6240 C   0  0  0  0  0  0  0  0  0  0  0  0
    2.1930   12.0540   -6.6990 O   0  0  0  0  0  0  0  0  0  0  0  0
    0.8770   12.9760   -4.7250 C   0  0  0  0  0  0  0  0  0  0  0  0
    0.7420   12.7190   -3.2480 C   0  0  0  0  0  0  0  0  0  0  0  0
    0.4590   10.6980   -7.6310 C   0  0  0  0  0  0  0  0  0  0  0  0
    0.8210   13.7190   -2.4590 N   0  0  0  0  0  0  0  0  0  0  0  0
    0.5430   11.4330   -2.8580 O   0  0  0  0  0  0  0  0  0  0  0  0
   -0.5170    9.7810   -7.2350 C   0  0  0  0  0  0  0  0  0  0  0  0
    0.8470   10.7500   -8.9780 C   0  0  0  0  0  0  0  0  0  0  0  0
    0.7010   13.4290   -1.0610 C   0  0  0  0  0  0  0  0  0  0  0  0
   -1.1050    8.9230   -8.1660 C   0  0  0  0  0  0  0  0  0  0  0  0
    0.2660    9.8970   -9.9110 C   0  0  0  0  0  0  0  0  0  0  0  0
   -2.1540    7.9430   -7.7300 C   0  0  0  0  0  0  0  0  0  0  0  0
   -0.5320   14.0690   -0.4440 C   0  0  0  0  0  0  0  0  0  0  0  0
   -0.7080    8.9870   -9.5070 C   0  0  0  0  0  0  0  0  0  0  0  0
   -0.3120   14.3060    1.0530 C   0  0  0  0  0  0  0  0  0  0  0  0
   -1.5700   14.4910    1.7800 N   0  0  0  0  0  0  0  0  0  0  0  0
   -2.6670   14.7490    1.1730 C   0  0  0  0  0  0  0  0  0  0  0  0
   -4.0540   14.9730    1.7320 C   0  0  0  0  0  0  0  0  0  0  0  0
   -2.7170   14.8600   -0.1760 N   0  0  0  0  0  0  0  0  0  0  0  0
   -4.7290   15.3900    0.5460 N   0  0  0  0  0  0  0  0  0  0  0  0
   -3.9590   15.2040   -0.5740 C   0  0  0  0  0  0  0  0  0  0  0  0
   -4.3490   15.3260   -1.7160 O   0  0  0  0  0  0  0  0  0  0  0  0
  1  2  1  0
  2  3  2  0
  1  4  1  0
  4  5  1  0
  2  6  1  0
  5  7  2  3
  5  8  1  0
  6  9  2  0
  6 10  1  0
  7 11  1  0
  9 12  1  0
 10 13  2  0
 12 14  1  0
 11 15  1  0
 12 16  2  0
 13 16  1  0
 15 17  1  0
 17 18  1  0
 18 19  2  3
 19 20  1  0
 19 21  1  0
 20 22  1  0
 21 23  1  0
 22 23  1  0
 23 24  2  0
M  END
