diamond-x0844_0_A-mac-x0398
     RDKit          3D

 12 12  0  0  0  0  0  0  0  0999 V2000
   -7.6130   14.9010   -0.1190 O   0  0  0  0  0  0  0  0  0  0  0  0
   -6.3820   14.8790   -0.0720 C   0  0  0  0  0  0  0  0  0  0  0  0
   -5.6800   14.7520    1.1340 N   0  0  0  0  0  0  0  0  0  0  0  0
   -5.5300   14.9850   -1.3210 C   0  0  0  0  0  0  0  0  0  0  0  0
   -6.4250   14.8410    2.3360 N   0  0  0  0  0  0  0  0  0  0  0  0
   -6.1950   15.0080   -2.5420 O   0  0  0  0  0  0  0  0  0  0  0  0
   -4.3170   14.8830    1.2350 C   0  0  0  0  0  0  0  0  0  0  0  0
   -4.1880   15.0400   -1.1860 C   0  0  0  0  0  0  0  0  0  0  0  0
   -3.4040   15.1070   -2.4530 C   0  0  0  0  0  0  0  0  0  0  0  0
   -3.5640   15.0230    0.1340 C   0  0  0  0  0  0  0  0  0  0  0  0
   -3.9430   15.1570   -3.5500 O   0  0  0  0  0  0  0  0  0  0  0  0
   -2.0680   15.0950   -2.3140 O   0  0  0  0  0  0  0  0  0  0  0  0
  1  2  2  0
  2  3  1  0
  2  4  1  0
  3  5  1  0
  4  6  1  0
  3  7  1  0
  4  8  2  0
  8  9  1  0
  7 10  2  0
  8 10  1  0
  9 11  2  0
  9 12  1  0
M  END
