diamond-x0962_1_A-mac-x0546
     RDKit          3D

 25 27  0  0  0  0  0  0  0  0999 V2000
   -3.2200   14.2190   -0.6740 N   0  0  0  0  0  0  0  0  0  0  0  0
   -4.1880   15.2830   -0.8030 C   0  0  1  0  0  0  0  0  0  0  0  0
   -4.4270   15.5160   -2.2930 C   0  0  0  0  0  0  0  0  0  0  0  0
   -5.4230   14.9460   -0.0500 C   0  0  0  0  0  0  0  0  0  0  0  0
   -4.2270   14.2880   -3.1660 C   0  0  0  0  0  0  0  0  0  0  0  0
   -5.4340   14.7410    1.3060 N   0  0  0  0  0  0  0  0  0  0  0  0
   -6.7420   14.7670   -0.4290 C   0  0  0  0  0  0  0  0  0  0  0  0
   -4.7370   14.5600   -4.5900 C   0  0  0  0  0  0  0  0  0  0  0  0
   -6.7120   14.4550    1.6830 C   0  0  0  0  0  0  0  0  0  0  0  0
   -7.5320   14.4630    0.6540 N   0  0  0  0  0  0  0  0  0  0  0  0
   -3.8560   15.4670   -5.3880 N   0  0  0  0  0  0  0  0  0  0  0  0
   -4.1070   15.0700   -6.7550 C   0  0  0  0  0  0  0  0  0  0  0  0
   -2.5330   15.7490   -4.9970 C   0  0  0  0  0  0  0  0  0  0  0  0
   -1.8010   14.7280   -4.5600 C   0  0  0  0  0  0  0  0  0  0  0  0
   -1.8870   17.0980   -5.0110 C   0  0  0  0  0  0  0  0  0  0  0  0
   -0.4430   14.8990   -4.0570 C   0  0  2  0  0  0  0  0  0  0  0  0
   -0.5580   17.3200   -4.8360 C   0  0  0  0  0  0  0  0  0  0  0  0
    0.2390   16.1030   -4.6410 C   0  0  0  0  0  0  0  0  0  0  0  0
    0.6530   13.9210   -4.2610 C   0  0  0  0  0  0  0  0  0  0  0  0
    0.5340   12.4570   -4.0260 C   0  0  0  0  0  0  0  0  0  0  0  0
    1.4870   15.9300   -4.8930 N   0  0  0  0  0  0  0  0  0  0  0  0
    1.7100   14.5910   -4.6620 C   0  0  0  0  0  0  0  0  0  0  0  0
    0.2960   11.9360   -2.6200 C   0  0  0  0  0  0  0  0  0  0  0  0
    0.5890   12.5010   -1.5760 O   0  0  0  0  0  0  0  0  0  0  0  0
   -0.3010   10.7240   -2.6210 O   0  0  0  0  0  0  0  0  0  0  0  0
  2  1  1  6
  2  3  1  0
  2  4  1  0
  3  5  1  0
  4  6  1  0
  4  7  2  0
  5  8  1  0
  6  9  1  0
  7 10  1  0
  9 10  2  0
  8 11  1  0
 11 12  1  0
 11 13  1  0
 13 14  2  0
 13 15  1  0
 16 14  1  6
 15 17  2  0
 16 18  1  0
 17 18  1  0
 16 19  1  0
 19 20  1  0
 18 21  2  0
 19 22  2  0
 21 22  1  0
 20 23  1  0
 23 24  2  0
 23 25  1  0
M  END
