diamond-x0962_2_B-diamond-x0471_0_A
     RDKit          3D

 22 24  0  0  0  0  0  0  0  0999 V2000
   -9.9440   16.1460    1.2550 N   0  0  0  0  0  0  0  0  0  0  0  0
  -10.1590   15.4700    2.5400 C   0  0  1  0  0  0  0  0  0  0  0  0
   -9.3800   14.1800    2.9990 C   0  0  2  0  0  0  0  0  0  0  0  0
   -9.3740   16.0660    3.5510 C   0  0  0  0  0  0  0  0  0  0  0  0
   -9.3110   13.0690    2.0560 N   0  0  0  0  0  0  0  0  0  0  0  0
   -9.7560   13.7670    4.5080 C   0  0  0  0  0  0  0  0  0  0  0  0
   -9.6510   17.1370    4.2910 N   0  0  0  0  0  0  0  0  0  0  0  0
   -8.1620   15.5850    3.9620 C   0  0  0  0  0  0  0  0  0  0  0  0
   -9.9710   12.2930    4.7940 C   0  0  0  0  0  0  0  0  0  0  0  0
   -8.8630   14.3450    5.6380 C   0  0  0  0  0  0  0  0  0  0  0  0
   -8.9930   13.5750    0.7150 C   0  0  0  0  0  0  0  0  0  0  0  0
   -8.6100   17.2680    5.1300 C   0  0  0  0  0  0  0  0  0  0  0  0
   -7.6980   16.3380    4.9540 N   0  0  0  0  0  0  0  0  0  0  0  0
   -7.5710   14.0290    0.4740 C   0  0  0  0  0  0  0  0  0  0  0  0
   -7.1640   14.4190   -0.7760 N   0  0  0  0  0  0  0  0  0  0  0  0
   -6.5620   14.1140    1.3280 N   0  0  0  0  0  0  0  0  0  0  0  0
   -5.4780   14.5530    0.5980 C   0  0  0  0  0  0  0  0  0  0  0  0
   -5.8370   14.7500   -0.7250 C   0  0  0  0  0  0  0  0  0  0  0  0
   -4.9560   15.1880   -1.7050 C   0  0  0  0  0  0  0  0  0  0  0  0
   -4.1510   14.8050    0.9870 C   0  0  0  0  0  0  0  0  0  0  0  0
   -3.6480   15.4230   -1.3020 C   0  0  0  0  0  0  0  0  0  0  0  0
   -3.2470   15.2360    0.0220 C   0  0  0  0  0  0  0  0  0  0  0  0
  2  1  1  6
  2  3  1  0
  2  4  1  0
  3  5  1  6
  3  6  1  0
  4  7  1  0
  4  8  2  0
  6  9  1  0
  6 10  1  0
  5 11  1  0
  7 12  1  0
  8 13  1  0
 12 13  2  0
 11 14  1  0
 14 15  1  0
 14 16  2  0
 16 17  1  0
 15 18  1  0
 17 18  2  0
 18 19  1  0
 17 20  1  0
 19 21  2  0
 20 22  2  0
 21 22  1  0
M  END
