diamond-x1012_0_A-diamond-x0689_0_A
     RDKit          3D

 21 22  0  0  0  0  0  0  0  0999 V2000
   -0.4600   18.2430   -4.6950 N   0  0  0  0  0  0  0  0  0  0  0  0
   -1.3480   17.2410   -4.8660 C   0  0  0  0  0  0  0  0  0  0  0  0
   -2.5310   17.4880   -4.7530 O   0  0  0  0  0  0  0  0  0  0  0  0
   -0.8420   15.9950   -5.1330 N   0  0  0  0  0  0  0  0  0  0  0  0
   -1.8610   14.8800   -5.1330 C   0  0  0  0  0  0  0  0  0  0  0  0
    0.6460   15.7900   -5.1420 C   0  0  0  0  0  0  0  0  0  0  0  0
   -1.2790   13.4850   -4.9350 C   0  0  0  0  0  0  0  0  0  0  0  0
    1.1100   14.3580   -4.9810 C   0  0  0  0  0  0  0  0  0  0  0  0
   -0.0150   13.7710   -4.2140 C   0  0  0  0  0  0  0  0  0  0  0  0
    0.3010   13.1290   -2.9650 C   0  0  0  0  0  0  0  0  0  0  0  0
    0.2450   11.7850   -2.7940 O   0  0  0  0  0  0  0  0  0  0  0  0
    0.5690   13.9160   -2.0650 N   0  0  0  0  0  0  0  0  0  0  0  0
    0.7840   13.5310   -0.7830 C   0  0  0  0  0  0  0  0  0  0  0  0
   -0.3650   14.0120   -0.0240 C   0  0  0  0  0  0  0  0  0  0  0  0
   -1.4700   14.3980   -0.7220 C   0  0  0  0  0  0  0  0  0  0  0  0
   -0.4590   14.1120    1.3380 C   0  0  0  0  0  0  0  0  0  0  0  0
   -2.5840   14.8390   -0.1590 N   0  0  0  0  0  0  0  0  0  0  0  0
   -1.5670   14.5490    1.9480 N   0  0  0  0  0  0  0  0  0  0  0  0
   -2.5910   14.8960    1.1670 C   0  0  0  0  0  0  0  0  0  0  0  0
   -3.7270   15.3380    1.7920 N   0  0  0  0  0  0  0  0  0  0  0  0
   -4.8230   15.3740    0.8630 C   0  0  0  0  0  0  0  0  0  0  0  0
  1  2  1  0
  2  3  2  0
  2  4  1  0
  4  5  1  0
  4  6  1  0
  5  7  1  0
  6  8  1  0
  7  9  1  0
  8  9  1  0
  9 10  1  0
 10 11  1  0
 10 12  2  3
 12 13  1  0
 13 14  1  0
 14 15  2  0
 14 16  1  0
 15 17  1  0
 16 18  2  0
 17 19  2  0
 18 19  1  0
 19 20  1  0
 20 21  1  0
M  END
