diamond-x0711_0_A-diamond-x0574_0_A
     RDKit          3D

 20 21  0  0  0  0  0  0  0  0999 V2000
   -1.6230   15.4360   -2.7280 N   0  0  0  0  0  0  0  0  0  0  0  0
   -0.6960   14.1290   -3.2690 S   0  0  0  0  0  0  0  0  0  0  0  0
   -1.8960   13.0130   -3.9510 C   0  0  0  0  0  0  0  0  0  0  0  0
   -2.8050   15.4550   -1.8030 C   0  0  1  0  0  0  0  0  0  0  0  0
    0.0620   14.6740   -4.3710 O   0  0  0  0  0  0  0  0  0  0  0  0
   -0.0010   13.4690   -2.1910 O   0  0  0  0  0  0  0  0  0  0  0  0
   -4.0670   15.1810   -2.5920 C   0  0  0  0  0  0  0  0  0  0  0  0
   -2.7120   14.6440   -0.4600 C   0  0  1  0  0  0  0  0  0  0  0  0
   -5.2150   14.9120   -1.9590 C   0  0  0  0  0  0  0  0  0  0  0  0
   -4.0270   13.9400   -0.0770 C   0  0  0  0  0  0  0  0  0  0  0  0
   -1.2120   13.5960   -0.3690 S   0  0  0  0  0  0  0  0  0  0  0  0
   -2.4450   15.6020    0.7000 C   0  0  0  0  0  0  0  0  0  0  0  0
   -5.1970   14.8650   -0.4580 C   0  0  2  0  0  0  0  0  0  0  0  0
   -1.7860   14.8500    1.7400 N   0  0  0  0  0  0  0  0  0  0  0  0
   -0.6160   14.4460    1.0670 C   0  0  1  0  0  0  0  0  0  0  0  0
   -6.5470   14.4710    0.1690 C   0  0  0  0  0  0  0  0  0  0  0  0
    0.0540   13.5650    1.9350 N   0  0  0  0  0  0  0  0  0  0  0  0
   -6.4450   14.0550    1.4830 N   0  0  0  0  0  0  0  0  0  0  0  0
   -7.6190   14.5190   -0.4250 O   0  0  0  0  0  0  0  0  0  0  0  0
   -7.2090   14.6750    2.5350 C   0  0  0  0  0  0  0  0  0  0  0  0
  2  1  1  0
  2  3  1  0
  4  1  1  6
  2  5  2  0
  2  6  2  0
  4  7  1  0
  4  8  1  0
  7  9  2  0
  8 10  1  1
  8 11  1  0
  8 12  1  0
  9 13  1  0
 10 13  1  0
 12 14  1  0
 11 15  1  0
 14 15  1  0
 13 16  1  6
 15 17  1  1
 16 18  1  0
 16 19  2  0
 18 20  1  0
M  END
