diamond-x0950_0_A-diamond-x0926_0_A
     RDKit          3D

 16 16  0  0  0  0  0  0  0  0999 V2000
    2.8440   12.9240   -3.8200 C   0  0  0  0  0  0  0  0  0  0  0  0
    1.3220   12.8550   -3.8630 C   0  0  1  0  0  0  0  0  0  0  0  0
    0.9490   12.3670   -5.1560 O   0  0  0  0  0  0  0  0  0  0  0  0
    0.7320   11.9610   -2.7550 C   0  0  0  0  0  0  0  0  0  0  0  0
    0.3020   10.8340   -2.9910 O   0  0  0  0  0  0  0  0  0  0  0  0
    0.7310   12.5250   -1.4960 O   0  0  0  0  0  0  0  0  0  0  0  0
    0.5480   13.9480   -1.3710 C   0  0  0  0  0  0  0  0  0  0  0  0
   -0.1910   14.3230   -0.0760 C   0  0  0  0  0  0  0  0  0  0  0  0
   -1.7070   14.0910   -0.1720 C   0  0  0  0  0  0  0  0  0  0  0  0
   -2.5630   15.3740   -0.0940 C   0  0  1  0  0  0  0  0  0  0  0  0
   -3.2390   15.6250   -1.3860 N   0  0  0  0  0  0  0  0  0  0  0  0
   -3.5200   15.3440    1.0670 C   0  0  0  0  0  0  0  0  0  0  0  0
   -4.8450   15.2470    0.9310 C   0  0  0  0  0  0  0  0  0  0  0  0
   -4.5900   15.1920   -1.4820 N   0  0  0  0  0  0  0  0  0  0  0  0
   -5.4540   15.1620   -0.4110 C   0  0  0  0  0  0  0  0  0  0  0  0
   -6.6690   15.0610   -0.5430 O   0  0  0  0  0  0  0  0  0  0  0  0
  2  1  1  6
  2  3  1  0
  2  4  1  0
  4  5  2  0
  4  6  1  0
  6  7  1  0
  7  8  1  0
  8  9  1  0
 10  9  1  6
 10 11  1  0
 10 12  1  0
 12 13  2  0
 11 14  1  0
 13 15  1  0
 14 15  1  0
 15 16  2  0
M  END
