diamond-x0969_0_A-mac-x0381
     RDKit          3D

 22 25  0  0  0  0  0  0  0  0999 V2000
   -6.8880   14.3970    2.5090 N   0  0  0  0  0  0  0  0  0  0  0  0
   -7.9150   14.5950    3.3280 C   0  0  0  0  0  0  0  0  0  0  0  0
   -7.6790   14.2020    4.6200 N   0  0  0  0  0  0  0  0  0  0  0  0
   -6.7870   14.6280    1.1630 C   0  0  0  0  0  0  0  0  0  0  0  0
   -7.7160   14.6630    0.2270 N   0  0  0  0  0  0  0  0  0  0  0  0
   -5.5460   14.8700    0.5350 N   0  0  0  0  0  0  0  0  0  0  0  0
   -9.2850   15.1520    3.0740 C   0  0  0  0  0  0  0  0  0  0  0  0
   -7.1320   14.9070   -0.9960 N   0  0  0  0  0  0  0  0  0  0  0  0
   -5.8420   15.0230   -0.8100 C   0  0  0  0  0  0  0  0  0  0  0  0
   -4.2320   14.9550    1.0210 C   0  0  0  0  0  0  0  0  0  0  0  0
   -9.5270   15.9300    1.9450 C   0  0  0  0  0  0  0  0  0  0  0  0
  -10.3280   14.8900    3.9770 C   0  0  0  0  0  0  0  0  0  0  0  0
   -4.7660   15.2560   -1.7110 C   0  0  0  0  0  0  0  0  0  0  0  0
   -3.2180   15.1660    0.1710 C   0  0  0  0  0  0  0  0  0  0  0  0
  -10.7960   16.4570    1.6940 C   0  0  0  0  0  0  0  0  0  0  0  0
  -11.6070   15.4090    3.7330 C   0  0  0  0  0  0  0  0  0  0  0  0
   -3.5100   15.3140   -1.2450 C   0  0  0  0  0  0  0  0  0  0  0  0
  -11.8560   16.1930    2.5940 C   0  0  0  0  0  0  0  0  0  0  0  0
  -11.0280   17.2420    0.5580 C   0  0  0  0  0  0  0  0  0  0  0  0
  -13.1260   16.7230    2.3190 C   0  0  0  0  0  0  0  0  0  0  0  0
  -12.2940   17.7630    0.3020 C   0  0  0  0  0  0  0  0  0  0  0  0
  -13.3440   17.5020    1.1800 C   0  0  0  0  0  0  0  0  0  0  0  0
  1  2  2  3
  2  3  1  0
  1  4  1  0
  4  5  2  0
  4  6  1  0
  2  7  1  0
  5  8  1  0
  6  9  1  0
  8  9  2  0
  6 10  1  0
  7 11  2  0
  7 12  1  0
  9 13  1  0
 10 14  2  0
 11 15  1  0
 12 16  2  0
 13 17  2  0
 14 17  1  0
 15 18  2  0
 16 18  1  0
 15 19  1  0
 18 20  1  0
 19 21  2  0
 20 22  2  0
 21 22  1  0
M  END
