diamond-x0852_0_B-diamond-x0574_0_A
     RDKit          3D

 22 24  0  0  0  0  0  0  0  0999 V2000
   -9.6140   17.2700    7.2500 N   0  0  0  0  0  0  0  0  0  0  0  0
   -9.4410   16.8640    6.1720 C   0  0  0  0  0  0  0  0  0  0  0  0
   -9.2630   16.4550    4.8040 C   0  0  0  0  0  0  0  0  0  0  0  0
   -8.1970   15.6310    4.3810 C   0  0  0  0  0  0  0  0  0  0  0  0
  -10.1930   16.9080    3.8650 C   0  0  0  0  0  0  0  0  0  0  0  0
   -7.3140   15.2060    5.3390 O   0  0  0  0  0  0  0  0  0  0  0  0
   -8.0680   15.2830    3.0060 C   0  0  0  0  0  0  0  0  0  0  0  0
  -10.0650   16.5460    2.5310 C   0  0  0  0  0  0  0  0  0  0  0  0
  -11.2990   17.1430    1.2360 Br  0  0  0  0  0  0  0  0  0  0  0  0
   -6.9670   14.4550    2.3800 C   0  0  0  0  0  0  0  0  0  0  0  0
   -9.0230   15.7480    2.1100 C   0  0  0  0  0  0  0  0  0  0  0  0
   -6.7560   14.8250    0.9850 O   0  0  0  0  0  0  0  0  0  0  0  0
   -5.4320   14.8150    0.5960 C   0  0  0  0  0  0  0  0  0  0  0  0
   -4.4290   14.5560    1.4870 C   0  0  0  0  0  0  0  0  0  0  0  0
   -5.0930   15.0710   -0.7420 C   0  0  0  0  0  0  0  0  0  0  0  0
   -3.1000   14.5250    1.1020 C   0  0  0  0  0  0  0  0  0  0  0  0
   -3.7450   15.0490   -1.1710 C   0  0  0  0  0  0  0  0  0  0  0  0
   -2.7490   14.7600   -0.2110 C   0  0  0  0  0  0  0  0  0  0  0  0
   -2.0820   14.2640    1.9590 N   0  0  0  0  0  0  0  0  0  0  0  0
   -0.9650   14.2700    1.3520 C   0  0  0  0  0  0  0  0  0  0  0  0
   -1.0240   14.6200   -0.3270 S   0  0  0  0  0  0  0  0  0  0  0  0
    0.1290   14.0100    2.0410 N   0  0  0  0  0  0  0  0  0  0  0  0
  1  2  3  0
  2  3  1  0
  3  4  2  0
  3  5  1  0
  4  6  1  0
  4  7  1  0
  5  8  2  0
  8  9  1  0
  7 10  1  0
  7 11  2  0
  8 11  1  0
 10 12  1  0
 12 13  1  0
 13 14  2  0
 13 15  1  0
 14 16  1  0
 15 17  2  0
 16 18  2  0
 17 18  1  0
 16 19  1  0
 19 20  2  0
 18 21  1  0
 20 21  1  0
 20 22  1  0
M  END
