diamond-x0950_1_A-mac-x0148
     RDKit          3D

 24 27  0  0  0  0  0  0  0  0999 V2000
    1.4090   14.0390   -4.7790 C   0  0  0  0  0  0  0  0  0  0  0  0
    1.5750   12.5910   -4.3350 C   0  0  2  0  0  0  0  0  0  0  0  0
    0.9570   11.7550   -5.3560 O   0  0  0  0  0  0  0  0  0  0  0  0
    0.9130   12.2440   -2.9610 C   0  0  0  0  0  0  0  0  0  0  0  0
    0.8940   10.8250   -2.7970 O   0  0  0  0  0  0  0  0  0  0  0  0
    1.7390   12.7400   -1.9270 O   0  0  0  0  0  0  0  0  0  0  0  0
   -0.5610   12.6640   -2.6880 C   0  0  2  0  0  0  0  0  0  0  0  0
   -1.5170   11.9480   -3.5990 C   0  0  0  0  0  0  0  0  0  0  0  0
   -0.9270   14.1020   -2.5950 N   0  0  0  0  0  0  0  0  0  0  0  0
   -1.4540   14.7690   -3.8440 C   0  0  2  0  0  0  0  0  0  0  0  0
   -1.2380   12.3840   -5.0070 C   0  0  0  0  0  0  0  0  0  0  0  0
   -1.2040   14.4620   -1.2590 C   0  0  0  0  0  0  0  0  0  0  0  0
   -2.9410   15.1300   -3.8250 C   0  0  0  0  0  0  0  0  0  0  0  0
   -1.4330   13.8720   -5.1320 C   0  0  1  0  0  0  0  0  0  0  0  0
   -0.1660   14.4900   -0.3490 N   0  0  0  0  0  0  0  0  0  0  0  0
   -2.4120   14.7770   -0.7420 C   0  0  0  0  0  0  0  0  0  0  0  0
   -2.7850   14.0960   -5.7950 C   0  0  0  0  0  0  0  0  0  0  0  0
   -3.3280   15.2540   -5.1940 O   0  0  0  0  0  0  0  0  0  0  0  0
   -0.3640   14.7020    0.9850 C   0  0  0  0  0  0  0  0  0  0  0  0
   -2.5250   15.0730    0.7070 C   0  0  0  0  0  0  0  0  0  0  0  0
   -3.7570   14.9320   -1.1940 C   0  0  0  0  0  0  0  0  0  0  0  0
   -1.4700   14.9820    1.5570 N   0  0  0  0  0  0  0  0  0  0  0  0
   -3.7270   15.4100    1.0610 N   0  0  0  0  0  0  0  0  0  0  0  0
   -4.4530   15.3100   -0.1130 C   0  0  0  0  0  0  0  0  0  0  0  0
  2  1  1  6
  2  3  1  0
  2  4  1  0
  4  5  1  0
  4  6  1  0
  7  4  1  6
  7  8  1  0
  7  9  1  0
  9 10  1  0
  8 11  1  0
  9 12  1  0
 10 13  1  1
 10 14  1  0
 14 11  1  1
 12 15  1  0
 12 16  2  0
 14 17  1  0
 13 18  1  0
 17 18  1  0
 15 19  1  0
 16 20  1  0
 16 21  1  0
 19 22  2  0
 20 22  1  0
 20 23  2  0
 21 24  2  0
 23 24  1  0
M  END
