diamond-x0900_1_A-mac-x0179
     RDKit          3D

 16 17  0  0  0  0  0  0  0  0999 V2000
   -0.5700   10.2860   -9.4260 O   0  0  0  0  0  0  0  0  0  0  0  0
   -0.9400    9.7250   -8.4030 C   0  0  0  0  0  0  0  0  0  0  0  0
   -0.5130    9.9940   -6.9930 C   0  0  1  0  0  0  0  0  0  0  0  0
   -1.9310    8.6020   -8.3390 C   0  0  0  0  0  0  0  0  0  0  0  0
   -1.4340    7.8220   -7.1080 C   0  0  0  0  0  0  0  0  0  0  0  0
   -0.1820    8.5540   -6.6260 C   0  0  0  0  0  0  0  0  0  0  0  0
    0.5240   11.0660   -6.7020 C   0  0  0  0  0  0  0  0  0  0  0  0
   -1.7280   10.4950   -6.2350 C   0  0  0  0  0  0  0  0  0  0  0  0
    1.5620   11.2510   -7.2910 O   0  0  0  0  0  0  0  0  0  0  0  0
    0.0900   11.7940   -5.6210 N   0  0  0  0  0  0  0  0  0  0  0  0
   -1.1160   11.3530   -5.1790 C   0  0  0  0  0  0  0  0  0  0  0  0
    0.9570   12.6100   -4.7920 C   0  0  0  0  0  0  0  0  0  0  0  0
   -1.6340   11.6010   -4.1010 O   0  0  0  0  0  0  0  0  0  0  0  0
    0.8700   12.0900   -3.3540 C   0  0  0  0  0  0  0  0  0  0  0  0
    1.3310   12.9610   -2.4230 O   0  0  0  0  0  0  0  0  0  0  0  0
    0.4320   10.9930   -3.0430 O   0  0  0  0  0  0  0  0  0  0  0  0
  1  2  2  0
  3  2  1  0
  2  4  1  0
  4  5  1  0
  3  6  1  1
  5  6  1  0
  3  7  1  0
  3  8  1  0
  7  9  2  0
  7 10  1  0
  8 11  1  0
 10 11  1  0
 10 12  1  0
 11 13  2  0
 12 14  1  0
 14 15  1  0
 14 16  2  0
M  END
