diamond-x0290_0_A-mac-x0123
     RDKit          3D

 25 28  0  0  0  0  0  0  0  0999 V2000
   -7.2890   14.9140    1.6640 N   0  0  0  0  0  0  0  0  0  0  0  0
   -8.5180   15.2720    2.3670 C   0  0  0  0  0  0  0  0  0  0  0  0
   -6.0930   14.8450    2.5640 C   0  0  0  0  0  0  0  0  0  0  0  0
   -4.7270   15.1900    1.9040 C   0  0  0  0  0  0  0  0  0  0  0  0
   -4.2580   16.3110    1.9890 O   0  0  0  0  0  0  0  0  0  0  0  0
   -4.0720   14.2270    1.1600 N   0  0  0  0  0  0  0  0  0  0  0  0
   -2.6790   14.3540    0.8230 C   0  0  0  0  0  0  0  0  0  0  0  0
   -5.0100   13.9900    0.2000 C   0  0  0  0  0  0  0  0  0  0  0  0
   -1.7240   14.4280    1.7830 N   0  0  0  0  0  0  0  0  0  0  0  0
   -2.3240   14.3960   -0.5240 C   0  0  0  0  0  0  0  0  0  0  0  0
   -4.8100   14.4240   -1.1210 N   0  0  0  0  0  0  0  0  0  0  0  0
   -6.1450   13.3760    0.5200 C   0  0  0  0  0  0  0  0  0  0  0  0
   -0.4370   14.5370    1.3870 C   0  0  0  0  0  0  0  0  0  0  0  0
   -0.9960   14.5170   -0.9140 C   0  0  0  0  0  0  0  0  0  0  0  0
   -5.8030   14.2350   -2.0890 C   0  0  0  0  0  0  0  0  0  0  0  0
   -7.1400   13.2460   -0.5650 C   0  0  0  0  0  0  0  0  0  0  0  0
   -6.7120   12.7670    1.7700 C   0  0  0  0  0  0  0  0  0  0  0  0
   -3.7420   15.0460   -1.6890 N   0  0  0  0  0  0  0  0  0  0  0  0
   -0.6400   14.5690   -2.3690 C   0  0  0  0  0  0  0  0  0  0  0  0
   -0.0260   14.5890    0.0680 C   0  0  0  0  0  0  0  0  0  0  0  0
   -6.9990   13.6370   -1.7950 N   0  0  0  0  0  0  0  0  0  0  0  0
   -8.3900   12.5990   -0.0500 C   0  0  0  0  0  0  0  0  0  0  0  0
   -8.2040   12.6030    1.4720 C   0  0  0  0  0  0  0  0  0  0  0  0
   -5.3710   14.7140   -3.2370 N   0  0  0  0  0  0  0  0  0  0  0  0
   -4.1330   15.1880   -2.9440 C   0  0  0  0  0  0  0  0  0  0  0  0
  1  2  1  0
  1  3  1  0
  3  4  1  0
  4  5  2  0
  4  6  1  0
  6  7  1  0
  6  8  1  0
  7  9  2  0
  7 10  1  0
  8 11  1  0
  8 12  2  0
  9 13  1  0
 10 14  2  0
 11 15  1  0
 12 16  1  0
 12 17  1  0
 11 18  1  0
 14 19  1  0
 13 20  2  0
 14 20  1  0
 15 21  1  0
 16 21  2  0
 16 22  1  0
 17 23  1  0
 22 23  1  0
 15 24  2  0
 18 25  2  0
 24 25  1  0
M  END
