diamond-x0967_0_A-mac-x0568
     RDKit          3D

 14 15  0  0  0  0  0  0  0  0999 V2000
   -8.7590   14.6290   -0.2980 C   0  0  0  0  0  0  0  0  0  0  0  0
   -7.2900   14.6830   -0.0060 C   0  0  0  0  0  0  0  0  0  0  0  0
   -6.2640   14.9730   -0.9870 N   0  0  0  0  0  0  0  0  0  0  0  0
   -6.9550   14.4670    1.2590 C   0  0  0  0  0  0  0  0  0  0  0  0
   -5.3920   14.0680   -1.6320 C   0  0  0  0  0  0  0  0  0  0  0  0
   -5.1650   15.7240   -0.4840 C   0  0  1  0  0  0  0  0  0  0  0  0
   -5.6020   14.4960    1.6120 C   0  0  0  0  0  0  0  0  0  0  0  0
   -5.3230   13.7940   -2.8190 O   0  0  0  0  0  0  0  0  0  0  0  0
   -4.4260   13.4930   -0.8340 N   0  0  0  0  0  0  0  0  0  0  0  0
   -4.7380   15.0750    0.8100 C   0  0  0  0  0  0  0  0  0  0  0  0
   -4.1850   15.4990   -1.5720 N   0  0  0  0  0  0  0  0  0  0  0  0
   -2.9970   15.1850   -1.2240 C   0  0  0  0  0  0  0  0  0  0  0  0
   -3.3490   15.0350    1.1360 C   0  0  0  0  0  0  0  0  0  0  0  0
   -2.4650   15.0630    0.1520 C   0  0  0  0  0  0  0  0  0  0  0  0
  1  2  1  0
  2  3  1  0
  2  4  2  0
  3  5  1  0
  3  6  1  0
  4  7  1  0
  5  8  2  0
  5  9  1  0
  6 10  1  0
  7 10  2  0
  6 11  1  6
 11 12  2  0
 10 13  1  0
 12 14  1  0
 13 14  2  0
M  END
