diamond-x0742_0_A-diamond-x0852_0_B
     RDKit          3D

 29 32  0  0  0  0  0  0  0  0999 V2000
   -5.4610   12.1970   -0.6150 C   0  0  0  0  0  0  0  0  0  0  0  0
   -6.3970   11.4950    0.3660 C   0  0  0  0  0  0  0  0  0  0  0  0
   -7.8500   11.9720    0.4120 C   0  0  0  0  0  0  0  0  0  0  0  0
   -5.1180   11.6520   -1.6680 O   0  0  0  0  0  0  0  0  0  0  0  0
   -4.9530   13.5960   -0.2460 C   0  0  2  0  0  0  0  0  0  0  0  0
   -4.6620   13.5600    1.2620 C   0  0  0  0  0  0  0  0  0  0  0  0
   -6.0370   14.6530   -0.5320 C   0  0  0  0  0  0  0  0  0  0  0  0
   -3.7230   14.0050   -1.1530 C   0  0  1  0  0  0  0  0  0  0  0  0
   -8.0180   13.4940    0.4380 C   0  0  0  0  0  0  0  0  0  0  0  0
   -4.1910   15.2450   -1.9290 C   0  0  0  0  0  0  0  0  0  0  0  0
   -2.4160   14.1400   -0.3740 C   0  0  0  0  0  0  0  0  0  0  0  0
   -3.7740   14.7170    1.6360 C   0  0  0  0  0  0  0  0  0  0  0  0
   -5.3420   15.8310   -1.1410 C   0  0  0  0  0  0  0  0  0  0  0  0
   -7.9640   14.0590    1.8650 C   0  0  0  0  0  0  0  0  0  0  0  0
   -1.1440   13.9440   -0.9210 C   0  0  0  0  0  0  0  0  0  0  0  0
   -2.4630   14.4830    0.9840 C   0  0  0  0  0  0  0  0  0  0  0  0
   -1.3960   14.6250    1.7700 N   0  0  0  0  0  0  0  0  0  0  0  0
   -0.0170   14.0930   -0.1130 C   0  0  0  0  0  0  0  0  0  0  0  0
   -8.9280   15.1930    2.1580 C   0  0  0  0  0  0  0  0  0  0  0  0
   -0.2080   14.4290    1.2120 C   0  0  0  0  0  0  0  0  0  0  0  0
   -8.2410   14.9200    3.4030 C   0  0  0  0  0  0  0  0  0  0  0  0
   -9.7730   16.2650    2.6310 C   0  0  0  0  0  0  0  0  0  0  0  0
  -10.9330   17.0250    1.3270 Br  0  0  0  0  0  0  0  0  0  0  0  0
   -8.3320   15.4800    4.6800 C   0  0  0  0  0  0  0  0  0  0  0  0
   -9.9280   16.8830    3.8810 C   0  0  0  0  0  0  0  0  0  0  0  0
   -7.5160   14.9690    5.6490 O   0  0  0  0  0  0  0  0  0  0  0  0
   -9.1980   16.4920    4.9480 C   0  0  0  0  0  0  0  0  0  0  0  0
   -9.3730   17.1240    6.2230 C   0  0  0  0  0  0  0  0  0  0  0  0
   -9.5950   17.6260    7.2510 N   0  0  0  0  0  0  0  0  0  0  0  0
  1  2  1  0
  2  3  1  0
  1  4  2  0
  5  1  1  6
  5  6  1  0
  5  7  1  0
  5  8  1  0
  3  9  1  0
  8 10  1  1
  8 11  1  0
  6 12  1  0
  7 13  1  0
 10 13  1  0
  9 14  1  0
 11 15  1  0
 11 16  2  0
 12 16  1  0
 16 17  1  0
 15 18  2  0
 14 19  1  0
 17 20  2  0
 18 20  1  0
 19 21  2  0
 19 22  1  0
 22 23  1  0
 21 24  1  0
 22 25  2  0
 24 26  1  0
 24 27  2  0
 25 27  1  0
 27 28  1  0
 28 29  3  0
M  END
