diamond-x0864_0_A-mac-x0397
     RDKit          3D

 26 28  0  0  0  0  0  0  0  0999 V2000
    1.3380   12.1560   -6.7320 O   0  0  0  0  0  0  0  0  0  0  0  0
    0.3080   11.6020   -6.3660 C   0  0  0  0  0  0  0  0  0  0  0  0
   -0.1600   11.7130   -5.0600 N   0  0  0  0  0  0  0  0  0  0  0  0
   -0.4500   10.7350   -7.3000 C   0  0  0  0  0  0  0  0  0  0  0  0
    0.8650   12.1000   -4.0770 C   0  0  0  0  0  0  0  0  0  0  0  0
   -1.3020   11.0440   -4.6520 C   0  0  0  0  0  0  0  0  0  0  0  0
   -1.5350   10.0810   -6.8570 C   0  0  0  0  0  0  0  0  0  0  0  0
    0.6270   11.5720   -2.6480 C   0  0  0  0  0  0  0  0  0  0  0  0
   -2.4990    8.9140   -7.9440 Br  0  0  0  0  0  0  0  0  0  0  0  0
   -1.9830   10.2520   -5.4930 C   0  0  0  0  0  0  0  0  0  0  0  0
    0.7240   10.2420   -2.4690 O   0  0  0  0  0  0  0  0  0  0  0  0
    0.3630   12.3500   -1.6590 N   0  0  0  0  0  0  0  0  0  0  0  0
    0.2640   13.7330   -2.0640 C   0  0  0  0  0  0  0  0  0  0  0  0
   -0.8100   13.7130   -3.1500 C   0  0  0  0  0  0  0  0  0  0  0  0
   -1.6790   14.9370   -3.1860 C   0  0  0  0  0  0  0  0  0  0  0  0
   -2.8050   14.9390   -2.1680 C   0  0  0  0  0  0  0  0  0  0  0  0
   -4.0990   15.1080   -2.6440 C   0  0  0  0  0  0  0  0  0  0  0  0
   -2.5860   14.7770   -0.7750 C   0  0  0  0  0  0  0  0  0  0  0  0
   -3.7060   14.7940    0.0880 C   0  0  0  0  0  0  0  0  0  0  0  0
   -5.1660   15.1150   -1.7610 C   0  0  0  0  0  0  0  0  0  0  0  0
   -6.7810   15.3110   -2.2680 Cl  0  0  0  0  0  0  0  0  0  0  0  0
   -4.9990   14.9610   -0.3950 C   0  0  0  0  0  0  0  0  0  0  0  0
   -3.7980   14.6310    1.7940 S   0  0  0  0  0  0  0  0  0  0  0  0
   -5.5110   14.7970    1.7320 C   0  0  0  0  0  0  0  0  0  0  0  0
   -5.9990   14.9550    0.5490 N   0  0  0  0  0  0  0  0  0  0  0  0
   -6.3270   14.7770    2.8020 N   0  0  0  0  0  0  0  0  0  0  0  0
  1  2  2  0
  2  3  1  0
  2  4  1  0
  3  5  1  0
  3  6  1  0
  4  7  2  0
  5  8  1  0
  7  9  1  0
  6 10  2  0
  7 10  1  0
  8 11  1  0
  8 12  2  3
 12 13  1  0
 13 14  1  0
 14 15  1  0
 15 16  1  0
 16 17  2  0
 16 18  1  0
 18 19  2  0
 17 20  1  0
 20 21  1  0
 19 22  1  0
 20 22  2  0
 19 23  1  0
 23 24  1  0
 22 25  1  0
 24 25  2  0
 24 26  1  0
M  END
