diamond-x0685_1_A-mac-x0348
     RDKit          3D

 24 26  0  0  0  0  0  0  0  0999 V2000
   -0.9620   11.0460   -4.9650 N   0  0  0  0  0  0  0  0  0  0  0  0
   -0.6140   12.4810   -4.9450 C   0  0  0  0  0  0  0  0  0  0  0  0
   -0.3670   13.1090   -3.5490 C   0  0  1  0  0  0  0  0  0  0  0  0
   -0.5800   10.4650   -6.2600 C   0  0  0  0  0  0  0  0  0  0  0  0
   -0.6070    8.9420   -6.3400 C   0  0  0  0  0  0  0  0  0  0  0  0
   -1.5010   11.0280   -7.3550 C   0  0  0  0  0  0  0  0  0  0  0  0
    0.6090   12.0380   -2.4740 S   0  0  0  0  0  0  0  0  0  0  0  0
    0.4610   14.4190   -3.4890 C   0  0  0  0  0  0  0  0  0  0  0  0
   -0.0700    8.5000   -7.7050 C   0  0  0  0  0  0  0  0  0  0  0  0
   -1.0640   10.6000   -8.7610 C   0  0  0  0  0  0  0  0  0  0  0  0
    2.1290   12.2250   -2.9420 O   0  0  0  0  0  0  0  0  0  0  0  0
    0.1450   10.5030   -2.5200 O   0  0  0  0  0  0  0  0  0  0  0  0
    0.3960   12.6430   -1.0160 O   0  0  0  0  0  0  0  0  0  0  0  0
   -0.8520    9.0910   -8.8850 C   0  0  0  0  0  0  0  0  0  0  0  0
   -0.0080   15.5510   -4.3260 C   0  0  0  0  0  0  0  0  0  0  0  0
    0.7320   16.6260   -4.7250 C   0  0  0  0  0  0  0  0  0  0  0  0
   -1.2970   15.7110   -4.8580 C   0  0  0  0  0  0  0  0  0  0  0  0
   -0.0480   17.4350   -5.4910 N   0  0  0  0  0  0  0  0  0  0  0  0
   -1.3100   16.9010   -5.5860 C   0  0  0  0  0  0  0  0  0  0  0  0
   -2.4470   14.9220   -4.7690 C   0  0  0  0  0  0  0  0  0  0  0  0
    0.4200   18.6560   -6.0930 C   0  0  0  0  0  0  0  0  0  0  0  0
   -3.5880   15.3270   -5.4060 C   0  0  0  0  0  0  0  0  0  0  0  0
   -2.4650   17.3250   -6.2340 C   0  0  0  0  0  0  0  0  0  0  0  0
   -3.5890   16.4950   -6.1160 C   0  0  0  0  0  0  0  0  0  0  0  0
  1  2  1  0
  3  2  1  6
  1  4  1  0
  4  5  1  0
  4  6  1  0
  3  7  1  0
  3  8  1  0
  5  9  1  0
  6 10  1  0
  7 11  1  0
  7 12  1  0
  7 13  1  0
  9 14  1  0
 10 14  1  0
  8 15  1  0
 15 16  2  0
 15 17  1  0
 16 18  1  0
 17 19  2  0
 18 19  1  0
 17 20  1  0
 18 21  1  0
 20 22  2  0
 19 23  1  0
 22 24  1  0
 23 24  2  0
M  END
