diamond-x0910_1_A-mac-x0326
     RDKit          3D

 20 22  0  0  0  0  0  0  0  0999 V2000
   -8.6520   14.6630    0.1970 N   0  0  0  0  0  0  0  0  0  0  0  0
   -7.3370   14.7400    0.1870 C   0  0  0  0  0  0  0  0  0  0  0  0
   -6.5400   14.7620   -0.8820 N   0  0  0  0  0  0  0  0  0  0  0  0
   -6.7460   14.7990    1.3930 N   0  0  0  0  0  0  0  0  0  0  0  0
   -5.3410   14.8260   -0.2690 N   0  0  0  0  0  0  0  0  0  0  0  0
   -5.5020   14.8560    1.0810 C   0  0  0  0  0  0  0  0  0  0  0  0
   -4.0580   14.8300   -0.8000 C   0  0  0  0  0  0  0  0  0  0  0  0
   -3.6590   14.8130   -2.1540 C   0  0  0  0  0  0  0  0  0  0  0  0
   -3.1410   14.8250    0.2310 C   0  0  0  0  0  0  0  0  0  0  0  0
   -2.2580   14.7680   -2.4100 C   0  0  0  0  0  0  0  0  0  0  0  0
   -1.8000   14.7890    0.0010 C   0  0  0  0  0  0  0  0  0  0  0  0
   -1.6190   14.7270   -3.6410 N   0  0  0  0  0  0  0  0  0  0  0  0
   -1.3790   14.7550   -1.3150 C   0  0  0  0  0  0  0  0  0  0  0  0
   -0.3060   14.6740   -3.4610 C   0  0  0  0  0  0  0  0  0  0  0  0
    0.2420   14.6910   -1.8420 S   0  0  0  0  0  0  0  0  0  0  0  0
    0.7070   14.5960   -4.5620 C   0  0  0  0  0  0  0  0  0  0  0  0
    1.2130   13.1660   -4.7380 C   0  0  0  0  0  0  0  0  0  0  0  0
    1.1050   12.3230   -3.4910 C   0  0  0  0  0  0  0  0  0  0  0  0
    0.2810   11.2670   -3.6200 O   0  0  0  0  0  0  0  0  0  0  0  0
    1.6820   12.5230   -2.4350 O   0  0  0  0  0  0  0  0  0  0  0  0
  1  2  1  0
  2  3  2  0
  2  4  1  0
  3  5  1  0
  4  6  2  0
  5  6  1  0
  5  7  1  0
  7  8  2  0
  7  9  1  0
  8 10  1  0
  9 11  2  0
 10 12  1  0
 10 13  2  0
 11 13  1  0
 12 14  2  0
 13 15  1  0
 14 15  1  0
 14 16  1  0
 16 17  1  0
 17 18  1  0
 18 19  1  0
 18 20  2  0
M  END
