diamond-x0805_0_A-mac-x0319
     RDKit          3D

 19 20  0  0  0  0  0  0  0  0999 V2000
   -4.3660   15.3590    0.7040 C   0  0  0  0  0  0  0  0  0  0  0  0
   -3.1950   15.5010   -0.0860 O   0  0  0  0  0  0  0  0  0  0  0  0
   -3.0510   14.7260   -1.2060 C   0  0  0  0  0  0  0  0  0  0  0  0
   -4.1440   13.9300   -1.5460 C   0  0  0  0  0  0  0  0  0  0  0  0
   -1.9070   14.6860   -2.0070 C   0  0  0  0  0  0  0  0  0  0  0  0
   -4.0940   13.1050   -2.6710 C   0  0  0  0  0  0  0  0  0  0  0  0
   -1.8350   13.8650   -3.1470 C   0  0  0  0  0  0  0  0  0  0  0  0
   -2.9440   13.0760   -3.4650 C   0  0  0  0  0  0  0  0  0  0  0  0
   -0.5570   13.8800   -3.9810 C   0  0  2  0  0  0  0  0  0  0  0  0
    0.6650   13.3240   -3.2540 C   0  0  1  0  0  0  0  0  0  0  0  0
   -0.1380   15.2550   -4.4980 C   0  0  0  0  0  0  0  0  0  0  0  0
    0.3840   12.1440   -2.3780 C   0  0  0  0  0  0  0  0  0  0  0  0
    1.8310   13.3050   -4.2240 C   0  0  1  0  0  0  0  0  0  0  0  0
    1.2850   15.6250   -4.0980 C   0  0  2  0  0  0  0  0  0  0  0  0
    0.1890   10.9700   -3.0060 O   0  0  0  0  0  0  0  0  0  0  0  0
    0.3230   12.2220   -1.1720 O   0  0  0  0  0  0  0  0  0  0  0  0
    1.6050   12.5830   -5.5320 C   0  0  0  0  0  0  0  0  0  0  0  0
    1.5660   16.9110   -4.6000 O   0  0  0  0  0  0  0  0  0  0  0  0
    2.2510   14.6440   -4.4800 O   0  0  0  0  0  0  0  0  0  0  0  0
  1  2  1  0
  2  3  1  0
  3  4  2  0
  3  5  1  0
  4  6  1  0
  5  7  2  0
  6  8  2  0
  7  8  1  0
  9  7  1  1
  9 10  1  0
  9 11  1  0
 10 12  1  6
 10 13  1  0
 11 14  1  0
 12 15  1  0
 12 16  2  0
 13 17  1  6
 14 18  1  6
 13 19  1  0
 14 19  1  0
M  END
