diamond-x0895_1_A-diamond-x0933_0_A
     RDKit          3D

  7  7  0  0  0  0  0  0  0  0999 V2000
   -1.6430   14.7650    1.5760 O   0  0  0  0  0  0  0  0  0  0  0  0
   -2.7080   14.7400    0.9630 C   0  0  0  0  0  0  0  0  0  0  0  0
   -2.8780   14.5900   -0.5420 C   0  0  0  0  0  0  0  0  0  0  0  0
   -3.9470   14.8300    1.5100 N   0  0  0  0  0  0  0  0  0  0  0  0
   -4.2390   15.0270   -0.6660 N   0  0  0  0  0  0  0  0  0  0  0  0
   -4.8820   14.9070    0.5360 C   0  0  0  0  0  0  0  0  0  0  0  0
   -6.0880   14.8690    0.6920 O   0  0  0  0  0  0  0  0  0  0  0  0
  1  2  2  0
  2  3  1  0
  2  4  1  0
  3  5  1  0
  4  6  1  0
  5  6  1  0
  6  7  2  0
M  END
