diamond-x0905_0_A-mac-x0213
     RDKit          3D

 22 24  0  0  0  0  0  0  0  0999 V2000
   -6.9810   14.9910   -0.7610 O   0  0  0  0  0  0  0  0  0  0  0  0
   -5.6450   15.1170   -0.5660 C   0  0  0  0  0  0  0  0  0  0  0  0
   -5.2810   15.0050    0.7160 N   0  0  0  0  0  0  0  0  0  0  0  0
   -4.7880   15.3330   -1.6230 C   0  0  0  0  0  0  0  0  0  0  0  0
   -3.9570   15.1150    0.9680 C   0  0  0  0  0  0  0  0  0  0  0  0
   -3.4280   15.4430   -1.3350 C   0  0  0  0  0  0  0  0  0  0  0  0
   -2.9860   15.3320   -0.0090 C   0  0  0  0  0  0  0  0  0  0  0  0
   -1.5270   15.4440    0.3650 C   0  0  0  0  0  0  0  0  0  0  0  0
   -0.7990   14.0980    0.3700 C   0  0  0  0  0  0  0  0  0  0  0  0
    0.3160   14.1120   -0.6660 C   0  0  0  0  0  0  0  0  0  0  0  0
    0.3920   12.8520   -1.3910 N   0  0  0  0  0  0  0  0  0  0  0  0
    0.1790   12.8500   -2.6550 C   0  0  0  0  0  0  0  0  0  0  0  0
    0.2190   11.7690   -3.4440 O   0  0  0  0  0  0  0  0  0  0  0  0
   -0.1640   14.1780   -3.3140 C   0  0  0  0  0  0  0  0  0  0  0  0
   -1.3660   14.1530   -4.2570 C   0  0  0  0  0  0  0  0  0  0  0  0
    0.9410   14.9120   -4.0870 C   0  0  0  0  0  0  0  0  0  0  0  0
   -1.2550   15.5650   -4.7560 C   0  0  0  0  0  0  0  0  0  0  0  0
    0.0760   16.0040   -4.6600 C   0  0  0  0  0  0  0  0  0  0  0  0
   -2.2490   16.3960   -5.2550 C   0  0  0  0  0  0  0  0  0  0  0  0
    0.4360   17.2800   -5.0580 C   0  0  0  0  0  0  0  0  0  0  0  0
   -1.8880   17.6850   -5.6600 C   0  0  0  0  0  0  0  0  0  0  0  0
   -0.5580   18.1230   -5.5620 C   0  0  0  0  0  0  0  0  0  0  0  0
  1  2  1  0
  2  3  2  0
  2  4  1  0
  3  5  1  0
  4  6  2  0
  5  7  2  0
  6  7  1  0
  7  8  1  0
  8  9  1  0
  9 10  1  0
 10 11  1  0
 11 12  2  3
 12 13  1  0
 12 14  1  0
 14 15  1  0
 14 16  1  0
 15 17  1  0
 16 18  1  0
 17 18  2  0
 17 19  1  0
 18 20  1  0
 19 21  2  0
 20 22  2  0
 21 22  1  0
M  END
