diamond-x1012_0_A-diamond-x0969_0_A
     RDKit          3D

 24 26  0  0  0  0  0  0  0  0999 V2000
   -0.4810   17.9400   -5.3490 N   0  0  0  0  0  0  0  0  0  0  0  0
   -1.2320   16.9780   -4.7620 C   0  0  0  0  0  0  0  0  0  0  0  0
   -2.3970   17.0890   -4.2780 N   0  0  0  0  0  0  0  0  0  0  0  0
   -0.5870   15.7550   -4.7190 N   0  0  0  0  0  0  0  0  0  0  0  0
   -2.9820   15.8900   -3.6790 C   0  0  0  0  0  0  0  0  0  0  0  0
   -1.2610   14.5050   -5.1360 C   0  0  0  0  0  0  0  0  0  0  0  0
    0.8770   15.6560   -4.6260 C   0  0  0  0  0  0  0  0  0  0  0  0
   -2.4100   15.6030   -2.2860 C   0  0  0  0  0  0  0  0  0  0  0  0
   -1.1310   13.4570   -4.0440 C   0  0  0  0  0  0  0  0  0  0  0  0
    1.2410   14.3350   -3.9460 C   0  0  0  0  0  0  0  0  0  0  0  0
    0.0500   13.7930   -3.1420 C   0  0  0  0  0  0  0  0  0  0  0  0
   -3.4980   15.3980   -1.2680 C   0  0  0  0  0  0  0  0  0  0  0  0
    0.3970   12.6200   -2.2550 C   0  0  0  0  0  0  0  0  0  0  0  0
   -4.7470   15.1160   -1.6790 C   0  0  0  0  0  0  0  0  0  0  0  0
   -3.1760   15.5050    0.1570 C   0  0  0  0  0  0  0  0  0  0  0  0
    0.4770   11.4270   -2.8840 O   0  0  0  0  0  0  0  0  0  0  0  0
    0.5810   12.6930   -1.0630 O   0  0  0  0  0  0  0  0  0  0  0  0
   -5.7710   14.9100   -0.7360 C   0  0  0  0  0  0  0  0  0  0  0  0
   -4.1550   15.3040    1.0600 C   0  0  0  0  0  0  0  0  0  0  0  0
   -7.0450   14.6250   -0.8770 N   0  0  0  0  0  0  0  0  0  0  0  0
   -5.4460   15.0060    0.6030 N   0  0  0  0  0  0  0  0  0  0  0  0
   -6.6410   14.7540    1.2620 C   0  0  0  0  0  0  0  0  0  0  0  0
   -7.5890   14.5280    0.3800 N   0  0  0  0  0  0  0  0  0  0  0  0
   -6.7810   14.7550    2.5990 N   0  0  0  0  0  0  0  0  0  0  0  0
  1  2  1  0
  2  3  2  3
  2  4  1  0
  3  5  1  0
  4  6  1  0
  4  7  1  0
  5  8  1  0
  6  9  1  0
  7 10  1  0
  9 11  1  0
 10 11  1  0
  8 12  1  0
 11 13  1  0
 12 14  2  0
 12 15  1  0
 13 16  1  0
 13 17  2  0
 14 18  1  0
 15 19  2  0
 18 20  2  0
 18 21  1  0
 19 21  1  0
 21 22  1  0
 20 23  1  0
 22 23  2  0
 22 24  1  0
M  END
