diamond-x0727_0_A-mac-x0301
     RDKit          3D

 24 26  0  0  0  0  0  0  0  0999 V2000
   -0.2070   11.7630   -5.7860 N   0  0  0  0  0  0  0  0  0  0  0  0
    0.2690   12.6780   -4.7500 C   0  0  1  0  0  0  0  0  0  0  0  0
   -0.8440   13.2000   -3.9180 C   0  0  0  0  0  0  0  0  0  0  0  0
    0.6660   11.2690   -6.7350 C   0  0  0  0  0  0  0  0  0  0  0  0
    1.7540   11.7740   -6.9320 O   0  0  0  0  0  0  0  0  0  0  0  0
    0.9090   11.8690   -3.6140 C   0  0  0  0  0  0  0  0  0  0  0  0
    0.1560   10.0420   -7.5010 C   0  0  0  0  0  0  0  0  0  0  0  0
    0.4590   10.7940   -3.2190 O   0  0  0  0  0  0  0  0  0  0  0  0
    1.9860   12.4490   -3.0400 O   0  0  0  0  0  0  0  0  0  0  0  0
   -0.6720   14.0860   -2.9260 C   0  0  0  0  0  0  0  0  0  0  0  0
   -1.1340   10.3590   -8.2690 C   0  0  0  0  0  0  0  0  0  0  0  0
   -0.1790    8.8530   -6.5820 C   0  0  0  0  0  0  0  0  0  0  0  0
    0.6010   14.5830   -2.7510 O   0  0  0  0  0  0  0  0  0  0  0  0
   -2.0590    9.1610   -8.0750 C   0  0  0  0  0  0  0  0  0  0  0  0
   -1.6550    8.5470   -6.7460 C   0  0  0  0  0  0  0  0  0  0  0  0
   -1.6570   14.5660   -1.9390 C   0  0  0  0  0  0  0  0  0  0  0  0
   -1.2710   14.5100   -0.6080 C   0  0  0  0  0  0  0  0  0  0  0  0
   -2.9470   15.0600   -2.2120 C   0  0  0  0  0  0  0  0  0  0  0  0
   -2.0780   14.9090    0.4360 C   0  0  0  0  0  0  0  0  0  0  0  0
   -3.7870   15.4710   -1.1410 C   0  0  0  0  0  0  0  0  0  0  0  0
   -0.0660   14.0560   -0.1720 O   0  0  0  0  0  0  0  0  0  0  0  0
   -3.3520   15.3960    0.2010 C   0  0  0  0  0  0  0  0  0  0  0  0
   -1.4580   14.7590    1.6520 O   0  0  0  0  0  0  0  0  0  0  0  0
   -0.1260   14.4200    1.2160 C   0  0  0  0  0  0  0  0  0  0  0  0
  1  2  1  0
  2  3  1  1
  1  4  1  0
  4  5  2  0
  2  6  1  0
  4  7  1  0
  6  8  2  0
  6  9  1  0
  3 10  2  3
  7 11  1  0
  7 12  1  0
 10 13  1  0
 11 14  1  0
 12 15  1  0
 14 15  1  0
 10 16  1  0
 16 17  1  0
 16 18  2  0
 17 19  2  0
 18 20  1  0
 17 21  1  0
 19 22  1  0
 20 22  2  0
 19 23  1  0
 21 24  1  0
 23 24  1  0
M  END
