diamond-x0844_0_A-mac-x0282
     RDKit          3D

 13 14  0  0  0  0  0  0  0  0999 V2000
   -7.3510   14.6360    0.5600 O   0  0  0  0  0  0  0  0  0  0  0  0
   -6.1280   14.5100    0.4320 C   0  0  0  0  0  0  0  0  0  0  0  0
   -5.2220   15.1510    1.2570 N   0  0  0  0  0  0  0  0  0  0  0  0
   -5.5050   13.6830   -0.6470 C   0  0  0  0  0  0  0  0  0  0  0  0
   -4.0100   15.8070    0.7040 C   0  0  0  0  0  0  0  0  0  0  0  0
   -4.3900   14.5210   -1.1690 C   0  0  2  0  0  0  0  0  0  0  0  0
   -3.8870   14.2500   -3.0580 Br  0  0  0  0  0  0  0  0  0  0  0  0
   -3.2380   14.8200   -0.2020 C   0  0  2  0  0  0  0  0  0  0  0  0
   -2.5950   13.9040    0.7750 N   0  0  0  0  0  0  0  0  0  0  0  0
   -2.1220   15.0860   -1.1940 C   0  0  0  0  0  0  0  0  0  0  0  0
   -0.8030   14.9800   -0.9680 C   0  0  0  0  0  0  0  0  0  0  0  0
   -1.2540   14.1020    1.1500 C   0  0  0  0  0  0  0  0  0  0  0  0
   -0.3560   14.6180    0.3230 C   0  0  0  0  0  0  0  0  0  0  0  0
  1  2  2  0
  2  3  1  0
  2  4  1  0
  3  5  1  0
  4  6  1  0
  6  7  1  6
  8  5  1  1
  6  8  1  0
  8  9  1  0
  8 10  1  0
 10 11  2  0
  9 12  1  0
 11 13  1  0
 12 13  2  0
M  END
