diamond-x0918_1_B-diamond-x0918_0_B
     RDKit          3D

 15 16  0  0  0  0  0  0  0  0999 V2000
   -1.7850   25.2540  -11.6000 N   0  0  0  0  0  0  0  0  0  0  0  0
   -2.6940   25.6200  -12.5530 C   0  0  0  0  0  0  0  0  0  0  0  0
   -2.3580   26.6220  -13.4310 C   0  0  0  0  0  0  0  0  0  0  0  0
   -3.9380   25.0090  -12.6500 C   0  0  0  0  0  0  0  0  0  0  0  0
   -4.7960   25.4350  -13.6480 C   0  0  0  0  0  0  0  0  0  0  0  0
   -3.2660   27.0030  -14.3960 C   0  0  0  0  0  0  0  0  0  0  0  0
   -2.9060   28.1330  -15.3360 C   0  0  0  0  0  0  0  0  0  0  0  0
   -4.4870   26.4160  -14.5240 N   0  0  0  0  0  0  0  0  0  0  0  0
   -3.4300   29.3980  -14.7930 N   0  0  0  0  0  0  0  0  0  0  0  0
   -4.5650   29.3150  -13.9780 C   0  0  0  0  0  0  0  0  0  0  0  0
   -5.8440   29.6910  -14.3810 C   0  0  0  0  0  0  0  0  0  0  0  0
   -4.4290   28.8180  -12.6800 C   0  0  0  0  0  0  0  0  0  0  0  0
   -6.9060   29.5540  -13.4970 C   0  0  0  0  0  0  0  0  0  0  0  0
   -5.5550   28.7160  -11.8660 C   0  0  0  0  0  0  0  0  0  0  0  0
   -6.7950   29.0720  -12.2460 N   0  0  0  0  0  0  0  0  0  0  0  0
  1  2  1  0
  2  3  2  0
  2  4  1  0
  4  5  2  0
  3  6  1  0
  6  7  1  0
  5  8  1  0
  6  8  2  0
  7  9  1  0
  9 10  1  0
 10 11  2  0
 10 12  1  0
 11 13  1  0
 12 14  2  0
 13 15  2  0
 14 15  1  0
M  END
