diamond-x0910_1_A-mac-x0131
     RDKit          3D

 23 26  0  0  0  0  0  0  0  0999 V2000
   -8.3680   14.5830    0.0870 N   0  0  0  0  0  0  0  0  0  0  0  0
   -7.0540   14.7050   -0.0000 C   0  0  0  0  0  0  0  0  0  0  0  0
   -6.3040   14.6950   -1.1090 N   0  0  0  0  0  0  0  0  0  0  0  0
   -6.4090   14.8520    1.1600 N   0  0  0  0  0  0  0  0  0  0  0  0
   -5.0550   14.8360   -0.5810 N   0  0  0  0  0  0  0  0  0  0  0  0
   -5.1840   14.9350    0.7760 C   0  0  0  0  0  0  0  0  0  0  0  0
   -3.7630   14.8570   -1.2080 C   0  0  0  0  0  0  0  0  0  0  0  0
   -3.3140   14.8550   -2.5450 C   0  0  0  0  0  0  0  0  0  0  0  0
   -2.6280   14.8650   -0.3660 C   0  0  0  0  0  0  0  0  0  0  0  0
   -4.0650   14.8500   -3.8380 C   0  0  0  0  0  0  0  0  0  0  0  0
   -1.5130   14.8530   -1.1730 C   0  0  0  0  0  0  0  0  0  0  0  0
   -1.9190   14.8430   -2.4820 N   0  0  0  0  0  0  0  0  0  0  0  0
   -2.3880   14.8800    1.0110 C   0  0  0  0  0  0  0  0  0  0  0  0
   -3.3420   14.9090    1.9950 N   0  0  0  0  0  0  0  0  0  0  0  0
   -0.9560   14.8170   -3.5790 C   0  0  0  0  0  0  0  0  0  0  0  0
   -1.1540   14.8750    1.4800 N   0  0  0  0  0  0  0  0  0  0  0  0
   -0.2430   14.8570   -0.7490 N   0  0  0  0  0  0  0  0  0  0  0  0
   -0.1660   14.8750    0.5850 C   0  0  0  0  0  0  0  0  0  0  0  0
   -0.6610   13.3900   -3.8360 C   0  0  0  0  0  0  0  0  0  0  0  0
    0.4780   12.6260   -4.0220 C   0  0  0  0  0  0  0  0  0  0  0  0
   -1.7650   12.5960   -3.9090 O   0  0  0  0  0  0  0  0  0  0  0  0
   -1.3490   11.3370   -4.1370 C   0  0  0  0  0  0  0  0  0  0  0  0
    0.0090   11.3000   -4.2120 C   0  0  0  0  0  0  0  0  0  0  0  0
  1  2  1  0
  2  3  2  0
  2  4  1  0
  3  5  1  0
  4  6  2  0
  5  6  1  0
  5  7  1  0
  7  8  2  0
  7  9  1  0
  8 10  1  0
  9 11  2  0
  8 12  1  0
 11 12  1  0
  9 13  1  0
 13 14  1  0
 12 15  1  0
 13 16  2  0
 11 17  1  0
 16 18  1  0
 17 18  2  0
 15 19  1  0
 19 20  2  0
 19 21  1  0
 21 22  1  0
 20 23  1  0
 22 23  2  0
M  END
