diamond-x0128_0_A-mac-x0180
     RDKit          3D

 28 30  0  0  0  0  0  0  0  0999 V2000
   -6.4630   14.6240    2.5050 N   0  0  0  0  0  0  0  0  0  0  0  0
   -7.7750   14.8930    2.3720 C   0  0  0  0  0  0  0  0  0  0  0  0
   -8.3090   15.1110    1.1740 N   0  0  0  0  0  0  0  0  0  0  0  0
   -5.7440   13.9970    1.4790 C   0  0  0  0  0  0  0  0  0  0  0  0
   -8.5760   14.8880    3.5190 N   0  0  0  0  0  0  0  0  0  0  0  0
   -6.3720   13.3250    0.4210 C   0  0  0  0  0  0  0  0  0  0  0  0
   -4.3460   14.0440    1.5010 C   0  0  0  0  0  0  0  0  0  0  0  0
   -7.5190   15.0770   -0.0170 C   0  0  0  0  0  0  0  0  0  0  0  0
   -5.6330   12.7280   -0.5930 C   0  0  0  0  0  0  0  0  0  0  0  0
   -3.6050   13.4410    0.4880 C   0  0  0  0  0  0  0  0  0  0  0  0
   -8.9410   15.8580    4.5080 C   0  0  0  0  0  0  0  0  0  0  0  0
   -7.9940   14.9250   -1.1340 O   0  0  0  0  0  0  0  0  0  0  0  0
   -6.1510   15.2360    0.2410 N   0  0  0  0  0  0  0  0  0  0  0  0
   -4.2470   12.7870   -0.5610 C   0  0  0  0  0  0  0  0  0  0  0  0
   -9.5390   17.0980    4.2810 C   0  0  0  0  0  0  0  0  0  0  0  0
   -8.6990   15.5510    5.8600 C   0  0  0  0  0  0  0  0  0  0  0  0
   -9.8920   17.9850    5.2470 N   0  0  0  0  0  0  0  0  0  0  0  0
   -9.0500   16.4400    6.8750 C   0  0  0  0  0  0  0  0  0  0  0  0
   -4.9820   15.1650   -0.5730 C   0  0  0  0  0  0  0  0  0  0  0  0
   -9.6430   17.6380    6.5190 C   0  0  0  0  0  0  0  0  0  0  0  0
   -3.6910   15.1140   -0.0190 C   0  0  0  0  0  0  0  0  0  0  0  0
   -5.0960   15.1330   -1.9680 C   0  0  0  0  0  0  0  0  0  0  0  0
   -2.5540   15.0160   -0.8280 C   0  0  0  0  0  0  0  0  0  0  0  0
   -3.9550   15.0440   -2.7860 C   0  0  0  0  0  0  0  0  0  0  0  0
   -2.6770   14.9820   -2.2130 C   0  0  0  0  0  0  0  0  0  0  0  0
   -1.4420   14.8850   -3.0400 C   0  0  0  0  0  0  0  0  0  0  0  0
   -1.4510   14.8490   -4.2560 O   0  0  0  0  0  0  0  0  0  0  0  0
   -0.3060   14.8540   -2.3040 O   0  0  0  0  0  0  0  0  0  0  0  0
  1  2  1  0
  2  3  2  3
  1  4  1  0
  2  5  1  0
  4  6  2  0
  4  7  1  0
  3  8  1  0
  6  9  1  0
  7 10  2  0
  5 11  1  0
  8 12  2  0
  8 13  1  0
  9 14  2  0
 10 14  1  0
 11 15  2  0
 11 16  1  0
 15 17  1  0
 16 18  2  0
 13 19  1  0
 17 20  2  0
 18 20  1  0
 19 21  2  0
 19 22  1  0
 21 23  1  0
 22 24  2  0
 23 25  2  0
 24 25  1  0
 25 26  1  0
 26 27  2  0
 26 28  1  0
M  END
