diamond-x0128_0_A-mac-x0321
     RDKit          3D

 19 20  0  0  0  0  0  0  0  0999 V2000
   -6.3230   14.8050    2.3170 N   0  0  0  0  0  0  0  0  0  0  0  0
   -7.5640   15.1670    2.9020 C   0  0  0  0  0  0  0  0  0  0  0  0
   -8.6130   15.3030    2.2790 O   0  0  0  0  0  0  0  0  0  0  0  0
   -5.8770   14.8440    0.9500 C   0  0  0  0  0  0  0  0  0  0  0  0
   -7.4300   15.3660    4.2870 N   0  0  0  0  0  0  0  0  0  0  0  0
   -6.8810   14.9400   -0.0140 C   0  0  0  0  0  0  0  0  0  0  0  0
   -4.5080   14.7920    0.5120 C   0  0  0  0  0  0  0  0  0  0  0  0
   -6.5690   14.9940   -1.3690 C   0  0  0  0  0  0  0  0  0  0  0  0
   -4.1930   14.8380   -0.8930 C   0  0  0  0  0  0  0  0  0  0  0  0
   -8.3070   16.0480    5.1980 C   0  0  0  0  0  0  0  0  0  0  0  0
   -2.8140   14.7780   -1.5570 C   0  0  0  0  0  0  0  0  0  0  0  0
   -5.2450   14.9440   -1.7970 C   0  0  0  0  0  0  0  0  0  0  0  0
   -9.0170   17.1820    4.7820 C   0  0  0  0  0  0  0  0  0  0  0  0
   -8.5120   15.6560    6.5220 C   0  0  0  0  0  0  0  0  0  0  0  0
   -1.7510   14.6730   -0.7340 O   0  0  0  0  0  0  0  0  0  0  0  0
   -2.6680   14.8120   -2.7840 O   0  0  0  0  0  0  0  0  0  0  0  0
   -9.8670   17.9030    5.5600 N   0  0  0  0  0  0  0  0  0  0  0  0
   -9.3820   16.3820    7.3470 C   0  0  0  0  0  0  0  0  0  0  0  0
  -10.0290   17.4860    6.8260 C   0  0  0  0  0  0  0  0  0  0  0  0
  1  2  1  0
  2  3  2  0
  1  4  1  0
  2  5  1  0
  4  6  2  0
  4  7  1  0
  6  8  1  0
  7  9  2  0
  5 10  1  0
  9 11  1  0
  8 12  2  0
  9 12  1  0
 10 13  2  0
 10 14  1  0
 11 15  1  0
 11 16  2  0
 13 17  1  0
 14 18  2  0
 17 19  2  0
 18 19  1  0
M  END
