diamond-x0950_0_A-mac-x0417
     RDKit          3D

 15 16  0  0  0  0  0  0  0  0999 V2000
    2.6260   13.5400   -3.9680 C   0  0  0  0  0  0  0  0  0  0  0  0
    1.3970   12.6590   -4.0930 C   0  0  1  0  0  0  0  0  0  0  0  0
    0.8140   12.2110   -2.7720 C   0  0  0  0  0  0  0  0  0  0  0  0
    0.3760   12.9600   -5.1810 C   0  0  0  0  0  0  0  0  0  0  0  0
    0.3070   11.1040   -2.6430 O   0  0  0  0  0  0  0  0  0  0  0  0
    0.8840   13.0750   -1.7470 O   0  0  0  0  0  0  0  0  0  0  0  0
    0.2470   11.8050   -6.1100 C   0  0  0  0  0  0  0  0  0  0  0  0
    1.2450   11.5610   -6.9650 N   0  0  0  0  0  0  0  0  0  0  0  0
   -0.7960   10.8600   -6.2540 C   0  0  0  0  0  0  0  0  0  0  0  0
    0.8610   10.4550   -7.7010 O   0  0  0  0  0  0  0  0  0  0  0  0
   -0.3530   10.0330   -7.2750 C   0  0  0  0  0  0  0  0  0  0  0  0
   -2.0470   10.5860   -5.6700 C   0  0  0  0  0  0  0  0  0  0  0  0
   -1.0560    8.9450   -7.7700 C   0  0  0  0  0  0  0  0  0  0  0  0
   -2.7830    9.4930   -6.1450 C   0  0  0  0  0  0  0  0  0  0  0  0
   -2.2960    8.6850   -7.1770 C   0  0  0  0  0  0  0  0  0  0  0  0
  2  1  1  1
  2  3  1  0
  2  4  1  0
  3  5  2  0
  3  6  1  0
  4  7  1  0
  7  8  2  0
  7  9  1  0
  8 10  1  0
  9 11  2  0
 10 11  1  0
  9 12  1  0
 11 13  1  0
 12 14  2  0
 13 15  2  0
 14 15  1  0
M  END
