diamond-x0592_0_A-mac-x0345
     RDKit          3D

 13 13  0  0  0  0  0  0  0  0999 V2000
   -2.6660   15.0480    0.5210 N   0  0  0  0  0  0  0  0  0  0  0  0
   -3.2920   15.0070   -0.6990 C   0  0  0  0  0  0  0  0  0  0  0  0
   -2.6070   14.9860   -1.7140 O   0  0  0  0  0  0  0  0  0  0  0  0
   -4.7420   14.9380   -0.6990 C   0  0  0  0  0  0  0  0  0  0  0  0
   -5.6630   14.8740   -1.7860 C   0  0  0  0  0  0  0  0  0  0  0  0
   -5.5560   14.9180    0.3800 C   0  0  0  0  0  0  0  0  0  0  0  0
   -5.3370   14.8850   -3.0880 N   0  0  0  0  0  0  0  0  0  0  0  0
   -4.9190   15.0220    2.1270 Br  0  0  0  0  0  0  0  0  0  0  0  0
   -6.9350   14.7960   -1.3750 N   0  0  0  0  0  0  0  0  0  0  0  0
   -6.8500   14.8170   -0.0330 N   0  0  0  0  0  0  0  0  0  0  0  0
   -8.0730   14.7370    0.7660 C   0  0  0  0  0  0  0  0  0  0  0  0
   -7.8310   14.1110    2.1430 C   0  0  0  0  0  0  0  0  0  0  0  0
   -7.3710   15.0530    3.1140 O   0  0  0  0  0  0  0  0  0  0  0  0
  1  2  1  0
  2  3  2  0
  2  4  1  0
  4  5  1  0
  4  6  2  0
  5  7  1  0
  6  8  1  0
  5  9  2  0
  6 10  1  0
  9 10  1  0
 10 11  1  0
 11 12  1  0
 12 13  1  0
M  END
