diamond-x0722_0_A-mac-x0436
     RDKit          3D

 30 32  0  0  0  0  0  0  0  0999 V2000
   -4.9670   15.1960    2.0170 C   0  0  0  0  0  0  0  0  0  0  0  0
   -3.7150   14.9670    1.2850 C   0  0  0  0  0  0  0  0  0  0  0  0
   -2.5830   14.6710    1.9200 N   0  0  0  0  0  0  0  0  0  0  0  0
   -3.5490   15.0220   -0.1060 C   0  0  0  0  0  0  0  0  0  0  0  0
   -4.6250   15.3320   -1.1000 C   0  0  0  0  0  0  0  0  0  0  0  0
   -2.2050   14.7280   -0.2910 C   0  0  0  0  0  0  0  0  0  0  0  0
   -1.6770   14.5320    0.9540 N   0  0  0  0  0  0  0  0  0  0  0  0
   -0.3170   14.2060    1.3180 C   0  0  0  0  0  0  0  0  0  0  0  0
   -1.4080   14.6230   -1.5410 C   0  0  0  0  0  0  0  0  0  0  0  0
   -5.9520   14.6920   -0.7110 C   0  0  0  0  0  0  0  0  0  0  0  0
   -7.0420   15.2540   -0.8410 O   0  0  0  0  0  0  0  0  0  0  0  0
   -5.8810   13.4200   -0.1910 N   0  0  0  0  0  0  0  0  0  0  0  0
   -1.6060   13.3020   -2.2350 C   0  0  0  0  0  0  0  0  0  0  0  0
   -2.3030   13.4730   -3.5720 C   0  0  0  0  0  0  0  0  0  0  0  0
   -2.5560   12.1510   -4.0570 N   0  0  0  0  0  0  0  0  0  0  0  0
   -1.8170   11.4940   -4.8680 C   0  0  0  0  0  0  0  0  0  0  0  0
   -0.4860   11.9230   -5.5440 C   0  0  0  0  0  0  0  0  0  0  0  0
   -2.3040   10.2410   -5.1540 N   0  0  0  0  0  0  0  0  0  0  0  0
    0.2600   13.1930   -5.1580 C   0  0  0  0  0  0  0  0  0  0  0  0
   -1.7750    9.5350   -6.2410 C   0  0  0  0  0  0  0  0  0  0  0  0
    0.0360   11.1910   -6.4880 N   0  0  0  0  0  0  0  0  0  0  0  0
    1.5550   12.8980   -4.4190 C   0  0  0  0  0  0  0  0  0  0  0  0
   -0.6190   10.0090   -6.8930 C   0  0  0  0  0  0  0  0  0  0  0  0
   -2.3960    8.3590   -6.6750 C   0  0  0  0  0  0  0  0  0  0  0  0
    1.2630   12.3690   -3.0320 C   0  0  0  0  0  0  0  0  0  0  0  0
   -0.1000    9.2940   -7.9720 C   0  0  0  0  0  0  0  0  0  0  0  0
   -1.8710    7.6520   -7.7560 C   0  0  0  0  0  0  0  0  0  0  0  0
    0.5410   11.2230   -3.0150 O   0  0  0  0  0  0  0  0  0  0  0  0
    1.6160   12.8810   -1.9870 O   0  0  0  0  0  0  0  0  0  0  0  0
   -0.7240    8.1160   -8.4060 C   0  0  0  0  0  0  0  0  0  0  0  0
  1  2  1  0
  2  3  2  0
  2  4  1  0
  4  5  1  0
  4  6  2  0
  3  7  1  0
  6  7  1  0
  7  8  1  0
  6  9  1  0
  5 10  1  0
 10 11  2  0
 10 12  1  0
  9 13  1  0
 13 14  1  0
 14 15  1  0
 15 16  2  3
 16 17  1  0
 16 18  1  0
 17 19  1  0
 18 20  1  0
 17 21  2  0
 19 22  1  0
 20 23  2  0
 21 23  1  0
 20 24  1  0
 22 25  1  0
 23 26  1  0
 24 27  2  0
 25 28  1  0
 25 29  2  0
 26 30  2  0
 27 30  1  0
M  END
