diamond-x0900_1_A-diamond-x0950_0_A
     RDKit          3D

 14 14  0  0  0  0  0  0  0  0999 V2000
   -1.0940    9.8670   -9.8590 O   0  0  0  0  0  0  0  0  0  0  0  0
   -1.0070    9.3260   -8.7710 C   0  0  0  0  0  0  0  0  0  0  0  0
    0.0580    8.5870   -8.3230 N   0  0  0  0  0  0  0  0  0  0  0  0
   -2.0220    9.3310   -7.6540 C   0  0  0  0  0  0  0  0  0  0  0  0
   -1.2290    8.7500   -6.4730 C   0  0  0  0  0  0  0  0  0  0  0  0
    0.2290    8.8380   -6.9310 C   0  0  2  0  0  0  0  0  0  0  0  0
    0.8820   10.2170   -6.7680 C   0  0  0  0  0  0  0  0  0  0  0  0
    0.6730   10.8470   -5.3960 C   0  0  0  0  0  0  0  0  0  0  0  0
    1.0830   12.2130   -5.4850 O   0  0  0  0  0  0  0  0  0  0  0  0
    1.6230   12.7120   -4.2690 C   0  0  2  0  0  0  0  0  0  0  0  0
    3.1220   12.4290   -4.2810 C   0  0  0  0  0  0  0  0  0  0  0  0
    1.0200   12.1050   -2.9980 C   0  0  0  0  0  0  0  0  0  0  0  0
    0.4810   11.0120   -2.9190 O   0  0  0  0  0  0  0  0  0  0  0  0
    1.1220   12.8820   -1.9050 O   0  0  0  0  0  0  0  0  0  0  0  0
  1  2  2  0
  2  3  1  0
  2  4  1  0
  4  5  1  0
  3  6  1  0
  5  6  1  0
  6  7  1  6
  7  8  1  0
  8  9  1  0
  9 10  1  0
 10 11  1  6
 10 12  1  0
 12 13  2  0
 12 14  1  0
M  END
