diamond-x0471_0_A-diamond-x0371_0_A
     RDKit          3D

 21 23  0  0  0  0  0  0  0  0999 V2000
   -8.2270   14.5240    3.0770 N   0  0  0  0  0  0  0  0  0  0  0  0
   -9.3030   14.8280    3.9970 C   0  0  1  0  0  0  0  0  0  0  0  0
  -10.1740   15.7730    3.3910 O   0  0  0  0  0  0  0  0  0  0  0  0
   -8.5930   14.4770    1.6470 C   0  0  0  0  0  0  0  0  0  0  0  0
   -9.9890   13.5780    4.5740 C   0  0  0  0  0  0  0  0  0  0  0  0
   -7.3200   14.6590    0.9330 C   0  0  0  0  0  0  0  0  0  0  0  0
   -8.9050   15.3830    5.3280 C   0  0  0  0  0  0  0  0  0  0  0  0
  -11.4510   13.7810    4.9400 C   0  0  0  0  0  0  0  0  0  0  0  0
   -9.2730   13.1240    5.8560 C   0  0  0  0  0  0  0  0  0  0  0  0
   -7.1510   14.9000   -0.4120 N   0  0  0  0  0  0  0  0  0  0  0  0
   -6.1760   14.6180    1.5490 N   0  0  0  0  0  0  0  0  0  0  0  0
   -7.8960   14.7250    5.9610 O   0  0  0  0  0  0  0  0  0  0  0  0
   -9.3610   16.4150    6.1080 C   0  0  0  0  0  0  0  0  0  0  0  0
   -5.2260   14.8350    0.6180 C   0  0  0  0  0  0  0  0  0  0  0  0
   -5.7980   15.0190   -0.6340 C   0  0  0  0  0  0  0  0  0  0  0  0
   -8.6050   16.3680    7.2910 C   0  0  0  0  0  0  0  0  0  0  0  0
   -7.7280   15.3270    7.1520 C   0  0  0  0  0  0  0  0  0  0  0  0
   -5.0330   15.2640   -1.7720 C   0  0  0  0  0  0  0  0  0  0  0  0
   -3.8440   14.8850    0.7860 C   0  0  0  0  0  0  0  0  0  0  0  0
   -3.6470   15.3110   -1.5910 C   0  0  0  0  0  0  0  0  0  0  0  0
   -3.0620   15.1230   -0.3330 C   0  0  0  0  0  0  0  0  0  0  0  0
  1  2  1  0
  2  3  1  6
  1  4  1  0
  2  5  1  0
  4  6  1  0
  2  7  1  0
  5  8  1  0
  5  9  1  0
  6 10  1  0
  6 11  2  0
  7 12  1  0
  7 13  2  0
 11 14  1  0
 10 15  1  0
 14 15  2  0
 13 16  1  0
 12 17  1  0
 16 17  2  0
 15 18  1  0
 14 19  1  0
 18 20  2  0
 19 21  2  0
 20 21  1  0
M  END
