diamond-x0587_0_A-mac-x0398
     RDKit          3D

 15 15  0  0  0  0  0  0  0  0999 V2000
   -7.6370   14.9570    4.0860 N   0  0  0  0  0  0  0  0  0  0  0  0
   -8.1380   14.9640    2.8200 C   0  0  0  0  0  0  0  0  0  0  0  0
   -9.3370   15.1170    2.6170 O   0  0  0  0  0  0  0  0  0  0  0  0
   -7.1930   14.7940    1.6980 C   0  0  0  0  0  0  0  0  0  0  0  0
   -7.6810   14.5860    0.4360 C   0  0  0  0  0  0  0  0  0  0  0  0
   -5.8050   14.8360    1.7880 C   0  0  0  0  0  0  0  0  0  0  0  0
   -6.8910   14.4320   -0.6470 N   0  0  0  0  0  0  0  0  0  0  0  0
   -4.9570   14.6850    0.7230 N   0  0  0  0  0  0  0  0  0  0  0  0
   -5.5480   14.4820   -0.4870 C   0  0  0  0  0  0  0  0  0  0  0  0
   -4.7490   14.2710   -1.7860 C   0  0  0  0  0  0  0  0  0  0  0  0
   -3.5030   15.1080   -2.0760 C   0  0  0  0  0  0  0  0  0  0  0  0
   -4.4540   12.9560   -2.0110 F   0  0  0  0  0  0  0  0  0  0  0  0
   -5.5650   14.5840   -2.8480 F   0  0  0  0  0  0  0  0  0  0  0  0
   -3.4060   15.8270   -3.0640 O   0  0  0  0  0  0  0  0  0  0  0  0
   -2.4600   14.9690   -1.2130 O   0  0  0  0  0  0  0  0  0  0  0  0
  1  2  1  0
  2  3  2  0
  2  4  1  0
  4  5  2  0
  4  6  1  0
  5  7  1  0
  6  8  2  0
  7  9  2  0
  8  9  1  0
  9 10  1  0
 10 11  1  0
 10 12  1  0
 10 13  1  0
 11 14  2  0
 11 15  1  0
M  END
