diamond-x0104_0_A-mac-x0439
     RDKit          3D

 31 34  0  0  0  0  0  0  0  0999 V2000
   -6.7820   14.7430    2.6820 N   0  0  0  0  0  0  0  0  0  0  0  0
   -8.0250   15.0780    3.1990 C   0  0  0  0  0  0  0  0  0  0  0  0
   -7.9960   15.0780    4.5850 N   0  0  0  0  0  0  0  0  0  0  0  0
   -6.3430   14.7550    1.3490 C   0  0  0  0  0  0  0  0  0  0  0  0
   -9.0100   15.3380    2.5150 O   0  0  0  0  0  0  0  0  0  0  0  0
   -4.9710   14.8390    1.0850 C   0  0  0  0  0  0  0  0  0  0  0  0
   -7.1960   14.6950    0.2540 C   0  0  0  0  0  0  0  0  0  0  0  0
   -4.4230   14.8630   -0.1530 N   0  0  0  0  0  0  0  0  0  0  0  0
   -6.6610   14.7230   -1.0280 C   0  0  0  0  0  0  0  0  0  0  0  0
   -9.1090   15.0860    5.4000 C   0  0  0  0  0  0  0  0  0  0  0  0
   -5.2920   14.8060   -1.1850 C   0  0  0  0  0  0  0  0  0  0  0  0
   -9.2650   15.2020    6.7600 C   0  0  0  0  0  0  0  0  0  0  0  0
  -10.5980   14.9180    4.5870 S   0  0  0  0  0  0  0  0  0  0  0  0
   -4.8550   14.8250   -2.4900 O   0  0  0  0  0  0  0  0  0  0  0  0
  -11.4760   14.9990    6.0570 C   0  0  0  0  0  0  0  0  0  0  0  0
  -10.6420   15.1520    7.1440 C   0  0  0  0  0  0  0  0  0  0  0  0
   -3.4680   15.0620   -2.7110 C   0  0  0  0  0  0  0  0  0  0  0  0
   -3.0400   14.5760   -4.1000 C   0  0  0  0  0  0  0  0  0  0  0  0
   -2.9430   15.6400   -5.2110 C   0  0  0  0  0  0  0  0  0  0  0  0
   -1.6940   16.4870   -5.3470 C   0  0  0  0  0  0  0  0  0  0  0  0
   -0.3680   15.7970   -5.1460 C   0  0  2  0  0  0  0  0  0  0  0  0
   -1.6580   17.8050   -5.6620 C   0  0  0  0  0  0  0  0  0  0  0  0
   -0.0820   14.7040   -4.1950 C   0  0  0  0  0  0  0  0  0  0  0  0
    0.6990   16.7440   -4.6960 C   0  0  0  0  0  0  0  0  0  0  0  0
   -0.4080   18.5370   -5.7930 C   0  0  0  0  0  0  0  0  0  0  0  0
    0.9970   15.0250   -3.4940 C   0  0  0  0  0  0  0  0  0  0  0  0
    1.4770   16.2770   -3.7870 N   0  0  0  0  0  0  0  0  0  0  0  0
    0.7680   18.0710   -5.3390 C   0  0  0  0  0  0  0  0  0  0  0  0
    1.6280   14.1350   -2.4920 C   0  0  0  0  0  0  0  0  0  0  0  0
    2.9700   14.2680   -2.4490 O   0  0  0  0  0  0  0  0  0  0  0  0
    1.0340   13.3370   -1.7820 O   0  0  0  0  0  0  0  0  0  0  0  0
  1  2  1  0
  2  3  1  0
  1  4  1  0
  2  5  2  0
  4  6  2  0
  4  7  1  0
  6  8  1  0
  7  9  2  0
  3 10  1  0
  8 11  2  0
  9 11  1  0
 10 12  2  0
 10 13  1  0
 11 14  1  0
 13 15  1  0
 12 16  1  0
 15 16  2  0
 14 17  1  0
 17 18  1  0
 18 19  1  0
 19 20  1  0
 20 21  1  0
 20 22  2  0
 21 23  1  1
 21 24  1  0
 22 25  1  0
 23 26  2  0
 24 27  2  0
 26 27  1  0
 24 28  1  0
 25 28  2  0
 26 29  1  0
 29 30  1  0
 29 31  2  0
M  END
