diamond-x0766_0_A-diamond-x0969_0_A
     RDKit          3D

 21 24  0  0  0  0  0  0  0  0999 V2000
    0.6520   12.2740   -2.4140 C   0  0  0  0  0  0  0  0  0  0  0  0
    0.4450   11.1800   -3.1610 O   0  0  0  0  0  0  0  0  0  0  0  0
    0.5180   12.2480   -1.2140 O   0  0  0  0  0  0  0  0  0  0  0  0
    1.0380   13.5490   -3.0900 C   0  0  1  0  0  0  0  0  0  0  0  0
    1.2130   13.5140   -4.6010 C   0  0  0  0  0  0  0  0  0  0  0  0
    0.0410   14.6850   -2.8200 C   0  0  1  0  0  0  0  0  0  0  0  0
    1.2270   15.0000   -4.8990 C   0  0  0  0  0  0  0  0  0  0  0  0
    0.0960   15.5830   -4.0580 C   0  0  0  0  0  0  0  0  0  0  0  0
   -1.3360   14.2940   -2.2400 C   0  0  2  0  0  0  0  0  0  0  0  0
   -2.6110   14.8130   -2.8990 C   0  0  0  0  0  0  0  0  0  0  0  0
   -1.5580   14.4090   -0.7180 C   0  0  0  0  0  0  0  0  0  0  0  0
   -3.0790   14.1840   -0.5170 C   0  0  2  0  0  0  0  0  0  0  0  0
   -3.7030   14.3730   -1.9240 C   0  0  1  0  0  0  0  0  0  0  0  0
   -4.8690   15.3320   -1.8560 C   0  0  0  0  0  0  0  0  0  0  0  0
   -3.7990   14.9370    0.6570 C   0  0  0  0  0  0  0  0  0  0  0  0
   -5.7310   14.6880   -0.8270 C   0  0  1  0  0  0  0  0  0  0  0  0
   -5.2660   15.0810    0.4740 N   0  0  0  0  0  0  0  0  0  0  0  0
   -6.2070   14.3360    1.2710 C   0  0  1  0  0  0  0  0  0  0  0  0
   -7.1230   15.0460   -0.7580 N   0  0  0  0  0  0  0  0  0  0  0  0
   -6.4270   15.0300    2.4840 N   0  0  0  0  0  0  0  0  0  0  0  0
   -7.4810   14.4790    0.5510 N   0  0  0  0  0  0  0  0  0  0  0  0
  1  2  1  0
  1  3  2  0
  4  1  1  6
  4  5  1  0
  4  6  1  0
  5  7  1  0
  6  8  1  6
  7  8  1  0
  6  9  1  0
  9 10  1  6
  9 11  1  0
 12 11  1  6
 13 10  1  6
 12 13  1  0
 13 14  1  0
 12 15  1  0
 16 14  1  6
 15 17  1  0
 16 17  1  0
 17 18  1  0
 16 19  1  0
 18 20  1  1
 18 21  1  0
 19 21  1  0
M  END
