diamond-x0967_0_A-mac-x0193
     RDKit          3D

 27 29  0  0  0  0  0  0  0  0999 V2000
    0.3400   11.2810   -2.6530 O   0  0  0  0  0  0  0  0  0  0  0  0
    0.8740   12.3490   -3.2740 C   0  0  0  0  0  0  0  0  0  0  0  0
    1.0240   13.4500   -2.6190 N   0  0  0  0  0  0  0  0  0  0  0  0
    1.2500   12.1050   -4.7260 C   0  0  0  0  0  0  0  0  0  0  0  0
    0.2420   11.6270   -5.6700 N   0  0  0  0  0  0  0  0  0  0  0  0
    0.6310   13.6410   -1.2270 C   0  0  0  0  0  0  0  0  0  0  0  0
    0.8320   11.4220   -6.8840 C   0  0  0  0  0  0  0  0  0  0  0  0
   -0.5610   14.6080   -1.2380 C   0  0  0  0  0  0  0  0  0  0  0  0
    1.9700   11.7540   -6.9970 O   0  0  0  0  0  0  0  0  0  0  0  0
    0.0660   10.8140   -7.8710 N   0  0  0  0  0  0  0  0  0  0  0  0
   -1.3990   14.6660    0.0580 C   0  0  0  0  0  0  0  0  0  0  0  0
   -2.9040   14.6940   -0.1830 C   0  0  0  0  0  0  0  0  0  0  0  0
    0.7120   10.3360   -9.1060 C   0  0  0  0  0  0  0  0  0  0  0  0
   -3.4610   14.6650   -1.4610 C   0  0  0  0  0  0  0  0  0  0  0  0
   -3.8130   14.7400    0.8750 C   0  0  0  0  0  0  0  0  0  0  0  0
    1.3120    8.9580   -8.8810 C   0  0  0  0  0  0  0  0  0  0  0  0
   -0.2430   10.2570  -10.3030 C   0  0  0  0  0  0  0  0  0  0  0  0
   -5.2020   14.7360    0.6150 C   0  0  0  0  0  0  0  0  0  0  0  0
   -4.7880   14.6650   -1.7280 N   0  0  0  0  0  0  0  0  0  0  0  0
    2.0360    8.3880  -10.0980 C   0  0  0  0  0  0  0  0  0  0  0  0
    0.4380    9.6690  -11.5440 C   0  0  0  0  0  0  0  0  0  0  0  0
   -5.6520   14.6910   -0.7150 C   0  0  0  0  0  0  0  0  0  0  0  0
   -6.1660   14.7690    1.6390 C   0  0  0  0  0  0  0  0  0  0  0  0
    1.0960    8.3140  -11.2830 C   0  0  0  0  0  0  0  0  0  0  0  0
   -6.9620   14.6700   -0.9960 N   0  0  0  0  0  0  0  0  0  0  0  0
   -7.5160   14.7400    1.3380 C   0  0  0  0  0  0  0  0  0  0  0  0
   -7.8590   14.6910    0.0100 C   0  0  0  0  0  0  0  0  0  0  0  0
  1  2  1  0
  2  3  2  3
  2  4  1  0
  4  5  1  0
  3  6  1  0
  5  7  1  0
  6  8  1  0
  7  9  2  0
  7 10  1  0
  8 11  1  0
 11 12  1  0
 10 13  1  0
 12 14  2  0
 12 15  1  0
 13 16  1  0
 13 17  1  0
 15 18  2  0
 14 19  1  0
 16 20  1  0
 17 21  1  0
 18 22  1  0
 19 22  2  0
 18 23  1  0
 20 24  1  0
 21 24  1  0
 22 25  1  0
 23 26  2  0
 25 27  2  0
 26 27  1  0
M  END
