diamond-x1018_0_A-mac-x0436
     RDKit          3D

 27 30  0  0  0  0  0  0  0  0999 V2000
   -8.3180   14.5450    0.9450 Cl  0  0  0  0  0  0  0  0  0  0  0  0
   -6.6710   14.6930    0.4440 C   0  0  0  0  0  0  0  0  0  0  0  0
   -5.5930   14.8870    1.4610 C   0  0  0  0  0  0  0  0  0  0  0  0
   -6.4640   14.6330   -0.8410 N   0  0  0  0  0  0  0  0  0  0  0  0
   -5.1470   14.7540   -1.1660 N   0  0  0  0  0  0  0  0  0  0  0  0
   -4.3350   14.6380    1.0540 C   0  0  0  0  0  0  0  0  0  0  0  0
   -4.7870   14.5950   -2.4900 N   0  0  0  0  0  0  0  0  0  0  0  0
   -4.1110   14.1820   -0.3380 C   0  0  2  0  0  0  0  0  0  0  0  0
   -2.9040   14.5890   -1.0580 N   0  0  0  0  0  0  0  0  0  0  0  0
   -3.3530   14.3610   -2.4620 N   0  0  0  0  0  0  0  0  0  0  0  0
   -3.0640   12.9670   -2.9700 C   0  0  0  0  0  0  0  0  0  0  0  0
   -1.8930   12.8340   -3.8860 N   0  0  0  0  0  0  0  0  0  0  0  0
   -1.6620   11.8680   -4.7450 C   0  0  0  0  0  0  0  0  0  0  0  0
   -0.3470   12.0890   -5.5290 C   0  0  0  0  0  0  0  0  0  0  0  0
   -2.3790   10.7180   -5.0670 N   0  0  0  0  0  0  0  0  0  0  0  0
    0.4620   13.3390   -5.2000 C   0  0  0  0  0  0  0  0  0  0  0  0
   -1.8940    9.8420   -6.0830 C   0  0  0  0  0  0  0  0  0  0  0  0
    0.0930   11.2790   -6.4500 N   0  0  0  0  0  0  0  0  0  0  0  0
    1.6790   12.9820   -4.3540 C   0  0  0  0  0  0  0  0  0  0  0  0
   -0.6740   10.1340   -6.7540 C   0  0  0  0  0  0  0  0  0  0  0  0
   -2.6060    8.6820   -6.4390 C   0  0  0  0  0  0  0  0  0  0  0  0
    1.2680   12.3770   -3.0170 C   0  0  0  0  0  0  0  0  0  0  0  0
   -0.1960    9.2740   -7.7560 C   0  0  0  0  0  0  0  0  0  0  0  0
   -2.1170    7.8330   -7.4420 C   0  0  0  0  0  0  0  0  0  0  0  0
    0.5730   11.2100   -3.1210 O   0  0  0  0  0  0  0  0  0  0  0  0
    1.5330   12.8920   -1.9360 O   0  0  0  0  0  0  0  0  0  0  0  0
   -0.9130    8.1280   -8.1000 C   0  0  0  0  0  0  0  0  0  0  0  0
  1  2  1  0
  2  3  1  0
  2  4  2  0
  4  5  1  0
  3  6  2  0
  5  7  1  0
  5  8  1  0
  8  6  1  1
  8  9  1  0
  7 10  1  0
  9 10  1  0
 10 11  1  0
 11 12  1  0
 12 13  2  3
 13 14  1  0
 13 15  1  0
 14 16  1  0
 15 17  1  0
 14 18  2  0
 16 19  1  0
 17 20  2  0
 18 20  1  0
 17 21  1  0
 19 22  1  0
 20 23  1  0
 21 24  2  0
 22 25  1  0
 22 26  2  0
 23 27  2  0
 24 27  1  0
M  END
