diamond-x0471_0_A-mac-x0437
     RDKit          3D

 33 36  0  0  0  0  0  0  0  0999 V2000
   -8.6600   14.0060    2.7110 N   0  0  0  0  0  0  0  0  0  0  0  0
   -8.9080   14.9520    3.6890 C   0  0  0  0  0  0  0  0  0  0  0  0
   -9.2960   16.0900    3.4470 O   0  0  0  0  0  0  0  0  0  0  0  0
   -8.7280   14.3780    1.3140 C   0  0  0  0  0  0  0  0  0  0  0  0
   -8.6600   14.4340    5.1070 C   0  0  0  0  0  0  0  0  0  0  0  0
   -7.3430   14.6100    0.8200 C   0  0  0  0  0  0  0  0  0  0  0  0
   -9.9180   13.7010    5.5890 C   0  0  0  0  0  0  0  0  0  0  0  0
   -8.3060   15.5800    6.0570 C   0  0  0  0  0  0  0  0  0  0  0  0
   -7.0510   14.9170   -0.4870 N   0  0  0  0  0  0  0  0  0  0  0  0
   -6.2350   14.5610    1.5350 N   0  0  0  0  0  0  0  0  0  0  0  0
   -5.1990   14.8440    0.6790 C   0  0  0  0  0  0  0  0  0  0  0  0
   -5.6850   15.0720   -0.5970 C   0  0  0  0  0  0  0  0  0  0  0  0
   -4.8620   15.3820   -1.6740 C   0  0  0  0  0  0  0  0  0  0  0  0
   -3.8080   14.9230    0.9210 C   0  0  0  0  0  0  0  0  0  0  0  0
   -3.4820   15.4570   -1.4220 C   0  0  0  0  0  0  0  0  0  0  0  0
   -2.9350   15.2320   -0.1490 C   0  0  0  0  0  0  0  0  0  0  0  0
   -1.4210   15.3200    0.0640 C   0  0  0  0  0  0  0  0  0  0  0  0
   -0.6350   14.0020   -0.1720 C   0  0  0  0  0  0  0  0  0  0  0  0
    0.4890   14.0670   -1.2340 C   0  0  0  0  0  0  0  0  0  0  0  0
    0.0470   13.3570   -2.4200 O   0  0  0  0  0  0  0  0  0  0  0  0
    0.8350   12.4140   -3.0340 C   0  0  0  0  0  0  0  0  0  0  0  0
    0.9790   11.2650   -2.6490 O   0  0  0  0  0  0  0  0  0  0  0  0
    1.4660   12.9950   -4.2820 C   0  0  0  0  0  0  0  0  0  0  0  0
    0.4240   13.2000   -5.3790 C   0  0  0  0  0  0  0  0  0  0  0  0
   -0.4170   12.0340   -5.5950 N   0  0  0  0  0  0  0  0  0  0  0  0
   -1.5520   11.7340   -4.8850 C   0  0  0  0  0  0  0  0  0  0  0  0
   -0.2250   11.0460   -6.5290 C   0  0  0  0  0  0  0  0  0  0  0  0
   -2.1030   10.6140   -5.2960 N   0  0  0  0  0  0  0  0  0  0  0  0
   -1.2930   10.1700   -6.3160 C   0  0  0  0  0  0  0  0  0  0  0  0
    0.7480   10.8300   -7.5120 C   0  0  0  0  0  0  0  0  0  0  0  0
   -1.4080    9.0180   -7.1090 C   0  0  0  0  0  0  0  0  0  0  0  0
    0.6190    9.6780   -8.2930 C   0  0  0  0  0  0  0  0  0  0  0  0
   -0.4420    8.7840   -8.0970 C   0  0  0  0  0  0  0  0  0  0  0  0
  1  2  1  0
  2  3  2  0
  1  4  1  0
  2  5  1  0
  4  6  1  0
  5  7  1  0
  5  8  1  0
  6  9  1  0
  6 10  2  0
 10 11  1  0
  9 12  1  0
 11 12  2  0
 12 13  1  0
 11 14  1  0
 13 15  2  0
 14 16  2  0
 15 16  1  0
 16 17  1  0
 17 18  1  0
 18 19  1  0
 19 20  1  0
 20 21  1  0
 21 22  2  0
 21 23  1  0
 23 24  1  0
 24 25  1  0
 25 26  1  0
 25 27  1  0
 26 28  2  0
 27 29  2  0
 28 29  1  0
 27 30  1  0
 29 31  1  0
 30 32  2  0
 31 33  2  0
 32 33  1  0
M  END
