diamond-x0967_0_A-mac-x0412
     RDKit          3D

 10 11  0  0  0  0  0  0  0  0999 V2000
   -7.0970   14.6760   -0.7450 N   0  0  0  0  0  0  0  0  0  0  0  0
   -7.8670   14.5730    0.3590 C   0  0  0  0  0  0  0  0  0  0  0  0
   -7.3690   14.5890    1.6430 C   0  0  0  0  0  0  0  0  0  0  0  0
   -5.7740   14.8000   -0.6110 C   0  0  0  0  0  0  0  0  0  0  0  0
   -5.1820   14.8260    0.6670 C   0  0  0  0  0  0  0  0  0  0  0  0
   -5.0280   14.8980   -1.7100 N   0  0  0  0  0  0  0  0  0  0  0  0
   -6.0000   14.7210    1.7920 C   0  0  0  0  0  0  0  0  0  0  0  0
   -3.6890   15.0170   -1.5770 C   0  0  0  0  0  0  0  0  0  0  0  0
   -3.7950   14.9530    0.7830 C   0  0  0  0  0  0  0  0  0  0  0  0
   -3.0330   15.0470   -0.3630 C   0  0  0  0  0  0  0  0  0  0  0  0
  1  2  2  0
  2  3  1  0
  1  4  1  0
  4  5  2  0
  4  6  1  0
  3  7  2  0
  5  7  1  0
  6  8  2  0
  5  9  1  0
  8 10  1  0
  9 10  2  0
M  END
