diamond-x0371_0_A-mac-x0228
     RDKit          3D

 21 23  0  0  0  0  0  0  0  0999 V2000
   -8.1990   14.6030    2.8410 N   0  0  0  0  0  0  0  0  0  0  0  0
   -8.8620   15.5710    3.5570 C   0  0  0  0  0  0  0  0  0  0  0  0
   -9.5630   16.4120    3.0050 O   0  0  0  0  0  0  0  0  0  0  0  0
   -8.4010   14.4790    1.4190 C   0  0  0  0  0  0  0  0  0  0  0  0
   -7.0800   14.6010    0.7490 C   0  0  0  0  0  0  0  0  0  0  0  0
   -8.6700   15.5150    4.9890 C   0  0  0  0  0  0  0  0  0  0  0  0
   -5.9070   14.6290    1.4580 N   0  0  0  0  0  0  0  0  0  0  0  0
   -6.8400   14.6910   -0.5550 N   0  0  0  0  0  0  0  0  0  0  0  0
   -8.0680   14.4180    5.5470 O   0  0  0  0  0  0  0  0  0  0  0  0
   -8.9990   16.4110    5.9840 C   0  0  0  0  0  0  0  0  0  0  0  0
   -5.4680   14.7640   -0.6780 C   0  0  0  0  0  0  0  0  0  0  0  0
   -4.8770   14.7320    0.5790 C   0  0  0  0  0  0  0  0  0  0  0  0
   -8.5770   15.8340    7.2060 C   0  0  0  0  0  0  0  0  0  0  0  0
   -8.0150   14.6220    6.8850 C   0  0  0  0  0  0  0  0  0  0  0  0
   -3.5120   14.7880    0.8050 C   0  0  0  0  0  0  0  0  0  0  0  0
   -4.6420   14.8520   -1.8200 C   0  0  0  0  0  0  0  0  0  0  0  0
   -2.7080   14.8640   -0.3210 C   0  0  0  0  0  0  0  0  0  0  0  0
   -3.2410   14.8880   -1.6150 C   0  0  0  0  0  0  0  0  0  0  0  0
   -2.2850   14.9400   -2.7540 C   0  0  0  0  0  0  0  0  0  0  0  0
   -1.0130   14.8370   -2.3210 O   0  0  0  0  0  0  0  0  0  0  0  0
   -2.5320   15.0380   -3.9390 O   0  0  0  0  0  0  0  0  0  0  0  0
  1  2  1  0
  2  3  2  0
  1  4  1  0
  4  5  1  0
  2  6  1  0
  5  7  1  0
  5  8  2  0
  6  9  1  0
  6 10  2  0
  8 11  1  0
  7 12  1  0
 11 12  2  0
 10 13  1  0
  9 14  1  0
 13 14  2  0
 12 15  1  0
 11 16  1  0
 15 17  2  0
 16 18  2  0
 17 18  1  0
 18 19  1  0
 19 20  1  0
 19 21  2  0
M  END
