diamond-x0969_0_A-mac-x0360
     RDKit          3D

 22 24  0  0  0  0  0  0  0  0999 V2000
   -7.2390   14.7890    2.9000 N   0  0  0  0  0  0  0  0  0  0  0  0
   -6.9820   14.8070    1.5790 C   0  0  0  0  0  0  0  0  0  0  0  0
   -7.8040   14.5760    0.5710 N   0  0  0  0  0  0  0  0  0  0  0  0
   -5.7380   15.1030    1.0990 N   0  0  0  0  0  0  0  0  0  0  0  0
   -7.0930   14.7060   -0.6060 N   0  0  0  0  0  0  0  0  0  0  0  0
   -5.8580   15.0090   -0.2630 C   0  0  0  0  0  0  0  0  0  0  0  0
   -4.5580   15.4340    1.7650 C   0  0  0  0  0  0  0  0  0  0  0  0
   -4.6610   15.2270   -0.9320 C   0  0  0  0  0  0  0  0  0  0  0  0
   -3.4520   15.6470    1.0770 C   0  0  0  0  0  0  0  0  0  0  0  0
   -4.3000   15.0290   -2.2350 N   0  0  0  0  0  0  0  0  0  0  0  0
   -3.5470   15.5080   -0.3130 C   0  0  0  0  0  0  0  0  0  0  0  0
   -3.3410   13.9660   -1.7180 S   0  0  1  0  0  0  0  0  0  0  0  0
   -2.3920   13.5820   -3.0300 N   0  0  0  0  0  0  0  0  0  0  0  0
   -2.3850   14.1060   -0.6270 O   0  0  0  0  0  0  0  0  0  0  0  0
   -4.4500   12.6780   -1.2190 C   0  0  0  0  0  0  0  0  0  0  0  0
   -4.5130   11.5660   -2.0230 C   0  0  0  0  0  0  0  0  0  0  0  0
   -5.2520   12.7770   -0.0560 C   0  0  0  0  0  0  0  0  0  0  0  0
   -5.3780   10.5480   -1.6880 C   0  0  0  0  0  0  0  0  0  0  0  0
   -6.1290   11.7310    0.2600 C   0  0  0  0  0  0  0  0  0  0  0  0
   -7.1450   11.7820    1.6540 Cl  0  0  0  0  0  0  0  0  0  0  0  0
   -5.4370    9.1670   -2.7030 Cl  0  0  0  0  0  0  0  0  0  0  0  0
   -6.1910   10.6170   -0.5620 C   0  0  0  0  0  0  0  0  0  0  0  0
  1  2  1  0
  2  3  2  0
  2  4  1  0
  3  5  1  0
  4  6  1  0
  5  6  2  0
  4  7  1  0
  6  8  1  0
  7  9  2  0
  8 10  1  0
  8 11  2  0
  9 11  1  0
 10 12  2  0
 12 13  1  6
 12 14  2  0
 12 15  1  0
 15 16  2  0
 15 17  1  0
 16 18  1  0
 17 19  2  0
 19 20  1  0
 18 21  1  0
 18 22  2  0
 19 22  1  0
M  END
