diamond-x0900_1_A-mac-x0326
     RDKit          3D

 23 25  0  0  0  0  0  0  0  0999 V2000
   -0.8030    9.6420   -9.8740 O   0  0  0  0  0  0  0  0  0  0  0  0
   -0.8980    9.2940   -8.7120 C   0  0  0  0  0  0  0  0  0  0  0  0
    0.0820    9.3720   -7.7570 N   0  0  0  0  0  0  0  0  0  0  0  0
   -2.1130    8.7040   -8.0240 C   0  0  0  0  0  0  0  0  0  0  0  0
   -1.6360    8.5730   -6.5720 C   0  0  0  0  0  0  0  0  0  0  0  0
   -0.5850    9.6630   -6.5250 C   0  0  1  0  0  0  0  0  0  0  0  0
    0.3040    9.7150   -5.2870 C   0  0  0  0  0  0  0  0  0  0  0  0
   -0.2890   10.5630   -4.1640 C   0  0  0  0  0  0  0  0  0  0  0  0
    0.7090   10.8820   -3.1830 O   0  0  0  0  0  0  0  0  0  0  0  0
    1.2290   12.1460   -3.1460 C   0  0  0  0  0  0  0  0  0  0  0  0
    1.7800   12.6180   -2.1690 O   0  0  0  0  0  0  0  0  0  0  0  0
    1.0600   12.9100   -4.4410 C   0  0  0  0  0  0  0  0  0  0  0  0
    0.8160   14.3920   -4.1480 C   0  0  0  0  0  0  0  0  0  0  0  0
   -0.3470   14.5680   -3.2040 C   0  0  0  0  0  0  0  0  0  0  0  0
   -1.5820   14.7830   -3.6090 N   0  0  0  0  0  0  0  0  0  0  0  0
   -0.1300   14.4940   -1.4990 S   0  0  0  0  0  0  0  0  0  0  0  0
   -2.4310   14.8960   -2.5190 C   0  0  0  0  0  0  0  0  0  0  0  0
   -1.8190   14.7650   -1.2690 C   0  0  0  0  0  0  0  0  0  0  0  0
   -3.8180   15.1280   -2.5820 C   0  0  0  0  0  0  0  0  0  0  0  0
   -2.5490   14.8570   -0.0700 C   0  0  0  0  0  0  0  0  0  0  0  0
   -4.5450   15.2200   -1.3920 C   0  0  0  0  0  0  0  0  0  0  0  0
   -3.9250   15.0900   -0.1550 C   0  0  0  0  0  0  0  0  0  0  0  0
   -6.2400   15.4980   -1.4540 Cl  0  0  0  0  0  0  0  0  0  0  0  0
  1  2  2  0
  2  3  1  0
  2  4  1  0
  4  5  1  0
  3  6  1  0
  5  6  1  0
  6  7  1  1
  7  8  1  0
  8  9  1  0
  9 10  1  0
 10 11  2  0
 10 12  1  0
 12 13  1  0
 13 14  1  0
 14 15  2  0
 14 16  1  0
 15 17  1  0
 16 18  1  0
 17 18  2  0
 17 19  1  0
 18 20  1  0
 19 21  2  0
 20 22  2  0
 21 22  1  0
 21 23  1  0
M  END
