diamond-x0933_0_A-mac-x0527
     RDKit          3D

 17 18  0  0  0  0  0  0  0  0999 V2000
   -6.2200   14.4900    1.4320 N   0  0  0  0  0  0  0  0  0  0  0  0
   -4.9580   14.3260    0.8040 C   0  0  2  0  0  0  0  0  0  0  0  0
   -4.1180   15.1740    1.5830 N   0  0  0  0  0  0  0  0  0  0  0  0
   -5.0620   14.6640   -0.5990 N   0  0  0  0  0  0  0  0  0  0  0  0
   -3.7670   15.2160   -1.0730 C   0  0  2  0  0  0  0  0  0  0  0  0
   -2.7380   15.1030    1.1760 C   0  0  0  0  0  0  0  0  0  0  0  0
   -3.3860   14.9820   -2.5540 C   0  0  0  0  0  0  0  0  0  0  0  0
   -2.6500   14.6050   -0.2380 C   0  0  0  0  0  0  0  0  0  0  0  0
   -4.1640   15.0720   -3.5030 O   0  0  0  0  0  0  0  0  0  0  0  0
   -2.0770   14.6470   -2.8080 N   0  0  0  0  0  0  0  0  0  0  0  0
   -1.3280   14.7000   -4.0460 C   0  0  0  0  0  0  0  0  0  0  0  0
   -1.1070   13.3380   -4.6610 C   0  0  0  0  0  0  0  0  0  0  0  0
   -1.9540   12.2600   -4.3590 C   0  0  0  0  0  0  0  0  0  0  0  0
   -0.0430   13.1290   -5.5510 C   0  0  0  0  0  0  0  0  0  0  0  0
   -1.7420   11.0020   -4.9340 C   0  0  0  0  0  0  0  0  0  0  0  0
    0.1680   11.8720   -6.1270 C   0  0  0  0  0  0  0  0  0  0  0  0
   -0.6820   10.8130   -5.8170 C   0  0  0  0  0  0  0  0  0  0  0  0
  2  1  1  1
  2  3  1  0
  2  4  1  0
  4  5  1  0
  3  6  1  0
  5  7  1  6
  5  8  1  0
  6  8  1  0
  7  9  2  0
  7 10  1  0
 10 11  1  0
 11 12  1  0
 12 13  2  0
 12 14  1  0
 13 15  1  0
 14 16  2  0
 15 17  2  0
 16 17  1  0
M  END
