diamond-x0689_0_A-mac-x0282
     RDKit          3D

 11 12  0  0  0  0  0  0  0  0999 V2000
   -3.6010   13.7060    1.3910 N   0  0  0  0  0  0  0  0  0  0  0  0
   -4.9700   14.1570    1.5090 C   0  0  0  0  0  0  0  0  0  0  0  0
   -2.6770   14.6650    0.8640 C   0  0  2  0  0  0  0  0  0  0  0  0
   -2.4810   14.5670   -0.6170 N   0  0  0  0  0  0  0  0  0  0  0  0
   -1.4810   14.6280    1.6780 N   0  0  0  0  0  0  0  0  0  0  0  0
   -3.4720   15.8930    0.8600 N   0  0  0  0  0  0  0  0  0  0  0  0
   -1.2240   14.5560   -1.1740 C   0  0  0  0  0  0  0  0  0  0  0  0
   -0.1840   14.4140    1.0620 C   0  0  0  0  0  0  0  0  0  0  0  0
   -4.2280   15.8630   -0.3060 C   0  0  0  0  0  0  0  0  0  0  0  0
   -3.6260   15.0720   -1.1980 C   0  0  0  0  0  0  0  0  0  0  0  0
   -0.1200   14.4860   -0.4270 C   0  0  0  0  0  0  0  0  0  0  0  0
  1  2  1  0
  3  1  1  1
  3  4  1  0
  3  5  1  0
  3  6  1  0
  4  7  1  0
  5  8  1  0
  6  9  1  0
  4 10  1  0
  9 10  2  0
  7 11  2  0
  8 11  1  0
M  END
