diamond-x0662_0_A-mac-x0116
     RDKit          3D

 37 41  0  0  0  0  0  0  0  0999 V2000
    5.3370    9.5560  -15.0380 C   0  0  0  0  0  0  0  0  0  0  0  0
    4.2890   10.0270  -14.1600 N   0  0  0  0  0  0  0  0  0  0  0  0
    3.6310   11.2210  -14.2260 C   0  0  0  0  0  0  0  0  0  0  0  0
    3.8860    9.2460  -13.1490 N   0  0  0  0  0  0  0  0  0  0  0  0
    2.7370   11.2100  -13.1800 C   0  0  0  0  0  0  0  0  0  0  0  0
    2.9240    9.9480  -12.5200 C   0  0  0  0  0  0  0  0  0  0  0  0
    2.2390    9.3900  -11.3160 C   0  0  0  0  0  0  0  0  0  0  0  0
    2.3270    8.1970  -11.0450 O   0  0  0  0  0  0  0  0  0  0  0  0
    1.5320   10.3160  -10.5510 N   0  0  0  0  0  0  0  0  0  0  0  0
    0.6810   10.0360   -9.4450 C   0  0  0  0  0  0  0  0  0  0  0  0
   -0.2820    9.0240   -9.4540 C   0  0  0  0  0  0  0  0  0  0  0  0
    0.8150   10.8160   -8.2840 C   0  0  0  0  0  0  0  0  0  0  0  0
   -1.0910    8.7990   -8.3330 C   0  0  0  0  0  0  0  0  0  0  0  0
    0.0080   10.5960   -7.1610 C   0  0  0  0  0  0  0  0  0  0  0  0
    0.1610   11.4400   -5.9270 C   0  0  0  0  0  0  0  0  0  0  0  0
   -0.9490    9.5810   -7.1880 C   0  0  0  0  0  0  0  0  0  0  0  0
   -0.6860   11.4770   -4.9590 N   0  0  0  0  0  0  0  0  0  0  0  0
    1.2300   12.0700   -6.0180 O   0  0  0  0  0  0  0  0  0  0  0  0
   -0.4570   12.3200   -3.7880 C   0  0  0  0  0  0  0  0  0  0  0  0
   -1.7850   12.9430   -3.3650 C   0  0  0  0  0  0  0  0  0  0  0  0
   -1.6470   14.4490   -3.1020 C   0  0  0  0  0  0  0  0  0  0  0  0
   -2.3250   14.8090   -1.8550 N   0  0  0  0  0  0  0  0  0  0  0  0
   -3.6930   15.0120   -1.8090 C   0  0  0  0  0  0  0  0  0  0  0  0
   -1.6660   14.6980   -0.6560 C   0  0  0  0  0  0  0  0  0  0  0  0
   -4.4260   15.0560   -0.7340 N   0  0  0  0  0  0  0  0  0  0  0  0
   -2.4560   14.7240    0.5730 C   0  0  0  0  0  0  0  0  0  0  0  0
   -0.4170   14.5690   -0.3210 N   0  0  0  0  0  0  0  0  0  0  0  0
   -3.7850   14.8890    0.4930 C   0  0  0  0  0  0  0  0  0  0  0  0
   -1.6250   14.5690    1.6430 N   0  0  0  0  0  0  0  0  0  0  0  0
   -0.4670   14.4990    1.0660 C   0  0  0  0  0  0  0  0  0  0  0  0
   -4.4950   14.8840    1.6860 N   0  0  0  0  0  0  0  0  0  0  0  0
   -5.9220   14.6610    1.7860 C   0  0  0  0  0  0  0  0  0  0  0  0
   -6.3560   13.2400    1.7480 C   0  0  0  0  0  0  0  0  0  0  0  0
   -6.3080   12.6010    0.5380 O   0  0  0  0  0  0  0  0  0  0  0  0
   -6.8300   12.3800    2.7140 C   0  0  0  0  0  0  0  0  0  0  0  0
   -7.0880   11.1590    2.0690 C   0  0  0  0  0  0  0  0  0  0  0  0
   -6.7570   11.3370    0.7480 C   0  0  0  0  0  0  0  0  0  0  0  0
  1  2  1  0
  2  3  1  0
  2  4  1  0
  3  5  2  0
  4  6  2  0
  5  6  1  0
  6  7  1  0
  7  8  2  0
  7  9  1  0
  9 10  1  0
 10 11  2  0
 10 12  1  0
 11 13  1  0
 12 14  2  0
 14 15  1  0
 13 16  2  0
 14 16  1  0
 15 17  2  3
 15 18  1  0
 17 19  1  0
 19 20  1  0
 20 21  1  0
 21 22  1  0
 22 23  1  0
 22 24  1  0
 23 25  2  0
 24 26  1  0
 24 27  2  0
 25 28  1  0
 26 28  2  0
 26 29  1  0
 27 30  1  0
 29 30  2  0
 28 31  1  0
 31 32  1  0
 32 33  1  0
 33 34  1  0
 33 35  2  0
 35 36  1  0
 34 37  1  0
 36 37  2  0
M  CHG  1  18  -1
M  END
