diamond-x0724_0_A-mac-x0138
     RDKit          3D

 21 23  0  0  0  0  0  0  0  0999 V2000
   -8.7650   13.8280    4.3840 N   0  0  0  0  0  0  0  0  0  0  0  0
   -8.7550   13.7100    5.8380 C   0  0  0  0  0  0  0  0  0  0  0  0
   -7.9350   14.9460    3.9390 C   0  0  0  0  0  0  0  0  0  0  0  0
   -7.3930   14.7330    2.5670 C   0  0  0  0  0  0  0  0  0  0  0  0
   -6.0840   14.8740    2.1260 C   0  0  0  0  0  0  0  0  0  0  0  0
   -8.0890   14.3540    1.4160 C   0  0  0  0  0  0  0  0  0  0  0  0
   -7.3070   14.2710    0.3460 N   0  0  0  0  0  0  0  0  0  0  0  0
   -6.0310   14.6040    0.7660 N   0  0  0  0  0  0  0  0  0  0  0  0
   -4.9410   14.6660   -0.1410 C   0  0  0  0  0  0  0  0  0  0  0  0
   -3.4200   14.9110    0.2380 C   0  0  2  0  0  0  0  0  0  0  0  0
   -5.3120   14.6240   -1.4420 C   0  0  0  0  0  0  0  0  0  0  0  0
   -3.5310   16.2350    0.8170 N   0  0  0  0  0  0  0  0  0  0  0  0
   -2.5650   14.8390   -1.0790 C   0  0  0  0  0  0  0  0  0  0  0  0
   -4.4250   14.7950   -2.5490 C   0  0  0  0  0  0  0  0  0  0  0  0
   -2.6150   14.0290    1.1050 N   0  0  0  0  0  0  0  0  0  0  0  0
   -3.1270   14.9190   -2.3960 C   0  0  0  0  0  0  0  0  0  0  0  0
   -1.2130   14.2020    1.0260 C   0  0  0  0  0  0  0  0  0  0  0  0
   -1.2580   14.6520   -1.0740 C   0  0  0  0  0  0  0  0  0  0  0  0
   -2.2010   15.1230   -3.5710 C   0  0  0  0  0  0  0  0  0  0  0  0
   -0.4680   14.0540    2.1280 N   0  0  0  0  0  0  0  0  0  0  0  0
   -0.5240   14.5070    0.0050 N   0  0  0  0  0  0  0  0  0  0  0  0
  1  2  1  0
  1  3  1  0
  3  4  1  0
  4  5  2  0
  4  6  1  0
  6  7  2  0
  5  8  1  0
  7  8  1  0
  8  9  1  0
  9 10  1  0
  9 11  2  0
 10 12  1  1
 10 13  1  0
 11 14  1  0
 10 15  1  0
 13 16  1  0
 14 16  2  0
 15 17  1  0
 13 18  2  0
 16 19  1  0
 17 20  1  0
 17 21  2  0
 18 21  1  0
M  END
