diamond-x0722_0_A-mac-x0263
     RDKit          3D

 26 28  0  0  0  0  0  0  0  0999 V2000
   -4.0390   16.2380    1.4110 C   0  0  0  0  0  0  0  0  0  0  0  0
   -2.9810   15.4300    0.7900 C   0  0  0  0  0  0  0  0  0  0  0  0
   -2.0080   15.0490    1.5750 N   0  0  0  0  0  0  0  0  0  0  0  0
   -2.8280   14.9770   -0.5750 C   0  0  0  0  0  0  0  0  0  0  0  0
   -3.8230   15.2710   -1.6690 C   0  0  1  0  0  0  0  0  0  0  0  0
   -1.6390   14.2830   -0.5280 C   0  0  0  0  0  0  0  0  0  0  0  0
   -1.2210   14.3720    0.7750 N   0  0  0  0  0  0  0  0  0  0  0  0
   -0.0610   13.8410    1.3730 C   0  0  0  0  0  0  0  0  0  0  0  0
   -0.8760   13.5580   -1.5680 C   0  0  0  0  0  0  0  0  0  0  0  0
   -4.2550   14.2680   -2.7050 C   0  0  0  0  0  0  0  0  0  0  0  0
   -4.9190   15.1240   -0.7750 C   0  0  0  0  0  0  0  0  0  0  0  0
   -4.6620   14.5150   -3.8230 O   0  0  0  0  0  0  0  0  0  0  0  0
   -4.2280   12.9670   -2.2550 N   0  0  0  0  0  0  0  0  0  0  0  0
   -6.2270   15.0500   -1.1980 C   0  0  0  0  0  0  0  0  0  0  0  0
   -4.5310   15.0300    0.5330 C   0  0  0  0  0  0  0  0  0  0  0  0
   -7.1280   14.8500   -0.1870 C   0  0  0  0  0  0  0  0  0  0  0  0
   -5.4430   14.8430    1.5140 C   0  0  0  0  0  0  0  0  0  0  0  0
   -8.4670   14.7140   -0.1780 N   0  0  0  0  0  0  0  0  0  0  0  0
   -6.7600   14.7420    1.1470 C   0  0  0  0  0  0  0  0  0  0  0  0
   -8.8420   14.5360    1.1190 C   0  0  0  0  0  0  0  0  0  0  0  0
   -7.8330   14.5460    1.9400 N   0  0  0  0  0  0  0  0  0  0  0  0
  -10.2410   14.3640    1.5040 C   0  0  0  0  0  0  0  0  0  0  0  0
  -10.7860   15.7040    1.9500 C   0  0  0  0  0  0  0  0  0  0  0  0
  -11.4680   15.5780    3.2700 C   0  0  0  0  0  0  0  0  0  0  0  0
  -12.2800   14.5050    3.3020 O   0  0  0  0  0  0  0  0  0  0  0  0
  -11.3450   16.3110    4.2330 O   0  0  0  0  0  0  0  0  0  0  0  0
  1  2  1  0
  2  3  2  0
  2  4  1  0
  4  5  1  0
  4  6  2  0
  3  7  1  0
  6  7  1  0
  7  8  1  0
  6  9  1  0
  5 10  1  6
  5 11  1  0
 10 12  2  0
 10 13  1  0
 11 14  2  0
 11 15  1  0
 14 16  1  0
 15 17  2  0
 16 18  1  0
 16 19  2  0
 17 19  1  0
 18 20  1  0
 19 21  1  0
 20 21  2  0
 20 22  1  0
 22 23  1  0
 23 24  1  0
 24 25  1  0
 24 26  2  0
M  END
