diamond-x0805_0_A-diamond-x0742_0_A
     RDKit          3D

 33 37  0  0  0  0  0  0  0  0999 V2000
   -3.8860   15.7390    0.0870 C   0  0  0  0  0  0  0  0  0  0  0  0
   -4.5090   15.3980   -1.2080 N   0  0  0  0  0  0  0  0  0  0  0  0
   -3.7160   14.7180   -2.1260 C   0  0  0  0  0  0  0  0  0  0  0  0
   -5.5750   14.4260   -0.9070 C   0  0  1  0  0  0  0  0  0  0  0  0
   -4.4320   13.7050   -2.7790 C   0  0  0  0  0  0  0  0  0  0  0  0
   -2.3600   14.8250   -2.5220 C   0  0  0  0  0  0  0  0  0  0  0  0
   -4.7990   13.3100   -0.2510 C   0  0  2  0  0  0  0  0  0  0  0  0
   -6.7320   14.6700    0.0860 C   0  0  0  0  0  0  0  0  0  0  0  0
   -5.6670   12.0340   -0.3430 C   0  0  0  0  0  0  0  0  0  0  0  0
   -3.9010   12.8650   -3.7280 C   0  0  0  0  0  0  0  0  0  0  0  0
   -1.7890   13.9660   -3.5130 C   0  0  0  0  0  0  0  0  0  0  0  0
   -4.6690   14.1570    1.0160 C   0  0  1  0  0  0  0  0  0  0  0  0
   -6.0980   14.3800    1.4670 C   0  0  0  0  0  0  0  0  0  0  0  0
   -3.4180   12.9620   -0.8680 C   0  0  0  0  0  0  0  0  0  0  0  0
   -5.5460   11.2720   -1.3120 O   0  0  0  0  0  0  0  0  0  0  0  0
   -6.6660   11.6860    0.7250 C   0  0  0  0  0  0  0  0  0  0  0  0
   -2.5890   12.9940   -4.0950 C   0  0  0  0  0  0  0  0  0  0  0  0
   -0.3390   14.0710   -3.9740 C   0  0  2  0  0  0  0  0  0  0  0  0
   -2.2120   13.5910   -0.1790 C   0  0  0  0  0  0  0  0  0  0  0  0
   -3.5110   13.8850    1.9230 C   0  0  0  0  0  0  0  0  0  0  0  0
    0.7900   13.2910   -3.3010 C   0  0  1  0  0  0  0  0  0  0  0  0
    0.1790   15.4910   -3.9800 C   0  0  0  0  0  0  0  0  0  0  0  0
   -1.0130   13.7480   -0.8680 C   0  0  0  0  0  0  0  0  0  0  0  0
   -2.2580   14.0210    1.1380 C   0  0  0  0  0  0  0  0  0  0  0  0
    0.4610   12.0560   -2.5340 C   0  0  0  0  0  0  0  0  0  0  0  0
    1.8820   13.1170   -4.3150 C   0  0  0  0  0  0  0  0  0  0  0  0
    1.6510   15.5730   -4.3920 C   0  0  0  0  0  0  0  0  0  0  0  0
   -1.2210   14.5730    1.7810 N   0  0  0  0  0  0  0  0  0  0  0  0
    0.0750   14.3170   -0.2330 C   0  0  0  0  0  0  0  0  0  0  0  0
    0.2770   10.9340   -3.2540 O   0  0  0  0  0  0  0  0  0  0  0  0
    0.3830   12.0480   -1.3280 O   0  0  0  0  0  0  0  0  0  0  0  0
    2.5030   14.3890   -4.3780 O   0  0  0  0  0  0  0  0  0  0  0  0
   -0.0860   14.7080    1.0780 C   0  0  0  0  0  0  0  0  0  0  0  0
  1  2  1  0
  2  3  1  0
  4  2  1  1
  3  5  2  0
  3  6  1  0
  4  7  1  0
  4  8  1  0
  7  9  1  1
  5 10  1  0
  6 11  2  0
  7 12  1  0
  8 13  1  0
 12 13  1  1
  7 14  1  0
  9 15  2  0
  9 16  1  0
 10 17  2  0
 11 17  1  0
 18 11  1  1
 14 19  1  0
 12 20  1  0
 18 21  1  0
 18 22  1  0
 19 23  2  0
 19 24  1  0
 20 24  1  0
 21 25  1  6
 21 26  1  0
 22 27  1  0
 24 28  2  0
 23 29  1  0
 25 30  1  0
 25 31  2  0
 26 32  1  0
 27 32  1  0
 28 33  1  0
 29 33  2  0
M  END
