diamond-x0849_0_A-mac-x0510
     RDKit          3D

 12 13  0  0  0  0  0  0  0  0999 V2000
   -3.2990   15.1400   -3.0690 Br  0  0  0  0  0  0  0  0  0  0  0  0
   -3.4330   15.0340   -1.2070 C   0  0  0  0  0  0  0  0  0  0  0  0
   -2.2540   14.8030   -0.3600 C   0  0  0  0  0  0  0  0  0  0  0  0
   -4.6260   15.1630   -0.6420 C   0  0  0  0  0  0  0  0  0  0  0  0
   -2.4340   14.7360    1.0200 C   0  0  0  0  0  0  0  0  0  0  0  0
   -4.8040   15.0600    0.8060 C   0  0  0  0  0  0  0  0  0  0  0  0
   -0.9500   14.6480   -0.8330 C   0  0  0  0  0  0  0  0  0  0  0  0
   -5.9330   15.1000    1.2700 O   0  0  0  0  0  0  0  0  0  0  0  0
   -3.7020   14.8880    1.5640 N   0  0  0  0  0  0  0  0  0  0  0  0
   -1.4550   14.5300    1.9020 N   0  0  0  0  0  0  0  0  0  0  0  0
    0.0880   14.4400    0.0640 C   0  0  0  0  0  0  0  0  0  0  0  0
   -0.2210   14.3880    1.4130 C   0  0  0  0  0  0  0  0  0  0  0  0
  1  2  1  0
  2  3  1  0
  2  4  2  0
  3  5  2  0
  4  6  1  0
  3  7  1  0
  6  8  2  0
  5  9  1  0
  6  9  1  0
  5 10  1  0
  7 11  2  0
 10 12  2  0
 11 12  1  0
M  END
