diamond-x0900_0_A-mac-x0455
     RDKit          3D

 19 20  0  0  0  0  0  0  0  0999 V2000
   -6.9530   15.1830   -0.6010 O   0  0  0  0  0  0  0  0  0  0  0  0
   -5.8010   14.9950   -0.2500 C   0  0  0  0  0  0  0  0  0  0  0  0
   -4.6970   14.9300   -1.0720 N   0  0  0  0  0  0  0  0  0  0  0  0
   -5.2890   14.7710    1.1600 C   0  0  0  0  0  0  0  0  0  0  0  0
   -3.7890   14.9880    0.9590 C   0  0  0  0  0  0  0  0  0  0  0  0
   -3.6300   14.2740   -0.3780 C   0  0  2  0  0  0  0  0  0  0  0  0
   -2.2490   14.3840   -1.0380 C   0  0  0  0  0  0  0  0  0  0  0  0
   -2.2460   14.4640   -2.5780 C   0  0  0  0  0  0  0  0  0  0  0  0
   -0.9370   14.1790   -3.3660 C   0  0  1  0  0  0  0  0  0  0  0  0
   -0.7600   15.3510   -4.2410 O   0  0  0  0  0  0  0  0  0  0  0  0
    0.2840   14.3040   -2.4180 C   0  0  0  0  0  0  0  0  0  0  0  0
   -0.9680   12.9710   -4.3000 C   0  0  0  0  0  0  0  0  0  0  0  0
    1.0400   15.2510   -2.3320 O   0  0  0  0  0  0  0  0  0  0  0  0
    0.4770   13.2050   -1.6350 O   0  0  0  0  0  0  0  0  0  0  0  0
   -1.9980   12.0210   -4.3090 C   0  0  0  0  0  0  0  0  0  0  0  0
    0.0990   12.7860   -5.2110 C   0  0  0  0  0  0  0  0  0  0  0  0
   -1.9700   10.9330   -5.1860 C   0  0  0  0  0  0  0  0  0  0  0  0
    0.1290   11.6990   -6.0870 C   0  0  0  0  0  0  0  0  0  0  0  0
   -0.9090   10.7700   -6.0740 C   0  0  0  0  0  0  0  0  0  0  0  0
  1  2  2  0
  2  3  1  0
  2  4  1  0
  4  5  1  0
  3  6  1  0
  5  6  1  0
  6  7  1  6
  7  8  1  0
  8  9  1  0
  9 10  1  6
  9 11  1  0
  9 12  1  0
 11 13  2  0
 11 14  1  0
 12 15  2  0
 12 16  1  0
 15 17  1  0
 16 18  2  0
 17 19  2  0
 18 19  1  0
M  END
