diamond-x0142_0_A-diamond-x0796_0_B
     RDKit          3D

 32 36  0  0  0  0  0  0  0  0999 V2000
   15.1010    6.4310   12.5860 N   0  0  0  0  0  0  0  0  0  0  0  0
   14.9430    6.0880   11.2640 C   0  0  0  0  0  0  0  0  0  0  0  0
   14.7160    4.7680   11.0140 N   0  0  0  0  0  0  0  0  0  0  0  0
   15.6140    7.6780   13.1230 C   0  0  2  0  0  0  0  0  0  0  0  0
   15.0210    6.9710   10.4080 O   0  0  0  0  0  0  0  0  0  0  0  0
   16.1080    7.6270   14.5310 C   0  0  0  0  0  0  0  0  0  0  0  0
   14.5980    8.7820   13.1110 C   0  0  0  0  0  0  0  0  0  0  0  0
   16.1570    8.7490   15.3100 C   0  0  0  0  0  0  0  0  0  0  0  0
   15.3380   10.1070   13.3400 C   0  0  2  0  0  0  0  0  0  0  0  0
   14.9190    4.0650    9.8040 C   0  0  0  0  0  0  0  0  0  0  0  0
   15.7190   10.1370   14.8520 C   0  0  2  0  0  0  0  0  0  0  0  0
   15.6780    4.5360    8.7400 C   0  0  0  0  0  0  0  0  0  0  0  0
   14.3090    2.8170    9.6890 C   0  0  0  0  0  0  0  0  0  0  0  0
   14.3180   11.1200   12.8340 C   0  0  2  0  0  0  0  0  0  0  0  0
   16.4680    9.9600   12.3750 C   0  0  0  0  0  0  0  0  0  0  0  0
   16.7410   11.0950   15.1200 O   0  0  0  0  0  0  0  0  0  0  0  0
   15.7940    3.7370    7.6090 C   0  0  0  0  0  0  0  0  0  0  0  0
   14.4840    2.0960    8.5180 C   0  0  0  0  0  0  0  0  0  0  0  0
   13.9440   10.9730   11.4030 C   0  0  2  0  0  0  0  0  0  0  0  0
   13.9590   12.4460   13.4210 C   0  0  0  0  0  0  0  0  0  0  0  0
   16.1010    9.7260   11.1450 C   0  0  0  0  0  0  0  0  0  0  0  0
   16.2420   12.2440   15.8060 C   0  0  0  0  0  0  0  0  0  0  0  0
   15.2130    2.5280    7.4730 N   0  0  0  0  0  0  0  0  0  0  0  0
   12.5000   10.9220   11.5040 N   0  0  0  0  0  0  0  0  0  0  0  0
   12.5020   12.1840   13.7680 C   0  0  2  0  0  0  0  0  0  0  0  0
   14.6110    9.6970   10.8460 C   0  0  0  0  0  0  0  0  0  0  0  0
   11.7570   11.5130   12.5560 C   0  0  0  0  0  0  0  0  0  0  0  0
   11.9100   13.4180   14.2810 N   0  0  0  0  0  0  0  0  0  0  0  0
   12.3760   11.1950   14.9490 C   0  0  0  0  0  0  0  0  0  0  0  0
   10.5350   11.4300   12.4960 O   0  0  0  0  0  0  0  0  0  0  0  0
   11.7020   11.9710   16.0610 C   0  0  0  0  0  0  0  0  0  0  0  0
   12.0560   13.3990   15.7290 C   0  0  0  0  0  0  0  0  0  0  0  0
  1  2  1  0
  2  3  1  0
  4  1  1  1
  2  5  2  0
  4  6  1  0
  4  7  1  0
  6  8  2  0
  9  7  1  1
  3 10  1  0
  8 11  1  0
  9 11  1  0
 10 12  2  0
 10 13  1  0
  9 14  1  0
  9 15  1  0
 11 16  1  6
 12 17  1  0
 13 18  2  0
 14 19  1  0
 14 20  1  6
 15 21  2  0
 16 22  1  0
 17 23  2  0
 18 23  1  0
 19 24  1  0
 25 20  1  6
 19 26  1  1
 21 26  1  0
 24 27  1  0
 25 27  1  0
 25 28  1  0
 25 29  1  0
 27 30  2  0
 29 31  1  0
 28 32  1  0
 31 32  1  0
M  END
