diamond-x0253_0_A-diamond-x0969_0_A
     RDKit          3D

 27 29  0  0  0  0  0  0  0  0999 V2000
    0.3560   12.0040   -5.4000 N   0  0  0  0  0  0  0  0  0  0  0  0
    1.0710   11.6840   -6.5250 C   0  0  0  0  0  0  0  0  0  0  0  0
    2.1870   12.1480   -6.6500 O   0  0  0  0  0  0  0  0  0  0  0  0
    1.0340   12.7470   -4.3440 C   0  0  0  0  0  0  0  0  0  0  0  0
    0.6180   12.2960   -2.9430 C   0  0  0  0  0  0  0  0  0  0  0  0
    0.4550   10.7520   -7.5180 C   0  0  0  0  0  0  0  0  0  0  0  0
    0.4140   13.1260   -1.9760 N   0  0  0  0  0  0  0  0  0  0  0  0
    0.4660   10.9640   -2.7730 O   0  0  0  0  0  0  0  0  0  0  0  0
   -0.5210    9.8360   -7.1170 C   0  0  0  0  0  0  0  0  0  0  0  0
    0.8500   10.7810   -8.8670 C   0  0  0  0  0  0  0  0  0  0  0  0
    0.5680   14.5730   -2.1660 C   0  0  0  0  0  0  0  0  0  0  0  0
   -1.0960    8.9630   -8.0480 C   0  0  0  0  0  0  0  0  0  0  0  0
    0.2830    9.9160   -9.7960 C   0  0  0  0  0  0  0  0  0  0  0  0
   -2.1490    7.9760   -7.6270 C   0  0  0  0  0  0  0  0  0  0  0  0
   -0.5180   15.3210   -1.3530 C   0  0  0  0  0  0  0  0  0  0  0  0
   -0.6880    9.0080   -9.3890 C   0  0  0  0  0  0  0  0  0  0  0  0
   -1.9100   15.4470   -2.0280 C   0  0  0  0  0  0  0  0  0  0  0  0
   -3.1750   15.2950   -1.1910 C   0  0  0  0  0  0  0  0  0  0  0  0
   -4.4220   15.0800   -1.6860 C   0  0  0  0  0  0  0  0  0  0  0  0
   -2.9780   15.3870    0.2590 C   0  0  0  0  0  0  0  0  0  0  0  0
   -5.5280   14.9150   -0.8090 C   0  0  0  0  0  0  0  0  0  0  0  0
   -4.0230   15.2350    1.0890 C   0  0  0  0  0  0  0  0  0  0  0  0
   -6.8090   14.6840   -1.0210 N   0  0  0  0  0  0  0  0  0  0  0  0
   -5.2880   14.9910    0.5490 N   0  0  0  0  0  0  0  0  0  0  0  0
   -6.5260   14.7760    1.1370 C   0  0  0  0  0  0  0  0  0  0  0  0
   -7.4300   14.5970    0.2010 N   0  0  0  0  0  0  0  0  0  0  0  0
   -6.7460   14.7680    2.4680 N   0  0  0  0  0  0  0  0  0  0  0  0
  1  2  1  0
  2  3  2  0
  1  4  1  0
  4  5  1  0
  2  6  1  0
  5  7  2  3
  5  8  1  0
  6  9  2  0
  6 10  1  0
  7 11  1  0
  9 12  1  0
 10 13  2  0
 12 14  1  0
 11 15  1  0
 12 16  2  0
 13 16  1  0
 15 17  1  0
 17 18  1  0
 18 19  2  0
 18 20  1  0
 19 21  1  0
 20 22  2  0
 21 23  2  0
 21 24  1  0
 22 24  1  0
 24 25  1  0
 23 26  1  0
 25 26  2  0
 25 27  1  0
M  END
