diamond-x0742_0_A-mac-x0584
     RDKit          3D

 24 28  0  0  0  0  0  0  0  0999 V2000
   -5.4850   12.2450   -0.5440 C   0  0  0  0  0  0  0  0  0  0  0  0
   -6.4890   11.7030    0.4400 C   0  0  0  0  0  0  0  0  0  0  0  0
   -5.0870   11.5350   -1.4740 O   0  0  0  0  0  0  0  0  0  0  0  0
   -5.0150   13.7090   -0.3670 C   0  0  2  0  0  0  0  0  0  0  0  0
   -4.6020   13.8560    1.0650 C   0  0  0  0  0  0  0  0  0  0  0  0
   -6.2440   14.6080   -0.6140 C   0  0  0  0  0  0  0  0  0  0  0  0
   -3.9480   14.1060   -1.4640 C   0  0  1  0  0  0  0  0  0  0  0  0
   -4.7050   15.1410   -2.3210 C   0  0  0  0  0  0  0  0  0  0  0  0
   -2.5910   14.6700   -0.9250 C   0  0  2  0  0  0  0  0  0  0  0  0
   -3.3350   14.0080    1.4380 C   0  0  0  0  0  0  0  0  0  0  0  0
   -5.7160   15.7840   -1.3970 C   0  0  0  0  0  0  0  0  0  0  0  0
   -1.3300   14.7670   -1.9350 C   0  0  1  0  0  0  0  0  0  0  0  0
   -2.2220   14.0330    0.4400 C   0  0  2  0  0  0  0  0  0  0  0  0
   -1.1080   14.7040    1.0460 N   0  0  0  0  0  0  0  0  0  0  0  0
   -0.0510   14.9840   -1.0850 C   0  0  0  0  0  0  0  0  0  0  0  0
   -1.2210   13.8980   -3.2600 C   0  0  2  0  0  0  0  0  0  0  0  0
   -1.5440   16.1240   -2.7010 C   0  0  0  0  0  0  0  0  0  0  0  0
   -0.0280   14.9510    0.2650 C   0  0  0  0  0  0  0  0  0  0  0  0
   -0.4540   12.6220   -3.4440 C   0  0  0  0  0  0  0  0  0  0  0  0
   -0.8150   14.8140   -4.4320 C   0  0  0  0  0  0  0  0  0  0  0  0
   -1.7630   15.9280   -4.1990 C   0  0  0  0  0  0  0  0  0  0  0  0
    0.9970   12.2250   -3.0820 C   0  0  0  0  0  0  0  0  0  0  0  0
   -0.9080   11.4130   -2.6250 C   0  0  0  0  0  0  0  0  0  0  0  0
    0.3960   10.7940   -3.0700 C   0  0  0  0  0  0  0  0  0  0  0  0
  1  2  1  0
  1  3  2  0
  4  1  1  6
  4  5  1  0
  4  6  1  0
  4  7  1  0
  7  8  1  6
  7  9  1  0
  5 10  2  0
  6 11  1  0
  8 11  1  0
  9 12  1  0
  9 13  1  1
 13 10  1  1
 13 14  1  0
 12 15  1  1
 12 16  1  0
 12 17  1  0
 14 18  1  0
 15 18  2  0
 16 19  1  1
 16 20  1  0
 17 21  1  0
 20 21  1  0
 19 22  1  0
 19 23  1  0
 22 24  1  0
 23 24  1  0
M  END
