diamond-x0104_0_A-mac-x0255
     RDKit          3D

 31 34  0  0  0  0  0  0  0  0999 V2000
   -6.7330   14.8050    2.6420 N   0  0  0  0  0  0  0  0  0  0  0  0
   -8.0240   15.0810    3.0920 C   0  0  0  0  0  0  0  0  0  0  0  0
   -8.0520   15.0930    4.4840 N   0  0  0  0  0  0  0  0  0  0  0  0
   -6.2300   14.7610    1.3230 C   0  0  0  0  0  0  0  0  0  0  0  0
   -8.9810   15.2840    2.3570 O   0  0  0  0  0  0  0  0  0  0  0  0
   -4.8440   14.8680    1.1550 C   0  0  0  0  0  0  0  0  0  0  0  0
   -6.9890   14.6220    0.1690 C   0  0  0  0  0  0  0  0  0  0  0  0
   -4.1960   14.8410   -0.0310 N   0  0  0  0  0  0  0  0  0  0  0  0
   -6.3520   14.5930   -1.0780 C   0  0  0  0  0  0  0  0  0  0  0  0
   -9.1890   15.0820    5.2770 C   0  0  0  0  0  0  0  0  0  0  0  0
   -4.9620   14.7010   -1.1290 C   0  0  0  0  0  0  0  0  0  0  0  0
   -9.2240   15.1950    6.6500 C   0  0  0  0  0  0  0  0  0  0  0  0
  -10.7480   14.9160    4.6190 S   0  0  0  0  0  0  0  0  0  0  0  0
   -4.3750   14.6500   -2.3890 O   0  0  0  0  0  0  0  0  0  0  0  0
  -11.4870   14.9930    6.1560 C   0  0  0  0  0  0  0  0  0  0  0  0
  -10.5580   15.1440    7.1630 C   0  0  0  0  0  0  0  0  0  0  0  0
   -3.0920   15.2940   -2.5410 C   0  0  0  0  0  0  0  0  0  0  0  0
   -1.8960   14.3180   -2.7070 C   0  0  0  0  0  0  0  0  0  0  0  0
   -0.8840   14.7330   -3.7810 C   0  0  0  0  0  0  0  0  0  0  0  0
    0.1340   13.9350   -4.3040 C   0  0  0  0  0  0  0  0  0  0  0  0
   -0.8840   16.0490   -4.3980 C   0  0  0  0  0  0  0  0  0  0  0  0
    0.6060   12.5280   -4.0710 C   0  0  0  0  0  0  0  0  0  0  0  0
    0.0830   16.1990   -5.3210 C   0  0  0  0  0  0  0  0  0  0  0  0
    0.9940   14.7770   -5.4530 S   0  0  0  0  0  0  0  0  0  0  0  0
   -1.7010   17.1570   -4.2040 C   0  0  0  0  0  0  0  0  0  0  0  0
    0.5710   12.1000   -2.6370 C   0  0  0  0  0  0  0  0  0  0  0  0
   -1.5610   18.3530   -4.9030 C   0  0  0  0  0  0  0  0  0  0  0  0
    0.2440   17.3940   -6.0290 C   0  0  0  0  0  0  0  0  0  0  0  0
    1.0610   13.0410   -1.8040 O   0  0  0  0  0  0  0  0  0  0  0  0
    0.1720   11.0440   -2.1860 O   0  0  0  0  0  0  0  0  0  0  0  0
   -0.5880   18.4680   -5.8170 C   0  0  0  0  0  0  0  0  0  0  0  0
  1  2  1  0
  2  3  1  0
  1  4  1  0
  2  5  2  0
  4  6  2  0
  4  7  1  0
  6  8  1  0
  7  9  2  0
  3 10  1  0
  8 11  2  0
  9 11  1  0
 10 12  2  0
 10 13  1  0
 11 14  1  0
 13 15  1  0
 12 16  1  0
 15 16  2  0
 14 17  1  0
 17 18  1  0
 18 19  1  0
 19 20  2  0
 19 21  1  0
 20 22  1  0
 21 23  2  0
 20 24  1  0
 23 24  1  0
 21 25  1  0
 22 26  1  0
 25 27  2  0
 23 28  1  0
 26 29  1  0
 26 30  2  0
 27 31  1  0
 28 31  2  0
M  END
