diamond-x0628_0_A-mac-x0271
     RDKit          3D

 26 28  0  0  0  0  0  0  0  0999 V2000
   -0.8260    8.9670   -7.2480 C   0  0  0  0  0  0  0  0  0  0  0  0
   -0.8460   10.2020   -6.4440 C   0  0  0  0  0  0  0  0  0  0  0  0
   -1.8820   10.5300   -5.6120 N   0  0  0  0  0  0  0  0  0  0  0  0
    0.1500   11.0920   -6.4680 N   0  0  0  0  0  0  0  0  0  0  0  0
   -0.2830   12.0270   -5.5980 N   0  0  0  0  0  0  0  0  0  0  0  0
   -1.5120   11.6840   -5.0870 C   0  0  0  0  0  0  0  0  0  0  0  0
   -2.2990   12.4820   -4.1050 C   0  0  0  0  0  0  0  0  0  0  0  0
    0.5480   13.1880   -5.3440 C   0  0  0  0  0  0  0  0  0  0  0  0
    1.6290   12.9450   -4.2910 C   0  0  0  0  0  0  0  0  0  0  0  0
   -2.5280   13.9190   -4.5950 C   0  0  0  0  0  0  0  0  0  0  0  0
    1.0930   12.2400   -3.0710 C   0  0  0  0  0  0  0  0  0  0  0  0
   -3.8200   14.5630   -4.0930 C   0  0  0  0  0  0  0  0  0  0  0  0
    0.4020   11.2350   -3.0620 O   0  0  0  0  0  0  0  0  0  0  0  0
    1.4520   12.8560   -1.9260 O   0  0  0  0  0  0  0  0  0  0  0  0
   -3.5830   15.4080   -2.9680 O   0  0  0  0  0  0  0  0  0  0  0  0
   -4.3560   15.2560   -1.8520 C   0  0  0  0  0  0  0  0  0  0  0  0
   -5.7470   15.1860   -1.8100 C   0  0  0  0  0  0  0  0  0  0  0  0
   -3.6280   15.1690   -0.6570 C   0  0  0  0  0  0  0  0  0  0  0  0
   -6.3810   15.0270   -0.5760 C   0  0  0  0  0  0  0  0  0  0  0  0
   -4.2730   15.0130    0.5710 C   0  0  0  0  0  0  0  0  0  0  0  0
   -5.6620   14.9390    0.6110 C   0  0  0  0  0  0  0  0  0  0  0  0
   -7.7920   14.9560   -0.5690 O   0  0  0  0  0  0  0  0  0  0  0  0
   -6.3860   14.7750    1.8580 C   0  0  0  0  0  0  0  0  0  0  0  0
   -8.5090   14.8720    0.6210 C   0  0  0  0  0  0  0  0  0  0  0  0
   -9.7340   14.9110    0.6550 O   0  0  0  0  0  0  0  0  0  0  0  0
   -7.7230   14.7410    1.8590 C   0  0  0  0  0  0  0  0  0  0  0  0
  1  2  1  0
  2  3  1  0
  2  4  2  0
  4  5  1  0
  3  6  2  0
  5  6  1  0
  6  7  1  0
  5  8  1  0
  8  9  1  0
  7 10  1  0
  9 11  1  0
 10 12  1  0
 11 13  2  0
 11 14  1  0
 12 15  1  0
 15 16  1  0
 16 17  2  0
 16 18  1  0
 17 19  1  0
 18 20  2  0
 19 21  2  0
 20 21  1  0
 19 22  1  0
 21 23  1  0
 22 24  1  0
 24 25  2  0
 23 26  2  0
 24 26  1  0
M  END
