diamond-x0438_0_A-mac-x0415
     RDKit          3D

 30 33  0  0  0  0  0  0  0  0999 V2000
   -8.1240   15.4360    3.7560 C   0  0  0  0  0  0  0  0  0  0  0  0
   -9.3510   15.2740    2.4790 S   0  0  0  0  0  0  0  0  0  0  0  0
  -10.5600   14.7520    3.0910 O   0  0  0  0  0  0  0  0  0  0  0  0
   -8.7360   14.0650    1.3120 C   0  0  0  0  0  0  0  0  0  0  0  0
   -9.4390   16.5320    1.7720 O   0  0  0  0  0  0  0  0  0  0  0  0
   -7.3290   14.3230    0.9010 C   0  0  0  0  0  0  0  0  0  0  0  0
   -6.9610   14.5700   -0.4060 N   0  0  0  0  0  0  0  0  0  0  0  0
   -6.2830   14.3390    1.6850 N   0  0  0  0  0  0  0  0  0  0  0  0
   -5.2020   14.5980    0.8800 C   0  0  0  0  0  0  0  0  0  0  0  0
   -5.5860   14.7480   -0.4440 C   0  0  0  0  0  0  0  0  0  0  0  0
   -4.6670   15.0180   -1.4820 C   0  0  0  0  0  0  0  0  0  0  0  0
   -3.8500   14.7170    1.2340 C   0  0  0  0  0  0  0  0  0  0  0  0
   -5.0250   15.2040   -2.9140 C   0  0  0  0  0  0  0  0  0  0  0  0
   -3.3280   15.1250   -1.0870 C   0  0  0  0  0  0  0  0  0  0  0  0
   -2.9230   14.9800    0.2330 C   0  0  0  0  0  0  0  0  0  0  0  0
   -4.5540   14.3470   -4.0930 C   0  0  0  0  0  0  0  0  0  0  0  0
   -3.9460   15.1640   -5.1270 O   0  0  0  0  0  0  0  0  0  0  0  0
   -2.6000   15.4150   -5.0470 C   0  0  0  0  0  0  0  0  0  0  0  0
   -2.1460   16.7070   -5.6120 C   0  0  0  0  0  0  0  0  0  0  0  0
   -1.7120   14.5640   -4.4980 C   0  0  0  0  0  0  0  0  0  0  0  0
   -0.3410   14.9540   -4.4720 C   0  0  0  0  0  0  0  0  0  0  0  0
   -0.9090   17.1940   -5.3330 C   0  0  0  0  0  0  0  0  0  0  0  0
    0.7510   14.2030   -4.4530 C   0  0  0  0  0  0  0  0  0  0  0  0
   -0.0420   16.3980   -4.4200 C   0  0  2  0  0  0  0  0  0  0  0  0
    1.0060   12.7520   -4.4410 C   0  0  0  0  0  0  0  0  0  0  0  0
    1.7690   15.2380   -4.4660 C   0  0  0  0  0  0  0  0  0  0  0  0
    1.3930   16.4760   -4.5050 N   0  0  0  0  0  0  0  0  0  0  0  0
    0.7830   12.1270   -3.0700 C   0  0  0  0  0  0  0  0  0  0  0  0
    0.1010   10.9760   -2.9890 O   0  0  0  0  0  0  0  0  0  0  0  0
    1.2000   12.6470   -2.0400 O   0  0  0  0  0  0  0  0  0  0  0  0
  2  1  1  0
  2  3  2  0
  2  4  1  0
  2  5  2  0
  4  6  1  0
  6  7  1  0
  6  8  2  0
  8  9  1  0
  7 10  1  0
  9 10  2  0
 10 11  1  0
  9 12  1  0
 11 13  1  0
 11 14  2  0
 12 15  2  0
 14 15  1  0
 13 16  1  0
 16 17  1  0
 17 18  1  0
 18 19  1  0
 18 20  2  0
 20 21  1  0
 19 22  2  0
 21 23  2  0
 21 24  1  0
 24 22  1  6
 23 25  1  0
 23 26  1  0
 24 27  1  0
 26 27  2  0
 25 28  1  0
 28 29  1  0
 28 30  2  0
M  END
