diamond-x0837_0_A-mac-x0436
     RDKit          3D

 25 27  0  0  0  0  0  0  0  0999 V2000
   -7.5010   14.8380    0.1900 O   0  0  0  0  0  0  0  0  0  0  0  0
   -6.2770   14.7240    0.1730 C   0  0  0  0  0  0  0  0  0  0  0  0
   -5.5060   14.8160    1.3790 N   0  0  0  0  0  0  0  0  0  0  0  0
   -5.5520   14.4730   -1.0930 C   0  0  0  0  0  0  0  0  0  0  0  0
   -4.0600   14.8400    1.2600 C   0  0  0  0  0  0  0  0  0  0  0  0
   -4.2650   15.2080   -1.1230 C   0  0  2  0  0  0  0  0  0  0  0  0
   -3.1530   14.7670   -2.8990 I   0  0  0  0  0  0  0  0  0  0  0  0
   -3.4950   15.0190    0.1020 C   0  0  0  0  0  0  0  0  0  0  0  0
   -1.8490   13.0390   -2.5480 C   0  0  0  0  0  0  0  0  0  0  0  0
   -2.0840   12.1120   -3.5610 N   0  0  0  0  0  0  0  0  0  0  0  0
   -1.6530   11.6490   -4.6610 C   0  0  0  0  0  0  0  0  0  0  0  0
   -0.5290   12.0280   -5.3720 C   0  0  0  0  0  0  0  0  0  0  0  0
   -2.3810   10.6190   -5.2520 N   0  0  0  0  0  0  0  0  0  0  0  0
    0.2430   13.2720   -5.0700 C   0  0  0  0  0  0  0  0  0  0  0  0
   -1.8500    9.8300   -6.1860 C   0  0  0  0  0  0  0  0  0  0  0  0
   -0.0600   11.2680   -6.4160 N   0  0  0  0  0  0  0  0  0  0  0  0
    1.5630   12.9630   -4.3540 C   0  0  0  0  0  0  0  0  0  0  0  0
   -0.6580   10.1350   -6.8050 C   0  0  0  0  0  0  0  0  0  0  0  0
   -2.4910    8.6480   -6.5800 C   0  0  0  0  0  0  0  0  0  0  0  0
    1.2240   12.3610   -3.0040 C   0  0  0  0  0  0  0  0  0  0  0  0
   -0.1380    9.3000   -7.7660 C   0  0  0  0  0  0  0  0  0  0  0  0
   -1.9560    7.8230   -7.5460 C   0  0  0  0  0  0  0  0  0  0  0  0
    0.5500   11.1700   -2.9700 O   0  0  0  0  0  0  0  0  0  0  0  0
    1.5400   12.9150   -1.9420 O   0  0  0  0  0  0  0  0  0  0  0  0
   -0.7560    8.1330   -8.1670 C   0  0  0  0  0  0  0  0  0  0  0  0
  1  2  2  0
  2  3  1  0
  2  4  1  0
  3  5  1  0
  4  6  1  0
  6  7  1  6
  5  8  2  0
  6  8  1  0
  7  9  1  0
  9 10  1  0
 10 11  2  3
 11 12  1  0
 11 13  1  0
 12 14  1  0
 13 15  1  0
 12 16  2  0
 14 17  1  0
 15 18  2  0
 16 18  1  0
 15 19  1  0
 17 20  1  0
 18 21  1  0
 19 22  2  0
 20 23  1  0
 20 24  2  0
 21 25  2  0
 22 25  1  0
M  END
