diamond-x0711_0_A-diamond-x0837_0_A
     RDKit          3D

 14 14  0  0  0  0  0  0  0  0999 V2000
   -1.5490   15.0590   -2.5560 N   0  0  0  0  0  0  0  0  0  0  0  0
   -0.5610   13.8070   -3.0690 S   0  0  0  0  0  0  0  0  0  0  0  0
   -1.6720   12.7540   -3.9710 C   0  0  0  0  0  0  0  0  0  0  0  0
   -2.7770   14.9310   -1.8380 C   0  0  0  0  0  0  0  0  0  0  0  0
    0.3160   14.4310   -4.0360 O   0  0  0  0  0  0  0  0  0  0  0  0
   -0.0280   13.0900   -1.9340 O   0  0  0  0  0  0  0  0  0  0  0  0
   -3.9950   15.1670   -2.4730 C   0  0  0  0  0  0  0  0  0  0  0  0
   -2.7620   14.5820   -0.4800 C   0  0  0  0  0  0  0  0  0  0  0  0
   -5.1970   15.0640   -1.7700 C   0  0  0  0  0  0  0  0  0  0  0  0
   -3.9660   14.4750    0.2280 C   0  0  0  0  0  0  0  0  0  0  0  0
   -5.1920   14.7170   -0.4130 C   0  0  0  0  0  0  0  0  0  0  0  0
   -6.4530   14.5980    0.3720 C   0  0  0  0  0  0  0  0  0  0  0  0
   -6.4000   14.6820    1.7380 N   0  0  0  0  0  0  0  0  0  0  0  0
   -7.5310   14.4400   -0.1900 O   0  0  0  0  0  0  0  0  0  0  0  0
  2  1  1  0
  2  3  1  0
  1  4  1  0
  2  5  2  0
  2  6  2  0
  4  7  2  0
  4  8  1  0
  7  9  1  0
  8 10  2  0
  9 11  2  0
 10 11  1  0
 11 12  1  0
 12 13  1  0
 12 14  2  0
M  END
