diamond-x0844_0_A-diamond-x0766_0_A
     RDKit          3D

 20 22  0  0  0  0  0  0  0  0999 V2000
   -7.5090   14.4960   -0.6770 O   0  0  0  0  0  0  0  0  0  0  0  0
   -6.2900   14.4760   -0.5050 C   0  0  0  0  0  0  0  0  0  0  0  0
   -5.7690   14.4270    0.7430 N   0  0  0  0  0  0  0  0  0  0  0  0
   -5.2520   14.5290   -1.6240 C   0  0  0  0  0  0  0  0  0  0  0  0
   -4.8930   15.3660    1.1090 C   0  0  0  0  0  0  0  0  0  0  0  0
   -4.0200   15.3980   -1.2710 C   0  0  1  0  0  0  0  0  0  0  0  0
   -4.0710   15.8630    0.1920 C   0  0  0  0  0  0  0  0  0  0  0  0
   -2.6110   14.8220   -1.2410 C   0  0  0  0  0  0  0  0  0  0  0  0
   -1.4090   14.4700   -1.9680 C   0  0  0  0  0  0  0  0  0  0  0  0
   -2.4570   14.4910    0.4340 S   0  0  0  0  0  0  0  0  0  0  0  0
   -0.7960   14.4670   -3.3950 C   0  0  2  0  0  0  0  0  0  0  0  0
   -0.4730   13.9630   -0.9920 C   0  0  0  0  0  0  0  0  0  0  0  0
   -0.9080   13.9290    0.2920 C   0  0  0  0  0  0  0  0  0  0  0  0
    0.4600   13.5440   -3.3880 C   0  0  1  0  0  0  0  0  0  0  0  0
   -0.0750   15.7170   -3.9460 C   0  0  0  0  0  0  0  0  0  0  0  0
    0.2630   12.1060   -2.9810 C   0  0  0  0  0  0  0  0  0  0  0  0
    1.0730   13.7300   -4.7590 C   0  0  0  0  0  0  0  0  0  0  0  0
    1.1460   15.2430   -4.7710 C   0  0  0  0  0  0  0  0  0  0  0  0
    0.6640   11.6260   -1.9450 O   0  0  0  0  0  0  0  0  0  0  0  0
   -0.4070   11.3550   -3.8740 O   0  0  0  0  0  0  0  0  0  0  0  0
  1  2  2  0
  2  3  1  0
  2  4  1  0
  3  5  1  0
  4  6  1  0
  5  7  2  0
  6  7  1  0
  6  8  1  1
  8  9  2  0
  8 10  1  0
 11  9  1  1
  9 12  1  0
 10 13  1  0
 12 13  2  0
 11 14  1  0
 11 15  1  0
 14 16  1  6
 14 17  1  0
 15 18  1  0
 17 18  1  0
 16 19  2  0
 16 20  1  0
M  END
