diamond-x0685_0_A-mac-x0527
     RDKit          3D

 19 20  0  0  0  0  0  0  0  0999 V2000
   -5.7280   14.6160    2.6700 N   0  0  0  0  0  0  0  0  0  0  0  0
   -7.1840   14.7130    2.7330 C   0  0  0  0  0  0  0  0  0  0  0  0
   -7.8150   13.3850    3.1170 C   0  0  0  0  0  0  0  0  0  0  0  0
   -5.0890   14.7740    1.4350 C   0  0  0  0  0  0  0  0  0  0  0  0
   -3.7080   14.8440    1.3220 C   0  0  0  0  0  0  0  0  0  0  0  0
   -5.8820   14.8580    0.3460 N   0  0  0  0  0  0  0  0  0  0  0  0
   -3.1170   15.0080    0.0650 C   0  0  0  0  0  0  0  0  0  0  0  0
   -5.2860   15.0180   -0.8740 C   0  0  0  0  0  0  0  0  0  0  0  0
   -3.9030   15.1040   -1.0950 C   0  0  0  0  0  0  0  0  0  0  0  0
   -3.3400   15.2960   -2.5120 C   0  0  2  0  0  0  0  0  0  0  0  0
   -3.9830   14.4740   -3.4960 N   0  0  0  0  0  0  0  0  0  0  0  0
   -1.9150   15.0210   -2.7540 N   0  0  0  0  0  0  0  0  0  0  0  0
   -1.4940   15.0620   -4.1810 C   0  0  0  0  0  0  0  0  0  0  0  0
   -1.2050   13.6960   -4.8290 C   0  0  0  0  0  0  0  0  0  0  0  0
   -2.2490   12.7960   -5.1300 C   0  0  0  0  0  0  0  0  0  0  0  0
    0.1040   13.2970   -5.1480 C   0  0  0  0  0  0  0  0  0  0  0  0
   -1.9930   11.5470   -5.7090 C   0  0  0  0  0  0  0  0  0  0  0  0
    0.3550   12.0480   -5.7350 C   0  0  0  0  0  0  0  0  0  0  0  0
   -0.6930   11.1730   -6.0100 C   0  0  0  0  0  0  0  0  0  0  0  0
  1  2  1  0
  2  3  1  0
  1  4  1  0
  4  5  2  0
  4  6  1  0
  5  7  1  0
  6  8  2  0
  7  9  2  0
  8  9  1  0
  9 10  1  0
 10 11  1  6
 10 12  1  0
 12 13  1  0
 13 14  1  0
 14 15  2  0
 14 16  1  0
 15 17  1  0
 16 18  2  0
 17 19  2  0
 18 19  1  0
M  END
