diamond-x0864_0_A-mac-x0283
     RDKit          3D

 25 27  0  0  0  0  0  0  0  0999 V2000
    1.5320   11.8120   -6.9040 O   0  0  0  0  0  0  0  0  0  0  0  0
    0.4990   11.3200   -6.4770 C   0  0  0  0  0  0  0  0  0  0  0  0
   -0.1480   11.7370   -5.3270 N   0  0  0  0  0  0  0  0  0  0  0  0
   -0.1180   10.1860   -7.2060 C   0  0  0  0  0  0  0  0  0  0  0  0
    0.4940   12.7990   -4.5570 C   0  0  0  0  0  0  0  0  0  0  0  0
   -1.3320   11.1690   -4.8920 C   0  0  0  0  0  0  0  0  0  0  0  0
   -1.2540    9.6410   -6.7530 C   0  0  0  0  0  0  0  0  0  0  0  0
    0.5650   12.4670   -3.0770 C   0  0  0  0  0  0  0  0  0  0  0  0
   -2.0670    8.2080   -7.6270 Br  0  0  0  0  0  0  0  0  0  0  0  0
   -1.8900   10.1520   -5.5640 C   0  0  0  0  0  0  0  0  0  0  0  0
    0.6540   11.1580   -2.7820 O   0  0  0  0  0  0  0  0  0  0  0  0
    0.5500   13.2700   -2.0730 N   0  0  0  0  0  0  0  0  0  0  0  0
    0.4390   14.7100   -2.3420 C   0  0  0  0  0  0  0  0  0  0  0  0
   -0.7090   15.3330   -1.5200 C   0  0  0  0  0  0  0  0  0  0  0  0
   -2.0680   15.4990   -2.2430 C   0  0  0  0  0  0  0  0  0  0  0  0
   -3.2490   15.3180   -1.3080 C   0  0  0  0  0  0  0  0  0  0  0  0
   -4.5690   15.1480   -1.7950 C   0  0  0  0  0  0  0  0  0  0  0  0
   -3.0040   15.3180    0.0710 C   0  0  0  0  0  0  0  0  0  0  0  0
   -5.5720   14.9730   -0.8290 C   0  0  0  0  0  0  0  0  0  0  0  0
   -4.0310   15.1420    1.0010 C   0  0  0  0  0  0  0  0  0  0  0  0
   -6.9030   14.7860   -1.0520 O   0  0  0  0  0  0  0  0  0  0  0  0
   -5.3400   14.9610    0.5310 C   0  0  0  0  0  0  0  0  0  0  0  0
   -6.6210   14.7490    1.0970 C   0  0  0  0  0  0  0  0  0  0  0  0
   -7.5650   14.6440    0.1600 N   0  0  0  0  0  0  0  0  0  0  0  0
   -6.8400   14.6720    2.4250 N   0  0  0  0  0  0  0  0  0  0  0  0
  1  2  2  0
  2  3  1  0
  2  4  1  0
  3  5  1  0
  3  6  1  0
  4  7  2  0
  5  8  1  0
  7  9  1  0
  6 10  2  0
  7 10  1  0
  8 11  1  0
  8 12  2  3
 12 13  1  0
 13 14  1  0
 14 15  1  0
 15 16  1  0
 16 17  2  0
 16 18  1  0
 17 19  1  0
 18 20  2  0
 19 21  1  0
 19 22  2  0
 20 22  1  0
 22 23  1  0
 21 24  1  0
 23 24  2  0
 23 25  1  0
M  END
