diamond-x0253_0_A-diamond-x0662_0_A
     RDKit          3D

 24 25  0  0  0  0  0  0  0  0999 V2000
    0.2990   12.0020   -5.3220 C   0  0  0  0  0  0  0  0  0  0  0  0
    1.0430   11.6490   -6.5740 C   0  0  0  0  0  0  0  0  0  0  0  0
    2.1590   12.1320   -6.6540 O   0  0  0  0  0  0  0  0  0  0  0  0
    1.0770   12.8250   -4.3500 C   0  0  0  0  0  0  0  0  0  0  0  0
   -0.8510   11.6190   -5.1380 O   0  0  0  0  0  0  0  0  0  0  0  0
    0.9140   12.3440   -2.9470 C   0  0  0  0  0  0  0  0  0  0  0  0
    0.4570   10.7270   -7.5790 C   0  0  0  0  0  0  0  0  0  0  0  0
    1.2550   12.9330   -1.9410 O   0  0  0  0  0  0  0  0  0  0  0  0
    0.3280   11.1370   -2.8620 O   0  0  0  0  0  0  0  0  0  0  0  0
   -0.5620    9.8380   -7.2430 C   0  0  0  0  0  0  0  0  0  0  0  0
    0.9390   10.7420   -8.8870 C   0  0  0  0  0  0  0  0  0  0  0  0
   -1.0900    8.9750   -8.2090 C   0  0  0  0  0  0  0  0  0  0  0  0
    0.4420    9.8950   -9.8570 C   0  0  0  0  0  0  0  0  0  0  0  0
   -2.1910    8.0230   -7.8350 C   0  0  0  0  0  0  0  0  0  0  0  0
    1.0510   10.0190  -11.1130 N   0  0  0  0  0  0  0  0  0  0  0  0
   -0.5810    9.0060   -9.5220 C   0  0  0  0  0  0  0  0  0  0  0  0
    2.1680    9.3080  -11.5100 C   0  0  0  0  0  0  0  0  0  0  0  0
    2.5650    8.2650  -11.0030 O   0  0  0  0  0  0  0  0  0  0  0  0
    2.9010    9.9120  -12.6400 C   0  0  0  0  0  0  0  0  0  0  0  0
    2.7450   11.2020  -13.2200 C   0  0  0  0  0  0  0  0  0  0  0  0
    3.8740    9.2160  -13.2630 N   0  0  0  0  0  0  0  0  0  0  0  0
    4.3200   10.0540  -14.2150 N   0  0  0  0  0  0  0  0  0  0  0  0
    3.6750   11.2570  -14.2320 C   0  0  0  0  0  0  0  0  0  0  0  0
    5.3900    9.6200  -15.0820 C   0  0  0  0  0  0  0  0  0  0  0  0
  1  2  1  0
  2  3  2  0
  1  4  1  0
  1  5  2  0
  4  6  1  0
  2  7  1  0
  6  8  2  0
  6  9  1  0
  7 10  2  0
  7 11  1  0
 10 12  1  0
 11 13  2  0
 12 14  1  0
 13 15  1  0
 12 16  2  0
 13 16  1  0
 15 17  1  0
 17 18  2  0
 17 19  1  0
 19 20  1  0
 19 21  2  0
 21 22  1  0
 20 23  2  0
 22 23  1  0
 22 24  1  0
M  END
