diamond-x0742_0_A-diamond-x0626_0_A
     RDKit          3D

 22 24  0  0  0  0  0  0  0  0999 V2000
   -5.3410   12.0090   -1.0560 C   0  0  0  0  0  0  0  0  0  0  0  0
   -6.4980   11.5430   -0.1910 C   0  0  0  0  0  0  0  0  0  0  0  0
   -4.9800   11.3350   -2.0170 O   0  0  0  0  0  0  0  0  0  0  0  0
   -4.6720   13.3340   -0.6580 C   0  0  2  0  0  0  0  0  0  0  0  0
   -4.5070   13.2100    0.8610 C   0  0  0  0  0  0  0  0  0  0  0  0
   -5.5850   14.4510   -1.2210 C   0  0  0  0  0  0  0  0  0  0  0  0
   -3.3180   13.6030   -1.3560 C   0  0  1  0  0  0  0  0  0  0  0  0
   -3.5580   14.7650   -2.3360 C   0  0  0  0  0  0  0  0  0  0  0  0
   -2.1960   13.8870   -0.4160 C   0  0  0  0  0  0  0  0  0  0  0  0
   -3.7310   14.2750    1.6360 C   0  0  1  0  0  0  0  0  0  0  0  0
   -5.0390   14.6750   -2.6080 C   0  0  0  0  0  0  0  0  0  0  0  0
   -4.9000   15.1740    1.6110 N   0  0  0  0  0  0  0  0  0  0  0  0
   -3.2070   15.6090    1.0760 C   0  0  0  0  0  0  0  0  0  0  0  0
   -0.8910   13.8650   -0.9080 C   0  0  0  0  0  0  0  0  0  0  0  0
   -2.3760   14.1790    0.9440 C   0  0  0  0  0  0  0  0  0  0  0  0
   -6.1030   14.8790    1.0040 C   0  0  0  0  0  0  0  0  0  0  0  0
   -1.3430   14.4210    1.7730 N   0  0  0  0  0  0  0  0  0  0  0  0
    0.1650   14.1250   -0.0610 C   0  0  0  0  0  0  0  0  0  0  0  0
   -6.3160   15.0250   -0.1880 O   0  0  0  0  0  0  0  0  0  0  0  0
   -7.1750   14.3790    1.9420 C   0  0  0  0  0  0  0  0  0  0  0  0
   -0.1220   14.3940    1.2620 C   0  0  0  0  0  0  0  0  0  0  0  0
   -8.5500   14.4920    1.3050 C   0  0  0  0  0  0  0  0  0  0  0  0
  1  2  1  0
  1  3  2  0
  4  1  1  6
  4  5  1  0
  4  6  1  0
  4  7  1  0
  7  8  1  6
  7  9  1  0
  5 10  1  0
  6 11  1  0
  8 11  1  0
 10 12  1  0
 10 13  1  6
  9 14  1  0
  9 15  2  0
 10 15  1  0
 12 16  1  0
 15 17  1  0
 14 18  2  0
 16 19  2  0
 16 20  1  0
 17 21  2  0
 18 21  1  0
 20 22  1  0
M  END
