diamond-x0574_0_A-diamond-x0900_0_A
     RDKit          3D

 12 13  0  0  0  0  0  0  0  0999 V2000
    0.1470   14.0420    2.1060 N   0  0  0  0  0  0  0  0  0  0  0  0
   -0.9280   14.2980    1.3870 C   0  0  0  0  0  0  0  0  0  0  0  0
   -2.0620   14.3090    1.9640 N   0  0  0  0  0  0  0  0  0  0  0  0
   -0.9340   14.6210   -0.2940 S   0  0  0  0  0  0  0  0  0  0  0  0
   -3.0550   14.5610    1.0810 C   0  0  0  0  0  0  0  0  0  0  0  0
   -2.6570   14.7690   -0.2300 C   0  0  0  0  0  0  0  0  0  0  0  0
   -4.3990   14.6120    1.4200 C   0  0  0  0  0  0  0  0  0  0  0  0
   -3.6040   15.0430   -1.2310 C   0  0  0  0  0  0  0  0  0  0  0  0
   -5.3500   14.8660    0.4670 C   0  0  0  0  0  0  0  0  0  0  0  0
   -4.9610   15.0860   -0.8550 C   0  0  0  0  0  0  0  0  0  0  0  0
   -6.6880   14.9120    0.7480 O   0  0  0  0  0  0  0  0  0  0  0  0
   -7.0240   14.5760    2.0970 C   0  0  0  0  0  0  0  0  0  0  0  0
  1  2  1  0
  2  3  2  0
  2  4  1  0
  3  5  1  0
  4  6  1  0
  5  6  2  0
  5  7  1  0
  6  8  1  0
  7  9  2  0
  8 10  2  0
  9 10  1  0
  9 11  1  0
 11 12  1  0
M  END
