diamond-x0910_0_A-mac-x0182
     RDKit          3D

 20 22  0  0  0  0  0  0  0  0999 V2000
   -3.0910   14.7050   -1.5440 N   0  0  0  0  0  0  0  0  0  0  0  0
   -2.1560   14.6450   -0.5840 C   0  0  0  0  0  0  0  0  0  0  0  0
   -2.2450   15.1020    0.6470 N   0  0  0  0  0  0  0  0  0  0  0  0
   -0.9270   14.0730   -0.7600 N   0  0  0  0  0  0  0  0  0  0  0  0
   -0.3560   13.4220   -1.9350 C   0  0  0  0  0  0  0  0  0  0  0  0
   -1.0640   14.8390    1.2890 N   0  0  0  0  0  0  0  0  0  0  0  0
   -0.2900   14.2240    0.4330 C   0  0  0  0  0  0  0  0  0  0  0  0
   -1.1670   13.5890   -3.2410 C   0  0  0  0  0  0  0  0  0  0  0  0
   -1.6350   12.2850   -3.8070 N   0  0  0  0  0  0  0  0  0  0  0  0
   -0.6010   11.2170   -4.1740 S   0  0  2  0  0  0  0  0  0  0  0  0
    0.1180   10.3840   -3.2460 O   0  0  0  0  0  0  0  0  0  0  0  0
    0.5480   12.1130   -5.0080 N   0  0  0  0  0  0  0  0  0  0  0  0
   -1.0770   10.2580   -5.5510 C   0  0  0  0  0  0  0  0  0  0  0  0
    0.7750   11.5870   -6.2530 C   0  0  0  0  0  0  0  0  0  0  0  0
   -0.2360   10.5670   -6.6160 C   0  0  0  0  0  0  0  0  0  0  0  0
   -2.0960    9.3270   -5.6510 C   0  0  0  0  0  0  0  0  0  0  0  0
    1.6980   11.8820   -6.9660 O   0  0  0  0  0  0  0  0  0  0  0  0
   -2.2570    8.6900   -6.8860 C   0  0  0  0  0  0  0  0  0  0  0  0
   -0.3890    9.9400   -7.8440 C   0  0  0  0  0  0  0  0  0  0  0  0
   -1.4130    8.9920   -7.9740 C   0  0  0  0  0  0  0  0  0  0  0  0
  1  2  1  0
  2  3  2  0
  2  4  1  0
  4  5  1  0
  3  6  1  0
  4  7  1  0
  6  7  2  0
  5  8  1  0
  8  9  1  0
  9 10  2  0
 10 11  2  0
 10 12  1  6
 10 13  1  0
 12 14  1  0
 13 15  2  0
 14 15  1  0
 13 16  1  0
 14 17  2  0
 16 18  2  0
 15 19  1  0
 18 20  1  0
 19 20  2  0
M  END
