diamond-x0104_0_A-mac-x0159
     RDKit          3D

 33 37  0  0  0  0  0  0  0  0999 V2000
   -6.3700   14.9170    2.4540 N   0  0  0  0  0  0  0  0  0  0  0  0
   -7.6350   15.0760    3.0890 C   0  0  0  0  0  0  0  0  0  0  0  0
   -7.5940   15.0660    4.4910 N   0  0  0  0  0  0  0  0  0  0  0  0
   -6.1970   14.7490    1.0390 C   0  0  0  0  0  0  0  0  0  0  0  0
   -8.6850   15.2230    2.4680 O   0  0  0  0  0  0  0  0  0  0  0  0
   -5.0070   14.8010    0.1670 C   0  0  0  0  0  0  0  0  0  0  0  0
   -7.3840   14.5010    0.3260 C   0  0  0  0  0  0  0  0  0  0  0  0
   -5.1020   14.6310   -1.1230 N   0  0  0  0  0  0  0  0  0  0  0  0
   -7.3970   14.3340   -1.0590 C   0  0  0  0  0  0  0  0  0  0  0  0
   -8.7370   15.0840    5.3020 C   0  0  0  0  0  0  0  0  0  0  0  0
   -3.4940   15.0120    0.1010 C   0  0  0  0  0  0  0  0  0  0  0  0
   -6.2080   14.4140   -1.7180 C   0  0  0  0  0  0  0  0  0  0  0  0
   -8.9290   15.2020    6.6650 C   0  0  0  0  0  0  0  0  0  0  0  0
  -10.2260   14.9310    4.4730 S   0  0  0  0  0  0  0  0  0  0  0  0
   -3.2370   16.1200   -0.8040 N   0  0  0  0  0  0  0  0  0  0  0  0
   -2.1930   14.4730    0.6620 C   0  0  1  0  0  0  0  0  0  0  0  0
   -6.1150   14.2650   -3.0730 O   0  0  0  0  0  0  0  0  0  0  0  0
  -11.1360   15.0190    5.9260 C   0  0  0  0  0  0  0  0  0  0  0  0
  -10.3160   15.1640    7.0240 C   0  0  0  0  0  0  0  0  0  0  0  0
   -2.7090   15.5810   -2.0390 C   0  0  0  0  0  0  0  0  0  0  0  0
   -1.3500   14.1170   -0.6120 C   0  0  1  0  0  0  0  0  0  0  0  0
   -1.2850   15.2710    1.4270 N   0  0  0  0  0  0  0  0  0  0  0  0
   -4.7870   14.5720   -3.5090 C   0  0  0  0  0  0  0  0  0  0  0  0
   -1.4010   15.0540   -1.7550 N   0  0  0  0  0  0  0  0  0  0  0  0
   -0.0180   13.9380   -0.0760 N   0  0  0  0  0  0  0  0  0  0  0  0
   -0.0040   14.6560    1.1910 C   0  0  0  0  0  0  0  0  0  0  0  0
   -0.6710   14.7460   -3.0060 C   0  0  0  0  0  0  0  0  0  0  0  0
   -0.3190   15.9330   -3.8930 C   0  0  0  0  0  0  0  0  0  0  0  0
    0.9490   16.4390   -4.1260 C   0  0  0  0  0  0  0  0  0  0  0  0
   -1.3270   16.6260   -4.5760 N   0  0  0  0  0  0  0  0  0  0  0  0
   -0.8120   17.6130   -5.2850 C   0  0  0  0  0  0  0  0  0  0  0  0
    0.8840   17.7790   -5.1890 S   0  0  0  0  0  0  0  0  0  0  0  0
   -1.5850   18.5570   -6.1360 C   0  0  0  0  0  0  0  0  0  0  0  0
  1  2  1  0
  2  3  1  0
  1  4  1  0
  2  5  2  0
  4  6  1  0
  4  7  2  0
  6  8  2  0
  7  9  1  0
  3 10  1  0
  6 11  1  0
  8 12  1  0
  9 12  2  0
 10 13  2  0
 10 14  1  0
 11 15  1  0
 11 16  1  0
 12 17  1  0
 14 18  1  0
 13 19  1  0
 18 19  2  0
 15 20  1  0
 16 21  1  0
 16 22  1  6
 17 23  1  0
 20 24  1  0
 21 24  1  0
 21 25  1  1
 22 26  1  0
 25 26  1  0
 24 27  1  0
 27 28  1  0
 28 29  2  0
 28 30  1  0
 30 31  2  0
 29 32  1  0
 31 32  1  0
 31 33  1  0
M  END
