diamond-x0290_0_A-mac-x0385
     RDKit          3D

 14 14  0  0  0  0  0  0  0  0999 V2000
   -8.0250   13.8230    1.1330 N   0  0  0  0  0  0  0  0  0  0  0  0
   -8.6970   15.0130    0.6250 C   0  0  0  0  0  0  0  0  0  0  0  0
   -6.7780   14.1590    1.8450 C   0  0  0  0  0  0  0  0  0  0  0  0
   -5.6540   14.5420    0.8980 C   0  0  0  0  0  0  0  0  0  0  0  0
   -5.8490   14.5170   -0.3260 O   0  0  0  0  0  0  0  0  0  0  0  0
   -4.4270   14.8910    1.3140 N   0  0  0  0  0  0  0  0  0  0  0  0
   -3.2230   14.7670    0.6670 C   0  0  0  0  0  0  0  0  0  0  0  0
   -2.2020   14.5350    1.5030 N   0  0  0  0  0  0  0  0  0  0  0  0
   -3.0520   14.8530   -0.7090 C   0  0  0  0  0  0  0  0  0  0  0  0
   -1.0160   14.3780    0.9310 C   0  0  0  0  0  0  0  0  0  0  0  0
   -1.7800   14.6910   -1.2680 C   0  0  0  0  0  0  0  0  0  0  0  0
   -1.5530   14.7700   -2.7450 C   0  0  0  0  0  0  0  0  0  0  0  0
    0.0630   14.0940    1.8060 C   0  0  0  0  0  0  0  0  0  0  0  0
   -0.7380   14.4480   -0.4130 C   0  0  0  0  0  0  0  0  0  0  0  0
  1  2  1  0
  1  3  1  0
  3  4  1  0
  4  5  2  0
  4  6  1  0
  6  7  1  0
  7  8  2  0
  7  9  1  0
  8 10  1  0
  9 11  2  0
 11 12  1  0
 10 13  1  0
 10 14  2  0
 11 14  1  0
M  END
