diamond-x0471_0_A-mac-x0319
     RDKit          3D

 30 32  0  0  0  0  0  0  0  0999 V2000
   -8.6930   14.0000    2.7010 N   0  0  0  0  0  0  0  0  0  0  0  0
   -8.9180   14.9470    3.6810 C   0  0  0  0  0  0  0  0  0  0  0  0
   -9.2850   16.0930    3.4240 O   0  0  0  0  0  0  0  0  0  0  0  0
   -8.7180   14.3510    1.2930 C   0  0  0  0  0  0  0  0  0  0  0  0
   -8.6760   14.4330    5.0990 C   0  0  0  0  0  0  0  0  0  0  0  0
   -7.3260   14.6050    0.8230 C   0  0  0  0  0  0  0  0  0  0  0  0
   -9.9060   13.6870    5.6210 C   0  0  0  0  0  0  0  0  0  0  0  0
   -8.3110   15.5820    6.0350 C   0  0  0  0  0  0  0  0  0  0  0  0
   -7.0390   14.8860   -0.4920 N   0  0  0  0  0  0  0  0  0  0  0  0
   -6.2230   14.6040    1.5440 N   0  0  0  0  0  0  0  0  0  0  0  0
   -5.1920   14.8940    0.6790 C   0  0  0  0  0  0  0  0  0  0  0  0
   -5.6810   15.0770   -0.6080 C   0  0  0  0  0  0  0  0  0  0  0  0
   -4.8640   15.3820   -1.6900 C   0  0  0  0  0  0  0  0  0  0  0  0
   -3.8010   15.0200    0.9170 C   0  0  0  0  0  0  0  0  0  0  0  0
   -3.4860   15.5040   -1.4430 C   0  0  0  0  0  0  0  0  0  0  0  0
   -2.9370   15.3270   -0.1590 C   0  0  0  0  0  0  0  0  0  0  0  0
   -1.4300   15.4680    0.0500 C   0  0  0  0  0  0  0  0  0  0  0  0
   -0.6990   14.1160    0.1270 C   0  0  0  0  0  0  0  0  0  0  0  0
    0.2030   13.8290   -1.0890 C   0  0  0  0  0  0  0  0  0  0  0  0
    0.2220   12.3740   -1.2940 N   0  0  0  0  0  0  0  0  0  0  0  0
    0.6190   11.7780   -2.3730 C   0  0  0  0  0  0  0  0  0  0  0  0
    0.5630   10.4200   -2.4330 O   0  0  0  0  0  0  0  0  0  0  0  0
    1.1560   12.4560   -3.6320 C   0  0  0  0  0  0  0  0  0  0  0  0
    0.5240   13.7850   -3.9760 C   0  0  0  0  0  0  0  0  0  0  0  0
    1.2580   14.9870   -3.9280 C   0  0  0  0  0  0  0  0  0  0  0  0
   -0.8300   13.8310   -4.3470 C   0  0  0  0  0  0  0  0  0  0  0  0
    0.6250   16.1920   -4.2430 C   0  0  0  0  0  0  0  0  0  0  0  0
   -1.4430   15.0460   -4.6610 C   0  0  0  0  0  0  0  0  0  0  0  0
    1.2760   17.3870   -4.2070 O   0  0  0  0  0  0  0  0  0  0  0  0
   -0.7120   16.2270   -4.6070 C   0  0  0  0  0  0  0  0  0  0  0  0
  1  2  1  0
  2  3  2  0
  1  4  1  0
  2  5  1  0
  4  6  1  0
  5  7  1  0
  5  8  1  0
  6  9  1  0
  6 10  2  0
 10 11  1  0
  9 12  1  0
 11 12  2  0
 12 13  1  0
 11 14  1  0
 13 15  2  0
 14 16  2  0
 15 16  1  0
 16 17  1  0
 17 18  1  0
 18 19  1  0
 19 20  1  0
 20 21  2  3
 21 22  1  0
 21 23  1  0
 23 24  1  0
 24 25  2  0
 24 26  1  0
 25 27  1  0
 26 28  2  0
 27 29  1  0
 27 30  2  0
 28 30  1  0
M  END
