diamond-x0967_0_A-diamond-x0895_0_A
     RDKit          3D

 11 12  0  0  0  0  0  0  0  0999 V2000
   -2.6540   14.7950    1.7530 O   0  0  0  0  0  0  0  0  0  0  0  0
   -3.4050   14.8380    0.7460 C   0  0  0  0  0  0  0  0  0  0  0  0
   -4.8960   14.7760    0.7010 C   0  0  0  0  0  0  0  0  0  0  0  0
   -2.8110   14.9450   -0.5930 C   0  0  0  0  0  0  0  0  0  0  0  0
   -5.5920   14.7320   -0.6360 C   0  0  0  0  0  0  0  0  0  0  0  0
   -5.6960   14.7540    1.7780 C   0  0  0  0  0  0  0  0  0  0  0  0
   -3.5780   14.9260   -1.6880 C   0  0  0  0  0  0  0  0  0  0  0  0
   -6.9670   14.6090   -0.6640 N   0  0  0  0  0  0  0  0  0  0  0  0
   -7.1490   14.6600    1.6840 C   0  0  0  0  0  0  0  0  0  0  0  0
   -4.9380   14.8090   -1.7550 N   0  0  0  0  0  0  0  0  0  0  0  0
   -7.7280   14.5910    0.4760 C   0  0  0  0  0  0  0  0  0  0  0  0
  1  2  2  0
  2  3  1  0
  2  4  1  0
  3  5  1  0
  3  6  2  0
  4  7  2  0
  5  8  1  0
  6  9  1  0
  5 10  2  0
  7 10  1  0
  8 11  1  0
  9 11  2  0
M  END
