diamond-x0950_1_A-mac-x0223
     RDKit          3D

 15 15  0  0  0  0  0  0  0  0999 V2000
    1.2460   13.7350   -4.8510 C   0  0  0  0  0  0  0  0  0  0  0  0
    0.8980   12.3100   -4.5130 C   0  0  2  0  0  0  0  0  0  0  0  0
   -0.2520   11.8560   -5.2120 O   0  0  0  0  0  0  0  0  0  0  0  0
    0.1570   14.7680   -4.8170 C   0  0  0  0  0  0  0  0  0  0  0  0
    0.8900   12.0550   -3.0060 C   0  0  0  0  0  0  0  0  0  0  0  0
   -1.2250   14.5100   -4.6910 C   0  0  0  0  0  0  0  0  0  0  0  0
    0.6040   16.0690   -4.9290 C   0  0  0  0  0  0  0  0  0  0  0  0
    0.4460   11.0830   -2.4230 O   0  0  0  0  0  0  0  0  0  0  0  0
    1.4640   13.0560   -2.3040 O   0  0  0  0  0  0  0  0  0  0  0  0
   -0.2780   17.1200   -4.9240 C   0  0  0  0  0  0  0  0  0  0  0  0
   -2.1300   15.5840   -4.6840 C   0  0  0  0  0  0  0  0  0  0  0  0
    0.0940   18.4090   -5.0360 O   0  0  0  0  0  0  0  0  0  0  0  0
   -1.6270   16.8800   -4.8050 C   0  0  0  0  0  0  0  0  0  0  0  0
    1.2860   18.5860   -5.7560 C   0  0  0  0  0  0  0  0  0  0  0  0
   -2.4170   17.9840   -4.8100 O   0  0  0  0  0  0  0  0  0  0  0  0
  1  2  1  0
  2  3  1  1
  1  4  1  0
  2  5  1  0
  4  6  2  0
  4  7  1  0
  5  8  2  0
  5  9  1  0
  7 10  2  0
  6 11  1  0
 10 12  1  0
 10 13  1  0
 11 13  2  0
 12 14  1  0
 13 15  1  0
M  END
