diamond-x0282_0_A-mac-x0179
     RDKit          3D

 30 33  0  0  0  0  0  0  0  0999 V2000
   -7.2060   13.3660    0.3380 C   0  0  0  0  0  0  0  0  0  0  0  0
   -8.5600   13.6350    0.0060 O   0  0  0  0  0  0  0  0  0  0  0  0
   -6.4700   14.6750    0.5710 C   0  0  0  0  0  0  0  0  0  0  0  0
   -5.5720   14.6370    1.8120 C   0  0  0  0  0  0  0  0  0  0  0  0
   -5.7310   15.2020   -0.6750 C   0  0  0  0  0  0  0  0  0  0  0  0
   -4.2080   14.0120    1.5410 C   0  0  0  0  0  0  0  0  0  0  0  0
   -4.3460   14.5850   -0.8400 C   0  0  0  0  0  0  0  0  0  0  0  0
   -3.6340   14.6990    0.4180 N   0  0  0  0  0  0  0  0  0  0  0  0
   -2.2590   14.6190    0.3250 C   0  0  0  0  0  0  0  0  0  0  0  0
   -1.7550   14.5620   -0.9140 N   0  0  0  0  0  0  0  0  0  0  0  0
   -1.5020   14.6040    1.4470 N   0  0  0  0  0  0  0  0  0  0  0  0
   -0.4320   14.5000   -1.0530 C   0  0  0  0  0  0  0  0  0  0  0  0
   -0.1830   14.5490    1.2500 C   0  0  0  0  0  0  0  0  0  0  0  0
    0.1680   14.4220   -2.4210 C   0  0  0  0  0  0  0  0  0  0  0  0
    0.3930   14.4990    0.0010 C   0  0  0  0  0  0  0  0  0  0  0  0
    1.1010   13.3260   -2.3710 O   0  0  0  0  0  0  0  0  0  0  0  0
    0.8290   12.3270   -3.2330 C   0  0  0  0  0  0  0  0  0  0  0  0
    0.7040   11.1470   -2.9130 O   0  0  0  0  0  0  0  0  0  0  0  0
    0.6880   12.8630   -4.6500 C   0  0  0  0  0  0  0  0  0  0  0  0
    0.0580   11.9290   -5.5470 N   0  0  0  0  0  0  0  0  0  0  0  0
    0.7280   11.4040   -6.5910 C   0  0  0  0  0  0  0  0  0  0  0  0
   -1.0470   11.1920   -5.2370 C   0  0  0  0  0  0  0  0  0  0  0  0
    1.8020   11.7240   -7.0040 O   0  0  0  0  0  0  0  0  0  0  0  0
   -1.8000   11.3030   -4.2900 O   0  0  0  0  0  0  0  0  0  0  0  0
   -0.0910   10.3260   -7.1320 C   0  0  0  0  0  0  0  0  0  0  0  0
   -1.1850   10.1910   -6.2960 C   0  0  0  0  0  0  0  0  0  0  0  0
    0.0880    9.5290   -8.2410 C   0  0  0  0  0  0  0  0  0  0  0  0
   -2.1640    9.2460   -6.5220 C   0  0  0  0  0  0  0  0  0  0  0  0
   -0.8900    8.5620   -8.4950 C   0  0  0  0  0  0  0  0  0  0  0  0
   -2.0090    8.4210   -7.6420 C   0  0  0  0  0  0  0  0  0  0  0  0
  1  2  1  0
  1  3  1  0
  3  4  1  0
  3  5  1  0
  4  6  1  0
  5  7  1  0
  6  8  1  0
  7  8  1  0
  8  9  1  0
  9 10  2  0
  9 11  1  0
 10 12  1  0
 11 13  2  0
 12 14  1  0
 12 15  2  0
 13 15  1  0
 14 16  1  0
 16 17  1  0
 17 18  2  0
 17 19  1  0
 19 20  1  0
 20 21  1  0
 20 22  1  0
 21 23  2  0
 22 24  2  0
 21 25  1  0
 22 26  1  0
 25 26  2  0
 25 27  1  0
 26 28  1  0
 27 29  2  0
 28 30  2  0
 29 30  1  0
M  END
