diamond-x1018_0_A-diamond-x0852_0_B
     RDKit          3D

 21 23  0  0  0  0  0  0  0  0999 V2000
   -8.8070   14.5090   -0.4570 Cl  0  0  0  0  0  0  0  0  0  0  0  0
   -7.0900   14.6090   -0.3590 C   0  0  0  0  0  0  0  0  0  0  0  0
   -6.4590   14.3710    0.9600 C   0  0  0  0  0  0  0  0  0  0  0  0
   -6.5060   14.8840   -1.4640 N   0  0  0  0  0  0  0  0  0  0  0  0
   -7.5070   14.0040    2.0030 C   0  0  0  0  0  0  0  0  0  0  0  0
   -5.1750   14.9430   -1.3440 N   0  0  0  0  0  0  0  0  0  0  0  0
   -5.0960   14.4950    0.9840 C   0  0  0  0  0  0  0  0  0  0  0  0
   -4.3830   15.1830   -2.3890 N   0  0  0  0  0  0  0  0  0  0  0  0
   -4.4120   14.7780   -0.2160 C   0  0  0  0  0  0  0  0  0  0  0  0
   -8.1930   14.9920    2.9380 C   0  0  0  0  0  0  0  0  0  0  0  0
   -3.1480   14.9160   -0.5510 N   0  0  0  0  0  0  0  0  0  0  0  0
   -3.1530   15.1630   -1.9070 N   0  0  0  0  0  0  0  0  0  0  0  0
   -7.6900   14.8660    4.2140 C   0  0  0  0  0  0  0  0  0  0  0  0
   -9.2260   15.9630    2.7240 C   0  0  0  0  0  0  0  0  0  0  0  0
  -10.0840   16.3030    1.0610 Br  0  0  0  0  0  0  0  0  0  0  0  0
   -8.1270   15.6210    5.2620 C   0  0  0  0  0  0  0  0  0  0  0  0
   -9.6750   16.7490    3.8090 C   0  0  0  0  0  0  0  0  0  0  0  0
   -7.4910   15.3240    6.4310 O   0  0  0  0  0  0  0  0  0  0  0  0
   -9.1180   16.5730    5.0890 C   0  0  0  0  0  0  0  0  0  0  0  0
   -9.5640   17.3520    6.1970 C   0  0  0  0  0  0  0  0  0  0  0  0
   -9.9000   17.9330    7.1440 N   0  0  0  0  0  0  0  0  0  0  0  0
  1  2  1  0
  2  3  1  0
  2  4  2  0
  3  5  1  0
  4  6  1  0
  3  7  2  0
  6  8  1  0
  6  9  1  0
  7  9  1  0
  5 10  1  0
  9 11  2  0
  8 12  2  0
 11 12  1  0
 10 13  2  0
 10 14  1  0
 14 15  1  0
 13 16  1  0
 14 17  2  0
 16 18  1  0
 16 19  2  0
 17 19  1  0
 19 20  1  0
 20 21  3  0
M  END
