diamond-x0962_0_A-mac-x0303
     RDKit          3D

 14 15  0  0  0  0  0  0  0  0999 V2000
   -2.5610   14.7920   -2.5420 N   0  0  0  0  0  0  0  0  0  0  0  0
   -3.0870   14.9990   -1.5280 C   0  0  0  0  0  0  0  0  0  0  0  0
   -3.6920   15.2860   -0.2230 C   0  0  2  0  0  0  0  0  0  0  0  0
   -3.6200   14.1720    0.7080 N   0  0  0  0  0  0  0  0  0  0  0  0
   -5.1850   15.5520   -0.3070 C   0  0  2  0  0  0  0  0  0  0  0  0
   -4.6250   14.4880    1.7030 C   0  0  0  0  0  0  0  0  0  0  0  0
   -5.7070   15.1390    1.0050 N   0  0  0  0  0  0  0  0  0  0  0  0
   -6.0040   14.7530   -1.2890 C   0  0  0  0  0  0  0  0  0  0  0  0
   -6.9020   14.2940    0.8020 C   0  0  2  0  0  0  0  0  0  0  0  0
   -7.2930   14.5980   -0.5970 N   0  0  0  0  0  0  0  0  0  0  0  0
   -8.3160   14.4980    2.0850 S   0  0  0  0  0  0  0  0  0  0  0  0
   -8.1100   13.0970    3.0010 N   0  0  0  0  0  0  0  0  0  0  0  0
   -8.0690   15.5780    3.0100 O   0  0  0  0  0  0  0  0  0  0  0  0
   -9.6150   14.3740    1.4520 O   0  0  0  0  0  0  0  0  0  0  0  0
  1  2  3  0
  3  2  1  6
  3  4  1  0
  3  5  1  0
  4  6  1  0
  5  7  1  0
  6  7  1  0
  5  8  1  6
  7  9  1  0
  8 10  1  0
  9 10  1  0
  9 11  1  1
 11 12  1  0
 11 13  2  0
 11 14  2  0
M  END
