diamond-x0926_0_A-mac-x0441
     RDKit          3D

 27 29  0  0  0  0  0  0  0  0999 V2000
   -6.5360   15.1380   -0.9070 O   0  0  0  0  0  0  0  0  0  0  0  0
   -5.3690   15.0480   -0.5160 C   0  0  0  0  0  0  0  0  0  0  0  0
   -5.0470   14.8240    0.9610 C   0  0  0  0  0  0  0  0  0  0  0  0
   -4.3100   15.1320   -1.3990 N   0  0  0  0  0  0  0  0  0  0  0  0
   -2.9800   14.9800   -0.9470 N   0  0  0  0  0  0  0  0  0  0  0  0
   -3.6330   15.0720    1.3280 C   0  0  0  0  0  0  0  0  0  0  0  0
   -1.9480   14.5110   -1.8820 C   0  0  0  0  0  0  0  0  0  0  0  0
   -2.7080   15.1310    0.3900 C   0  0  0  0  0  0  0  0  0  0  0  0
   -0.5670   14.4580   -1.1980 C   0  0  0  0  0  0  0  0  0  0  0  0
    0.6040   14.0840   -2.1060 C   0  0  0  0  0  0  0  0  0  0  0  0
    0.5540   12.6370   -2.2610 N   0  0  0  0  0  0  0  0  0  0  0  0
    0.5470   12.0900   -3.4150 C   0  0  0  0  0  0  0  0  0  0  0  0
    0.4730   10.7520   -3.3720 O   0  0  0  0  0  0  0  0  0  0  0  0
    0.5950   12.6650   -4.8100 C   0  0  0  0  0  0  0  0  0  0  0  0
    0.2890   11.7420   -5.8980 N   0  0  0  0  0  0  0  0  0  0  0  0
    1.0420   11.7480   -7.0260 N   0  0  0  0  0  0  0  0  0  0  0  0
   -0.7120   10.8110   -5.9600 C   0  0  0  0  0  0  0  0  0  0  0  0
    0.4980   10.7970   -7.8240 C   0  0  0  0  0  0  0  0  0  0  0  0
   -0.5970   10.1910   -7.1810 C   0  0  0  0  0  0  0  0  0  0  0  0
   -1.7480   10.4930   -4.9400 C   0  0  0  0  0  0  0  0  0  0  0  0
    0.9620   10.4070   -9.2110 C   0  0  0  0  0  0  0  0  0  0  0  0
   -1.4950    9.1060   -7.6550 C   0  0  0  0  0  0  0  0  0  0  0  0
   -2.9060    9.7370   -5.6250 C   0  0  0  0  0  0  0  0  0  0  0  0
    1.6350    9.2230   -9.1950 F   0  0  0  0  0  0  0  0  0  0  0  0
   -0.0960   10.1970  -10.0310 F   0  0  0  0  0  0  0  0  0  0  0  0
    1.7030   11.2980   -9.8890 F   0  0  0  0  0  0  0  0  0  0  0  0
   -2.3960    8.5920   -6.5200 C   0  0  0  0  0  0  0  0  0  0  0  0
  1  2  2  0
  2  3  1  0
  2  4  1  0
  4  5  1  0
  3  6  1  0
  5  7  1  0
  5  8  1  0
  6  8  2  0
  7  9  1  0
  9 10  1  0
 10 11  1  0
 11 12  2  3
 12 13  1  0
 12 14  1  0
 14 15  1  0
 15 16  1  0
 15 17  1  0
 16 18  2  0
 17 19  2  0
 18 19  1  0
 17 20  1  0
 18 21  1  0
 19 22  1  0
 20 23  1  0
 21 24  1  0
 21 25  1  0
 21 26  1  0
 22 27  1  0
 23 27  1  0
M  END
