diamond-x0574_0_A-diamond-x0905_0_A
     RDKit          3D

 12 13  0  0  0  0  0  0  0  0999 V2000
    0.1520   14.0540    2.0950 N   0  0  0  0  0  0  0  0  0  0  0  0
   -0.9230   14.3060    1.3780 C   0  0  0  0  0  0  0  0  0  0  0  0
   -2.0560   14.3160    1.9570 N   0  0  0  0  0  0  0  0  0  0  0  0
   -0.9320   14.6230   -0.3050 S   0  0  0  0  0  0  0  0  0  0  0  0
   -3.0510   14.5620    1.0740 C   0  0  0  0  0  0  0  0  0  0  0  0
   -2.6590   14.7660   -0.2400 C   0  0  0  0  0  0  0  0  0  0  0  0
   -4.3940   14.6110    1.4180 C   0  0  0  0  0  0  0  0  0  0  0  0
   -3.6090   15.0320   -1.2380 C   0  0  0  0  0  0  0  0  0  0  0  0
   -5.3510   14.8560    0.4690 C   0  0  0  0  0  0  0  0  0  0  0  0
   -4.9650   15.0720   -0.8590 C   0  0  0  0  0  0  0  0  0  0  0  0
   -6.6900   14.9010    0.7480 O   0  0  0  0  0  0  0  0  0  0  0  0
   -7.0360   14.5680    2.0980 C   0  0  0  0  0  0  0  0  0  0  0  0
  1  2  1  0
  2  3  2  0
  2  4  1  0
  3  5  1  0
  4  6  1  0
  5  6  2  0
  5  7  1  0
  6  8  1  0
  7  9  2  0
  8 10  2  0
  9 10  1  0
  9 11  1  0
 11 12  1  0
M  END
