diamond-x0685_1_A-diamond-x0805_0_A
     RDKit          3D

 27 29  0  0  0  0  0  0  0  0999 V2000
   -1.6650   11.1450   -5.2920 N   0  0  0  0  0  0  0  0  0  0  0  0
   -1.6360   10.4780   -4.0140 C   0  0  0  0  0  0  0  0  0  0  0  0
   -0.3520   10.4390   -3.3940 C   0  0  0  0  0  0  0  0  0  0  0  0
   -0.8470   10.5660   -6.3320 C   0  0  0  0  0  0  0  0  0  0  0  0
   -0.7250    9.0830   -6.3730 C   0  0  0  0  0  0  0  0  0  0  0  0
   -1.4950   11.0330   -7.6220 C   0  0  0  0  0  0  0  0  0  0  0  0
    0.4810   12.0750   -3.1570 S   0  0  0  0  0  0  0  0  0  0  0  0
   -0.0360    8.5850   -7.6230 C   0  0  0  0  0  0  0  0  0  0  0  0
   -0.7550   10.5800   -8.8420 C   0  0  0  0  0  0  0  0  0  0  0  0
    2.3850   12.4750   -2.7210 O   0  0  0  0  0  0  0  0  0  0  0  0
   -0.8240   12.9290   -2.2930 O   0  0  0  0  0  0  0  0  0  0  0  0
    0.7180   12.3400   -1.2200 O   0  0  0  0  0  0  0  0  0  0  0  0
   -0.7280    9.0640   -8.8710 C   0  0  0  0  0  0  0  0  0  0  0  0
    0.2230   13.2640   -4.5260 C   0  0  2  0  0  0  0  0  0  0  0  0
    1.5530   13.4400   -5.1420 C   0  0  0  0  0  0  0  0  0  0  0  0
   -0.6160   14.3940   -4.2260 C   0  0  1  0  0  0  0  0  0  0  0  0
   -1.8350   14.1920   -3.3660 C   0  0  0  0  0  0  0  0  0  0  0  0
    2.3400   14.2690   -4.4080 O   0  0  0  0  0  0  0  0  0  0  0  0
    0.3090   15.4090   -3.6640 C   0  0  0  0  0  0  0  0  0  0  0  0
   -2.8880   13.4050   -3.7840 C   0  0  0  0  0  0  0  0  0  0  0  0
   -1.9610   14.7840   -2.1060 C   0  0  0  0  0  0  0  0  0  0  0  0
    1.6790   15.4500   -4.2610 C   0  0  0  0  0  0  0  0  0  0  0  0
   -3.0290   14.6540   -1.2770 C   0  0  0  0  0  0  0  0  0  0  0  0
   -4.0000   13.2500   -2.9490 C   0  0  0  0  0  0  0  0  0  0  0  0
   -3.0600   15.2910   -0.0450 O   0  0  0  0  0  0  0  0  0  0  0  0
   -4.0740   13.8690   -1.7050 C   0  0  0  0  0  0  0  0  0  0  0  0
   -4.2520   15.5790    0.6430 C   0  0  0  0  0  0  0  0  0  0  0  0
  1  2  1  0
  2  3  1  0
  1  4  1  0
  4  5  1  0
  4  6  1  0
  3  7  1  0
  5  8  1  0
  6  9  1  0
  7 10  1  0
  7 11  1  0
  7 12  1  0
  8 13  1  0
  9 13  1  0
 14  7  1  1
 14 15  1  0
 14 16  1  0
 16 17  1  1
 15 18  1  0
 16 19  1  0
 17 20  2  0
 17 21  1  0
 18 22  1  0
 19 22  1  0
 21 23  2  0
 20 24  1  0
 23 25  1  0
 23 26  1  0
 24 26  2  0
 25 27  1  0
M  END
