diamond-x0900_0_A-mac-x0496
     RDKit          3D

 18 19  0  0  0  0  0  0  0  0999 V2000
   -6.7570   15.0400   -0.5180 N   0  0  0  0  0  0  0  0  0  0  0  0
   -7.7360   14.7810    0.2300 C   0  0  0  0  0  0  0  0  0  0  0  0
   -7.7020   13.7800    1.1500 N   0  0  0  0  0  0  0  0  0  0  0  0
   -5.6660   14.1380   -0.2470 C   0  0  1  0  0  0  0  0  0  0  0  0
   -4.7710   14.1120   -1.3720 N   0  0  0  0  0  0  0  0  0  0  0  0
   -4.8290   14.6440    0.9310 C   0  0  0  0  0  0  0  0  0  0  0  0
   -8.8060   13.6670    2.0660 C   0  0  0  0  0  0  0  0  0  0  0  0
   -3.6030   15.3020    0.3060 C   0  0  0  0  0  0  0  0  0  0  0  0
   -3.9230   15.2880   -1.1870 C   0  0  1  0  0  0  0  0  0  0  0  0
   -2.7600   15.1130   -2.1740 C   0  0  0  0  0  0  0  0  0  0  0  0
   -9.2570   14.9750    2.5830 C   0  0  0  0  0  0  0  0  0  0  0  0
   -1.6100   14.8020   -1.8900 O   0  0  0  0  0  0  0  0  0  0  0  0
   -3.1420   15.3440   -3.4550 O   0  0  0  0  0  0  0  0  0  0  0  0
  -10.0730   15.7020    1.7720 O   0  0  0  0  0  0  0  0  0  0  0  0
   -8.9800   15.5520    3.7220 N   0  0  0  0  0  0  0  0  0  0  0  0
   -9.6580   16.7230    3.6230 C   0  0  0  0  0  0  0  0  0  0  0  0
  -10.3310   16.8700    2.4690 N   0  0  0  0  0  0  0  0  0  0  0  0
   -9.6360   17.7230    4.7100 C   0  0  0  0  0  0  0  0  0  0  0  0
  1  2  2  3
  2  3  1  0
  4  1  1  6
  4  5  1  0
  4  6  1  0
  3  7  1  0
  6  8  1  0
  5  9  1  0
  8  9  1  0
  9 10  1  6
  7 11  1  0
 10 12  2  0
 10 13  1  0
 11 14  1  0
 11 15  2  0
 15 16  1  0
 14 17  1  0
 16 17  2  0
 16 18  1  0
M  END
