diamond-x0128_0_A-mac-x0451
     RDKit          3D

 20 22  0  0  0  0  0  0  0  0999 V2000
   -6.9060   14.8120    2.3050 N   0  0  0  0  0  0  0  0  0  0  0  0
   -7.9130   14.9310    3.1470 C   0  0  0  0  0  0  0  0  0  0  0  0
   -9.0350   14.7860    2.6880 O   0  0  0  0  0  0  0  0  0  0  0  0
   -5.9000   14.8900    1.2560 C   0  0  2  0  0  0  0  0  0  0  0  0
   -7.5980   15.2550    4.4200 N   0  0  0  0  0  0  0  0  0  0  0  0
   -6.6750   14.9490   -0.0440 C   0  0  0  0  0  0  0  0  0  0  0  0
   -4.6340   14.0660    1.1620 C   0  0  0  0  0  0  0  0  0  0  0  0
   -6.1350   14.7180   -1.2370 C   0  0  0  0  0  0  0  0  0  0  0  0
   -3.9540   14.6900   -0.0600 C   0  0  2  0  0  0  0  0  0  0  0  0
   -8.3970   16.0390    5.2820 C   0  0  0  0  0  0  0  0  0  0  0  0
   -4.6920   14.3530   -1.3460 C   0  0  2  0  0  0  0  0  0  0  0  0
   -9.0770   17.1960    4.8880 C   0  0  0  0  0  0  0  0  0  0  0  0
   -8.5410   15.6580    6.6180 C   0  0  0  0  0  0  0  0  0  0  0  0
   -2.5180   14.4340   -0.4670 C   0  0  0  0  0  0  0  0  0  0  0  0
   -9.8520   17.9520    5.7020 N   0  0  0  0  0  0  0  0  0  0  0  0
   -9.3320   16.4210    7.4800 C   0  0  0  0  0  0  0  0  0  0  0  0
   -3.8840   15.1180   -2.3920 C   0  0  0  0  0  0  0  0  0  0  0  0
   -2.4940   15.2580   -1.7610 C   0  0  2  0  0  0  0  0  0  0  0  0
   -1.5860   14.7130   -2.6140 F   0  0  0  0  0  0  0  0  0  0  0  0
   -9.9640   17.5510    6.9810 C   0  0  0  0  0  0  0  0  0  0  0  0
  1  2  1  0
  2  3  2  0
  4  1  1  1
  2  5  1  0
  4  6  1  0
  4  7  1  0
  6  8  2  0
  9  7  1  1
  5 10  1  0
 11  8  1  1
  9 11  1  0
 10 12  2  0
 10 13  1  0
  9 14  1  0
 12 15  1  0
 13 16  2  0
 11 17  1  0
 14 18  1  0
 17 18  1  0
 18 19  1  6
 15 20  2  0
 16 20  1  0
M  END
