diamond-x0574_0_A-mac-x0527
     RDKit          3D

 22 24  0  0  0  0  0  0  0  0999 V2000
    0.1480   14.0120    2.1650 N   0  0  0  0  0  0  0  0  0  0  0  0
   -0.9220   14.2530    1.4370 C   0  0  0  0  0  0  0  0  0  0  0  0
   -2.0690   14.3300    1.9980 N   0  0  0  0  0  0  0  0  0  0  0  0
   -0.8950   14.4750   -0.2510 S   0  0  0  0  0  0  0  0  0  0  0  0
   -3.0470   14.5540    1.0810 C   0  0  0  0  0  0  0  0  0  0  0  0
   -2.6160   14.6710   -0.2320 C   0  0  0  0  0  0  0  0  0  0  0  0
   -4.4010   14.6620    1.3860 C   0  0  0  0  0  0  0  0  0  0  0  0
   -3.5470   14.9040   -1.2530 C   0  0  0  0  0  0  0  0  0  0  0  0
   -3.0850   15.0250   -2.6500 C   0  0  0  0  0  0  0  0  0  0  0  0
   -5.3420   14.8840    0.3900 C   0  0  0  0  0  0  0  0  0  0  0  0
   -4.9160   15.0100   -0.9310 C   0  0  0  0  0  0  0  0  0  0  0  0
   -6.6260   14.9480    0.8530 O   0  0  0  0  0  0  0  0  0  0  0  0
   -3.8600   15.3270   -3.5450 O   0  0  0  0  0  0  0  0  0  0  0  0
   -1.7490   14.7500   -2.8200 N   0  0  0  0  0  0  0  0  0  0  0  0
   -6.8490   14.5610    2.2120 C   0  0  0  0  0  0  0  0  0  0  0  0
   -1.1190   14.7920   -4.1140 C   0  0  0  0  0  0  0  0  0  0  0  0
   -0.9940   13.4010   -4.6850 C   0  0  0  0  0  0  0  0  0  0  0  0
   -1.9040   12.3920   -4.3200 C   0  0  0  0  0  0  0  0  0  0  0  0
    0.0330   13.0930   -5.5890 C   0  0  0  0  0  0  0  0  0  0  0  0
   -1.7870   11.1050   -4.8510 C   0  0  0  0  0  0  0  0  0  0  0  0
    0.1470   11.8090   -6.1180 C   0  0  0  0  0  0  0  0  0  0  0  0
   -0.7610   10.8150   -5.7520 C   0  0  0  0  0  0  0  0  0  0  0  0
  1  2  1  0
  2  3  2  0
  2  4  1  0
  3  5  1  0
  4  6  1  0
  5  6  2  0
  5  7  1  0
  6  8  1  0
  8  9  1  0
  7 10  2  0
  8 11  2  0
 10 11  1  0
 10 12  1  0
  9 13  2  0
  9 14  1  0
 12 15  1  0
 14 16  1  0
 16 17  1  0
 17 18  2  0
 17 19  1  0
 18 20  1  0
 19 21  2  0
 20 22  2  0
 21 22  1  0
M  END
