diamond-x0962_1_A-mac-x0360
     RDKit          3D

 17 18  0  0  0  0  0  0  0  0999 V2000
   -4.3410   15.4770   -2.0910 N   0  0  0  0  0  0  0  0  0  0  0  0
   -4.2260   15.4030   -0.6450 C   0  0  2  0  0  0  0  0  0  0  0  0
   -3.0550   14.0690   -0.1920 S   0  0  0  0  0  0  0  0  0  0  0  0
   -5.5210   15.0960    0.0030 C   0  0  0  0  0  0  0  0  0  0  0  0
   -2.7260   14.3180    1.2480 O   0  0  0  0  0  0  0  0  0  0  0  0
   -5.6320   14.9230    1.3650 N   0  0  0  0  0  0  0  0  0  0  0  0
   -6.8040   14.9090   -0.4680 C   0  0  0  0  0  0  0  0  0  0  0  0
   -4.3400   12.7900   -0.3120 C   0  0  0  0  0  0  0  0  0  0  0  0
   -6.9330   14.6420    1.6540 C   0  0  0  0  0  0  0  0  0  0  0  0
   -7.6710   14.6280    0.5620 N   0  0  0  0  0  0  0  0  0  0  0  0
   -4.3300   11.9200   -1.4030 C   0  0  0  0  0  0  0  0  0  0  0  0
   -5.3480   12.6570    0.6590 C   0  0  0  0  0  0  0  0  0  0  0  0
   -5.3140   10.9410   -1.5190 C   0  0  0  0  0  0  0  0  0  0  0  0
   -6.3300   11.6730    0.5230 C   0  0  0  0  0  0  0  0  0  0  0  0
   -7.5690   11.5160    1.7130 Cl  0  0  0  0  0  0  0  0  0  0  0  0
   -5.2800    9.8720   -2.8630 Cl  0  0  0  0  0  0  0  0  0  0  0  0
   -6.3190   10.8140   -0.5640 C   0  0  0  0  0  0  0  0  0  0  0  0
  2  1  1  6
  2  3  1  0
  2  4  1  0
  3  5  2  0
  4  6  1  0
  4  7  2  0
  3  8  1  1
  6  9  1  0
  7 10  1  0
  9 10  2  0
  8 11  2  0
  8 12  1  0
 11 13  1  0
 12 14  2  0
 14 15  1  0
 13 16  1  0
 13 17  2  0
 14 17  1  0
M  END
