diamond-x1012_0_A-mac-x0123
     RDKit          3D

 27 30  0  0  0  0  0  0  0  0999 V2000
   -0.9150   17.6880   -4.7530 N   0  0  0  0  0  0  0  0  0  0  0  0
   -0.9910   16.3310   -4.9280 C   0  0  0  0  0  0  0  0  0  0  0  0
   -2.0160   15.6730   -4.8290 N   0  0  0  0  0  0  0  0  0  0  0  0
    0.0940   15.6280   -5.2030 N   0  0  0  0  0  0  0  0  0  0  0  0
   -3.3170   15.9460   -4.5170 C   0  0  0  0  0  0  0  0  0  0  0  0
   -0.2680   14.2110   -5.4330 C   0  0  0  0  0  0  0  0  0  0  0  0
    1.2600   15.7690   -4.3650 C   0  0  0  0  0  0  0  0  0  0  0  0
   -3.7600   14.6070   -4.0170 C   0  0  0  0  0  0  0  0  0  0  0  0
   -0.7410   13.5120   -4.1740 C   0  0  0  0  0  0  0  0  0  0  0  0
    1.4860   14.5170   -3.5060 C   0  0  0  0  0  0  0  0  0  0  0  0
    0.1740   13.8740   -3.0290 C   0  0  0  0  0  0  0  0  0  0  0  0
   -4.3690   14.6450   -2.6930 C   0  0  0  0  0  0  0  0  0  0  0  0
    0.3940   12.6630   -2.1440 C   0  0  0  0  0  0  0  0  0  0  0  0
   -5.6890   14.5110   -2.6960 N   0  0  0  0  0  0  0  0  0  0  0  0
   -3.7700   14.7890   -1.4840 N   0  0  0  0  0  0  0  0  0  0  0  0
    0.4550   11.4790   -2.8060 O   0  0  0  0  0  0  0  0  0  0  0  0
    0.4930   12.7410   -0.9410 O   0  0  0  0  0  0  0  0  0  0  0  0
   -4.8720   14.7190   -0.6670 N   0  0  0  0  0  0  0  0  0  0  0  0
   -6.0140   14.5510   -1.4640 C   0  0  0  0  0  0  0  0  0  0  0  0
   -4.9900   14.7750    0.7520 C   0  0  0  0  0  0  0  0  0  0  0  0
   -7.2630   14.4390   -0.9860 N   0  0  0  0  0  0  0  0  0  0  0  0
   -3.8450   14.9460    1.5220 N   0  0  0  0  0  0  0  0  0  0  0  0
   -7.3580   14.4710    0.2740 C   0  0  0  0  0  0  0  0  0  0  0  0
   -6.2490   14.6310    1.2480 C   0  0  0  0  0  0  0  0  0  0  0  0
   -6.8770   14.5880    2.6010 C   0  0  0  0  0  0  0  0  0  0  0  0
   -8.6770   14.3510    0.9590 C   0  0  0  0  0  0  0  0  0  0  0  0
   -8.3600   14.8470    2.3610 C   0  0  0  0  0  0  0  0  0  0  0  0
  1  2  1  0
  2  3  2  3
  2  4  1  0
  3  5  1  0
  4  6  1  0
  4  7  1  0
  5  8  1  0
  6  9  1  0
  7 10  1  0
  9 11  1  0
 10 11  1  0
  8 12  1  0
 11 13  1  0
 12 14  1  0
 12 15  2  0
 13 16  1  0
 13 17  2  0
 15 18  1  0
 14 19  2  0
 18 19  1  0
 18 20  1  0
 19 21  1  0
 20 22  1  0
 21 23  2  0
 20 24  2  0
 23 24  1  0
 24 25  1  0
 23 26  1  0
 25 27  1  0
 26 27  1  0
M  END
