diamond-x0662_0_A-diamond-x0900_1_A
     RDKit          3D

 19 20  0  0  0  0  0  0  0  0999 V2000
    5.3340    9.7210  -15.1690 C   0  0  0  0  0  0  0  0  0  0  0  0
    4.3000   10.0080  -14.1720 N   0  0  0  0  0  0  0  0  0  0  0  0
    3.5600   11.1640  -14.1470 C   0  0  0  0  0  0  0  0  0  0  0  0
    3.9010    9.2740  -13.1680 N   0  0  0  0  0  0  0  0  0  0  0  0
    2.6980   11.0850  -13.0760 C   0  0  0  0  0  0  0  0  0  0  0  0
    2.9330    9.8640  -12.4590 C   0  0  0  0  0  0  0  0  0  0  0  0
    2.2850    9.2660  -11.2400 C   0  0  0  0  0  0  0  0  0  0  0  0
    2.6820    8.0590  -11.0820 O   0  0  0  0  0  0  0  0  0  0  0  0
    1.4010    9.9390  -10.4050 N   0  0  0  0  0  0  0  0  0  0  0  0
    0.5310   10.5320   -9.5720 C   0  0  1  0  0  0  0  0  0  0  0  0
   -0.7340    9.7040   -9.4560 C   0  0  0  0  0  0  0  0  0  0  0  0
    0.9380   10.7150   -8.1140 C   0  0  0  0  0  0  0  0  0  0  0  0
   -1.5200    9.7280  -10.4310 O   0  0  0  0  0  0  0  0  0  0  0  0
   -1.0860    8.9200   -8.2870 C   0  0  0  0  0  0  0  0  0  0  0  0
   -0.2160   10.8370   -7.2100 C   0  0  2  0  0  0  0  0  0  0  0  0
    0.1070   11.4380   -5.8940 C   0  0  0  0  0  0  0  0  0  0  0  0
   -0.8330    9.4890   -7.0930 C   0  0  0  0  0  0  0  0  0  0  0  0
   -0.6450   11.1310   -4.9190 O   0  0  0  0  0  0  0  0  0  0  0  0
    1.1450   12.3130   -5.6400 O   0  0  0  0  0  0  0  0  0  0  0  0
  1  2  1  0
  2  3  1  0
  2  4  1  0
  3  5  2  0
  4  6  2  0
  5  6  1  0
  6  7  1  0
  7  8  2  0
  7  9  1  0
 10  9  1  6
 10 11  1  0
 10 12  1  0
 11 13  2  0
 11 14  1  0
 12 15  1  0
 15 16  1  1
 14 17  2  0
 15 17  1  0
 16 18  2  0
 16 19  1  0
M  CHG  1  19  -1
M  END
