diamond-x0371_0_A-mac-x0436
     RDKit          3D

 36 40  0  0  0  0  0  0  0  0999 V2000
   -8.1920   14.6160    3.0370 N   0  0  0  0  0  0  0  0  0  0  0  0
   -8.8570   15.6030    3.7060 C   0  0  0  0  0  0  0  0  0  0  0  0
   -9.5370   16.4380    3.1110 O   0  0  0  0  0  0  0  0  0  0  0  0
   -8.4460   14.3840    1.6490 C   0  0  0  0  0  0  0  0  0  0  0  0
   -7.1960   14.5480    0.8790 C   0  0  0  0  0  0  0  0  0  0  0  0
   -8.6900   15.5550    5.1300 C   0  0  0  0  0  0  0  0  0  0  0  0
   -5.9510   14.6600    1.4720 N   0  0  0  0  0  0  0  0  0  0  0  0
   -7.1030   14.6000   -0.4240 N   0  0  0  0  0  0  0  0  0  0  0  0
   -8.0890   14.4600    5.6850 O   0  0  0  0  0  0  0  0  0  0  0  0
   -9.0380   16.4440    6.1220 C   0  0  0  0  0  0  0  0  0  0  0  0
   -5.7730   14.7300   -0.6810 C   0  0  0  0  0  0  0  0  0  0  0  0
   -5.0230   14.7790    0.4820 C   0  0  0  0  0  0  0  0  0  0  0  0
   -8.6240   15.8620    7.3430 C   0  0  0  0  0  0  0  0  0  0  0  0
   -8.0510   14.6560    7.0230 C   0  0  0  0  0  0  0  0  0  0  0  0
   -3.6360   14.9130    0.5040 C   0  0  0  0  0  0  0  0  0  0  0  0
   -5.1350   14.8000   -1.9050 C   0  0  0  0  0  0  0  0  0  0  0  0
   -3.0130   14.9700   -0.7500 C   0  0  0  0  0  0  0  0  0  0  0  0
   -3.7530   14.9050   -1.9490 C   0  0  0  0  0  0  0  0  0  0  0  0
   -3.0900   14.9160   -3.2920 C   0  0  0  0  0  0  0  0  0  0  0  0
   -3.2490   13.5320   -3.9830 C   0  0  0  0  0  0  0  0  0  0  0  0
   -1.9910   13.1710   -4.5870 N   0  0  0  0  0  0  0  0  0  0  0  0
   -1.5330   12.0870   -5.1170 C   0  0  0  0  0  0  0  0  0  0  0  0
   -0.1290   12.1000   -5.7140 C   0  0  0  0  0  0  0  0  0  0  0  0
   -2.2610   10.8980   -5.2080 N   0  0  0  0  0  0  0  0  0  0  0  0
    0.7890   13.2490   -5.3810 C   0  0  0  0  0  0  0  0  0  0  0  0
   -1.8330    9.9430   -6.1870 C   0  0  0  0  0  0  0  0  0  0  0  0
    0.2870   11.1740   -6.5200 N   0  0  0  0  0  0  0  0  0  0  0  0
    1.8040   12.9380   -4.2760 C   0  0  0  0  0  0  0  0  0  0  0  0
   -0.5760   10.1030   -6.8180 C   0  0  0  0  0  0  0  0  0  0  0  0
   -2.6340    8.8450   -6.5390 C   0  0  0  0  0  0  0  0  0  0  0  0
    1.2080   12.4380   -2.9710 C   0  0  0  0  0  0  0  0  0  0  0  0
   -0.1500    9.1800   -7.7750 C   0  0  0  0  0  0  0  0  0  0  0  0
   -2.1910    7.9280   -7.5010 C   0  0  0  0  0  0  0  0  0  0  0  0
    0.7390   11.1760   -3.0240 O   0  0  0  0  0  0  0  0  0  0  0  0
    1.1460   13.0850   -1.9410 O   0  0  0  0  0  0  0  0  0  0  0  0
   -0.9520    8.0950   -8.1180 C   0  0  0  0  0  0  0  0  0  0  0  0
  1  2  1  0
  2  3  2  0
  1  4  1  0
  4  5  1  0
  2  6  1  0
  5  7  1  0
  5  8  2  0
  6  9  1  0
  6 10  2  0
  8 11  1  0
  7 12  1  0
 11 12  2  0
 10 13  1  0
  9 14  1  0
 13 14  2  0
 12 15  1  0
 11 16  1  0
 15 17  2  0
 16 18  2  0
 17 18  1  0
 18 19  1  0
 19 20  1  0
 20 21  1  0
 21 22  2  3
 22 23  1  0
 22 24  1  0
 23 25  1  0
 24 26  1  0
 23 27  2  0
 25 28  1  0
 26 29  2  0
 27 29  1  0
 26 30  1  0
 28 31  1  0
 29 32  1  0
 30 33  2  0
 31 34  1  0
 31 35  2  0
 32 36  2  0
 33 36  1  0
M  END
