diamond-x0628_0_A-mac-x0584
     RDKit          3D

 30 34  0  0  0  0  0  0  0  0999 V2000
   -1.1840    9.3610   -8.0180 C   0  0  0  0  0  0  0  0  0  0  0  0
   -1.0530   10.4620   -7.0450 C   0  0  0  0  0  0  0  0  0  0  0  0
   -2.0090   10.7060   -6.1130 N   0  0  0  0  0  0  0  0  0  0  0  0
    0.0040   11.2890   -7.0090 N   0  0  0  0  0  0  0  0  0  0  0  0
   -0.3070   12.1140   -5.9930 N   0  0  0  0  0  0  0  0  0  0  0  0
   -1.5470   11.7430   -5.4560 C   0  0  0  0  0  0  0  0  0  0  0  0
   -2.2760   12.3750   -4.3380 C   0  0  0  0  0  0  0  0  0  0  0  0
    0.6320   13.2060   -5.6390 C   0  0  0  0  0  0  0  0  0  0  0  0
    2.0150   12.8290   -5.0570 C   0  0  0  0  0  0  0  0  0  0  0  0
    1.8530   12.0770   -3.7710 C   0  0  0  0  0  0  0  0  0  0  0  0
    2.5890   10.9050   -3.7990 O   0  0  0  0  0  0  0  0  0  0  0  0
    2.1880   12.8150   -2.6140 O   0  0  0  0  0  0  0  0  0  0  0  0
    0.4270   11.7430   -3.7590 C   0  0  1  0  0  0  0  0  0  0  0  0
   -0.0730   10.8800   -2.5940 C   0  0  0  0  0  0  0  0  0  0  0  0
   -0.6300   12.8210   -3.3480 C   0  0  1  0  0  0  0  0  0  0  0  0
   -0.5680   12.1760   -1.9520 C   0  0  0  0  0  0  0  0  0  0  0  0
   -0.4090   14.3340   -3.4350 C   0  0  1  0  0  0  0  0  0  0  0  0
   -0.6920   14.9170   -4.8520 C   0  0  0  0  0  0  0  0  0  0  0  0
   -1.4500   14.9240   -2.6200 N   0  0  0  0  0  0  0  0  0  0  0  0
   -2.6270   15.1620   -3.4630 C   0  0  0  0  0  0  0  0  0  0  0  0
   -2.0510   15.5990   -4.7940 C   0  0  0  0  0  0  0  0  0  0  0  0
   -1.5520   14.8590   -1.2410 C   0  0  0  0  0  0  0  0  0  0  0  0
   -0.4240   14.6570   -0.4640 N   0  0  0  0  0  0  0  0  0  0  0  0
   -2.6850   15.0100   -0.5510 C   0  0  0  0  0  0  0  0  0  0  0  0
   -0.4730   14.6080    0.8990 C   0  0  0  0  0  0  0  0  0  0  0  0
   -2.6530   14.9630    0.9320 C   0  0  0  0  0  0  0  0  0  0  0  0
   -4.0620   15.2490   -0.8320 C   0  0  0  0  0  0  0  0  0  0  0  0
   -1.5120   14.7390    1.6400 N   0  0  0  0  0  0  0  0  0  0  0  0
   -3.8190   15.1730    1.4510 N   0  0  0  0  0  0  0  0  0  0  0  0
   -4.6520   15.3340    0.3590 C   0  0  0  0  0  0  0  0  0  0  0  0
  1  2  1  0
  2  3  1  0
  2  4  2  0
  4  5  1  0
  3  6  2  0
  5  6  1  0
  6  7  1  0
  5  8  1  0
  8  9  1  0
  9 10  1  0
 10 11  1  0
 10 12  1  0
 13 10  1  1
 13 14  1  0
 13 15  1  0
 14 16  1  0
 15 16  1  1
 15 17  1  0
 17 18  1  6
 17 19  1  0
 19 20  1  0
 18 21  1  0
 20 21  1  0
 19 22  1  0
 22 23  1  0
 22 24  2  0
 23 25  1  0
 24 26  1  0
 24 27  1  0
 25 28  2  0
 26 28  1  0
 26 29  2  0
 27 30  2  0
 29 30  1  0
M  END
