diamond-x0910_0_A-diamond-x0282_0_A
     RDKit          3D

 13 14  0  0  0  0  0  0  0  0999 V2000
   -2.7170   15.7950   -1.6660 N   0  0  0  0  0  0  0  0  0  0  0  0
   -2.1070   15.3240   -0.5540 C   0  0  0  0  0  0  0  0  0  0  0  0
   -2.8360   14.6750    0.6200 C   0  0  1  0  0  0  0  0  0  0  0  0
   -0.8210   15.3430   -0.3960 N   0  0  0  0  0  0  0  0  0  0  0  0
   -1.6470   14.3610    1.4940 N   0  0  0  0  0  0  0  0  0  0  0  0
   -0.6090   14.7680    0.8260 C   0  0  0  0  0  0  0  0  0  0  0  0
   -3.7680   15.4900    1.5090 C   0  0  0  0  0  0  0  0  0  0  0  0
   -3.6450   13.4880    0.1010 C   0  0  0  0  0  0  0  0  0  0  0  0
   -5.1350   14.8590    1.7150 C   0  0  0  0  0  0  0  0  0  0  0  0
   -4.9680   13.9300   -0.5650 C   0  0  0  0  0  0  0  0  0  0  0  0
   -5.8970   14.6480    0.4150 C   0  0  1  0  0  0  0  0  0  0  0  0
   -7.1990   13.8700    0.6830 C   0  0  0  0  0  0  0  0  0  0  0  0
   -8.3340   14.5800    0.1940 O   0  0  0  0  0  0  0  0  0  0  0  0
  1  2  1  0
  2  3  1  0
  2  4  2  0
  3  5  1  0
  4  6  1  0
  5  6  2  0
  3  7  1  1
  3  8  1  0
  7  9  1  0
  8 10  1  0
  9 11  1  0
 10 11  1  0
 11 12  1  1
 12 13  1  0
M  END
