diamond-x0689_0_A-mac-x0496
     RDKit          3D

 26 28  0  0  0  0  0  0  0  0999 V2000
   -3.0430   15.1080    1.9360 N   0  0  0  0  0  0  0  0  0  0  0  0
   -1.8510   15.2270    1.1220 C   0  0  1  0  0  0  0  0  0  0  0  0
   -1.2330   13.9990    1.4650 N   0  0  0  0  0  0  0  0  0  0  0  0
   -1.9690   15.5320   -0.2880 N   0  0  0  0  0  0  0  0  0  0  0  0
   -0.9880   15.0270   -1.1190 C   0  0  0  0  0  0  0  0  0  0  0  0
    0.0500   14.0720    0.8540 C   0  0  0  0  0  0  0  0  0  0  0  0
   -3.2940   15.3180   -0.4670 C   0  0  0  0  0  0  0  0  0  0  0  0
    0.0140   14.3120   -0.6140 C   0  0  0  0  0  0  0  0  0  0  0  0
   -3.9950   15.3010    0.7360 C   0  0  0  0  0  0  0  0  0  0  0  0
   -3.9590   15.1190   -1.6690 C   0  0  0  0  0  0  0  0  0  0  0  0
   -3.2760   15.1230   -2.9880 C   0  0  0  0  0  0  0  0  0  0  0  0
   -5.3360   15.0820    0.7800 C   0  0  0  0  0  0  0  0  0  0  0  0
   -5.3540   14.8970   -1.6330 C   0  0  0  0  0  0  0  0  0  0  0  0
   -2.1860   15.6190   -3.2210 O   0  0  0  0  0  0  0  0  0  0  0  0
   -3.9560   14.5080   -3.9620 O   0  0  0  0  0  0  0  0  0  0  0  0
   -6.0290   14.8780   -0.3940 C   0  0  0  0  0  0  0  0  0  0  0  0
   -7.4780   14.6480   -0.2180 C   0  0  0  0  0  0  0  0  0  0  0  0
   -7.8670   14.2880    1.0540 N   0  0  0  0  0  0  0  0  0  0  0  0
   -8.2490   14.7720   -1.1520 O   0  0  0  0  0  0  0  0  0  0  0  0
   -9.2650   14.1660    1.4210 C   0  0  0  0  0  0  0  0  0  0  0  0
   -9.6660   15.2710    2.3250 C   0  0  0  0  0  0  0  0  0  0  0  0
  -10.9430   15.7320    2.1930 O   0  0  0  0  0  0  0  0  0  0  0  0
   -8.9810   15.9000    3.2620 N   0  0  0  0  0  0  0  0  0  0  0  0
   -9.8950   16.8010    3.7360 C   0  0  0  0  0  0  0  0  0  0  0  0
  -11.0940   16.7460    3.1400 N   0  0  0  0  0  0  0  0  0  0  0  0
   -9.5810   17.7530    4.8200 C   0  0  0  0  0  0  0  0  0  0  0  0
  2  1  1  6
  2  3  1  0
  2  4  1  0
  4  5  1  0
  3  6  1  0
  4  7  1  0
  5  8  2  0
  6  8  1  0
  7  9  2  0
  7 10  1  0
 10 11  1  0
  9 12  1  0
 10 13  2  0
 11 14  2  0
 11 15  1  0
 12 16  2  0
 13 16  1  0
 16 17  1  0
 17 18  1  0
 17 19  2  0
 18 20  1  0
 20 21  1  0
 21 22  1  0
 21 23  2  0
 23 24  1  0
 22 25  1  0
 24 25  2  0
 24 26  1  0
M  END
