diamond-x0438_0_A-diamond-x1015_0_A
     RDKit          3D

 31 34  0  0  0  0  0  0  0  0999 V2000
   -8.1540   15.5870    3.8620 C   0  0  0  0  0  0  0  0  0  0  0  0
   -9.3370   15.3530    2.5490 S   0  0  0  0  0  0  0  0  0  0  0  0
  -10.5490   14.8270    3.1510 O   0  0  0  0  0  0  0  0  0  0  0  0
   -8.6620   14.0560    1.5240 C   0  0  0  0  0  0  0  0  0  0  0  0
   -9.4270   16.5570    1.7490 O   0  0  0  0  0  0  0  0  0  0  0  0
   -7.3280   14.4130    0.9740 C   0  0  0  0  0  0  0  0  0  0  0  0
   -7.0960   14.6160   -0.3690 N   0  0  0  0  0  0  0  0  0  0  0  0
   -6.2180   14.5700    1.6610 N   0  0  0  0  0  0  0  0  0  0  0  0
   -5.2380   14.8760    0.7480 C   0  0  0  0  0  0  0  0  0  0  0  0
   -5.7650   14.9100   -0.5350 C   0  0  0  0  0  0  0  0  0  0  0  0
   -4.9990   15.1890   -1.6670 C   0  0  0  0  0  0  0  0  0  0  0  0
   -3.8750   15.1370    0.9460 C   0  0  0  0  0  0  0  0  0  0  0  0
   -3.6300   15.4400   -1.4660 C   0  0  0  0  0  0  0  0  0  0  0  0
   -3.0800   15.4160   -0.1740 C   0  0  0  0  0  0  0  0  0  0  0  0
   -2.7450   15.7220   -2.6550 C   0  0  0  0  0  0  0  0  0  0  0  0
   -2.3240   14.3920   -3.2900 C   0  0  0  0  0  0  0  0  0  0  0  0
   -1.1750   14.5510   -4.2830 C   0  0  0  0  0  0  0  0  0  0  0  0
    0.0760   13.6940   -3.9850 C   0  0  2  0  0  0  0  0  0  0  0  0
   -0.1600   12.2510   -3.9140 N   0  0  0  0  0  0  0  0  0  0  0  0
    0.4600   13.9480   -2.5280 C   0  0  0  0  0  0  0  0  0  0  0  0
    0.5210   15.0370   -1.9760 O   0  0  0  0  0  0  0  0  0  0  0  0
    0.2670   11.7300   -2.6790 C   0  0  0  0  0  0  0  0  0  0  0  0
    0.7350   12.7640   -1.9320 N   0  0  0  0  0  0  0  0  0  0  0  0
   -0.5270   11.4550   -5.0270 C   0  0  0  0  0  0  0  0  0  0  0  0
    0.2540   10.5610   -2.2820 O   0  0  0  0  0  0  0  0  0  0  0  0
    0.0510   11.6490   -6.2900 C   0  0  0  0  0  0  0  0  0  0  0  0
   -1.4850   10.4380   -4.8940 C   0  0  0  0  0  0  0  0  0  0  0  0
   -0.3160   10.8550   -7.3820 C   0  0  0  0  0  0  0  0  0  0  0  0
   -1.8550    9.6430   -5.9810 C   0  0  0  0  0  0  0  0  0  0  0  0
   -1.2690    9.8550   -7.2230 C   0  0  0  0  0  0  0  0  0  0  0  0
   -1.7280    8.8750   -8.5580 Cl  0  0  0  0  0  0  0  0  0  0  0  0
  2  1  1  0
  2  3  2  0
  2  4  1  0
  2  5  2  0
  4  6  1  0
  6  7  1  0
  6  8  2  0
  8  9  1  0
  7 10  1  0
  9 10  2  0
 10 11  1  0
  9 12  1  0
 11 13  2  0
 12 14  2  0
 13 14  1  0
 13 15  1  0
 15 16  1  0
 16 17  1  0
 18 17  1  1
 18 19  1  0
 18 20  1  0
 20 21  2  0
 19 22  1  0
 20 23  1  0
 22 23  1  0
 19 24  1  0
 22 25  2  0
 24 26  2  0
 24 27  1  0
 26 28  1  0
 27 29  2  0
 28 30  2  0
 29 30  1  0
 30 31  1  0
M  END
