diamond-x0159_0_B-diamond-x0727_0_A
     RDKit          3D

 32 35  0  0  0  0  0  0  0  0999 V2000
    1.2050    9.0320   -9.9890 N   0  0  0  0  0  0  0  0  0  0  0  0
    1.5140    7.9610   -9.0250 C   0  0  2  0  0  0  0  0  0  0  0  0
    1.3830    6.6230   -9.7460 C   0  0  0  0  0  0  0  0  0  0  0  0
    2.0270    9.2980  -11.0530 C   0  0  0  0  0  0  0  0  0  0  0  0
    0.5860    7.7910   -7.7780 C   0  0  0  0  0  0  0  0  0  0  0  0
    1.8570   10.4580  -11.7800 N   0  0  0  0  0  0  0  0  0  0  0  0
    3.0300    8.5950  -11.5500 N   0  0  0  0  0  0  0  0  0  0  0  0
    3.5180    9.3260  -12.6200 C   0  0  0  0  0  0  0  0  0  0  0  0
    2.7930   10.5040  -12.7820 C   0  0  0  0  0  0  0  0  0  0  0  0
    1.6440    5.4780   -8.7970 C   0  0  0  0  0  0  0  0  0  0  0  0
   -0.1430    8.9580   -7.0910 C   0  0  1  0  0  0  0  0  0  0  0  0
    2.5380    4.4950   -9.2020 C   0  0  0  0  0  0  0  0  0  0  0  0
    1.0290    5.3760   -7.5390 C   0  0  0  0  0  0  0  0  0  0  0  0
    3.0650   11.4440  -13.7840 C   0  0  0  0  0  0  0  0  0  0  0  0
    4.5790    9.0500  -13.4980 C   0  0  0  0  0  0  0  0  0  0  0  0
    0.0750   10.3260   -7.7550 C   0  0  2  0  0  0  0  0  0  0  0  0
   -1.6590    8.7250   -7.0610 C   0  0  0  0  0  0  0  0  0  0  0  0
    0.7540   11.3060   -6.8050 C   0  0  0  0  0  0  0  0  0  0  0  0
    2.8250    3.4280   -8.3800 C   0  0  0  0  0  0  0  0  0  0  0  0
    1.3220    4.3050   -6.7130 C   0  0  0  0  0  0  0  0  0  0  0  0
    4.1270   11.1500  -14.6470 C   0  0  0  0  0  0  0  0  0  0  0  0
    4.8760    9.9740  -14.5120 C   0  0  0  0  0  0  0  0  0  0  0  0
   -1.3120   10.8050   -8.1990 C   0  0  0  0  0  0  0  0  0  0  0  0
   -2.1970    9.5650   -8.2010 C   0  0  0  0  0  0  0  0  0  0  0  0
    0.1260   11.5970   -5.6320 N   0  0  0  0  0  0  0  0  0  0  0  0
    1.8280   11.8250   -7.0050 O   0  0  0  0  0  0  0  0  0  0  0  0
    2.2280    3.3360   -7.1510 C   0  0  0  0  0  0  0  0  0  0  0  0
    0.8750   12.4380   -4.6960 C   0  0  1  0  0  0  0  0  0  0  0  0
    0.4700   13.8980   -4.8650 C   0  0  0  0  0  0  0  0  0  0  0  0
    0.6960   11.9500   -3.2440 C   0  0  0  0  0  0  0  0  0  0  0  0
    0.2510   10.8490   -2.9310 O   0  0  0  0  0  0  0  0  0  0  0  0
    1.0880   12.8630   -2.3230 O   0  0  0  0  0  0  0  0  0  0  0  0
  1  2  1  0
  2  3  1  6
  1  4  1  0
  2  5  1  0
  4  6  1  0
  4  7  2  0
  7  8  1  0
  6  9  1  0
  8  9  2  0
  3 10  1  0
 11  5  1  6
 10 12  2  0
 10 13  1  0
  9 14  1  0
  8 15  1  0
 11 16  1  0
 11 17  1  0
 16 18  1  1
 12 19  1  0
 13 20  2  0
 14 21  2  0
 15 22  2  0
 21 22  1  0
 16 23  1  0
 17 24  1  0
 23 24  1  0
 18 25  1  0
 18 26  2  0
 19 27  2  0
 20 27  1  0
 25 28  1  0
 28 29  1  1
 28 30  1  0
 30 31  2  0
 30 32  1  0
M  END
