diamond-x0895_0_A-diamond-x0766_0_A
     RDKit          3D

 20 22  0  0  0  0  0  0  0  0999 V2000
   -2.0830   14.6980    2.0430 O   0  0  0  0  0  0  0  0  0  0  0  0
   -2.9500   15.0410    1.2370 C   0  0  0  0  0  0  0  0  0  0  0  0
   -4.3980   15.4790    1.4410 C   0  0  0  0  0  0  0  0  0  0  0  0
   -2.7660   15.1210   -0.1010 N   0  0  0  0  0  0  0  0  0  0  0  0
   -4.8530   15.7260    0.0510 N   0  0  0  0  0  0  0  0  0  0  0  0
   -3.9190   15.2100   -0.7930 C   0  0  0  0  0  0  0  0  0  0  0  0
   -3.7550   14.7930   -2.0140 N   0  0  0  0  0  0  0  0  0  0  0  0
   -2.4930   14.4410   -1.7460 C   0  0  0  0  0  0  0  0  0  0  0  0
   -1.1990   14.2810   -2.2840 C   0  0  0  0  0  0  0  0  0  0  0  0
   -2.5190   14.0450   -0.0930 S   0  0  0  0  0  0  0  0  0  0  0  0
   -0.6160   14.4480   -3.6610 C   0  0  2  0  0  0  0  0  0  0  0  0
   -0.3020   13.8730   -1.2370 C   0  0  0  0  0  0  0  0  0  0  0  0
   -0.8850   13.7210   -0.0220 C   0  0  0  0  0  0  0  0  0  0  0  0
    0.6470   13.5790   -3.6680 C   0  0  1  0  0  0  0  0  0  0  0  0
    0.0670   15.7780   -4.0360 C   0  0  0  0  0  0  0  0  0  0  0  0
    0.4950   12.1650   -3.1960 C   0  0  0  0  0  0  0  0  0  0  0  0
    1.2380   13.8670   -5.0140 C   0  0  0  0  0  0  0  0  0  0  0  0
    1.3230   15.3830   -4.8450 C   0  0  0  0  0  0  0  0  0  0  0  0
    1.0330   11.7500   -2.1920 O   0  0  0  0  0  0  0  0  0  0  0  0
   -0.2750   11.3570   -3.9300 O   0  0  0  0  0  0  0  0  0  0  0  0
  1  2  2  0
  2  3  1  0
  2  4  1  0
  3  5  1  0
  4  6  1  0
  5  6  1  0
  6  7  2  3
  7  8  1  0
  8  9  2  0
  8 10  1  0
 11  9  1  1
  9 12  1  0
 10 13  1  0
 12 13  2  0
 11 14  1  0
 11 15  1  0
 14 16  1  6
 14 17  1  0
 15 18  1  0
 17 18  1  0
 16 19  2  0
 16 20  1  0
M  END
