diamond-x0681_0_A-diamond-x0895_0_A
     RDKit          3D

 13 14  0  0  0  0  0  0  0  0999 V2000
   -4.1350   15.3100   -3.1190 N   0  0  0  0  0  0  0  0  0  0  0  0
   -3.4700   14.9660   -1.9920 C   0  0  0  0  0  0  0  0  0  0  0  0
   -2.2910   14.6350   -2.0770 O   0  0  0  0  0  0  0  0  0  0  0  0
   -4.2570   15.0140   -0.6960 C   0  0  1  0  0  0  0  0  0  0  0  0
   -5.0500   13.7530   -0.5260 C   0  0  0  0  0  0  0  0  0  0  0  0
   -3.4490   15.4520    0.5160 C   0  0  0  0  0  0  0  0  0  0  0  0
   -5.3010   13.2180    0.6890 N   0  0  0  0  0  0  0  0  0  0  0  0
   -3.4770   14.4290    1.5940 C   0  0  0  0  0  0  0  0  0  0  0  0
   -5.6030   13.0110   -1.4630 N   0  0  0  0  0  0  0  0  0  0  0  0
   -2.3980   14.1460    2.1380 O   0  0  0  0  0  0  0  0  0  0  0  0
   -4.8130   13.7860    1.9040 C   0  0  0  0  0  0  0  0  0  0  0  0
   -6.0550   12.0970    0.5480 C   0  0  0  0  0  0  0  0  0  0  0  0
   -6.2330   11.9790   -0.8100 C   0  0  0  0  0  0  0  0  0  0  0  0
  1  2  1  0
  2  3  2  0
  4  2  1  6
  4  5  1  0
  4  6  1  0
  5  7  1  0
  6  8  1  0
  5  9  2  0
  8 10  2  0
  7 11  1  0
  8 11  1  0
  7 12  1  0
  9 13  1  0
 12 13  2  0
M  END
