diamond-x0837_0_A-mac-x0271
     RDKit          3D

 13 14  0  0  0  0  0  0  0  0999 V2000
   -6.7480   13.2740   -0.2320 O   0  0  0  0  0  0  0  0  0  0  0  0
   -6.5190   14.6490   -0.1320 C   0  0  1  0  0  0  0  0  0  0  0  0
   -5.8800   14.8890    1.1640 N   0  0  0  0  0  0  0  0  0  0  0  0
   -5.6960   15.1460   -1.3300 C   0  0  0  0  0  0  0  0  0  0  0  0
   -7.8170   15.2390   -0.2250 O   0  0  0  0  0  0  0  0  0  0  0  0
   -4.5040   14.8240    1.2830 C   0  0  0  0  0  0  0  0  0  0  0  0
   -4.1870   15.3580   -1.0990 C   0  0  2  0  0  0  0  0  0  0  0  0
   -6.7320   14.8790    2.2420 C   0  0  0  0  0  0  0  0  0  0  0  0
   -8.6580   15.0480    0.8030 C   0  0  0  0  0  0  0  0  0  0  0  0
   -2.9650   14.4050   -2.5830 I   0  0  0  0  0  0  0  0  0  0  0  0
   -9.8750   14.9700    0.6660 O   0  0  0  0  0  0  0  0  0  0  0  0
   -3.6730   15.0300    0.2700 C   0  0  0  0  0  0  0  0  0  0  0  0
   -8.0590   14.9470    2.1340 C   0  0  0  0  0  0  0  0  0  0  0  0
  2  1  1  6
  2  3  1  0
  2  4  1  0
  2  5  1  0
  3  6  1  0
  4  7  1  0
  3  8  1  0
  5  9  1  0
  7 10  1  6
  9 11  2  0
  6 12  2  0
  7 12  1  0
  8 13  2  0
  9 13  1  0
M  END
