diamond-x0969_0_A-mac-x0394
     RDKit          3D

 24 26  0  0  0  0  0  0  0  0999 V2000
   -6.7530   14.8730    2.4260 N   0  0  0  0  0  0  0  0  0  0  0  0
   -6.4870   14.6690    1.1170 C   0  0  0  0  0  0  0  0  0  0  0  0
   -7.3260   14.3300    0.1670 N   0  0  0  0  0  0  0  0  0  0  0  0
   -5.2200   14.7980    0.5910 N   0  0  0  0  0  0  0  0  0  0  0  0
   -6.6110   14.2090   -1.0090 N   0  0  0  0  0  0  0  0  0  0  0  0
   -5.3420   14.4740   -0.7530 C   0  0  0  0  0  0  0  0  0  0  0  0
   -4.0220   15.1570    1.1940 C   0  0  0  0  0  0  0  0  0  0  0  0
   -4.1320   14.4760   -1.5600 C   0  0  0  0  0  0  0  0  0  0  0  0
   -2.9120   15.1920    0.4580 C   0  0  0  0  0  0  0  0  0  0  0  0
   -4.0270   14.0520   -3.0160 C   0  0  0  0  0  0  0  0  0  0  0  0
   -2.9860   14.8330   -0.9440 C   0  0  0  0  0  0  0  0  0  0  0  0
   -4.1110   15.1820   -4.0250 C   0  0  0  0  0  0  0  0  0  0  0  0
   -3.2250   15.1580   -5.2780 C   0  0  0  0  0  0  0  0  0  0  0  0
   -1.7430   15.3420   -5.0500 C   0  0  0  0  0  0  0  0  0  0  0  0
   -0.9430   14.2320   -4.7720 C   0  0  0  0  0  0  0  0  0  0  0  0
   -1.1410   16.6030   -5.1220 C   0  0  0  0  0  0  0  0  0  0  0  0
    0.4370   14.3510   -4.5630 C   0  0  0  0  0  0  0  0  0  0  0  0
    0.2290   16.7230   -4.9170 C   0  0  0  0  0  0  0  0  0  0  0  0
    0.9410   18.2680   -5.0180 Cl  0  0  0  0  0  0  0  0  0  0  0  0
    1.2610   13.1230   -4.2630 C   0  0  0  0  0  0  0  0  0  0  0  0
    1.0220   15.6160   -4.6370 C   0  0  0  0  0  0  0  0  0  0  0  0
    0.8910   12.4850   -2.9450 C   0  0  0  0  0  0  0  0  0  0  0  0
    0.3460   11.2550   -3.0910 O   0  0  0  0  0  0  0  0  0  0  0  0
    1.0240   12.9450   -1.8260 O   0  0  0  0  0  0  0  0  0  0  0  0
  1  2  1  0
  2  3  2  0
  2  4  1  0
  3  5  1  0
  4  6  1  0
  5  6  2  0
  4  7  1  0
  6  8  1  0
  7  9  2  0
  8 10  1  0
  8 11  2  0
  9 11  1  0
 10 12  1  0
 12 13  1  0
 13 14  1  0
 14 15  2  0
 14 16  1  0
 15 17  1  0
 16 18  2  0
 18 19  1  0
 17 20  1  0
 17 21  2  0
 18 21  1  0
 20 22  1  0
 22 23  1  0
 22 24  2  0
M  END
