diamond-x0805_0_A-mac-x0212
     RDKit          3D

 24 25  0  0  0  0  0  0  0  0999 V2000
   -4.6040   15.1030    0.6190 C   0  0  0  0  0  0  0  0  0  0  0  0
   -4.0130   15.4870   -0.6690 O   0  0  0  0  0  0  0  0  0  0  0  0
   -3.5810   14.4940   -1.5460 C   0  0  0  0  0  0  0  0  0  0  0  0
   -6.3190   14.4580    0.7010 S   0  0  0  0  0  0  0  0  0  0  0  0
   -6.1090   12.7190    1.0160 C   0  0  0  0  0  0  0  0  0  0  0  0
   -7.0490   14.9870    1.8460 O   0  0  0  0  0  0  0  0  0  0  0  0
   -6.9300   14.5830   -0.6120 O   0  0  0  0  0  0  0  0  0  0  0  0
   -4.3420   13.3620   -1.8220 C   0  0  0  0  0  0  0  0  0  0  0  0
   -2.3340   14.5820   -2.2180 C   0  0  0  0  0  0  0  0  0  0  0  0
   -1.4300   15.6600   -2.0880 C   0  0  0  0  0  0  0  0  0  0  0  0
   -3.8570   12.3930   -2.7190 C   0  0  0  0  0  0  0  0  0  0  0  0
   -1.8170   13.6630   -3.0820 C   0  0  0  0  0  0  0  0  0  0  0  0
   -0.6300   15.8330   -1.2150 O   0  0  0  0  0  0  0  0  0  0  0  0
   -1.6010   16.4180   -3.1900 O   0  0  0  0  0  0  0  0  0  0  0  0
   -2.6030   12.5330   -3.3460 C   0  0  0  0  0  0  0  0  0  0  0  0
   -0.4160   13.9570   -3.6640 C   0  0  1  0  0  0  0  0  0  0  0  0
    0.7460   13.0210   -3.3610 C   0  0  1  0  0  0  0  0  0  0  0  0
   -0.1110   14.7760   -4.8980 C   0  0  0  0  0  0  0  0  0  0  0  0
    0.4420   11.9040   -2.4380 C   0  0  0  0  0  0  0  0  0  0  0  0
    1.5810   12.7610   -4.5920 C   0  0  0  0  0  0  0  0  0  0  0  0
    1.3700   15.1510   -4.7900 C   0  0  0  0  0  0  0  0  0  0  0  0
    0.2830   10.6940   -2.9730 O   0  0  0  0  0  0  0  0  0  0  0  0
    0.3440   12.1190   -1.2460 O   0  0  0  0  0  0  0  0  0  0  0  0
    2.2060   13.9870   -4.9440 O   0  0  0  0  0  0  0  0  0  0  0  0
  1  2  1  0
  2  3  1  0
  4  1  1  0
  4  5  1  0
  4  6  2  0
  4  7  2  0
  3  8  2  0
  3  9  1  0
  9 10  1  0
  8 11  1  0
  9 12  2  0
 10 13  2  0
 10 14  1  0
 11 15  2  0
 12 15  1  0
 16 12  1  6
 16 17  1  0
 16 18  1  0
 17 19  1  6
 17 20  1  0
 18 21  1  0
 19 22  1  0
 19 23  2  0
 20 24  1  0
 21 24  1  0
M  END
