diamond-x0371_0_A-diamond-x0727_0_A
     RDKit          3D

 34 37  0  0  0  0  0  0  0  0999 V2000
   -8.0150   14.5810    2.9490 N   0  0  0  0  0  0  0  0  0  0  0  0
   -8.7410   15.5390    3.6340 C   0  0  0  0  0  0  0  0  0  0  0  0
   -9.4520   16.3370    3.0240 O   0  0  0  0  0  0  0  0  0  0  0  0
   -8.3070   14.3760    1.5490 C   0  0  0  0  0  0  0  0  0  0  0  0
   -7.0540   14.5780    0.7970 C   0  0  0  0  0  0  0  0  0  0  0  0
   -8.6160   15.5270    5.0720 C   0  0  0  0  0  0  0  0  0  0  0  0
   -5.8560   14.4090    1.4250 N   0  0  0  0  0  0  0  0  0  0  0  0
   -6.8840   14.9170   -0.4730 N   0  0  0  0  0  0  0  0  0  0  0  0
   -8.0380   14.4330    5.6510 O   0  0  0  0  0  0  0  0  0  0  0  0
   -8.9690   16.4260    6.0620 C   0  0  0  0  0  0  0  0  0  0  0  0
   -5.5140   14.9520   -0.6460 C   0  0  0  0  0  0  0  0  0  0  0  0
   -4.8700   14.6330    0.5350 C   0  0  0  0  0  0  0  0  0  0  0  0
   -8.5830   15.8420    7.2960 C   0  0  0  0  0  0  0  0  0  0  0  0
   -8.0210   14.6310    6.9870 C   0  0  0  0  0  0  0  0  0  0  0  0
   -3.5050   14.5690    0.6990 C   0  0  0  0  0  0  0  0  0  0  0  0
   -4.7310   15.2420   -1.7710 C   0  0  0  0  0  0  0  0  0  0  0  0
   -2.7130   14.8360   -0.4090 C   0  0  0  0  0  0  0  0  0  0  0  0
   -3.3270   15.1780   -1.6420 C   0  0  0  0  0  0  0  0  0  0  0  0
   -1.2100   14.7290   -0.2190 C   0  0  0  0  0  0  0  0  0  0  0  0
   -0.4090   14.4970   -1.5040 C   0  0  0  0  0  0  0  0  0  0  0  0
    0.5820   13.3660   -1.3010 C   0  0  0  0  0  0  0  0  0  0  0  0
    1.3480   13.0850   -2.4800 O   0  0  0  0  0  0  0  0  0  0  0  0
    0.9010   12.1070   -3.3040 C   0  0  0  0  0  0  0  0  0  0  0  0
    1.1150   12.5320   -4.7590 C   0  0  1  0  0  0  0  0  0  0  0  0
    0.3990   11.0390   -2.9510 O   0  0  0  0  0  0  0  0  0  0  0  0
    0.1250   11.8330   -5.5550 N   0  0  0  0  0  0  0  0  0  0  0  0
    0.9180   14.0330   -4.8930 C   0  0  0  0  0  0  0  0  0  0  0  0
    0.4830   11.1570   -6.6920 C   0  0  0  0  0  0  0  0  0  0  0  0
    1.5050   11.3560   -7.3150 O   0  0  0  0  0  0  0  0  0  0  0  0
   -0.5840   10.1370   -7.0240 C   0  0  0  0  0  0  0  0  0  0  0  0
   -1.0350   10.0540   -8.4620 C   0  0  0  0  0  0  0  0  0  0  0  0
   -0.2210    8.6900   -6.7360 C   0  0  0  0  0  0  0  0  0  0  0  0
   -1.9780    8.8510   -8.3960 C   0  0  0  0  0  0  0  0  0  0  0  0
   -1.4940    8.0070   -7.2050 C   0  0  0  0  0  0  0  0  0  0  0  0
  1  2  1  0
  2  3  2  0
  1  4  1  0
  4  5  1  0
  2  6  1  0
  5  7  1  0
  5  8  2  0
  6  9  1  0
  6 10  2  0
  8 11  1  0
  7 12  1  0
 11 12  2  0
 10 13  1  0
  9 14  1  0
 13 14  2  0
 12 15  1  0
 11 16  1  0
 15 17  2  0
 16 18  2  0
 17 18  1  0
 17 19  1  0
 19 20  1  0
 20 21  1  0
 21 22  1  0
 22 23  1  0
 23 24  1  0
 23 25  2  0
 24 26  1  0
 24 27  1  1
 26 28  1  0
 28 29  2  0
 28 30  1  0
 30 31  1  0
 30 32  1  0
 31 33  1  0
 32 34  1  0
 33 34  1  0
M  END
