diamond-x0282_0_A-mac-x0396
     RDKit          3D

 17 18  0  0  0  0  0  0  0  0999 V2000
   -7.7570   14.3470    1.3020 C   0  0  0  0  0  0  0  0  0  0  0  0
   -8.4560   14.5660    0.0810 O   0  0  0  0  0  0  0  0  0  0  0  0
   -6.2900   14.0010    1.0420 C   0  0  2  0  0  0  0  0  0  0  0  0
   -5.2960   14.7760    1.8800 C   0  0  0  0  0  0  0  0  0  0  0  0
   -5.8400   14.0760   -0.4120 C   0  0  0  0  0  0  0  0  0  0  0  0
   -4.0250   13.9390    1.9240 C   0  0  0  0  0  0  0  0  0  0  0  0
   -4.3120   14.0970   -0.5660 C   0  0  1  0  0  0  0  0  0  0  0  0
   -3.8120   15.4880   -0.7310 C   0  0  0  0  0  0  0  0  0  0  0  0
   -3.5070   13.7090    0.5900 N   0  0  0  0  0  0  0  0  0  0  0  0
   -3.6520   16.1030    0.4810 N   0  0  0  0  0  0  0  0  0  0  0  0
   -3.5580   15.9970   -1.7940 O   0  0  0  0  0  0  0  0  0  0  0  0
   -2.1790   14.0590    0.4360 C   0  0  0  0  0  0  0  0  0  0  0  0
   -1.7170   14.1900   -0.8210 N   0  0  0  0  0  0  0  0  0  0  0  0
   -1.4020   14.2570    1.5270 N   0  0  0  0  0  0  0  0  0  0  0  0
   -0.4400   14.5330   -0.9960 C   0  0  0  0  0  0  0  0  0  0  0  0
   -0.1260   14.5900    1.2850 C   0  0  0  0  0  0  0  0  0  0  0  0
    0.4110   14.7480    0.0320 C   0  0  0  0  0  0  0  0  0  0  0  0
  1  2  1  0
  3  1  1  6
  3  4  1  0
  3  5  1  0
  4  6  1  0
  5  7  1  0
  7  8  1  1
  6  9  1  0
  7  9  1  0
  8 10  1  0
  8 11  2  0
  9 12  1  0
 12 13  2  0
 12 14  1  0
 13 15  1  0
 14 16  2  0
 15 17  2  0
 16 17  1  0
M  END
