diamond-x0969_0_A-mac-x0358
     RDKit          3D

 23 25  0  0  0  0  0  0  0  0999 V2000
   -6.7980   14.7740    2.5890 N   0  0  0  0  0  0  0  0  0  0  0  0
   -6.6940   14.7760    1.2460 C   0  0  0  0  0  0  0  0  0  0  0  0
   -7.6890   14.6690    0.3960 N   0  0  0  0  0  0  0  0  0  0  0  0
   -5.5000   14.9010    0.5530 N   0  0  0  0  0  0  0  0  0  0  0  0
   -7.1770   14.7190   -0.8760 N   0  0  0  0  0  0  0  0  0  0  0  0
   -5.8800   14.8530   -0.7800 C   0  0  0  0  0  0  0  0  0  0  0  0
   -4.1700   15.0450    0.9650 C   0  0  0  0  0  0  0  0  0  0  0  0
   -4.8680   14.9350   -1.7540 C   0  0  0  0  0  0  0  0  0  0  0  0
   -3.2100   15.1120    0.0370 C   0  0  0  0  0  0  0  0  0  0  0  0
   -3.5880   15.0420   -1.3820 C   0  0  0  0  0  0  0  0  0  0  0  0
   -2.5060   15.0570   -2.4100 C   0  0  0  0  0  0  0  0  0  0  0  0
   -2.8270   15.6620   -3.8010 C   0  0  0  0  0  0  0  0  0  0  0  0
   -2.3190   14.5680   -4.6240 C   0  0  0  0  0  0  0  0  0  0  0  0
   -3.0500   13.9230   -5.6090 C   0  0  0  0  0  0  0  0  0  0  0  0
   -1.0280   14.1810   -4.3110 C   0  0  0  0  0  0  0  0  0  0  0  0
   -0.4320   13.1240   -4.9440 C   0  0  0  0  0  0  0  0  0  0  0  0
   -2.4630   12.8470   -6.2640 C   0  0  0  0  0  0  0  0  0  0  0  0
    0.9590   12.7350   -4.5390 C   0  0  0  0  0  0  0  0  0  0  0  0
   -1.1650   12.4530   -5.9160 C   0  0  0  0  0  0  0  0  0  0  0  0
    0.9150   12.1110   -3.1620 C   0  0  0  0  0  0  0  0  0  0  0  0
   -0.5800   11.3870   -6.5220 O   0  0  0  0  0  0  0  0  0  0  0  0
    1.5620   12.8420   -2.2290 O   0  0  0  0  0  0  0  0  0  0  0  0
    0.3680   11.0710   -2.8360 O   0  0  0  0  0  0  0  0  0  0  0  0
  1  2  1  0
  2  3  2  0
  2  4  1  0
  3  5  1  0
  4  6  1  0
  5  6  2  0
  4  7  1  0
  6  8  1  0
  7  9  2  0
  8 10  2  0
  9 10  1  0
 10 11  1  0
 11 12  1  0
 12 13  1  0
 13 14  2  0
 13 15  1  0
 15 16  2  0
 14 17  1  0
 16 18  1  0
 16 19  1  0
 17 19  2  0
 18 20  1  0
 19 21  1  0
 20 22  1  0
 20 23  2  0
M  END
