diamond-x0967_0_A-mac-x0404
     RDKit          3D

 28 31  0  0  0  0  0  0  0  0999 V2000
    0.9610   12.3540   -1.6150 O   0  0  0  0  0  0  0  0  0  0  0  0
    0.7790   11.8550   -2.8800 C   0  0  0  0  0  0  0  0  0  0  0  0
    0.1550   10.8310   -3.1150 O   0  0  0  0  0  0  0  0  0  0  0  0
    0.4470   13.6450   -1.2920 C   0  0  0  0  0  0  0  0  0  0  0  0
    1.4640   12.6910   -3.9750 C   0  0  0  0  0  0  0  0  0  0  0  0
   -0.7270   13.4990   -0.3260 C   0  0  0  0  0  0  0  0  0  0  0  0
    1.1350   14.0730   -4.0150 O   0  0  0  0  0  0  0  0  0  0  0  0
   -1.4250   14.8390   -0.2240 C   0  0  0  0  0  0  0  0  0  0  0  0
   -2.9330   14.8100   -0.3230 C   0  0  0  0  0  0  0  0  0  0  0  0
   -0.1070   14.4850   -4.4510 C   0  0  0  0  0  0  0  0  0  0  0  0
   -3.5940   14.8230   -1.5480 C   0  0  0  0  0  0  0  0  0  0  0  0
   -3.7370   14.7710    0.8110 C   0  0  0  0  0  0  0  0  0  0  0  0
   -0.2110   15.8480   -4.8180 C   0  0  0  0  0  0  0  0  0  0  0  0
   -1.2340   13.6640   -4.5470 C   0  0  0  0  0  0  0  0  0  0  0  0
   -5.1340   14.7370    0.6730 C   0  0  0  0  0  0  0  0  0  0  0  0
   -4.9400   14.7910   -1.6970 N   0  0  0  0  0  0  0  0  0  0  0  0
   -1.4470   16.3660   -5.2700 C   0  0  0  0  0  0  0  0  0  0  0  0
   -2.4490   14.1820   -4.9930 C   0  0  0  0  0  0  0  0  0  0  0  0
    0.8820   16.7250   -4.7510 C   0  0  0  0  0  0  0  0  0  0  0  0
   -5.7100   14.7450   -0.6100 C   0  0  0  0  0  0  0  0  0  0  0  0
   -5.9760   14.6900    1.7860 C   0  0  0  0  0  0  0  0  0  0  0  0
   -2.5580   15.5220   -5.3510 C   0  0  0  0  0  0  0  0  0  0  0  0
   -1.5530   17.7120   -5.6380 C   0  0  0  0  0  0  0  0  0  0  0  0
    0.7710   18.0620   -5.1210 C   0  0  0  0  0  0  0  0  0  0  0  0
   -7.0380   14.7030   -0.7660 N   0  0  0  0  0  0  0  0  0  0  0  0
   -7.3510   14.6430    1.6210 C   0  0  0  0  0  0  0  0  0  0  0  0
   -0.4490   18.5540   -5.5660 C   0  0  0  0  0  0  0  0  0  0  0  0
   -7.8310   14.6520    0.3300 C   0  0  0  0  0  0  0  0  0  0  0  0
  1  2  1  0
  2  3  2  0
  1  4  1  0
  2  5  1  0
  4  6  1  0
  5  7  1  0
  6  8  1  0
  8  9  1  0
  7 10  1  0
  9 11  2  0
  9 12  1  0
 10 13  1  0
 10 14  2  0
 12 15  2  0
 11 16  1  0
 13 17  2  0
 14 18  1  0
 13 19  1  0
 15 20  1  0
 16 20  2  0
 15 21  1  0
 17 22  1  0
 18 22  2  0
 17 23  1  0
 19 24  2  0
 20 25  1  0
 21 26  2  0
 23 27  2  0
 24 27  1  0
 25 28  2  0
 26 28  1  0
M  END
