diamond-x0837_0_A-mac-x0568
     RDKit          3D

 10 10  0  0  0  0  0  0  0  0999 V2000
   -7.7260   14.8240    0.0470 O   0  0  0  0  0  0  0  0  0  0  0  0
   -6.4910   14.6750    0.1460 C   0  0  0  0  0  0  0  0  0  0  0  0
   -5.8370   14.7930    1.4280 N   0  0  0  0  0  0  0  0  0  0  0  0
   -5.6530   14.3660   -1.0460 C   0  0  0  0  0  0  0  0  0  0  0  0
   -4.4730   15.1930    1.3800 C   0  0  0  0  0  0  0  0  0  0  0  0
   -4.5040   15.3280   -1.0350 C   0  0  2  0  0  0  0  0  0  0  0  0
   -3.2710   14.8130   -2.6770 I   0  0  0  0  0  0  0  0  0  0  0  0
   -3.8440   15.4370    0.2640 C   0  0  0  0  0  0  0  0  0  0  0  0
   -2.7900   14.8740   -0.8870 C   0  0  0  0  0  0  0  0  0  0  0  0
   -1.4880   14.5750   -0.4700 N   0  0  0  0  0  0  0  0  0  0  0  0
  1  2  2  0
  2  3  1  0
  2  4  1  0
  3  5  1  0
  4  6  1  0
  6  7  1  6
  5  8  2  0
  6  8  1  0
  7  9  2  3
  9 10  1  0
M  END
