diamond-x0104_0_A-diamond-x0926_0_A
     RDKit          3D

 17 18  0  0  0  0  0  0  0  0999 V2000
   -6.8220   14.6560    2.6700 N   0  0  0  0  0  0  0  0  0  0  0  0
   -8.0500   15.0880    3.1550 C   0  0  0  0  0  0  0  0  0  0  0  0
   -8.0200   15.1050    4.5420 N   0  0  0  0  0  0  0  0  0  0  0  0
   -6.2920   14.7290    1.3710 C   0  0  0  0  0  0  0  0  0  0  0  0
   -9.0070   15.4020    2.4580 O   0  0  0  0  0  0  0  0  0  0  0  0
   -4.9280   14.8450    1.0910 C   0  0  0  0  0  0  0  0  0  0  0  0
   -7.1630   14.6870    0.2830 C   0  0  0  0  0  0  0  0  0  0  0  0
   -4.4060   14.9150   -0.1610 N   0  0  0  0  0  0  0  0  0  0  0  0
   -6.6520   14.7620   -1.0130 C   0  0  0  0  0  0  0  0  0  0  0  0
   -9.1330   15.1050    5.3580 C   0  0  0  0  0  0  0  0  0  0  0  0
   -5.2800   14.8730   -1.1830 C   0  0  0  0  0  0  0  0  0  0  0  0
   -9.2860   15.2190    6.7190 C   0  0  0  0  0  0  0  0  0  0  0  0
  -10.6230   14.9310    4.5480 S   0  0  0  0  0  0  0  0  0  0  0  0
   -4.8390   14.9390   -2.4880 O   0  0  0  0  0  0  0  0  0  0  0  0
  -11.4980   15.0020    6.0210 C   0  0  0  0  0  0  0  0  0  0  0  0
  -10.6610   15.1580    7.1060 C   0  0  0  0  0  0  0  0  0  0  0  0
   -3.4270   15.0720   -2.6030 C   0  0  0  0  0  0  0  0  0  0  0  0
  1  2  1  0
  2  3  1  0
  1  4  1  0
  2  5  2  0
  4  6  2  0
  4  7  1  0
  6  8  1  0
  7  9  2  0
  3 10  1  0
  8 11  2  0
  9 11  1  0
 10 12  2  0
 10 13  1  0
 11 14  1  0
 13 15  1  0
 12 16  1  0
 15 16  2  0
 14 17  1  0
M  END
