diamond-x0438_0_A-diamond-x0727_0_A
     RDKit          3D

 30 32  0  0  0  0  0  0  0  0999 V2000
   -8.1710   15.5810    3.9160 C   0  0  0  0  0  0  0  0  0  0  0  0
   -9.3110   15.2900    2.5550 S   0  0  0  0  0  0  0  0  0  0  0  0
  -10.5250   14.7450    3.1430 O   0  0  0  0  0  0  0  0  0  0  0  0
   -8.6210   14.0200    1.4700 C   0  0  0  0  0  0  0  0  0  0  0  0
   -9.4240   16.5100    1.7640 O   0  0  0  0  0  0  0  0  0  0  0  0
   -7.2810   14.3560    0.9200 C   0  0  0  0  0  0  0  0  0  0  0  0
   -7.0630   14.8270   -0.3580 N   0  0  0  0  0  0  0  0  0  0  0  0
   -6.1420   14.2400    1.5680 N   0  0  0  0  0  0  0  0  0  0  0  0
   -5.1480   14.6310    0.7010 C   0  0  0  0  0  0  0  0  0  0  0  0
   -5.6980   15.0080   -0.5160 C   0  0  0  0  0  0  0  0  0  0  0  0
   -4.9200   15.4520   -1.5870 C   0  0  0  0  0  0  0  0  0  0  0  0
   -3.7550   14.6860    0.8900 C   0  0  0  0  0  0  0  0  0  0  0  0
   -3.5280   15.5010   -1.3930 C   0  0  0  0  0  0  0  0  0  0  0  0
   -2.9290   15.1230   -0.1740 C   0  0  0  0  0  0  0  0  0  0  0  0
   -1.4170   15.1700    0.0080 C   0  0  0  0  0  0  0  0  0  0  0  0
   -0.6080   14.7800   -1.2480 C   0  0  0  0  0  0  0  0  0  0  0  0
   -0.0100   13.3600   -1.2220 C   0  0  0  0  0  0  0  0  0  0  0  0
    0.8890   13.0780   -2.3210 O   0  0  0  0  0  0  0  0  0  0  0  0
    0.6000   12.0180   -3.1360 C   0  0  0  0  0  0  0  0  0  0  0  0
    0.8770   12.3650   -4.6140 C   0  0  1  0  0  0  0  0  0  0  0  0
    0.1780   10.9260   -2.7470 O   0  0  0  0  0  0  0  0  0  0  0  0
    0.1360   11.4530   -5.4870 N   0  0  0  0  0  0  0  0  0  0  0  0
    0.4990   13.8130   -4.9150 C   0  0  0  0  0  0  0  0  0  0  0  0
    0.6990   11.1340   -6.7020 C   0  0  0  0  0  0  0  0  0  0  0  0
    1.6480   11.7560   -7.1330 O   0  0  0  0  0  0  0  0  0  0  0  0
    0.1240    9.9560   -7.4790 C   0  0  0  0  0  0  0  0  0  0  0  0
   -1.1680   10.3150   -8.2350 C   0  0  0  0  0  0  0  0  0  0  0  0
   -0.2100    8.7330   -6.5980 C   0  0  0  0  0  0  0  0  0  0  0  0
   -2.1060    9.1210   -8.0330 C   0  0  0  0  0  0  0  0  0  0  0  0
   -1.7210    8.5840   -6.6560 C   0  0  0  0  0  0  0  0  0  0  0  0
  2  1  1  0
  2  3  2  0
  2  4  1  0
  2  5  2  0
  4  6  1  0
  6  7  1  0
  6  8  2  0
  8  9  1  0
  7 10  1  0
  9 10  2  0
 10 11  1  0
  9 12  1  0
 11 13  2  0
 12 14  2  0
 13 14  1  0
 14 15  1  0
 15 16  1  0
 16 17  1  0
 17 18  1  0
 18 19  1  0
 19 20  1  0
 19 21  2  0
 20 22  1  0
 20 23  1  1
 22 24  1  0
 24 25  2  0
 24 26  1  0
 26 27  1  0
 26 28  1  0
 27 29  1  0
 28 30  1  0
 29 30  1  0
M  END
