diamond-x1018_0_A-diamond-x0910_0_A
     RDKit          3D

 15 17  0  0  0  0  0  0  0  0999 V2000
   -8.5000   14.7840    0.9360 Cl  0  0  0  0  0  0  0  0  0  0  0  0
   -6.8330   14.6230    0.5070 C   0  0  0  0  0  0  0  0  0  0  0  0
   -5.8020   14.6710    1.5790 C   0  0  0  0  0  0  0  0  0  0  0  0
   -6.5900   14.4720   -0.7580 N   0  0  0  0  0  0  0  0  0  0  0  0
   -5.2790   14.3190   -1.1070 N   0  0  0  0  0  0  0  0  0  0  0  0
   -4.5470   14.3840    1.2290 C   0  0  0  0  0  0  0  0  0  0  0  0
   -4.8120   15.0110   -2.2450 N   0  0  0  0  0  0  0  0  0  0  0  0
   -4.1880   14.0180   -0.1700 C   0  0  2  0  0  0  0  0  0  0  0  0
   -3.1800   14.8720   -0.7490 N   0  0  0  0  0  0  0  0  0  0  0  0
   -3.3670   14.9660   -2.1560 N   0  0  0  0  0  0  0  0  0  0  0  0
   -1.9290   14.7980   -0.2900 C   0  0  0  0  0  0  0  0  0  0  0  0
   -1.7290   14.7610    1.0510 N   0  0  0  0  0  0  0  0  0  0  0  0
   -0.7740   14.7550   -0.9070 N   0  0  0  0  0  0  0  0  0  0  0  0
   -0.4300   14.6980    1.3470 N   0  0  0  0  0  0  0  0  0  0  0  0
    0.1090   14.6990    0.1270 C   0  0  0  0  0  0  0  0  0  0  0  0
  1  2  1  0
  2  3  1  0
  2  4  2  0
  4  5  1  0
  3  6  2  0
  5  7  1  0
  5  8  1  0
  8  6  1  1
  8  9  1  0
  7 10  1  0
  9 10  1  0
  9 11  1  0
 11 12  1  0
 11 13  2  0
 12 14  1  0
 13 15  1  0
 14 15  2  0
M  END
