diamond-x0855_0_A-mac-x0224
     RDKit          3D

 21 22  0  0  0  0  0  0  0  0999 V2000
    0.1950   12.5880   -2.6850 N   0  0  0  0  0  0  0  0  0  0  0  0
    1.2730   12.3600   -3.4670 C   0  0  0  0  0  0  0  0  0  0  0  0
    0.9570   12.5040   -4.9410 C   0  0  0  0  0  0  0  0  0  0  0  0
   -0.3000   13.7580   -2.7880 C   0  0  0  0  0  0  0  0  0  0  0  0
    2.3670   12.0620   -3.0540 O   0  0  0  0  0  0  0  0  0  0  0  0
    0.3250   14.6380   -3.5820 O   0  0  0  0  0  0  0  0  0  0  0  0
   -1.4980   14.3400   -2.2220 C   0  0  0  0  0  0  0  0  0  0  0  0
   -0.1770   11.6610   -5.3010 N   0  0  0  0  0  0  0  0  0  0  0  0
   -1.6930   14.4260   -0.8430 C   0  0  0  0  0  0  0  0  0  0  0  0
   -2.4640   14.8010   -3.1090 C   0  0  0  0  0  0  0  0  0  0  0  0
   -2.2440   14.7100   -4.4600 O   0  0  0  0  0  0  0  0  0  0  0  0
   -0.2150   10.6930   -6.2670 C   0  0  0  0  0  0  0  0  0  0  0  0
   -1.3560   11.7930   -4.6460 N   0  0  0  0  0  0  0  0  0  0  0  0
   -2.8800   14.9760   -0.3650 C   0  0  0  0  0  0  0  0  0  0  0  0
   -3.6440   15.3440   -2.6380 C   0  0  0  0  0  0  0  0  0  0  0  0
   -3.1940   15.1200    1.3750 S   0  0  0  0  0  0  0  0  0  0  0  0
   -1.4800   10.1760   -6.2210 C   0  0  0  0  0  0  0  0  0  0  0  0
   -2.1480   10.8800   -5.2150 C   0  0  0  0  0  0  0  0  0  0  0  0
   -3.8550   15.4320   -1.2640 C   0  0  0  0  0  0  0  0  0  0  0  0
   -2.2060    8.8110   -7.2610 Br  0  0  0  0  0  0  0  0  0  0  0  0
   -5.0010   15.0410    1.3520 C   0  0  0  0  0  0  0  0  0  0  0  0
  1  2  1  0
  2  3  1  0
  1  4  2  3
  2  5  2  0
  4  6  1  0
  4  7  1  0
  3  8  1  0
  7  9  2  0
  7 10  1  0
 10 11  1  0
  8 12  1  0
  8 13  1  0
  9 14  1  0
 10 15  2  0
 14 16  1  0
 12 17  2  0
 13 18  2  0
 17 18  1  0
 14 19  2  0
 15 19  1  0
 17 20  1  0
 16 21  1  0
M  END
