diamond-x0837_0_A-mac-x0163
     RDKit          3D

 24 27  0  0  0  0  0  0  0  0999 V2000
   -7.9850   14.8640    0.1780 O   0  0  0  0  0  0  0  0  0  0  0  0
   -6.7380   14.8790    0.1830 C   0  0  0  0  0  0  0  0  0  0  0  0
   -6.0400   14.6670    1.3800 N   0  0  0  0  0  0  0  0  0  0  0  0
   -6.0070   15.1000   -1.0510 C   0  0  0  0  0  0  0  0  0  0  0  0
   -4.8450   13.9050    1.2530 C   0  0  0  0  0  0  0  0  0  0  0  0
   -4.9420   14.0950   -1.2140 C   0  0  1  0  0  0  0  0  0  0  0  0
   -3.3540   14.9220   -2.3250 I   0  0  0  0  0  0  0  0  0  0  0  0
   -4.3510   13.6420    0.0660 C   0  0  0  0  0  0  0  0  0  0  0  0
   -1.9360   14.7730   -0.8180 C   0  0  0  0  0  0  0  0  0  0  0  0
   -2.2910   14.9980    0.5100 C   0  0  0  0  0  0  0  0  0  0  0  0
   -0.6570   14.4480   -1.1410 C   0  0  0  0  0  0  0  0  0  0  0  0
   -3.6110   15.3640    0.8700 N   0  0  0  0  0  0  0  0  0  0  0  0
    0.2420   14.3450   -0.1130 N   0  0  0  0  0  0  0  0  0  0  0  0
   -1.4050   14.8870    1.5070 N   0  0  0  0  0  0  0  0  0  0  0  0
   -0.2170   14.2190   -2.4840 N   0  0  0  0  0  0  0  0  0  0  0  0
   -0.1680   14.5620    1.1550 C   0  0  0  0  0  0  0  0  0  0  0  0
   -0.1880   12.9230   -3.0840 C   0  0  0  0  0  0  0  0  0  0  0  0
    0.2750   15.2860   -3.2870 C   0  0  0  0  0  0  0  0  0  0  0  0
    0.4050   12.9340   -4.4720 C   0  0  0  0  0  0  0  0  0  0  0  0
    0.5370   11.9230   -2.1880 C   0  0  0  0  0  0  0  0  0  0  0  0
   -1.3810   12.0350   -3.0060 C   0  0  0  0  0  0  0  0  0  0  0  0
   -0.4070   15.3150   -4.6120 C   0  0  0  0  0  0  0  0  0  0  0  0
   -0.0760   14.0490   -5.3490 C   0  0  0  0  0  0  0  0  0  0  0  0
   -0.5080   10.9010   -2.5250 C   0  0  0  0  0  0  0  0  0  0  0  0
  1  2  2  0
  2  3  1  0
  2  4  1  0
  3  5  1  0
  4  6  1  0
  6  7  1  6
  5  8  2  0
  6  8  1  0
  7  9  1  0
  9 10  2  0
  9 11  1  0
 10 12  1  0
 11 13  2  0
 10 14  1  0
 11 15  1  0
 13 16  1  0
 14 16  2  0
 17 15  1  0
 15 18  1  0
 17 19  1  0
 17 20  1  0
 17 21  1  0
 18 22  1  0
 19 23  1  0
 22 23  1  0
 20 24  1  0
 21 24  1  0
M  END
