diamond-x0587_0_A-diamond-x0837_0_A
     RDKit          3D

 13 13  0  0  0  0  0  0  0  0999 V2000
   -7.8050   14.8470    4.0930 N   0  0  0  0  0  0  0  0  0  0  0  0
   -8.2770   14.8790    2.8220 C   0  0  0  0  0  0  0  0  0  0  0  0
   -9.4780   15.0130    2.5880 O   0  0  0  0  0  0  0  0  0  0  0  0
   -7.2970   14.7700    1.7320 C   0  0  0  0  0  0  0  0  0  0  0  0
   -7.6940   14.5640    0.4320 C   0  0  0  0  0  0  0  0  0  0  0  0
   -5.9340   14.8750    1.9150 C   0  0  0  0  0  0  0  0  0  0  0  0
   -6.8300   14.4770   -0.6070 N   0  0  0  0  0  0  0  0  0  0  0  0
   -5.0250   14.7970    0.9210 N   0  0  0  0  0  0  0  0  0  0  0  0
   -5.5050   14.6020   -0.3310 C   0  0  0  0  0  0  0  0  0  0  0  0
   -4.5000   14.5240   -1.4830 C   0  0  0  0  0  0  0  0  0  0  0  0
   -3.2470   14.9280   -1.1220 F   0  0  0  0  0  0  0  0  0  0  0  0
   -4.3470   13.2700   -2.0020 F   0  0  0  0  0  0  0  0  0  0  0  0
   -4.8370   15.3080   -2.5460 F   0  0  0  0  0  0  0  0  0  0  0  0
  1  2  1  0
  2  3  2  0
  2  4  1  0
  4  5  2  0
  4  6  1  0
  5  7  1  0
  6  8  2  0
  7  9  2  0
  8  9  1  0
  9 10  1  0
 10 11  1  0
 10 12  1  0
 10 13  1  0
M  END
