diamond-x0844_0_A-mac-x0277
     RDKit          3D

 21 22  0  0  0  0  0  0  0  0999 V2000
   -7.5530   14.4850    0.0340 O   0  0  0  0  0  0  0  0  0  0  0  0
   -6.3840   14.8780   -0.0180 C   0  0  0  0  0  0  0  0  0  0  0  0
   -5.5300   14.7260    1.0380 N   0  0  0  0  0  0  0  0  0  0  0  0
   -5.8230   15.5670   -1.2340 C   0  0  0  0  0  0  0  0  0  0  0  0
   -4.1810   14.5930    0.9050 C   0  0  0  0  0  0  0  0  0  0  0  0
   -4.3210   15.3900   -1.4520 C   0  0  2  0  0  0  0  0  0  0  0  0
   -4.1780   14.5080   -2.5730 O   0  0  0  0  0  0  0  0  0  0  0  0
   -3.5730   14.8870   -0.2480 C   0  0  0  0  0  0  0  0  0  0  0  0
   -2.9100   14.4760   -3.2190 C   0  0  0  0  0  0  0  0  0  0  0  0
   -2.8070   15.4140   -4.4440 C   0  0  0  0  0  0  0  0  0  0  0  0
   -1.3200   15.5920   -4.5770 C   0  0  0  0  0  0  0  0  0  0  0  0
   -0.6030   14.4110   -4.3620 C   0  0  0  0  0  0  0  0  0  0  0  0
   -0.6190   16.7710   -4.8640 C   0  0  0  0  0  0  0  0  0  0  0  0
   -1.3900   18.2850   -5.1650 Cl  0  0  0  0  0  0  0  0  0  0  0  0
    0.7790   14.3680   -4.4060 C   0  0  0  0  0  0  0  0  0  0  0  0
    0.7750   16.7390   -4.9050 C   0  0  0  0  0  0  0  0  0  0  0  0
    1.4860   13.0590   -4.1580 C   0  0  0  0  0  0  0  0  0  0  0  0
    1.4620   15.5420   -4.6710 C   0  0  0  0  0  0  0  0  0  0  0  0
    0.9820   12.4260   -2.8790 C   0  0  0  0  0  0  0  0  0  0  0  0
    0.2720   11.2990   -3.0880 O   0  0  0  0  0  0  0  0  0  0  0  0
    1.1670   12.8570   -1.7570 O   0  0  0  0  0  0  0  0  0  0  0  0
  1  2  2  0
  2  3  1  0
  2  4  1  0
  3  5  1  0
  4  6  1  0
  6  7  1  6
  5  8  2  0
  6  8  1  0
  7  9  1  0
  9 10  1  0
 10 11  1  0
 11 12  2  0
 11 13  1  0
 13 14  1  0
 12 15  1  0
 13 16  2  0
 15 17  1  0
 15 18  2  0
 16 18  1  0
 17 19  1  0
 19 20  1  0
 19 21  2  0
M  END
