diamond-x0967_0_A-mac-x0358
     RDKit          3D

 23 25  0  0  0  0  0  0  0  0999 V2000
    1.8780   12.8540   -2.4300 O   0  0  0  0  0  0  0  0  0  0  0  0
    1.1840   12.1000   -3.3080 C   0  0  0  0  0  0  0  0  0  0  0  0
    0.6360   11.0820   -2.9220 O   0  0  0  0  0  0  0  0  0  0  0  0
    1.1710   12.6870   -4.7010 C   0  0  0  0  0  0  0  0  0  0  0  0
   -0.1290   13.3800   -4.8240 C   0  0  0  0  0  0  0  0  0  0  0  0
   -1.2930   12.6350   -5.0210 C   0  0  0  0  0  0  0  0  0  0  0  0
   -0.1840   14.7660   -4.7200 C   0  0  0  0  0  0  0  0  0  0  0  0
   -1.2090   11.2740   -5.1300 O   0  0  0  0  0  0  0  0  0  0  0  0
   -2.5110   13.2690   -5.0900 C   0  0  0  0  0  0  0  0  0  0  0  0
   -1.3960   15.4060   -4.7870 C   0  0  0  0  0  0  0  0  0  0  0  0
   -2.5460   14.6550   -4.9560 C   0  0  0  0  0  0  0  0  0  0  0  0
   -3.8230   15.3570   -4.9650 C   0  0  0  0  0  0  0  0  0  0  0  0
   -4.7640   14.6090   -4.0160 C   0  0  0  0  0  0  0  0  0  0  0  0
   -4.6900   14.7970   -2.4890 C   0  0  0  0  0  0  0  0  0  0  0  0
   -5.9020   14.5760   -1.9870 N   0  0  0  0  0  0  0  0  0  0  0  0
   -3.6010   15.1270   -1.6580 C   0  0  0  0  0  0  0  0  0  0  0  0
   -6.1500   14.6450   -0.7050 C   0  0  0  0  0  0  0  0  0  0  0  0
   -3.8470   15.2100   -0.2710 C   0  0  0  0  0  0  0  0  0  0  0  0
   -7.4020   14.3960   -0.3390 N   0  0  0  0  0  0  0  0  0  0  0  0
   -5.1460   14.9600    0.2090 C   0  0  0  0  0  0  0  0  0  0  0  0
   -5.4930   15.0070    1.5600 C   0  0  0  0  0  0  0  0  0  0  0  0
   -7.7170   14.4420    0.9630 C   0  0  0  0  0  0  0  0  0  0  0  0
   -6.8050   14.7390    1.9510 C   0  0  0  0  0  0  0  0  0  0  0  0
  1  2  1  0
  2  3  2  0
  2  4  1  0
  4  5  1  0
  5  6  2  0
  5  7  1  0
  6  8  1  0
  6  9  1  0
  7 10  2  0
  9 11  2  0
 10 11  1  0
 11 12  1  0
 12 13  1  0
 13 14  1  0
 14 15  2  0
 14 16  1  0
 15 17  1  0
 16 18  2  0
 17 19  2  0
 17 20  1  0
 18 20  1  0
 20 21  2  0
 19 22  1  0
 21 23  1  0
 22 23  2  0
M  END
