diamond-x0574_0_A-mac-x0148
     RDKit          3D

 20 23  0  0  0  0  0  0  0  0999 V2000
    0.3870   13.8580    0.4620 N   0  0  0  0  0  0  0  0  0  0  0  0
   -0.8630   14.0890    0.2670 C   0  0  0  0  0  0  0  0  0  0  0  0
   -1.7640   14.2800    1.2360 N   0  0  0  0  0  0  0  0  0  0  0  0
   -1.6090   14.1860   -1.1750 S   0  0  0  0  0  0  0  0  0  0  0  0
   -3.0600   14.4870    0.6510 C   0  0  0  0  0  0  0  0  0  0  0  0
   -3.1300   14.4770   -0.7780 C   0  0  0  0  0  0  0  0  0  0  0  0
   -1.9440   14.1950   -2.9650 C   0  0  1  0  0  0  0  0  0  0  0  0
   -0.2260   13.9010   -2.1640 C   0  0  0  0  0  0  0  0  0  0  0  0
   -4.2620   14.6860    1.3470 C   0  0  0  0  0  0  0  0  0  0  0  0
   -4.2910   14.6740   -1.4910 C   0  0  0  0  0  0  0  0  0  0  0  0
   -2.4260   15.4040   -3.7360 C   0  0  0  0  0  0  0  0  0  0  0  0
   -1.0820   13.6320   -4.1440 C   0  0  2  0  0  0  0  0  0  0  0  0
   -0.0460   12.4050   -2.4880 C   0  0  0  0  0  0  0  0  0  0  0  0
   -5.4490   14.8600    0.6290 C   0  0  0  0  0  0  0  0  0  0  0  0
   -5.4480   14.8640   -0.7600 C   0  0  0  0  0  0  0  0  0  0  0  0
   -2.1160   13.6820   -5.2610 C   0  0  0  0  0  0  0  0  0  0  0  0
   -2.8640   14.8890   -5.0210 O   0  0  0  0  0  0  0  0  0  0  0  0
   -0.4530   12.2770   -3.9210 C   0  0  0  0  0  0  0  0  0  0  0  0
   -6.6940   15.0350    1.1510 O   0  0  0  0  0  0  0  0  0  0  0  0
   -6.8870   14.6740    2.5100 C   0  0  0  0  0  0  0  0  0  0  0  0
  1  2  1  0
  2  3  2  0
  2  4  1  0
  3  5  1  0
  4  6  1  0
  5  6  2  0
  4  7  1  0
  4  8  1  0
  5  9  1  0
  6 10  1  0
  7 11  1  6
  7 12  1  0
  8 13  1  0
  9 14  2  0
 10 15  2  0
 14 15  1  0
 12 16  1  6
 11 17  1  0
 16 17  1  0
 12 18  1  0
 13 18  1  0
 14 19  1  0
 19 20  1  0
M  END
