diamond-x0926_0_A-diamond-x0574_0_A
     RDKit          3D

 13 14  0  0  0  0  0  0  0  0999 V2000
   -6.4530   14.5440    0.2300 N   0  0  0  0  0  0  0  0  0  0  0  0
   -6.9150   14.5000    1.6230 C   0  0  0  0  0  0  0  0  0  0  0  0
   -5.3330   15.1420   -0.0340 C   0  0  0  0  0  0  0  0  0  0  0  0
   -4.4620   15.8180    0.9780 C   0  0  0  0  0  0  0  0  0  0  0  0
   -4.9060   15.1540   -1.3710 N   0  0  0  0  0  0  0  0  0  0  0  0
   -3.4880   15.1190   -1.6160 N   0  0  0  0  0  0  0  0  0  0  0  0
   -3.1860   15.7180    0.7610 C   0  0  0  0  0  0  0  0  0  0  0  0
   -2.7270   14.9170   -0.3710 C   0  0  2  0  0  0  0  0  0  0  0  0
   -0.8970   14.8500   -0.4990 S   0  0  0  0  0  0  0  0  0  0  0  0
   -2.9290   13.6280    0.3540 C   0  0  0  0  0  0  0  0  0  0  0  0
   -2.1220   13.9080    1.5510 N   0  0  0  0  0  0  0  0  0  0  0  0
   -0.8150   13.8600    0.9730 C   0  0  2  0  0  0  0  0  0  0  0  0
    0.0860   14.2350    1.9950 N   0  0  0  0  0  0  0  0  0  0  0  0
  1  2  1  0
  1  3  2  3
  3  4  1  0
  3  5  1  0
  5  6  1  0
  4  7  2  0
  6  8  1  0
  8  7  1  1
  8  9  1  0
  8 10  1  0
 10 11  1  0
  9 12  1  0
 11 12  1  0
 12 13  1  1
M  END
