diamond-x0950_0_A-mac-x0337
     RDKit          3D

 20 20  0  0  0  0  0  0  0  0999 V2000
    2.8350   12.9380   -3.8430 C   0  0  0  0  0  0  0  0  0  0  0  0
    1.3150   12.8470   -3.8730 C   0  0  1  0  0  0  0  0  0  0  0  0
    0.9390   12.3280   -5.1540 O   0  0  0  0  0  0  0  0  0  0  0  0
    0.7410   11.9730   -2.7390 C   0  0  0  0  0  0  0  0  0  0  0  0
    0.3700   10.8210   -2.9300 O   0  0  0  0  0  0  0  0  0  0  0  0
    0.6810   12.5980   -1.5120 O   0  0  0  0  0  0  0  0  0  0  0  0
   -0.0640   13.8330   -1.4700 C   0  0  0  0  0  0  0  0  0  0  0  0
   -0.3400   14.2400   -0.0140 C   0  0  0  0  0  0  0  0  0  0  0  0
   -1.7530   13.9180    0.4660 C   0  0  0  0  0  0  0  0  0  0  0  0
   -2.7410   14.9780    0.2440 N   0  0  0  0  0  0  0  0  0  0  0  0
   -3.7020   14.9000   -0.9410 S   0  0  2  0  0  0  0  0  0  0  0  0
   -3.5230   15.5750   -2.2010 O   0  0  0  0  0  0  0  0  0  0  0  0
   -4.9730   15.7470   -0.2640 N   0  0  0  0  0  0  0  0  0  0  0  0
   -4.2850   13.2550   -1.2550 C   0  0  0  0  0  0  0  0  0  0  0  0
   -3.5760   12.4080   -2.1130 C   0  0  0  0  0  0  0  0  0  0  0  0
   -5.4660   12.8100   -0.6480 C   0  0  0  0  0  0  0  0  0  0  0  0
   -4.0550   11.1200   -2.3700 C   0  0  0  0  0  0  0  0  0  0  0  0
   -5.9410   11.5230   -0.9100 C   0  0  0  0  0  0  0  0  0  0  0  0
   -5.2410   10.6710   -1.7760 C   0  0  0  0  0  0  0  0  0  0  0  0
   -5.7590    9.2870   -2.0640 C   0  0  0  0  0  0  0  0  0  0  0  0
  2  1  1  6
  2  3  1  0
  2  4  1  0
  4  5  2  0
  4  6  1  0
  6  7  1  0
  7  8  1  0
  8  9  1  0
  9 10  1  0
 10 11  2  0
 11 12  2  0
 11 13  1  1
 11 14  1  0
 14 15  2  0
 14 16  1  0
 15 17  1  0
 16 18  2  0
 17 19  2  0
 18 19  1  0
 19 20  1  0
M  END
