diamond-x0299_0_A-diamond-x0796_0_B
     RDKit          3D

 31 35  0  0  0  0  0  0  0  0999 V2000
   14.4040    8.1140   12.8700 N   0  0  0  0  0  0  0  0  0  0  0  0
   15.7290    7.8180   12.9590 C   0  0  0  0  0  0  0  0  0  0  0  0
   16.7030    8.5740   12.5280 N   0  0  0  0  0  0  0  0  0  0  0  0
   13.7960    7.9780   11.5360 C   0  0  0  0  0  0  0  0  0  0  0  0
   15.9850    6.5110   13.6580 C   0  0  0  0  0  0  0  0  0  0  0  0
   14.2450    6.7870   10.7220 C   0  0  0  0  0  0  0  0  0  0  0  0
   15.5890    6.6450   15.1490 C   0  0  0  0  0  0  0  0  0  0  0  0
   14.1220    5.5320   11.2490 N   0  0  0  0  0  0  0  0  0  0  0  0
   14.7700    6.7460    9.4860 N   0  0  0  0  0  0  0  0  0  0  0  0
   16.0430    9.7510   12.3010 C   0  0  0  0  0  0  0  0  0  0  0  0
   15.8780    8.0150   15.7750 C   0  0  0  0  0  0  0  0  0  0  0  0
   14.9750    5.3920    9.2480 C   0  0  0  0  0  0  0  0  0  0  0  0
   14.5730    4.6250   10.3390 C   0  0  0  0  0  0  0  0  0  0  0  0
   16.6990   10.9470   12.5540 C   0  0  0  0  0  0  0  0  0  0  0  0
   14.7120    9.7100   11.9190 C   0  0  0  0  0  0  0  0  0  0  0  0
   14.6550    3.2350   10.3930 C   0  0  0  0  0  0  0  0  0  0  0  0
   15.4980    4.7210    8.1300 C   0  0  0  0  0  0  0  0  0  0  0  0
   14.0110   10.8660   11.8700 C   0  0  0  0  0  0  0  0  0  0  0  0
   15.9850   12.1290   12.4950 C   0  0  0  0  0  0  0  0  0  0  0  0
   15.1720    2.5920    9.2680 C   0  0  0  0  0  0  0  0  0  0  0  0
   15.5890    3.3210    8.1530 C   0  0  0  0  0  0  0  0  0  0  0  0
   12.6450   10.8780   11.5550 N   0  0  0  0  0  0  0  0  0  0  0  0
   14.6310   12.0530   12.1850 C   0  0  0  0  0  0  0  0  0  0  0  0
   13.7040   13.1870   12.2120 C   0  0  0  0  0  0  0  0  0  0  0  0
   11.8340   11.5900   12.4070 C   0  0  0  0  0  0  0  0  0  0  0  0
   10.6140   11.4300   12.4950 O   0  0  0  0  0  0  0  0  0  0  0  0
   12.6970   12.5670   13.2260 C   0  0  2  0  0  0  0  0  0  0  0  0
   11.9260   13.5290   14.0750 N   0  0  0  0  0  0  0  0  0  0  0  0
   13.4060   11.6960   14.2830 C   0  0  0  0  0  0  0  0  0  0  0  0
   12.4060   11.6470   15.4160 C   0  0  0  0  0  0  0  0  0  0  0  0
   12.0190   13.0950   15.4930 C   0  0  0  0  0  0  0  0  0  0  0  0
  1  2  1  0
  2  3  2  3
  1  4  1  0
  2  5  1  0
  4  6  1  0
  5  7  1  0
  6  8  1  0
  6  9  2  0
  3 10  1  0
  7 11  1  0
  9 12  1  0
  8 13  1  0
 12 13  2  0
 10 14  2  0
 10 15  1  0
 13 16  1  0
 12 17  1  0
 15 18  2  0
 14 19  1  0
 16 20  2  0
 17 21  2  0
 20 21  1  0
 18 22  1  0
 18 23  1  0
 19 23  2  0
 23 24  1  0
 22 25  1  0
 25 26  2  0
 27 24  1  6
 27 25  1  0
 27 28  1  0
 27 29  1  0
 29 30  1  0
 28 31  1  0
 30 31  1  0
M  END
