diamond-x0689_0_A-mac-x0212
     RDKit          3D

 21 22  0  0  0  0  0  0  0  0999 V2000
   -3.8840   15.2360    1.8050 N   0  0  0  0  0  0  0  0  0  0  0  0
   -4.9020   14.5810    0.9820 C   0  0  1  0  0  0  0  0  0  0  0  0
   -6.7500   14.4350    1.0210 S   0  0  0  0  0  0  0  0  0  0  0  0
   -2.5790   14.9370    1.3120 C   0  0  0  0  0  0  0  0  0  0  0  0
   -2.3880   15.0790   -0.0050 N   0  0  0  0  0  0  0  0  0  0  0  0
   -1.5890   14.5340    2.0990 N   0  0  0  0  0  0  0  0  0  0  0  0
   -4.2460   14.5810   -0.3400 C   0  0  0  0  0  0  0  0  0  0  0  0
   -7.0060   12.6930    1.2840 C   0  0  0  0  0  0  0  0  0  0  0  0
   -7.3140   15.0720    2.2050 O   0  0  0  0  0  0  0  0  0  0  0  0
   -7.3260   14.7660   -0.2750 O   0  0  0  0  0  0  0  0  0  0  0  0
   -1.1550   14.8070   -0.5190 C   0  0  0  0  0  0  0  0  0  0  0  0
   -0.3850   14.2700    1.5540 C   0  0  0  0  0  0  0  0  0  0  0  0
   -3.2270   13.6580   -0.4310 C   0  0  0  0  0  0  0  0  0  0  0  0
   -4.5490   15.4210   -1.4250 C   0  0  0  0  0  0  0  0  0  0  0  0
   -0.1040   14.3930    0.2290 C   0  0  0  0  0  0  0  0  0  0  0  0
   -2.4690   13.5380   -1.5580 C   0  0  0  0  0  0  0  0  0  0  0  0
   -3.7730   15.3040   -2.5860 C   0  0  0  0  0  0  0  0  0  0  0  0
   -2.7330   14.3630   -2.6290 C   0  0  0  0  0  0  0  0  0  0  0  0
   -1.8760   14.2200   -3.8090 C   0  0  0  0  0  0  0  0  0  0  0  0
   -0.7120   13.8640   -3.7170 O   0  0  0  0  0  0  0  0  0  0  0  0
   -2.4970   14.5150   -4.9630 O   0  0  0  0  0  0  0  0  0  0  0  0
  2  1  1  6
  2  3  1  0
  1  4  1  0
  4  5  2  0
  4  6  1  0
  2  7  1  0
  3  8  1  0
  3  9  2  0
  3 10  2  0
  5 11  1  0
  6 12  2  0
  7 13  2  0
  7 14  1  0
 11 15  2  0
 12 15  1  0
 13 16  1  0
 14 17  2  0
 16 18  2  0
 17 18  1  0
 18 19  1  0
 19 20  2  0
 19 21  1  0
M  END
