diamond-x0962_3_A-mac-x0326
     RDKit          3D

 24 26  0  0  0  0  0  0  0  0999 V2000
    0.6890   11.5260   -8.9580 N   0  0  0  0  0  0  0  0  0  0  0  0
    0.9300   10.8240   -7.7300 C   0  0  1  0  0  0  0  0  0  0  0  0
    1.2310   11.6650   -6.4590 C   0  0  0  0  0  0  0  0  0  0  0  0
   -0.1240    9.8260   -7.5760 C   0  0  0  0  0  0  0  0  0  0  0  0
    0.6440   13.0000   -6.0640 C   0  0  0  0  0  0  0  0  0  0  0  0
   -0.0400    8.5990   -8.1900 N   0  0  0  0  0  0  0  0  0  0  0  0
   -1.3160    9.8040   -6.8970 C   0  0  0  0  0  0  0  0  0  0  0  0
    0.4090   13.1870   -4.5580 C   0  0  1  0  0  0  0  0  0  0  0  0
   -1.1610    7.9030   -7.8600 C   0  0  0  0  0  0  0  0  0  0  0  0
   -1.9510    8.6060   -7.0820 N   0  0  0  0  0  0  0  0  0  0  0  0
    1.0430   12.1700   -3.6070 C   0  0  0  0  0  0  0  0  0  0  0  0
    0.5860   14.5680   -3.9720 C   0  0  0  0  0  0  0  0  0  0  0  0
    0.3570   11.0320   -3.4010 O   0  0  0  0  0  0  0  0  0  0  0  0
    2.0980   12.3780   -3.0260 O   0  0  0  0  0  0  0  0  0  0  0  0
   -0.5370   14.7210   -3.0270 C   0  0  0  0  0  0  0  0  0  0  0  0
   -1.7610   14.9080   -3.4410 N   0  0  0  0  0  0  0  0  0  0  0  0
   -0.2970   14.6270   -1.3300 S   0  0  0  0  0  0  0  0  0  0  0  0
   -2.6050   14.9780   -2.3620 C   0  0  0  0  0  0  0  0  0  0  0  0
   -1.9940   14.8440   -1.1110 C   0  0  0  0  0  0  0  0  0  0  0  0
   -3.9840   15.1690   -2.4410 C   0  0  0  0  0  0  0  0  0  0  0  0
   -2.7320   14.8970    0.0800 C   0  0  0  0  0  0  0  0  0  0  0  0
   -4.7200   15.2230   -1.2640 C   0  0  0  0  0  0  0  0  0  0  0  0
   -4.1110   15.0910   -0.0200 C   0  0  0  0  0  0  0  0  0  0  0  0
   -6.4190   15.4570   -1.3630 Cl  0  0  0  0  0  0  0  0  0  0  0  0
  2  1  1  6
  2  3  1  0
  2  4  1  0
  3  5  1  0
  4  6  1  0
  4  7  2  0
  8  5  1  6
  6  9  1  0
  7 10  1  0
  9 10  2  0
  8 11  1  0
  8 12  1  0
 11 13  1  0
 11 14  2  0
 12 15  1  0
 15 16  2  0
 15 17  1  0
 16 18  1  0
 17 19  1  0
 18 19  2  0
 18 20  1  0
 19 21  1  0
 20 22  2  0
 21 23  2  0
 22 23  1  0
 22 24  1  0
M  END
