diamond-x0849_0_A-diamond-x0895_0_A
     RDKit          3D

 12 13  0  0  0  0  0  0  0  0999 V2000
   -3.5890   15.1310   -2.9040 Br  0  0  0  0  0  0  0  0  0  0  0  0
   -3.4700   15.0550   -1.0100 C   0  0  0  0  0  0  0  0  0  0  0  0
   -2.2470   14.8110   -0.3510 C   0  0  0  0  0  0  0  0  0  0  0  0
   -4.6460   15.2480   -0.2780 C   0  0  0  0  0  0  0  0  0  0  0  0
   -2.2750   14.7660    1.0350 C   0  0  0  0  0  0  0  0  0  0  0  0
   -4.5980   15.1920    1.1130 C   0  0  0  0  0  0  0  0  0  0  0  0
   -0.9730   14.6060   -0.9340 C   0  0  0  0  0  0  0  0  0  0  0  0
   -3.4090   14.9480    1.7620 N   0  0  0  0  0  0  0  0  0  0  0  0
   -1.2310   14.5460    1.8070 N   0  0  0  0  0  0  0  0  0  0  0  0
    0.1340   14.3780   -0.1160 C   0  0  0  0  0  0  0  0  0  0  0  0
   -3.3020   14.8840    3.0240 O   0  0  0  0  0  0  0  0  0  0  0  0
   -0.0810   14.3620    1.2480 C   0  0  0  0  0  0  0  0  0  0  0  0
  1  2  1  0
  2  3  2  0
  2  4  1  0
  3  5  1  0
  4  6  2  0
  3  7  1  0
  5  8  2  0
  6  8  1  0
  5  9  1  0
  7 10  2  0
  8 11  1  0
  9 12  2  0
 10 12  1  0
M  CHG  2   8   1  11  -1
M  END
