diamond-x0128_0_A-mac-x0588
     RDKit          3D

 31 35  0  0  0  0  0  0  0  0999 V2000
   -6.1970   15.0610    2.4180 N   0  0  0  0  0  0  0  0  0  0  0  0
   -7.4240   15.1880    3.0970 C   0  0  0  0  0  0  0  0  0  0  0  0
   -8.4580   15.1630    2.4240 O   0  0  0  0  0  0  0  0  0  0  0  0
   -6.0240   14.7850    1.0320 C   0  0  0  0  0  0  0  0  0  0  0  0
   -7.3970   15.3660    4.4650 N   0  0  0  0  0  0  0  0  0  0  0  0
   -7.1460   14.1440    0.4980 C   0  0  0  0  0  0  0  0  0  0  0  0
   -4.9110   15.0760    0.1380 C   0  0  0  0  0  0  0  0  0  0  0  0
   -7.2200   13.7910   -0.8360 C   0  0  0  0  0  0  0  0  0  0  0  0
   -5.0680   14.6860   -1.1810 C   0  0  0  0  0  0  0  0  0  0  0  0
   -8.3100   16.1110    5.2640 C   0  0  0  0  0  0  0  0  0  0  0  0
   -3.5500   15.7660    0.2550 C   0  0  2  0  0  0  0  0  0  0  0  0
   -6.1750   14.0640   -1.6720 C   0  0  0  0  0  0  0  0  0  0  0  0
   -9.0360   17.2290    4.8490 C   0  0  0  0  0  0  0  0  0  0  0  0
   -8.5080   15.7010    6.5890 C   0  0  0  0  0  0  0  0  0  0  0  0
   -3.4800   16.1550   -1.1530 N   0  0  0  0  0  0  0  0  0  0  0  0
   -2.0830   15.3140    0.5570 C   0  0  2  0  0  0  0  0  0  0  0  0
   -9.8990   17.9210    5.6360 N   0  0  0  0  0  0  0  0  0  0  0  0
   -9.3880   16.3960    7.4170 C   0  0  0  0  0  0  0  0  0  0  0  0
   -3.0810   15.1620   -2.1160 C   0  0  0  0  0  0  0  0  0  0  0  0
   -1.1570   15.2570   -0.6960 C   0  0  2  0  0  0  0  0  0  0  0  0
   -1.7270   14.1250    1.2870 N   0  0  0  0  0  0  0  0  0  0  0  0
  -10.0550   17.4930    6.8990 C   0  0  0  0  0  0  0  0  0  0  0  0
   -1.6850   14.8490   -1.9980 N   0  0  0  0  0  0  0  0  0  0  0  0
   -0.0150   14.4850   -0.2420 N   0  0  0  0  0  0  0  0  0  0  0  0
   -0.2830   14.1380    1.1460 C   0  0  0  0  0  0  0  0  0  0  0  0
   -0.9280   15.0170   -3.2570 C   0  0  0  0  0  0  0  0  0  0  0  0
   -0.4780   16.4520   -3.6520 C   0  0  2  0  0  0  0  0  0  0  0  0
   -1.5420   17.2490   -4.2630 O   0  0  0  0  0  0  0  0  0  0  0  0
    0.6770   16.4660   -4.6380 C   0  0  0  0  0  0  0  0  0  0  0  0
    0.5480   17.8090   -5.2980 C   0  0  0  0  0  0  0  0  0  0  0  0
   -0.9550   18.0260   -5.3190 C   0  0  0  0  0  0  0  0  0  0  0  0
  1  2  1  0
  2  3  2  0
  1  4  1  0
  2  5  1  0
  4  6  2  0
  4  7  1  0
  6  8  1  0
  7  9  2  0
  5 10  1  0
 11  7  1  6
  8 12  2  0
  9 12  1  0
 10 13  2  0
 10 14  1  0
 11 15  1  0
 11 16  1  0
 13 17  1  0
 14 18  2  0
 15 19  1  0
 16 20  1  0
 16 21  1  6
 17 22  2  0
 18 22  1  0
 19 23  1  0
 20 23  1  0
 20 24  1  1
 21 25  1  0
 24 25  1  0
 23 26  1  0
 27 26  1  6
 27 28  1  0
 27 29  1  0
 29 30  1  0
 28 31  1  0
 30 31  1  0
M  END
