diamond-x0742_0_A-mac-x0565
     RDKit          3D

 28 32  0  0  0  0  0  0  0  0999 V2000
   -5.3820   11.8300   -0.7270 C   0  0  0  0  0  0  0  0  0  0  0  0
   -6.5230   11.6590    0.2490 C   0  0  0  0  0  0  0  0  0  0  0  0
   -5.1940   10.9810   -1.6030 O   0  0  0  0  0  0  0  0  0  0  0  0
   -4.4960   13.0740   -0.5870 C   0  0  2  0  0  0  0  0  0  0  0  0
   -4.6710   13.7600    0.8160 C   0  0  2  0  0  0  0  0  0  0  0  0
   -5.0300   14.1510   -1.5020 C   0  0  0  0  0  0  0  0  0  0  0  0
   -3.0740   12.8870   -1.1350 C   0  0  0  0  0  0  0  0  0  0  0  0
   -5.2700   15.1290    0.5200 C   0  0  1  0  0  0  0  0  0  0  0  0
   -1.9900   13.5730   -0.3690 C   0  0  0  0  0  0  0  0  0  0  0  0
   -3.4360   13.8610    1.6800 C   0  0  0  0  0  0  0  0  0  0  0  0
   -4.6060   15.4340   -0.7810 C   0  0  0  0  0  0  0  0  0  0  0  0
   -6.6550   15.0570    0.1960 O   0  0  0  0  0  0  0  0  0  0  0  0
   -0.7590   13.7710   -0.9880 C   0  0  0  0  0  0  0  0  0  0  0  0
   -2.1530   14.0280    0.9400 C   0  0  0  0  0  0  0  0  0  0  0  0
   -6.9470   15.5420   -1.0500 C   0  0  0  0  0  0  0  0  0  0  0  0
   -1.1760   14.6460    1.6270 N   0  0  0  0  0  0  0  0  0  0  0  0
    0.2530   14.4040   -0.3010 C   0  0  0  0  0  0  0  0  0  0  0  0
   -7.9870   16.1120   -1.3280 O   0  0  0  0  0  0  0  0  0  0  0  0
   -0.0040   14.8170    0.9870 C   0  0  0  0  0  0  0  0  0  0  0  0
   -5.8370   15.2820   -2.0540 C   0  0  0  0  0  0  0  0  0  0  0  0
   -4.4520   15.4940   -1.7990 C   0  0  0  0  0  0  0  0  0  0  0  0
   -6.2160   14.7920   -3.3350 C   0  0  0  0  0  0  0  0  0  0  0  0
   -3.5360   15.2050   -2.8070 C   0  0  0  0  0  0  0  0  0  0  0  0
   -5.2560   14.5190   -4.3280 C   0  0  0  0  0  0  0  0  0  0  0  0
   -3.9280   14.7370   -4.0330 C   0  0  0  0  0  0  0  0  0  0  0  0
   -2.1860   15.3360   -2.7220 O   0  0  0  0  0  0  0  0  0  0  0  0
   -2.8710   14.5290   -4.8710 O   0  0  0  0  0  0  0  0  0  0  0  0
   -1.7670   14.8260   -3.9970 C   0  0  0  0  0  0  0  0  0  0  0  0
  1  2  1  0
  1  3  2  0
  4  1  1  1
  4  5  1  0
  4  6  1  0
  4  7  1  0
  5  8  1  0
  7  9  1  0
  5 10  1  6
  6 11  1  0
  8 11  1  0
  8 12  1  6
  9 13  2  0
  9 14  1  0
 10 14  1  0
 12 15  1  0
 14 16  2  0
 13 17  1  0
 15 18  2  0
 16 19  1  0
 17 19  2  0
 15 20  1  0
 20 21  2  0
 20 22  1  0
 21 23  1  0
 22 24  2  0
 23 25  2  0
 24 25  1  0
 23 26  1  0
 25 27  1  0
 26 28  1  0
 27 28  1  0
M  END
