diamond-x1018_0_A-diamond-x0290_0_A
     RDKit          3D

 22 24  0  0  0  0  0  0  0  0999 V2000
   -7.8690   14.3240    0.8700 C   0  0  0  0  0  0  0  0  0  0  0  0
   -7.5540   13.1780    1.7160 N   0  0  0  0  0  0  0  0  0  0  0  0
   -6.1980   13.2380    2.3260 C   0  0  0  0  0  0  0  0  0  0  0  0
   -6.6020   14.6970    0.1250 C   0  0  0  0  0  0  0  0  0  0  0  0
   -6.5710   14.5300   -1.1610 N   0  0  0  0  0  0  0  0  0  0  0  0
   -5.4710   15.2220    0.9580 C   0  0  0  0  0  0  0  0  0  0  0  0
   -4.9880   13.2480    1.3650 C   0  0  0  0  0  0  0  0  0  0  0  0
   -5.3720   14.8660   -1.6840 N   0  0  0  0  0  0  0  0  0  0  0  0
   -4.3370   15.5500    0.3470 C   0  0  0  0  0  0  0  0  0  0  0  0
   -5.0660   12.7950    0.2190 O   0  0  0  0  0  0  0  0  0  0  0  0
   -3.7730   13.7750    1.7410 N   0  0  0  0  0  0  0  0  0  0  0  0
   -5.1050   14.7460   -2.9890 N   0  0  0  0  0  0  0  0  0  0  0  0
   -4.2620   15.3540   -1.0400 C   0  0  0  0  0  0  0  0  0  0  0  0
   -3.3210   15.5310   -1.9270 N   0  0  0  0  0  0  0  0  0  0  0  0
   -3.8530   15.1510   -3.1310 N   0  0  0  0  0  0  0  0  0  0  0  0
   -2.5780   14.0320    1.0540 C   0  0  0  0  0  0  0  0  0  0  0  0
   -1.5450   14.3230    1.8650 N   0  0  0  0  0  0  0  0  0  0  0  0
   -2.4250   13.9980   -0.3220 C   0  0  0  0  0  0  0  0  0  0  0  0
   -0.3480   14.5810    1.3000 C   0  0  0  0  0  0  0  0  0  0  0  0
   -1.1780   14.2770   -0.8920 C   0  0  0  0  0  0  0  0  0  0  0  0
   -0.9950   14.2520   -2.3810 C   0  0  0  0  0  0  0  0  0  0  0  0
   -0.1150   14.5740   -0.0550 C   0  0  0  0  0  0  0  0  0  0  0  0
  1  2  1  0
  2  3  1  0
  1  4  1  0
  4  5  2  0
  4  6  1  0
  3  7  1  0
  5  8  1  0
  6  9  2  0
  7 10  2  0
  7 11  1  0
  8 12  1  0
  8 13  1  0
  9 13  1  0
 13 14  2  0
 12 15  2  0
 14 15  1  0
 11 16  1  0
 16 17  2  0
 16 18  1  0
 17 19  1  0
 18 20  2  0
 20 21  1  0
 19 22  2  0
 20 22  1  0
M  END
