diamond-x0626_0_A-mac-x0587
     RDKit          3D

 21 21  0  0  0  0  0  0  0  0999 V2000
   -4.8080   14.7420    1.3490 N   0  0  0  0  0  0  0  0  0  0  0  0
   -6.1340   14.6520    0.8500 C   0  0  0  0  0  0  0  0  0  0  0  0
   -6.2300   14.8280   -0.3590 O   0  0  0  0  0  0  0  0  0  0  0  0
   -3.5740   14.7440    0.5090 C   0  0  0  0  0  0  0  0  0  0  0  0
   -7.3050   14.3670    1.7400 C   0  0  0  0  0  0  0  0  0  0  0  0
   -2.1070   14.7170    0.7700 N   0  0  0  0  0  0  0  0  0  0  0  0
   -3.8690   14.7850   -1.1860 S   0  0  0  0  0  0  0  0  0  0  0  0
   -8.6150   14.6270    1.0090 C   0  0  0  0  0  0  0  0  0  0  0  0
   -1.6110   14.6910    1.9060 O   0  0  0  0  0  0  0  0  0  0  0  0
   -2.1590   14.7610   -1.4970 C   0  0  0  0  0  0  0  0  0  0  0  0
   -1.3450   14.7220   -0.3370 C   0  0  0  0  0  0  0  0  0  0  0  0
    0.1110   14.6920   -0.0970 C   0  0  0  0  0  0  0  0  0  0  0  0
   -1.8650   14.7900   -2.9620 C   0  0  0  0  0  0  0  0  0  0  0  0
   -0.4170   14.5680   -3.4770 C   0  0  2  0  0  0  0  0  0  0  0  0
   -2.7880   14.9970   -3.7640 O   0  0  0  0  0  0  0  0  0  0  0  0
    0.3360   15.8630   -3.7930 C   0  0  0  0  0  0  0  0  0  0  0  0
   -0.3500   13.4480   -4.9550 S   0  0  0  0  0  0  0  0  0  0  0  0
   -0.0940   11.7260   -4.3880 C   0  0  0  0  0  0  0  0  0  0  0  0
    0.6160   11.5260   -3.0760 C   0  0  0  0  0  0  0  0  0  0  0  0
    0.5440   10.4970   -2.4020 O   0  0  0  0  0  0  0  0  0  0  0  0
    1.3860   12.5580   -2.6850 O   0  0  0  0  0  0  0  0  0  0  0  0
  1  2  1  0
  2  3  2  0
  1  4  1  0
  2  5  1  0
  4  6  2  0
  4  7  1  0
  5  8  1  0
  6  9  1  0
  7 10  1  0
  6 11  1  0
 10 11  2  0
 11 12  1  0
 10 13  1  0
 13 14  1  0
 13 15  2  0
 14 16  1  6
 14 17  1  0
 17 18  1  0
 18 19  1  0
 19 20  2  0
 19 21  1  0
M  CHG  2   6   1   9  -1
M  END
