diamond-x0371_0_A-mac-x0138
     RDKit          3D

 25 28  0  0  0  0  0  0  0  0999 V2000
   -7.9030   14.4540    2.9730 N   0  0  0  0  0  0  0  0  0  0  0  0
   -8.6680   15.4440    3.5640 C   0  0  0  0  0  0  0  0  0  0  0  0
   -9.3640   16.2250    2.9170 O   0  0  0  0  0  0  0  0  0  0  0  0
   -8.0950   14.0560    1.5900 C   0  0  0  0  0  0  0  0  0  0  0  0
   -6.8530   14.3820    0.7810 C   0  0  0  0  0  0  0  0  0  0  0  0
   -8.5830   15.4700    5.0040 C   0  0  0  0  0  0  0  0  0  0  0  0
   -5.6350   14.5040    1.4380 N   0  0  0  0  0  0  0  0  0  0  0  0
   -6.8530   14.5820   -0.5160 N   0  0  0  0  0  0  0  0  0  0  0  0
   -8.0420   14.4000    5.6630 O   0  0  0  0  0  0  0  0  0  0  0  0
   -8.9680   16.4250    5.9260 C   0  0  0  0  0  0  0  0  0  0  0  0
   -5.5380   14.8420   -0.7860 C   0  0  0  0  0  0  0  0  0  0  0  0
   -4.8010   14.8220    0.4860 C   0  0  0  0  0  0  0  0  0  0  0  0
   -8.6430   15.9070    7.2030 C   0  0  0  0  0  0  0  0  0  0  0  0
   -8.0810   14.6750    6.9900 C   0  0  0  0  0  0  0  0  0  0  0  0
   -3.3180   15.2020    0.5510 C   0  0  2  0  0  0  0  0  0  0  0  0
   -4.9120   15.0800   -1.9490 C   0  0  0  0  0  0  0  0  0  0  0  0
   -3.5600   16.4680    1.1750 N   0  0  0  0  0  0  0  0  0  0  0  0
   -2.7950   15.3550   -0.8430 C   0  0  0  0  0  0  0  0  0  0  0  0
   -3.4690   15.3090   -1.9900 C   0  0  0  0  0  0  0  0  0  0  0  0
   -2.3740   14.5040    1.4700 N   0  0  0  0  0  0  0  0  0  0  0  0
   -2.8220   15.4690   -3.3490 C   0  0  0  0  0  0  0  0  0  0  0  0
   -1.0990   14.5770    1.1720 C   0  0  0  0  0  0  0  0  0  0  0  0
   -1.3640   15.5790   -0.8500 C   0  0  0  0  0  0  0  0  0  0  0  0
   -0.1320   14.0250    1.9540 N   0  0  0  0  0  0  0  0  0  0  0  0
   -0.5880   15.2140    0.0890 N   0  0  0  0  0  0  0  0  0  0  0  0
  1  2  1  0
  2  3  2  0
  1  4  1  0
  4  5  1  0
  2  6  1  0
  5  7  1  0
  5  8  2  0
  6  9  1  0
  6 10  2  0
  8 11  1  0
  7 12  2  0
 11 12  1  0
 10 13  1  0
  9 14  1  0
 13 14  2  0
 12 15  1  0
 11 16  2  0
 15 17  1  1
 15 18  1  0
 16 19  1  0
 18 19  2  0
 15 20  1  0
 19 21  1  0
 20 22  2  0
 18 23  1  0
 22 24  1  0
 22 25  1  0
 23 25  2  0
M  END
