diamond-x0628_0_A-mac-x0365
     RDKit          3D

 24 25  0  0  0  0  0  0  0  0999 V2000
   -0.7620    8.9720   -7.2770 C   0  0  0  0  0  0  0  0  0  0  0  0
   -0.8460   10.2010   -6.4690 C   0  0  0  0  0  0  0  0  0  0  0  0
   -1.9240   10.4930   -5.6870 N   0  0  0  0  0  0  0  0  0  0  0  0
    0.1270   11.1120   -6.4470 N   0  0  0  0  0  0  0  0  0  0  0  0
   -0.3690   12.0310   -5.5940 N   0  0  0  0  0  0  0  0  0  0  0  0
   -1.6160   11.6530   -5.1350 C   0  0  0  0  0  0  0  0  0  0  0  0
   -2.5000   12.3970   -4.1770 C   0  0  0  0  0  0  0  0  0  0  0  0
    0.4310   13.2040   -5.3090 C   0  0  0  0  0  0  0  0  0  0  0  0
    1.5950   12.9090   -4.3640 C   0  0  0  0  0  0  0  0  0  0  0  0
   -2.3980   13.9270   -4.2130 C   0  0  0  0  0  0  0  0  0  0  0  0
    1.1460   12.1930   -3.1130 C   0  0  0  0  0  0  0  0  0  0  0  0
   -1.3770   14.3740   -3.2690 N   0  0  0  0  0  0  0  0  0  0  0  0
    0.4770   11.1740   -3.0640 O   0  0  0  0  0  0  0  0  0  0  0  0
    1.5720   12.8130   -1.9910 O   0  0  0  0  0  0  0  0  0  0  0  0
   -1.6810   14.7680   -2.0840 C   0  0  0  0  0  0  0  0  0  0  0  0
   -0.7220   15.1340   -1.2170 O   0  0  0  0  0  0  0  0  0  0  0  0
   -3.0470   14.8680   -1.5170 C   0  0  0  0  0  0  0  0  0  0  0  0
   -4.1420   15.0320   -2.3720 C   0  0  0  0  0  0  0  0  0  0  0  0
   -3.2390   14.7990   -0.1260 C   0  0  0  0  0  0  0  0  0  0  0  0
   -5.4120   15.1140   -1.8260 C   0  0  0  0  0  0  0  0  0  0  0  0
   -4.5270   14.8850    0.4060 C   0  0  0  0  0  0  0  0  0  0  0  0
   -6.4740   15.2640   -2.6220 F   0  0  0  0  0  0  0  0  0  0  0  0
   -5.6070   15.0380   -0.4550 C   0  0  0  0  0  0  0  0  0  0  0  0
   -6.8620   15.1080    0.0710 O   0  0  0  0  0  0  0  0  0  0  0  0
  1  2  1  0
  2  3  1  0
  2  4  2  0
  4  5  1  0
  3  6  2  0
  5  6  1  0
  6  7  1  0
  5  8  1  0
  8  9  1  0
  7 10  1  0
  9 11  1  0
 10 12  1  0
 11 13  2  0
 11 14  1  0
 12 15  2  3
 15 16  1  0
 15 17  1  0
 17 18  2  0
 17 19  1  0
 18 20  1  0
 19 21  2  0
 20 22  1  0
 20 23  2  0
 21 23  1  0
 23 24  1  0
M  END
