diamond-x0905_0_A-mac-x0365
     RDKit          3D

 11 11  0  0  0  0  0  0  0  0999 V2000
   -7.0500   15.1560   -0.8190 O   0  0  0  0  0  0  0  0  0  0  0  0
   -5.7040   15.1000   -0.5720 C   0  0  0  0  0  0  0  0  0  0  0  0
   -5.3650   15.0870    0.7250 N   0  0  0  0  0  0  0  0  0  0  0  0
   -4.7920   15.0580   -1.6150 C   0  0  0  0  0  0  0  0  0  0  0  0
   -5.2730   15.0710   -2.8700 F   0  0  0  0  0  0  0  0  0  0  0  0
   -4.0520   15.0420    1.0130 C   0  0  0  0  0  0  0  0  0  0  0  0
   -3.4230   14.9940   -1.3010 C   0  0  0  0  0  0  0  0  0  0  0  0
   -2.2910   14.9200   -2.2830 C   0  0  0  0  0  0  0  0  0  0  0  0
   -3.0600   14.9950    0.0530 C   0  0  0  0  0  0  0  0  0  0  0  0
   -1.0420   14.8610   -1.7590 O   0  0  0  0  0  0  0  0  0  0  0  0
   -2.4590   14.9190   -3.4910 O   0  0  0  0  0  0  0  0  0  0  0  0
  1  2  1  0
  2  3  2  0
  2  4  1  0
  4  5  1  0
  3  6  1  0
  4  7  2  0
  7  8  1  0
  6  9  2  0
  7  9  1  0
  8 10  1  0
  8 11  2  0
M  END
