diamond-x0962_3_A-mac-x0348
     RDKit          3D

 25 27  0  0  0  0  0  0  0  0999 V2000
    1.2630   11.1910   -8.3710 N   0  0  0  0  0  0  0  0  0  0  0  0
   -0.0540   11.3380   -7.8540 C   0  0  2  0  0  0  0  0  0  0  0  0
   -0.0360   12.1930   -6.5710 C   0  0  0  0  0  0  0  0  0  0  0  0
   -0.5500    9.9780   -7.6690 C   0  0  0  0  0  0  0  0  0  0  0  0
    1.3360   12.4110   -5.9450 C   0  0  0  0  0  0  0  0  0  0  0  0
   -0.0230    8.8870   -8.3200 N   0  0  0  0  0  0  0  0  0  0  0  0
   -1.5540    9.4790   -6.8930 C   0  0  0  0  0  0  0  0  0  0  0  0
    1.4470   13.5640   -4.9670 C   0  0  0  0  0  0  0  0  0  0  0  0
   -0.7300    7.7970   -7.9120 C   0  0  0  0  0  0  0  0  0  0  0  0
   -1.6610    8.1290   -7.0480 N   0  0  0  0  0  0  0  0  0  0  0  0
    0.4190   13.4520   -3.8240 C   0  0  2  0  0  0  0  0  0  0  0  0
    0.1880   14.7830   -3.1250 C   0  0  0  0  0  0  0  0  0  0  0  0
    0.7790   12.4410   -2.7580 C   0  0  0  0  0  0  0  0  0  0  0  0
    1.4530   12.7150   -1.7930 O   0  0  0  0  0  0  0  0  0  0  0  0
    0.2850   11.2000   -2.9400 O   0  0  0  0  0  0  0  0  0  0  0  0
   -0.1490   15.8270   -4.1100 C   0  0  0  0  0  0  0  0  0  0  0  0
    0.6610   16.8490   -4.5290 C   0  0  0  0  0  0  0  0  0  0  0  0
   -1.3820   15.9460   -4.8070 C   0  0  0  0  0  0  0  0  0  0  0  0
   -0.0250   17.5790   -5.4510 N   0  0  0  0  0  0  0  0  0  0  0  0
   -1.2780   17.0590   -5.6300 C   0  0  0  0  0  0  0  0  0  0  0  0
   -2.5730   15.2020   -4.8080 C   0  0  0  0  0  0  0  0  0  0  0  0
    0.5030   18.7250   -6.1350 C   0  0  0  0  0  0  0  0  0  0  0  0
   -3.6250   15.5910   -5.6370 C   0  0  0  0  0  0  0  0  0  0  0  0
   -2.3250   17.4630   -6.4460 C   0  0  0  0  0  0  0  0  0  0  0  0
   -3.5000   16.7080   -6.4460 C   0  0  0  0  0  0  0  0  0  0  0  0
  2  1  1  1
  2  3  1  0
  2  4  1  0
  3  5  1  0
  4  6  1  0
  4  7  2  0
  5  8  1  0
  6  9  1  0
  7 10  1  0
  9 10  2  0
 11  8  1  6
 11 12  1  0
 11 13  1  0
 13 14  2  0
 13 15  1  0
 12 16  1  0
 16 17  2  0
 16 18  1  0
 17 19  1  0
 18 20  2  0
 19 20  1  0
 18 21  1  0
 19 22  1  0
 21 23  2  0
 20 24  1  0
 23 25  1  0
 24 25  2  0
M  END
