diamond-x0592_0_A-diamond-x0253_0_A
     RDKit          3D

 28 29  0  0  0  0  0  0  0  0999 V2000
   -3.1540   14.9640    1.6570 N   0  0  0  0  0  0  0  0  0  0  0  0
   -3.3860   14.8150    0.3240 C   0  0  0  0  0  0  0  0  0  0  0  0
   -2.5300   14.6650   -0.5830 N   0  0  0  0  0  0  0  0  0  0  0  0
   -4.7900   14.8400    0.0010 C   0  0  0  0  0  0  0  0  0  0  0  0
   -1.1780   14.6590   -0.0590 C   0  0  0  0  0  0  0  0  0  0  0  0
   -5.4690   15.1400   -1.2120 C   0  0  0  0  0  0  0  0  0  0  0  0
   -5.7960   14.5600    0.8770 C   0  0  0  0  0  0  0  0  0  0  0  0
   -0.2060   14.7800   -1.2010 C   0  0  0  0  0  0  0  0  0  0  0  0
   -6.8060   15.0500   -1.0850 N   0  0  0  0  0  0  0  0  0  0  0  0
   -6.9620   14.6950    0.2080 N   0  0  0  0  0  0  0  0  0  0  0  0
   -8.2630   14.4880    0.8000 C   0  0  0  0  0  0  0  0  0  0  0  0
    0.7340   13.6100   -1.1600 C   0  0  0  0  0  0  0  0  0  0  0  0
   -8.0910   14.0880    2.2720 C   0  0  0  0  0  0  0  0  0  0  0  0
    1.2380   13.3490   -2.4810 N   0  0  0  0  0  0  0  0  0  0  0  0
   -7.2950   15.0330    2.9990 O   0  0  0  0  0  0  0  0  0  0  0  0
    0.9490   12.2650   -3.0610 C   0  0  0  0  0  0  0  0  0  0  0  0
    0.1850   11.2690   -2.5590 O   0  0  0  0  0  0  0  0  0  0  0  0
    1.5050   12.0650   -4.4280 C   0  0  0  0  0  0  0  0  0  0  0  0
    0.4980   11.8330   -5.4520 N   0  0  0  0  0  0  0  0  0  0  0  0
    0.9790   11.6750   -6.7050 C   0  0  0  0  0  0  0  0  0  0  0  0
    2.0590   12.1820   -6.8620 O   0  0  0  0  0  0  0  0  0  0  0  0
    0.3300   10.8660   -7.7690 C   0  0  0  0  0  0  0  0  0  0  0  0
   -0.8220   10.1570   -7.4360 C   0  0  0  0  0  0  0  0  0  0  0  0
    0.8380   10.7740   -9.0680 C   0  0  0  0  0  0  0  0  0  0  0  0
   -1.4600    9.3380   -8.3690 C   0  0  0  0  0  0  0  0  0  0  0  0
    0.2070    9.9700  -10.0090 C   0  0  0  0  0  0  0  0  0  0  0  0
   -2.6830    8.5620   -7.9800 C   0  0  0  0  0  0  0  0  0  0  0  0
   -0.9370    9.2490   -9.6610 C   0  0  0  0  0  0  0  0  0  0  0  0
  1  2  1  0
  2  3  2  3
  2  4  1  0
  3  5  1  0
  4  6  1  0
  4  7  2  0
  5  8  1  0
  6  9  2  0
  7 10  1  0
  9 10  1  0
 10 11  1  0
  8 12  1  0
 11 13  1  0
 12 14  1  0
 13 15  1  0
 14 16  2  3
 16 17  1  0
 16 18  1  0
 18 19  1  0
 19 20  1  0
 20 21  2  0
 20 22  1  0
 22 23  2  0
 22 24  1  0
 23 25  1  0
 24 26  2  0
 25 27  1  0
 25 28  2  0
 26 28  1  0
M  END
