diamond-x0895_1_A-diamond-x0900_0_A
     RDKit          3D

  8  8  0  0  0  0  0  0  0  0999 V2000
   -1.7680   14.8110    1.4340 O   0  0  0  0  0  0  0  0  0  0  0  0
   -2.8920   14.8070    0.9280 C   0  0  0  0  0  0  0  0  0  0  0  0
   -3.2290   14.7150   -0.5510 C   0  0  0  0  0  0  0  0  0  0  0  0
   -4.0520   14.8850    1.6350 N   0  0  0  0  0  0  0  0  0  0  0  0
   -4.7230   14.8670   -0.5540 C   0  0  0  0  0  0  0  0  0  0  0  0
   -5.1660   14.8630    0.8760 C   0  0  0  0  0  0  0  0  0  0  0  0
   -6.3200   14.8330    1.2280 O   0  0  0  0  0  0  0  0  0  0  0  0
   -5.5070   14.9730   -1.4820 O   0  0  0  0  0  0  0  0  0  0  0  0
  1  2  2  0
  2  3  1  0
  2  4  1  0
  3  5  1  0
  4  6  1  0
  5  6  1  0
  6  7  2  0
  5  8  2  0
M  END
