diamond-x0689_0_A-mac-x0337
     RDKit          3D

 17 18  0  0  0  0  0  0  0  0999 V2000
   -3.6980   14.3790    1.2790 N   0  0  0  0  0  0  0  0  0  0  0  0
   -4.5520   15.3800    0.7020 C   0  0  0  0  0  0  0  0  0  0  0  0
   -4.6400   15.1740   -1.1250 S   0  0  0  0  0  0  0  0  0  0  0  0
   -2.3880   14.4570    0.8680 C   0  0  0  0  0  0  0  0  0  0  0  0
   -2.1410   14.5070   -0.4460 N   0  0  0  0  0  0  0  0  0  0  0  0
   -1.4470   14.4780    1.8020 N   0  0  0  0  0  0  0  0  0  0  0  0
   -3.3630   15.5900   -1.7960 O   0  0  0  0  0  0  0  0  0  0  0  0
   -0.8670   14.5820   -0.8420 C   0  0  0  0  0  0  0  0  0  0  0  0
   -0.1850   14.5530    1.3610 C   0  0  0  0  0  0  0  0  0  0  0  0
   -4.7530   13.3630   -1.2740 C   0  0  0  0  0  0  0  0  0  0  0  0
    0.1740   14.6110    0.0350 C   0  0  0  0  0  0  0  0  0  0  0  0
   -3.7820   12.5940   -1.9380 C   0  0  0  0  0  0  0  0  0  0  0  0
   -5.8530   12.7140   -0.7120 C   0  0  0  0  0  0  0  0  0  0  0  0
   -3.9250   11.2010   -2.0360 C   0  0  0  0  0  0  0  0  0  0  0  0
   -5.9960   11.3290   -0.8100 C   0  0  0  0  0  0  0  0  0  0  0  0
   -5.0370   10.5620   -1.4730 C   0  0  0  0  0  0  0  0  0  0  0  0
   -5.2000    9.0800   -1.5760 C   0  0  0  0  0  0  0  0  0  0  0  0
  1  2  1  0
  3  2  1  1
  1  4  1  0
  4  5  2  0
  4  6  1  0
  3  7  2  0
  5  8  1  0
  6  9  2  0
  3 10  1  0
  8 11  2  0
  9 11  1  0
 10 12  2  0
 10 13  1  0
 12 14  1  0
 13 15  2  0
 14 16  2  0
 15 16  1  0
 16 17  1  0
M  END
