diamond-x0926_0_A-diamond-x0962_0_A
     RDKit          3D

  8  8  0  0  0  0  0  0  0  0999 V2000
   -6.6830   15.0810   -0.5460 O   0  0  0  0  0  0  0  0  0  0  0  0
   -5.4590   15.1630   -0.3730 C   0  0  0  0  0  0  0  0  0  0  0  0
   -4.8400   15.0240    1.0200 C   0  0  0  0  0  0  0  0  0  0  0  0
   -4.6230   15.3740   -1.4440 N   0  0  0  0  0  0  0  0  0  0  0  0
   -3.2600   15.1940   -1.3180 N   0  0  0  0  0  0  0  0  0  0  0  0
   -3.3620   14.8730    1.0380 C   0  0  0  0  0  0  0  0  0  0  0  0
   -2.6790   14.9580   -0.0980 C   0  0  0  0  0  0  0  0  0  0  0  0
   -2.5780   14.7790   -2.4390 N   0  0  0  0  0  0  0  0  0  0  0  0
  1  2  2  0
  2  3  1  0
  2  4  1  0
  4  5  1  0
  3  6  1  0
  5  7  1  0
  6  7  2  0
  5  8  1  0
M  END
