diamond-x0926_0_A-mac-x0510
     RDKit          3D

 12 13  0  0  0  0  0  0  0  0999 V2000
   -6.7680   14.9590   -0.4740 O   0  0  0  0  0  0  0  0  0  0  0  0
   -5.5500   15.1040   -0.3910 C   0  0  0  0  0  0  0  0  0  0  0  0
   -4.9040   15.3630    0.9250 C   0  0  0  0  0  0  0  0  0  0  0  0
   -4.7400   15.0280   -1.4940 N   0  0  0  0  0  0  0  0  0  0  0  0
   -3.3810   15.6070   -1.4240 N   0  0  2  0  0  0  0  0  0  0  0  0
   -3.5800   15.4430    1.0690 C   0  0  0  0  0  0  0  0  0  0  0  0
   -2.7880   15.2490   -2.5800 O   0  0  0  0  0  0  0  0  0  0  0  0
   -2.6790   15.2460   -0.1010 C   0  0  2  0  0  0  0  0  0  0  0  0
   -1.3870   15.9770    0.0420 N   0  0  0  0  0  0  0  0  0  0  0  0
   -2.1690   13.8280   -0.1180 C   0  0  0  0  0  0  0  0  0  0  0  0
   -1.1850   13.9470    0.9730 N   0  0  0  0  0  0  0  0  0  0  0  0
   -0.3910   15.0270    0.4780 C   0  0  0  0  0  0  0  0  0  0  0  0
  1  2  2  0
  2  3  1  0
  2  4  1  0
  4  5  1  0
  3  6  2  0
  5  7  1  6
  5  8  1  0
  8  6  1  1
  8  9  1  0
  8 10  1  0
 10 11  1  0
  9 12  1  0
 11 12  1  0
M  CHG  2   5   1   7  -1
M  END
