diamond-x0421_0_A-mac-x0398
     RDKit          3D

 14 15  0  0  0  0  0  0  0  0999 V2000
   -3.2770   14.5350   -3.2490 N   0  0  0  0  0  0  0  0  0  0  0  0
   -2.8370   14.8730   -1.8790 C   0  0  0  0  0  0  0  0  0  0  0  0
   -1.6230   14.7960   -1.7110 O   0  0  0  0  0  0  0  0  0  0  0  0
   -3.7760   15.4810   -3.8670 O   0  0  0  0  0  0  0  0  0  0  0  0
   -3.8570   15.2690   -0.8200 C   0  0  2  0  0  0  0  0  0  0  0  0
   -3.3080   15.3150    0.6040 C   0  0  0  0  0  0  0  0  0  0  0  0
   -5.0320   14.3470   -0.8450 N   0  0  0  0  0  0  0  0  0  0  0  0
   -6.1900   15.1270   -1.2980 O   0  0  0  0  0  0  0  0  0  0  0  0
   -4.2570   14.5820    1.4620 N   0  0  0  0  0  0  0  0  0  0  0  0
   -5.1890   13.8800    0.5580 C   0  0  1  0  0  0  0  0  0  0  0  0
   -4.9670   15.5200    2.3200 N   0  0  0  0  0  0  0  0  0  0  0  0
   -6.5600   13.6130    1.1130 C   0  0  0  0  0  0  0  0  0  0  0  0
   -7.7530   14.4640    0.7350 C   0  0  0  0  0  0  0  0  0  0  0  0
   -7.3240   14.3680    2.1690 C   0  0  0  0  0  0  0  0  0  0  0  0
  1  2  1  0
  2  3  2  0
  1  4  2  0
  5  2  1  6
  5  6  1  0
  5  7  1  0
  7  8  1  0
  6  9  1  0
  7 10  1  0
  9 10  1  0
  9 11  1  0
 10 12  1  1
 12 13  1  0
 12 14  1  0
 13 14  1  0
M  END
