diamond-x0685_1_A-diamond-x0159_0_B
     RDKit          3D

 32 35  0  0  0  0  0  0  0  0999 V2000
   -0.8900   10.8250   -5.0070 N   0  0  0  0  0  0  0  0  0  0  0  0
   -0.9930   12.2860   -5.0100 C   0  0  0  0  0  0  0  0  0  0  0  0
   -0.3210   13.0250   -3.8510 C   0  0  0  0  0  0  0  0  0  0  0  0
   -1.2120   10.2400   -6.3220 C   0  0  2  0  0  0  0  0  0  0  0  0
   -0.0370    9.4940   -6.9660 C   0  0  0  0  0  0  0  0  0  0  0  0
   -1.8120   11.2940   -7.2790 C   0  0  0  0  0  0  0  0  0  0  0  0
    0.7090   12.0820   -2.7020 S   0  0  0  0  0  0  0  0  0  0  0  0
   -0.2620    9.1230   -8.4320 C   0  0  2  0  0  0  0  0  0  0  0  0
   -2.0860   10.7550   -8.6810 C   0  0  0  0  0  0  0  0  0  0  0  0
    2.2160   12.2480   -3.2010 O   0  0  0  0  0  0  0  0  0  0  0  0
    0.2890   10.5250   -2.6280 O   0  0  0  0  0  0  0  0  0  0  0  0
    0.5630   12.7640   -1.2630 O   0  0  0  0  0  0  0  0  0  0  0  0
    0.6440    9.8910   -9.4320 C   0  0  0  0  0  0  0  0  0  0  0  0
   -1.7220    9.2880   -8.7860 C   0  0  0  0  0  0  0  0  0  0  0  0
    1.5410    8.9620  -10.1090 N   0  0  0  0  0  0  0  0  0  0  0  0
    1.9350    7.8470   -9.2870 C   0  0  0  0  0  0  0  0  0  0  0  0
    2.2550    9.3360  -11.2000 C   0  0  0  0  0  0  0  0  0  0  0  0
    1.0750    6.6200   -9.5460 C   0  0  0  0  0  0  0  0  0  0  0  0
    2.0200   10.4910  -11.8940 N   0  0  0  0  0  0  0  0  0  0  0  0
    3.2530    8.6700  -11.7420 N   0  0  0  0  0  0  0  0  0  0  0  0
    3.6800    9.4150  -12.8060 C   0  0  0  0  0  0  0  0  0  0  0  0
    2.9180   10.5730  -12.9270 C   0  0  0  0  0  0  0  0  0  0  0  0
    1.4590    5.4990   -8.6560 C   0  0  0  0  0  0  0  0  0  0  0  0
    2.3610    4.5540   -9.1320 C   0  0  0  0  0  0  0  0  0  0  0  0
    0.9350    5.3930   -7.3680 C   0  0  0  0  0  0  0  0  0  0  0  0
    3.1230   11.5280  -13.9170 C   0  0  0  0  0  0  0  0  0  0  0  0
    4.7140    9.1780  -13.7200 C   0  0  0  0  0  0  0  0  0  0  0  0
    2.7500    3.5040   -8.3340 C   0  0  0  0  0  0  0  0  0  0  0  0
    1.3300    4.3360   -6.5730 C   0  0  0  0  0  0  0  0  0  0  0  0
    4.1620   11.2730  -14.8240 C   0  0  0  0  0  0  0  0  0  0  0  0
    4.9460   10.1190  -14.7290 C   0  0  0  0  0  0  0  0  0  0  0  0
    2.2410    3.3960   -7.0620 C   0  0  0  0  0  0  0  0  0  0  0  0
  1  2  1  0
  2  3  1  0
  4  1  1  1
  4  5  1  0
  4  6  1  0
  3  7  1  0
  5  8  1  0
  6  9  1  0
  7 10  1  0
  7 11  1  0
  7 12  1  0
  8 13  1  6
  8 14  1  0
  9 14  1  0
 13 15  1  0
 15 16  1  0
 15 17  1  0
 16 18  1  0
 17 19  1  0
 17 20  2  0
 20 21  1  0
 19 22  1  0
 21 22  2  0
 18 23  1  0
 23 24  2  0
 23 25  1  0
 22 26  1  0
 21 27  1  0
 24 28  1  0
 25 29  2  0
 26 30  2  0
 27 31  2  0
 30 31  1  0
 28 32  2  0
 29 32  1  0
M  END
