diamond-x0685_1_A-mac-x0496
     RDKit          3D

 33 35  0  0  0  0  0  0  0  0999 V2000
   -1.3710   10.5760   -4.8660 N   0  0  0  0  0  0  0  0  0  0  0  0
   -1.5060   11.9870   -4.4670 C   0  0  0  0  0  0  0  0  0  0  0  0
   -0.1350   12.5910   -4.1960 C   0  0  0  0  0  0  0  0  0  0  0  0
   -0.7440   10.3870   -6.1850 C   0  0  0  0  0  0  0  0  0  0  0  0
   -0.5930    8.8810   -6.4400 C   0  0  0  0  0  0  0  0  0  0  0  0
   -1.5620   11.0090   -7.3390 C   0  0  0  0  0  0  0  0  0  0  0  0
    0.5990   12.0100   -2.6660 S   0  0  0  0  0  0  0  0  0  0  0  0
    0.0380    8.5900   -7.8020 C   0  0  0  0  0  0  0  0  0  0  0  0
   -1.0280   10.6890   -8.7430 C   0  0  0  0  0  0  0  0  0  0  0  0
    2.1620   12.3460   -2.8190 O   0  0  0  0  0  0  0  0  0  0  0  0
    0.3710   10.4190   -2.5510 O   0  0  0  0  0  0  0  0  0  0  0  0
   -0.0220   12.7900   -1.4020 O   0  0  0  0  0  0  0  0  0  0  0  0
   -0.7570    9.2040   -8.9590 C   0  0  0  0  0  0  0  0  0  0  0  0
   -0.3430   14.1880   -1.5040 C   0  0  0  0  0  0  0  0  0  0  0  0
   -1.2940   14.5820   -2.5540 N   0  0  0  0  0  0  0  0  0  0  0  0
   -2.5240   14.8750   -2.3010 C   0  0  0  0  0  0  0  0  0  0  0  0
   -3.3280   15.2380   -3.3250 O   0  0  0  0  0  0  0  0  0  0  0  0
   -3.2610   14.8910   -1.0250 C   0  0  0  0  0  0  0  0  0  0  0  0
   -2.5550   15.0000    0.1780 C   0  0  0  0  0  0  0  0  0  0  0  0
   -4.6540   14.7950   -1.0380 C   0  0  0  0  0  0  0  0  0  0  0  0
   -3.2420   15.0210    1.3810 C   0  0  0  0  0  0  0  0  0  0  0  0
   -5.3280   14.8120    0.1850 C   0  0  0  0  0  0  0  0  0  0  0  0
   -6.7970   14.7000    0.2120 C   0  0  0  0  0  0  0  0  0  0  0  0
   -4.6260   14.9310    1.3810 C   0  0  0  0  0  0  0  0  0  0  0  0
   -7.4340   14.3630    1.3800 N   0  0  0  0  0  0  0  0  0  0  0  0
   -7.4370   14.9020   -0.8100 O   0  0  0  0  0  0  0  0  0  0  0  0
   -8.8530   14.1340    1.5920 C   0  0  0  0  0  0  0  0  0  0  0  0
   -9.4490   15.2500    2.3690 C   0  0  0  0  0  0  0  0  0  0  0  0
  -10.6930   15.6660    1.9870 O   0  0  0  0  0  0  0  0  0  0  0  0
   -8.9700   15.9210    3.3930 N   0  0  0  0  0  0  0  0  0  0  0  0
   -9.9760   16.8060    3.6620 C   0  0  0  0  0  0  0  0  0  0  0  0
  -11.0410   16.6960    2.8580 N   0  0  0  0  0  0  0  0  0  0  0  0
   -9.8870   17.7990    4.7570 C   0  0  0  0  0  0  0  0  0  0  0  0
  1  2  1  0
  2  3  1  0
  1  4  1  0
  4  5  1  0
  4  6  1  0
  3  7  1  0
  5  8  1  0
  6  9  1  0
  7 10  1  0
  7 11  1  0
  7 12  1  0
  8 13  1  0
  9 13  1  0
 12 14  1  0
 14 15  1  0
 15 16  2  3
 16 17  1  0
 16 18  1  0
 18 19  2  0
 18 20  1  0
 19 21  1  0
 20 22  2  0
 22 23  1  0
 21 24  2  0
 22 24  1  0
 23 25  1  0
 23 26  2  0
 25 27  1  0
 27 28  1  0
 28 29  1  0
 28 30  2  0
 30 31  1  0
 29 32  1  0
 31 32  2  0
 31 33  1  0
M  END
