diamond-x1012_0_A-mac-x0394
     RDKit          3D

 13 13  0  0  0  0  0  0  0  0999 V2000
   -0.2220   18.1900   -4.7330 N   0  0  0  0  0  0  0  0  0  0  0  0
   -1.1940   17.2550   -4.8020 C   0  0  0  0  0  0  0  0  0  0  0  0
   -2.3620   17.6210   -4.7940 O   0  0  0  0  0  0  0  0  0  0  0  0
   -0.7900   15.9370   -4.8490 N   0  0  0  0  0  0  0  0  0  0  0  0
   -1.7860   14.9690   -4.4340 C   0  0  0  0  0  0  0  0  0  0  0  0
    0.6450   15.5370   -4.8400 C   0  0  0  0  0  0  0  0  0  0  0  0
   -1.3110   14.2460   -3.1950 C   0  0  0  0  0  0  0  0  0  0  0  0
    1.0760   14.3000   -3.9920 C   0  0  2  0  0  0  0  0  0  0  0  0
    2.0410   13.3780   -4.7340 C   0  0  0  0  0  0  0  0  0  0  0  0
   -0.0800   13.4180   -3.5330 C   0  0  1  0  0  0  0  0  0  0  0  0
    0.3630   12.4840   -2.4110 C   0  0  0  0  0  0  0  0  0  0  0  0
    0.4960   11.2020   -2.8270 O   0  0  0  0  0  0  0  0  0  0  0  0
    0.5730   12.8020   -1.2510 O   0  0  0  0  0  0  0  0  0  0  0  0
  1  2  1  0
  2  3  2  0
  2  4  1  0
  4  5  1  0
  4  6  1  0
  5  7  1  0
  6  8  1  0
  8  9  1  6
  7 10  1  0
  8 10  1  0
 10 11  1  1
 11 12  1  0
 11 13  2  0
M  END
