diamond-x0852_0_B-mac-x0224
     RDKit          3D

 24 25  0  0  0  0  0  0  0  0999 V2000
   -9.6020   17.4800    7.2690 N   0  0  0  0  0  0  0  0  0  0  0  0
   -9.3940   17.0160    6.2230 C   0  0  0  0  0  0  0  0  0  0  0  0
   -9.2340   16.4640    4.9040 C   0  0  0  0  0  0  0  0  0  0  0  0
   -8.2920   15.4440    4.6030 C   0  0  0  0  0  0  0  0  0  0  0  0
  -10.0620   16.9810    3.9050 C   0  0  0  0  0  0  0  0  0  0  0  0
   -7.5130   14.9860    5.6460 O   0  0  0  0  0  0  0  0  0  0  0  0
   -8.2070   14.9620    3.2620 C   0  0  0  0  0  0  0  0  0  0  0  0
   -9.9670   16.4950    2.6090 C   0  0  0  0  0  0  0  0  0  0  0  0
  -11.0670   17.1600    1.2260 Br  0  0  0  0  0  0  0  0  0  0  0  0
   -7.2920   13.9150    2.6790 C   0  0  0  0  0  0  0  0  0  0  0  0
   -9.0580   15.5070    2.3030 C   0  0  0  0  0  0  0  0  0  0  0  0
   -6.2850   14.6410    1.7500 C   0  0  0  0  0  0  0  0  0  0  0  0
   -5.0770   13.9400    1.1310 C   0  0  0  0  0  0  0  0  0  0  0  0
   -3.5810   15.0040    1.2080 S   0  0  0  0  0  0  0  0  0  0  0  0
   -3.0330   14.9130   -0.4830 C   0  0  0  0  0  0  0  0  0  0  0  0
   -1.7220   14.5600   -0.7990 C   0  0  0  0  0  0  0  0  0  0  0  0
   -3.9380   15.2000   -1.5080 C   0  0  0  0  0  0  0  0  0  0  0  0
   -1.2980   14.4910   -2.1360 C   0  0  0  0  0  0  0  0  0  0  0  0
   -3.5330   15.1330   -2.8450 C   0  0  0  0  0  0  0  0  0  0  0  0
    0.1230   14.1100   -2.3600 C   0  0  0  0  0  0  0  0  0  0  0  0
   -2.2190   14.7810   -3.1530 C   0  0  0  0  0  0  0  0  0  0  0  0
   -1.8320   14.7200   -4.4680 O   0  0  0  0  0  0  0  0  0  0  0  0
    0.9020   13.9530   -1.4370 O   0  0  0  0  0  0  0  0  0  0  0  0
    0.4910   13.9450   -3.6440 O   0  0  0  0  0  0  0  0  0  0  0  0
  1  2  3  0
  2  3  1  0
  3  4  2  0
  3  5  1  0
  4  6  1  0
  4  7  1  0
  5  8  2  0
  8  9  1  0
  7 10  1  0
  7 11  2  0
  8 11  1  0
 10 12  1  0
 12 13  1  0
 13 14  1  0
 14 15  1  0
 15 16  2  0
 15 17  1  0
 16 18  1  0
 17 19  2  0
 18 20  1  0
 18 21  2  0
 19 21  1  0
 21 22  1  0
 20 23  2  0
 20 24  1  0
M  END
