diamond-x0724_0_A-mac-x0546
     RDKit          3D

 31 34  0  0  0  0  0  0  0  0999 V2000
   -8.8460   13.8160    4.4480 N   0  0  0  0  0  0  0  0  0  0  0  0
   -8.6390   13.6820    5.8810 C   0  0  0  0  0  0  0  0  0  0  0  0
   -8.2890   15.0770    3.9880 C   0  0  0  0  0  0  0  0  0  0  0  0
   -7.7090   14.8850    2.6390 C   0  0  0  0  0  0  0  0  0  0  0  0
   -6.3780   14.9160    2.2950 C   0  0  0  0  0  0  0  0  0  0  0  0
   -8.3700   14.6390    1.4190 C   0  0  0  0  0  0  0  0  0  0  0  0
   -7.5280   14.5310    0.3970 N   0  0  0  0  0  0  0  0  0  0  0  0
   -6.2960   14.7110    0.9510 N   0  0  0  0  0  0  0  0  0  0  0  0
   -5.1610   14.6800    0.1310 C   0  0  0  0  0  0  0  0  0  0  0  0
   -3.8520   14.8800    0.6020 C   0  0  0  0  0  0  0  0  0  0  0  0
   -5.3880   14.4470   -1.1940 C   0  0  0  0  0  0  0  0  0  0  0  0
   -2.7920   14.8390   -0.3110 C   0  0  0  0  0  0  0  0  0  0  0  0
   -4.3730   14.4030   -2.1040 C   0  0  0  0  0  0  0  0  0  0  0  0
   -4.8270   14.1350   -3.5040 C   0  0  0  0  0  0  0  0  0  0  0  0
   -3.0460   14.6010   -1.6730 C   0  0  0  0  0  0  0  0  0  0  0  0
   -3.7400   14.1480   -4.5420 C   0  0  0  0  0  0  0  0  0  0  0  0
   -3.5170   15.4880   -5.1010 N   0  0  0  0  0  0  0  0  0  0  0  0
   -4.3980   15.6040   -6.2530 C   0  0  0  0  0  0  0  0  0  0  0  0
   -2.1860   15.8140   -5.2310 C   0  0  0  0  0  0  0  0  0  0  0  0
   -1.3400   14.7840   -5.1210 C   0  0  0  0  0  0  0  0  0  0  0  0
   -1.6210   17.1590   -5.4820 C   0  0  0  0  0  0  0  0  0  0  0  0
    0.1010   14.9360   -5.2480 C   0  0  1  0  0  0  0  0  0  0  0  0
   -0.3160   17.4490   -5.2750 C   0  0  0  0  0  0  0  0  0  0  0  0
    0.4550   16.3050   -4.7640 C   0  0  0  0  0  0  0  0  0  0  0  0
    1.0220   14.1720   -4.4040 C   0  0  0  0  0  0  0  0  0  0  0  0
    1.0740   12.6910   -4.3980 C   0  0  0  0  0  0  0  0  0  0  0  0
    1.4000   16.3540   -3.9090 N   0  0  0  0  0  0  0  0  0  0  0  0
    1.7500   15.0380   -3.7040 C   0  0  0  0  0  0  0  0  0  0  0  0
    0.8240   12.1740   -3.0010 C   0  0  0  0  0  0  0  0  0  0  0  0
    0.9680   12.8100   -1.9710 O   0  0  0  0  0  0  0  0  0  0  0  0
    0.4180   10.8940   -2.9540 O   0  0  0  0  0  0  0  0  0  0  0  0
  1  2  1  0
  1  3  1  0
  3  4  1  0
  4  5  2  0
  4  6  1  0
  6  7  2  0
  5  8  1  0
  7  8  1  0
  8  9  1  0
  9 10  2  0
  9 11  1  0
 10 12  1  0
 11 13  2  0
 13 14  1  0
 12 15  2  0
 13 15  1  0
 14 16  1  0
 16 17  1  0
 17 18  1  0
 17 19  1  0
 19 20  2  0
 19 21  1  0
 22 20  1  1
 21 23  2  0
 22 24  1  0
 23 24  1  0
 22 25  1  0
 25 26  1  0
 24 27  2  0
 25 28  2  0
 27 28  1  0
 26 29  1  0
 29 30  2  0
 29 31  1  0
M  END
