diamond-x0282_0_A-diamond-x0711_0_A
     RDKit          3D

 26 28  0  0  0  0  0  0  0  0999 V2000
   -6.4340   13.5270   -0.5180 C   0  0  2  0  0  0  0  0  0  0  0  0
   -7.6380   13.7680   -1.2180 O   0  0  0  0  0  0  0  0  0  0  0  0
   -6.5950   12.2100    0.0540 N   0  0  0  0  0  0  0  0  0  0  0  0
   -6.2240   14.6410    0.5230 C   0  0  0  0  0  0  0  0  0  0  0  0
   -5.2410   13.7200   -1.4600 C   0  0  0  0  0  0  0  0  0  0  0  0
   -5.5450   14.1690    1.8130 C   0  0  0  0  0  0  0  0  0  0  0  0
   -5.3360   15.7370   -0.0940 C   0  0  0  0  0  0  0  0  0  0  0  0
   -5.2620   14.6630   -2.5110 C   0  0  0  0  0  0  0  0  0  0  0  0
   -4.0550   12.9650   -1.2820 C   0  0  0  0  0  0  0  0  0  0  0  0
   -4.0310   14.4250    1.8180 C   0  0  0  0  0  0  0  0  0  0  0  0
   -4.0940   15.1290   -0.6160 C   0  0  0  0  0  0  0  0  0  0  0  0
   -4.1440   14.8480   -3.3320 C   0  0  0  0  0  0  0  0  0  0  0  0
   -2.9360   13.1580   -2.1110 C   0  0  0  0  0  0  0  0  0  0  0  0
   -3.4450   14.4480    0.4820 N   0  0  0  0  0  0  0  0  0  0  0  0
   -2.9820   14.1100   -3.1360 C   0  0  0  0  0  0  0  0  0  0  0  0
   -1.8590   14.3430   -3.9870 N   0  0  0  0  0  0  0  0  0  0  0  0
   -2.1120   14.5610    0.4050 C   0  0  0  0  0  0  0  0  0  0  0  0
   -0.4390   13.4330   -3.9470 S   0  0  0  0  0  0  0  0  0  0  0  0
   -1.6460   14.6940   -0.8400 N   0  0  0  0  0  0  0  0  0  0  0  0
   -1.3510   14.5470    1.5030 N   0  0  0  0  0  0  0  0  0  0  0  0
   -0.8470   12.0530   -4.9930 C   0  0  0  0  0  0  0  0  0  0  0  0
    0.6250   14.1850   -4.5710 O   0  0  0  0  0  0  0  0  0  0  0  0
   -0.2960   12.9270   -2.5990 O   0  0  0  0  0  0  0  0  0  0  0  0
   -0.3450   14.8300   -1.0130 C   0  0  0  0  0  0  0  0  0  0  0  0
   -0.0440   14.6850    1.2670 C   0  0  0  0  0  0  0  0  0  0  0  0
    0.5140   14.8380    0.0140 C   0  0  0  0  0  0  0  0  0  0  0  0
  1  2  1  0
  1  3  1  1
  1  4  1  0
  1  5  1  0
  4  6  1  0
  4  7  1  0
  5  8  2  0
  5  9  1  0
  6 10  1  0
  7 11  1  0
  8 12  1  0
  9 13  2  0
 10 14  1  0
 11 14  1  0
 12 15  2  0
 13 15  1  0
 15 16  1  0
 14 17  1  0
 18 16  1  0
 17 19  2  0
 17 20  1  0
 18 21  1  0
 18 22  2  0
 18 23  2  0
 19 24  1  0
 20 25  2  0
 24 26  2  0
 25 26  1  0
M  END
