diamond-x1018_0_A-mac-x0255
     RDKit          3D

 25 28  0  0  0  0  0  0  0  0999 V2000
   -8.2340   14.6280    1.1150 Cl  0  0  0  0  0  0  0  0  0  0  0  0
   -6.5830   14.5550    0.5970 C   0  0  0  0  0  0  0  0  0  0  0  0
   -5.4880   14.7690    1.5790 C   0  0  0  0  0  0  0  0  0  0  0  0
   -6.4080   14.3090   -0.6610 N   0  0  0  0  0  0  0  0  0  0  0  0
   -5.1150   14.2290   -1.0860 N   0  0  0  0  0  0  0  0  0  0  0  0
   -4.2350   14.5170    1.1670 C   0  0  0  0  0  0  0  0  0  0  0  0
   -4.8030   14.9700   -2.2030 N   0  0  0  0  0  0  0  0  0  0  0  0
   -3.9420   14.0290   -0.2230 C   0  0  2  0  0  0  0  0  0  0  0  0
   -2.8630   14.7350   -0.9330 N   0  0  0  0  0  0  0  0  0  0  0  0
   -3.5430   15.5670   -1.9090 N   0  0  0  0  0  0  0  0  0  0  0  0
   -1.8560   13.9340   -1.6730 C   0  0  0  0  0  0  0  0  0  0  0  0
   -0.6290   13.3190   -0.9620 C   0  0  0  0  0  0  0  0  0  0  0  0
    0.5520   13.3250   -1.8070 O   0  0  0  0  0  0  0  0  0  0  0  0
    0.6610   12.2910   -2.7070 C   0  0  0  0  0  0  0  0  0  0  0  0
    0.3280   11.1360   -2.4740 O   0  0  0  0  0  0  0  0  0  0  0  0
    1.2490   12.8140   -4.0070 C   0  0  0  0  0  0  0  0  0  0  0  0
    0.6040   14.1030   -4.4070 C   0  0  0  0  0  0  0  0  0  0  0  0
    1.1870   15.3360   -4.5940 C   0  0  0  0  0  0  0  0  0  0  0  0
   -1.0780   14.1660   -4.6940 S   0  0  0  0  0  0  0  0  0  0  0  0
    0.2520   16.3510   -4.9790 C   0  0  0  0  0  0  0  0  0  0  0  0
   -1.0460   15.8400   -5.0690 C   0  0  0  0  0  0  0  0  0  0  0  0
    0.4480   17.7170   -5.2640 C   0  0  0  0  0  0  0  0  0  0  0  0
   -2.1400   16.6540   -5.4310 C   0  0  0  0  0  0  0  0  0  0  0  0
   -0.6320   18.5210   -5.6260 C   0  0  0  0  0  0  0  0  0  0  0  0
   -1.9070   17.9970   -5.7080 C   0  0  0  0  0  0  0  0  0  0  0  0
  1  2  1  0
  2  3  1  0
  2  4  2  0
  4  5  1  0
  3  6  2  0
  5  7  1  0
  5  8  1  0
  8  6  1  1
  8  9  1  0
  7 10  1  0
  9 10  1  0
  9 11  1  0
 11 12  1  0
 12 13  1  0
 13 14  1  0
 14 15  2  0
 14 16  1  0
 16 17  1  0
 17 18  2  0
 17 19  1  0
 18 20  1  0
 19 21  1  0
 20 21  2  0
 20 22  1  0
 21 23  1  0
 22 24  2  0
 23 25  2  0
 24 25  1  0
M  END
