diamond-x0282_0_A-mac-x0182
     RDKit          3D

 28 31  0  0  0  0  0  0  0  0999 V2000
   -7.7620   14.4100    1.1830 C   0  0  0  0  0  0  0  0  0  0  0  0
   -8.6170   14.6330    0.0700 O   0  0  0  0  0  0  0  0  0  0  0  0
   -6.2910   14.2920    0.7930 C   0  0  0  0  0  0  0  0  0  0  0  0
   -5.3110   14.8950    1.7850 C   0  0  0  0  0  0  0  0  0  0  0  0
   -5.9300   14.8450   -0.5870 C   0  0  0  0  0  0  0  0  0  0  0  0
   -4.0230   14.1370    1.6240 C   0  0  0  0  0  0  0  0  0  0  0  0
   -4.4100   15.0000   -0.6680 C   0  0  0  0  0  0  0  0  0  0  0  0
   -3.6200   14.0990    0.2150 N   0  0  0  0  0  0  0  0  0  0  0  0
   -2.2230   14.4460    0.0550 C   0  0  2  0  0  0  0  0  0  0  0  0
   -1.4880   14.0370   -1.1490 N   0  0  0  0  0  0  0  0  0  0  0  0
   -1.5320   14.2280    1.3280 N   0  0  0  0  0  0  0  0  0  0  0  0
   -1.8550   12.7440   -1.7740 C   0  0  0  0  0  0  0  0  0  0  0  0
   -0.2440   14.5810   -1.2330 C   0  0  0  0  0  0  0  0  0  0  0  0
   -0.0790   14.1960    1.1820 C   0  0  0  0  0  0  0  0  0  0  0  0
   -2.4540   12.8680   -3.1940 C   0  0  0  0  0  0  0  0  0  0  0  0
    0.4690   14.6870   -0.1330 C   0  0  0  0  0  0  0  0  0  0  0  0
   -1.4820   12.5290   -4.2680 N   0  0  0  0  0  0  0  0  0  0  0  0
   -0.6560   11.2370   -4.2370 S   0  0  2  0  0  0  0  0  0  0  0  0
   -0.2780   10.4210   -3.1100 O   0  0  0  0  0  0  0  0  0  0  0  0
    0.7880   11.7700   -4.9010 N   0  0  0  0  0  0  0  0  0  0  0  0
   -1.0770   10.2260   -5.5910 C   0  0  0  0  0  0  0  0  0  0  0  0
    0.9190   11.3820   -6.2070 C   0  0  0  0  0  0  0  0  0  0  0  0
   -0.1310   10.4100   -6.5930 C   0  0  0  0  0  0  0  0  0  0  0  0
   -2.1490    9.3610   -5.7250 C   0  0  0  0  0  0  0  0  0  0  0  0
    1.7760   11.7580   -6.9650 O   0  0  0  0  0  0  0  0  0  0  0  0
   -2.2550    8.6620   -6.9330 C   0  0  0  0  0  0  0  0  0  0  0  0
   -0.2270    9.7230   -7.7940 C   0  0  0  0  0  0  0  0  0  0  0  0
   -1.3040    8.8400   -7.9600 C   0  0  0  0  0  0  0  0  0  0  0  0
  1  2  1  0
  1  3  1  0
  3  4  1  0
  3  5  1  0
  4  6  1  0
  5  7  1  0
  6  8  1  0
  7  8  1  0
  9  8  1  1
  9 10  1  0
  9 11  1  0
 10 12  1  0
 10 13  1  0
 11 14  1  0
 12 15  1  0
 13 16  2  0
 14 16  1  0
 15 17  1  0
 17 18  2  0
 18 19  2  0
 18 20  1  6
 18 21  1  0
 20 22  1  0
 21 23  2  0
 22 23  1  0
 21 24  1  0
 22 25  2  0
 24 26  2  0
 23 27  1  0
 26 28  1  0
 27 28  2  0
M  END
