diamond-x0742_0_A-diamond-x0837_0_A
     RDKit          3D

 18 20  0  0  0  0  0  0  0  0999 V2000
   -5.4850   12.0880   -1.0730 C   0  0  0  0  0  0  0  0  0  0  0  0
   -6.5690   11.6990   -0.0950 C   0  0  0  0  0  0  0  0  0  0  0  0
   -5.2960   11.4050   -2.0750 O   0  0  0  0  0  0  0  0  0  0  0  0
   -4.6080   13.3160   -0.7900 C   0  0  2  0  0  0  0  0  0  0  0  0
   -4.8390   13.7580    0.6840 C   0  0  2  0  0  0  0  0  0  0  0  0
   -5.0440   14.5200   -1.6840 C   0  0  2  0  0  0  0  0  0  0  0  0
   -3.1810   12.9230   -1.1710 C   0  0  0  0  0  0  0  0  0  0  0  0
   -3.5460   15.0950   -3.0880 I   0  0  0  0  0  0  0  0  0  0  0  0
   -5.8910   14.7940    0.3670 C   0  0  0  0  0  0  0  0  0  0  0  0
   -2.0980   13.5910   -0.3680 C   0  0  0  0  0  0  0  0  0  0  0  0
   -3.6530   14.1990    1.5410 C   0  0  0  0  0  0  0  0  0  0  0  0
   -5.4130   15.6590   -0.7390 C   0  0  0  0  0  0  0  0  0  0  0  0
   -6.9970   14.8820    0.8940 O   0  0  0  0  0  0  0  0  0  0  0  0
   -0.8180   13.6280   -0.9030 C   0  0  0  0  0  0  0  0  0  0  0  0
   -2.3090   14.1730    0.8900 C   0  0  0  0  0  0  0  0  0  0  0  0
   -1.3190   14.7430    1.5980 N   0  0  0  0  0  0  0  0  0  0  0  0
    0.2010   14.2150   -0.1920 C   0  0  0  0  0  0  0  0  0  0  0  0
   -0.0960   14.7460    1.0380 C   0  0  0  0  0  0  0  0  0  0  0  0
  1  2  1  0
  1  3  2  0
  4  1  1  6
  4  5  1  0
  4  6  1  0
  4  7  1  0
  6  8  1  6
  5  9  1  0
  7 10  1  0
  5 11  1  6
  6 12  1  0
  9 12  1  0
  9 13  2  0
 10 14  2  0
 10 15  1  0
 11 15  1  0
 15 16  2  0
 14 17  1  0
 16 18  1  0
 17 18  2  0
M  END
