diamond-x0465_0_A-mac-x0319
     RDKit          3D

 20 21  0  0  0  0  0  0  0  0999 V2000
    2.5350   12.8720   -4.7340 C   0  0  0  0  0  0  0  0  0  0  0  0
    1.0470   12.5260   -4.5050 C   0  0  1  0  0  0  0  0  0  0  0  0
    0.6740   11.7170   -5.6580 O   0  0  0  0  0  0  0  0  0  0  0  0
    0.8810   12.0070   -3.0410 C   0  0  0  0  0  0  0  0  0  0  0  0
    0.3760   13.9160   -4.5540 C   0  0  0  0  0  0  0  0  0  0  0  0
    1.0820   12.6510   -2.0230 O   0  0  0  0  0  0  0  0  0  0  0  0
    0.4850   10.7200   -2.9280 O   0  0  0  0  0  0  0  0  0  0  0  0
   -0.4600   10.9340   -5.7320 C   0  0  0  0  0  0  0  0  0  0  0  0
    1.1220   15.0890   -4.3250 C   0  0  0  0  0  0  0  0  0  0  0  0
   -0.9980   14.0490   -4.8260 C   0  0  0  0  0  0  0  0  0  0  0  0
   -0.5790    9.8480   -6.6120 C   0  0  0  0  0  0  0  0  0  0  0  0
   -1.5330   11.2400   -4.8940 C   0  0  0  0  0  0  0  0  0  0  0  0
    0.5070   16.3340   -4.3700 C   0  0  0  0  0  0  0  0  0  0  0  0
   -1.6000   15.3030   -4.8670 C   0  0  0  0  0  0  0  0  0  0  0  0
    0.4170    9.5050   -7.4370 F   0  0  0  0  0  0  0  0  0  0  0  0
    1.2600   17.4470   -4.1380 O   0  0  0  0  0  0  0  0  0  0  0  0
   -1.7450    9.0860   -6.6570 C   0  0  0  0  0  0  0  0  0  0  0  0
   -2.7060   10.4770   -4.9400 C   0  0  0  0  0  0  0  0  0  0  0  0
   -0.8450   16.4490   -4.6410 C   0  0  0  0  0  0  0  0  0  0  0  0
   -2.8110    9.3980   -5.8230 C   0  0  0  0  0  0  0  0  0  0  0  0
  2  1  1  6
  2  3  1  0
  2  4  1  0
  2  5  1  0
  4  6  2  0
  4  7  1  0
  3  8  1  0
  5  9  2  0
  5 10  1  0
  8 11  2  0
  8 12  1  0
  9 13  1  0
 10 14  2  0
 11 15  1  0
 13 16  1  0
 11 17  1  0
 12 18  2  0
 13 19  2  0
 14 19  1  0
 17 20  2  0
 18 20  1  0
M  END
