diamond-x0282_0_A-diamond-x0950_1_A
     RDKit          3D

 21 22  0  0  0  0  0  0  0  0999 V2000
   -7.4270   13.7120    1.0110 C   0  0  0  0  0  0  0  0  0  0  0  0
   -8.6580   14.1590    0.4490 O   0  0  0  0  0  0  0  0  0  0  0  0
   -6.3140   14.6280    0.5220 C   0  0  0  0  0  0  0  0  0  0  0  0
   -5.3100   14.9690    1.6510 C   0  0  0  0  0  0  0  0  0  0  0  0
   -5.6140   14.1380   -0.7350 C   0  0  0  0  0  0  0  0  0  0  0  0
   -4.0780   14.0800    1.6330 C   0  0  0  0  0  0  0  0  0  0  0  0
   -4.2020   14.6710   -0.8060 C   0  0  0  0  0  0  0  0  0  0  0  0
   -3.4500   14.2150    0.3450 N   0  0  0  0  0  0  0  0  0  0  0  0
   -2.1110   14.3770    0.2880 C   0  0  0  0  0  0  0  0  0  0  0  0
   -1.5840   14.3500   -0.9400 N   0  0  0  0  0  0  0  0  0  0  0  0
   -1.3930   14.5460    1.4150 N   0  0  0  0  0  0  0  0  0  0  0  0
   -0.2710   14.5080   -1.0700 C   0  0  0  0  0  0  0  0  0  0  0  0
   -0.0800   14.7040    1.2190 C   0  0  0  0  0  0  0  0  0  0  0  0
    0.3310   14.4550   -2.4340 C   0  0  0  0  0  0  0  0  0  0  0  0
    0.5210   14.7000   -0.0140 C   0  0  0  0  0  0  0  0  0  0  0  0
   -0.2010   13.2550   -3.0060 O   0  0  0  0  0  0  0  0  0  0  0  0
    0.6420   12.2230   -3.2650 C   0  0  0  0  0  0  0  0  0  0  0  0
    1.3900   12.5350   -4.5610 C   0  0  2  0  0  0  0  0  0  0  0  0
    0.7400   11.2140   -2.5790 O   0  0  0  0  0  0  0  0  0  0  0  0
    1.2130   13.9880   -4.9550 C   0  0  0  0  0  0  0  0  0  0  0  0
    0.9070   11.7330   -5.6390 O   0  0  0  0  0  0  0  0  0  0  0  0
  1  2  1  0
  1  3  1  0
  3  4  1  0
  3  5  1  0
  4  6  1  0
  5  7  1  0
  6  8  1  0
  7  8  1  0
  8  9  1  0
  9 10  2  0
  9 11  1  0
 10 12  1  0
 11 13  2  0
 12 14  1  0
 12 15  2  0
 13 15  1  0
 14 16  1  0
 16 17  1  0
 17 18  1  0
 17 19  2  0
 18 20  1  6
 18 21  1  0
M  END
