diamond-x0438_0_A-mac-x0527
     RDKit          3D

 24 26  0  0  0  0  0  0  0  0999 V2000
   -8.1390   15.5570    3.8880 C   0  0  0  0  0  0  0  0  0  0  0  0
   -9.3620   15.3560    2.6010 S   0  0  0  0  0  0  0  0  0  0  0  0
  -10.5880   14.8660    3.2110 O   0  0  0  0  0  0  0  0  0  0  0  0
   -8.7550   14.0530    1.5470 C   0  0  0  0  0  0  0  0  0  0  0  0
   -9.4180   16.5580    1.8040 O   0  0  0  0  0  0  0  0  0  0  0  0
   -7.4100   14.3230    0.9670 C   0  0  0  0  0  0  0  0  0  0  0  0
   -7.2090   14.4820   -0.3800 N   0  0  0  0  0  0  0  0  0  0  0  0
   -6.2660   14.4300    1.6160 N   0  0  0  0  0  0  0  0  0  0  0  0
   -5.2960   14.6410    0.6630 C   0  0  0  0  0  0  0  0  0  0  0  0
   -5.8720   14.6760   -0.5960 C   0  0  0  0  0  0  0  0  0  0  0  0
   -5.1500   14.8690   -1.7650 C   0  0  0  0  0  0  0  0  0  0  0  0
   -3.9040   14.8070    0.7890 C   0  0  0  0  0  0  0  0  0  0  0  0
   -3.7680   15.0180   -1.6420 C   0  0  0  0  0  0  0  0  0  0  0  0
   -3.1470   14.9930   -0.3810 C   0  0  0  0  0  0  0  0  0  0  0  0
   -2.9530   15.1970   -2.8730 C   0  0  0  0  0  0  0  0  0  0  0  0
   -3.4690   15.7100   -3.8530 O   0  0  0  0  0  0  0  0  0  0  0  0
   -1.6500   14.7550   -2.8650 N   0  0  0  0  0  0  0  0  0  0  0  0
   -0.8480   14.8550   -4.0720 C   0  0  0  0  0  0  0  0  0  0  0  0
   -0.8480   13.5490   -4.8290 C   0  0  0  0  0  0  0  0  0  0  0  0
   -2.0290   12.8380   -5.0480 C   0  0  0  0  0  0  0  0  0  0  0  0
    0.3490   13.0210   -5.3300 C   0  0  0  0  0  0  0  0  0  0  0  0
   -2.0220   11.6200   -5.7340 C   0  0  0  0  0  0  0  0  0  0  0  0
    0.3550   11.8090   -6.0210 C   0  0  0  0  0  0  0  0  0  0  0  0
   -0.8280   11.1050   -6.2190 C   0  0  0  0  0  0  0  0  0  0  0  0
  2  1  1  0
  2  3  2  0
  2  4  1  0
  2  5  2  0
  4  6  1  0
  6  7  1  0
  6  8  2  0
  8  9  1  0
  7 10  1  0
  9 10  2  0
 10 11  1  0
  9 12  1  0
 11 13  2  0
 12 14  2  0
 13 14  1  0
 13 15  1  0
 15 16  2  0
 15 17  1  0
 17 18  1  0
 18 19  1  0
 19 20  2  0
 19 21  1  0
 20 22  1  0
 21 23  2  0
 22 24  2  0
 23 24  1  0
M  END
