diamond-x0895_0_A-diamond-x1018_0_A
     RDKit          3D

 16 18  0  0  0  0  0  0  0  0999 V2000
   -1.3120   14.5520    1.9930 O   0  0  0  0  0  0  0  0  0  0  0  0
   -2.3300   14.8550    1.4230 C   0  0  0  0  0  0  0  0  0  0  0  0
   -3.7030   15.1330    2.0160 C   0  0  0  0  0  0  0  0  0  0  0  0
   -2.4920   15.0270    0.0750 N   0  0  0  0  0  0  0  0  0  0  0  0
   -4.2820   15.9650    0.9710 N   0  0  0  0  0  0  0  0  0  0  0  0
   -3.8830   15.1270   -0.1080 C   0  0  1  0  0  0  0  0  0  0  0  0
   -4.3800   15.4780   -1.4170 N   0  0  0  0  0  0  0  0  0  0  0  0
   -3.4230   14.8510   -2.2890 N   0  0  0  0  0  0  0  0  0  0  0  0
   -5.3910   14.5630   -1.5260 N   0  0  0  0  0  0  0  0  0  0  0  0
   -3.3240   13.5510   -1.6090 N   0  0  0  0  0  0  0  0  0  0  0  0
   -4.6860   13.3930   -1.0270 C   0  0  1  0  0  0  0  0  0  0  0  0
   -6.6540   14.8570   -1.0690 N   0  0  0  0  0  0  0  0  0  0  0  0
   -6.8790   14.5380    0.1790 C   0  0  0  0  0  0  0  0  0  0  0  0
   -4.8080   13.3650    0.4730 C   0  0  0  0  0  0  0  0  0  0  0  0
   -8.4690   14.8430    0.7820 Cl  0  0  0  0  0  0  0  0  0  0  0  0
   -5.8760   13.9220    1.0750 C   0  0  0  0  0  0  0  0  0  0  0  0
  1  2  2  0
  2  3  1  0
  2  4  1  0
  3  5  1  0
  4  6  1  0
  5  6  1  0
  6  7  1  6
  7  8  1  0
  7  9  1  0
  8 10  1  0
  9 11  1  0
 10 11  1  0
  9 12  1  0
 12 13  2  0
 11 14  1  1
 13 15  1  0
 13 16  1  0
 14 16  2  0
M  END
