diamond-x0438_0_A-mac-x0161
     RDKit          3D

 26 29  0  0  0  0  0  0  0  0999 V2000
   -7.9820   15.3700    3.7100 C   0  0  0  0  0  0  0  0  0  0  0  0
   -9.1920   15.2290    2.4080 S   0  0  0  0  0  0  0  0  0  0  0  0
  -10.3880   14.6260    2.9800 O   0  0  0  0  0  0  0  0  0  0  0  0
   -8.5340   14.0920    1.1880 C   0  0  0  0  0  0  0  0  0  0  0  0
   -9.3500   16.5130    1.7630 O   0  0  0  0  0  0  0  0  0  0  0  0
   -7.1220   14.3480    0.7380 C   0  0  0  0  0  0  0  0  0  0  0  0
   -6.7720   14.6190   -0.5790 N   0  0  0  0  0  0  0  0  0  0  0  0
   -6.0440   14.3380    1.4930 N   0  0  0  0  0  0  0  0  0  0  0  0
   -4.9810   14.5910    0.6540 C   0  0  0  0  0  0  0  0  0  0  0  0
   -5.3950   14.7710   -0.6300 C   0  0  0  0  0  0  0  0  0  0  0  0
   -4.5310   15.0590   -1.8190 C   0  0  0  0  0  0  0  0  0  0  0  0
   -3.5670   14.6530    1.0970 C   0  0  0  0  0  0  0  0  0  0  0  0
   -3.0050   15.3610   -1.4850 C   0  0  1  0  0  0  0  0  0  0  0  0
   -2.4930   14.9120   -0.0440 C   0  0  1  0  0  0  0  0  0  0  0  0
   -1.9630   15.1280   -2.6880 C   0  0  0  0  0  0  0  0  0  0  0  0
   -1.5030   15.8760    0.5710 N   0  0  0  0  0  0  0  0  0  0  0  0
   -1.5370   13.7380   -0.2400 C   0  0  0  0  0  0  0  0  0  0  0  0
   -1.4340   13.7700   -3.1620 C   0  0  0  0  0  0  0  0  0  0  0  0
   -0.2280   14.3260   -0.4000 N   0  0  0  0  0  0  0  0  0  0  0  0
   -0.2490   15.1600    0.7490 C   0  0  0  0  0  0  0  0  0  0  0  0
   -1.7430   12.9090   -4.2120 C   0  0  0  0  0  0  0  0  0  0  0  0
   -0.4060   13.1890   -2.4500 O   0  0  0  0  0  0  0  0  0  0  0  0
   -0.0460   11.9650   -3.0170 N   0  0  0  0  0  0  0  0  0  0  0  0
   -0.8550   11.8150   -4.0670 C   0  0  0  0  0  0  0  0  0  0  0  0
   -0.7780   10.7130   -4.8620 O   0  0  0  0  0  0  0  0  0  0  0  0
   -1.7910   10.6160   -5.8620 C   0  0  0  0  0  0  0  0  0  0  0  0
  2  1  1  0
  2  3  2  0
  2  4  1  0
  2  5  2  0
  4  6  1  0
  6  7  1  0
  6  8  2  0
  8  9  1  0
  7 10  1  0
  9 10  2  0
 10 11  1  0
  9 12  1  0
 11 13  1  0
 14 12  1  1
 13 14  1  0
 13 15  1  6
 14 16  1  0
 14 17  1  0
 15 18  1  0
 17 19  1  0
 16 20  1  0
 19 20  1  0
 18 21  2  0
 18 22  1  0
 22 23  1  0
 21 24  1  0
 23 24  2  0
 24 25  1  0
 25 26  1  0
M  END
