diamond-x0855_0_A-mac-x0394
     RDKit          3D

 18 19  0  0  0  0  0  0  0  0999 V2000
    2.0880   13.1120   -2.9150 O   0  0  0  0  0  0  0  0  0  0  0  0
    1.0710   12.2660   -3.1600 C   0  0  0  0  0  0  0  0  0  0  0  0
   -0.0820   12.7970   -3.9540 C   0  0  2  0  0  0  0  0  0  0  0  0
    1.0750   11.1340   -2.7270 O   0  0  0  0  0  0  0  0  0  0  0  0
   -0.7280   11.8080   -4.8170 N   0  0  0  0  0  0  0  0  0  0  0  0
   -0.2970   14.2500   -4.3740 C   0  0  0  0  0  0  0  0  0  0  0  0
   -0.2680   11.0210   -5.8460 C   0  0  0  0  0  0  0  0  0  0  0  0
   -2.0390   11.6100   -4.5530 N   0  0  0  0  0  0  0  0  0  0  0  0
   -1.5690   14.4660   -4.8750 C   0  0  0  0  0  0  0  0  0  0  0  0
    0.5920   15.3680   -4.3020 C   0  0  0  0  0  0  0  0  0  0  0  0
   -1.3590   10.2790   -6.2360 C   0  0  0  0  0  0  0  0  0  0  0  0
   -2.4130   10.6780   -5.4190 C   0  0  0  0  0  0  0  0  0  0  0  0
   -1.9950   15.6950   -5.2910 C   0  0  0  0  0  0  0  0  0  0  0  0
    0.1100   16.6320   -4.7380 C   0  0  0  0  0  0  0  0  0  0  0  0
   -1.4950    8.9800   -7.5660 Br  0  0  0  0  0  0  0  0  0  0  0  0
    1.0380   18.0630   -4.7010 Cl  0  0  0  0  0  0  0  0  0  0  0  0
   -3.5860   15.8150   -5.8930 Cl  0  0  0  0  0  0  0  0  0  0  0  0
   -1.1700   16.7920   -5.2280 C   0  0  0  0  0  0  0  0  0  0  0  0
  1  2  1  0
  3  2  1  6
  2  4  2  0
  3  5  1  0
  3  6  1  0
  5  7  1  0
  5  8  1  0
  6  9  2  0
  6 10  1  0
  7 11  2  0
  8 12  2  0
 11 12  1  0
  9 13  1  0
 10 14  2  0
 11 15  1  0
 14 16  1  0
 13 17  1  0
 13 18  2  0
 14 18  1  0
M  END
