diamond-x0926_0_A-mac-x0392
     RDKit          3D

 11 11  0  0  0  0  0  0  0  0999 V2000
   -6.2540   15.1310   -0.7860 O   0  0  0  0  0  0  0  0  0  0  0  0
   -5.0440   15.1890   -0.5640 C   0  0  0  0  0  0  0  0  0  0  0  0
   -4.5430   15.1460    0.8240 C   0  0  0  0  0  0  0  0  0  0  0  0
   -4.0820   15.2910   -1.5580 N   0  0  0  0  0  0  0  0  0  0  0  0
   -2.6820   15.0430   -1.3130 N   0  0  0  0  0  0  0  0  0  0  0  0
   -3.2260   15.2400    1.0660 C   0  0  0  0  0  0  0  0  0  0  0  0
   -1.8400   14.8540   -2.4100 C   0  0  0  0  0  0  0  0  0  0  0  0
   -2.1790   15.4010    0.0010 C   0  0  1  0  0  0  0  0  0  0  0  0
   -0.9980   14.5800    0.2950 N   0  0  0  0  0  0  0  0  0  0  0  0
   -2.1830   14.6850   -3.5690 O   0  0  0  0  0  0  0  0  0  0  0  0
   -0.5120   14.8680   -2.1320 O   0  0  0  0  0  0  0  0  0  0  0  0
  1  2  2  0
  2  3  1  0
  2  4  1  0
  4  5  1  0
  3  6  2  0
  5  7  1  0
  5  8  1  0
  6  8  1  0
  8  9  1  1
  7 10  2  0
  7 11  1  0
M  END
