diamond-x0766_0_A-diamond-x0910_0_A
     RDKit          3D

 19 21  0  0  0  0  0  0  0  0999 V2000
    0.5920   12.2160   -2.9680 C   0  0  0  0  0  0  0  0  0  0  0  0
   -0.0810   11.0470   -2.9860 O   0  0  0  0  0  0  0  0  0  0  0  0
    1.4930   12.3720   -2.1720 O   0  0  0  0  0  0  0  0  0  0  0  0
    0.0980   13.2260   -3.9850 C   0  0  2  0  0  0  0  0  0  0  0  0
    1.2450   13.6630   -4.9150 C   0  0  0  0  0  0  0  0  0  0  0  0
   -0.3200   14.4840   -3.1940 C   0  0  1  0  0  0  0  0  0  0  0  0
    1.5080   15.1370   -4.6100 C   0  0  0  0  0  0  0  0  0  0  0  0
    0.2450   15.6610   -3.9760 C   0  0  0  0  0  0  0  0  0  0  0  0
   -1.7990   14.6300   -2.8430 C   0  0  0  0  0  0  0  0  0  0  0  0
   -2.4360   14.0020   -1.8210 C   0  0  0  0  0  0  0  0  0  0  0  0
   -2.7450   15.4380   -3.4850 C   0  0  0  0  0  0  0  0  0  0  0  0
   -1.9530   13.2020   -0.9520 N   0  0  0  0  0  0  0  0  0  0  0  0
   -3.9910   15.3590   -2.9010 C   0  0  0  0  0  0  0  0  0  0  0  0
   -4.0830   14.3380   -1.6000 S   0  0  0  0  0  0  0  0  0  0  0  0
   -1.2610   13.9070   -0.1260 C   0  0  0  0  0  0  0  0  0  0  0  0
   -1.8140   14.2680    1.0430 N   0  0  0  0  0  0  0  0  0  0  0  0
   -0.0560   14.3810   -0.2370 N   0  0  0  0  0  0  0  0  0  0  0  0
   -0.9660   14.9890    1.7220 N   0  0  0  0  0  0  0  0  0  0  0  0
    0.0880   15.0420    0.9170 C   0  0  0  0  0  0  0  0  0  0  0  0
  1  2  1  0
  1  3  2  0
  4  1  1  1
  4  5  1  0
  4  6  1  0
  5  7  1  0
  6  8  1  0
  7  8  1  0
  6  9  1  6
  9 10  2  0
  9 11  1  0
 10 12  1  0
 11 13  2  0
 10 14  1  0
 13 14  1  0
 12 15  1  0
 15 16  1  0
 15 17  2  0
 16 18  1  0
 17 19  1  0
 18 19  2  0
M  END
