diamond-x0685_0_A-mac-x0139
     RDKit          3D

 22 24  0  0  0  0  0  0  0  0999 V2000
   -5.9820   14.9860    2.2750 N   0  0  0  0  0  0  0  0  0  0  0  0
   -7.4160   14.6790    2.3090 C   0  0  0  0  0  0  0  0  0  0  0  0
   -7.6550   13.3350    2.9960 C   0  0  0  0  0  0  0  0  0  0  0  0
   -5.2550   14.9380    1.0110 C   0  0  1  0  0  0  0  0  0  0  0  0
   -3.9460   14.0950    0.7780 C   0  0  0  0  0  0  0  0  0  0  0  0
   -6.2240   14.7150   -0.0090 N   0  0  0  0  0  0  0  0  0  0  0  0
   -3.1150   14.8990   -0.3050 C   0  0  2  0  0  0  0  0  0  0  0  0
   -5.5220   14.6200   -1.2800 C   0  0  0  0  0  0  0  0  0  0  0  0
   -4.1690   15.3700   -1.3640 C   0  0  2  0  0  0  0  0  0  0  0  0
   -1.6760   14.5900   -0.9030 C   0  0  2  0  0  0  0  0  0  0  0  0
   -2.5110   15.9340    0.6050 C   0  0  0  0  0  0  0  0  0  0  0  0
   -3.7310   15.3350   -2.7940 C   0  0  0  0  0  0  0  0  0  0  0  0
   -1.5240   14.4720   -2.3750 N   0  0  0  0  0  0  0  0  0  0  0  0
   -1.7160   15.2230    1.6200 N   0  0  0  0  0  0  0  0  0  0  0  0
   -0.8740   13.7980   -0.0020 N   0  0  0  0  0  0  0  0  0  0  0  0
   -2.5370   14.9220   -3.1930 C   0  0  0  0  0  0  0  0  0  0  0  0
   -0.1390   14.7610   -2.8390 C   0  0  0  0  0  0  0  0  0  0  0  0
   -0.5030   14.6310    1.1060 C   0  0  0  0  0  0  0  0  0  0  0  0
    0.3270   13.6950   -3.8280 C   0  0  0  0  0  0  0  0  0  0  0  0
    0.9550   12.5390   -3.1010 C   0  0  0  0  0  0  0  0  0  0  0  0
    1.7100   12.6380   -2.1540 O   0  0  0  0  0  0  0  0  0  0  0  0
    0.5860   11.3460   -3.6100 O   0  0  0  0  0  0  0  0  0  0  0  0
  1  2  1  0
  2  3  1  0
  4  1  1  1
  4  5  1  0
  4  6  1  0
  7  5  1  1
  6  8  1  0
  7  9  1  0
  9  8  1  6
  7 10  1  0
  7 11  1  0
  9 12  1  0
 10 13  1  0
 11 14  1  0
 10 15  1  1
 12 16  2  0
 13 16  1  0
 13 17  1  0
 14 18  1  0
 15 18  1  0
 17 19  1  0
 19 20  1  0
 20 21  2  0
 20 22  1  0
M  END
