diamond-x0104_0_A-diamond-x0685_0_A
     RDKit          3D

 18 19  0  0  0  0  0  0  0  0999 V2000
   -6.6590   14.9640    2.6760 N   0  0  0  0  0  0  0  0  0  0  0  0
   -7.9450   14.6630    3.2160 C   0  0  1  0  0  0  0  0  0  0  0  0
   -8.0780   15.1270    4.5610 N   0  0  0  0  0  0  0  0  0  0  0  0
   -6.1750   14.8520    1.3800 C   0  0  0  0  0  0  0  0  0  0  0  0
   -8.9550   15.2650    2.4430 O   0  0  0  0  0  0  0  0  0  0  0  0
   -8.1510   13.1480    3.1520 C   0  0  0  0  0  0  0  0  0  0  0  0
   -4.8220   14.8750    1.0510 C   0  0  0  0  0  0  0  0  0  0  0  0
   -7.0620   14.7220    0.3040 C   0  0  0  0  0  0  0  0  0  0  0  0
   -4.3140   14.7860   -0.2010 N   0  0  0  0  0  0  0  0  0  0  0  0
   -6.5780   14.6330   -0.9990 C   0  0  0  0  0  0  0  0  0  0  0  0
   -9.1890   15.0970    5.3420 C   0  0  0  0  0  0  0  0  0  0  0  0
   -5.2110   14.6720   -1.1970 C   0  0  0  0  0  0  0  0  0  0  0  0
   -9.3130   15.1890    6.7140 C   0  0  0  0  0  0  0  0  0  0  0  0
  -10.7360   14.9180    4.6060 S   0  0  0  0  0  0  0  0  0  0  0  0
   -4.7810   14.5820   -2.5010 O   0  0  0  0  0  0  0  0  0  0  0  0
  -11.5450   14.9650    6.1090 C   0  0  0  0  0  0  0  0  0  0  0  0
  -10.6700   15.1130    7.1590 C   0  0  0  0  0  0  0  0  0  0  0  0
   -3.4660   15.0890   -2.6840 C   0  0  0  0  0  0  0  0  0  0  0  0
  1  2  1  0
  2  3  1  0
  1  4  1  0
  2  5  1  0
  2  6  1  1
  4  7  2  0
  4  8  1  0
  7  9  1  0
  8 10  2  0
  3 11  1  0
  9 12  2  0
 10 12  1  0
 11 13  2  0
 11 14  1  0
 12 15  1  0
 14 16  1  0
 13 17  1  0
 16 17  2  0
 15 18  1  0
M  END
