diamond-x0742_0_A-mac-x0138
     RDKit          3D

 22 25  0  0  0  0  0  0  0  0999 V2000
   -5.6270   12.5480   -0.4830 C   0  0  0  0  0  0  0  0  0  0  0  0
   -6.4310   11.7500    0.5010 C   0  0  0  0  0  0  0  0  0  0  0  0
   -5.0520   11.9500   -1.4090 O   0  0  0  0  0  0  0  0  0  0  0  0
   -5.5450   14.1000   -0.3620 C   0  0  2  0  0  0  0  0  0  0  0  0
   -5.4280   14.8420    0.9560 C   0  0  1  0  0  0  0  0  0  0  0  0
   -6.9470   14.6310   -0.7550 C   0  0  0  0  0  0  0  0  0  0  0  0
   -4.4220   14.6280   -1.2370 C   0  0  0  0  0  0  0  0  0  0  0  0
   -6.7110   14.4850    1.6860 C   0  0  0  0  0  0  0  0  0  0  0  0
   -3.0640   14.4460   -0.5160 C   0  0  1  0  0  0  0  0  0  0  0  0
   -4.1110   14.8900    1.6790 C   0  0  0  0  0  0  0  0  0  0  0  0
   -7.7530   14.5610    0.5600 C   0  0  0  0  0  0  0  0  0  0  0  0
   -1.7900   14.5770   -1.3660 C   0  0  2  0  0  0  0  0  0  0  0  0
   -2.9750   15.3240    0.7250 C   0  0  1  0  0  0  0  0  0  0  0  0
   -1.8080   14.9320    1.4480 N   0  0  0  0  0  0  0  0  0  0  0  0
   -0.5440   14.3910   -0.5130 C   0  0  0  0  0  0  0  0  0  0  0  0
   -1.7190   15.7310   -2.2600 N   0  0  0  0  0  0  0  0  0  0  0  0
   -1.9590   13.5790   -2.4740 C   0  0  0  0  0  0  0  0  0  0  0  0
   -2.4220   13.9540    2.1550 N   0  0  0  0  0  0  0  0  0  0  0  0
   -0.5550   15.8110   -3.1200 C   0  0  0  0  0  0  0  0  0  0  0  0
   -0.6260   14.5740    0.8090 C   0  0  0  0  0  0  0  0  0  0  0  0
   -2.9300   15.6070   -3.0350 C   0  0  0  0  0  0  0  0  0  0  0  0
   -3.0920   14.1720   -3.2100 N   0  0  0  0  0  0  0  0  0  0  0  0
  1  2  1  0
  1  3  2  0
  4  1  1  1
  4  5  1  0
  4  6  1  0
  4  7  1  0
  5  8  1  1
  9  7  1  6
  5 10  1  0
  6 11  1  0
  8 11  1  0
  9 12  1  0
  9 13  1  0
 13 10  1  1
 13 14  1  0
 12 15  1  1
 12 16  1  0
 12 17  1  0
 14 18  1  0
 16 19  1  0
 14 20  1  0
 15 20  2  0
 16 21  1  0
 17 22  1  0
 21 22  1  0
M  END
