diamond-x0933_0_A-mac-x0392
     RDKit          3D

 11 11  0  0  0  0  0  0  0  0999 V2000
   -5.5960   14.9760    1.7360 N   0  0  0  0  0  0  0  0  0  0  0  0
   -4.6430   14.5300    0.7880 C   0  0  2  0  0  0  0  0  0  0  0  0
   -3.3640   15.0710    1.1910 N   0  0  0  0  0  0  0  0  0  0  0  0
   -5.0460   15.1070   -0.4520 N   0  0  0  0  0  0  0  0  0  0  0  0
   -4.0740   14.9360   -1.5450 C   0  0  0  0  0  0  0  0  0  0  0  0
   -2.3800   14.6420    0.2050 C   0  0  2  0  0  0  0  0  0  0  0  0
   -1.0370   14.9650    0.7030 N   0  0  0  0  0  0  0  0  0  0  0  0
   -2.6330   15.3050   -1.1430 C   0  0  1  0  0  0  0  0  0  0  0  0
   -1.6260   14.8890   -2.2330 C   0  0  0  0  0  0  0  0  0  0  0  0
   -1.9490   14.5300   -3.3580 O   0  0  0  0  0  0  0  0  0  0  0  0
   -0.3130   14.9410   -1.8830 O   0  0  0  0  0  0  0  0  0  0  0  0
  2  1  1  1
  2  3  1  0
  2  4  1  0
  4  5  1  0
  3  6  1  0
  6  7  1  1
  5  8  1  0
  6  8  1  0
  8  9  1  6
  9 10  2  0
  9 11  1  0
M  END
