diamond-x0727_0_A-mac-x0212
     RDKit          3D

 28 29  0  0  0  0  0  0  0  0999 V2000
    0.1810   11.4080   -5.5420 N   0  0  0  0  0  0  0  0  0  0  0  0
    0.9710   12.3010   -4.6950 C   0  0  1  0  0  0  0  0  0  0  0  0
    0.6380   13.7460   -5.0150 C   0  0  0  0  0  0  0  0  0  0  0  0
    0.7170   11.0920   -6.7680 C   0  0  0  0  0  0  0  0  0  0  0  0
    1.6500   11.7160   -7.2030 O   0  0  0  0  0  0  0  0  0  0  0  0
    0.7290   11.9220   -3.2150 C   0  0  0  0  0  0  0  0  0  0  0  0
    0.0870    9.9110   -7.4870 C   0  0  0  0  0  0  0  0  0  0  0  0
    0.1940   10.8710   -2.8770 O   0  0  0  0  0  0  0  0  0  0  0  0
    1.1970   12.8730   -2.3460 O   0  0  0  0  0  0  0  0  0  0  0  0
   -1.2120   10.2890   -8.2110 C   0  0  0  0  0  0  0  0  0  0  0  0
   -0.2670    8.7440   -6.5480 C   0  0  0  0  0  0  0  0  0  0  0  0
    0.2750   13.9350   -2.0280 C   0  0  0  0  0  0  0  0  0  0  0  0
   -2.1390    9.1000   -8.0030 C   0  0  0  0  0  0  0  0  0  0  0  0
   -1.7750    8.5960   -6.6180 C   0  0  0  0  0  0  0  0  0  0  0  0
   -0.5690   14.3480   -3.1340 N   0  0  0  0  0  0  0  0  0  0  0  0
   -1.7990   14.7100   -3.1080 C   0  0  0  0  0  0  0  0  0  0  0  0
   -2.4550   15.0620   -4.2260 O   0  0  0  0  0  0  0  0  0  0  0  0
   -2.6910   14.8020   -1.9280 C   0  0  0  0  0  0  0  0  0  0  0  0
   -2.2810   14.5180   -0.6200 C   0  0  0  0  0  0  0  0  0  0  0  0
   -4.0170   15.1950   -2.1520 C   0  0  0  0  0  0  0  0  0  0  0  0
   -3.1830   14.6150    0.4420 C   0  0  0  0  0  0  0  0  0  0  0  0
   -4.9180   15.2960   -1.0910 C   0  0  0  0  0  0  0  0  0  0  0  0
   -4.4990   14.9970    0.2110 C   0  0  0  0  0  0  0  0  0  0  0  0
   -5.4350   15.0840    1.2830 N   0  0  0  0  0  0  0  0  0  0  0  0
   -6.9730   14.4350    1.0440 S   0  0  0  0  0  0  0  0  0  0  0  0
   -6.6270   12.6900    1.1730 C   0  0  0  0  0  0  0  0  0  0  0  0
   -7.8550   14.8330    2.1170 O   0  0  0  0  0  0  0  0  0  0  0  0
   -7.3310   14.7050   -0.3330 O   0  0  0  0  0  0  0  0  0  0  0  0
  1  2  1  0
  2  3  1  1
  1  4  1  0
  4  5  2  0
  2  6  1  0
  4  7  1  0
  6  8  2  0
  6  9  1  0
  7 10  1  0
  7 11  1  0
  9 12  1  0
 10 13  1  0
 11 14  1  0
 13 14  1  0
 12 15  1  0
 15 16  2  3
 16 17  1  0
 16 18  1  0
 18 19  2  0
 18 20  1  0
 19 21  1  0
 20 22  2  0
 21 23  2  0
 22 23  1  0
 23 24  1  0
 25 24  1  0
 25 26  1  0
 25 27  2  0
 25 28  2  0
M  END
