diamond-x0471_0_A-mac-x0365
     RDKit          3D

 21 22  0  0  0  0  0  0  0  0999 V2000
   -8.9620   13.9450    2.8440 N   0  0  0  0  0  0  0  0  0  0  0  0
   -8.9910   14.9300    3.8020 C   0  0  0  0  0  0  0  0  0  0  0  0
   -9.2460   16.1070    3.5480 O   0  0  0  0  0  0  0  0  0  0  0  0
   -8.9240   14.2760    1.4360 C   0  0  0  0  0  0  0  0  0  0  0  0
   -8.7050   14.4520    5.2190 C   0  0  0  0  0  0  0  0  0  0  0  0
   -7.4960   14.4800    0.9830 C   0  0  0  0  0  0  0  0  0  0  0  0
   -9.8980   13.6710    5.7620 C   0  0  0  0  0  0  0  0  0  0  0  0
   -8.3180   15.6010    6.1420 C   0  0  0  0  0  0  0  0  0  0  0  0
   -7.2020   14.4370   -0.3710 N   0  0  0  0  0  0  0  0  0  0  0  0
   -6.5070   14.7280    1.7990 N   0  0  0  0  0  0  0  0  0  0  0  0
   -5.4280   14.8230    0.9750 C   0  0  0  0  0  0  0  0  0  0  0  0
   -5.9250   14.6830   -0.3750 C   0  0  0  0  0  0  0  0  0  0  0  0
   -5.0430   14.8710   -1.5530 C   0  0  2  0  0  0  0  0  0  0  0  0
   -4.1230   14.9980    1.2040 C   0  0  0  0  0  0  0  0  0  0  0  0
   -5.5090   16.1150   -1.9340 O   0  0  0  0  0  0  0  0  0  0  0  0
   -5.3730   14.0810   -2.6030 F   0  0  0  0  0  0  0  0  0  0  0  0
   -3.5770   14.9320   -1.1780 C   0  0  0  0  0  0  0  0  0  0  0  0
   -3.1770   15.0070    0.1090 C   0  0  0  0  0  0  0  0  0  0  0  0
   -2.4680   14.8950   -2.1740 C   0  0  0  0  0  0  0  0  0  0  0  0
   -1.2360   14.8280   -1.6130 O   0  0  0  0  0  0  0  0  0  0  0  0
   -2.6150   14.9120   -3.3870 O   0  0  0  0  0  0  0  0  0  0  0  0
  1  2  1  0
  2  3  2  0
  1  4  1  0
  2  5  1  0
  4  6  1  0
  5  7  1  0
  5  8  1  0
  6  9  1  0
  6 10  2  0
 10 11  1  0
  9 12  2  0
 11 12  1  0
 12 13  1  0
 11 14  2  0
 13 15  1  6
 13 16  1  0
 13 17  1  0
 14 18  1  0
 17 18  2  0
 17 19  1  0
 19 20  1  0
 19 21  2  0
M  END
