diamond-x0628_0_A-mac-x0509
     RDKit          3D

 23 25  0  0  0  0  0  0  0  0999 V2000
   -1.2290   11.1790   -8.1530 C   0  0  0  0  0  0  0  0  0  0  0  0
   -0.8270   10.7970   -6.7330 C   0  0  2  0  0  0  0  0  0  0  0  0
   -1.8880   10.7760   -5.6990 N   0  0  0  0  0  0  0  0  0  0  0  0
    0.2000   11.7370   -6.2890 N   0  0  0  0  0  0  0  0  0  0  0  0
   -2.2510    9.4640   -5.1550 C   0  0  0  0  0  0  0  0  0  0  0  0
   -0.5930   12.7040   -5.5550 N   0  0  0  0  0  0  0  0  0  0  0  0
   -1.4350   11.8020   -4.7330 C   0  0  1  0  0  0  0  0  0  0  0  0
   -2.4870   12.5940   -3.9480 C   0  0  0  0  0  0  0  0  0  0  0  0
    0.3310   13.6080   -4.8320 C   0  0  0  0  0  0  0  0  0  0  0  0
   -1.2090    8.4870   -5.4330 N   0  0  0  0  0  0  0  0  0  0  0  0
    1.5630   12.9120   -4.2830 C   0  0  0  0  0  0  0  0  0  0  0  0
   -1.0290    8.1510   -6.6530 C   0  0  0  0  0  0  0  0  0  0  0  0
    1.2560   12.3720   -2.9110 C   0  0  0  0  0  0  0  0  0  0  0  0
   -1.7950    8.6400   -7.8920 C   0  0  0  0  0  0  0  0  0  0  0  0
   -0.0690    7.2960   -7.1260 N   0  0  0  0  0  0  0  0  0  0  0  0
    0.5970   11.3650   -2.6930 O   0  0  0  0  0  0  0  0  0  0  0  0
    1.7810   13.1180   -1.9190 O   0  0  0  0  0  0  0  0  0  0  0  0
   -0.5960    8.7690   -8.7940 C   0  0  0  0  0  0  0  0  0  0  0  0
    0.4090    7.9240   -8.2810 C   0  0  0  0  0  0  0  0  0  0  0  0
   -0.3960    9.5330   -9.9320 C   0  0  0  0  0  0  0  0  0  0  0  0
    1.6270    7.8230   -8.9070 C   0  0  0  0  0  0  0  0  0  0  0  0
    0.8420    9.4390  -10.5620 C   0  0  0  0  0  0  0  0  0  0  0  0
    1.8450    8.5920  -10.0590 C   0  0  0  0  0  0  0  0  0  0  0  0
  2  1  1  6
  2  3  1  0
  2  4  1  0
  3  5  1  0
  4  6  1  0
  3  7  1  0
  6  7  1  0
  7  8  1  6
  6  9  1  0
  5 10  1  0
  9 11  1  0
 10 12  2  3
 11 13  1  0
 12 14  1  0
 12 15  1  0
 13 16  2  0
 13 17  1  0
 14 18  1  0
 15 19  1  0
 18 19  2  0
 18 20  1  0
 19 21  1  0
 20 22  2  0
 21 23  2  0
 22 23  1  0
M  END
