diamond-x0933_0_A-mac-x0348
     RDKit          3D

 25 27  0  0  0  0  0  0  0  0999 V2000
   -6.1610   14.7230    1.8150 N   0  0  0  0  0  0  0  0  0  0  0  0
   -5.2920   14.2510    0.7800 C   0  0  2  0  0  0  0  0  0  0  0  0
   -3.9690   14.3680    1.2740 N   0  0  0  0  0  0  0  0  0  0  0  0
   -5.5130   14.9710   -0.4170 N   0  0  0  0  0  0  0  0  0  0  0  0
   -4.3960   15.1220   -1.3350 C   0  0  0  0  0  0  0  0  0  0  0  0
   -3.2420   15.5530    0.8540 C   0  0  0  0  0  0  0  0  0  0  0  0
   -3.0840   15.5280   -0.6610 C   0  0  1  0  0  0  0  0  0  0  0  0
   -1.8910   14.7120   -1.1220 C   0  0  0  0  0  0  0  0  0  0  0  0
   -0.6750   15.6060   -1.4040 C   0  0  0  0  0  0  0  0  0  0  0  0
    0.5610   14.8020   -1.7940 C   0  0  0  0  0  0  0  0  0  0  0  0
    0.8210   14.5910   -3.3090 C   0  0  1  0  0  0  0  0  0  0  0  0
    0.5550   13.1400   -3.7760 C   0  0  0  0  0  0  0  0  0  0  0  0
    0.1330   15.6250   -4.2010 C   0  0  0  0  0  0  0  0  0  0  0  0
    0.4790   12.1870   -2.6060 C   0  0  0  0  0  0  0  0  0  0  0  0
    0.7700   16.7440   -4.6520 C   0  0  0  0  0  0  0  0  0  0  0  0
   -1.1970   15.6990   -4.7510 C   0  0  0  0  0  0  0  0  0  0  0  0
    0.6690   12.4750   -1.4320 O   0  0  0  0  0  0  0  0  0  0  0  0
    0.1710   10.9330   -2.9790 O   0  0  0  0  0  0  0  0  0  0  0  0
   -0.0520   17.4740   -5.4390 N   0  0  0  0  0  0  0  0  0  0  0  0
   -1.2760   16.8740   -5.5170 C   0  0  0  0  0  0  0  0  0  0  0  0
   -2.3320   14.8770   -4.6720 C   0  0  0  0  0  0  0  0  0  0  0  0
    0.3500   18.7000   -6.0790 C   0  0  0  0  0  0  0  0  0  0  0  0
   -3.4960   15.2370   -5.3420 C   0  0  0  0  0  0  0  0  0  0  0  0
   -2.4440   17.2480   -6.1930 C   0  0  0  0  0  0  0  0  0  0  0  0
   -3.5420   16.3960   -6.0820 C   0  0  0  0  0  0  0  0  0  0  0  0
  2  1  1  1
  2  3  1  0
  2  4  1  0
  4  5  1  0
  3  6  1  0
  5  7  1  0
  6  7  1  0
  7  8  1  1
  8  9  1  0
  9 10  1  0
 11 10  1  1
 11 12  1  0
 11 13  1  0
 12 14  1  0
 13 15  2  0
 13 16  1  0
 14 17  2  0
 14 18  1  0
 15 19  1  0
 16 20  2  0
 19 20  1  0
 16 21  1  0
 19 22  1  0
 21 23  2  0
 20 24  1  0
 23 25  1  0
 24 25  2  0
M  END
