diamond-x0592_0_A-mac-x1493
     RDKit          3D

 18 19  0  0  0  0  0  0  0  0999 V2000
   -2.7960   14.9100    1.1250 N   0  0  0  0  0  0  0  0  0  0  0  0
   -3.2790   14.8360   -0.1090 C   0  0  0  0  0  0  0  0  0  0  0  0
   -2.5860   14.8030   -1.1300 C   0  0  0  0  0  0  0  0  0  0  0  0
   -4.7450   14.8000   -0.2630 C   0  0  2  0  0  0  0  0  0  0  0  0
   -1.1670   14.7460   -1.6290 O   0  0  0  0  0  0  0  0  0  0  0  0
   -2.1450   14.9570   -3.5270 O   0  0  0  0  0  0  0  0  0  0  0  0
   -5.6630   14.6200    0.7510 C   0  0  0  0  0  0  0  0  0  0  0  0
   -4.9550   15.0160    1.8430 C   0  0  0  0  0  0  0  0  0  0  0  0
   -6.0410   14.8000   -0.3120 C   0  0  0  0  0  0  0  0  0  0  0  0
   -5.5320   15.0020   -1.4090 C   0  0  0  0  0  0  0  0  0  0  0  0
   -6.8820   14.7270    0.1940 C   0  0  0  0  0  0  0  0  0  0  0  0
   -6.1900   14.9380    2.4580 C   0  0  0  0  0  0  0  0  0  0  0  0
   -8.1820   14.6030    0.8460 C   0  0  0  0  0  0  0  0  0  0  0  0
   -6.8240   14.9760   -1.1360 N   0  0  0  0  0  0  0  0  0  0  0  0
   -7.3430   14.7500    1.7180 C   0  0  0  0  0  0  0  0  0  0  0  0
   -6.1780   14.9890   -1.2720 C   0  0  0  0  0  0  0  0  0  0  0  0
   -8.0340   14.1320    2.2700 C   0  0  0  0  0  0  0  0  0  0  0  0
   -7.3640   15.1080    3.0660 O   0  0  0  0  0  0  0  0  0  0  0  0
  1  2  1  0
  2  3  1  0
  4  2  1  0
  3  5  1  0
  3  6  2  0
  4  7  1  1
  4  8  1  0
  4  9  1  0
  9 10  1  0
  9 11  1  0
  8 12  1  0
 11 13  1  0
 11 14  1  0
 11 15  1  0
 12 15  2  0
 10 16  2  0
 14 16  1  0
 13 17  1  0
 17 18  1  0
M  END
