diamond-x0438_0_A-mac-x0394
     RDKit          3D

 28 30  0  0  0  0  0  0  0  0999 V2000
   -8.2120   15.6240    3.9280 C   0  0  0  0  0  0  0  0  0  0  0  0
   -9.4170   15.3850    2.6250 S   0  0  0  0  0  0  0  0  0  0  0  0
  -10.6420   14.9050    3.2520 O   0  0  0  0  0  0  0  0  0  0  0  0
   -8.7950   14.0450    1.6410 C   0  0  0  0  0  0  0  0  0  0  0  0
   -9.4880   16.5660    1.7900 O   0  0  0  0  0  0  0  0  0  0  0  0
   -7.4840   14.3420    1.0320 C   0  0  0  0  0  0  0  0  0  0  0  0
   -7.3290   14.5460   -0.3140 N   0  0  0  0  0  0  0  0  0  0  0  0
   -6.3290   14.4360    1.6540 N   0  0  0  0  0  0  0  0  0  0  0  0
   -5.3900   14.6900    0.6860 C   0  0  0  0  0  0  0  0  0  0  0  0
   -6.0060   14.7610   -0.5500 C   0  0  0  0  0  0  0  0  0  0  0  0
   -5.3320   14.9990   -1.7300 C   0  0  0  0  0  0  0  0  0  0  0  0
   -3.9990   14.8680    0.7750 C   0  0  0  0  0  0  0  0  0  0  0  0
   -3.9560   15.1600   -1.6500 C   0  0  0  0  0  0  0  0  0  0  0  0
   -3.2900   15.1000   -0.4120 C   0  0  0  0  0  0  0  0  0  0  0  0
   -3.2360   15.3900   -2.9400 C   0  0  0  0  0  0  0  0  0  0  0  0
   -3.8700   14.7470   -4.1710 C   0  0  0  0  0  0  0  0  0  0  0  0
   -3.1690   15.2300   -5.4350 C   0  0  0  0  0  0  0  0  0  0  0  0
   -1.6950   15.4140   -5.1760 C   0  0  0  0  0  0  0  0  0  0  0  0
   -0.9140   14.2860   -4.8650 C   0  0  0  0  0  0  0  0  0  0  0  0
   -1.0870   16.6630   -5.2350 C   0  0  0  0  0  0  0  0  0  0  0  0
    0.4630   14.3940   -4.6110 C   0  0  0  0  0  0  0  0  0  0  0  0
    0.2780   16.7700   -4.9870 C   0  0  0  0  0  0  0  0  0  0  0  0
    0.9910   18.3080   -5.0770 Cl  0  0  0  0  0  0  0  0  0  0  0  0
    1.2820   13.1630   -4.2750 C   0  0  0  0  0  0  0  0  0  0  0  0
    1.0560   15.6530   -4.6750 C   0  0  0  0  0  0  0  0  0  0  0  0
    0.8220   12.4870   -3.0040 C   0  0  0  0  0  0  0  0  0  0  0  0
    0.1870   11.3180   -3.2350 O   0  0  0  0  0  0  0  0  0  0  0  0
    0.9690   12.8920   -1.8590 O   0  0  0  0  0  0  0  0  0  0  0  0
  2  1  1  0
  2  3  2  0
  2  4  1  0
  2  5  2  0
  4  6  1  0
  6  7  1  0
  6  8  2  0
  8  9  1  0
  7 10  1  0
  9 10  2  0
 10 11  1  0
  9 12  1  0
 11 13  2  0
 12 14  2  0
 13 14  1  0
 13 15  1  0
 15 16  1  0
 16 17  1  0
 17 18  1  0
 18 19  2  0
 18 20  1  0
 19 21  1  0
 20 22  2  0
 22 23  1  0
 21 24  1  0
 21 25  2  0
 22 25  1  0
 24 26  1  0
 26 27  1  0
 26 28  2  0
M  END
