diamond-x0496_0_A-mac-x0343
     RDKit          3D

 27 29  0  0  0  0  0  0  0  0999 V2000
    1.9700   42.2610    0.5930 C   0  0  0  0  0  0  0  0  0  0  0  0
    3.4290   42.0910    0.9990 C   0  0  0  0  0  0  0  0  0  0  0  0
    4.2820   43.2720    0.5500 C   0  0  0  0  0  0  0  0  0  0  0  0
    3.9570   40.8000    0.4380 C   0  0  0  0  0  0  0  0  0  0  0  0
    4.6180   40.8630   -0.7310 N   0  0  0  0  0  0  0  0  0  0  0  0
    3.7400   39.6740    1.1340 N   0  0  0  0  0  0  0  0  0  0  0  0
    5.0880   39.6990   -1.2160 C   0  0  0  0  0  0  0  0  0  0  0  0
    4.2350   38.5250    0.5990 C   0  0  0  0  0  0  0  0  0  0  0  0
    3.9720   37.2920    1.4230 C   0  0  0  0  0  0  0  0  0  0  0  0
    4.9320   38.4810   -0.5990 C   0  0  0  0  0  0  0  0  0  0  0  0
    4.6510   36.3050    1.2610 O   0  0  0  0  0  0  0  0  0  0  0  0
    5.6040   37.1090   -1.3660 Cl  0  0  0  0  0  0  0  0  0  0  0  0
    2.9540   37.3240    2.3820 N   0  0  0  0  0  0  0  0  0  0  0  0
    1.5970   37.7580    2.1240 C   0  0  0  0  0  0  0  0  0  0  0  0
    0.7760   37.8870    3.4210 C   0  0  0  0  0  0  0  0  0  0  0  0
    1.3410   38.8730    4.4240 C   0  0  2  0  0  0  0  0  0  0  0  0
    0.8650   38.6730    5.8480 N   0  0  0  0  0  0  0  0  0  0  0  0
    0.8950   40.1770    3.7350 C   0  0  0  0  0  0  0  0  0  0  0  0
    0.7270   41.3830    4.6310 C   0  0  0  0  0  0  0  0  0  0  0  0
    0.8430   39.9260    6.6100 C   0  0  0  0  0  0  0  0  0  0  0  0
    1.5440   37.6510    6.7340 C   0  0  0  0  0  0  0  0  0  0  0  0
    0.0640   41.0280    5.9410 C   0  0  0  0  0  0  0  0  0  0  0  0
    0.8560   36.2850    6.9100 C   0  0  0  0  0  0  0  0  0  0  0  0
    3.0360   37.3330    6.5070 C   0  0  0  0  0  0  0  0  0  0  0  0
    1.4220   35.5410    8.1070 C   0  0  0  0  0  0  0  0  0  0  0  0
    3.5840   36.5330    7.6920 C   0  0  0  0  0  0  0  0  0  0  0  0
    2.5280   36.3140    8.6870 N   0  0  0  0  0  0  0  0  0  0  0  0
  1  2  1  0
  2  3  1  0
  2  4  1  0
  4  5  2  0
  4  6  1  0
  5  7  1  0
  6  8  2  0
  8  9  1  0
  7 10  2  0
  8 10  1  0
  9 11  2  0
 10 12  1  0
  9 13  1  0
 13 14  1  0
 14 15  1  0
 16 15  1  6
 16 17  1  0
 16 18  1  0
 18 19  1  0
 17 20  1  0
 17 21  1  0
 19 22  1  0
 20 22  1  0
 21 23  1  0
 21 24  1  0
 23 25  1  0
 24 26  1  0
 25 27  1  0
 26 27  1  0
M  END
