diamond-x0685_0_A-mac-x0328
     RDKit          3D

 14 14  0  0  0  0  0  0  0  0999 V2000
   -6.0760   15.1290    2.4270 N   0  0  0  0  0  0  0  0  0  0  0  0
   -7.4950   14.7570    2.5390 C   0  0  0  0  0  0  0  0  0  0  0  0
   -7.6160   13.2830    2.9000 C   0  0  0  0  0  0  0  0  0  0  0  0
   -5.3690   15.0870    1.1380 C   0  0  1  0  0  0  0  0  0  0  0  0
   -3.9210   14.7200    1.1560 C   0  0  0  0  0  0  0  0  0  0  0  0
   -6.1330   14.3620    0.1260 N   0  0  0  0  0  0  0  0  0  0  0  0
   -7.4780   14.9140    0.0890 O   0  0  0  0  0  0  0  0  0  0  0  0
   -3.3190   14.3690    0.0180 C   0  0  0  0  0  0  0  0  0  0  0  0
   -5.5830   14.7490   -1.1590 C   0  0  0  0  0  0  0  0  0  0  0  0
   -4.1010   14.3180   -1.2960 C   0  0  1  0  0  0  0  0  0  0  0  0
   -3.5180   15.1880   -2.4020 C   0  0  0  0  0  0  0  0  0  0  0  0
   -2.1140   14.8120   -2.7900 C   0  0  0  0  0  0  0  0  0  0  0  0
   -1.9460   14.7300   -4.1280 O   0  0  0  0  0  0  0  0  0  0  0  0
   -1.1930   14.6000   -2.0090 O   0  0  0  0  0  0  0  0  0  0  0  0
  1  2  1  0
  2  3  1  0
  4  1  1  1
  4  5  1  0
  4  6  1  0
  6  7  1  0
  5  8  2  0
  6  9  1  0
  8 10  1  0
  9 10  1  0
 10 11  1  6
 11 12  1  0
 12 13  1  0
 12 14  2  0
M  END
