diamond-x0905_0_A-diamond-x0253_0_A
     RDKit          3D

 24 25  0  0  0  0  0  0  0  0999 V2000
   -7.0340   15.2700   -0.8190 O   0  0  0  0  0  0  0  0  0  0  0  0
   -5.7010   15.1750   -0.5890 C   0  0  0  0  0  0  0  0  0  0  0  0
   -5.3880   14.9850    0.6990 N   0  0  0  0  0  0  0  0  0  0  0  0
   -4.7970   15.2700   -1.6200 C   0  0  0  0  0  0  0  0  0  0  0  0
   -4.0700   14.8800    0.9750 C   0  0  0  0  0  0  0  0  0  0  0  0
   -3.4460   15.1560   -1.3040 C   0  0  0  0  0  0  0  0  0  0  0  0
   -3.0540   14.9510    0.0330 C   0  0  0  0  0  0  0  0  0  0  0  0
   -1.6110   14.8040    0.4650 C   0  0  0  0  0  0  0  0  0  0  0  0
   -0.6270   14.7470   -0.7100 C   0  0  0  0  0  0  0  0  0  0  0  0
    0.0370   13.3850   -0.8550 C   0  0  0  0  0  0  0  0  0  0  0  0
    0.7240   13.3250   -2.1400 N   0  0  0  0  0  0  0  0  0  0  0  0
    0.6890   12.3140   -2.9280 C   0  0  0  0  0  0  0  0  0  0  0  0
   -0.0010   11.2130   -2.5570 O   0  0  0  0  0  0  0  0  0  0  0  0
    1.3610   12.2110   -4.2860 C   0  0  0  0  0  0  0  0  0  0  0  0
    0.4310   11.9310   -5.3870 N   0  0  0  0  0  0  0  0  0  0  0  0
    1.0260   11.7500   -6.6060 C   0  0  0  0  0  0  0  0  0  0  0  0
    2.1340   12.2060   -6.7540 O   0  0  0  0  0  0  0  0  0  0  0  0
    0.3580   10.9330   -7.6780 C   0  0  0  0  0  0  0  0  0  0  0  0
   -0.8080   10.2340   -7.3500 C   0  0  0  0  0  0  0  0  0  0  0  0
    0.8540   10.8200   -8.9850 C   0  0  0  0  0  0  0  0  0  0  0  0
   -1.4520    9.4170   -8.2850 C   0  0  0  0  0  0  0  0  0  0  0  0
    0.2140   10.0200   -9.9240 C   0  0  0  0  0  0  0  0  0  0  0  0
   -2.6810    8.6540   -7.8940 C   0  0  0  0  0  0  0  0  0  0  0  0
   -0.9330    9.3150   -9.5780 C   0  0  0  0  0  0  0  0  0  0  0  0
  1  2  1  0
  2  3  2  0
  2  4  1  0
  3  5  1  0
  4  6  2  0
  5  7  2  0
  6  7  1  0
  7  8  1  0
  8  9  1  0
  9 10  1  0
 10 11  1  0
 11 12  2  3
 12 13  1  0
 12 14  1  0
 14 15  1  0
 15 16  1  0
 16 17  2  0
 16 18  1  0
 18 19  2  0
 18 20  1  0
 19 21  1  0
 20 22  2  0
 21 23  1  0
 21 24  2  0
 22 24  1  0
M  END
