diamond-x0711_0_A-mac-x0568
     RDKit          3D

 21 22  0  0  0  0  0  0  0  0999 V2000
   -1.8840   14.5120   -1.8240 C   0  0  0  0  0  0  0  0  0  0  0  0
   -0.6770   14.0180   -2.9870 S   0  0  0  0  0  0  0  0  0  0  0  0
   -1.6070   12.9930   -4.0990 C   0  0  0  0  0  0  0  0  0  0  0  0
   -1.8290   15.4440   -0.8800 C   0  0  0  0  0  0  0  0  0  0  0  0
   -3.1780   13.8650   -1.7600 C   0  0  0  0  0  0  0  0  0  0  0  0
   -0.2360   15.1750   -3.7590 O   0  0  0  0  0  0  0  0  0  0  0  0
    0.3300   13.1680   -2.3750 O   0  0  0  0  0  0  0  0  0  0  0  0
   -0.8560   16.3220   -0.4780 N   0  0  0  0  0  0  0  0  0  0  0  0
   -4.1440   13.8520   -2.7710 C   0  0  0  0  0  0  0  0  0  0  0  0
   -3.4440   13.2500   -0.5330 C   0  0  0  0  0  0  0  0  0  0  0  0
   -3.1500   15.3800   -0.2060 C   0  0  0  0  0  0  0  0  0  0  0  0
   -5.3760   13.2340   -2.5160 C   0  0  0  0  0  0  0  0  0  0  0  0
   -4.6550   12.6420   -0.2830 C   0  0  0  0  0  0  0  0  0  0  0  0
   -4.3080   15.5230   -0.9880 C   0  0  0  0  0  0  0  0  0  0  0  0
   -3.3330   15.1460    1.1540 C   0  0  0  0  0  0  0  0  0  0  0  0
   -5.6380   12.6330   -1.2660 C   0  0  0  0  0  0  0  0  0  0  0  0
   -5.5660   15.4250   -0.5300 N   0  0  0  0  0  0  0  0  0  0  0  0
   -4.6270   15.0450    1.6390 C   0  0  0  0  0  0  0  0  0  0  0  0
   -6.9620   11.9850   -0.9700 C   0  0  0  0  0  0  0  0  0  0  0  0
   -5.6870   15.1760    0.7790 C   0  0  0  0  0  0  0  0  0  0  0  0
   -7.6100   12.6140    0.1820 N   0  0  0  0  0  0  0  0  0  0  0  0
  2  1  1  0
  2  3  1  0
  1  4  2  3
  1  5  1  0
  2  6  2  0
  2  7  2  0
  4  8  1  0
  5  9  2  0
  5 10  1  0
  4 11  1  0
  9 12  1  0
 10 13  2  0
 11 14  2  0
 11 15  1  0
 12 16  2  0
 13 16  1  0
 14 17  1  0
 15 18  2  0
 16 19  1  0
 17 20  2  0
 18 20  1  0
 19 21  1  0
M  END
