diamond-x0962_1_A-mac-x0302
     RDKit          3D

 13 13  0  0  0  0  0  0  0  0999 V2000
   -3.3500   15.0330   -1.8100 C   0  0  0  0  0  0  0  0  0  0  0  0
   -3.7940   15.2410   -0.3480 C   0  0  0  0  0  0  0  0  0  0  0  0
   -5.2090   14.9330    0.0310 C   0  0  0  0  0  0  0  0  0  0  0  0
   -2.1280   14.3660   -1.9450 N   0  0  0  0  0  0  0  0  0  0  0  0
   -3.9860   15.4110   -2.7910 O   0  0  0  0  0  0  0  0  0  0  0  0
   -1.2520   14.5010   -3.1030 C   0  0  0  0  0  0  0  0  0  0  0  0
    0.1560   14.0350   -2.7420 C   0  0  0  0  0  0  0  0  0  0  0  0
   -5.5660   14.6000    1.3250 N   0  0  0  0  0  0  0  0  0  0  0  0
   -6.4080   14.8950   -0.6610 C   0  0  0  0  0  0  0  0  0  0  0  0
    1.0440   14.0780   -3.7640 O   0  0  0  0  0  0  0  0  0  0  0  0
    0.4860   13.6460   -1.6310 O   0  0  0  0  0  0  0  0  0  0  0  0
   -6.9070   14.3850    1.3560 C   0  0  0  0  0  0  0  0  0  0  0  0
   -7.4470   14.5520    0.1780 N   0  0  0  0  0  0  0  0  0  0  0  0
  1  2  1  0
  2  3  1  0
  1  4  1  0
  1  5  2  0
  4  6  1  0
  6  7  1  0
  3  8  1  0
  3  9  2  0
  7 10  1  0
  7 11  2  0
  8 12  1  0
  9 13  1  0
 12 13  2  0
M  END
