diamond-x0933_0_A-diamond-x0104_0_A
     RDKit          3D

 17 18  0  0  0  0  0  0  0  0999 V2000
   -6.4060   14.3940    2.3660 N   0  0  0  0  0  0  0  0  0  0  0  0
   -7.6220   14.9110    2.8660 C   0  0  0  0  0  0  0  0  0  0  0  0
   -7.7510   14.9680    4.2500 N   0  0  0  0  0  0  0  0  0  0  0  0
   -5.3880   14.9160    1.4530 C   0  0  2  0  0  0  0  0  0  0  0  0
   -8.4730   15.2540    2.0470 O   0  0  0  0  0  0  0  0  0  0  0  0
   -5.7700   14.6950    0.0780 N   0  0  0  0  0  0  0  0  0  0  0  0
   -4.1230   14.2980    1.6930 N   0  0  0  0  0  0  0  0  0  0  0  0
   -4.6650   14.3910   -0.8280 C   0  0  1  0  0  0  0  0  0  0  0  0
   -3.0810   15.0340    0.9830 C   0  0  0  0  0  0  0  0  0  0  0  0
   -8.9170   15.0250    5.0310 C   0  0  0  0  0  0  0  0  0  0  0  0
   -4.9930   14.7670   -2.1630 O   0  0  0  0  0  0  0  0  0  0  0  0
   -3.3740   15.1190   -0.4960 C   0  0  0  0  0  0  0  0  0  0  0  0
   -8.9660   15.1550    6.4150 C   0  0  0  0  0  0  0  0  0  0  0  0
  -10.4900   14.9360    4.3810 S   0  0  0  0  0  0  0  0  0  0  0  0
   -3.8370   15.0010   -2.9660 C   0  0  0  0  0  0  0  0  0  0  0  0
  -11.2360   15.0660    5.9190 C   0  0  0  0  0  0  0  0  0  0  0  0
  -10.3050   15.1790    6.9260 C   0  0  0  0  0  0  0  0  0  0  0  0
  1  2  1  0
  2  3  1  0
  4  1  1  1
  2  5  2  0
  4  6  1  0
  4  7  1  0
  6  8  1  0
  7  9  1  0
  3 10  1  0
  8 11  1  6
  8 12  1  0
  9 12  1  0
 10 13  2  0
 10 14  1  0
 11 15  1  0
 14 16  1  0
 13 17  1  0
 16 17  2  0
M  END
