diamond-x0128_0_A-mac-x0224
     RDKit          3D

 27 29  0  0  0  0  0  0  0  0999 V2000
   -5.8300   14.8760    1.7530 N   0  0  0  0  0  0  0  0  0  0  0  0
   -6.9800   14.9480    2.7200 C   0  0  0  0  0  0  0  0  0  0  0  0
   -8.1140   14.6130    2.3720 O   0  0  0  0  0  0  0  0  0  0  0  0
   -4.0480   15.0170    1.9210 S   0  0  0  0  0  0  0  0  0  0  0  0
   -6.0800   14.9400    0.3750 C   0  0  0  0  0  0  0  0  0  0  0  0
   -6.8220   15.4370    4.0390 N   0  0  0  0  0  0  0  0  0  0  0  0
   -7.2020   14.4010   -0.2550 C   0  0  0  0  0  0  0  0  0  0  0  0
   -5.1250   15.5870   -0.4030 C   0  0  0  0  0  0  0  0  0  0  0  0
   -3.3920   14.7210    0.2120 C   0  0  0  0  0  0  0  0  0  0  0  0
   -7.3500   14.5090   -1.6340 C   0  0  0  0  0  0  0  0  0  0  0  0
   -5.2710   15.6870   -1.7680 C   0  0  0  0  0  0  0  0  0  0  0  0
   -7.8250   15.9110    4.9750 C   0  0  0  0  0  0  0  0  0  0  0  0
   -1.9950   14.6780   -0.0760 C   0  0  0  0  0  0  0  0  0  0  0  0
   -4.2520   14.5260   -0.8820 C   0  0  0  0  0  0  0  0  0  0  0  0
   -6.3810   15.1510   -2.3920 C   0  0  0  0  0  0  0  0  0  0  0  0
   -8.7460   16.9000    4.5880 C   0  0  0  0  0  0  0  0  0  0  0  0
   -7.9610   15.4580    6.2920 C   0  0  0  0  0  0  0  0  0  0  0  0
   -1.5200   14.4590   -1.4180 C   0  0  0  0  0  0  0  0  0  0  0  0
   -3.7850   14.3150   -2.1930 C   0  0  0  0  0  0  0  0  0  0  0  0
   -0.0520   14.4160   -1.6990 C   0  0  0  0  0  0  0  0  0  0  0  0
   -9.7210   17.4330    5.3740 N   0  0  0  0  0  0  0  0  0  0  0  0
   -8.9570   15.9920    7.1290 C   0  0  0  0  0  0  0  0  0  0  0  0
   -2.4320   14.2870   -2.4520 C   0  0  0  0  0  0  0  0  0  0  0  0
   -1.9910   14.0830   -3.7420 O   0  0  0  0  0  0  0  0  0  0  0  0
    0.7920   14.6020   -0.8510 O   0  0  0  0  0  0  0  0  0  0  0  0
    0.2680   14.1480   -2.9870 O   0  0  0  0  0  0  0  0  0  0  0  0
   -9.8010   16.9660    6.6300 C   0  0  0  0  0  0  0  0  0  0  0  0
  1  2  1  0
  2  3  2  0
  1  4  1  0
  1  5  1  0
  2  6  1  0
  5  7  2  0
  5  8  1  0
  4  9  1  0
  7 10  1  0
  8 11  2  0
  6 12  1  0
  9 13  2  0
  9 14  1  0
 10 15  2  0
 11 15  1  0
 12 16  2  0
 12 17  1  0
 13 18  1  0
 14 19  2  0
 18 20  1  0
 16 21  1  0
 17 22  2  0
 18 23  2  0
 19 23  1  0
 23 24  1  0
 20 25  2  0
 20 26  1  0
 21 27  2  0
 22 27  1  0
M  END
