diamond-x0253_0_A-diamond-x0471_0_A
     RDKit          3D

 33 35  0  0  0  0  0  0  0  0999 V2000
    0.4610   11.9430   -5.3470 N   0  0  0  0  0  0  0  0  0  0  0  0
    1.0930   11.6830   -6.5330 C   0  0  0  0  0  0  0  0  0  0  0  0
    2.1730   12.1760   -6.7490 O   0  0  0  0  0  0  0  0  0  0  0  0
    1.2850   12.5640   -4.3200 C   0  0  0  0  0  0  0  0  0  0  0  0
    0.6640   12.4100   -2.9490 C   0  0  0  0  0  0  0  0  0  0  0  0
    0.4490   10.7550   -7.5160 C   0  0  0  0  0  0  0  0  0  0  0  0
    0.6380   13.4080   -2.1590 N   0  0  0  0  0  0  0  0  0  0  0  0
    0.1620   11.1780   -2.6970 O   0  0  0  0  0  0  0  0  0  0  0  0
   -0.5390    9.8460   -7.1200 C   0  0  0  0  0  0  0  0  0  0  0  0
    0.8340   10.7840   -8.8660 C   0  0  0  0  0  0  0  0  0  0  0  0
    0.0440   13.4630   -0.8340 C   0  0  0  0  0  0  0  0  0  0  0  0
   -1.1270    8.9850   -8.0530 C   0  0  0  0  0  0  0  0  0  0  0  0
    0.2540    9.9320   -9.7960 C   0  0  0  0  0  0  0  0  0  0  0  0
   -2.1840    8.0130   -7.6220 C   0  0  0  0  0  0  0  0  0  0  0  0
   -0.6080   14.8270   -0.6920 C   0  0  0  0  0  0  0  0  0  0  0  0
   -0.7260    9.0320   -9.3920 C   0  0  0  0  0  0  0  0  0  0  0  0
   -1.5690   14.9080    0.4940 C   0  0  0  0  0  0  0  0  0  0  0  0
   -3.0300   14.9680    0.0850 C   0  0  0  0  0  0  0  0  0  0  0  0
   -3.4750   15.2550   -1.2250 C   0  0  0  0  0  0  0  0  0  0  0  0
   -3.9750   14.7140    1.0760 C   0  0  0  0  0  0  0  0  0  0  0  0
   -5.3360   14.7360    0.7610 C   0  0  0  0  0  0  0  0  0  0  0  0
   -4.8400   15.2880   -1.5610 C   0  0  0  0  0  0  0  0  0  0  0  0
   -6.4140   14.5070    1.5770 N   0  0  0  0  0  0  0  0  0  0  0  0
   -5.7450   15.0160   -0.5310 C   0  0  0  0  0  0  0  0  0  0  0  0
   -7.1190   14.9450   -0.4740 N   0  0  0  0  0  0  0  0  0  0  0  0
   -7.4750   14.6350    0.8230 C   0  0  0  0  0  0  0  0  0  0  0  0
   -8.8860   14.4770    1.2650 C   0  0  0  0  0  0  0  0  0  0  0  0
   -8.8960   14.0680    2.6580 N   0  0  0  0  0  0  0  0  0  0  0  0
   -8.9850   14.9970    3.6770 C   0  0  0  0  0  0  0  0  0  0  0  0
   -9.2920   16.1700    3.4690 O   0  0  0  0  0  0  0  0  0  0  0  0
   -8.6840   14.4320    5.0650 C   0  0  0  0  0  0  0  0  0  0  0  0
   -9.8940   13.6670    5.6030 C   0  0  0  0  0  0  0  0  0  0  0  0
   -8.2790   15.5420    6.0340 C   0  0  0  0  0  0  0  0  0  0  0  0
  1  2  1  0
  2  3  2  0
  1  4  1  0
  4  5  1  0
  2  6  1  0
  5  7  2  3
  5  8  1  0
  6  9  2  0
  6 10  1  0
  7 11  1  0
  9 12  1  0
 10 13  2  0
 12 14  1  0
 11 15  1  0
 12 16  2  0
 13 16  1  0
 15 17  1  0
 17 18  1  0
 18 19  2  0
 18 20  1  0
 20 21  2  0
 19 22  1  0
 21 23  1  0
 21 24  1  0
 22 24  2  0
 24 25  1  0
 23 26  2  0
 25 26  1  0
 26 27  1  0
 27 28  1  0
 28 29  1  0
 29 30  2  0
 29 31  1  0
 31 32  1  0
 31 33  1  0
M  END
