diamond-x0933_0_A-mac-x0338
     RDKit          3D

  9  9  0  0  0  0  0  0  0  0999 V2000
   -6.2600   14.1080    1.5570 N   0  0  0  0  0  0  0  0  0  0  0  0
   -5.1770   13.8160    0.6680 C   0  0  2  0  0  0  0  0  0  0  0  0
   -4.0190   14.2520    1.3930 N   0  0  0  0  0  0  0  0  0  0  0  0
   -5.5320   14.6190   -0.4630 N   0  0  0  0  0  0  0  0  0  0  0  0
   -4.3520   15.4320    2.1140 C   0  0  0  0  0  0  0  0  0  0  0  0
   -4.4060   15.2310   -1.1530 C   0  0  0  0  0  0  0  0  0  0  0  0
   -2.7970   14.5060    0.6070 C   0  0  0  0  0  0  0  0  0  0  0  0
   -3.9260   16.5120    1.2960 N   0  0  0  0  0  0  0  0  0  0  0  0
   -3.0680   14.5540   -0.8880 C   0  0  0  0  0  0  0  0  0  0  0  0
  2  1  1  1
  2  3  1  0
  2  4  1  0
  3  5  1  0
  4  6  1  0
  3  7  1  0
  5  8  1  0
  6  9  1  0
  7  9  1  0
M  END
