diamond-x0421_0_A-diamond-x0282_0_A
     RDKit          3D

 18 20  0  0  0  0  0  0  0  0999 V2000
   -4.3560   15.2460   -2.8830 N   0  0  0  0  0  0  0  0  0  0  0  0
   -3.3530   15.2010   -1.9580 C   0  0  0  0  0  0  0  0  0  0  0  0
   -2.2110   15.0040   -2.3720 O   0  0  0  0  0  0  0  0  0  0  0  0
   -3.7550   15.3990   -0.4750 C   0  0  2  0  0  0  0  0  0  0  0  0
   -2.8490   14.4570    0.3970 C   0  0  1  0  0  0  0  0  0  0  0  0
   -5.1770   15.0680   -0.0820 N   0  0  0  0  0  0  0  0  0  0  0  0
   -6.2810   15.0330   -1.0260 C   0  0  0  0  0  0  0  0  0  0  0  0
   -3.7840   13.8480    1.3360 N   0  0  0  0  0  0  0  0  0  0  0  0
   -5.1560   14.0040    0.8550 C   0  0  1  0  0  0  0  0  0  0  0  0
   -2.3260   13.4420   -0.5130 N   0  0  0  0  0  0  0  0  0  0  0  0
   -1.7580   15.1550    1.0950 N   0  0  0  0  0  0  0  0  0  0  0  0
   -7.4970   14.5990   -0.4170 O   0  0  0  0  0  0  0  0  0  0  0  0
   -6.2070   14.3170    1.8900 C   0  0  0  0  0  0  0  0  0  0  0  0
   -0.9640   13.7510   -0.9890 C   0  0  0  0  0  0  0  0  0  0  0  0
   -0.4810   14.6280    1.1560 C   0  0  0  0  0  0  0  0  0  0  0  0
   -7.6530   14.6740    1.5930 C   0  0  0  0  0  0  0  0  0  0  0  0
   -7.3230   13.3460    2.2100 C   0  0  0  0  0  0  0  0  0  0  0  0
   -0.0430   13.9350    0.1300 C   0  0  0  0  0  0  0  0  0  0  0  0
  1  2  1  0
  2  3  2  0
  4  2  1  6
  4  5  1  0
  4  6  1  0
  6  7  1  0
  5  8  1  1
  6  9  1  0
  8  9  1  0
  5 10  1  0
  5 11  1  0
  7 12  1  0
  9 13  1  1
 10 14  1  0
 11 15  1  0
 13 16  1  0
 13 17  1  0
 16 17  1  0
 14 18  1  0
 15 18  2  0
M  END
