diamond-x0471_0_A-mac-x0306
     RDKit          3D

 16 17  0  0  0  0  0  0  0  0999 V2000
   -8.7990   14.1140    2.8450 N   0  0  0  0  0  0  0  0  0  0  0  0
   -9.1580   15.1410    3.6780 C   0  0  0  0  0  0  0  0  0  0  0  0
   -9.4300   16.2540    3.2470 O   0  0  0  0  0  0  0  0  0  0  0  0
   -8.8930   14.2870    1.4120 C   0  0  0  0  0  0  0  0  0  0  0  0
   -9.2430   14.8350    5.1730 C   0  0  0  0  0  0  0  0  0  0  0  0
   -7.5190   14.5390    0.8870 C   0  0  0  0  0  0  0  0  0  0  0  0
   -9.6390   13.3890    5.4430 C   0  0  0  0  0  0  0  0  0  0  0  0
   -7.9760   15.2510    5.9080 C   0  0  0  0  0  0  0  0  0  0  0  0
   -7.2500   14.8300   -0.4280 N   0  0  0  0  0  0  0  0  0  0  0  0
   -6.4150   14.5140    1.5960 N   0  0  0  0  0  0  0  0  0  0  0  0
   -5.3960   14.7940    0.7270 C   0  0  0  0  0  0  0  0  0  0  0  0
   -5.8900   14.9990   -0.5540 C   0  0  0  0  0  0  0  0  0  0  0  0
   -5.0770   15.3010   -1.6430 C   0  0  0  0  0  0  0  0  0  0  0  0
   -4.0200   14.8890    0.9640 C   0  0  0  0  0  0  0  0  0  0  0  0
   -3.7060   15.3880   -1.3890 C   0  0  0  0  0  0  0  0  0  0  0  0
   -3.1830   15.1850   -0.1060 C   0  0  0  0  0  0  0  0  0  0  0  0
  1  2  1  0
  2  3  2  0
  1  4  1  0
  2  5  1  0
  4  6  1  0
  5  7  1  0
  5  8  1  0
  6  9  1  0
  6 10  2  0
 10 11  1  0
  9 12  1  0
 11 12  2  0
 12 13  1  0
 11 14  1  0
 13 15  2  0
 14 16  2  0
 15 16  1  0
M  END
