diamond-x0628_0_A-diamond-x0895_0_A
     RDKit          3D

 21 22  0  0  0  0  0  0  0  0999 V2000
   -1.0240    9.1490   -7.2910 C   0  0  0  0  0  0  0  0  0  0  0  0
   -0.9890   10.3120   -6.3850 C   0  0  0  0  0  0  0  0  0  0  0  0
   -1.9230   10.5160   -5.4000 N   0  0  0  0  0  0  0  0  0  0  0  0
   -0.0400   11.2480   -6.4620 N   0  0  0  0  0  0  0  0  0  0  0  0
   -0.4020   12.0850   -5.4600 N   0  0  0  0  0  0  0  0  0  0  0  0
   -1.5390   11.6420   -4.8170 C   0  0  0  0  0  0  0  0  0  0  0  0
   -2.2270   12.3060   -3.6440 C   0  0  0  0  0  0  0  0  0  0  0  0
    0.4060   13.2570   -5.2140 C   0  0  0  0  0  0  0  0  0  0  0  0
    1.6270   12.9610   -4.3630 C   0  0  0  0  0  0  0  0  0  0  0  0
   -3.1140   13.5340   -3.9440 C   0  0  0  0  0  0  0  0  0  0  0  0
    1.2100   12.2880   -3.0860 C   0  0  0  0  0  0  0  0  0  0  0  0
   -2.8720   14.7490   -3.0150 C   0  0  0  0  0  0  0  0  0  0  0  0
    0.5360   11.2720   -2.9760 O   0  0  0  0  0  0  0  0  0  0  0  0
    1.6500   12.9310   -1.9920 O   0  0  0  0  0  0  0  0  0  0  0  0
   -3.9450   14.9610   -2.0260 N   0  0  0  0  0  0  0  0  0  0  0  0
   -3.6760   14.9130   -0.7690 C   0  0  0  0  0  0  0  0  0  0  0  0
   -4.5640   15.1150    0.2450 N   0  0  0  0  0  0  0  0  0  0  0  0
   -2.4620   14.6610   -0.2310 N   0  0  0  0  0  0  0  0  0  0  0  0
   -3.8130   15.5810    1.3930 C   0  0  0  0  0  0  0  0  0  0  0  0
   -2.4890   14.8620    1.1210 C   0  0  0  0  0  0  0  0  0  0  0  0
   -1.6150   14.5240    1.9090 O   0  0  0  0  0  0  0  0  0  0  0  0
  1  2  1  0
  2  3  1  0
  2  4  2  0
  4  5  1  0
  3  6  2  0
  5  6  1  0
  6  7  1  0
  5  8  1  0
  8  9  1  0
  7 10  1  0
  9 11  1  0
 10 12  1  0
 11 13  2  0
 11 14  1  0
 12 15  1  0
 15 16  2  3
 16 17  1  0
 16 18  1  0
 17 19  1  0
 18 20  1  0
 19 20  1  0
 20 21  2  0
M  END
