diamond-x1015_0_A-mac-x0404
     RDKit          3D

 29 32  0  0  0  0  0  0  0  0999 V2000
   -2.5580   13.9770   -3.2150 C   0  0  0  0  0  0  0  0  0  0  0  0
   -1.0770   13.6650   -3.3550 C   0  0  2  0  0  0  0  0  0  0  0  0
   -0.7970   12.2110   -3.5410 N   0  0  0  0  0  0  0  0  0  0  0  0
   -0.4380   13.9320   -2.0100 C   0  0  0  0  0  0  0  0  0  0  0  0
   -0.0080   14.9800   -1.5460 O   0  0  0  0  0  0  0  0  0  0  0  0
   -0.0720   11.7630   -2.3790 C   0  0  2  0  0  0  0  0  0  0  0  0
   -0.4400   12.7120   -1.4040 N   0  0  0  0  0  0  0  0  0  0  0  0
   -0.9330   11.4450   -4.7040 C   0  0  0  0  0  0  0  0  0  0  0  0
    1.3130   11.9810   -2.4400 N   0  0  0  0  0  0  0  0  0  0  0  0
   -0.2930   11.7390   -5.9380 C   0  0  0  0  0  0  0  0  0  0  0  0
   -1.7390   10.2930   -4.7170 C   0  0  0  0  0  0  0  0  0  0  0  0
    2.0210   12.4680   -3.3730 C   0  0  0  0  0  0  0  0  0  0  0  0
   -0.4500   10.9500   -7.0850 C   0  0  0  0  0  0  0  0  0  0  0  0
   -1.9050    9.4960   -5.8570 C   0  0  0  0  0  0  0  0  0  0  0  0
    3.3420   12.6400   -3.2880 O   0  0  0  0  0  0  0  0  0  0  0  0
    1.4810   12.9220   -4.7220 C   0  0  0  0  0  0  0  0  0  0  0  0
   -1.2610    9.8260   -7.0380 C   0  0  0  0  0  0  0  0  0  0  0  0
   -1.4710    8.8470   -8.4330 Cl  0  0  0  0  0  0  0  0  0  0  0  0
    1.1810   14.3070   -4.8150 O   0  0  0  0  0  0  0  0  0  0  0  0
   -0.1220   14.7050   -5.0960 C   0  0  0  0  0  0  0  0  0  0  0  0
   -0.2980   16.0810   -5.2460 C   0  0  0  0  0  0  0  0  0  0  0  0
   -1.2340   13.8590   -5.2410 C   0  0  0  0  0  0  0  0  0  0  0  0
   -1.5780   16.6090   -5.5300 C   0  0  0  0  0  0  0  0  0  0  0  0
   -2.4990   14.3820   -5.5150 C   0  0  0  0  0  0  0  0  0  0  0  0
    0.7830   16.9450   -5.1270 C   0  0  0  0  0  0  0  0  0  0  0  0
   -2.6750   15.7520   -5.6550 C   0  0  0  0  0  0  0  0  0  0  0  0
   -1.7300   17.9790   -5.6950 C   0  0  0  0  0  0  0  0  0  0  0  0
    0.6240   18.3060   -5.2960 C   0  0  0  0  0  0  0  0  0  0  0  0
   -0.6390   18.8180   -5.5830 C   0  0  0  0  0  0  0  0  0  0  0  0
  2  1  1  1
  2  3  1  0
  2  4  1  0
  4  5  2  0
  3  6  1  0
  4  7  1  0
  6  7  1  0
  3  8  1  0
  6  9  1  6
  8 10  2  0
  8 11  1  0
  9 12  2  3
 10 13  1  0
 11 14  2  0
 12 15  1  0
 12 16  1  0
 13 17  2  0
 14 17  1  0
 17 18  1  0
 16 19  1  0
 19 20  1  0
 20 21  1  0
 20 22  2  0
 21 23  2  0
 22 24  1  0
 21 25  1  0
 23 26  1  0
 24 26  2  0
 23 27  1  0
 25 28  2  0
 27 29  2  0
 28 29  1  0
M  END
