diamond-x0371_0_A-diamond-x0910_0_A
     RDKit          3D

 24 27  0  0  0  0  0  0  0  0999 V2000
   -8.7510   14.4510    2.7460 N   0  0  0  0  0  0  0  0  0  0  0  0
   -9.0170   15.5150    3.5720 C   0  0  0  0  0  0  0  0  0  0  0  0
   -9.5160   16.5080    3.0420 O   0  0  0  0  0  0  0  0  0  0  0  0
   -8.9110   14.3410    1.3080 C   0  0  0  0  0  0  0  0  0  0  0  0
   -7.5710   14.5090    0.7190 C   0  0  0  0  0  0  0  0  0  0  0  0
   -8.7420   15.4670    4.9930 C   0  0  0  0  0  0  0  0  0  0  0  0
   -6.5380   14.8050    1.5420 N   0  0  0  0  0  0  0  0  0  0  0  0
   -7.1820   14.4130   -0.5430 N   0  0  0  0  0  0  0  0  0  0  0  0
   -8.1190   14.3940    5.5720 O   0  0  0  0  0  0  0  0  0  0  0  0
   -9.0230   16.3970    5.9770 C   0  0  0  0  0  0  0  0  0  0  0  0
   -5.8280   14.6490   -0.5030 C   0  0  0  0  0  0  0  0  0  0  0  0
   -5.4240   14.9040    0.8050 C   0  0  0  0  0  0  0  0  0  0  0  0
   -8.5500   15.8630    7.2010 C   0  0  0  0  0  0  0  0  0  0  0  0
   -8.0060   14.6420    6.9010 C   0  0  0  0  0  0  0  0  0  0  0  0
   -4.1490   15.1850    1.1930 C   0  0  0  0  0  0  0  0  0  0  0  0
   -4.8620   14.6590   -1.5210 C   0  0  0  0  0  0  0  0  0  0  0  0
   -3.2310   15.1810    0.1940 C   0  0  0  0  0  0  0  0  0  0  0  0
   -3.5410   14.9160   -1.1360 C   0  0  0  0  0  0  0  0  0  0  0  0
   -2.4570   14.9110   -1.9740 N   0  0  0  0  0  0  0  0  0  0  0  0
   -1.3330   14.8430   -1.2440 C   0  0  0  0  0  0  0  0  0  0  0  0
   -1.4800   14.6340    0.1160 N   0  0  0  0  0  0  0  0  0  0  0  0
   -0.0720   14.9440   -1.4960 N   0  0  0  0  0  0  0  0  0  0  0  0
   -0.3150   14.6080    0.7600 N   0  0  0  0  0  0  0  0  0  0  0  0
    0.5060   14.8050   -0.2750 C   0  0  0  0  0  0  0  0  0  0  0  0
  1  2  1  0
  2  3  2  0
  1  4  1  0
  4  5  1  0
  2  6  1  0
  5  7  1  0
  5  8  2  0
  6  9  1  0
  6 10  2  0
  8 11  1  0
  7 12  1  0
 11 12  2  0
 10 13  1  0
  9 14  1  0
 13 14  2  0
 12 15  1  0
 11 16  1  0
 15 17  2  0
 16 18  2  0
 17 18  1  0
 18 19  1  0
 19 20  1  0
 20 21  1  0
 20 22  2  0
 21 23  1  0
 22 24  1  0
 23 24  2  0
M  END
