diamond-x0849_0_A-mac-x0341
     RDKit          3D

 17 19  0  0  0  0  0  0  0  0999 V2000
   -3.3680   14.5920   -2.7040 Br  0  0  0  0  0  0  0  0  0  0  0  0
   -3.2740   15.6030   -1.0510 C   0  0  2  0  0  0  0  0  0  0  0  0
   -2.0890   15.3360   -0.1590 C   0  0  1  0  0  0  0  0  0  0  0  0
   -4.5830   15.7450   -0.2640 C   0  0  2  0  0  0  0  0  0  0  0  0
   -2.4510   14.7220    1.1960 C   0  0  1  0  0  0  0  0  0  0  0  0
   -4.8190   14.9190    1.0090 C   0  0  2  0  0  0  0  0  0  0  0  0
   -0.8630   14.6850   -0.8110 C   0  0  0  0  0  0  0  0  0  0  0  0
   -5.7610   15.8370   -1.1930 C   0  0  0  0  0  0  0  0  0  0  0  0
   -3.7030   14.0130    1.2310 N   0  0  0  0  0  0  0  0  0  0  0  0
   -1.3010   14.1540    1.8150 N   0  0  0  0  0  0  0  0  0  0  0  0
    0.2460   14.7450    0.1580 C   0  0  0  0  0  0  0  0  0  0  0  0
   -6.3230   14.5220    1.2980 C   0  0  2  0  0  0  0  0  0  0  0  0
   -6.7570   14.7580   -1.0950 C   0  0  0  0  0  0  0  0  0  0  0  0
   -6.6100   13.3250    2.0300 N   0  0  0  0  0  0  0  0  0  0  0  0
   -7.1890   14.2000   -2.0920 O   0  0  0  0  0  0  0  0  0  0  0  0
   -0.0570   14.4770    1.4220 C   0  0  0  0  0  0  0  0  0  0  0  0
   -7.1560   14.4260    0.1490 N   0  0  0  0  0  0  0  0  0  0  0  0
  2  1  1  6
  2  3  1  0
  2  4  1  0
  3  5  1  0
  4  6  1  0
  3  7  1  6
  4  8  1  6
  5  9  1  6
  6  9  1  6
  5 10  1  0
  7 11  1  0
  6 12  1  0
  8 13  1  0
 12 14  1  6
 13 15  2  0
 10 16  1  0
 11 16  2  0
 12 17  1  0
 13 17  1  0
M  END
