diamond-x0465_0_A-mac-x0123
     RDKit          3D

 29 32  0  0  0  0  0  0  0  0999 V2000
    2.0170   13.1540   -4.3520 C   0  0  0  0  0  0  0  0  0  0  0  0
    0.6510   12.4750   -4.2330 C   0  0  1  0  0  0  0  0  0  0  0  0
    0.6050   11.5280   -5.3310 O   0  0  0  0  0  0  0  0  0  0  0  0
    0.5080   11.7640   -2.8570 C   0  0  0  0  0  0  0  0  0  0  0  0
    0.4480   12.3470   -1.6880 N   0  0  0  0  0  0  0  0  0  0  0  0
    0.4310   10.4270   -2.9040 O   0  0  0  0  0  0  0  0  0  0  0  0
   -0.5870   10.8650   -5.5300 C   0  0  0  0  0  0  0  0  0  0  0  0
    0.4910   13.7970   -1.5860 C   0  0  0  0  0  0  0  0  0  0  0  0
   -0.6560    9.8800   -6.5300 C   0  0  0  0  0  0  0  0  0  0  0  0
   -1.7230   11.1400   -4.7700 C   0  0  0  0  0  0  0  0  0  0  0  0
    0.4160    9.5930   -7.2840 F   0  0  0  0  0  0  0  0  0  0  0  0
   -0.8840   14.3360   -1.9810 C   0  0  0  0  0  0  0  0  0  0  0  0
   -1.8290    9.1790   -6.7660 C   0  0  0  0  0  0  0  0  0  0  0  0
   -2.9060   10.4340   -5.0090 C   0  0  0  0  0  0  0  0  0  0  0  0
   -2.0220   14.3800   -0.9160 C   0  0  0  0  0  0  0  0  0  0  0  0
   -2.9580    9.4570   -6.0040 C   0  0  0  0  0  0  0  0  0  0  0  0
   -3.2180   15.1900   -1.2310 N   0  0  0  0  0  0  0  0  0  0  0  0
   -4.4570   14.9330   -0.4860 N   0  0  0  0  0  0  0  0  0  0  0  0
   -3.6070   15.0710   -2.6340 C   0  0  0  0  0  0  0  0  0  0  0  0
   -4.4220   14.2970    0.8270 C   0  0  1  0  0  0  0  0  0  0  0  0
   -5.3300   14.2650   -1.4080 C   0  0  2  0  0  0  0  0  0  0  0  0
   -5.0610   14.8790   -2.6730 N   0  0  0  0  0  0  0  0  0  0  0  0
   -3.7120   15.2290    1.6900 N   0  0  0  0  0  0  0  0  0  0  0  0
   -6.6630   14.5940   -1.0200 N   0  0  0  0  0  0  0  0  0  0  0  0
   -5.8680   13.8620    1.3150 C   0  0  2  0  0  0  0  0  0  0  0  0
   -6.9560   13.8410    0.1900 C   0  0  1  0  0  0  0  0  0  0  0  0
   -6.5650   14.6500    2.3970 C   0  0  0  0  0  0  0  0  0  0  0  0
   -8.2920   14.2070    0.8540 C   0  0  0  0  0  0  0  0  0  0  0  0
   -7.8700   14.8200    2.1500 C   0  0  0  0  0  0  0  0  0  0  0  0
  2  1  1  1
  2  3  1  0
  2  4  1  0
  4  5  2  3
  4  6  1  0
  3  7  1  0
  5  8  1  0
  7  9  2  0
  7 10  1  0
  9 11  1  0
  8 12  1  0
  9 13  1  0
 10 14  2  0
 12 15  1  0
 13 16  2  0
 14 16  1  0
 15 17  1  0
 17 18  1  0
 17 19  1  0
 18 20  1  0
 18 21  1  0
 19 22  1  0
 21 22  1  6
 20 23  1  1
 21 24  1  0
 20 25  1  0
 24 26  1  0
 25 26  1  0
 25 27  1  1
 26 28  1  1
 27 29  2  0
 28 29  1  0
M  END
