diamond-x0689_0_A-mac-x0354
     RDKit          3D

 25 27  0  0  0  0  0  0  0  0999 V2000
   -3.7890   14.9870    1.6450 N   0  0  0  0  0  0  0  0  0  0  0  0
   -4.9140   15.1210    0.7580 C   0  0  0  0  0  0  0  0  0  0  0  0
   -2.5810   14.8450    1.0100 C   0  0  0  0  0  0  0  0  0  0  0  0
   -2.6650   14.8330   -0.3220 N   0  0  0  0  0  0  0  0  0  0  0  0
   -1.4420   14.7520    1.6980 N   0  0  0  0  0  0  0  0  0  0  0  0
   -1.5140   14.7510   -0.9970 C   0  0  0  0  0  0  0  0  0  0  0  0
   -0.3190   14.6830    0.9780 C   0  0  0  0  0  0  0  0  0  0  0  0
   -0.2880   14.6870   -0.4020 C   0  0  0  0  0  0  0  0  0  0  0  0
    0.9390   14.6320   -1.2340 C   0  0  0  0  0  0  0  0  0  0  0  0
    1.3230   13.2340   -1.6240 C   0  0  0  0  0  0  0  0  0  0  0  0
    1.2440   12.9640   -3.0160 N   0  0  0  0  0  0  0  0  0  0  0  0
    0.7520   11.9000   -3.4960 C   0  0  0  0  0  0  0  0  0  0  0  0
    0.2020   10.8630   -2.8110 O   0  0  0  0  0  0  0  0  0  0  0  0
    0.8900   11.8480   -4.9080 C   0  0  0  0  0  0  0  0  0  0  0  0
    1.8530   12.5930   -5.5780 C   0  0  0  0  0  0  0  0  0  0  0  0
    0.2330   11.1380   -5.9110 C   0  0  0  0  0  0  0  0  0  0  0  0
    0.8530   11.5110   -7.0610 N   0  0  0  0  0  0  0  0  0  0  0  0
    1.8300   12.3880   -6.8590 N   0  0  0  0  0  0  0  0  0  0  0  0
   -0.8460   10.1820   -5.9250 C   0  0  0  0  0  0  0  0  0  0  0  0
    0.5550   11.0540   -8.4020 C   0  0  0  0  0  0  0  0  0  0  0  0
   -0.6330    8.9210   -6.4920 C   0  0  0  0  0  0  0  0  0  0  0  0
   -2.0860   10.5050   -5.3880 C   0  0  0  0  0  0  0  0  0  0  0  0
   -1.6630    7.9880   -6.5190 C   0  0  0  0  0  0  0  0  0  0  0  0
   -3.1170    9.5710   -5.4150 C   0  0  0  0  0  0  0  0  0  0  0  0
   -2.9040    8.3150   -5.9810 C   0  0  0  0  0  0  0  0  0  0  0  0
  1  2  1  0
  1  3  1  0
  3  4  2  0
  3  5  1  0
  4  6  1  0
  5  7  2  0
  6  8  2  0
  7  8  1  0
  8  9  1  0
  9 10  1  0
 10 11  1  0
 11 12  2  3
 12 13  1  0
 12 14  1  0
 14 15  1  0
 14 16  2  0
 16 17  1  0
 15 18  2  0
 17 18  1  0
 16 19  1  0
 17 20  1  0
 19 21  2  0
 19 22  1  0
 21 23  1  0
 22 24  2  0
 23 25  2  0
 24 25  1  0
M  END
