diamond-x0837_0_A-mac-x0341
     RDKit          3D

 14 15  0  0  0  0  0  0  0  0999 V2000
   -7.7620   14.6900   -0.0470 O   0  0  0  0  0  0  0  0  0  0  0  0
   -6.5470   14.7920    0.0600 C   0  0  0  0  0  0  0  0  0  0  0  0
   -5.8580   14.8280    1.2780 N   0  0  0  0  0  0  0  0  0  0  0  0
   -5.7070   14.8890   -1.2160 C   0  0  0  0  0  0  0  0  0  0  0  0
   -6.6450   14.7750    2.4480 N   0  0  0  0  0  0  0  0  0  0  0  0
   -6.2810   15.0340   -2.2870 O   0  0  0  0  0  0  0  0  0  0  0  0
   -4.4970   14.9580    1.4110 C   0  0  0  0  0  0  0  0  0  0  0  0
   -4.1960   14.7850   -1.0730 C   0  0  2  0  0  0  0  0  0  0  0  0
   -3.6270   12.8140   -1.8350 I   0  0  0  0  0  0  0  0  0  0  0  0
   -3.6840   14.9370    0.3490 C   0  0  0  0  0  0  0  0  0  0  0  0
   -3.4040   15.5720   -2.0720 C   0  0  0  0  0  0  0  0  0  0  0  0
   -2.2450   15.0510    0.4740 C   0  0  0  0  0  0  0  0  0  0  0  0
   -2.1290   15.8810   -1.8180 C   0  0  0  0  0  0  0  0  0  0  0  0
   -1.5140   15.4930   -0.5630 C   0  0  0  0  0  0  0  0  0  0  0  0
  1  2  2  0
  2  3  1  0
  2  4  1  0
  3  5  1  0
  4  6  2  0
  3  7  1  0
  4  8  1  0
  8  9  1  6
  7 10  2  0
  8 10  1  0
  8 11  1  0
 10 12  1  0
 11 13  2  0
 12 14  2  0
 13 14  1  0
M  END
