diamond-x0689_0_A-mac-x0453
     RDKit          3D

 15 16  0  0  0  0  0  0  0  0999 V2000
   -3.6520   14.9660    1.8030 N   0  0  0  0  0  0  0  0  0  0  0  0
   -4.7710   14.7960    0.8890 C   0  0  2  0  0  0  0  0  0  0  0  0
   -5.8170   13.7000    1.2990 C   0  0  0  0  0  0  0  0  0  0  0  0
   -2.4020   14.7680    1.2310 C   0  0  0  0  0  0  0  0  0  0  0  0
   -2.2830   14.9030   -0.0980 N   0  0  0  0  0  0  0  0  0  0  0  0
   -1.3890   14.4540    2.0030 N   0  0  0  0  0  0  0  0  0  0  0  0
   -4.2720   14.6600   -0.5060 C   0  0  0  0  0  0  0  0  0  0  0  0
   -6.8460   14.1390    2.2690 N   0  0  0  0  0  0  0  0  0  0  0  0
   -1.0640   14.7020   -0.6430 C   0  0  0  0  0  0  0  0  0  0  0  0
   -0.2070   14.2620    1.4390 C   0  0  0  0  0  0  0  0  0  0  0  0
   -3.3240   13.7850   -0.9760 C   0  0  0  0  0  0  0  0  0  0  0  0
   -4.7340   15.4600   -1.5170 N   0  0  0  0  0  0  0  0  0  0  0  0
    0.0340   14.3730    0.0960 C   0  0  0  0  0  0  0  0  0  0  0  0
   -3.2030   14.0690   -2.2970 N   0  0  0  0  0  0  0  0  0  0  0  0
   -4.0680   15.0780   -2.5780 C   0  0  0  0  0  0  0  0  0  0  0  0
  1  2  1  0
  2  3  1  1
  1  4  1  0
  4  5  2  0
  4  6  1  0
  2  7  1  0
  3  8  1  0
  5  9  1  0
  6 10  2  0
  7 11  2  0
  7 12  1  0
  9 13  2  0
 10 13  1  0
 11 14  1  0
 12 15  2  0
 14 15  1  0
M  END
