diamond-x0837_0_A-diamond-x0724_0_A
     RDKit          3D

 15 16  0  0  0  0  0  0  0  0999 V2000
   -7.5960   15.7420   -0.5370 O   0  0  0  0  0  0  0  0  0  0  0  0
   -6.7540   14.6670   -0.1640 C   0  0  2  0  0  0  0  0  0  0  0  0
   -5.6610   14.5140   -1.2400 C   0  0  0  0  0  0  0  0  0  0  0  0
   -7.6670   13.5300   -0.0500 N   0  0  0  0  0  0  0  0  0  0  0  0
   -6.2830   14.8070    1.2850 C   0  0  2  0  0  0  0  0  0  0  0  0
   -5.2470   13.8940    1.6020 N   0  0  0  0  0  0  0  0  0  0  0  0
   -4.3100   15.2080   -0.9980 C   0  0  2  0  0  0  0  0  0  0  0  0
   -7.6590   14.7990    1.9860 C   0  0  1  0  0  0  0  0  0  0  0  0
   -8.2130   13.5450    1.3320 C   0  0  0  0  0  0  0  0  0  0  0  0
   -3.0350   14.6640   -2.7640 I   0  0  0  0  0  0  0  0  0  0  0  0
   -7.6970   14.8810    3.5270 C   0  0  0  0  0  0  0  0  0  0  0  0
   -3.9570   14.2340    1.3160 C   0  0  0  0  0  0  0  0  0  0  0  0
   -3.4940   14.8070    0.2100 C   0  0  0  0  0  0  0  0  0  0  0  0
   -8.3350   13.7700    4.2410 N   0  0  0  0  0  0  0  0  0  0  0  0
   -8.5320   14.0460    5.6590 C   0  0  0  0  0  0  0  0  0  0  0  0
  2  1  1  6
  2  3  1  0
  2  4  1  0
  2  5  1  0
  5  6  1  1
  3  7  1  0
  5  8  1  0
  4  9  1  0
  8  9  1  0
  7 10  1  6
  8 11  1  1
  6 12  1  0
  7 13  1  0
 12 13  2  0
 11 14  1  0
 14 15  1  0
M  END
