diamond-x0910_0_A-mac-x0510
     RDKit          3D

 11 12  0  0  0  0  0  0  0  0999 V2000
   -2.2750   13.5720   -1.5800 N   0  0  0  0  0  0  0  0  0  0  0  0
   -2.0930   14.6610   -0.6680 C   0  0  1  0  0  0  0  0  0  0  0  0
   -2.3830   14.2760    0.7260 N   0  0  0  0  0  0  0  0  0  0  0  0
   -0.6770   14.9970   -0.7350 N   0  0  0  0  0  0  0  0  0  0  0  0
   -3.0270   15.7930   -1.0950 C   0  0  0  0  0  0  0  0  0  0  0  0
   -1.2910   14.8060    1.5110 N   0  0  0  0  0  0  0  0  0  0  0  0
   -0.1560   14.7890    0.6100 C   0  0  0  0  0  0  0  0  0  0  0  0
   -3.6240   14.7430    1.2550 N   0  0  0  0  0  0  0  0  0  0  0  0
   -4.4080   15.5160   -0.7810 N   0  0  0  0  0  0  0  0  0  0  0  0
   -4.6960   15.0940    0.4730 C   0  0  0  0  0  0  0  0  0  0  0  0
   -5.8570   15.0230    0.8630 O   0  0  0  0  0  0  0  0  0  0  0  0
  2  1  1  6
  2  3  1  0
  2  4  1  0
  2  5  1  0
  3  6  1  0
  4  7  1  0
  6  7  1  0
  3  8  1  0
  5  9  1  0
  8 10  1  0
  9 10  1  0
 10 11  2  0
M  END
