diamond-x0766_0_A-diamond-x0587_0_A
     RDKit          3D

 26 28  0  0  0  0  0  0  0  0999 V2000
    0.7660   12.1190   -2.8670 C   0  0  0  0  0  0  0  0  0  0  0  0
    0.0920   10.9670   -3.0490 O   0  0  0  0  0  0  0  0  0  0  0  0
    1.5410   12.2390   -1.9530 O   0  0  0  0  0  0  0  0  0  0  0  0
    0.4520   13.2000   -3.8440 C   0  0  2  0  0  0  0  0  0  0  0  0
    1.5430   13.5170   -4.8540 C   0  0  0  0  0  0  0  0  0  0  0  0
    0.2460   14.4890   -3.0660 C   0  0  1  0  0  0  0  0  0  0  0  0
    1.6650   15.0410   -4.8450 C   0  0  0  0  0  0  0  0  0  0  0  0
    0.6120   15.6200   -3.9740 C   0  0  0  0  0  0  0  0  0  0  0  0
   -1.1170   14.6710   -2.6400 C   0  0  0  0  0  0  0  0  0  0  0  0
   -2.1090   14.8780   -3.5600 C   0  0  0  0  0  0  0  0  0  0  0  0
   -1.5840   14.6660   -1.3160 C   0  0  0  0  0  0  0  0  0  0  0  0
   -2.9120   14.8710   -1.3060 C   0  0  0  0  0  0  0  0  0  0  0  0
   -3.5940   15.0710   -2.8480 S   0  0  0  0  0  0  0  0  0  0  0  0
   -3.8060   14.9500   -0.4360 O   0  0  0  0  0  0  0  0  0  0  0  0
   -5.0050   14.5270   -1.0440 C   0  0  0  0  0  0  0  0  0  0  0  0
   -4.8150   13.3020   -1.6340 F   0  0  0  0  0  0  0  0  0  0  0  0
   -5.2990   15.3950   -2.0620 F   0  0  0  0  0  0  0  0  0  0  0  0
   -6.0110   14.5960    0.0290 C   0  0  0  0  0  0  0  0  0  0  0  0
   -7.3180   14.4760   -0.2620 N   0  0  0  0  0  0  0  0  0  0  0  0
   -5.4700   14.7930    1.2360 N   0  0  0  0  0  0  0  0  0  0  0  0
   -8.1370   14.5850    0.7960 C   0  0  0  0  0  0  0  0  0  0  0  0
   -6.3280   14.8920    2.2350 C   0  0  0  0  0  0  0  0  0  0  0  0
   -7.6760   14.7990    2.0720 C   0  0  0  0  0  0  0  0  0  0  0  0
   -8.5840   14.9270    3.1910 C   0  0  0  0  0  0  0  0  0  0  0  0
   -8.0190   14.8310    4.4260 N   0  0  0  0  0  0  0  0  0  0  0  0
   -9.7780   15.1230    3.0190 O   0  0  0  0  0  0  0  0  0  0  0  0
  1  2  1  0
  1  3  2  0
  4  1  1  1
  4  5  1  0
  4  6  1  0
  5  7  1  0
  6  8  1  0
  7  8  1  0
  6  9  1  6
  9 10  2  0
  9 11  1  0
 11 12  2  0
 10 13  1  0
 12 13  1  0
 12 14  1  0
 14 15  1  0
 15 16  1  0
 15 17  1  0
 15 18  1  0
 18 19  2  0
 18 20  1  0
 19 21  1  0
 20 22  2  0
 21 23  2  0
 22 23  1  0
 23 24  1  0
 24 25  1  0
 24 26  2  0
M  END
