diamond-x1018_0_A-mac-x0188
     RDKit          3D

 18 20  0  0  0  0  0  0  0  0999 V2000
   -7.8810   14.8080   -0.1020 Cl  0  0  0  0  0  0  0  0  0  0  0  0
   -6.1450   14.7830   -0.1170 C   0  0  0  0  0  0  0  0  0  0  0  0
   -5.4770   14.1730    1.0500 C   0  0  0  0  0  0  0  0  0  0  0  0
   -5.5030   15.2950   -1.1580 N   0  0  0  0  0  0  0  0  0  0  0  0
   -4.1070   15.2510   -1.1070 N   0  0  0  0  0  0  0  0  0  0  0  0
   -4.1660   13.9440    0.9270 C   0  0  0  0  0  0  0  0  0  0  0  0
   -3.3070   15.3360   -2.2930 N   0  0  0  0  0  0  0  0  0  0  0  0
   -3.4120   14.3000   -0.3080 C   0  0  1  0  0  0  0  0  0  0  0  0
   -3.2630   13.2760   -1.3390 N   0  0  0  0  0  0  0  0  0  0  0  0
   -2.6470   14.0180   -2.4550 C   0  0  1  0  0  0  0  0  0  0  0  0
   -3.0980   13.5220   -3.7560 N   0  0  0  0  0  0  0  0  0  0  0  0
   -1.1310   13.5650   -2.5090 C   0  0  2  0  0  0  0  0  0  0  0  0
   -0.0000   14.2970   -1.8220 C   0  0  0  0  0  0  0  0  0  0  0  0
   -0.7920   13.3210   -3.9860 C   0  0  1  0  0  0  0  0  0  0  0  0
   -1.9590   13.7700   -4.6840 O   0  0  0  0  0  0  0  0  0  0  0  0
    0.4860   13.9720   -4.5300 C   0  0  0  0  0  0  0  0  0  0  0  0
    0.2530   15.4830   -1.8010 O   0  0  0  0  0  0  0  0  0  0  0  0
    0.8120   13.4030   -1.1830 O   0  0  0  0  0  0  0  0  0  0  0  0
  1  2  1  0
  2  3  1  0
  2  4  2  0
  4  5  1  0
  3  6  2  0
  5  7  1  0
  5  8  1  0
  8  6  1  1
  8  9  1  0
 10  7  1  1
  9 10  1  0
 10 11  1  0
 10 12  1  0
 12 13  1  6
 12 14  1  0
 11 15  1  0
 14 15  1  0
 14 16  1  6
 13 17  2  0
 13 18  1  0
M  END
