diamond-x0962_0_A-diamond-x0290_0_A
     RDKit          3D

 19 20  0  0  0  0  0  0  0  0999 V2000
   -2.2250   14.8430   -1.9750 C   0  0  0  0  0  0  0  0  0  0  0  0
   -3.3220   14.9770   -2.3210 C   0  0  0  0  0  0  0  0  0  0  0  0
   -4.6600   15.0620   -1.9120 C   0  0  0  0  0  0  0  0  0  0  0  0
   -1.5660   14.7300   -0.7700 C   0  0  0  0  0  0  0  0  0  0  0  0
   -0.2960   14.8530   -0.2610 C   0  0  0  0  0  0  0  0  0  0  0  0
   -2.6250   14.4350    0.0150 C   0  0  0  0  0  0  0  0  0  0  0  0
   -4.8830   15.1430   -0.5620 N   0  0  0  0  0  0  0  0  0  0  0  0
   -5.9020   15.0830   -2.4720 C   0  0  0  0  0  0  0  0  0  0  0  0
   -0.2590   14.6580    1.1250 C   0  0  0  0  0  0  0  0  0  0  0  0
   -2.5250   14.2570    1.3060 C   0  0  0  0  0  0  0  0  0  0  0  0
   -3.6920   13.9580    1.9920 N   0  0  0  0  0  0  0  0  0  0  0  0
   -6.2070   15.1960   -0.3520 C   0  0  0  0  0  0  0  0  0  0  0  0
   -6.8640   15.1680   -1.4820 N   0  0  0  0  0  0  0  0  0  0  0  0
   -1.3360   14.3670    1.9130 N   0  0  0  0  0  0  0  0  0  0  0  0
   -4.8660   13.5280    1.3880 C   0  0  0  0  0  0  0  0  0  0  0  0
   -4.9470   13.0250    0.2690 O   0  0  0  0  0  0  0  0  0  0  0  0
   -6.1510   13.7220    2.2210 C   0  0  0  0  0  0  0  0  0  0  0  0
   -7.3990   13.5150    1.4300 N   0  0  0  0  0  0  0  0  0  0  0  0
   -8.3440   14.6280    1.5670 C   0  0  0  0  0  0  0  0  0  0  0  0
  1  2  3  0
  2  3  1  0
  1  4  1  0
  4  5  2  0
  4  6  1  0
  3  7  1  0
  3  8  2  0
  5  9  1  0
  6 10  2  0
 10 11  1  0
  7 12  1  0
  8 13  1  0
 12 13  2  0
  9 14  2  0
 10 14  1  0
 11 15  1  0
 15 16  2  0
 15 17  1  0
 17 18  1  0
 18 19  1  0
M  END
