diamond-x0895_0_A-diamond-x0967_0_A
     RDKit          3D

 12 13  0  0  0  0  0  0  0  0999 V2000
   -1.5360   14.6150    1.8110 O   0  0  0  0  0  0  0  0  0  0  0  0
   -2.4900   14.4650    1.0600 C   0  0  0  0  0  0  0  0  0  0  0  0
   -3.6810   13.5930    1.2450 C   0  0  0  0  0  0  0  0  0  0  0  0
   -2.6800   15.0750   -0.1130 N   0  0  0  0  0  0  0  0  0  0  0  0
   -4.8200   14.3840    0.6040 C   0  0  1  0  0  0  0  0  0  0  0  0
   -4.0080   15.2730   -0.3460 C   0  0  0  0  0  0  0  0  0  0  0  0
   -4.4280   16.0010   -1.2150 O   0  0  0  0  0  0  0  0  0  0  0  0
   -5.6890   13.5000   -0.3270 C   0  0  0  0  0  0  0  0  0  0  0  0
   -5.6580   14.9640    1.7160 C   0  0  0  0  0  0  0  0  0  0  0  0
   -7.0090   14.0790   -0.6030 N   0  0  0  0  0  0  0  0  0  0  0  0
   -7.0050   14.8360    1.7210 C   0  0  0  0  0  0  0  0  0  0  0  0
   -7.7780   14.1640    0.6310 C   0  0  0  0  0  0  0  0  0  0  0  0
  1  2  2  0
  2  3  1  0
  2  4  1  0
  5  3  1  1
  4  6  1  0
  5  6  1  0
  6  7  2  0
  5  8  1  0
  5  9  1  0
  8 10  1  0
  9 11  2  0
 10 12  1  0
 11 12  1  0
M  END
