diamond-x0685_1_A-mac-x0282
     RDKit          3D

 22 24  0  0  0  0  0  0  0  0999 V2000
   -1.1470   10.6570   -4.7070 N   0  0  0  0  0  0  0  0  0  0  0  0
   -1.3970   12.0530   -4.3050 C   0  0  0  0  0  0  0  0  0  0  0  0
   -0.1180   12.8560   -4.0160 C   0  0  0  0  0  0  0  0  0  0  0  0
   -0.6300   10.4270   -6.0740 C   0  0  0  0  0  0  0  0  0  0  0  0
   -0.5030    8.9220   -6.3670 C   0  0  0  0  0  0  0  0  0  0  0  0
   -1.5670   11.0410   -7.1370 C   0  0  0  0  0  0  0  0  0  0  0  0
    0.7960   12.4330   -2.5180 S   0  0  0  0  0  0  0  0  0  0  0  0
    0.0790    8.6680   -7.7560 C   0  0  0  0  0  0  0  0  0  0  0  0
   -1.0860   10.7740   -8.5730 C   0  0  0  0  0  0  0  0  0  0  0  0
    2.2830   12.1950   -3.0660 O   0  0  0  0  0  0  0  0  0  0  0  0
    0.1880   11.0620   -1.9110 O   0  0  0  0  0  0  0  0  0  0  0  0
    0.7660   13.6250   -1.3990 O   0  0  0  0  0  0  0  0  0  0  0  0
   -0.8090    9.2910   -8.8320 C   0  0  0  0  0  0  0  0  0  0  0  0
   -0.3550   14.0560   -0.7270 C   0  0  0  0  0  0  0  0  0  0  0  0
   -1.4880   14.4530   -1.4000 C   0  0  0  0  0  0  0  0  0  0  0  0
   -0.3720   14.0970    0.6840 C   0  0  0  0  0  0  0  0  0  0  0  0
   -2.5820   14.8550   -0.6420 C   0  0  0  0  0  0  0  0  0  0  0  0
   -1.4040   14.4870    1.4890 N   0  0  0  0  0  0  0  0  0  0  0  0
   -3.8780   15.3080   -0.9580 C   0  0  0  0  0  0  0  0  0  0  0  0
   -2.4700   14.8440    0.7490 C   0  0  0  0  0  0  0  0  0  0  0  0
   -4.5230   15.5490    0.2220 C   0  0  0  0  0  0  0  0  0  0  0  0
   -3.6630   15.2660    1.2490 N   0  0  0  0  0  0  0  0  0  0  0  0
  1  2  1  0
  2  3  1  0
  1  4  1  0
  4  5  1  0
  4  6  1  0
  3  7  1  0
  5  8  1  0
  6  9  1  0
  7 10  1  0
  7 11  1  0
  7 12  1  0
  8 13  1  0
  9 13  1  0
 12 14  1  0
 14 15  2  0
 14 16  1  0
 15 17  1  0
 16 18  2  0
 17 19  1  0
 17 20  2  0
 18 20  1  0
 19 21  2  0
 20 22  1  0
 21 22  1  0
M  END
