diamond-x0438_0_A-diamond-x0905_0_A
     RDKit          3D

 15 16  0  0  0  0  0  0  0  0999 V2000
   -8.2580   15.6430    3.9780 C   0  0  0  0  0  0  0  0  0  0  0  0
   -9.4240   15.3290    2.6650 S   0  0  0  0  0  0  0  0  0  0  0  0
  -10.6790   14.8940    3.2560 O   0  0  0  0  0  0  0  0  0  0  0  0
   -8.7420   13.9370    1.7870 C   0  0  0  0  0  0  0  0  0  0  0  0
   -9.4320   16.4610    1.7610 O   0  0  0  0  0  0  0  0  0  0  0  0
   -7.4280   14.2750    1.1940 C   0  0  0  0  0  0  0  0  0  0  0  0
   -7.2820   14.6350   -0.1160 N   0  0  0  0  0  0  0  0  0  0  0  0
   -6.2660   14.2750    1.8100 N   0  0  0  0  0  0  0  0  0  0  0  0
   -5.3360   14.6370    0.8710 C   0  0  0  0  0  0  0  0  0  0  0  0
   -5.9600   14.8670   -0.3380 C   0  0  0  0  0  0  0  0  0  0  0  0
   -5.2810   15.2430   -1.4600 C   0  0  0  0  0  0  0  0  0  0  0  0
   -3.9450   14.7890    0.9760 C   0  0  0  0  0  0  0  0  0  0  0  0
   -5.9500   15.4520   -2.6170 O   0  0  0  0  0  0  0  0  0  0  0  0
   -3.8980   15.3970   -1.3810 C   0  0  0  0  0  0  0  0  0  0  0  0
   -3.2340   15.1690   -0.1700 C   0  0  0  0  0  0  0  0  0  0  0  0
  2  1  1  0
  2  3  2  0
  2  4  1  0
  2  5  2  0
  4  6  1  0
  6  7  1  0
  6  8  2  0
  8  9  1  0
  7 10  1  0
  9 10  2  0
 10 11  1  0
  9 12  1  0
 11 13  1  0
 11 14  2  0
 12 15  2  0
 14 15  1  0
M  END
