diamond-x0967_0_A-diamond-x0864_0_A
     RDKit          3D

 25 27  0  0  0  0  0  0  0  0999 V2000
    1.4480   12.0770   -6.6480 O   0  0  0  0  0  0  0  0  0  0  0  0
    0.4580   11.4570   -6.2740 C   0  0  0  0  0  0  0  0  0  0  0  0
   -0.2030   11.7300   -5.0780 N   0  0  0  0  0  0  0  0  0  0  0  0
   -0.0770   10.3410   -7.0930 C   0  0  0  0  0  0  0  0  0  0  0  0
    0.5490   12.4160   -4.0150 C   0  0  0  0  0  0  0  0  0  0  0  0
   -1.4150   11.1360   -4.7720 C   0  0  0  0  0  0  0  0  0  0  0  0
   -1.2160    9.7370   -6.7270 C   0  0  0  0  0  0  0  0  0  0  0  0
    0.4960   11.6360   -2.6950 C   0  0  0  0  0  0  0  0  0  0  0  0
   -1.9410    8.3200   -7.7000 Br  0  0  0  0  0  0  0  0  0  0  0  0
   -1.9270   10.1720   -5.5480 C   0  0  0  0  0  0  0  0  0  0  0  0
    0.5010   10.2890   -2.7690 O   0  0  0  0  0  0  0  0  0  0  0  0
    0.4420   12.1610   -1.5260 N   0  0  0  0  0  0  0  0  0  0  0  0
    0.4080   13.5670   -1.2240 C   0  0  0  0  0  0  0  0  0  0  0  0
   -0.5520   13.6630   -0.0340 C   0  0  0  0  0  0  0  0  0  0  0  0
   -1.3570   14.9350   -0.0540 C   0  0  0  0  0  0  0  0  0  0  0  0
   -2.8660   14.8740   -0.2150 C   0  0  0  0  0  0  0  0  0  0  0  0
   -3.4920   14.8670   -1.4590 C   0  0  0  0  0  0  0  0  0  0  0  0
   -3.7110   14.8250    0.8920 C   0  0  0  0  0  0  0  0  0  0  0  0
   -5.1030   14.7640    0.7090 C   0  0  0  0  0  0  0  0  0  0  0  0
   -4.8350   14.8100   -1.6520 N   0  0  0  0  0  0  0  0  0  0  0  0
   -5.6360   14.7550   -0.5930 C   0  0  0  0  0  0  0  0  0  0  0  0
   -5.9780   14.7080    1.7930 C   0  0  0  0  0  0  0  0  0  0  0  0
   -6.9590   14.6890   -0.7900 N   0  0  0  0  0  0  0  0  0  0  0  0
   -7.3460   14.6360    1.5870 C   0  0  0  0  0  0  0  0  0  0  0  0
   -7.7840   14.6300    0.2780 C   0  0  0  0  0  0  0  0  0  0  0  0
  1  2  2  0
  2  3  1  0
  2  4  1  0
  3  5  1  0
  3  6  1  0
  4  7  2  0
  5  8  1  0
  7  9  1  0
  6 10  2  0
  7 10  1  0
  8 11  1  0
  8 12  2  3
 12 13  1  0
 13 14  1  0
 14 15  1  0
 15 16  1  0
 16 17  2  0
 16 18  1  0
 18 19  2  0
 17 20  1  0
 19 21  1  0
 20 21  2  0
 19 22  1  0
 21 23  1  0
 22 24  2  0
 23 25  2  0
 24 25  1  0
M  END
