diamond-x0852_0_B-diamond-x1018_0_A
     RDKit          3D

 22 24  0  0  0  0  0  0  0  0999 V2000
   -9.6270   17.7980    7.1400 N   0  0  0  0  0  0  0  0  0  0  0  0
   -9.4170   17.2480    6.1350 C   0  0  0  0  0  0  0  0  0  0  0  0
   -9.2460   16.5250    4.9150 C   0  0  0  0  0  0  0  0  0  0  0  0
   -8.3390   15.4620    4.8020 C   0  0  0  0  0  0  0  0  0  0  0  0
  -10.0250   16.8930    3.7990 C   0  0  0  0  0  0  0  0  0  0  0  0
   -7.5180   14.9970    5.7910 O   0  0  0  0  0  0  0  0  0  0  0  0
   -8.2230   14.7810    3.6040 C   0  0  0  0  0  0  0  0  0  0  0  0
   -9.9080   16.2030    2.5850 C   0  0  0  0  0  0  0  0  0  0  0  0
  -10.6110   16.4450    1.4210 O   0  0  0  0  0  0  0  0  0  0  0  0
   -9.0030   15.1480    2.5130 C   0  0  0  0  0  0  0  0  0  0  0  0
   -9.8870   16.6350    0.1780 C   0  0  0  0  0  0  0  0  0  0  0  0
   -9.1520   15.3600   -0.2830 C   0  0  0  0  0  0  0  0  0  0  0  0
   -8.2230   14.7030    0.7510 C   0  0  0  0  0  0  0  0  0  0  0  0
   -6.7520   14.7200    0.3550 C   0  0  0  0  0  0  0  0  0  0  0  0
   -6.4430   14.8090   -0.8980 N   0  0  0  0  0  0  0  0  0  0  0  0
   -5.7550   14.6410    1.4770 C   0  0  0  0  0  0  0  0  0  0  0  0
   -5.1060   14.8260   -1.1110 N   0  0  0  0  0  0  0  0  0  0  0  0
   -4.4540   14.6660    1.1710 C   0  0  0  0  0  0  0  0  0  0  0  0
   -4.5750   14.9150   -2.3360 N   0  0  0  0  0  0  0  0  0  0  0  0
   -4.0870   14.7630   -0.1810 C   0  0  0  0  0  0  0  0  0  0  0  0
   -2.9410   14.8100   -0.8200 N   0  0  0  0  0  0  0  0  0  0  0  0
   -3.2610   14.9040   -2.1550 N   0  0  0  0  0  0  0  0  0  0  0  0
  1  2  3  0
  2  3  1  0
  3  4  2  0
  3  5  1  0
  4  6  1  0
  4  7  1  0
  5  8  2  0
  8  9  1  0
  7 10  2  0
  8 10  1  0
  9 11  1  0
 11 12  1  0
 12 13  1  0
 13 14  1  0
 14 15  2  0
 14 16  1  0
 15 17  1  0
 16 18  2  0
 17 19  1  0
 17 20  1  0
 18 20  1  0
 20 21  2  0
 19 22  2  0
 21 22  1  0
M  END
