diamond-x1012_0_A-diamond-x0631_0_A
     RDKit          3D

 31 33  0  0  0  0  0  0  0  0999 V2000
   -0.3180   18.2890   -4.6910 N   0  0  0  0  0  0  0  0  0  0  0  0
   -1.2080   17.2830   -4.7870 C   0  0  0  0  0  0  0  0  0  0  0  0
   -2.3960   17.5590   -4.7930 O   0  0  0  0  0  0  0  0  0  0  0  0
   -0.7040   16.0070   -4.8310 N   0  0  0  0  0  0  0  0  0  0  0  0
   -1.5480   14.8200   -4.9520 C   0  0  0  0  0  0  0  0  0  0  0  0
    0.7340   15.7880   -4.6160 C   0  0  0  0  0  0  0  0  0  0  0  0
   -1.2560   13.8040   -3.8660 C   0  0  0  0  0  0  0  0  0  0  0  0
    0.9900   14.8210   -3.4540 C   0  0  0  0  0  0  0  0  0  0  0  0
    0.2440   13.5070   -3.7030 C   0  0  0  0  0  0  0  0  0  0  0  0
    0.4370   12.4200   -2.6430 C   0  0  0  0  0  0  0  0  0  0  0  0
    0.2410   11.1850   -3.2070 O   0  0  0  0  0  0  0  0  0  0  0  0
    0.7130   12.6260   -1.4580 O   0  0  0  0  0  0  0  0  0  0  0  0
   -0.1700   11.1630   -4.6090 C   0  0  0  0  0  0  0  0  0  0  0  0
   -1.1290    9.9960   -4.8670 C   0  0  0  0  0  0  0  0  0  0  0  0
   -0.5090    8.7140   -5.4000 C   0  0  0  0  0  0  0  0  0  0  0  0
   -0.2640    8.5830   -6.9200 C   0  0  1  0  0  0  0  0  0  0  0  0
   -1.4230    7.7050   -7.4160 C   0  0  0  0  0  0  0  0  0  0  0  0
   -0.3100    9.8510   -7.6750 N   0  0  0  0  0  0  0  0  0  0  0  0
   -2.6910    8.5070   -7.6920 C   0  0  0  0  0  0  0  0  0  0  0  0
    0.6760   10.8260   -7.3480 N   0  0  0  0  0  0  0  0  0  0  0  0
   -0.1500    9.5700   -9.1050 N   0  0  0  0  0  0  0  0  0  0  0  0
    0.9690   11.3620   -8.6410 N   0  0  0  0  0  0  0  0  0  0  0  0
    1.1230   10.1520   -9.3960 C   0  0  2  0  0  0  0  0  0  0  0  0
    1.3400   10.4750  -10.7660 N   0  0  0  0  0  0  0  0  0  0  0  0
    2.2700    9.6300  -11.4930 C   0  0  1  0  0  0  0  0  0  0  0  0
    1.7030    8.3290  -11.5060 O   0  0  0  0  0  0  0  0  0  0  0  0
    2.6030   10.0380  -12.9610 C   0  0  2  0  0  0  0  0  0  0  0  0
    3.9580    9.6170  -13.2440 O   0  0  0  0  0  0  0  0  0  0  0  0
    2.5970   11.5170  -13.3060 C   0  0  0  0  0  0  0  0  0  0  0  0
    3.5570   11.6160  -14.4750 C   0  0  0  0  0  0  0  0  0  0  0  0
    4.3750   10.3380  -14.4060 C   0  0  0  0  0  0  0  0  0  0  0  0
  1  2  1  0
  2  3  2  0
  2  4  1  0
  4  5  1  0
  4  6  1  0
  5  7  1  0
  6  8  1  0
  7  9  1  0
  8  9  1  0
  9 10  1  0
 10 11  1  0
 10 12  2  0
 11 13  1  0
 13 14  1  0
 14 15  1  0
 16 15  1  1
 16 17  1  0
 16 18  1  0
 17 19  1  0
 18 20  1  0
 18 21  1  0
 20 22  1  0
 21 23  1  0
 22 23  1  0
 23 24  1  6
 24 25  1  0
 25 26  1  6
 25 27  1  0
 27 28  1  0
 27 29  1  1
 29 30  1  0
 28 31  1  0
 30 31  1  0
M  END
