diamond-x0926_0_A-mac-x0206
     RDKit          3D

 15 16  0  0  0  0  0  0  0  0999 V2000
   -3.4950   13.8550    1.5500 N   0  0  0  0  0  0  0  0  0  0  0  0
   -4.6060   13.8040    0.7570 C   0  0  0  0  0  0  0  0  0  0  0  0
   -4.6250   13.0540   -0.2230 O   0  0  0  0  0  0  0  0  0  0  0  0
   -5.7450   14.7850    1.1330 C   0  0  1  0  0  0  0  0  0  0  0  0
   -6.0940   15.1690   -0.2550 C   0  0  0  0  0  0  0  0  0  0  0  0
   -6.8660   14.1910    1.9340 C   0  0  0  0  0  0  0  0  0  0  0  0
   -4.9740   15.4340   -0.9030 C   0  0  0  0  0  0  0  0  0  0  0  0
   -7.4960   15.1430   -0.6550 C   0  0  0  0  0  0  0  0  0  0  0  0
   -8.1110   14.1490    1.4780 C   0  0  0  0  0  0  0  0  0  0  0  0
   -3.7290   15.3730   -0.0180 C   0  0  0  0  0  0  0  0  0  0  0  0
   -4.7320   15.7440   -2.2200 N   0  0  0  0  0  0  0  0  0  0  0  0
   -8.4370   14.6650    0.1760 C   0  0  0  0  0  0  0  0  0  0  0  0
   -3.5440   15.3460   -2.7830 N   0  0  0  0  0  0  0  0  0  0  0  0
   -2.5320   14.8310   -0.7010 C   0  0  0  0  0  0  0  0  0  0  0  0
   -2.4980   14.8420   -2.0340 C   0  0  0  0  0  0  0  0  0  0  0  0
  1  2  1  0
  2  3  2  0
  4  2  1  6
  4  5  1  0
  4  6  1  0
  5  7  2  3
  5  8  1  0
  6  9  2  0
  7 10  1  0
  7 11  1  0
  8 12  2  0
  9 12  1  0
 11 13  1  0
 10 14  1  0
 13 15  1  0
 14 15  2  0
M  END
