diamond-x0626_0_A-mac-x0204
     RDKit          3D

 23 24  0  0  0  0  0  0  0  0999 V2000
   -4.9140   14.8720    1.4820 N   0  0  0  0  0  0  0  0  0  0  0  0
   -6.1020   14.6950    0.8320 C   0  0  0  0  0  0  0  0  0  0  0  0
   -6.1430   14.8350   -0.3950 O   0  0  0  0  0  0  0  0  0  0  0  0
   -3.6890   14.7970    0.9050 C   0  0  0  0  0  0  0  0  0  0  0  0
   -7.3410   14.3400    1.6360 C   0  0  0  0  0  0  0  0  0  0  0  0
   -2.4950   14.6610    1.4570 N   0  0  0  0  0  0  0  0  0  0  0  0
   -3.7610   14.8930   -0.7950 S   0  0  0  0  0  0  0  0  0  0  0  0
   -8.6220   14.5660    0.8500 C   0  0  0  0  0  0  0  0  0  0  0  0
   -2.0690   14.7300   -0.8390 C   0  0  0  0  0  0  0  0  0  0  0  0
   -1.5580   14.6230    0.4350 C   0  0  0  0  0  0  0  0  0  0  0  0
   -0.1150   14.4760    0.7140 C   0  0  0  0  0  0  0  0  0  0  0  0
    0.6970   14.7470   -0.5540 C   0  0  0  0  0  0  0  0  0  0  0  0
    1.0970   13.4820   -1.2940 C   0  0  0  0  0  0  0  0  0  0  0  0
    0.5080   13.3490   -2.5720 O   0  0  0  0  0  0  0  0  0  0  0  0
    0.2350   14.5090   -3.1670 C   0  0  0  0  0  0  0  0  0  0  0  0
    0.8550   15.5480   -3.0280 O   0  0  0  0  0  0  0  0  0  0  0  0
   -0.9430   14.3440   -4.0250 C   0  0  0  0  0  0  0  0  0  0  0  0
   -1.4880   15.4630   -4.6400 C   0  0  0  0  0  0  0  0  0  0  0  0
   -1.5380   13.1060   -4.2510 C   0  0  0  0  0  0  0  0  0  0  0  0
   -2.5980   15.3080   -5.4510 C   0  0  0  0  0  0  0  0  0  0  0  0
   -2.6280   12.9270   -5.0420 N   0  0  0  0  0  0  0  0  0  0  0  0
   -3.1160   16.4200   -6.0480 O   0  0  0  0  0  0  0  0  0  0  0  0
   -3.1330   14.0370   -5.6250 C   0  0  0  0  0  0  0  0  0  0  0  0
  1  2  1  0
  2  3  2  0
  1  4  1  0
  2  5  1  0
  4  6  2  0
  4  7  1  0
  5  8  1  0
  7  9  1  0
  6 10  1  0
  9 10  2  0
 10 11  1  0
 11 12  1  0
 12 13  1  0
 13 14  1  0
 14 15  1  0
 15 16  2  0
 15 17  1  0
 17 18  2  0
 17 19  1  0
 18 20  1  0
 19 21  2  0
 20 22  1  0
 20 23  2  0
 21 23  1  0
M  END
