diamond-x0967_0_A-mac-x0496
     RDKit          3D

 23 25  0  0  0  0  0  0  0  0999 V2000
   -9.7160   17.4630    4.7440 C   0  0  0  0  0  0  0  0  0  0  0  0
   -9.8400   16.7250    3.4680 C   0  0  0  0  0  0  0  0  0  0  0  0
  -10.9610   16.7290    2.7450 N   0  0  0  0  0  0  0  0  0  0  0  0
   -8.8170   15.9840    2.9300 N   0  0  0  0  0  0  0  0  0  0  0  0
  -10.6350   15.9530    1.6280 O   0  0  0  0  0  0  0  0  0  0  0  0
   -9.3390   15.5480    1.7960 C   0  0  0  0  0  0  0  0  0  0  0  0
   -8.7600   14.7080    0.6880 C   0  0  0  0  0  0  0  0  0  0  0  0
   -7.3140   14.9380    0.4600 N   0  0  0  0  0  0  0  0  0  0  0  0
   -6.7210   15.3040   -0.7850 C   0  0  0  0  0  0  0  0  0  0  0  0
   -7.2560   16.1480   -1.4620 O   0  0  0  0  0  0  0  0  0  0  0  0
   -5.5370   14.5650   -1.1160 N   0  0  0  0  0  0  0  0  0  0  0  0
   -5.5540   13.6390   -0.0370 C   0  0  2  0  0  0  0  0  0  0  0  0
   -4.1300   14.9610   -1.2560 C   0  0  0  0  0  0  0  0  0  0  0  0
   -3.3430   15.0010   -2.5330 C   0  0  0  0  0  0  0  0  0  0  0  0
   -6.8050   12.9040   -0.0180 N   0  0  0  0  0  0  0  0  0  0  0  0
   -5.2100   14.4710    1.1840 C   0  0  0  0  0  0  0  0  0  0  0  0
   -3.4520   15.2600   -0.1320 C   0  0  0  0  0  0  0  0  0  0  0  0
   -2.1270   14.8360   -2.6200 O   0  0  0  0  0  0  0  0  0  0  0  0
   -4.0520   15.2530   -3.6420 O   0  0  0  0  0  0  0  0  0  0  0  0
   -6.0520   14.4080    2.3280 C   0  0  0  0  0  0  0  0  0  0  0  0
   -7.4920   12.9590    1.0630 C   0  0  0  0  0  0  0  0  0  0  0  0
   -4.1480   15.2540    1.1110 C   0  0  0  0  0  0  0  0  0  0  0  0
   -7.1640   13.6870    2.3060 C   0  0  0  0  0  0  0  0  0  0  0  0
  1  2  1  0
  2  3  2  0
  2  4  1  0
  3  5  1  0
  4  6  2  0
  5  6  1  0
  6  7  1  0
  7  8  1  0
  8  9  1  0
  9 10  2  0
  9 11  1  0
 11 12  1  0
 11 13  1  0
 13 14  1  0
 12 15  1  1
 12 16  1  0
 13 17  2  0
 14 18  2  0
 14 19  1  0
 16 20  1  0
 15 21  2  0
 16 22  2  0
 17 22  1  0
 20 23  2  0
 21 23  1  0
M  END
