diamond-x0301_0_B-diamond-x0729_0_A
     RDKit          3D

 23 25  0  0  0  0  0  0  0  0999 V2000
   18.6190   28.7710    4.0260 N   0  0  0  0  0  0  0  0  0  0  0  0
   19.6760   28.2120    4.7770 C   0  0  2  0  0  0  0  0  0  0  0  0
   20.9550   28.8860    4.8190 N   0  0  0  0  0  0  0  0  0  0  0  0
   18.2230   30.0360    4.2420 C   0  0  0  0  0  0  0  0  0  0  0  0
   19.8750   26.6770    4.7890 C   0  0  1  0  0  0  0  0  0  0  0  0
   18.7170   31.0250    3.4370 N   0  0  0  0  0  0  0  0  0  0  0  0
   17.3500   30.4970    5.1520 N   0  0  0  0  0  0  0  0  0  0  0  0
   21.1070   26.1530    4.0980 C   0  0  0  0  0  0  0  0  0  0  0  0
   20.0400   26.3780    6.2510 C   0  0  0  0  0  0  0  0  0  0  0  0
   21.8000   28.3100    3.7560 N   0  0  0  0  0  0  0  0  0  0  0  0
   17.3350   31.7960    4.8340 N   0  0  0  0  0  0  0  0  0  0  0  0
   18.1400   32.1540    3.8240 N   0  0  0  0  0  0  0  0  0  0  0  0
   21.3980   28.5730    6.1830 C   0  0  2  0  0  0  0  0  0  0  0  0
   16.5010   32.7410    5.5270 C   0  0  0  0  0  0  0  0  0  0  0  0
   22.7200   27.8260    6.2880 C   0  0  0  0  0  0  0  0  0  0  0  0
   20.3390   27.7070    6.9520 C   0  0  2  0  0  0  0  0  0  0  0  0
   20.6770   27.4900    8.3620 N   0  0  0  0  0  0  0  0  0  0  0  0
   23.1170   27.6560    7.7480 C   0  0  0  0  0  0  0  0  0  0  0  0
   19.3860   27.0940    9.3740 S   0  0  0  0  0  0  0  0  0  0  0  0
   22.0510   27.0070    8.6410 C   0  0  0  0  0  0  0  0  0  0  0  0
   18.2790   26.6530    8.5450 O   0  0  0  0  0  0  0  0  0  0  0  0
   19.2220   28.1760   10.3160 O   0  0  0  0  0  0  0  0  0  0  0  0
   19.9930   25.6740   10.2550 C   0  0  0  0  0  0  0  0  0  0  0  0
  2  1  1  6
  2  3  1  0
  1  4  1  0
  2  5  1  0
  4  6  1  0
  4  7  2  0
  5  8  1  6
  5  9  1  0
  3 10  1  0
  7 11  1  0
  6 12  2  0
 11 12  1  0
  3 13  1  0
 11 14  1  0
 13 15  1  6
 16  9  1  6
 13 16  1  0
 16 17  1  0
 15 18  1  0
 17 19  1  0
 17 20  1  0
 18 20  1  0
 19 21  2  0
 19 22  2  0
 19 23  1  0
M  END
