diamond-x0128_0_A-mac-x0360
     RDKit          3D

 27 29  0  0  0  0  0  0  0  0999 V2000
   -7.3500   14.9240    2.1220 N   0  0  0  0  0  0  0  0  0  0  0  0
   -8.2010   15.0320    3.2260 C   0  0  0  0  0  0  0  0  0  0  0  0
   -9.4000   14.8590    3.1350 O   0  0  0  0  0  0  0  0  0  0  0  0
   -6.6870   14.9310    1.0190 C   0  0  0  0  0  0  0  0  0  0  0  0
   -7.6450   15.4100    4.4800 N   0  0  0  0  0  0  0  0  0  0  0  0
   -7.3510   15.2060   -0.2190 C   0  0  0  0  0  0  0  0  0  0  0  0
   -5.3040   14.7070    0.9350 C   0  0  0  0  0  0  0  0  0  0  0  0
   -6.7410   15.2720   -1.4230 C   0  0  0  0  0  0  0  0  0  0  0  0
   -4.7940   14.7710   -0.2850 C   0  0  0  0  0  0  0  0  0  0  0  0
   -8.4360   16.1080    5.4080 C   0  0  0  0  0  0  0  0  0  0  0  0
   -5.4070   15.0420   -1.4450 C   0  0  0  0  0  0  0  0  0  0  0  0
   -9.1050   17.2600    4.9520 C   0  0  0  0  0  0  0  0  0  0  0  0
   -8.5960   15.7440    6.7050 C   0  0  0  0  0  0  0  0  0  0  0  0
   -3.0520   14.3630   -0.3660 S   0  0  0  0  0  0  0  0  0  0  0  0
   -9.8810   18.0000    5.7230 N   0  0  0  0  0  0  0  0  0  0  0  0
   -9.4230   16.5440    7.5060 C   0  0  0  0  0  0  0  0  0  0  0  0
   -2.4910   14.1860   -1.8330 N   0  0  0  0  0  0  0  0  0  0  0  0
   -2.4730   14.0330    1.0340 O   0  0  0  0  0  0  0  0  0  0  0  0
   -4.1290   12.9790   -0.5200 C   0  0  0  0  0  0  0  0  0  0  0  0
  -10.0520   17.6540    7.0120 C   0  0  0  0  0  0  0  0  0  0  0  0
   -4.1300   12.0230   -1.5330 C   0  0  0  0  0  0  0  0  0  0  0  0
   -5.1570   12.7400    0.3960 C   0  0  0  0  0  0  0  0  0  0  0  0
   -5.0270   10.9780   -1.6390 C   0  0  0  0  0  0  0  0  0  0  0  0
   -6.0700   11.7340    0.3400 C   0  0  0  0  0  0  0  0  0  0  0  0
   -7.3440   11.5120    1.5390 Cl  0  0  0  0  0  0  0  0  0  0  0  0
   -4.9260    9.8280   -2.9740 Cl  0  0  0  0  0  0  0  0  0  0  0  0
   -5.9950   10.8650   -0.6850 C   0  0  0  0  0  0  0  0  0  0  0  0
  1  2  1  0
  2  3  2  0
  1  4  1  0
  2  5  1  0
  4  6  2  0
  4  7  1  0
  6  8  1  0
  7  9  2  0
  5 10  1  0
  8 11  2  0
  9 11  1  0
 10 12  2  0
 10 13  1  0
  9 14  1  0
 12 15  1  0
 13 16  2  0
 14 17  1  0
 14 18  2  0
 14 19  1  0
 15 20  2  0
 16 20  1  0
 19 21  2  0
 19 22  1  0
 21 23  1  0
 22 24  2  0
 24 25  1  0
 23 26  1  0
 23 27  2  0
 24 27  1  0
M  END
