diamond-x0465_0_A-mac-x0397
     RDKit          3D

 26 28  0  0  0  0  0  0  0  0999 V2000
    2.2830   13.0020   -4.8330 C   0  0  0  0  0  0  0  0  0  0  0  0
    0.8260   12.5390   -4.8260 C   0  0  1  0  0  0  0  0  0  0  0  0
    0.7150   11.4510   -5.7330 O   0  0  0  0  0  0  0  0  0  0  0  0
    0.4330   12.2510   -3.3740 C   0  0  0  0  0  0  0  0  0  0  0  0
   -0.5640   12.7960   -2.8610 N   0  0  0  0  0  0  0  0  0  0  0  0
    1.2110   11.4000   -2.7210 O   0  0  0  0  0  0  0  0  0  0  0  0
   -0.4440   10.7290   -5.8710 C   0  0  0  0  0  0  0  0  0  0  0  0
   -1.3530   13.6640   -3.7150 C   0  0  0  0  0  0  0  0  0  0  0  0
   -0.6240    9.6130   -6.6870 C   0  0  0  0  0  0  0  0  0  0  0  0
   -1.5370   11.1690   -5.1100 C   0  0  0  0  0  0  0  0  0  0  0  0
    0.3740    9.1350   -7.4440 F   0  0  0  0  0  0  0  0  0  0  0  0
   -1.5350   14.9980   -3.0430 C   0  0  0  0  0  0  0  0  0  0  0  0
   -1.8430    8.9460   -6.7510 C   0  0  0  0  0  0  0  0  0  0  0  0
   -2.7670   10.5050   -5.1680 C   0  0  0  0  0  0  0  0  0  0  0  0
   -2.9210    9.3930   -5.9880 C   0  0  0  0  0  0  0  0  0  0  0  0
   -2.7550   15.0010   -2.1750 C   0  0  0  0  0  0  0  0  0  0  0  0
   -4.0190   14.9950   -2.7590 C   0  0  0  0  0  0  0  0  0  0  0  0
   -2.6260   15.0130   -0.7860 C   0  0  0  0  0  0  0  0  0  0  0  0
   -3.7820   15.0230   -0.0180 C   0  0  0  0  0  0  0  0  0  0  0  0
   -5.1460   14.9950   -1.9530 C   0  0  0  0  0  0  0  0  0  0  0  0
   -6.7320   14.9830   -2.5780 Cl  0  0  0  0  0  0  0  0  0  0  0  0
   -5.0540   15.0030   -0.5680 C   0  0  0  0  0  0  0  0  0  0  0  0
   -3.9120   15.0620    1.6620 S   0  0  0  0  0  0  0  0  0  0  0  0
   -5.6320   15.0130    1.5370 C   0  0  0  0  0  0  0  0  0  0  0  0
   -6.0960   14.9920    0.3340 N   0  0  0  0  0  0  0  0  0  0  0  0
   -6.4530   14.9980    2.6000 N   0  0  0  0  0  0  0  0  0  0  0  0
  2  1  1  1
  2  3  1  0
  2  4  1  0
  4  5  2  3
  4  6  1  0
  3  7  1  0
  5  8  1  0
  7  9  2  0
  7 10  1  0
  9 11  1  0
  8 12  1  0
  9 13  1  0
 10 14  2  0
 13 15  2  0
 14 15  1  0
 12 16  1  0
 16 17  2  0
 16 18  1  0
 18 19  2  0
 17 20  1  0
 20 21  1  0
 19 22  1  0
 20 22  2  0
 19 23  1  0
 23 24  1  0
 22 25  1  0
 24 25  2  0
 24 26  1  0
M  END
