diamond-x0905_0_A-mac-x0453
     RDKit          3D

  9  9  0  0  0  0  0  0  0  0999 V2000
   -6.9500   14.7300   -1.0330 O   0  0  0  0  0  0  0  0  0  0  0  0
   -5.7890   15.4350   -0.6720 C   0  0  1  0  0  0  0  0  0  0  0  0
   -5.3470   14.9660    0.6480 N   0  0  0  0  0  0  0  0  0  0  0  0
   -4.7320   15.1860   -1.6960 C   0  0  0  0  0  0  0  0  0  0  0  0
   -4.0060   15.0780    0.9660 C   0  0  0  0  0  0  0  0  0  0  0  0
   -3.4390   15.0330   -1.3660 C   0  0  0  0  0  0  0  0  0  0  0  0
   -6.1350   13.8880    1.2350 C   0  0  0  0  0  0  0  0  0  0  0  0
   -3.0550   15.1080    0.0250 C   0  0  0  0  0  0  0  0  0  0  0  0
   -6.9980   14.2160    2.3540 N   0  0  0  0  0  0  0  0  0  0  0  0
  2  1  1  6
  2  3  1  0
  2  4  1  0
  3  5  1  0
  4  6  2  0
  3  7  1  0
  5  8  2  0
  6  8  1  0
  7  9  1  0
M  END
