diamond-x0950_1_A-mac-x0365
     RDKit          3D

 18 18  0  0  0  0  0  0  0  0999 V2000
    1.0730   13.9810   -4.7950 C   0  0  0  0  0  0  0  0  0  0  0  0
    1.3460   12.5410   -4.4040 C   0  0  2  0  0  0  0  0  0  0  0  0
    0.7300   11.6990   -5.3810 O   0  0  0  0  0  0  0  0  0  0  0  0
    0.8390   12.2030   -2.9880 C   0  0  0  0  0  0  0  0  0  0  0  0
    0.1470   11.2180   -2.7450 O   0  0  0  0  0  0  0  0  0  0  0  0
    1.2650   13.0970   -2.0470 O   0  0  0  0  0  0  0  0  0  0  0  0
    0.5870   14.3710   -1.9680 C   0  0  0  0  0  0  0  0  0  0  0  0
   -0.7610   14.2550   -1.4720 O   0  0  0  0  0  0  0  0  0  0  0  0
   -1.7280   14.7380   -2.2980 C   0  0  0  0  0  0  0  0  0  0  0  0
   -1.5820   15.0410   -3.4690 O   0  0  0  0  0  0  0  0  0  0  0  0
   -3.0490   14.8620   -1.6060 C   0  0  0  0  0  0  0  0  0  0  0  0
   -4.1690   14.9660   -2.4300 C   0  0  0  0  0  0  0  0  0  0  0  0
   -3.2170   14.8730   -0.2050 C   0  0  0  0  0  0  0  0  0  0  0  0
   -5.4320   15.0730   -1.8680 C   0  0  0  0  0  0  0  0  0  0  0  0
   -4.5040   14.9830    0.3530 C   0  0  0  0  0  0  0  0  0  0  0  0
   -6.4910   15.1680   -2.6770 F   0  0  0  0  0  0  0  0  0  0  0  0
   -5.6080   15.0790   -0.4940 C   0  0  0  0  0  0  0  0  0  0  0  0
   -6.8820   15.1790   -0.0160 O   0  0  0  0  0  0  0  0  0  0  0  0
  2  1  1  6
  2  3  1  0
  2  4  1  0
  4  5  2  0
  4  6  1  0
  6  7  1  0
  7  8  1  0
  8  9  1  0
  9 10  2  0
  9 11  1  0
 11 12  2  0
 11 13  1  0
 12 14  1  0
 13 15  2  0
 14 16  1  0
 14 17  2  0
 15 17  1  0
 17 18  1  0
M  END
