diamond-x0471_0_A-diamond-x0805_0_A
     RDKit          3D

 32 35  0  0  0  0  0  0  0  0999 V2000
   -9.2890   14.0100    2.9970 N   0  0  0  0  0  0  0  0  0  0  0  0
   -9.2930   15.1230    3.8100 C   0  0  0  0  0  0  0  0  0  0  0  0
   -9.3260   16.2570    3.3450 O   0  0  0  0  0  0  0  0  0  0  0  0
   -9.4170   14.1660    1.5630 C   0  0  0  0  0  0  0  0  0  0  0  0
   -9.2890   14.8280    5.3100 C   0  0  0  0  0  0  0  0  0  0  0  0
   -8.0780   14.4770    1.0340 C   0  0  0  0  0  0  0  0  0  0  0  0
   -9.6680   13.3770    5.5930 C   0  0  0  0  0  0  0  0  0  0  0  0
   -7.9530   15.1940    5.9510 C   0  0  0  0  0  0  0  0  0  0  0  0
   -7.8760   14.9380   -0.2400 N   0  0  0  0  0  0  0  0  0  0  0  0
   -6.9560   14.3580    1.6910 N   0  0  0  0  0  0  0  0  0  0  0  0
   -5.9970   14.7500    0.8250 C   0  0  0  0  0  0  0  0  0  0  0  0
   -6.5400   15.1270   -0.4060 C   0  0  0  0  0  0  0  0  0  0  0  0
   -5.8000   15.5770   -1.4820 C   0  0  0  0  0  0  0  0  0  0  0  0
   -4.6430   14.8080    1.0190 C   0  0  0  0  0  0  0  0  0  0  0  0
   -4.4460   15.6240   -1.2670 C   0  0  0  0  0  0  0  0  0  0  0  0
   -3.9320   15.2340   -0.0380 C   0  0  0  0  0  0  0  0  0  0  0  0
   -2.6550   15.2530    0.0730 O   0  0  0  0  0  0  0  0  0  0  0  0
   -2.4620   14.5740   -1.0600 C   0  0  0  0  0  0  0  0  0  0  0  0
   -3.5290   13.7470   -1.4750 C   0  0  0  0  0  0  0  0  0  0  0  0
   -1.3610   14.6560   -1.7890 C   0  0  0  0  0  0  0  0  0  0  0  0
   -3.4370   13.0160   -2.6570 C   0  0  0  0  0  0  0  0  0  0  0  0
   -1.2450   13.9530   -2.9440 C   0  0  0  0  0  0  0  0  0  0  0  0
   -2.2710   13.1210   -3.4110 C   0  0  0  0  0  0  0  0  0  0  0  0
    0.0710   14.2440   -3.5120 C   0  0  1  0  0  0  0  0  0  0  0  0
    1.1240   13.1900   -3.2580 C   0  0  1  0  0  0  0  0  0  0  0  0
    0.2350   14.9350   -4.8260 C   0  0  0  0  0  0  0  0  0  0  0  0
    0.5660   11.9020   -2.7250 C   0  0  0  0  0  0  0  0  0  0  0  0
    2.0030   13.1290   -4.4850 C   0  0  0  0  0  0  0  0  0  0  0  0
    1.6210   15.5010   -4.7440 C   0  0  0  0  0  0  0  0  0  0  0  0
    0.3420   10.9340   -3.6340 O   0  0  0  0  0  0  0  0  0  0  0  0
    0.3330   11.7630   -1.5380 O   0  0  0  0  0  0  0  0  0  0  0  0
    2.5790   14.4300   -4.5810 O   0  0  0  0  0  0  0  0  0  0  0  0
  1  2  1  0
  2  3  2  0
  1  4  1  0
  2  5  1  0
  4  6  1  0
  5  7  1  0
  5  8  1  0
  6  9  1  0
  6 10  2  0
 10 11  1  0
  9 12  1  0
 11 12  2  0
 12 13  1  0
 11 14  1  0
 13 15  2  0
 14 16  2  0
 15 16  1  0
 16 17  1  0
 17 18  1  0
 18 19  2  0
 18 20  1  0
 19 21  1  0
 20 22  2  0
 21 23  2  0
 22 23  1  0
 24 22  1  6
 24 25  1  0
 24 26  1  0
 25 27  1  6
 25 28  1  0
 26 29  1  0
 27 30  1  0
 27 31  2  0
 28 32  1  0
 29 32  1  0
M  END
