diamond-x0855_0_A-diamond-x0662_0_A
     RDKit          3D

 27 29  0  0  0  0  0  0  0  0999 V2000
    0.8830   13.3140   -3.4950 O   0  0  0  0  0  0  0  0  0  0  0  0
    0.4980   12.0340   -3.3400 C   0  0  0  0  0  0  0  0  0  0  0  0
    0.1540   11.2570   -4.5830 C   0  0  2  0  0  0  0  0  0  0  0  0
    0.4760   11.5750   -2.2180 O   0  0  0  0  0  0  0  0  0  0  0  0
    0.6550   11.6300   -5.9370 C   0  0  0  0  0  0  0  0  0  0  0  0
   -1.1790   11.0300   -4.8950 N   0  0  0  0  0  0  0  0  0  0  0  0
    1.2600   12.6430   -6.1340 O   0  0  0  0  0  0  0  0  0  0  0  0
   -1.4520    9.9500   -5.6330 C   0  0  0  0  0  0  0  0  0  0  0  0
   -2.2400   11.7850   -4.5580 N   0  0  0  0  0  0  0  0  0  0  0  0
    0.3330   10.6890   -7.1060 C   0  0  0  0  0  0  0  0  0  0  0  0
   -2.7610    9.9610   -5.8300 C   0  0  0  0  0  0  0  0  0  0  0  0
   -3.2360   11.1010   -5.1560 C   0  0  0  0  0  0  0  0  0  0  0  0
   -0.5770    9.6210   -7.0370 C   0  0  0  0  0  0  0  0  0  0  0  0
    0.9730   10.8890   -8.3150 C   0  0  0  0  0  0  0  0  0  0  0  0
   -3.6950    8.6930   -6.8140 Br  0  0  0  0  0  0  0  0  0  0  0  0
   -0.8120    8.8150   -8.1540 C   0  0  0  0  0  0  0  0  0  0  0  0
    0.7600   10.1000   -9.4430 C   0  0  0  0  0  0  0  0  0  0  0  0
    1.4030   10.2820  -10.6860 N   0  0  0  0  0  0  0  0  0  0  0  0
   -0.1480    9.0530   -9.3540 C   0  0  0  0  0  0  0  0  0  0  0  0
    2.2050    9.3730  -11.3560 C   0  0  0  0  0  0  0  0  0  0  0  0
    2.3710    8.2000  -11.0420 O   0  0  0  0  0  0  0  0  0  0  0  0
    2.9040    9.9350  -12.5370 C   0  0  0  0  0  0  0  0  0  0  0  0
    2.7160   11.1980  -13.1660 C   0  0  0  0  0  0  0  0  0  0  0  0
    3.8720    9.2260  -13.1580 N   0  0  0  0  0  0  0  0  0  0  0  0
    4.2810   10.0320  -14.1540 N   0  0  0  0  0  0  0  0  0  0  0  0
    3.6220   11.2230  -14.2040 C   0  0  0  0  0  0  0  0  0  0  0  0
    5.3360    9.5800  -15.0340 C   0  0  0  0  0  0  0  0  0  0  0  0
  1  2  1  0
  3  2  1  1
  2  4  2  0
  3  5  1  0
  3  6  1  0
  5  7  2  0
  6  8  1  0
  6  9  1  0
  5 10  1  0
  8 11  2  0
  9 12  2  0
 11 12  1  0
 10 13  2  0
 10 14  1  0
 11 15  1  0
 13 16  1  0
 14 17  2  0
 17 18  1  0
 16 19  2  0
 17 19  1  0
 18 20  1  0
 20 21  2  0
 20 22  1  0
 22 23  1  0
 22 24  2  0
 24 25  1  0
 23 26  2  0
 25 26  1  0
 25 27  1  0
M  END
