diamond-x0727_0_A-diamond-x0253_0_A
     RDKit          3D

 14 14  0  0  0  0  0  0  0  0999 V2000
    0.1220   11.5010   -5.6110 N   0  0  0  0  0  0  0  0  0  0  0  0
    0.8900   12.3710   -4.7150 C   0  0  1  0  0  0  0  0  0  0  0  0
    0.5250   13.8270   -4.9590 C   0  0  0  0  0  0  0  0  0  0  0  0
    0.6810   11.0940   -6.7790 C   0  0  0  0  0  0  0  0  0  0  0  0
    1.6220   11.7130   -7.2150 O   0  0  0  0  0  0  0  0  0  0  0  0
    0.7050   11.9740   -3.2380 C   0  0  0  0  0  0  0  0  0  0  0  0
    0.1320    9.8540   -7.4640 C   0  0  2  0  0  0  0  0  0  0  0  0
    0.1100   10.9710   -2.8680 O   0  0  0  0  0  0  0  0  0  0  0  0
    1.2660   12.8450   -2.3620 O   0  0  0  0  0  0  0  0  0  0  0  0
   -1.2090   10.0730   -8.1670 C   0  0  0  0  0  0  0  0  0  0  0  0
   -0.1080    8.6930   -6.4740 C   0  0  0  0  0  0  0  0  0  0  0  0
   -1.8580    8.6920   -8.0680 C   0  0  1  0  0  0  0  0  0  0  0  0
   -1.5480    8.2730   -6.6470 C   0  0  0  0  0  0  0  0  0  0  0  0
   -3.3360    8.6660   -8.3400 C   0  0  0  0  0  0  0  0  0  0  0  0
  1  2  1  0
  2  3  1  1
  1  4  1  0
  4  5  2  0
  2  6  1  0
  7  4  1  1
  6  8  2  0
  6  9  1  0
  7 10  1  0
  7 11  1  0
 10 12  1  0
 11 13  1  0
 12 13  1  0
 12 14  1  1
M  END
