diamond-x0910_1_A-mac-x0358
     RDKit          3D

 20 21  0  0  0  0  0  0  0  0999 V2000
   -5.0400   15.3070    1.4810 N   0  0  0  0  0  0  0  0  0  0  0  0
   -4.2450   15.1230    0.4250 C   0  0  0  0  0  0  0  0  0  0  0  0
   -4.5710   15.3640   -0.8440 N   0  0  0  0  0  0  0  0  0  0  0  0
   -2.9840   14.6480    0.6190 N   0  0  0  0  0  0  0  0  0  0  0  0
   -3.4390   15.0120   -1.4840 N   0  0  0  0  0  0  0  0  0  0  0  0
   -2.4990   14.5860   -0.5970 C   0  0  0  0  0  0  0  0  0  0  0  0
   -3.3260   15.1040   -2.9300 C   0  0  0  0  0  0  0  0  0  0  0  0
   -1.9470   14.7690   -3.5420 C   0  0  0  0  0  0  0  0  0  0  0  0
   -1.8100   15.1670   -5.0610 C   0  0  0  0  0  0  0  0  0  0  0  0
   -3.0780   15.7940   -5.5370 C   0  0  0  0  0  0  0  0  0  0  0  0
   -3.2130   14.4490   -5.5880 C   0  0  0  0  0  0  0  0  0  0  0  0
   -2.1900   16.7740   -5.2460 C   0  0  0  0  0  0  0  0  0  0  0  0
   -1.9810   13.8750   -5.2190 C   0  0  0  0  0  0  0  0  0  0  0  0
   -0.9660   16.1850   -4.8770 C   0  0  0  0  0  0  0  0  0  0  0  0
   -1.8870   12.5070   -5.2140 O   0  0  0  0  0  0  0  0  0  0  0  0
   -0.8440   14.7280   -4.8680 C   0  0  0  0  0  0  0  0  0  0  0  0
    0.5100   14.1440   -4.4890 C   0  0  0  0  0  0  0  0  0  0  0  0
    0.5210   12.7750   -3.8480 C   0  0  0  0  0  0  0  0  0  0  0  0
    1.3360   12.7490   -2.7720 O   0  0  0  0  0  0  0  0  0  0  0  0
   -0.0850   11.7690   -4.1870 O   0  0  0  0  0  0  0  0  0  0  0  0
  1  2  1  0
  2  3  2  0
  2  4  1  0
  3  5  1  0
  4  6  2  0
  5  6  1  0
  5  7  1  0
  7  8  1  0
  8  9  1  0
  9 10  1  0
 10 11  2  0
 10 12  1  0
 11 13  1  0
 12 14  2  0
 13 15  1  0
 13 16  2  0
 14 16  1  0
 16 17  1  0
 17 18  1  0
 18 19  1  0
 18 20  2  0
M  END
