diamond-x0417_0_B-diamond-x0766_1_B
     RDKit          3D

 22 24  0  0  0  0  0  0  0  0999 V2000
   -2.6560   31.2010  -17.1360 N   0  0  0  0  0  0  0  0  0  0  0  0
   -1.4670   31.8220  -17.6850 C   0  0  0  0  0  0  0  0  0  0  0  0
   -2.4430   30.5770  -15.8230 C   0  0  2  0  0  0  0  0  0  0  0  0
   -2.5240   29.0420  -15.8130 C   0  0  0  0  0  0  0  0  0  0  0  0
   -3.5570   30.9830  -14.8550 C   0  0  0  0  0  0  0  0  0  0  0  0
   -3.9660   32.1140  -14.6310 O   0  0  0  0  0  0  0  0  0  0  0  0
   -3.1900   28.6970  -14.4880 C   0  0  0  0  0  0  0  0  0  0  0  0
   -4.0470   29.8300  -14.2500 N   0  0  0  0  0  0  0  0  0  0  0  0
   -5.1870   29.9350  -13.3490 C   0  0  1  0  0  0  0  0  0  0  0  0
   -6.4970   29.5890  -14.0140 C   0  0  0  0  0  0  0  0  0  0  0  0
   -5.0660   29.2890  -11.9510 C   0  0  1  0  0  0  0  0  0  0  0  0
   -4.1480   29.8760  -11.1860 F   0  0  0  0  0  0  0  0  0  0  0  0
   -7.4440   28.8740  -13.3850 C   0  0  0  0  0  0  0  0  0  0  0  0
   -6.3960   29.3620  -11.2250 C   0  0  0  0  0  0  0  0  0  0  0  0
   -7.2340   28.3640  -11.9730 C   0  0  1  0  0  0  0  0  0  0  0  0
   -8.5210   27.7960  -11.3270 C   0  0  0  0  0  0  0  0  0  0  0  0
   -6.3150   27.1500  -11.9860 C   0  0  0  0  0  0  0  0  0  0  0  0
   -7.2390   26.0900  -12.4780 C   0  0  1  0  0  0  0  0  0  0  0  0
   -8.4720   26.2840  -11.5970 C   0  0  0  0  0  0  0  0  0  0  0  0
   -7.5020   26.2820  -13.9420 C   0  0  0  0  0  0  0  0  0  0  0  0
   -8.5580   26.6460  -14.4250 O   0  0  0  0  0  0  0  0  0  0  0  0
   -6.4400   26.0390  -14.7320 O   0  0  0  0  0  0  0  0  0  0  0  0
  1  2  1  0
  3  1  1  6
  3  4  1  0
  3  5  1  0
  5  6  2  0
  4  7  1  0
  5  8  1  0
  7  8  1  0
  9  8  1  6
  9 10  1  0
  9 11  1  0
 11 12  1  1
 10 13  2  0
 11 14  1  0
 15 13  1  6
 14 15  1  0
 15 16  1  0
 15 17  1  0
 17 18  1  0
 16 19  1  0
 18 19  1  0
 18 20  1  6
 20 21  2  0
 20 22  1  0
M  END
