diamond-x0962_0_A-mac-x0568
     RDKit          3D

  9  9  0  0  0  0  0  0  0  0999 V2000
   -3.0960   15.2320   -2.3900 N   0  0  0  0  0  0  0  0  0  0  0  0
   -2.8160   14.6820   -1.0920 C   0  0  0  0  0  0  0  0  0  0  0  0
   -1.7700   15.5240   -0.6080 N   0  0  0  0  0  0  0  0  0  0  0  0
   -3.9740   14.7710   -0.1440 C   0  0  0  0  0  0  0  0  0  0  0  0
   -3.7580   15.1140    1.1780 N   0  0  0  0  0  0  0  0  0  0  0  0
   -5.3240   14.5480   -0.3580 C   0  0  0  0  0  0  0  0  0  0  0  0
   -4.9430   15.0870    1.7460 C   0  0  0  0  0  0  0  0  0  0  0  0
   -5.9240   14.7450    0.8540 N   0  0  0  0  0  0  0  0  0  0  0  0
   -7.3450   14.6130    1.1560 C   0  0  0  0  0  0  0  0  0  0  0  0
  1  2  1  0
  2  3  1  0
  2  4  1  0
  4  5  1  0
  4  6  2  0
  5  7  2  0
  6  8  1  0
  7  8  1  0
  8  9  1  0
M  END
