diamond-x0104_0_A-diamond-x0895_1_A
     RDKit          3D

 18 19  0  0  0  0  0  0  0  0999 V2000
   -6.7690   14.7260    2.7170 N   0  0  0  0  0  0  0  0  0  0  0  0
   -8.0270   15.0880    3.1920 C   0  0  0  0  0  0  0  0  0  0  0  0
   -8.0180   15.0950    4.5800 N   0  0  0  0  0  0  0  0  0  0  0  0
   -6.2410   14.7560    1.4100 C   0  0  0  0  0  0  0  0  0  0  0  0
   -8.9930   15.3580    2.4860 O   0  0  0  0  0  0  0  0  0  0  0  0
   -4.8450   14.8590    1.2970 C   0  0  0  0  0  0  0  0  0  0  0  0
   -6.9960   14.6960    0.2520 C   0  0  0  0  0  0  0  0  0  0  0  0
   -4.1780   14.9030    0.0800 N   0  0  0  0  0  0  0  0  0  0  0  0
   -6.3670   14.7420   -0.9890 C   0  0  0  0  0  0  0  0  0  0  0  0
   -9.1380   15.0980    5.3850 C   0  0  0  0  0  0  0  0  0  0  0  0
   -2.8860   14.9930    0.1420 O   0  0  0  0  0  0  0  0  0  0  0  0
   -4.9650   14.8440   -1.0920 C   0  0  0  0  0  0  0  0  0  0  0  0
   -9.3010   15.2150    6.7440 C   0  0  0  0  0  0  0  0  0  0  0  0
  -10.6220   14.9230    4.5640 S   0  0  0  0  0  0  0  0  0  0  0  0
   -4.5650   14.8690   -2.4280 O   0  0  0  0  0  0  0  0  0  0  0  0
  -11.5080   15.0020    6.0330 C   0  0  0  0  0  0  0  0  0  0  0  0
  -10.6770   15.1590    7.1240 C   0  0  0  0  0  0  0  0  0  0  0  0
   -3.1790   15.0240   -2.6800 C   0  0  0  0  0  0  0  0  0  0  0  0
  1  2  1  0
  2  3  1  0
  1  4  1  0
  2  5  2  0
  4  6  2  0
  4  7  1  0
  6  8  1  0
  7  9  2  0
  3 10  1  0
  8 11  1  0
  8 12  2  0
  9 12  1  0
 10 13  2  0
 10 14  1  0
 12 15  1  0
 14 16  1  0
 13 17  1  0
 16 17  2  0
 15 18  1  0
M  CHG  2   8   1  11  -1
M  END
