diamond-x0253_0_A-diamond-x0910_0_A
     RDKit          3D

 23 24  0  0  0  0  0  0  0  0999 V2000
    0.4410   12.2470   -5.6050 N   0  0  0  0  0  0  0  0  0  0  0  0
    1.1680   11.7370   -6.6200 C   0  0  0  0  0  0  0  0  0  0  0  0
    2.3310   12.0340   -6.6840 O   0  0  0  0  0  0  0  0  0  0  0  0
    1.1700   12.6900   -4.4370 C   0  0  0  0  0  0  0  0  0  0  0  0
    0.4070   12.1820   -3.2580 C   0  0  0  0  0  0  0  0  0  0  0  0
    0.5180   10.7980   -7.5830 C   0  0  0  0  0  0  0  0  0  0  0  0
   -0.2020   12.9600   -2.4960 N   0  0  0  0  0  0  0  0  0  0  0  0
    0.3950   10.8420   -3.1150 O   0  0  0  0  0  0  0  0  0  0  0  0
   -0.4560    9.8930   -7.1390 C   0  0  0  0  0  0  0  0  0  0  0  0
    0.8730   10.8060   -8.9430 C   0  0  0  0  0  0  0  0  0  0  0  0
   -0.9850   12.3250   -1.4820 C   0  0  0  0  0  0  0  0  0  0  0  0
   -1.0710    9.0080   -8.0380 C   0  0  0  0  0  0  0  0  0  0  0  0
    0.2680    9.9310   -9.8380 C   0  0  0  0  0  0  0  0  0  0  0  0
   -2.1120    8.0450   -7.5550 C   0  0  0  0  0  0  0  0  0  0  0  0
   -2.4040   12.1780   -2.0540 C   0  0  0  0  0  0  0  0  0  0  0  0
   -0.6990    9.0380   -9.3880 C   0  0  0  0  0  0  0  0  0  0  0  0
   -3.3950   13.2410   -1.5800 C   0  0  0  0  0  0  0  0  0  0  0  0
   -2.7790   14.5520   -1.5180 N   0  0  0  0  0  0  0  0  0  0  0  0
   -1.8500   14.7250   -0.5660 C   0  0  0  0  0  0  0  0  0  0  0  0
   -2.1920   14.7170    0.7590 N   0  0  0  0  0  0  0  0  0  0  0  0
   -0.5540   14.9160   -0.6770 N   0  0  0  0  0  0  0  0  0  0  0  0
   -1.1070   14.9050    1.5280 N   0  0  0  0  0  0  0  0  0  0  0  0
   -0.1470   15.0250    0.6160 C   0  0  0  0  0  0  0  0  0  0  0  0
  1  2  1  0
  2  3  2  0
  1  4  1  0
  4  5  1  0
  2  6  1  0
  5  7  2  3
  5  8  1  0
  6  9  2  0
  6 10  1  0
  7 11  1  0
  9 12  1  0
 10 13  2  0
 12 14  1  0
 11 15  1  0
 12 16  2  0
 13 16  1  0
 15 17  1  0
 17 18  1  0
 18 19  1  0
 19 20  1  0
 19 21  2  0
 20 22  1  0
 21 23  1  0
 22 23  2  0
M  END
