
     RDKit          3D

  7  7  0  0  0  0  0  0  0  0999 V2000
   17.7560   33.1180    7.5750 N   0  0  0  0  0  0  0  0  0  0  0  0
   17.3270   31.8890    7.5780 C   0  0  0  0  0  0  0  0  0  0  0  0
   15.8930   30.1870    6.4200 C   0  0  0  0  0  0  0  0  0  0  0  0
   16.5310   31.4960    6.5600 N   0  0  0  0  0  0  0  0  0  0  0  0
   16.6020   29.1580    7.2400 C   0  0  0  0  0  0  0  0  0  0  0  0
   17.5760   30.9970    8.5570 N   0  0  0  0  0  0  0  0  0  0  0  0
   16.9860   29.6620    8.6230 C   0  0  0  0  0  0  0  0  0  0  0  0
  1  2  1  0
  2  4  1  0
  2  6  1  0
  4  3  1  0
  6  7  1  0
  3  5  1  0
  5  7  1  0
M  END
