diamond-x0724_0_A-mac-x0576
     RDKit          3D

 21 23  0  0  0  0  0  0  0  0999 V2000
   -8.6020   13.6990    4.3570 N   0  0  0  0  0  0  0  0  0  0  0  0
   -8.7060   13.6500    5.8080 C   0  0  0  0  0  0  0  0  0  0  0  0
   -7.9790   14.9490    3.9520 C   0  0  0  0  0  0  0  0  0  0  0  0
   -7.3510   14.7950    2.6140 C   0  0  0  0  0  0  0  0  0  0  0  0
   -6.0640   15.1510    2.2650 C   0  0  0  0  0  0  0  0  0  0  0  0
   -7.8930   14.2830    1.4200 C   0  0  0  0  0  0  0  0  0  0  0  0
   -7.0150   14.3270    0.4140 N   0  0  0  0  0  0  0  0  0  0  0  0
   -5.8920   14.8780    0.9630 N   0  0  0  0  0  0  0  0  0  0  0  0
   -4.7240   15.1160    0.0990 C   0  0  1  0  0  0  0  0  0  0  0  0
   -3.3570   14.3060    0.2310 C   0  0  1  0  0  0  0  0  0  0  0  0
   -5.4100   14.9170   -1.2110 C   0  0  0  0  0  0  0  0  0  0  0  0
   -6.6240   14.7920   -1.2650 O   0  0  0  0  0  0  0  0  0  0  0  0
   -2.6720   14.0500   -1.1590 C   0  0  1  0  0  0  0  0  0  0  0  0
   -4.6330   14.8740   -2.4410 C   0  0  0  0  0  0  0  0  0  0  0  0
   -2.2720   14.7800    1.1460 N   0  0  0  0  0  0  0  0  0  0  0  0
   -3.3920   14.4760   -2.3850 C   0  0  0  0  0  0  0  0  0  0  0  0
   -1.0040   14.1610    0.8390 C   0  0  2  0  0  0  0  0  0  0  0  0
   -1.3020   14.6780   -1.3730 C   0  0  0  0  0  0  0  0  0  0  0  0
   -0.0490   14.5120    1.7940 N   0  0  0  0  0  0  0  0  0  0  0  0
   -0.9200   15.0930   -2.4590 O   0  0  0  0  0  0  0  0  0  0  0  0
   -0.5140   14.7500   -0.3030 N   0  0  0  0  0  0  0  0  0  0  0  0
  1  2  1  0
  1  3  1  0
  3  4  1  0
  4  5  2  0
  4  6  1  0
  6  7  2  0
  5  8  1  0
  7  8  1  0
  9  8  1  1
  9 10  1  0
  9 11  1  0
 11 12  2  0
 10 13  1  0
 11 14  1  0
 10 15  1  1
 13 16  1  6
 14 16  2  0
 15 17  1  0
 13 18  1  0
 17 19  1  1
 18 20  2  0
 17 21  1  0
 18 21  1  0
M  END
