diamond-x0421_0_A-mac-x0510
     RDKit          3D

 16 18  0  0  0  0  0  0  0  0999 V2000
   -4.2110   14.9530   -3.0570 N   0  0  0  0  0  0  0  0  0  0  0  0
   -3.2420   14.9350   -2.1040 C   0  0  0  0  0  0  0  0  0  0  0  0
   -2.0760   14.7150   -2.4390 O   0  0  0  0  0  0  0  0  0  0  0  0
   -3.6350   15.1990   -0.6760 C   0  0  2  0  0  0  0  0  0  0  0  0
   -2.8400   14.5720    0.4700 C   0  0  2  0  0  0  0  0  0  0  0  0
   -5.0870   15.0360   -0.3120 N   0  0  1  0  0  0  0  0  0  0  0  0
   -5.7080   13.9500   -0.8110 O   0  0  0  0  0  0  0  0  0  0  0  0
   -3.8510   14.0600    1.4190 N   0  0  0  0  0  0  0  0  0  0  0  0
   -4.9840   14.9580    1.1700 C   0  0  2  0  0  0  0  0  0  0  0  0
   -1.8750   15.4940    1.1340 C   0  0  0  0  0  0  0  0  0  0  0  0
   -1.9330   13.4710    0.1430 N   0  0  0  0  0  0  0  0  0  0  0  0
   -6.2590   14.6200    1.8730 C   0  0  0  0  0  0  0  0  0  0  0  0
   -0.6500   15.3100    0.3530 N   0  0  0  0  0  0  0  0  0  0  0  0
   -0.5570   13.9070    0.4660 C   0  0  0  0  0  0  0  0  0  0  0  0
   -7.5830   14.6380    1.1390 C   0  0  0  0  0  0  0  0  0  0  0  0
   -7.0330   13.3380    1.6560 C   0  0  0  0  0  0  0  0  0  0  0  0
  1  2  1  0
  2  3  2  0
  4  2  1  6
  4  5  1  0
  4  6  1  0
  6  7  1  6
  5  8  1  0
  6  9  1  0
  8  9  1  0
  5 10  1  1
  5 11  1  0
  9 12  1  1
 10 13  1  0
 11 14  1  0
 13 14  1  0
 12 15  1  0
 12 16  1  0
 15 16  1  0
M  CHG  2   6   1   7  -1
M  END
