diamond-x0465_0_A-mac-x0555
     RDKit          3D

 27 29  0  0  0  0  0  0  0  0999 V2000
    2.0640   13.1370   -4.5200 C   0  0  0  0  0  0  0  0  0  0  0  0
    0.7640   12.3470   -4.3460 C   0  0  1  0  0  0  0  0  0  0  0  0
    0.6770   11.4640   -5.4840 O   0  0  0  0  0  0  0  0  0  0  0  0
    0.8110   11.5090   -3.0560 C   0  0  0  0  0  0  0  0  0  0  0  0
    0.6480   11.9700   -1.8580 N   0  0  0  0  0  0  0  0  0  0  0  0
    1.0310   10.2010   -3.2350 O   0  0  0  0  0  0  0  0  0  0  0  0
   -0.5270   10.8190   -5.6290 C   0  0  0  0  0  0  0  0  0  0  0  0
    0.3620   13.3660   -1.6790 C   0  0  0  0  0  0  0  0  0  0  0  0
   -0.5810    9.7340   -6.5030 C   0  0  0  0  0  0  0  0  0  0  0  0
   -1.6760   11.2160   -4.9400 C   0  0  0  0  0  0  0  0  0  0  0  0
    0.5160    9.3510   -7.1690 F   0  0  0  0  0  0  0  0  0  0  0  0
   -1.1440   13.4290   -1.4990 C   0  0  0  0  0  0  0  0  0  0  0  0
   -1.7660    9.0360   -6.6950 C   0  0  0  0  0  0  0  0  0  0  0  0
   -2.8700   10.5160   -5.1320 C   0  0  0  0  0  0  0  0  0  0  0  0
   -1.6770   14.8340   -1.4720 C   0  0  0  0  0  0  0  0  0  0  0  0
   -2.9150    9.4280   -6.0060 C   0  0  0  0  0  0  0  0  0  0  0  0
   -3.1680   14.8980   -1.3040 C   0  0  0  0  0  0  0  0  0  0  0  0
   -4.0270   15.1390   -2.3810 C   0  0  0  0  0  0  0  0  0  0  0  0
   -3.7130   14.7000   -0.0410 C   0  0  0  0  0  0  0  0  0  0  0  0
   -5.0960   14.7210    0.1500 C   0  0  0  0  0  0  0  0  0  0  0  0
   -5.4120   15.1600   -2.1800 C   0  0  0  0  0  0  0  0  0  0  0  0
   -5.6450   14.5100    1.4150 C   0  0  0  0  0  0  0  0  0  0  0  0
   -5.9680   14.9480   -0.9290 C   0  0  0  0  0  0  0  0  0  0  0  0
   -7.0190   14.5160    1.6030 C   0  0  0  0  0  0  0  0  0  0  0  0
   -7.3040   14.9580   -0.7720 N   0  0  0  0  0  0  0  0  0  0  0  0
   -7.5500   14.3020    2.8730 N   0  0  0  0  0  0  0  0  0  0  0  0
   -7.7960   14.7420    0.4730 C   0  0  0  0  0  0  0  0  0  0  0  0
  2  1  1  6
  2  3  1  0
  2  4  1  0
  4  5  2  3
  4  6  1  0
  3  7  1  0
  5  8  1  0
  7  9  2  0
  7 10  1  0
  9 11  1  0
  8 12  1  0
  9 13  1  0
 10 14  2  0
 12 15  1  0
 13 16  2  0
 14 16  1  0
 15 17  1  0
 17 18  2  0
 17 19  1  0
 19 20  2  0
 18 21  1  0
 20 22  1  0
 20 23  1  0
 21 23  2  0
 22 24  2  0
 23 25  1  0
 24 26  1  0
 24 27  1  0
 25 27  2  0
M  END
