diamond-x0253_0_A-mac-x0303
     RDKit          3D

 30 32  0  0  0  0  0  0  0  0999 V2000
    0.4920   11.8550   -5.4130 N   0  0  0  0  0  0  0  0  0  0  0  0
    1.1110   11.6120   -6.5910 C   0  0  0  0  0  0  0  0  0  0  0  0
    2.1870   12.1160   -6.7690 O   0  0  0  0  0  0  0  0  0  0  0  0
    1.3240   12.5750   -4.4820 C   0  0  0  0  0  0  0  0  0  0  0  0
    0.7670   12.5490   -3.0970 C   0  0  0  0  0  0  0  0  0  0  0  0
    0.4600   10.7080   -7.5820 C   0  0  0  0  0  0  0  0  0  0  0  0
    0.8340   13.5170   -2.3010 N   0  0  0  0  0  0  0  0  0  0  0  0
    0.1340   11.4190   -2.7030 O   0  0  0  0  0  0  0  0  0  0  0  0
   -0.5190    9.7970   -7.1800 C   0  0  0  0  0  0  0  0  0  0  0  0
    0.8330   10.7660   -8.9290 C   0  0  0  0  0  0  0  0  0  0  0  0
    0.2220   13.5040   -1.0030 C   0  0  0  0  0  0  0  0  0  0  0  0
   -1.1250    8.9490   -8.1200 C   0  0  0  0  0  0  0  0  0  0  0  0
    0.2360    9.9270   -9.8650 C   0  0  0  0  0  0  0  0  0  0  0  0
   -2.1760    7.9770   -7.6780 C   0  0  0  0  0  0  0  0  0  0  0  0
   -0.5900   14.7770   -0.9810 C   0  0  0  0  0  0  0  0  0  0  0  0
   -0.7400    9.0220   -9.4630 C   0  0  0  0  0  0  0  0  0  0  0  0
   -1.5630   14.8060    0.1710 C   0  0  0  0  0  0  0  0  0  0  0  0
   -3.0250   14.9250   -0.2340 C   0  0  0  0  0  0  0  0  0  0  0  0
   -3.5650   15.2200   -1.5210 C   0  0  0  0  0  0  0  0  0  0  0  0
   -3.8740   14.7070    0.8180 C   0  0  0  0  0  0  0  0  0  0  0  0
   -5.2300   14.7640    0.6300 C   0  0  0  0  0  0  0  0  0  0  0  0
   -4.9710   15.2850   -1.7320 C   0  0  0  0  0  0  0  0  0  0  0  0
   -5.7770   15.0430   -0.6090 C   0  0  0  0  0  0  0  0  0  0  0  0
   -6.1690   14.5650    1.5730 N   0  0  0  0  0  0  0  0  0  0  0  0
   -7.3070   14.7060    0.9750 C   0  0  0  0  0  0  0  0  0  0  0  0
   -7.1450   15.0000   -0.3690 N   0  0  0  0  0  0  0  0  0  0  0  0
   -8.8110   14.5300    1.8710 S   0  0  0  0  0  0  0  0  0  0  0  0
   -8.7270   12.9960    2.5590 N   0  0  0  0  0  0  0  0  0  0  0  0
   -8.6870   15.4930    2.9450 O   0  0  0  0  0  0  0  0  0  0  0  0
   -9.8690   14.5760    0.9030 O   0  0  0  0  0  0  0  0  0  0  0  0
  1  2  1  0
  2  3  2  0
  1  4  1  0
  4  5  1  0
  2  6  1  0
  5  7  2  3
  5  8  1  0
  6  9  2  0
  6 10  1  0
  7 11  1  0
  9 12  1  0
 10 13  2  0
 12 14  1  0
 11 15  1  0
 12 16  2  0
 13 16  1  0
 15 17  1  0
 17 18  1  0
 18 19  2  0
 18 20  1  0
 20 21  2  0
 19 22  1  0
 21 23  1  0
 22 23  2  0
 21 24  1  0
 24 25  2  0
 23 26  1  0
 25 26  1  0
 25 27  1  0
 27 28  1  0
 27 29  2  0
 27 30  2  0
M  END
