diamond-x0905_0_B-diamond-x0905_1_B
     RDKit          3D

  7  7  0  0  0  0  0  0  0  0999 V2000
   14.0240   19.5960   11.5960 O   0  0  0  0  0  0  0  0  0  0  0  0
   13.3830   20.2580   12.5950 C   0  0  0  0  0  0  0  0  0  0  0  0
   12.5120   19.5170   13.3040 N   0  0  0  0  0  0  0  0  0  0  0  0
   13.6560   21.5930   12.8070 C   0  0  0  0  0  0  0  0  0  0  0  0
   11.8700   20.1630   14.2950 C   0  0  0  0  0  0  0  0  0  0  0  0
   12.9790   22.2290   13.8350 C   0  0  0  0  0  0  0  0  0  0  0  0
   12.0650   21.5020   14.5990 C   0  0  0  0  0  0  0  0  0  0  0  0
  1  2  1  0
  2  3  2  0
  2  4  1  0
  3  5  1  0
  4  6  2  0
  5  7  2  0
  6  7  1  0
M  END
