diamond-x0465_0_A-mac-x0341
     RDKit          3D

 27 29  0  0  0  0  0  0  0  0999 V2000
    2.0190   13.1640   -5.1740 C   0  0  0  0  0  0  0  0  0  0  0  0
    0.6750   12.5590   -4.8360 C   0  0  1  0  0  0  0  0  0  0  0  0
    0.6040   11.3120   -5.5320 O   0  0  0  0  0  0  0  0  0  0  0  0
    0.6670   12.4660   -3.3130 C   0  0  0  0  0  0  0  0  0  0  0  0
    0.7140   13.5740   -2.6470 N   0  0  0  0  0  0  0  0  0  0  0  0
    0.6190   11.2220   -2.7780 O   0  0  0  0  0  0  0  0  0  0  0  0
   -0.6300   10.7930   -5.8130 C   0  0  0  0  0  0  0  0  0  0  0  0
    0.7390   13.6130   -1.1860 C   0  0  0  0  0  0  0  0  0  0  0  0
   -0.6810    9.5910   -6.5340 C   0  0  0  0  0  0  0  0  0  0  0  0
   -1.8260   11.3750   -5.4350 C   0  0  0  0  0  0  0  0  0  0  0  0
    0.4320    8.9820   -6.9550 F   0  0  0  0  0  0  0  0  0  0  0  0
   -0.1300   14.7030   -0.5190 C   0  0  0  0  0  0  0  0  0  0  0  0
   -1.8900    8.9800   -6.8460 C   0  0  0  0  0  0  0  0  0  0  0  0
   -3.0460   10.7690   -5.7460 C   0  0  0  0  0  0  0  0  0  0  0  0
   -3.0800    9.5710   -6.4460 C   0  0  0  0  0  0  0  0  0  0  0  0
   -1.6470   14.7590   -0.7310 C   0  0  0  0  0  0  0  0  0  0  0  0
   -2.5220   14.7700    0.3720 C   0  0  0  0  0  0  0  0  0  0  0  0
   -2.2090   14.8130   -2.0250 C   0  0  0  0  0  0  0  0  0  0  0  0
   -3.9110   14.8350    0.1990 C   0  0  0  0  0  0  0  0  0  0  0  0
   -3.5990   14.8800   -2.2030 C   0  0  0  0  0  0  0  0  0  0  0  0
   -4.4320   14.8900   -1.0850 C   0  0  0  0  0  0  0  0  0  0  0  0
   -4.7330   14.8360    1.3220 N   0  0  0  0  0  0  0  0  0  0  0  0
   -6.0130   14.7700    1.1800 C   0  0  0  0  0  0  0  0  0  0  0  0
   -5.9040   14.9540   -1.2050 C   0  0  0  0  0  0  0  0  0  0  0  0
   -6.7900   14.7320    2.2900 N   0  0  0  0  0  0  0  0  0  0  0  0
   -6.4560   15.1840   -2.2690 O   0  0  0  0  0  0  0  0  0  0  0  0
   -6.6100   14.7270   -0.0440 N   0  0  0  0  0  0  0  0  0  0  0  0
  2  1  1  1
  2  3  1  0
  2  4  1  0
  4  5  2  3
  4  6  1  0
  3  7  1  0
  5  8  1  0
  7  9  2  0
  7 10  1  0
  9 11  1  0
  8 12  1  0
  9 13  1  0
 10 14  2  0
 13 15  2  0
 14 15  1  0
 12 16  1  0
 16 17  2  0
 16 18  1  0
 17 19  1  0
 18 20  2  0
 19 21  2  0
 20 21  1  0
 19 22  1  0
 22 23  2  0
 21 24  1  0
 23 25  1  0
 24 26  2  0
 23 27  1  0
 24 27  1  0
M  END
