diamond-x0962_0_A-mac-x0392
     RDKit          3D

 16 17  0  0  0  0  0  0  0  0999 V2000
   -2.5300   15.1440   -2.3550 C   0  0  0  0  0  0  0  0  0  0  0  0
   -3.5960   15.0040   -1.8420 C   0  0  0  0  0  0  0  0  0  0  0  0
   -4.6300   14.9000   -0.8790 C   0  0  0  0  0  0  0  0  0  0  0  0
   -1.1030   15.3490   -2.3220 C   0  0  2  0  0  0  0  0  0  0  0  0
   -0.2900   14.3520   -2.9450 O   0  0  0  0  0  0  0  0  0  0  0  0
   -1.2960   15.1510   -0.8610 C   0  0  0  0  0  0  0  0  0  0  0  0
   -4.4090   14.5500    0.4360 N   0  0  0  0  0  0  0  0  0  0  0  0
   -5.9760   15.1020   -0.9620 C   0  0  0  0  0  0  0  0  0  0  0  0
   -0.4780   14.4480    0.0010 C   0  0  0  0  0  0  0  0  0  0  0  0
   -2.4650   15.7330   -0.3580 C   0  0  0  0  0  0  0  0  0  0  0  0
    0.6940   13.8510   -0.4560 N   0  0  0  0  0  0  0  0  0  0  0  0
   -5.6080   14.5600    1.0720 C   0  0  0  0  0  0  0  0  0  0  0  0
   -6.5730   14.8850    0.2540 N   0  0  0  0  0  0  0  0  0  0  0  0
   -2.7840   15.5930    0.9640 C   0  0  0  0  0  0  0  0  0  0  0  0
   -0.8890   14.3610    1.3280 C   0  0  0  0  0  0  0  0  0  0  0  0
   -2.0150   14.9060    1.8260 N   0  0  0  0  0  0  0  0  0  0  0  0
  1  2  3  0
  2  3  1  0
  1  4  1  0
  4  5  1  6
  4  6  1  0
  3  7  1  0
  3  8  2  0
  6  9  2  0
  6 10  1  0
  9 11  1  0
  7 12  1  0
  8 13  1  0
 12 13  2  0
 10 14  2  0
  9 15  1  0
 14 16  1  0
 15 16  2  0
M  END
