diamond-x0900_0_A-mac-x0115
     RDKit          3D

 22 24  0  0  0  0  0  0  0  0999 V2000
   -6.6610   14.6950   -0.8210 O   0  0  0  0  0  0  0  0  0  0  0  0
   -5.5770   14.4710   -0.3010 C   0  0  0  0  0  0  0  0  0  0  0  0
   -4.4470   13.9660   -0.9000 N   0  0  0  0  0  0  0  0  0  0  0  0
   -5.1570   14.6720    1.1130 C   0  0  0  0  0  0  0  0  0  0  0  0
   -3.7400   15.2390    0.9170 C   0  0  0  0  0  0  0  0  0  0  0  0
   -3.3300   14.7630   -0.4980 C   0  0  1  0  0  0  0  0  0  0  0  0
   -1.8700   14.2650   -0.6690 C   0  0  2  0  0  0  0  0  0  0  0  0
   -3.3840   15.7870   -1.5580 C   0  0  0  0  0  0  0  0  0  0  0  0
   -0.7530   14.6910    0.2480 C   0  0  0  0  0  0  0  0  0  0  0  0
   -1.5210   14.5220   -2.1590 C   0  0  1  0  0  0  0  0  0  0  0  0
   -2.4070   15.6800   -2.4670 C   0  0  0  0  0  0  0  0  0  0  0  0
   -0.9300   15.1370    1.3670 O   0  0  0  0  0  0  0  0  0  0  0  0
   -0.1000   14.6320   -2.5350 N   0  0  0  0  0  0  0  0  0  0  0  0
    0.5170   14.5020   -0.2620 N   0  0  0  0  0  0  0  0  0  0  0  0
    0.2460   14.4740   -3.9710 C   0  0  0  0  0  0  0  0  0  0  0  0
    0.8980   14.3970   -1.5780 C   0  0  0  0  0  0  0  0  0  0  0  0
    0.6170   15.7790   -4.6860 C   0  0  0  0  0  0  0  0  0  0  0  0
    2.4950   14.0100   -1.8950 S   0  0  0  0  0  0  0  0  0  0  0  0
   -0.5940   16.3920   -5.1370 O   0  0  0  0  0  0  0  0  0  0  0  0
   -0.4340   17.6660   -5.7760 C   0  0  0  0  0  0  0  0  0  0  0  0
   -1.4310   18.6600   -5.2130 C   0  0  0  0  0  0  0  0  0  0  0  0
    0.9940   18.1320   -5.5610 C   0  0  0  0  0  0  0  0  0  0  0  0
  1  2  2  0
  2  3  1  0
  2  4  1  0
  4  5  1  0
  3  6  1  0
  6  5  1  1
  6  7  1  0
  6  8  1  0
  7  9  1  1
  7 10  1  0
  8 11  2  0
 10 11  1  1
  9 12  2  0
 10 13  1  0
  9 14  1  0
 13 15  1  0
 13 16  1  0
 14 16  1  0
 15 17  1  0
 16 18  2  0
 17 19  1  0
 19 20  1  0
 20 21  1  0
 20 22  1  0
M  END
