diamond-x0727_0_A-mac-x0161
     RDKit          3D

 30 33  0  0  0  0  0  0  0  0999 V2000
    0.1350   11.7190   -5.9340 C   0  0  2  0  0  0  0  0  0  0  0  0
    1.2260   12.6590   -5.3210 C   0  0  1  0  0  0  0  0  0  0  0  0
    0.9190   14.1510   -5.2290 C   0  0  0  0  0  0  0  0  0  0  0  0
    0.7390   10.6790   -6.8890 C   0  0  0  0  0  0  0  0  0  0  0  0
   -0.9770   12.3330   -6.7890 C   0  0  0  0  0  0  0  0  0  0  0  0
   -0.5530   11.6690   -4.6320 C   0  0  0  0  0  0  0  0  0  0  0  0
    1.8830   10.9010   -7.2380 O   0  0  0  0  0  0  0  0  0  0  0  0
    1.4080   12.2330   -3.8500 C   0  0  0  0  0  0  0  0  0  0  0  0
    0.0510    9.4650   -7.4810 C   0  0  0  0  0  0  0  0  0  0  0  0
   -1.3370   12.7740   -4.3390 C   0  0  0  0  0  0  0  0  0  0  0  0
   -0.5430   10.7760   -3.6440 N   0  0  0  0  0  0  0  0  0  0  0  0
    0.9530   11.2440   -3.2910 O   0  0  0  0  0  0  0  0  0  0  0  0
    2.1580   13.0810   -3.1340 O   0  0  0  0  0  0  0  0  0  0  0  0
   -1.2070    9.8820   -8.2510 C   0  0  0  0  0  0  0  0  0  0  0  0
   -0.3930    8.4320   -6.4300 C   0  0  0  0  0  0  0  0  0  0  0  0
   -1.8000   12.5510   -3.1350 C   0  0  0  0  0  0  0  0  0  0  0  0
   -1.3400   11.3540   -2.6720 O   0  0  0  0  0  0  0  0  0  0  0  0
   -2.6680   13.3740   -2.3210 C   0  0  0  0  0  0  0  0  0  0  0  0
   -2.2790    8.8920   -7.8340 C   0  0  0  0  0  0  0  0  0  0  0  0
   -1.9070    8.5160   -6.4080 C   0  0  0  0  0  0  0  0  0  0  0  0
   -2.0590   14.6110   -1.9040 N   0  0  0  0  0  0  0  0  0  0  0  0
   -3.0500   15.6650   -1.9950 C   0  0  0  0  0  0  0  0  0  0  0  0
   -1.6170   14.4250   -0.5480 C   0  0  2  0  0  0  0  0  0  0  0  0
   -4.0820   15.5760   -0.9770 N   0  0  0  0  0  0  0  0  0  0  0  0
   -2.0520   15.4890    0.3940 C   0  0  1  0  0  0  0  0  0  0  0  0
   -0.1830   14.4930   -0.3370 N   0  0  0  0  0  0  0  0  0  0  0  0
   -3.5800   15.7030    0.3530 C   0  0  2  0  0  0  0  0  0  0  0  0
   -1.4290   14.9600    1.6040 N   0  0  0  0  0  0  0  0  0  0  0  0
   -0.1110   14.5480    1.1200 C   0  0  0  0  0  0  0  0  0  0  0  0
   -4.4170   14.8110    1.1290 N   0  0  0  0  0  0  0  0  0  0  0  0
  1  2  1  0
  2  3  1  1
  1  4  1  0
  1  5  1  6
  1  6  1  0
  4  7  2  0
  2  8  1  0
  4  9  1  0
  6 10  1  0
  6 11  2  0
  8 12  2  0
  8 13  1  0
  9 14  1  0
  9 15  1  0
 10 16  2  0
 11 17  1  0
 16 17  1  0
 16 18  1  0
 14 19  1  0
 15 20  1  0
 19 20  1  0
 18 21  1  0
 21 22  1  0
 21 23  1  0
 22 24  1  0
 23 25  1  0
 23 26  1  6
 24 27  1  0
 25 27  1  0
 25 28  1  1
 26 29  1  0
 28 29  1  0
 27 30  1  1
M  END
