diamond-x0574_0_A-diamond-x0253_0_A
     RDKit          3D

 28 30  0  0  0  0  0  0  0  0999 V2000
    0.5640   14.8760    1.3120 N   0  0  0  0  0  0  0  0  0  0  0  0
   -0.6040   15.3840    0.7610 C   0  0  2  0  0  0  0  0  0  0  0  0
   -1.4890   14.5360    1.3400 N   0  0  0  0  0  0  0  0  0  0  0  0
   -0.8900   14.9500   -0.9730 S   0  0  0  0  0  0  0  0  0  0  0  0
   -0.9480   13.4250    0.5610 C   0  0  0  0  0  0  0  0  0  0  0  0
   -2.7700   14.9630    0.8040 C   0  0  1  0  0  0  0  0  0  0  0  0
   -2.6440   14.5790   -0.6470 C   0  0  1  0  0  0  0  0  0  0  0  0
   -0.0170   13.5840   -0.7310 C   0  0  0  0  0  0  0  0  0  0  0  0
   -4.0630   14.4220    1.4470 C   0  0  0  0  0  0  0  0  0  0  0  0
   -3.7030   15.2990   -1.3680 C   0  0  0  0  0  0  0  0  0  0  0  0
    0.1580   12.2610   -1.3610 N   0  0  0  0  0  0  0  0  0  0  0  0
   -5.2230   14.4200    0.4130 C   0  0  2  0  0  0  0  0  0  0  0  0
   -4.9360   15.2240   -0.8490 C   0  0  0  0  0  0  0  0  0  0  0  0
   -6.4470   14.9440    0.9360 O   0  0  0  0  0  0  0  0  0  0  0  0
    0.4680   11.8740   -2.5760 C   0  0  0  0  0  0  0  0  0  0  0  0
   -6.7150   14.5680    2.2800 C   0  0  0  0  0  0  0  0  0  0  0  0
    0.4720   10.5240   -2.6360 O   0  0  0  0  0  0  0  0  0  0  0  0
    0.8220   12.5440   -3.9390 C   0  0  0  0  0  0  0  0  0  0  0  0
    0.2680   11.9070   -5.1550 N   0  0  0  0  0  0  0  0  0  0  0  0
    1.0220   11.7150   -6.3210 C   0  0  0  0  0  0  0  0  0  0  0  0
    2.1110   12.2330   -6.4930 O   0  0  0  0  0  0  0  0  0  0  0  0
    0.4250   10.7830   -7.3490 C   0  0  0  0  0  0  0  0  0  0  0  0
   -0.5590    9.8620   -6.9870 C   0  0  0  0  0  0  0  0  0  0  0  0
    0.8480   10.8230   -8.6890 C   0  0  0  0  0  0  0  0  0  0  0  0
   -1.1150    8.9960   -7.9440 C   0  0  0  0  0  0  0  0  0  0  0  0
    0.3020    9.9680   -9.6430 C   0  0  0  0  0  0  0  0  0  0  0  0
   -2.1730    8.0130   -7.5440 C   0  0  0  0  0  0  0  0  0  0  0  0
   -0.6790    9.0570   -9.2720 C   0  0  0  0  0  0  0  0  0  0  0  0
  2  1  1  1
  2  3  1  0
  2  4  1  0
  3  5  1  0
  3  6  1  0
  4  7  1  0
  6  7  1  0
  5  8  1  0
  6  9  1  1
  7 10  1  6
  8 11  1  0
  9 12  1  0
 10 13  2  0
 12 13  1  0
 12 14  1  1
 11 15  2  3
 14 16  1  0
 15 17  1  0
 15 18  1  0
 18 19  1  0
 19 20  1  0
 20 21  2  0
 20 22  1  0
 22 23  2  0
 22 24  1  0
 23 25  1  0
 24 26  2  0
 25 27  1  0
 25 28  2  0
 26 28  1  0
M  END
