diamond-x0626_0_A-mac-x0387
     RDKit          3D

 15 16  0  0  0  0  0  0  0  0999 V2000
   -4.8460   14.9100    1.3620 N   0  0  0  0  0  0  0  0  0  0  0  0
   -6.0780   14.7130    0.8000 C   0  0  0  0  0  0  0  0  0  0  0  0
   -6.2120   14.8370   -0.4190 O   0  0  0  0  0  0  0  0  0  0  0  0
   -3.5940   14.8160    0.8260 C   0  0  0  0  0  0  0  0  0  0  0  0
   -7.2550   14.3570    1.6820 C   0  0  0  0  0  0  0  0  0  0  0  0
   -2.4490   14.6540    1.6030 N   0  0  0  0  0  0  0  0  0  0  0  0
   -3.3460   14.8700   -0.4980 C   0  0  0  0  0  0  0  0  0  0  0  0
   -8.5810   14.6240    0.9870 C   0  0  0  0  0  0  0  0  0  0  0  0
   -4.4240   15.0790   -1.8040 S   0  0  0  0  0  0  0  0  0  0  0  0
   -1.9300   14.7000   -0.6470 C   0  0  0  0  0  0  0  0  0  0  0  0
   -1.4730   14.5910    0.7480 C   0  0  0  0  0  0  0  0  0  0  0  0
   -0.0630   14.4180    1.1340 C   0  0  0  0  0  0  0  0  0  0  0  0
   -1.2650   14.6560   -1.8090 C   0  0  0  0  0  0  0  0  0  0  0  0
   -3.3180   14.9750   -3.1350 C   0  0  0  0  0  0  0  0  0  0  0  0
   -1.9910   14.7930   -3.0510 C   0  0  0  0  0  0  0  0  0  0  0  0
  1  2  1  0
  2  3  2  0
  1  4  1  0
  2  5  1  0
  4  6  1  0
  4  7  2  0
  5  8  1  0
  7  9  1  0
  7 10  1  0
  6 11  2  0
 10 11  1  0
 11 12  1  0
 10 13  2  0
  9 14  1  0
 13 15  1  0
 14 15  2  0
M  END
