diamond-x0465_0_A-diamond-x0722_0_A
     RDKit          3D

 27 28  0  0  0  0  0  0  0  0999 V2000
    2.1350   13.0710   -5.3150 C   0  0  0  0  0  0  0  0  0  0  0  0
    0.7670   12.5090   -5.0730 C   0  0  1  0  0  0  0  0  0  0  0  0
    0.6690   11.2520   -5.7090 O   0  0  0  0  0  0  0  0  0  0  0  0
    0.6280   12.3560   -3.5910 C   0  0  0  0  0  0  0  0  0  0  0  0
    0.7690   13.2860   -2.7500 N   0  0  0  0  0  0  0  0  0  0  0  0
    0.3250   11.1390   -3.0950 O   0  0  0  0  0  0  0  0  0  0  0  0
   -0.5420   10.6440   -5.8130 C   0  0  0  0  0  0  0  0  0  0  0  0
    0.5440   12.9230   -1.4110 C   0  0  0  0  0  0  0  0  0  0  0  0
   -0.7430    9.5580   -6.6540 C   0  0  0  0  0  0  0  0  0  0  0  0
   -1.6020   11.1320   -5.0490 C   0  0  0  0  0  0  0  0  0  0  0  0
    0.2600    9.0770   -7.3980 F   0  0  0  0  0  0  0  0  0  0  0  0
   -0.9620   12.9060   -1.2720 C   0  0  0  0  0  0  0  0  0  0  0  0
   -1.9860    8.9460   -6.7420 C   0  0  0  0  0  0  0  0  0  0  0  0
   -2.8580   10.5250   -5.1310 C   0  0  0  0  0  0  0  0  0  0  0  0
   -1.6280   14.2360   -1.5590 C   0  0  0  0  0  0  0  0  0  0  0  0
   -3.0480    9.4290   -5.9800 C   0  0  0  0  0  0  0  0  0  0  0  0
   -2.2800   14.6450   -0.3060 C   0  0  0  0  0  0  0  0  0  0  0  0
   -3.5500   15.1360   -0.0260 C   0  0  0  0  0  0  0  0  0  0  0  0
   -1.6200   14.5770    0.8990 N   0  0  0  0  0  0  0  0  0  0  0  0
   -0.2780   14.1580    1.2170 C   0  0  0  0  0  0  0  0  0  0  0  0
   -4.6970   15.4260   -0.9460 C   0  0  0  0  0  0  0  0  0  0  0  0
   -2.3590   14.9650    1.8990 N   0  0  0  0  0  0  0  0  0  0  0  0
   -3.5050   15.3090    1.3710 C   0  0  0  0  0  0  0  0  0  0  0  0
   -4.5030   15.8080    2.2870 C   0  0  0  0  0  0  0  0  0  0  0  0
   -5.9640   14.6860   -0.5600 C   0  0  0  0  0  0  0  0  0  0  0  0
   -7.0920   15.1400   -0.7180 O   0  0  0  0  0  0  0  0  0  0  0  0
   -5.7940   13.4470   -0.0110 N   0  0  0  0  0  0  0  0  0  0  0  0
  2  1  1  1
  2  3  1  0
  2  4  1  0
  4  5  2  3
  4  6  1  0
  3  7  1  0
  5  8  1  0
  7  9  2  0
  7 10  1  0
  9 11  1  0
  8 12  1  0
  9 13  1  0
 10 14  2  0
 12 15  1  0
 13 16  2  0
 14 16  1  0
 15 17  1  0
 17 18  2  0
 17 19  1  0
 19 20  1  0
 18 21  1  0
 19 22  1  0
 18 23  1  0
 22 23  2  0
 23 24  1  0
 21 25  1  0
 25 26  2  0
 25 27  1  0
M  END
