diamond-x0711_0_A-diamond-x0962_0_A
     RDKit          3D

 14 14  0  0  0  0  0  0  0  0999 V2000
   -1.5490   15.0510   -2.5600 N   0  0  0  0  0  0  0  0  0  0  0  0
   -0.5680   13.7950   -3.0720 S   0  0  0  0  0  0  0  0  0  0  0  0
   -1.6800   12.7430   -3.9800 C   0  0  0  0  0  0  0  0  0  0  0  0
   -2.7770   14.9220   -1.8410 C   0  0  0  0  0  0  0  0  0  0  0  0
    0.3170   14.4190   -4.0350 O   0  0  0  0  0  0  0  0  0  0  0  0
   -0.0410   13.0790   -1.9330 O   0  0  0  0  0  0  0  0  0  0  0  0
   -3.9980   15.1570   -2.4770 C   0  0  0  0  0  0  0  0  0  0  0  0
   -2.7580   14.5730   -0.4860 C   0  0  0  0  0  0  0  0  0  0  0  0
   -5.1960   15.0500   -1.7680 C   0  0  0  0  0  0  0  0  0  0  0  0
   -3.9590   14.4630    0.2280 C   0  0  0  0  0  0  0  0  0  0  0  0
   -5.1900   14.7040   -0.4140 C   0  0  0  0  0  0  0  0  0  0  0  0
   -6.4550   14.5850    0.3700 C   0  0  0  0  0  0  0  0  0  0  0  0
   -6.4150   14.6780    1.7350 N   0  0  0  0  0  0  0  0  0  0  0  0
   -7.5280   14.4230   -0.2000 O   0  0  0  0  0  0  0  0  0  0  0  0
  2  1  1  0
  2  3  1  0
  1  4  1  0
  2  5  2  0
  2  6  2  0
  4  7  2  0
  4  8  1  0
  7  9  1  0
  8 10  2  0
  9 11  2  0
 10 11  1  0
 11 12  1  0
 12 13  1  0
 12 14  2  0
M  END
