diamond-x0962_1_A-mac-x0373
     RDKit          3D

 23 25  0  0  0  0  0  0  0  0999 V2000
   -6.0880   15.8180   -1.8760 N   0  0  0  0  0  0  0  0  0  0  0  0
   -5.4250   15.8380   -0.5940 C   0  0  1  0  0  0  0  0  0  0  0  0
   -6.2210   15.0200    0.2960 C   0  0  0  0  0  0  0  0  0  0  0  0
   -4.1230   15.3930   -0.9230 C   0  0  0  0  0  0  0  0  0  0  0  0
   -5.8970   14.7710    1.5890 N   0  0  0  0  0  0  0  0  0  0  0  0
   -7.3970   14.3680    0.0750 C   0  0  0  0  0  0  0  0  0  0  0  0
   -3.9710   15.3890   -2.2760 C   0  0  0  0  0  0  0  0  0  0  0  0
   -3.1270   15.0050   -0.0360 C   0  0  0  0  0  0  0  0  0  0  0  0
   -6.8840   13.9900    2.0990 C   0  0  0  0  0  0  0  0  0  0  0  0
   -7.8080   13.7280    1.2010 N   0  0  0  0  0  0  0  0  0  0  0  0
   -2.8230   14.9950   -2.8170 C   0  0  0  0  0  0  0  0  0  0  0  0
   -1.9240   14.5890   -0.5940 C   0  0  0  0  0  0  0  0  0  0  0  0
   -1.8000   14.5920   -2.0010 C   0  0  0  0  0  0  0  0  0  0  0  0
   -0.5880   14.1550   -2.7250 C   0  0  1  0  0  0  0  0  0  0  0  0
    0.6490   14.0220   -1.8550 C   0  0  0  0  0  0  0  0  0  0  0  0
   -1.0830   12.9830   -3.5710 C   0  0  0  0  0  0  0  0  0  0  0  0
    0.5590   13.1060   -0.8500 O   0  0  0  0  0  0  0  0  0  0  0  0
    1.6740   14.6680   -1.9770 O   0  0  0  0  0  0  0  0  0  0  0  0
   -0.5940   12.6970   -4.8520 C   0  0  0  0  0  0  0  0  0  0  0  0
   -2.0960   12.1570   -3.0360 C   0  0  0  0  0  0  0  0  0  0  0  0
   -1.1060   11.6150   -5.5750 C   0  0  0  0  0  0  0  0  0  0  0  0
   -2.6030   11.0790   -3.7600 C   0  0  0  0  0  0  0  0  0  0  0  0
   -2.1050   10.8100   -5.0330 C   0  0  0  0  0  0  0  0  0  0  0  0
  2  1  1  6
  2  3  1  0
  2  4  1  0
  3  5  1  0
  3  6  2  0
  4  7  2  0
  4  8  1  0
  5  9  1  0
  6 10  1  0
  9 10  2  0
  7 11  1  0
  8 12  2  0
 11 13  2  0
 12 13  1  0
 13 14  1  0
 14 15  1  1
 14 16  1  0
 15 17  1  0
 15 18  2  0
 16 19  2  0
 16 20  1  0
 19 21  1  0
 20 22  2  0
 21 23  2  0
 22 23  1  0
M  END
