diamond-x0662_0_A-mac-x0180
     RDKit          3D

 33 35  0  0  0  0  0  0  0  0999 V2000
    5.3570    9.5000  -15.0250 C   0  0  0  0  0  0  0  0  0  0  0  0
    4.3050    9.9800  -14.1680 N   0  0  0  0  0  0  0  0  0  0  0  0
    3.6600   11.1760  -14.2380 C   0  0  0  0  0  0  0  0  0  0  0  0
    3.8760    9.2020  -13.1730 N   0  0  0  0  0  0  0  0  0  0  0  0
    2.7510   11.1650  -13.2100 C   0  0  0  0  0  0  0  0  0  0  0  0
    2.9130    9.9050  -12.5520 C   0  0  0  0  0  0  0  0  0  0  0  0
    2.2050    9.3310  -11.3640 C   0  0  0  0  0  0  0  0  0  0  0  0
    2.4640    8.2010  -10.9660 O   0  0  0  0  0  0  0  0  0  0  0  0
    1.2700   10.1840  -10.7770 N   0  0  0  0  0  0  0  0  0  0  0  0
    0.5990   10.0070   -9.5410 C   0  0  0  0  0  0  0  0  0  0  0  0
   -0.3500    8.9840   -9.4160 C   0  0  0  0  0  0  0  0  0  0  0  0
    0.8350   10.8060   -8.4470 C   0  0  0  0  0  0  0  0  0  0  0  0
   -1.0320    8.7920   -8.2050 C   0  0  0  0  0  0  0  0  0  0  0  0
    0.1720   10.6400   -7.2430 C   0  0  0  0  0  0  0  0  0  0  0  0
    0.5460   11.6010   -6.1560 C   0  0  0  0  0  0  0  0  0  0  0  0
   -0.7730    9.6240   -7.1050 C   0  0  0  0  0  0  0  0  0  0  0  0
   -0.1980   12.0790   -5.2410 N   0  0  0  0  0  0  0  0  0  0  0  0
    1.7510   11.8610   -6.3280 O   0  0  0  0  0  0  0  0  0  0  0  0
    0.4770   13.0240   -4.3340 C   0  0  0  0  0  0  0  0  0  0  0  0
    0.1310   14.5000   -4.6310 C   0  0  0  0  0  0  0  0  0  0  0  0
   -1.1730   14.7090   -4.0180 N   0  0  0  0  0  0  0  0  0  0  0  0
   -1.1930   14.7520   -2.7510 C   0  0  0  0  0  0  0  0  0  0  0  0
   -0.0080   14.6780   -2.1180 O   0  0  0  0  0  0  0  0  0  0  0  0
   -2.2870   14.8340   -1.8000 C   0  0  0  0  0  0  0  0  0  0  0  0
   -2.0690   14.6840   -0.4290 C   0  0  0  0  0  0  0  0  0  0  0  0
   -3.5630   15.0510   -2.3010 C   0  0  0  0  0  0  0  0  0  0  0  0
   -3.1540   14.7400    0.4520 C   0  0  0  0  0  0  0  0  0  0  0  0
   -4.6400   15.1060   -1.4220 C   0  0  0  0  0  0  0  0  0  0  0  0
   -4.4420   14.9430   -0.0440 C   0  0  0  0  0  0  0  0  0  0  0  0
   -5.5920   14.9920    0.7540 N   0  0  0  0  0  0  0  0  0  0  0  0
   -6.8760   14.7460    0.2940 C   0  0  0  0  0  0  0  0  0  0  0  0
   -7.8490   14.5080    1.4240 C   0  0  0  0  0  0  0  0  0  0  0  0
   -7.2640   14.7070   -0.8660 O   0  0  0  0  0  0  0  0  0  0  0  0
  1  2  1  0
  2  3  1  0
  2  4  1  0
  3  5  2  0
  4  6  2  0
  5  6  1  0
  6  7  1  0
  7  8  2  0
  7  9  1  0
  9 10  1  0
 10 11  2  0
 10 12  1  0
 11 13  1  0
 12 14  2  0
 14 15  1  0
 13 16  2  0
 14 16  1  0
 15 17  2  3
 15 18  1  0
 17 19  1  0
 19 20  1  0
 20 21  1  0
 21 22  2  3
 22 23  1  0
 22 24  1  0
 24 25  2  0
 24 26  1  0
 25 27  1  0
 26 28  2  0
 27 29  2  0
 28 29  1  0
 29 30  1  0
 30 31  1  0
 31 32  1  0
 31 33  2  0
M  CHG  1  18  -1
M  END
