diamond-x0905_0_A-mac-x0567
     RDKit          3D

 12 13  0  0  0  0  0  0  0  0999 V2000
   -7.1790   14.1340   -0.5460 O   0  0  0  0  0  0  0  0  0  0  0  0
   -5.8520   14.1930   -0.3350 C   0  0  0  0  0  0  0  0  0  0  0  0
   -5.3320   13.3240    0.4210 N   0  0  0  0  0  0  0  0  0  0  0  0
   -5.3280   15.2840   -1.0640 C   0  0  0  0  0  0  0  0  0  0  0  0
   -3.9870   13.2350    0.7720 C   0  0  0  0  0  0  0  0  0  0  0  0
   -4.1740   15.7870   -0.7880 C   0  0  0  0  0  0  0  0  0  0  0  0
   -3.2170   15.4050    0.2500 C   0  0  0  0  0  0  0  0  0  0  0  0
   -2.9960   14.1290    0.7140 C   0  0  0  0  0  0  0  0  0  0  0  0
   -1.5560   14.1820    1.1770 C   0  0  0  0  0  0  0  0  0  0  0  0
   -2.4680   16.1690    0.9340 N   0  0  0  0  0  0  0  0  0  0  0  0
   -0.4760   13.3510    1.4090 N   0  0  0  0  0  0  0  0  0  0  0  0
   -1.3980   15.3970    1.4790 N   0  0  0  0  0  0  0  0  0  0  0  0
  1  2  1  0
  2  3  2  0
  2  4  1  0
  3  5  1  0
  4  6  2  0
  6  7  1  0
  5  8  2  0
  7  8  1  0
  8  9  1  0
  7 10  2  0
  9 11  1  0
  9 12  2  0
 10 12  1  0
M  END
