diamond-x1015_0_A-diamond-x1012_0_A
     RDKit          3D

 26 28  0  0  0  0  0  0  0  0999 V2000
   -2.9520   12.5890   -3.3530 C   0  0  0  0  0  0  0  0  0  0  0  0
   -1.5080   13.0490   -3.3330 C   0  0  2  0  0  0  0  0  0  0  0  0
   -0.5560   11.9790   -3.6910 N   0  0  0  0  0  0  0  0  0  0  0  0
   -1.0630   13.2960   -1.8950 C   0  0  0  0  0  0  0  0  0  0  0  0
   -1.3080   14.2550   -1.1750 O   0  0  0  0  0  0  0  0  0  0  0  0
    0.3680   11.7780   -2.6760 C   0  0  0  0  0  0  0  0  0  0  0  0
   -0.3260   12.2060   -1.5880 N   0  0  0  0  0  0  0  0  0  0  0  0
   -0.6350   11.2730   -4.8940 C   0  0  0  0  0  0  0  0  0  0  0  0
    1.5720   12.2040   -2.7730 N   0  0  0  0  0  0  0  0  0  0  0  0
    0.0000   11.7040   -6.0740 C   0  0  0  0  0  0  0  0  0  0  0  0
   -1.3690   10.0770   -4.9690 C   0  0  0  0  0  0  0  0  0  0  0  0
    1.8690   13.5360   -2.8910 C   0  0  0  0  0  0  0  0  0  0  0  0
   -0.0940   10.9760   -7.2670 C   0  0  0  0  0  0  0  0  0  0  0  0
   -1.4700    9.3440   -6.1530 C   0  0  0  0  0  0  0  0  0  0  0  0
    2.7440   14.1230   -2.2290 O   0  0  0  0  0  0  0  0  0  0  0  0
   -0.8340    9.7930   -7.2980 C   0  0  0  0  0  0  0  0  0  0  0  0
    1.0170   14.2420   -3.9550 C   0  0  0  0  0  0  0  0  0  0  0  0
   -0.9610    8.8940   -8.7550 Cl  0  0  0  0  0  0  0  0  0  0  0  0
   -0.4360   14.5420   -3.6150 C   0  0  0  0  0  0  0  0  0  0  0  0
    1.6960   15.5490   -4.2060 C   0  0  0  0  0  0  0  0  0  0  0  0
   -1.1170   15.1440   -4.8300 C   0  0  0  0  0  0  0  0  0  0  0  0
    0.9780   16.5000   -5.1550 C   0  0  0  0  0  0  0  0  0  0  0  0
   -0.4870   16.4210   -5.1670 N   0  0  0  0  0  0  0  0  0  0  0  0
   -1.2630   17.5440   -5.0520 C   0  0  0  0  0  0  0  0  0  0  0  0
   -0.6910   18.6990   -5.4530 N   0  0  0  0  0  0  0  0  0  0  0  0
   -2.4010   17.5650   -4.6260 O   0  0  0  0  0  0  0  0  0  0  0  0
  2  1  1  1
  2  3  1  0
  2  4  1  0
  4  5  2  0
  3  6  1  0
  4  7  1  0
  6  7  1  0
  3  8  1  0
  6  9  2  3
  8 10  2  0
  8 11  1  0
  9 12  1  0
 10 13  1  0
 11 14  2  0
 12 15  2  0
 13 16  2  0
 14 16  1  0
 12 17  1  0
 16 18  1  0
 17 19  1  0
 17 20  1  0
 19 21  1  0
 20 22  1  0
 21 23  1  0
 22 23  1  0
 23 24  1  0
 24 25  1  0
 24 26  2  0
M  END
