diamond-x0852_0_B-diamond-x0438_0_A
     RDKit          3D

 23 25  0  0  0  0  0  0  0  0999 V2000
   -9.7990   17.9000    7.6610 N   0  0  0  0  0  0  0  0  0  0  0  0
   -9.4630   17.3060    6.7260 C   0  0  0  0  0  0  0  0  0  0  0  0
   -9.0900   16.6190    5.5430 C   0  0  0  0  0  0  0  0  0  0  0  0
   -8.1090   15.6110    5.5210 C   0  0  0  0  0  0  0  0  0  0  0  0
   -9.7390   16.9710    4.3710 C   0  0  0  0  0  0  0  0  0  0  0  0
   -7.4010   15.1710    6.5980 O   0  0  0  0  0  0  0  0  0  0  0  0
   -7.7830   14.9710    4.3490 C   0  0  0  0  0  0  0  0  0  0  0  0
   -9.3920   16.3070    3.2300 C   0  0  0  0  0  0  0  0  0  0  0  0
  -10.0090   16.5860    2.0090 N   0  0  0  0  0  0  0  0  0  0  0  0
   -8.4320   15.3260    3.2030 C   0  0  0  0  0  0  0  0  0  0  0  0
  -10.0610   15.3010    1.2060 S   0  0  2  0  0  0  0  0  0  0  0  0
   -9.4640   15.8500   -0.3360 C   0  0  0  0  0  0  0  0  0  0  0  0
  -11.2890   14.5450    1.1170 O   0  0  0  0  0  0  0  0  0  0  0  0
   -8.7740   14.1030    1.6210 C   0  0  0  0  0  0  0  0  0  0  0  0
   -7.4450   14.3970    0.9850 C   0  0  0  0  0  0  0  0  0  0  0  0
   -7.2480   14.7410   -0.3410 N   0  0  0  0  0  0  0  0  0  0  0  0
   -6.2920   14.3590    1.6090 N   0  0  0  0  0  0  0  0  0  0  0  0
   -5.3270   14.6780    0.6920 C   0  0  0  0  0  0  0  0  0  0  0  0
   -5.9000   14.9260   -0.5450 C   0  0  0  0  0  0  0  0  0  0  0  0
   -5.1560   15.2760   -1.6700 C   0  0  0  0  0  0  0  0  0  0  0  0
   -3.9380   14.7740    0.8480 C   0  0  0  0  0  0  0  0  0  0  0  0
   -3.7720   15.3660   -1.5000 C   0  0  0  0  0  0  0  0  0  0  0  0
   -3.1700   15.1180   -0.2620 C   0  0  0  0  0  0  0  0  0  0  0  0
  1  2  3  0
  2  3  1  0
  3  4  2  0
  3  5  1  0
  4  6  1  0
  4  7  1  0
  5  8  2  0
  8  9  1  0
  7 10  2  0
  8 10  1  0
  9 11  2  0
 11 12  1  6
 11 13  2  0
 11 14  1  0
 14 15  1  0
 15 16  1  0
 15 17  2  0
 17 18  1  0
 16 19  1  0
 18 19  2  0
 19 20  1  0
 18 21  1  0
 20 22  2  0
 21 23  2  0
 22 23  1  0
M  END
