diamond-x0895_1_A-mac-x0546
     RDKit          3D

 25 27  0  0  0  0  0  0  0  0999 V2000
   -1.7160   14.6870    1.6500 O   0  0  0  0  0  0  0  0  0  0  0  0
   -2.7910   14.5890    1.0570 C   0  0  0  0  0  0  0  0  0  0  0  0
   -2.9980   14.1800   -0.4000 C   0  0  2  0  0  0  0  0  0  0  0  0
   -4.0150   14.8210    1.5920 N   0  0  0  0  0  0  0  0  0  0  0  0
   -1.9960   14.8480   -1.3010 C   0  0  0  0  0  0  0  0  0  0  0  0
   -4.3200   14.6980   -0.5790 N   0  0  0  0  0  0  0  0  0  0  0  0
   -4.9580   14.7960    0.6200 C   0  0  0  0  0  0  0  0  0  0  0  0
   -6.1620   14.8370    0.7820 O   0  0  0  0  0  0  0  0  0  0  0  0
   -1.1600   13.9980   -2.2230 C   0  0  0  0  0  0  0  0  0  0  0  0
   -1.6880   12.6120   -2.4650 C   0  0  0  0  0  0  0  0  0  0  0  0
   -0.5790   11.6970   -2.3630 N   0  0  0  0  0  0  0  0  0  0  0  0
    0.3040   11.6640   -3.2650 C   0  0  0  0  0  0  0  0  0  0  0  0
    0.5370   12.4290   -4.5580 C   0  0  0  0  0  0  0  0  0  0  0  0
    1.2080   10.7430   -3.0390 O   0  0  0  0  0  0  0  0  0  0  0  0
    0.7410   13.9050   -4.4180 C   0  0  0  0  0  0  0  0  0  0  0  0
   -0.0560   14.8600   -5.2200 C   0  0  1  0  0  0  0  0  0  0  0  0
    1.5900   14.6140   -3.6660 C   0  0  0  0  0  0  0  0  0  0  0  0
   -1.5440   14.9290   -5.1680 C   0  0  0  0  0  0  0  0  0  0  0  0
    0.5170   16.1320   -4.6630 C   0  0  0  0  0  0  0  0  0  0  0  0
    1.4550   15.9750   -3.7960 N   0  0  0  0  0  0  0  0  0  0  0  0
   -2.1510   16.1260   -5.2810 C   0  0  0  0  0  0  0  0  0  0  0  0
   -0.0430   17.4110   -5.1400 C   0  0  0  0  0  0  0  0  0  0  0  0
   -3.4920   16.3360   -5.2860 O   0  0  0  0  0  0  0  0  0  0  0  0
   -1.3630   17.3520   -5.4290 C   0  0  0  0  0  0  0  0  0  0  0  0
   -4.3080   15.3310   -5.8820 C   0  0  0  0  0  0  0  0  0  0  0  0
  1  2  2  0
  2  3  1  0
  2  4  1  0
  3  5  1  6
  3  6  1  0
  4  7  1  0
  6  7  1  0
  7  8  2  0
  5  9  1  0
  9 10  1  0
 10 11  1  0
 11 12  2  3
 12 13  1  0
 12 14  1  0
 13 15  1  0
 15 16  1  0
 15 17  2  0
 16 18  1  1
 16 19  1  0
 17 20  1  0
 19 20  2  0
 18 21  2  0
 19 22  1  0
 21 23  1  0
 21 24  1  0
 22 24  2  0
 23 25  1  0
M  END
