diamond-x0685_0_A-diamond-x0722_0_A
     RDKit          3D

 20 21  0  0  0  0  0  0  0  0999 V2000
   -5.5380   15.0010    2.1690 N   0  0  0  0  0  0  0  0  0  0  0  0
   -6.2640   14.7350    3.4290 C   0  0  0  0  0  0  0  0  0  0  0  0
   -7.7020   14.2420    3.2350 C   0  0  0  0  0  0  0  0  0  0  0  0
   -6.0100   14.2090    1.0280 C   0  0  2  0  0  0  0  0  0  0  0  0
   -4.0890   15.3010    2.3320 C   0  0  0  0  0  0  0  0  0  0  0  0
   -6.5490   12.8530    1.3800 C   0  0  0  0  0  0  0  0  0  0  0  0
   -5.1020   13.7440   -0.1490 C   0  0  1  0  0  0  0  0  0  0  0  0
   -3.2130   14.3190    1.6750 N   0  0  0  0  0  0  0  0  0  0  0  0
   -4.5860   14.7740   -1.1290 C   0  0  1  0  0  0  0  0  0  0  0  0
   -4.4600   12.4970    0.3470 C   0  0  0  0  0  0  0  0  0  0  0  0
   -1.9720   14.9510    1.1660 N   0  0  0  0  0  0  0  0  0  0  0  0
   -5.6920   11.9090    1.0030 C   0  0  0  0  0  0  0  0  0  0  0  0
   -4.0550   14.2060   -2.4560 N   0  0  0  0  0  0  0  0  0  0  0  0
   -6.0420   15.2590   -1.3910 C   0  0  0  0  0  0  0  0  0  0  0  0
   -0.7710   14.1180    1.3870 C   0  0  0  0  0  0  0  0  0  0  0  0
   -3.5300   15.7830   -0.6680 C   0  0  0  0  0  0  0  0  0  0  0  0
   -2.1080   15.3410   -0.2520 C   0  0  2  0  0  0  0  0  0  0  0  0
   -6.4980   16.3610   -1.4340 O   0  0  0  0  0  0  0  0  0  0  0  0
   -6.8860   14.1890   -1.5450 N   0  0  0  0  0  0  0  0  0  0  0  0
   -1.5640   14.2880   -1.2300 C   0  0  0  0  0  0  0  0  0  0  0  0
  1  2  1  0
  2  3  1  0
  1  4  1  0
  1  5  1  0
  4  6  1  1
  4  7  1  0
  5  8  1  0
  7  9  1  0
  7 10  1  1
  8 11  1  0
  6 12  2  0
 10 12  1  0
  9 13  1  6
  9 14  1  0
 11 15  1  0
  9 16  1  0
 11 17  1  0
 16 17  1  0
 14 18  2  0
 14 19  1  0
 17 20  1  6
M  END
