diamond-x0685_0_A-mac-x0394
     RDKit          3D

 24 25  0  0  0  0  0  0  0  0999 V2000
   -5.9440   14.7320    2.7700 N   0  0  0  0  0  0  0  0  0  0  0  0
   -7.3760   14.8960    2.9900 C   0  0  0  0  0  0  0  0  0  0  0  0
   -7.9940   13.5210    3.1670 C   0  0  0  0  0  0  0  0  0  0  0  0
   -5.3490   14.8350    1.5360 C   0  0  0  0  0  0  0  0  0  0  0  0
   -3.9730   15.0010    1.3730 C   0  0  0  0  0  0  0  0  0  0  0  0
   -6.2030   14.7520    0.5110 N   0  0  0  0  0  0  0  0  0  0  0  0
   -3.4460   15.0780    0.0910 C   0  0  0  0  0  0  0  0  0  0  0  0
   -5.6730   14.8300   -0.7130 C   0  0  0  0  0  0  0  0  0  0  0  0
   -4.3330   14.9830   -0.9750 C   0  0  0  0  0  0  0  0  0  0  0  0
   -3.9600   15.0160   -2.3250 C   0  0  0  0  0  0  0  0  0  0  0  0
   -3.8490   14.8850   -3.4900 C   0  0  0  0  0  0  0  0  0  0  0  0
   -3.9110   14.5920   -4.9150 C   0  0  0  0  0  0  0  0  0  0  0  0
   -3.0920   15.5760   -5.6970 C   0  0  0  0  0  0  0  0  0  0  0  0
   -1.6510   15.5680   -5.2790 C   0  0  0  0  0  0  0  0  0  0  0  0
   -0.9560   14.3780   -4.9830 C   0  0  0  0  0  0  0  0  0  0  0  0
   -0.9900   16.7750   -5.1960 C   0  0  0  0  0  0  0  0  0  0  0  0
    0.4010   14.4090   -4.6090 C   0  0  0  0  0  0  0  0  0  0  0  0
    0.3320   16.8020   -4.8320 C   0  0  0  0  0  0  0  0  0  0  0  0
    1.0740   18.3160   -4.7610 Cl  0  0  0  0  0  0  0  0  0  0  0  0
    1.1560   13.1380   -4.2930 C   0  0  0  0  0  0  0  0  0  0  0  0
    1.0410   15.6450   -4.5360 C   0  0  0  0  0  0  0  0  0  0  0  0
    0.7480   12.5000   -2.9860 C   0  0  0  0  0  0  0  0  0  0  0  0
    0.1360   11.3130   -3.1740 O   0  0  0  0  0  0  0  0  0  0  0  0
    0.9100   12.9260   -1.8560 O   0  0  0  0  0  0  0  0  0  0  0  0
  1  2  1  0
  2  3  1  0
  1  4  1  0
  4  5  2  0
  4  6  1  0
  5  7  1  0
  6  8  2  0
  7  9  2  0
  8  9  1  0
  9 10  1  0
 10 11  3  0
 11 12  1  0
 12 13  1  0
 13 14  1  0
 14 15  2  0
 14 16  1  0
 15 17  1  0
 16 18  2  0
 18 19  1  0
 17 20  1  0
 17 21  2  0
 18 21  1  0
 20 22  1  0
 22 23  1  0
 22 24  2  0
M  END
