diamond-x0962_2_B-mac-x0124
     RDKit          3D

 20 22  0  0  0  0  0  0  0  0999 V2000
  -11.3850   16.5030    1.5560 N   0  0  0  0  0  0  0  0  0  0  0  0
  -10.4170   16.1010    2.0350 C   0  0  0  0  0  0  0  0  0  0  0  0
   -9.1920   15.5540    2.4660 C   0  0  0  0  0  0  0  0  0  0  0  0
   -8.5940   15.7020    3.7000 N   0  0  0  0  0  0  0  0  0  0  0  0
   -8.4570   14.7920    1.6370 C   0  0  0  0  0  0  0  0  0  0  0  0
   -7.4600   15.0040    3.5850 C   0  0  0  0  0  0  0  0  0  0  0  0
   -7.3650   14.4410    2.3100 N   0  0  0  0  0  0  0  0  0  0  0  0
   -6.3490   13.6030    1.6380 C   0  0  0  0  0  0  0  0  0  0  0  0
   -5.2640   14.3720    0.8100 C   0  0  0  0  0  0  0  0  0  0  0  0
   -4.0770   14.8510    1.5350 N   0  0  0  0  0  0  0  0  0  0  0  0
   -2.8080   14.7840    0.9300 C   0  0  0  0  0  0  0  0  0  0  0  0
   -2.6320   14.8340   -0.4670 C   0  0  0  0  0  0  0  0  0  0  0  0
   -1.6860   14.6660    1.6940 N   0  0  0  0  0  0  0  0  0  0  0  0
   -3.4810   14.9460   -1.6040 C   0  0  0  0  0  0  0  0  0  0  0  0
   -1.3280   14.7640   -0.9500 C   0  0  0  0  0  0  0  0  0  0  0  0
   -0.4800   14.6150    1.0890 C   0  0  0  0  0  0  0  0  0  0  0  0
   -1.3780   14.8310   -2.3180 N   0  0  0  0  0  0  0  0  0  0  0  0
   -2.6830   14.9400   -2.7330 C   0  0  0  0  0  0  0  0  0  0  0  0
   -0.2020   14.6550   -0.2270 N   0  0  0  0  0  0  0  0  0  0  0  0
   -0.2150   14.7960   -3.1800 C   0  0  0  0  0  0  0  0  0  0  0  0
  1  2  3  0
  2  3  1  0
  3  4  1  0
  3  5  2  0
  4  6  2  0
  5  7  1  0
  6  7  1  0
  7  8  1  0
  8  9  1  0
  9 10  1  0
 10 11  1  0
 11 12  1  0
 11 13  2  0
 12 14  1  0
 12 15  2  0
 13 16  1  0
 15 17  1  0
 14 18  2  0
 17 18  1  0
 15 19  1  0
 16 19  2  0
 17 20  1  0
M  END
