diamond-x0962_2_B-mac-x0321
     RDKit          3D

 19 20  0  0  0  0  0  0  0  0999 V2000
  -11.1330   16.0950    1.2060 N   0  0  0  0  0  0  0  0  0  0  0  0
  -10.2750   15.8840    1.9560 C   0  0  0  0  0  0  0  0  0  0  0  0
   -9.1680   15.6300    2.8090 C   0  0  0  0  0  0  0  0  0  0  0  0
   -9.0760   16.1240    4.0900 N   0  0  0  0  0  0  0  0  0  0  0  0
   -8.0680   14.8890    2.4790 C   0  0  0  0  0  0  0  0  0  0  0  0
   -7.9170   15.6880    4.5330 C   0  0  0  0  0  0  0  0  0  0  0  0
   -7.2780   14.9440    3.5780 N   0  0  0  0  0  0  0  0  0  0  0  0
   -5.9810   14.3230    3.6990 C   0  0  0  0  0  0  0  0  0  0  0  0
   -4.8810   15.1120    2.9470 C   0  0  0  0  0  0  0  0  0  0  0  0
   -4.1050   14.3260    1.8810 C   0  0  0  0  0  0  0  0  0  0  0  0
   -4.2450   14.7240    0.4050 C   0  0  0  0  0  0  0  0  0  0  0  0
   -3.1050   14.6500   -0.4120 C   0  0  0  0  0  0  0  0  0  0  0  0
   -5.4490   15.1450   -0.1890 C   0  0  0  0  0  0  0  0  0  0  0  0
   -3.1520   14.9660   -1.7760 C   0  0  0  0  0  0  0  0  0  0  0  0
   -5.5020   15.4680   -1.5520 C   0  0  0  0  0  0  0  0  0  0  0  0
   -1.9510   14.8720   -2.6520 C   0  0  0  0  0  0  0  0  0  0  0  0
   -4.3560   15.3730   -2.3420 C   0  0  0  0  0  0  0  0  0  0  0  0
   -0.7960   14.7920   -1.9630 O   0  0  0  0  0  0  0  0  0  0  0  0
   -1.9550   14.8520   -3.8700 O   0  0  0  0  0  0  0  0  0  0  0  0
  1  2  3  0
  2  3  1  0
  3  4  1  0
  3  5  2  0
  4  6  2  0
  5  7  1  0
  6  7  1  0
  7  8  1  0
  8  9  1  0
  9 10  1  0
 10 11  1  0
 11 12  2  0
 11 13  1  0
 12 14  1  0
 13 15  2  0
 14 16  1  0
 14 17  2  0
 15 17  1  0
 16 18  1  0
 16 19  2  0
M  END
