diamond-x0933_0_A-mac-x0451
     RDKit          3D

 12 13  0  0  0  0  0  0  0  0999 V2000
   -5.6820   14.5860    1.6330 N   0  0  0  0  0  0  0  0  0  0  0  0
   -4.5100   15.3200    1.1920 C   0  0  1  0  0  0  0  0  0  0  0  0
   -3.3640   14.6550    1.7660 N   0  0  0  0  0  0  0  0  0  0  0  0
   -4.2370   15.3430   -0.3330 C   0  0  2  0  0  0  0  0  0  0  0  0
   -5.2710   15.0060   -1.2890 N   0  0  0  0  0  0  0  0  0  0  0  0
   -3.1070   14.3800   -0.5260 C   0  0  2  0  0  0  0  0  0  0  0  0
   -2.3200   14.6790    0.7380 C   0  0  0  0  0  0  0  0  0  0  0  0
   -6.5390   15.5980   -1.0280 C   0  0  0  0  0  0  0  0  0  0  0  0
   -4.8600   14.9950   -2.5830 C   0  0  0  0  0  0  0  0  0  0  0  0
   -2.5040   14.6430   -1.9140 C   0  0  1  0  0  0  0  0  0  0  0  0
   -1.6910   13.6600   -2.3450 F   0  0  0  0  0  0  0  0  0  0  0  0
   -3.5820   14.8360   -2.9390 C   0  0  0  0  0  0  0  0  0  0  0  0
  2  1  1  6
  2  3  1  0
  2  4  1  0
  4  5  1  6
  4  6  1  0
  3  7  1  0
  6  7  1  1
  5  8  1  0
  5  9  1  0
  6 10  1  0
 10 11  1  6
  9 12  2  0
 10 12  1  0
M  END
