diamond-x0711_0_A-mac-x0590
     RDKit          3D

 25 27  0  0  0  0  0  0  0  0999 V2000
   -1.8190   15.2240   -2.4980 N   0  0  0  0  0  0  0  0  0  0  0  0
   -0.5580   14.4320   -3.2450 S   0  0  0  0  0  0  0  0  0  0  0  0
   -1.4690   13.2920   -4.2670 C   0  0  0  0  0  0  0  0  0  0  0  0
   -2.7790   14.3520   -1.7680 C   0  0  2  0  0  0  0  0  0  0  0  0
    0.1630   15.3260   -4.1200 O   0  0  0  0  0  0  0  0  0  0  0  0
    0.1040   13.6450   -2.2250 O   0  0  0  0  0  0  0  0  0  0  0  0
   -4.1020   14.6860   -2.4200 C   0  0  0  0  0  0  0  0  0  0  0  0
   -2.6680   14.6270   -0.2090 C   0  0  1  0  0  0  0  0  0  0  0  0
   -0.7150   12.7970   -5.4750 C   0  0  0  0  0  0  0  0  0  0  0  0
   -5.1940   15.0850   -1.7730 C   0  0  0  0  0  0  0  0  0  0  0  0
   -4.0620   14.6820    0.5160 C   0  0  1  0  0  0  0  0  0  0  0  0
   -1.7160   13.6900    0.4910 N   0  0  0  0  0  0  0  0  0  0  0  0
   -1.8850   15.9060   -0.0290 C   0  0  0  0  0  0  0  0  0  0  0  0
   -3.9960   15.4640    1.7670 N   0  0  0  0  0  0  0  0  0  0  0  0
   -5.2430   15.2660   -0.2890 C   0  0  2  0  0  0  0  0  0  0  0  0
    0.5120   11.9760   -5.1420 C   0  0  2  0  0  0  0  0  0  0  0  0
   -0.5020   15.4810   -0.1750 N   0  0  0  0  0  0  0  0  0  0  0  0
   -0.4450   14.3650    0.7160 C   0  0  0  0  0  0  0  0  0  0  0  0
   -6.5510   14.7160    0.2970 C   0  0  0  0  0  0  0  0  0  0  0  0
    0.7270   11.7490   -3.6450 C   0  0  0  0  0  0  0  0  0  0  0  0
    1.7880   12.6450   -5.6290 C   0  0  0  0  0  0  0  0  0  0  0  0
   -6.6480   14.5780    1.6630 N   0  0  0  0  0  0  0  0  0  0  0  0
   -7.5110   14.4140   -0.4070 O   0  0  0  0  0  0  0  0  0  0  0  0
    2.5660   12.9830   -4.3760 C   0  0  0  0  0  0  0  0  0  0  0  0
    2.0610   12.1690   -3.3170 O   0  0  0  0  0  0  0  0  0  0  0  0
  2  1  1  0
  2  3  1  0
  4  1  1  6
  2  5  2  0
  2  6  2  0
  4  7  1  0
  4  8  1  0
  3  9  1  0
  7 10  2  0
  8 11  1  0
  8 12  1  0
  8 13  1  6
 11 14  1  1
 10 15  1  0
 11 15  1  0
 16  9  1  1
 13 17  1  0
 12 18  1  0
 17 18  1  0
 15 19  1  1
 16 20  1  0
 16 21  1  0
 19 22  1  0
 19 23  2  0
 21 24  1  0
 20 25  1  0
 24 25  1  0
M  END
