diamond-x0628_0_A-diamond-x0685_1_A
     RDKit          3D

 19 20  0  0  0  0  0  0  0  0999 V2000
    0.9190   10.0920   -8.3100 C   0  0  0  0  0  0  0  0  0  0  0  0
    0.4640   10.8930   -7.1590 C   0  0  0  0  0  0  0  0  0  0  0  0
   -0.6680   10.6220   -6.4760 N   0  0  0  0  0  0  0  0  0  0  0  0
    1.1400   11.9430   -6.7070 N   0  0  0  0  0  0  0  0  0  0  0  0
    0.3760   12.3470   -5.6810 N   0  0  0  0  0  0  0  0  0  0  0  0
   -0.7170   11.5420   -5.5460 C   0  0  0  0  0  0  0  0  0  0  0  0
   -1.8050   11.6380   -4.5440 C   0  0  0  0  0  0  0  0  0  0  0  0
    0.8020   13.4970   -4.9250 C   0  0  0  0  0  0  0  0  0  0  0  0
    1.8110   13.1240   -3.8570 C   0  0  0  0  0  0  0  0  0  0  0  0
   -2.6530   10.4580   -4.7070 N   0  0  0  0  0  0  0  0  0  0  0  0
    1.0930   12.4810   -2.7080 C   0  0  0  0  0  0  0  0  0  0  0  0
   -2.4950    9.6830   -5.9580 C   0  0  0  0  0  0  0  0  0  0  0  0
    0.7990   11.3040   -2.5990 O   0  0  0  0  0  0  0  0  0  0  0  0
    0.7670   13.3660   -1.7540 O   0  0  0  0  0  0  0  0  0  0  0  0
   -1.3040    8.6730   -5.9360 C   0  0  0  0  0  0  0  0  0  0  0  0
   -2.6650   10.5680   -7.2220 C   0  0  0  0  0  0  0  0  0  0  0  0
   -0.7380    8.2090   -7.2900 C   0  0  0  0  0  0  0  0  0  0  0  0
   -1.9520   10.0830   -8.4930 C   0  0  0  0  0  0  0  0  0  0  0  0
   -1.5940    8.5970   -8.4860 C   0  0  0  0  0  0  0  0  0  0  0  0
  1  2  1  0
  2  3  1  0
  2  4  2  0
  4  5  1  0
  3  6  2  0
  5  6  1  0
  6  7  1  0
  5  8  1  0
  8  9  1  0
  7 10  1  0
  9 11  1  0
 10 12  1  0
 11 13  2  0
 11 14  1  0
 12 15  1  0
 12 16  1  0
 15 17  1  0
 16 18  1  0
 17 19  1  0
 18 19  1  0
M  END
