diamond-x0685_1_A-mac-x0263
     RDKit          3D

 30 32  0  0  0  0  0  0  0  0999 V2000
   -1.3030   10.7320   -4.9420 N   0  0  0  0  0  0  0  0  0  0  0  0
   -1.0270   12.1850   -4.9270 C   0  0  0  0  0  0  0  0  0  0  0  0
    0.4000   12.4920   -4.5050 C   0  0  0  0  0  0  0  0  0  0  0  0
   -1.4030   10.1460   -6.2890 C   0  0  0  0  0  0  0  0  0  0  0  0
   -0.6570    8.8010   -6.4220 C   0  0  0  0  0  0  0  0  0  0  0  0
   -1.1240   11.1460   -7.4310 C   0  0  0  0  0  0  0  0  0  0  0  0
    0.7770   12.1050   -2.8040 S   0  0  0  0  0  0  0  0  0  0  0  0
    0.1540    8.7040   -7.7050 C   0  0  0  0  0  0  0  0  0  0  0  0
   -1.2950   10.5110   -8.8050 C   0  0  0  0  0  0  0  0  0  0  0  0
    2.3410   12.4060   -2.6860 O   0  0  0  0  0  0  0  0  0  0  0  0
    0.4290   10.5400   -2.5700 O   0  0  0  0  0  0  0  0  0  0  0  0
   -0.1380   13.0710   -1.9210 O   0  0  0  0  0  0  0  0  0  0  0  0
   -0.6760    9.1140   -8.9190 C   0  0  0  0  0  0  0  0  0  0  0  0
    0.3600   13.7840   -0.8110 C   0  0  0  0  0  0  0  0  0  0  0  0
   -0.5310   14.9980   -0.6580 C   0  0  0  0  0  0  0  0  0  0  0  0
   -1.6520   14.8940    0.3920 C   0  0  0  0  0  0  0  0  0  0  0  0
   -3.1230   14.9770   -0.0480 C   0  0  0  0  0  0  0  0  0  0  0  0
   -3.5970   15.3220   -1.3420 C   0  0  0  0  0  0  0  0  0  0  0  0
   -4.0580   14.6740    0.9350 C   0  0  0  0  0  0  0  0  0  0  0  0
   -5.4260   14.6970    0.6570 C   0  0  0  0  0  0  0  0  0  0  0  0
   -4.9810   15.3550   -1.6430 C   0  0  0  0  0  0  0  0  0  0  0  0
   -5.8650   15.0300   -0.6120 C   0  0  0  0  0  0  0  0  0  0  0  0
   -6.4810   14.4200    1.4860 N   0  0  0  0  0  0  0  0  0  0  0  0
   -7.5600   14.5680    0.7670 C   0  0  0  0  0  0  0  0  0  0  0  0
   -7.2420   14.9410   -0.5220 N   0  0  0  0  0  0  0  0  0  0  0  0
   -8.9580   14.3650    1.2510 C   0  0  0  0  0  0  0  0  0  0  0  0
   -9.4340   15.5410    2.1000 C   0  0  0  0  0  0  0  0  0  0  0  0
  -10.8040   15.3020    2.6930 C   0  0  0  0  0  0  0  0  0  0  0  0
  -11.4440   14.2370    2.1730 O   0  0  0  0  0  0  0  0  0  0  0  0
  -11.3210   15.9780    3.5690 O   0  0  0  0  0  0  0  0  0  0  0  0
  1  2  1  0
  2  3  1  0
  1  4  1  0
  4  5  1  0
  4  6  1  0
  3  7  1  0
  5  8  1  0
  6  9  1  0
  7 10  1  0
  7 11  1  0
  7 12  1  0
  8 13  1  0
  9 13  1  0
 12 14  1  0
 14 15  1  0
 15 16  1  0
 16 17  1  0
 17 18  2  0
 17 19  1  0
 19 20  2  0
 18 21  1  0
 20 22  1  0
 21 22  2  0
 20 23  1  0
 23 24  2  0
 22 25  1  0
 24 25  1  0
 24 26  1  0
 26 27  1  0
 27 28  1  0
 28 29  1  0
 28 30  2  0
M  END
