diamond-x0524_0_A-mac-x0301
     RDKit          3D

 32 35  0  0  0  0  0  0  0  0999 V2000
   -0.5370    8.5880   -8.1640 N   0  0  0  0  0  0  0  0  0  0  0  0
   -0.8190    9.4450   -7.1160 C   0  0  0  0  0  0  0  0  0  0  0  0
   -2.0350    9.0560   -6.2860 C   0  0  0  0  0  0  0  0  0  0  0  0
    0.5360    8.5880   -9.0790 C   0  0  0  0  0  0  0  0  0  0  0  0
   -0.1270   10.4910   -6.8380 N   0  0  0  0  0  0  0  0  0  0  0  0
    1.6850    7.8130   -8.9270 C   0  0  0  0  0  0  0  0  0  0  0  0
    0.4540    9.4030  -10.2170 C   0  0  0  0  0  0  0  0  0  0  0  0
   -0.4690   11.3580   -5.7110 C   0  0  0  0  0  0  0  0  0  0  0  0
    2.7180    7.8440   -9.8750 C   0  0  0  0  0  0  0  0  0  0  0  0
    1.4860    9.4350  -11.1660 C   0  0  0  0  0  0  0  0  0  0  0  0
   -0.4460   12.7770   -6.2490 C   0  0  0  0  0  0  0  0  0  0  0  0
    2.6330    8.6520  -11.0100 C   0  0  0  0  0  0  0  0  0  0  0  0
    3.6460    8.7000  -11.9810 N   0  0  0  0  0  0  0  0  0  0  0  0
   -0.0020   13.8300   -5.2340 C   0  0  0  0  0  0  0  0  0  0  0  0
   -1.0980   14.0840   -4.3050 N   0  0  0  0  0  0  0  0  0  0  0  0
    3.8980    9.5480  -13.0740 C   0  0  0  0  0  0  0  0  0  0  0  0
   -0.8450   14.4660   -3.1140 C   0  0  0  0  0  0  0  0  0  0  0  0
    3.1790   10.7450  -13.2160 C   0  0  0  0  0  0  0  0  0  0  0  0
    4.8550    9.2410  -14.0400 C   0  0  0  0  0  0  0  0  0  0  0  0
    0.4550   14.6250   -2.8090 O   0  0  0  0  0  0  0  0  0  0  0  0
    3.4180   11.6010  -14.2890 C   0  0  0  0  0  0  0  0  0  0  0  0
    5.0980   10.0970  -15.1170 C   0  0  0  0  0  0  0  0  0  0  0  0
   -1.7270   14.7650   -1.9580 C   0  0  0  0  0  0  0  0  0  0  0  0
    4.3780   11.2790  -15.2400 C   0  0  0  0  0  0  0  0  0  0  0  0
   -1.2370   14.6740   -0.6640 C   0  0  0  0  0  0  0  0  0  0  0  0
   -3.0690   15.1410   -2.1190 C   0  0  0  0  0  0  0  0  0  0  0  0
   -2.0250   14.9350    0.4440 C   0  0  0  0  0  0  0  0  0  0  0  0
   -3.8700   15.4090   -0.9840 C   0  0  0  0  0  0  0  0  0  0  0  0
    0.0250   14.3240   -0.3110 O   0  0  0  0  0  0  0  0  0  0  0  0
   -3.3480   15.3050    0.3120 C   0  0  0  0  0  0  0  0  0  0  0  0
   -1.3480   14.7850    1.6220 O   0  0  0  0  0  0  0  0  0  0  0  0
   -0.0380   14.4820    1.1200 C   0  0  0  0  0  0  0  0  0  0  0  0
  1  2  1  0
  2  3  1  0
  1  4  1  0
  2  5  2  3
  4  6  2  0
  4  7  1  0
  5  8  1  0
  6  9  1  0
  7 10  2  0
  8 11  1  0
  9 12  2  0
 10 12  1  0
 12 13  1  0
 11 14  1  0
 14 15  1  0
 13 16  1  0
 15 17  2  3
 16 18  2  0
 16 19  1  0
 17 20  1  0
 18 21  1  0
 19 22  2  0
 17 23  1  0
 21 24  2  0
 22 24  1  0
 23 25  1  0
 23 26  2  0
 25 27  2  0
 26 28  1  0
 25 29  1  0
 27 30  1  0
 28 30  2  0
 27 31  1  0
 29 32  1  0
 31 32  1  0
M  END
