diamond-x0933_0_A-mac-x0347
     RDKit          3D

 15 16  0  0  0  0  0  0  0  0999 V2000
   -5.9300   14.8670    1.8340 N   0  0  0  0  0  0  0  0  0  0  0  0
   -4.9530   14.2440    1.0170 C   0  0  2  0  0  0  0  0  0  0  0  0
   -3.6920   14.8820    1.2340 N   0  0  0  0  0  0  0  0  0  0  0  0
   -5.3670   14.2830   -0.3360 N   0  0  0  0  0  0  0  0  0  0  0  0
   -4.2920   13.8620   -1.2370 C   0  0  0  0  0  0  0  0  0  0  0  0
   -3.1600   15.6240    0.0870 C   0  0  0  0  0  0  0  0  0  0  0  0
   -3.0640   14.7970   -1.2290 C   0  0  1  0  0  0  0  0  0  0  0  0
   -1.6780   14.0560   -1.2610 C   0  0  0  0  0  0  0  0  0  0  0  0
   -3.2320   15.6970   -2.4790 C   0  0  0  0  0  0  0  0  0  0  0  0
   -0.9450   13.9210   -2.6190 C   0  0  2  0  0  0  0  0  0  0  0  0
   -2.8860   15.0420   -3.7340 N   0  0  0  0  0  0  0  0  0  0  0  0
    0.5640   13.9700   -2.4310 C   0  0  0  0  0  0  0  0  0  0  0  0
   -1.4360   14.8680   -3.7250 C   0  0  0  0  0  0  0  0  0  0  0  0
    1.2420   14.4100   -3.5150 O   0  0  0  0  0  0  0  0  0  0  0  0
    1.1440   13.6500   -1.4150 O   0  0  0  0  0  0  0  0  0  0  0  0
  2  1  1  1
  2  3  1  0
  2  4  1  0
  4  5  1  0
  3  6  1  0
  7  5  1  1
  6  7  1  0
  7  8  1  0
  7  9  1  0
  8 10  1  0
  9 11  1  0
 10 12  1  1
 10 13  1  0
 11 13  1  0
 12 14  1  0
 12 15  2  0
M  END
