diamond-x0722_0_A-diamond-x1015_0_A
     RDKit          3D

 28 30  0  0  0  0  0  0  0  0999 V2000
   -4.4340   15.8330    2.3360 C   0  0  0  0  0  0  0  0  0  0  0  0
   -3.4470   15.3520    1.3910 C   0  0  0  0  0  0  0  0  0  0  0  0
   -2.2940   14.9580    1.8750 N   0  0  0  0  0  0  0  0  0  0  0  0
   -3.5290   15.2600   -0.0050 C   0  0  0  0  0  0  0  0  0  0  0  0
   -4.7090   15.6100   -0.8700 C   0  0  0  0  0  0  0  0  0  0  0  0
   -2.2640   14.8000   -0.3490 C   0  0  0  0  0  0  0  0  0  0  0  0
   -1.5780   14.6320    0.8280 N   0  0  0  0  0  0  0  0  0  0  0  0
   -0.2350   14.1810    1.0820 C   0  0  0  0  0  0  0  0  0  0  0  0
   -1.6530   14.5260   -1.6650 C   0  0  0  0  0  0  0  0  0  0  0  0
   -5.9350   14.7400   -0.6340 C   0  0  0  0  0  0  0  0  0  0  0  0
   -7.0820   15.1310   -0.8420 O   0  0  0  0  0  0  0  0  0  0  0  0
   -5.7250   13.4690   -0.1680 N   0  0  0  0  0  0  0  0  0  0  0  0
   -0.2460   15.1710   -1.7100 C   0  0  0  0  0  0  0  0  0  0  0  0
    0.6670   14.1090   -1.6370 N   0  0  0  0  0  0  0  0  0  0  0  0
    0.7230   13.4060   -2.6600 C   0  0  0  0  0  0  0  0  0  0  0  0
    0.0770   13.4160   -4.0370 C   0  0  2  0  0  0  0  0  0  0  0  0
    1.4660   12.3350   -2.6230 N   0  0  0  0  0  0  0  0  0  0  0  0
   -1.2130   14.2320   -4.1580 C   0  0  0  0  0  0  0  0  0  0  0  0
   -0.1950   11.9810   -4.0020 N   0  0  0  0  0  0  0  0  0  0  0  0
    0.5200   11.4190   -2.9200 C   0  0  0  0  0  0  0  0  0  0  0  0
    0.3750   10.3650   -2.3140 O   0  0  0  0  0  0  0  0  0  0  0  0
   -0.5710   11.2640   -5.1440 C   0  0  0  0  0  0  0  0  0  0  0  0
   -0.0020   11.5100   -6.3980 C   0  0  0  0  0  0  0  0  0  0  0  0
   -1.5440   10.2640   -5.0380 C   0  0  0  0  0  0  0  0  0  0  0  0
   -0.3920   10.7730   -7.5180 C   0  0  0  0  0  0  0  0  0  0  0  0
   -1.9370    9.5260   -6.1510 C   0  0  0  0  0  0  0  0  0  0  0  0
   -1.3610    9.7820   -7.3840 C   0  0  0  0  0  0  0  0  0  0  0  0
   -1.8480    8.8640   -8.7510 Cl  0  0  0  0  0  0  0  0  0  0  0  0
  1  2  1  0
  2  3  2  0
  2  4  1  0
  4  5  1  0
  4  6  2  0
  3  7  1  0
  6  7  1  0
  7  8  1  0
  6  9  1  0
  5 10  1  0
 10 11  2  0
 10 12  1  0
  9 13  1  0
 13 14  1  0
 14 15  2  3
 15 16  1  0
 15 17  1  0
 16 18  1  1
 16 19  1  0
 17 20  1  0
 19 20  1  0
 20 21  2  0
 19 22  1  0
 22 23  2  0
 22 24  1  0
 23 25  1  0
 24 26  2  0
 25 27  2  0
 26 27  1  0
 27 28  1  0
M  END
