diamond-x0766_0_A-mac-x0587
     RDKit          3D

 19 21  0  0  0  0  0  0  0  0999 V2000
   -0.0360   11.8130   -2.8190 C   0  0  0  0  0  0  0  0  0  0  0  0
    0.7460   10.6860   -2.5350 O   0  0  0  0  0  0  0  0  0  0  0  0
   -0.8320   11.8220   -1.6670 O   0  0  0  0  0  0  0  0  0  0  0  0
   -0.8170   11.6830   -4.1690 C   0  0  0  0  0  0  0  0  0  0  0  0
    0.8300   13.0420   -2.7910 C   0  0  1  0  0  0  0  0  0  0  0  0
   -0.7990   13.1020   -5.3970 S   0  0  0  0  0  0  0  0  0  0  0  0
    1.7990   13.2350   -3.9890 C   0  0  0  0  0  0  0  0  0  0  0  0
    0.0090   14.3090   -2.8420 C   0  0  2  0  0  0  0  0  0  0  0  0
   -1.0640   14.6640   -4.4140 C   0  0  1  0  0  0  0  0  0  0  0  0
    1.8240   14.7530   -4.1990 C   0  0  0  0  0  0  0  0  0  0  0  0
    1.1330   15.2870   -2.9670 C   0  0  0  0  0  0  0  0  0  0  0  0
   -1.1640   14.5060   -1.8920 C   0  0  0  0  0  0  0  0  0  0  0  0
   -0.6400   15.9440   -5.1440 C   0  0  0  0  0  0  0  0  0  0  0  0
   -2.4830   14.8230   -3.8550 C   0  0  0  0  0  0  0  0  0  0  0  0
   -2.3710   14.7540   -2.4360 C   0  0  0  0  0  0  0  0  0  0  0  0
   -1.2470   14.4800   -0.4610 C   0  0  0  0  0  0  0  0  0  0  0  0
   -3.4940   14.9850   -4.5340 O   0  0  0  0  0  0  0  0  0  0  0  0
   -2.5380   14.7170   -0.0120 C   0  0  0  0  0  0  0  0  0  0  0  0
   -3.6430   14.9680   -1.2970 S   0  0  0  0  0  0  0  0  0  0  0  0
  1  2  1  0
  1  3  1  0
  1  4  1  0
  1  5  1  0
  4  6  1  0
  5  7  1  6
  5  8  1  0
  6  9  1  0
  7 10  1  0
  8 11  1  1
 10 11  1  0
  8 12  1  0
  9 13  1  6
  9 14  1  0
 12 15  2  0
 14 15  1  0
 12 16  1  0
 14 17  2  0
 16 18  2  0
 15 19  1  0
 18 19  1  0
M  END
