diamond-x0967_0_A-mac-x0510
     RDKit          3D

 16 18  0  0  0  0  0  0  0  0999 V2000
   -3.9270   16.2100    1.8010 O   0  0  0  0  0  0  0  0  0  0  0  0
   -4.0780   15.5160    0.8290 C   0  0  0  0  0  0  0  0  0  0  0  0
   -5.4190   15.0120    0.6210 C   0  0  0  0  0  0  0  0  0  0  0  0
   -3.0090   15.1410   -0.1860 C   0  0  1  0  0  0  0  0  0  0  0  0
   -5.8340   14.7330   -0.6530 C   0  0  0  0  0  0  0  0  0  0  0  0
   -6.2960   14.8170    1.6890 C   0  0  0  0  0  0  0  0  0  0  0  0
   -3.6060   15.0840   -1.6100 C   0  0  0  0  0  0  0  0  0  0  0  0
   -1.7740   15.9970   -0.1640 N   0  0  0  0  0  0  0  0  0  0  0  0
   -2.4720   13.8260    0.3440 C   0  0  0  0  0  0  0  0  0  0  0  0
   -2.9570   15.2050   -2.6460 O   0  0  0  0  0  0  0  0  0  0  0  0
   -7.0700   14.2800   -0.9300 N   0  0  0  0  0  0  0  0  0  0  0  0
   -7.5690   14.3510    1.4330 C   0  0  0  0  0  0  0  0  0  0  0  0
   -4.9660   14.9160   -1.7140 N   0  0  0  0  0  0  0  0  0  0  0  0
   -1.3790   14.2490    1.2300 N   0  0  0  0  0  0  0  0  0  0  0  0
   -0.6950   15.2160    0.4230 C   0  0  0  0  0  0  0  0  0  0  0  0
   -7.9140   14.1000    0.1170 C   0  0  0  0  0  0  0  0  0  0  0  0
  1  2  2  0
  2  3  1  0
  4  2  1  0
  3  5  2  0
  3  6  1  0
  4  7  1  0
  4  8  1  0
  4  9  1  1
  7 10  2  0
  5 11  1  0
  6 12  2  0
  5 13  1  0
  7 13  1  0
  9 14  1  0
  8 15  1  0
 14 15  1  0
 11 16  2  0
 12 16  1  0
M  END
