diamond-x0849_0_A-mac-x0303
     RDKit          3D

 19 21  0  0  0  0  0  0  0  0999 V2000
   -3.5920   15.0590   -2.5990 Br  0  0  0  0  0  0  0  0  0  0  0  0
   -3.6930   14.2380   -0.8010 C   0  0  1  0  0  0  0  0  0  0  0  0
   -2.3300   14.4230   -0.1880 C   0  0  0  0  0  0  0  0  0  0  0  0
   -4.9020   14.7950    0.0360 C   0  0  1  0  0  0  0  0  0  0  0  0
   -2.2540   14.7460    1.1430 C   0  0  0  0  0  0  0  0  0  0  0  0
   -4.3630   15.6660    1.2020 C   0  0  0  0  0  0  0  0  0  0  0  0
   -1.1260   14.2870   -0.8980 C   0  0  0  0  0  0  0  0  0  0  0  0
   -5.9180   15.5270   -0.8650 C   0  0  0  0  0  0  0  0  0  0  0  0
   -5.7780   13.7620    0.7280 N   0  0  0  0  0  0  0  0  0  0  0  0
   -3.3570   14.9240    1.8750 N   0  0  0  0  0  0  0  0  0  0  0  0
   -1.1430   14.9220    1.7850 N   0  0  0  0  0  0  0  0  0  0  0  0
    0.0700   14.4860   -0.2240 C   0  0  0  0  0  0  0  0  0  0  0  0
   -6.9330   14.6260    0.9800 C   0  0  1  0  0  0  0  0  0  0  0  0
   -7.2270   15.1440   -0.3520 N   0  0  0  0  0  0  0  0  0  0  0  0
   -8.4470   14.2140    2.0970 S   0  0  0  0  0  0  0  0  0  0  0  0
   -0.0190   14.8020    1.1120 C   0  0  0  0  0  0  0  0  0  0  0  0
   -8.1530   12.6420    2.6180 N   0  0  0  0  0  0  0  0  0  0  0  0
   -8.4190   15.0380    3.2870 O   0  0  0  0  0  0  0  0  0  0  0  0
   -9.6490   14.1610    1.2940 O   0  0  0  0  0  0  0  0  0  0  0  0
  2  1  1  6
  2  3  1  0
  2  4  1  0
  3  5  2  0
  4  6  1  1
  3  7  1  0
  4  8  1  0
  4  9  1  0
  5 10  1  0
  6 10  1  0
  5 11  1  0
  7 12  2  0
  9 13  1  0
  8 14  1  0
 13 14  1  0
 13 15  1  6
 11 16  2  0
 12 16  1  0
 15 17  1  0
 15 18  2  0
 15 19  2  0
M  END
