diamond-x0849_0_A-mac-x0565
     RDKit          3D

 23 26  0  0  0  0  0  0  0  0999 V2000
   -2.2580   16.0930   -3.2810 Br  0  0  0  0  0  0  0  0  0  0  0  0
   -2.8230   15.6670   -1.5070 C   0  0  0  0  0  0  0  0  0  0  0  0
   -1.8930   15.3330   -0.5410 C   0  0  0  0  0  0  0  0  0  0  0  0
   -4.1640   15.6710   -1.1940 C   0  0  0  0  0  0  0  0  0  0  0  0
   -2.3410   14.9960    0.7490 C   0  0  0  0  0  0  0  0  0  0  0  0
   -4.5050   15.3180    0.0950 C   0  0  0  0  0  0  0  0  0  0  0  0
   -0.5300   15.3160   -0.8110 C   0  0  0  0  0  0  0  0  0  0  0  0
   -5.8480   15.2650    0.4300 O   0  0  0  0  0  0  0  0  0  0  0  0
   -3.6310   14.9920    1.0610 N   0  0  0  0  0  0  0  0  0  0  0  0
   -1.4830   14.6590    1.7070 N   0  0  0  0  0  0  0  0  0  0  0  0
    0.3440   14.9690    0.1700 C   0  0  0  0  0  0  0  0  0  0  0  0
   -6.4770   14.4760   -0.5110 C   0  0  0  0  0  0  0  0  0  0  0  0
   -0.1750   14.6460    1.4050 C   0  0  0  0  0  0  0  0  0  0  0  0
   -7.6020   13.9990   -0.4690 O   0  0  0  0  0  0  0  0  0  0  0  0
   -5.5190   14.2840   -1.6540 C   0  0  0  0  0  0  0  0  0  0  0  0
   -4.2800   13.6460   -1.4030 C   0  0  0  0  0  0  0  0  0  0  0  0
   -5.8130   14.7320   -2.9660 C   0  0  0  0  0  0  0  0  0  0  0  0
   -3.3940   13.4980   -2.4590 C   0  0  0  0  0  0  0  0  0  0  0  0
   -4.8910   14.5590   -4.0110 C   0  0  0  0  0  0  0  0  0  0  0  0
   -3.6950   13.9450   -3.7240 C   0  0  0  0  0  0  0  0  0  0  0  0
   -2.1570   12.9210   -2.4050 O   0  0  0  0  0  0  0  0  0  0  0  0
   -2.6880   13.7100   -4.6100 O   0  0  0  0  0  0  0  0  0  0  0  0
   -1.6440   13.3000   -3.7000 C   0  0  0  0  0  0  0  0  0  0  0  0
  1  2  1  0
  2  3  2  0
  2  4  1  0
  3  5  1  0
  4  6  2  0
  3  7  1  0
  6  8  1  0
  5  9  2  0
  6  9  1  0
  5 10  1  0
  7 11  2  0
  8 12  1  0
 10 13  2  0
 11 13  1  0
 12 14  2  0
 12 15  1  0
 15 16  2  0
 15 17  1  0
 16 18  1  0
 17 19  2  0
 18 20  2  0
 19 20  1  0
 18 21  1  0
 20 22  1  0
 21 23  1  0
 22 23  1  0
M  END
