diamond-x0471_0_A-mac-x0139
     RDKit          3D

 28 30  0  0  0  0  0  0  0  0999 V2000
   -8.5810   13.9330    2.7950 N   0  0  0  0  0  0  0  0  0  0  0  0
   -8.8810   14.8930    3.7260 C   0  0  0  0  0  0  0  0  0  0  0  0
   -9.2790   16.0200    3.4310 O   0  0  0  0  0  0  0  0  0  0  0  0
   -8.7210   14.1830    1.3810 C   0  0  0  0  0  0  0  0  0  0  0  0
   -8.6950   14.4530    5.1740 C   0  0  0  0  0  0  0  0  0  0  0  0
   -7.3530   14.3050    0.8000 C   0  0  0  0  0  0  0  0  0  0  0  0
   -9.9310   13.7040    5.6770 C   0  0  0  0  0  0  0  0  0  0  0  0
   -8.3330   15.6310    6.0750 C   0  0  0  0  0  0  0  0  0  0  0  0
   -7.1210   15.0830   -0.3020 N   0  0  0  0  0  0  0  0  0  0  0  0
   -6.2270   13.7290    1.2240 N   0  0  0  0  0  0  0  0  0  0  0  0
   -5.2480   14.1630    0.3630 C   0  0  0  0  0  0  0  0  0  0  0  0
   -5.7940   14.9930   -0.5630 C   0  0  0  0  0  0  0  0  0  0  0  0
   -5.1620   15.6480   -1.5880 C   0  0  0  0  0  0  0  0  0  0  0  0
   -3.7690   13.8410    0.3380 C   0  0  0  0  0  0  0  0  0  0  0  0
   -3.8200   15.6840   -1.5170 C   0  0  0  0  0  0  0  0  0  0  0  0
   -2.9640   15.0110   -0.4100 C   0  0  2  0  0  0  0  0  0  0  0  0
   -1.5270   14.7340   -1.0470 C   0  0  2  0  0  0  0  0  0  0  0  0
   -2.4820   15.8600    0.7240 C   0  0  0  0  0  0  0  0  0  0  0  0
   -1.3530   14.4650   -2.4960 N   0  0  0  0  0  0  0  0  0  0  0  0
   -1.7450   14.9880    1.6440 N   0  0  0  0  0  0  0  0  0  0  0  0
   -0.5630   14.0580   -0.1830 N   0  0  0  0  0  0  0  0  0  0  0  0
   -2.3230   15.0520   -3.4130 C   0  0  0  0  0  0  0  0  0  0  0  0
    0.0050   14.7850   -2.9810 C   0  0  0  0  0  0  0  0  0  0  0  0
   -0.4300   14.6660    1.1200 C   0  0  0  0  0  0  0  0  0  0  0  0
    0.6180   13.7020   -3.8750 C   0  0  0  0  0  0  0  0  0  0  0  0
    1.0020   12.4830   -3.0920 C   0  0  0  0  0  0  0  0  0  0  0  0
    1.7040   12.4690   -2.1030 O   0  0  0  0  0  0  0  0  0  0  0  0
    0.5030   11.3270   -3.5660 O   0  0  0  0  0  0  0  0  0  0  0  0
  1  2  1  0
  2  3  2  0
  1  4  1  0
  2  5  1  0
  4  6  1  0
  5  7  1  0
  5  8  1  0
  6  9  1  0
  6 10  2  0
 10 11  1  0
  9 12  1  0
 11 12  2  0
 12 13  1  0
 11 14  1  0
 13 15  2  0
 16 14  1  1
 16 15  1  0
 16 17  1  0
 16 18  1  0
 17 19  1  6
 18 20  1  0
 17 21  1  0
 19 22  1  0
 19 23  1  0
 20 24  1  0
 21 24  1  0
 23 25  1  0
 25 26  1  0
 26 27  2  0
 26 28  1  0
M  END
