diamond-x0471_0_A-diamond-x0900_0_A
     RDKit          3D

 17 18  0  0  0  0  0  0  0  0999 V2000
   -8.9220   13.9570    2.8680 N   0  0  0  0  0  0  0  0  0  0  0  0
   -8.9850   14.9360    3.8260 C   0  0  0  0  0  0  0  0  0  0  0  0
   -9.2460   16.1090    3.5720 O   0  0  0  0  0  0  0  0  0  0  0  0
   -8.9440   14.3300    1.4680 C   0  0  0  0  0  0  0  0  0  0  0  0
   -8.7120   14.4520    5.2450 C   0  0  0  0  0  0  0  0  0  0  0  0
   -7.5300   14.5600    0.9850 C   0  0  0  0  0  0  0  0  0  0  0  0
   -9.9040   13.6730    5.7940 C   0  0  0  0  0  0  0  0  0  0  0  0
   -8.3250   15.6070    6.1620 C   0  0  0  0  0  0  0  0  0  0  0  0
   -7.3160   14.7460   -0.3680 N   0  0  0  0  0  0  0  0  0  0  0  0
   -6.4810   14.6010    1.7700 N   0  0  0  0  0  0  0  0  0  0  0  0
   -5.4490   14.8300    0.9100 C   0  0  0  0  0  0  0  0  0  0  0  0
   -6.0350   14.9130   -0.4080 C   0  0  0  0  0  0  0  0  0  0  0  0
   -5.1920   15.1540   -1.5780 C   0  0  0  0  0  0  0  0  0  0  0  0
   -4.1340   14.9730    1.0790 C   0  0  0  0  0  0  0  0  0  0  0  0
   -5.7150   15.1960   -2.6610 O   0  0  0  0  0  0  0  0  0  0  0  0
   -3.7350   15.3060   -1.3200 C   0  0  0  0  0  0  0  0  0  0  0  0
   -3.2720   15.2090   -0.0560 C   0  0  0  0  0  0  0  0  0  0  0  0
  1  2  1  0
  2  3  2  0
  1  4  1  0
  2  5  1  0
  4  6  1  0
  5  7  1  0
  5  8  1  0
  6  9  1  0
  6 10  2  0
 10 11  1  0
  9 12  2  0
 11 12  1  0
 12 13  1  0
 11 14  2  0
 13 15  2  0
 13 16  1  0
 14 17  1  0
 16 17  2  0
M  END
