diamond-x0421_0_A-mac-x0441
     RDKit          3D

 30 33  0  0  0  0  0  0  0  0999 V2000
   -3.5690   15.1900   -2.8450 N   0  0  0  0  0  0  0  0  0  0  0  0
   -2.8010   14.9230   -1.7420 C   0  0  0  0  0  0  0  0  0  0  0  0
   -1.5380   14.7110   -1.8610 N   0  0  0  0  0  0  0  0  0  0  0  0
   -3.5220   14.9070   -0.4690 C   0  0  0  0  0  0  0  0  0  0  0  0
   -0.8280   14.7420   -3.1420 C   0  0  0  0  0  0  0  0  0  0  0  0
   -2.9230   15.0610    0.7730 C   0  0  0  0  0  0  0  0  0  0  0  0
   -4.8850   14.7340   -0.3030 N   0  0  0  0  0  0  0  0  0  0  0  0
    0.6560   14.4190   -2.8740 C   0  0  0  0  0  0  0  0  0  0  0  0
   -3.9300   14.9780    1.6810 N   0  0  0  0  0  0  0  0  0  0  0  0
   -5.0850   14.7810    0.9960 C   0  0  0  0  0  0  0  0  0  0  0  0
    0.7650   12.9880   -2.5560 N   0  0  0  0  0  0  0  0  0  0  0  0
   -6.4590   14.6300    1.6940 C   0  0  0  0  0  0  0  0  0  0  0  0
    0.7510   12.1940   -3.5620 C   0  0  0  0  0  0  0  0  0  0  0  0
   -7.7250   14.6530    0.8800 C   0  0  0  0  0  0  0  0  0  0  0  0
   -7.2360   13.3630    1.4770 C   0  0  0  0  0  0  0  0  0  0  0  0
    0.8250   10.8570   -3.4300 O   0  0  0  0  0  0  0  0  0  0  0  0
    0.6520   12.7820   -4.9530 C   0  0  0  0  0  0  0  0  0  0  0  0
    0.2340   11.8740   -6.0110 N   0  0  0  0  0  0  0  0  0  0  0  0
    1.0240   11.8160   -7.1150 N   0  0  0  0  0  0  0  0  0  0  0  0
   -0.8500   11.0430   -6.1040 C   0  0  0  0  0  0  0  0  0  0  0  0
    0.4210   10.9240   -7.9370 C   0  0  0  0  0  0  0  0  0  0  0  0
   -0.7510   10.4280   -7.3330 C   0  0  0  0  0  0  0  0  0  0  0  0
   -1.9310   10.8210   -5.1050 C   0  0  0  0  0  0  0  0  0  0  0  0
    0.9000   10.4890   -9.3040 C   0  0  0  0  0  0  0  0  0  0  0  0
   -1.7350    9.4350   -7.8260 C   0  0  0  0  0  0  0  0  0  0  0  0
   -3.0220    9.8860   -5.6800 C   0  0  0  0  0  0  0  0  0  0  0  0
    1.5780    9.3130   -9.2440 F   0  0  0  0  0  0  0  0  0  0  0  0
   -0.1190   10.2750  -10.1650 F   0  0  0  0  0  0  0  0  0  0  0  0
    1.6980   11.3590   -9.9500 F   0  0  0  0  0  0  0  0  0  0  0  0
   -2.4710    8.8060   -6.6310 C   0  0  0  0  0  0  0  0  0  0  0  0
  1  2  1  0
  2  3  2  3
  2  4  1  0
  3  5  1  0
  4  6  2  0
  4  7  1  0
  5  8  1  0
  6  9  1  0
  7 10  2  0
  9 10  1  0
  8 11  1  0
 10 12  1  0
 11 13  2  3
 12 14  1  0
 12 15  1  0
 14 15  1  0
 13 16  1  0
 13 17  1  0
 17 18  1  0
 18 19  1  0
 18 20  1  0
 19 21  2  0
 20 22  2  0
 21 22  1  0
 20 23  1  0
 21 24  1  0
 22 25  1  0
 23 26  1  0
 24 27  1  0
 24 28  1  0
 24 29  1  0
 25 30  1  0
 26 30  1  0
M  END
