diamond-x0905_0_A-mac-x0441
     RDKit          3D

 27 29  0  0  0  0  0  0  0  0999 V2000
   -6.9790   15.1690   -0.4610 O   0  0  0  0  0  0  0  0  0  0  0  0
   -5.6240   15.1830   -0.4990 C   0  0  0  0  0  0  0  0  0  0  0  0
   -5.0410   15.0620    0.7010 N   0  0  0  0  0  0  0  0  0  0  0  0
   -4.9650   15.3090   -1.6960 C   0  0  0  0  0  0  0  0  0  0  0  0
   -3.6810   15.0590    0.7050 C   0  0  0  0  0  0  0  0  0  0  0  0
   -3.5760   15.3050   -1.6670 C   0  0  0  0  0  0  0  0  0  0  0  0
   -2.8930   15.1740   -0.4540 C   0  0  0  0  0  0  0  0  0  0  0  0
   -1.3710   15.1560   -0.4470 C   0  0  0  0  0  0  0  0  0  0  0  0
   -0.8250   14.8850   -1.8740 C   0  0  0  0  0  0  0  0  0  0  0  0
    0.5830   14.2590   -1.9520 C   0  0  0  0  0  0  0  0  0  0  0  0
    0.5380   12.8030   -2.1750 N   0  0  0  0  0  0  0  0  0  0  0  0
    0.5470   12.2150   -3.3330 C   0  0  0  0  0  0  0  0  0  0  0  0
    0.4940   10.8790   -3.2420 O   0  0  0  0  0  0  0  0  0  0  0  0
    0.6060   12.7590   -4.7490 C   0  0  0  0  0  0  0  0  0  0  0  0
    0.2820   11.8070   -5.8230 N   0  0  0  0  0  0  0  0  0  0  0  0
    1.0370   11.8150   -6.9600 N   0  0  0  0  0  0  0  0  0  0  0  0
   -0.7100   10.8630   -5.8860 C   0  0  0  0  0  0  0  0  0  0  0  0
    0.5030   10.8490   -7.7550 C   0  0  0  0  0  0  0  0  0  0  0  0
   -0.5840   10.2390   -7.1080 C   0  0  0  0  0  0  0  0  0  0  0  0
   -1.7440   10.5350   -4.8730 C   0  0  0  0  0  0  0  0  0  0  0  0
    0.9500   10.4390   -9.1410 C   0  0  0  0  0  0  0  0  0  0  0  0
   -1.4700    9.1400   -7.5830 C   0  0  0  0  0  0  0  0  0  0  0  0
   -2.8950    9.7740   -5.5640 C   0  0  0  0  0  0  0  0  0  0  0  0
    1.6200    9.2530   -9.1220 F   0  0  0  0  0  0  0  0  0  0  0  0
   -0.1240   10.2180   -9.9370 F   0  0  0  0  0  0  0  0  0  0  0  0
    1.6900   11.3030   -9.8560 F   0  0  0  0  0  0  0  0  0  0  0  0
   -2.3790    8.6270   -6.4510 C   0  0  0  0  0  0  0  0  0  0  0  0
  1  2  1  0
  2  3  2  0
  2  4  1  0
  3  5  1  0
  4  6  2  0
  5  7  2  0
  6  7  1  0
  7  8  1  0
  8  9  1  0
  9 10  1  0
 10 11  1  0
 11 12  2  3
 12 13  1  0
 12 14  1  0
 14 15  1  0
 15 16  1  0
 15 17  1  0
 16 18  2  0
 17 19  2  0
 18 19  1  0
 17 20  1  0
 18 21  1  0
 19 22  1  0
 20 23  1  0
 21 24  1  0
 21 25  1  0
 21 26  1  0
 22 27  1  0
 23 27  1  0
M  END
