diamond-x0253_0_A-diamond-x0895_1_A
     RDKit          3D

 24 25  0  0  0  0  0  0  0  0999 V2000
    0.4620   11.9470   -5.4050 N   0  0  0  0  0  0  0  0  0  0  0  0
    1.1150   11.6490   -6.5630 C   0  0  0  0  0  0  0  0  0  0  0  0
    2.2160   12.1270   -6.7030 O   0  0  0  0  0  0  0  0  0  0  0  0
    1.2510   12.6240   -4.3940 C   0  0  0  0  0  0  0  0  0  0  0  0
    0.6750   12.4580   -3.0080 C   0  0  0  0  0  0  0  0  0  0  0  0
    0.4720   10.7330   -7.5540 C   0  0  0  0  0  0  0  0  0  0  0  0
    0.6720   13.4690   -2.2240 N   0  0  0  0  0  0  0  0  0  0  0  0
    0.1830   11.2380   -2.6920 O   0  0  0  0  0  0  0  0  0  0  0  0
   -0.5070    9.8200   -7.1490 C   0  0  0  0  0  0  0  0  0  0  0  0
    0.8450   10.7740   -8.9080 C   0  0  0  0  0  0  0  0  0  0  0  0
    0.0700   13.3230   -0.9050 C   0  0  0  0  0  0  0  0  0  0  0  0
   -1.1090    8.9610   -8.0780 C   0  0  0  0  0  0  0  0  0  0  0  0
    0.2510    9.9230   -9.8340 C   0  0  0  0  0  0  0  0  0  0  0  0
   -2.1590    7.9870   -7.6350 C   0  0  0  0  0  0  0  0  0  0  0  0
   -0.5640   14.6470   -0.5550 C   0  0  0  0  0  0  0  0  0  0  0  0
   -0.7230    9.0200   -9.4220 C   0  0  0  0  0  0  0  0  0  0  0  0
   -0.4890   14.8960    0.9400 C   0  0  0  0  0  0  0  0  0  0  0  0
   -1.7980   14.7460    1.5790 N   0  0  0  0  0  0  0  0  0  0  0  0
   -2.8730   14.6760    0.8680 C   0  0  0  0  0  0  0  0  0  0  0  0
   -3.1180   14.6930   -0.6330 C   0  0  0  0  0  0  0  0  0  0  0  0
   -4.0780   14.5630    1.4750 N   0  0  0  0  0  0  0  0  0  0  0  0
   -4.4960   15.0780   -0.6320 N   0  0  0  0  0  0  0  0  0  0  0  0
   -5.0690   14.8060    0.5880 C   0  0  0  0  0  0  0  0  0  0  0  0
   -6.2650   14.7880    0.8050 O   0  0  0  0  0  0  0  0  0  0  0  0
  1  2  1  0
  2  3  2  0
  1  4  1  0
  4  5  1  0
  2  6  1  0
  5  7  2  3
  5  8  1  0
  6  9  2  0
  6 10  1  0
  7 11  1  0
  9 12  1  0
 10 13  2  0
 12 14  1  0
 11 15  1  0
 12 16  2  0
 13 16  1  0
 15 17  1  0
 17 18  1  0
 18 19  2  3
 19 20  1  0
 19 21  1  0
 20 22  1  0
 21 23  1  0
 22 23  1  0
 23 24  2  0
M  END
