diamond-x0471_0_A-mac-x1494
     RDKit          3D

 22 24  0  0  0  0  0  0  0  0999 V2000
   -8.8080   14.1980    2.7820 N   0  0  0  0  0  0  0  0  0  0  0  0
   -9.1760   15.1520    3.6920 C   0  0  0  0  0  0  0  0  0  0  0  0
   -9.4580   16.2620    3.2520 O   0  0  0  0  0  0  0  0  0  0  0  0
   -8.9080   14.3240    1.3290 C   0  0  0  0  0  0  0  0  0  0  0  0
   -9.2680   14.8340    5.1880 C   0  0  0  0  0  0  0  0  0  0  0  0
   -7.5230   14.5570    0.7600 C   0  0  0  0  0  0  0  0  0  0  0  0
   -9.5920   13.3640    5.4460 C   0  0  0  0  0  0  0  0  0  0  0  0
   -7.9930   15.2560    5.9080 C   0  0  0  0  0  0  0  0  0  0  0  0
   -7.2490   14.7050   -0.5180 N   0  0  0  0  0  0  0  0  0  0  0  0
   -6.4620   14.6510    1.6440 N   0  0  0  0  0  0  0  0  0  0  0  0
   -5.4560   14.8720    0.8560 C   0  0  0  0  0  0  0  0  0  0  0  0
   -5.8820   14.8350   -0.5240 C   0  0  0  0  0  0  0  0  0  0  0  0
   -4.9720   14.9010   -1.5010 C   0  0  0  0  0  0  0  0  0  0  0  0
   -4.0380   15.1460    1.1850 C   0  0  0  0  0  0  0  0  0  0  0  0
   -3.7040   15.4200    2.3020 O   0  0  0  0  0  0  0  0  0  0  0  0
   -3.5290   14.9660   -1.1710 C   0  0  0  0  0  0  0  0  0  0  0  0
   -3.0840   15.0760    0.0800 C   0  0  0  0  0  0  0  0  0  0  0  0
   -5.3530   14.8730   -2.9000 C   0  0  0  0  0  0  0  0  0  0  0  0
   -2.5620   14.8680   -2.2560 C   0  0  0  0  0  0  0  0  0  0  0  0
   -4.4010   14.8210   -3.8470 C   0  0  0  0  0  0  0  0  0  0  0  0
   -2.9930   14.7970   -3.5170 C   0  0  0  0  0  0  0  0  0  0  0  0
   -1.8660   14.6690   -4.8110 Cl  0  0  0  0  0  0  0  0  0  0  0  0
  1  2  1  0
  2  3  2  0
  1  4  1  0
  2  5  1  0
  4  6  1  0
  5  7  1  0
  5  8  1  0
  6  9  2  0
  6 10  1  0
 10 11  2  0
  9 12  1  0
 11 12  1  0
 12 13  2  0
 11 14  1  0
 14 15  2  0
 13 16  1  0
 14 17  1  0
 16 17  2  0
 13 18  1  0
 16 19  1  0
 18 20  2  0
 19 21  2  0
 20 21  1  0
 21 22  1  0
M  END
