diamond-x0837_0_A-diamond-x0465_0_A
     RDKit          3D

 24 25  0  0  0  0  0  0  0  0999 V2000
   -7.4810   14.7760    0.0760 O   0  0  0  0  0  0  0  0  0  0  0  0
   -6.2360   14.7970    0.1560 C   0  0  0  0  0  0  0  0  0  0  0  0
   -5.5520   14.7950    1.4210 N   0  0  0  0  0  0  0  0  0  0  0  0
   -5.4580   14.8230   -1.1050 C   0  0  0  0  0  0  0  0  0  0  0  0
   -4.1270   14.8420    1.3510 C   0  0  0  0  0  0  0  0  0  0  0  0
   -4.0310   15.3010   -1.0220 C   0  0  2  0  0  0  0  0  0  0  0  0
   -3.0030   14.4520   -2.6670 I   0  0  0  0  0  0  0  0  0  0  0  0
   -3.4340   15.0630    0.2750 C   0  0  0  0  0  0  0  0  0  0  0  0
   -0.9450   14.7850   -2.8900 C   0  0  0  0  0  0  0  0  0  0  0  0
   -0.0990   14.7420   -1.6240 C   0  0  0  0  0  0  0  0  0  0  0  0
    1.1590   13.9910   -1.9990 C   0  0  0  0  0  0  0  0  0  0  0  0
    0.8860   12.6000   -2.0540 N   0  0  0  0  0  0  0  0  0  0  0  0
    0.7360   11.9280   -3.1150 C   0  0  0  0  0  0  0  0  0  0  0  0
    0.8260   12.5010   -4.4960 C   0  0  1  0  0  0  0  0  0  0  0  0
    0.4570   10.5720   -2.9780 O   0  0  0  0  0  0  0  0  0  0  0  0
    2.2320   13.0530   -4.7810 C   0  0  0  0  0  0  0  0  0  0  0  0
    0.5620   11.5050   -5.4370 O   0  0  0  0  0  0  0  0  0  0  0  0
   -0.6080   10.8280   -5.6190 C   0  0  0  0  0  0  0  0  0  0  0  0
   -0.6660    9.8140   -6.5630 C   0  0  0  0  0  0  0  0  0  0  0  0
   -1.7550   11.0890   -4.9130 C   0  0  0  0  0  0  0  0  0  0  0  0
    0.4250    9.4820   -7.3190 F   0  0  0  0  0  0  0  0  0  0  0  0
   -1.8120    9.0850   -6.7950 C   0  0  0  0  0  0  0  0  0  0  0  0
   -2.9150   10.3760   -5.1270 C   0  0  0  0  0  0  0  0  0  0  0  0
   -2.9450    9.3680   -6.0720 C   0  0  0  0  0  0  0  0  0  0  0  0
  1  2  2  0
  2  3  1  0
  2  4  1  0
  3  5  1  0
  4  6  1  0
  6  7  1  6
  5  8  2  0
  6  8  1  0
  7  9  1  0
  9 10  1  0
 10 11  1  0
 11 12  1  0
 12 13  2  3
 13 14  1  0
 13 15  1  0
 14 16  1  6
 14 17  1  0
 17 18  1  0
 18 19  2  0
 18 20  1  0
 19 21  1  0
 19 22  1  0
 20 23  2  0
 22 24  2  0
 23 24  1  0
M  END
