diamond-x0950_1_A-mac-x0398
     RDKit          3D

 19 19  0  0  0  0  0  0  0  0999 V2000
    1.1540   13.9480   -4.7590 C   0  0  0  0  0  0  0  0  0  0  0  0
    1.3420   12.4830   -4.4130 C   0  0  2  0  0  0  0  0  0  0  0  0
    0.6960   11.7130   -5.4290 O   0  0  0  0  0  0  0  0  0  0  0  0
    0.8210   12.1210   -3.0060 C   0  0  0  0  0  0  0  0  0  0  0  0
    0.2450   11.0910   -2.6810 O   0  0  0  0  0  0  0  0  0  0  0  0
    1.1150   13.1400   -2.1530 O   0  0  0  0  0  0  0  0  0  0  0  0
    0.0350   13.7920   -1.4480 C   0  0  0  0  0  0  0  0  0  0  0  0
   -1.2470   13.7640   -2.3000 C   0  0  0  0  0  0  0  0  0  0  0  0
   -1.9000   15.0610   -2.3010 O   0  0  0  0  0  0  0  0  0  0  0  0
   -3.2360   15.1260   -2.5820 C   0  0  0  0  0  0  0  0  0  0  0  0
   -3.7200   15.2290   -3.7010 O   0  0  0  0  0  0  0  0  0  0  0  0
   -4.0680   15.0630   -1.3470 C   0  0  0  0  0  0  0  0  0  0  0  0
   -5.4620   15.1190   -1.3600 C   0  0  0  0  0  0  0  0  0  0  0  0
   -3.4130   14.9370   -0.1090 C   0  0  0  0  0  0  0  0  0  0  0  0
   -6.2110   15.2410   -2.4990 O   0  0  0  0  0  0  0  0  0  0  0  0
   -6.1860   15.0410   -0.1720 C   0  0  0  0  0  0  0  0  0  0  0  0
   -4.1470   14.8650    1.0850 C   0  0  0  0  0  0  0  0  0  0  0  0
   -5.5420   14.9130    1.0620 C   0  0  0  0  0  0  0  0  0  0  0  0
   -6.2980   14.8370    2.2450 N   0  0  0  0  0  0  0  0  0  0  0  0
  2  1  1  6
  2  3  1  0
  2  4  1  0
  4  5  2  0
  4  6  1  0
  6  7  1  0
  7  8  1  0
  8  9  1  0
  9 10  1  0
 10 11  2  0
 10 12  1  0
 12 13  2  0
 12 14  1  0
 13 15  1  0
 13 16  1  0
 14 17  2  0
 16 18  2  0
 17 18  1  0
 18 19  1  0
M  END
