diamond-x0159_0_B-diamond-x0864_0_A
     RDKit          3D

 32 35  0  0  0  0  0  0  0  0999 V2000
    1.4820    9.1350  -10.0460 N   0  0  0  0  0  0  0  0  0  0  0  0
    1.8660    8.0650   -9.1390 C   0  0  0  0  0  0  0  0  0  0  0  0
    0.9430    6.8410   -9.3340 C   0  0  2  0  0  0  0  0  0  0  0  0
    2.2570    9.3770  -11.1190 C   0  0  0  0  0  0  0  0  0  0  0  0
    2.0530   10.5220  -11.8350 N   0  0  0  0  0  0  0  0  0  0  0  0
    3.2410    8.6670  -11.6300 N   0  0  0  0  0  0  0  0  0  0  0  0
   -0.5330    7.2520   -9.0980 C   0  0  0  0  0  0  0  0  0  0  0  0
    3.6890    9.3940  -12.7130 C   0  0  0  0  0  0  0  0  0  0  0  0
    2.9520   10.5650  -12.8620 C   0  0  0  0  0  0  0  0  0  0  0  0
    1.3760    5.6590   -8.4910 C   0  0  0  0  0  0  0  0  0  0  0  0
   -0.9280    7.4920   -7.6310 C   0  0  0  0  0  0  0  0  0  0  0  0
    2.2860    4.7420   -9.0300 C   0  0  0  0  0  0  0  0  0  0  0  0
    0.8980    5.4540   -7.1960 C   0  0  0  0  0  0  0  0  0  0  0  0
    3.1830   11.5030  -13.8670 C   0  0  0  0  0  0  0  0  0  0  0  0
    4.7220    9.1200  -13.6210 C   0  0  0  0  0  0  0  0  0  0  0  0
   -1.8140    8.6020   -7.4460 O   0  0  0  0  0  0  0  0  0  0  0  0
    2.7110    3.6470   -8.2930 C   0  0  0  0  0  0  0  0  0  0  0  0
    1.3230    4.3620   -6.4680 C   0  0  0  0  0  0  0  0  0  0  0  0
    4.2150   11.2150  -14.7610 C   0  0  0  0  0  0  0  0  0  0  0  0
    4.9760   10.0470  -14.6440 C   0  0  0  0  0  0  0  0  0  0  0  0
    2.2310    3.4590   -7.0160 C   0  0  0  0  0  0  0  0  0  0  0  0
   -1.2290    9.6670   -6.7870 C   0  0  0  0  0  0  0  0  0  0  0  0
   -1.8950   10.1950   -5.6160 C   0  0  0  0  0  0  0  0  0  0  0  0
   -0.0780   10.1990   -7.2140 C   0  0  0  0  0  0  0  0  0  0  0  0
   -1.3450   11.2200   -4.9450 C   0  0  0  0  0  0  0  0  0  0  0  0
    0.5290   11.3400   -6.4830 C   0  0  0  0  0  0  0  0  0  0  0  0
    1.5780   11.8250   -6.8760 O   0  0  0  0  0  0  0  0  0  0  0  0
   -0.1460   11.7800   -5.3560 N   0  0  0  0  0  0  0  0  0  0  0  0
    0.5390   12.7750   -4.5300 C   0  0  0  0  0  0  0  0  0  0  0  0
    0.7120   12.3050   -3.0900 C   0  0  0  0  0  0  0  0  0  0  0  0
    0.4450   10.9890   -2.9200 O   0  0  0  0  0  0  0  0  0  0  0  0
    1.0560   12.9760   -2.1340 O   0  0  0  0  0  0  0  0  0  0  0  0
  1  2  1  0
  3  2  1  1
  1  4  1  0
  4  5  1  0
  4  6  2  0
  3  7  1  0
  6  8  1  0
  5  9  1  0
  8  9  2  0
  3 10  1  0
  7 11  1  0
 10 12  2  0
 10 13  1  0
  9 14  1  0
  8 15  1  0
 11 16  1  0
 12 17  1  0
 13 18  2  0
 14 19  2  0
 15 20  2  0
 19 20  1  0
 17 21  2  0
 18 21  1  0
 16 22  1  0
 22 23  1  0
 22 24  2  0
 23 25  2  0
 24 26  1  0
 26 27  2  0
 25 28  1  0
 26 28  1  0
 28 29  1  0
 29 30  1  0
 30 31  1  0
 30 32  2  0
M  END
