diamond-x0766_0_A-diamond-x0371_0_A
     RDKit          3D

 29 33  0  0  0  0  0  0  0  0999 V2000
    0.5960   12.2520   -2.8130 C   0  0  0  0  0  0  0  0  0  0  0  0
   -0.1440   11.1340   -2.9520 O   0  0  0  0  0  0  0  0  0  0  0  0
    1.4530   12.3240   -1.9650 O   0  0  0  0  0  0  0  0  0  0  0  0
    0.2290   13.3430   -3.7800 C   0  0  2  0  0  0  0  0  0  0  0  0
    1.3590   13.6540   -4.7730 C   0  0  0  0  0  0  0  0  0  0  0  0
    0.0340   14.6260   -2.9510 C   0  0  1  0  0  0  0  0  0  0  0  0
    1.5980   15.1580   -4.6760 C   0  0  0  0  0  0  0  0  0  0  0  0
    0.4600   15.7410   -3.8860 C   0  0  0  0  0  0  0  0  0  0  0  0
   -1.3720   14.7340   -2.4690 C   0  0  0  0  0  0  0  0  0  0  0  0
   -2.4580   14.9540   -3.2640 C   0  0  0  0  0  0  0  0  0  0  0  0
   -1.6300   14.6000   -0.9740 C   0  0  0  0  0  0  0  0  0  0  0  0
   -2.9430   14.7010   -0.6240 C   0  0  0  0  0  0  0  0  0  0  0  0
   -3.7330   14.9340   -2.1190 S   0  0  0  0  0  0  0  0  0  0  0  0
   -3.7370   14.6490    0.5710 C   0  0  0  0  0  0  0  0  0  0  0  0
   -5.4640   15.0560   -2.1140 C   0  0  0  0  0  0  0  0  0  0  0  0
   -5.9630   14.8750   -0.7530 C   0  0  0  0  0  0  0  0  0  0  0  0
   -5.1100   14.7180    0.4790 C   0  0  0  0  0  0  0  0  0  0  0  0
   -6.0140   14.6220    1.4940 N   0  0  0  0  0  0  0  0  0  0  0  0
   -7.2110   14.7850   -0.4680 N   0  0  0  0  0  0  0  0  0  0  0  0
   -7.1780   14.6190    0.9040 C   0  0  0  0  0  0  0  0  0  0  0  0
   -8.4980   14.4580    1.6050 C   0  0  0  0  0  0  0  0  0  0  0  0
   -8.2920   14.5640    3.0260 N   0  0  0  0  0  0  0  0  0  0  0  0
   -8.8860   15.6030    3.6970 C   0  0  0  0  0  0  0  0  0  0  0  0
   -9.5240   16.4630    3.0970 O   0  0  0  0  0  0  0  0  0  0  0  0
   -8.7020   15.5790    5.1260 C   0  0  0  0  0  0  0  0  0  0  0  0
   -8.0820   14.4870    5.6630 O   0  0  0  0  0  0  0  0  0  0  0  0
   -9.0280   16.4570    6.1390 C   0  0  0  0  0  0  0  0  0  0  0  0
   -8.5820   15.8650    7.3490 C   0  0  0  0  0  0  0  0  0  0  0  0
   -8.0120   14.6680    7.0000 C   0  0  0  0  0  0  0  0  0  0  0  0
  1  2  1  0
  1  3  2  0
  4  1  1  1
  4  5  1  0
  4  6  1  0
  5  7  1  0
  6  8  1  0
  7  8  1  0
  6  9  1  6
  9 10  2  0
  9 11  1  0
 11 12  2  0
 10 13  1  0
 12 13  1  0
 12 14  1  0
 13 15  2  0
 15 16  1  0
 14 17  2  0
 16 17  1  0
 17 18  1  0
 16 19  2  0
 18 20  2  0
 19 20  1  0
 20 21  1  0
 21 22  1  0
 22 23  1  0
 23 24  2  0
 23 25  1  0
 25 26  1  0
 25 27  2  0
 27 28  1  0
 26 29  1  0
 28 29  2  0
M  END
