diamond-x0587_0_A-diamond-x0626_0_A
     RDKit          3D

 21 23  0  0  0  0  0  0  0  0999 V2000
   -8.4450   14.2530    2.2080 N   0  0  0  0  0  0  0  0  0  0  0  0
   -7.4560   14.2480    0.8880 S   0  0  0  0  0  0  0  0  0  0  0  0
   -8.2520   13.0620    0.5460 O   0  0  0  0  0  0  0  0  0  0  0  0
   -6.5030   15.0250    1.8380 C   0  0  0  0  0  0  0  0  0  0  0  0
   -5.9790   13.8060    0.5570 C   0  0  0  0  0  0  0  0  0  0  0  0
   -7.6220   14.8840   -0.5870 C   0  0  2  0  0  0  0  0  0  0  0  0
   -5.8790   14.5930   -1.2860 S   0  0  0  0  0  0  0  0  0  0  0  0
   -4.8330   13.2450    1.0500 N   0  0  0  0  0  0  0  0  0  0  0  0
   -8.0740   16.2680   -0.9440 C   0  0  0  0  0  0  0  0  0  0  0  0
   -8.6140   14.2110   -1.4190 N   0  0  0  0  0  0  0  0  0  0  0  0
   -4.9790   14.6920   -2.2070 F   0  0  0  0  0  0  0  0  0  0  0  0
   -4.7690   13.7460   -0.3300 F   0  0  0  0  0  0  0  0  0  0  0  0
   -6.8010   15.1890   -1.8860 F   0  0  0  0  0  0  0  0  0  0  0  0
   -9.3340   16.3170   -1.2590 C   0  0  0  0  0  0  0  0  0  0  0  0
   -3.5880   13.8310    0.5620 C   0  0  0  0  0  0  0  0  0  0  0  0
   -9.8300   14.9420   -1.1560 C   0  0  0  0  0  0  0  0  0  0  0  0
   -2.4490   14.0190    1.1840 N   0  0  0  0  0  0  0  0  0  0  0  0
   -3.2180   14.4370   -1.0020 S   0  0  0  0  0  0  0  0  0  0  0  0
   -1.6060   14.8450   -0.7630 C   0  0  0  0  0  0  0  0  0  0  0  0
   -1.4290   14.5160    0.5440 C   0  0  0  0  0  0  0  0  0  0  0  0
   -0.0630   14.7430    1.1260 C   0  0  0  0  0  0  0  0  0  0  0  0
  1  2  1  0
  2  3  2  0
  2  4  1  0
  2  5  1  0
  2  6  1  0
  5  7  2  0
  6  7  1  0
  5  8  1  0
  6  9  1  1
  6 10  1  0
  7 11  1  0
  7 12  1  0
  7 13  1  0
  9 14  2  0
  8 15  1  0
 10 16  1  0
 14 16  1  0
 15 17  2  0
 15 18  1  0
 18 19  1  0
 17 20  1  0
 19 20  2  0
 20 21  1  0
M  END
