diamond-x0900_0_A-mac-x0159
     RDKit          3D

 22 25  0  0  0  0  0  0  0  0999 V2000
   -7.4910   15.1240   -0.3430 O   0  0  0  0  0  0  0  0  0  0  0  0
   -6.3410   14.7760   -0.1610 C   0  0  0  0  0  0  0  0  0  0  0  0
   -5.4960   14.3890   -1.1700 N   0  0  0  0  0  0  0  0  0  0  0  0
   -5.5790   14.6710    1.1430 C   0  0  0  0  0  0  0  0  0  0  0  0
   -4.1490   14.4950    0.6370 C   0  0  1  0  0  0  0  0  0  0  0  0
   -4.4100   13.6820   -0.5870 C   0  0  0  0  0  0  0  0  0  0  0  0
   -3.3690   15.7050    0.1390 C   0  0  2  0  0  0  0  0  0  0  0  0
   -3.8120   15.9020   -1.2730 N   0  0  0  0  0  0  0  0  0  0  0  0
   -1.8640   15.5900    0.2960 C   0  0  2  0  0  0  0  0  0  0  0  0
   -2.9920   15.3850   -2.3910 C   0  0  0  0  0  0  0  0  0  0  0  0
   -1.3470   14.8040   -0.8610 C   0  0  1  0  0  0  0  0  0  0  0  0
   -1.2940   14.8470    1.3910 N   0  0  0  0  0  0  0  0  0  0  0  0
   -1.5830   15.4220   -2.1060 N   0  0  0  0  0  0  0  0  0  0  0  0
    0.0630   14.7190   -0.5300 N   0  0  0  0  0  0  0  0  0  0  0  0
    0.0490   14.5990    0.9240 C   0  0  0  0  0  0  0  0  0  0  0  0
   -0.7490   14.9630   -3.2230 C   0  0  0  0  0  0  0  0  0  0  0  0
   -0.3470   16.1040   -4.1230 C   0  0  0  0  0  0  0  0  0  0  0  0
    0.9420   16.5560   -4.3110 C   0  0  0  0  0  0  0  0  0  0  0  0
   -1.3090   16.8060   -4.8450 N   0  0  0  0  0  0  0  0  0  0  0  0
   -0.7430   17.7590   -5.5480 C   0  0  0  0  0  0  0  0  0  0  0  0
    0.9510   17.8790   -5.4000 S   0  0  0  0  0  0  0  0  0  0  0  0
   -1.4740   18.7050   -6.4320 C   0  0  0  0  0  0  0  0  0  0  0  0
  1  2  2  0
  2  3  1  0
  2  4  1  0
  5  4  1  6
  3  6  1  0
  5  6  1  0
  5  7  1  0
  7  8  1  6
  7  9  1  0
  8 10  1  0
  9 11  1  0
  9 12  1  1
 10 13  1  0
 11 13  1  0
 11 14  1  1
 12 15  1  0
 14 15  1  0
 13 16  1  0
 16 17  1  0
 17 18  2  0
 17 19  1  0
 19 20  2  0
 18 21  1  0
 20 21  1  0
 20 22  1  0
M  END
