diamond-x0900_0_A-diamond-x1015_0_A
     RDKit          3D

 23 25  0  0  0  0  0  0  0  0999 V2000
   -7.1700   15.0590   -0.3750 O   0  0  0  0  0  0  0  0  0  0  0  0
   -5.9770   14.8980   -0.1950 C   0  0  0  0  0  0  0  0  0  0  0  0
   -5.0370   14.7900   -1.1860 N   0  0  0  0  0  0  0  0  0  0  0  0
   -5.2460   14.7650    1.1190 C   0  0  0  0  0  0  0  0  0  0  0  0
   -3.8250   15.1390    0.7010 C   0  0  0  0  0  0  0  0  0  0  0  0
   -3.7540   14.4400   -0.6590 C   0  0  2  0  0  0  0  0  0  0  0  0
   -2.6830   14.8700   -1.6600 C   0  0  0  0  0  0  0  0  0  0  0  0
   -2.4270   13.8120   -2.7470 C   0  0  0  0  0  0  0  0  0  0  0  0
   -1.5480   14.2910   -3.9190 C   0  0  0  0  0  0  0  0  0  0  0  0
   -0.1270   13.7020   -3.8750 C   0  0  2  0  0  0  0  0  0  0  0  0
   -0.1130   12.2340   -3.9000 N   0  0  0  0  0  0  0  0  0  0  0  0
    0.4860   13.9340   -2.4990 C   0  0  0  0  0  0  0  0  0  0  0  0
    0.6560   15.0170   -1.9570 O   0  0  0  0  0  0  0  0  0  0  0  0
    0.3120   11.7160   -2.6700 C   0  0  0  0  0  0  0  0  0  0  0  0
    0.8270   12.7460   -1.9480 N   0  0  0  0  0  0  0  0  0  0  0  0
   -0.5010   11.4520   -5.0160 C   0  0  0  0  0  0  0  0  0  0  0  0
    0.2640   10.5560   -2.2540 O   0  0  0  0  0  0  0  0  0  0  0  0
    0.0690   11.6550   -6.2850 C   0  0  0  0  0  0  0  0  0  0  0  0
   -1.4690   10.4450   -4.8930 C   0  0  0  0  0  0  0  0  0  0  0  0
   -0.3160   10.8790   -7.3830 C   0  0  0  0  0  0  0  0  0  0  0  0
   -1.8570    9.6660   -5.9860 C   0  0  0  0  0  0  0  0  0  0  0  0
   -1.2800    9.8840   -7.2290 C   0  0  0  0  0  0  0  0  0  0  0  0
   -1.7580    8.9260   -8.5730 Cl  0  0  0  0  0  0  0  0  0  0  0  0
  1  2  2  0
  2  3  1  0
  2  4  1  0
  4  5  1  0
  3  6  1  0
  5  6  1  0
  6  7  1  6
  7  8  1  0
  8  9  1  0
 10  9  1  1
 10 11  1  0
 10 12  1  0
 12 13  2  0
 11 14  1  0
 12 15  1  0
 14 15  1  0
 11 16  1  0
 14 17  2  0
 16 18  2  0
 16 19  1  0
 18 20  1  0
 19 21  2  0
 20 22  2  0
 21 22  1  0
 22 23  1  0
M  END
