diamond-x0685_0_A-mac-x0590
     RDKit          3D

 28 31  0  0  0  0  0  0  0  0999 V2000
   -6.0880   14.5450    2.4860 N   0  0  0  0  0  0  0  0  0  0  0  0
   -7.4900   14.7480    2.8230 C   0  0  0  0  0  0  0  0  0  0  0  0
   -8.1440   13.4170    3.1520 C   0  0  0  0  0  0  0  0  0  0  0  0
   -5.7250   14.4610    1.1330 C   0  0  0  0  0  0  0  0  0  0  0  0
   -4.4950   13.8890    0.8460 C   0  0  0  0  0  0  0  0  0  0  0  0
   -6.5220   14.9090    0.1430 N   0  0  0  0  0  0  0  0  0  0  0  0
   -4.0720   13.7810   -0.4920 C   0  0  0  0  0  0  0  0  0  0  0  0
   -6.0930   14.8110   -1.1470 C   0  0  0  0  0  0  0  0  0  0  0  0
   -4.8810   14.2590   -1.5490 C   0  0  0  0  0  0  0  0  0  0  0  0
   -4.5080   14.1930   -3.0590 C   0  0  0  0  0  0  0  0  0  0  0  0
   -3.1030   14.5650   -3.3830 N   0  0  0  0  0  0  0  0  0  0  0  0
   -2.3050   13.3950   -3.9410 C   0  0  0  0  0  0  0  0  0  0  0  0
   -2.6310   14.8310   -2.0720 C   0  0  2  0  0  0  0  0  0  0  0  0
   -0.8880   13.6990   -4.5560 C   0  0  0  0  0  0  0  0  0  0  0  0
   -3.4630   15.7470   -1.3450 N   0  0  0  0  0  0  0  0  0  0  0  0
   -1.2620   15.1450   -1.8920 N   0  0  0  0  0  0  0  0  0  0  0  0
    0.0390   12.4420   -4.6910 C   0  0  2  0  0  0  0  0  0  0  0  0
   -2.9070   15.8250   -0.0230 C   0  0  1  0  0  0  0  0  0  0  0  0
   -0.9450   14.5100   -0.6510 C   0  0  2  0  0  0  0  0  0  0  0  0
   -4.0160   16.1240    0.8690 N   0  0  0  0  0  0  0  0  0  0  0  0
    0.6170   11.9620   -3.3550 C   0  0  0  0  0  0  0  0  0  0  0  0
    1.3090   12.7220   -5.5060 C   0  0  0  0  0  0  0  0  0  0  0  0
   -2.1010   14.5820    0.3510 C   0  0  1  0  0  0  0  0  0  0  0  0
    0.1200   15.1200    0.0560 N   0  0  0  0  0  0  0  0  0  0  0  0
    2.3700   13.0310   -4.4700 C   0  0  0  0  0  0  0  0  0  0  0  0
    2.0200   12.2860   -3.3040 O   0  0  0  0  0  0  0  0  0  0  0  0
   -1.4490   14.5340    1.6580 N   0  0  0  0  0  0  0  0  0  0  0  0
   -0.0560   14.3990    1.3010 C   0  0  0  0  0  0  0  0  0  0  0  0
  1  2  1  0
  2  3  1  0
  1  4  1  0
  4  5  2  0
  4  6  1  0
  5  7  1  0
  6  8  2  0
  7  9  2  0
  8  9  1  0
  9 10  1  0
 10 11  1  0
 11 12  1  0
 13 11  1  6
 12 14  1  0
 13 15  1  0
 13 16  1  0
 17 14  1  1
 15 18  1  0
 19 16  1  6
 18 20  1  1
 17 21  1  0
 17 22  1  0
 18 23  1  0
 19 23  1  0
 19 24  1  0
 22 25  1  0
 21 26  1  0
 25 26  1  0
 23 27  1  1
 24 28  1  0
 27 28  1  0
M  END
