diamond-x0855_0_A-mac-x0365
     RDKit          3D

 23 24  0  0  0  0  0  0  0  0999 V2000
    1.7290   12.9160   -2.6110 O   0  0  0  0  0  0  0  0  0  0  0  0
    0.9800   12.0870   -3.3740 C   0  0  0  0  0  0  0  0  0  0  0  0
    0.6720   12.5600   -4.7950 C   0  0  2  0  0  0  0  0  0  0  0  0
    0.5920   11.0190   -2.9210 O   0  0  0  0  0  0  0  0  0  0  0  0
    0.3490   14.0640   -4.9460 C   0  0  0  0  0  0  0  0  0  0  0  0
   -0.3810   11.6750   -5.2800 N   0  0  0  0  0  0  0  0  0  0  0  0
    0.0720   14.8000   -3.6290 C   0  0  0  0  0  0  0  0  0  0  0  0
   -0.3190   10.7050   -6.2350 C   0  0  0  0  0  0  0  0  0  0  0  0
   -1.6180   11.7980   -4.7210 N   0  0  0  0  0  0  0  0  0  0  0  0
   -1.3740   14.8400   -3.3950 N   0  0  0  0  0  0  0  0  0  0  0  0
   -1.5760   10.1680   -6.2890 C   0  0  0  0  0  0  0  0  0  0  0  0
   -2.3420   10.8650   -5.3510 C   0  0  0  0  0  0  0  0  0  0  0  0
   -2.1810    8.7840   -7.3790 Br  0  0  0  0  0  0  0  0  0  0  0  0
   -1.7800   14.8770   -2.1780 C   0  0  0  0  0  0  0  0  0  0  0  0
   -0.8480   14.8700   -1.2180 O   0  0  0  0  0  0  0  0  0  0  0  0
   -3.1230   14.9450   -1.5920 C   0  0  0  0  0  0  0  0  0  0  0  0
   -4.2220   15.0340   -2.4360 C   0  0  0  0  0  0  0  0  0  0  0  0
   -3.2900   14.9250   -0.1930 C   0  0  0  0  0  0  0  0  0  0  0  0
   -5.4860   15.0950   -1.8820 C   0  0  0  0  0  0  0  0  0  0  0  0
   -4.5770   14.9900    0.3500 C   0  0  0  0  0  0  0  0  0  0  0  0
   -6.5540   15.1760   -2.6740 F   0  0  0  0  0  0  0  0  0  0  0  0
   -5.6680   15.0710   -0.5060 C   0  0  0  0  0  0  0  0  0  0  0  0
   -6.9310   15.1250    0.0080 O   0  0  0  0  0  0  0  0  0  0  0  0
  1  2  1  0
  2  3  1  0
  2  4  2  0
  3  5  1  1
  3  6  1  0
  5  7  1  0
  6  8  1  0
  6  9  1  0
  7 10  1  0
  8 11  2  0
  9 12  2  0
 11 12  1  0
 11 13  1  0
 10 14  2  3
 14 15  1  0
 14 16  1  0
 16 17  2  0
 16 18  1  0
 17 19  1  0
 18 20  2  0
 19 21  1  0
 19 22  2  0
 20 22  1  0
 22 23  1  0
M  END
