diamond-x0967_0_A-diamond-x0855_0_A
     RDKit          3D

 23 25  0  0  0  0  0  0  0  0999 V2000
    1.4900   13.0860   -2.3380 O   0  0  0  0  0  0  0  0  0  0  0  0
    0.8650   12.1440   -3.1020 C   0  0  0  0  0  0  0  0  0  0  0  0
    0.5840   12.5840   -4.5160 C   0  0  0  0  0  0  0  0  0  0  0  0
    0.6960   14.1120   -1.6830 C   0  0  0  0  0  0  0  0  0  0  0  0
    0.5620   11.0280   -2.6840 O   0  0  0  0  0  0  0  0  0  0  0  0
   -0.6750   13.5920   -1.2290 C   0  0  0  0  0  0  0  0  0  0  0  0
   -1.3430   14.4700   -0.1500 C   0  0  0  0  0  0  0  0  0  0  0  0
   -0.4370   11.7290   -5.0800 N   0  0  0  0  0  0  0  0  0  0  0  0
   -2.8520   14.5910   -0.2980 C   0  0  0  0  0  0  0  0  0  0  0  0
   -0.2870   10.8020   -6.0750 C   0  0  0  0  0  0  0  0  0  0  0  0
   -1.6980   11.8040   -4.6040 N   0  0  0  0  0  0  0  0  0  0  0  0
   -3.4830   14.7010   -1.5360 C   0  0  0  0  0  0  0  0  0  0  0  0
   -3.6930   14.5810    0.8140 C   0  0  0  0  0  0  0  0  0  0  0  0
   -1.5240   10.2430   -6.2320 C   0  0  0  0  0  0  0  0  0  0  0  0
   -2.3610   10.8860   -5.3160 C   0  0  0  0  0  0  0  0  0  0  0  0
   -2.0400    8.8940   -7.4110 Br  0  0  0  0  0  0  0  0  0  0  0  0
   -5.0870   14.6580    0.6410 C   0  0  0  0  0  0  0  0  0  0  0  0
   -4.8250   14.7810   -1.7170 N   0  0  0  0  0  0  0  0  0  0  0  0
   -5.6290   14.7520   -0.6510 C   0  0  0  0  0  0  0  0  0  0  0  0
   -5.9550   14.6350    1.7320 C   0  0  0  0  0  0  0  0  0  0  0  0
   -6.9560   14.8100   -0.8340 N   0  0  0  0  0  0  0  0  0  0  0  0
   -7.3270   14.6890    1.5410 C   0  0  0  0  0  0  0  0  0  0  0  0
   -7.7750   14.7750    0.2390 C   0  0  0  0  0  0  0  0  0  0  0  0
  1  2  1  0
  2  3  1  0
  1  4  1  0
  2  5  2  0
  4  6  1  0
  6  7  1  0
  3  8  1  0
  7  9  1  0
  8 10  1  0
  8 11  1  0
  9 12  2  0
  9 13  1  0
 10 14  2  0
 11 15  2  0
 14 15  1  0
 14 16  1  0
 13 17  2  0
 12 18  1  0
 17 19  1  0
 18 19  2  0
 17 20  1  0
 19 21  1  0
 20 22  2  0
 21 23  2  0
 22 23  1  0
M  END
