diamond-x0895_1_A-mac-x0398
     RDKit          3D

 11 11  0  0  0  0  0  0  0  0999 V2000
   -1.8710   14.6700    0.6940 O   0  0  0  0  0  0  0  0  0  0  0  0
   -3.0450   14.8590    0.3890 C   0  0  0  0  0  0  0  0  0  0  0  0
   -3.6510   15.2920   -0.9550 C   0  0  1  0  0  0  0  0  0  0  0  0
   -4.0960   14.7230    1.2580 N   0  0  0  0  0  0  0  0  0  0  0  0
   -2.9780   14.9360   -2.2690 C   0  0  0  0  0  0  0  0  0  0  0  0
   -4.9200   14.6320   -0.8060 N   0  0  0  0  0  0  0  0  0  0  0  0
   -5.2490   14.7060    0.5420 C   0  0  0  0  0  0  0  0  0  0  0  0
   -6.3860   14.7450    0.9800 O   0  0  0  0  0  0  0  0  0  0  0  0
   -3.5680   14.7790   -3.3350 O   0  0  0  0  0  0  0  0  0  0  0  0
   -1.6420   14.8030   -2.2460 O   0  0  0  0  0  0  0  0  0  0  0  0
   -5.9280   15.1150   -1.6950 O   0  0  0  0  0  0  0  0  0  0  0  0
  1  2  2  0
  2  3  1  0
  2  4  1  0
  3  5  1  6
  3  6  1  0
  4  7  1  0
  6  7  1  0
  7  8  2  0
  5  9  2  0
  5 10  1  0
  6 11  1  0
M  END
