diamond-x0855_0_A-diamond-x0722_0_A
     RDKit          3D

 24 25  0  0  0  0  0  0  0  0999 V2000
    1.9490   12.6910   -2.4860 O   0  0  0  0  0  0  0  0  0  0  0  0
    0.6910   12.3080   -2.9950 C   0  0  0  0  0  0  0  0  0  0  0  0
    0.5240   12.5310   -4.5170 C   0  0  0  0  0  0  0  0  0  0  0  0
    0.6320   10.8950   -2.8070 O   0  0  0  0  0  0  0  0  0  0  0  0
   -0.4270   12.8790   -2.1040 C   0  0  0  0  0  0  0  0  0  0  0  0
   -0.3010   14.3560   -1.7080 C   0  0  0  0  0  0  0  0  0  0  0  0
   -0.4820   11.6760   -5.0930 N   0  0  0  0  0  0  0  0  0  0  0  0
   -1.6620   15.0640   -1.6060 C   0  0  0  0  0  0  0  0  0  0  0  0
   -0.3240   10.7530   -6.0840 C   0  0  0  0  0  0  0  0  0  0  0  0
   -1.7460   11.7580   -4.6230 N   0  0  0  0  0  0  0  0  0  0  0  0
   -1.5630   10.2000   -6.2520 C   0  0  0  0  0  0  0  0  0  0  0  0
   -2.4060   10.8440   -5.3420 C   0  0  0  0  0  0  0  0  0  0  0  0
   -2.3260   15.0130   -0.2580 C   0  0  0  0  0  0  0  0  0  0  0  0
   -2.0690    8.8550   -7.4390 Br  0  0  0  0  0  0  0  0  0  0  0  0
   -3.6600   15.2490    0.0890 C   0  0  0  0  0  0  0  0  0  0  0  0
   -1.6870   14.7090    0.9270 N   0  0  0  0  0  0  0  0  0  0  0  0
   -0.3010   14.3760    1.1740 C   0  0  0  0  0  0  0  0  0  0  0  0
   -4.8130   15.6180   -0.7980 C   0  0  0  0  0  0  0  0  0  0  0  0
   -2.5060   14.7370    1.9750 N   0  0  0  0  0  0  0  0  0  0  0  0
   -3.6950   15.0610    1.4980 C   0  0  0  0  0  0  0  0  0  0  0  0
   -4.8290   15.1760    2.4440 C   0  0  0  0  0  0  0  0  0  0  0  0
   -6.0360   14.7340   -0.6210 C   0  0  0  0  0  0  0  0  0  0  0  0
   -7.1790   15.1140   -0.8600 O   0  0  0  0  0  0  0  0  0  0  0  0
   -5.8200   13.4620   -0.1680 N   0  0  0  0  0  0  0  0  0  0  0  0
  2  1  1  0
  2  3  1  0
  2  4  1  0
  2  5  1  0
  5  6  1  0
  3  7  1  0
  6  8  1  0
  7  9  1  0
  7 10  1  0
  9 11  2  0
 10 12  2  0
 11 12  1  0
  8 13  1  0
 11 14  1  0
 13 15  2  0
 13 16  1  0
 16 17  1  0
 15 18  1  0
 16 19  1  0
 15 20  1  0
 19 20  2  0
 20 21  1  0
 18 22  1  0
 22 23  2  0
 22 24  1  0
M  END
