diamond-x0933_0_A-mac-x0124
     RDKit          3D

 17 19  0  0  0  0  0  0  0  0999 V2000
   -6.0100   15.0810    2.0160 N   0  0  0  0  0  0  0  0  0  0  0  0
   -4.8710   15.4810    1.2210 C   0  0  1  0  0  0  0  0  0  0  0  0
   -3.7320   14.6610    1.2970 N   0  0  0  0  0  0  0  0  0  0  0  0
   -5.5330   15.6400   -0.0620 N   0  0  0  0  0  0  0  0  0  0  0  0
   -4.7810   15.1620   -1.1860 C   0  0  0  0  0  0  0  0  0  0  0  0
   -4.1980   13.5200    0.5950 C   0  0  0  0  0  0  0  0  0  0  0  0
   -2.4740   14.8790    0.7520 C   0  0  0  0  0  0  0  0  0  0  0  0
   -4.1420   13.8190   -0.8980 C   0  0  0  0  0  0  0  0  0  0  0  0
   -2.2780   15.1220   -0.6240 C   0  0  0  0  0  0  0  0  0  0  0  0
   -1.3810   14.8260    1.5470 N   0  0  0  0  0  0  0  0  0  0  0  0
   -3.1000   15.2570   -1.7840 C   0  0  0  0  0  0  0  0  0  0  0  0
   -0.9790   15.2750   -1.0630 C   0  0  0  0  0  0  0  0  0  0  0  0
   -0.1780   15.0020    0.9760 C   0  0  0  0  0  0  0  0  0  0  0  0
   -0.9990   15.4830   -2.4120 N   0  0  0  0  0  0  0  0  0  0  0  0
   -2.2900   15.4770   -2.8680 C   0  0  0  0  0  0  0  0  0  0  0  0
    0.1170   15.2250   -0.3090 N   0  0  0  0  0  0  0  0  0  0  0  0
    0.1780   15.6770   -3.2180 C   0  0  0  0  0  0  0  0  0  0  0  0
  2  1  1  1
  2  3  1  0
  2  4  1  0
  4  5  1  0
  3  6  1  0
  3  7  1  0
  5  8  1  0
  6  8  1  0
  7  9  1  0
  7 10  2  0
  9 11  1  0
  9 12  2  0
 10 13  1  0
 12 14  1  0
 11 15  2  0
 14 15  1  0
 12 16  1  0
 13 16  2  0
 14 17  1  0
M  END
