diamond-x1015_0_A-mac-x1494
     RDKit          3D

 25 28  0  0  0  0  0  0  0  0999 V2000
   -1.8490   13.8980   -4.2240 C   0  0  0  0  0  0  0  0  0  0  0  0
   -0.3360   13.6210   -3.9740 C   0  0  2  0  0  0  0  0  0  0  0  0
   -0.0040   12.2050   -4.0110 N   0  0  0  0  0  0  0  0  0  0  0  0
   -2.6220   14.8810   -3.2980 C   0  0  2  0  0  0  0  0  0  0  0  0
    0.2000   13.9720   -2.5910 C   0  0  0  0  0  0  0  0  0  0  0  0
   -2.3700   14.4930   -1.8230 C   0  0  0  0  0  0  0  0  0  0  0  0
   -4.1270   15.0100   -3.5860 C   0  0  0  0  0  0  0  0  0  0  0  0
    0.3970   15.0950   -2.1510 O   0  0  0  0  0  0  0  0  0  0  0  0
    0.2240   11.7340   -2.7040 C   0  0  0  0  0  0  0  0  0  0  0  0
    0.4480   12.8230   -1.9130 N   0  0  0  0  0  0  0  0  0  0  0  0
   -0.4240   11.3960   -5.0920 C   0  0  0  0  0  0  0  0  0  0  0  0
   -3.4010   15.1620   -0.9410 C   0  0  1  0  0  0  0  0  0  0  0  0
   -5.1010   14.9100   -2.6360 C   0  0  0  0  0  0  0  0  0  0  0  0
    0.2370   10.5740   -2.2800 O   0  0  0  0  0  0  0  0  0  0  0  0
    0.1130   11.5690   -6.3730 C   0  0  0  0  0  0  0  0  0  0  0  0
   -1.3970   10.4000   -4.9110 C   0  0  0  0  0  0  0  0  0  0  0  0
   -4.7530   14.6380   -1.2170 C   0  0  2  0  0  0  0  0  0  0  0  0
   -3.3590   14.8820    0.4390 N   0  0  0  0  0  0  0  0  0  0  0  0
   -0.3080   10.7740   -7.4440 C   0  0  0  0  0  0  0  0  0  0  0  0
   -1.8180    9.6030   -5.9780 C   0  0  0  0  0  0  0  0  0  0  0  0
   -5.4770   15.3190   -0.1830 O   0  0  0  0  0  0  0  0  0  0  0  0
   -4.5780   15.3210    0.8800 C   0  0  0  0  0  0  0  0  0  0  0  0
   -4.8120   15.6610    2.0190 O   0  0  0  0  0  0  0  0  0  0  0  0
   -1.2730    9.7930   -7.2410 C   0  0  0  0  0  0  0  0  0  0  0  0
   -1.7890    8.8130   -8.5520 Cl  0  0  0  0  0  0  0  0  0  0  0  0
  2  1  1  1
  2  3  1  0
  4  1  1  6
  2  5  1  0
  4  6  1  0
  4  7  1  0
  5  8  2  0
  3  9  1  0
  5 10  1  0
  9 10  1  0
  3 11  1  0
 12  6  1  6
  7 13  2  0
  9 14  2  0
 11 15  2  0
 11 16  1  0
 12 17  1  0
 17 13  1  6
 12 18  1  0
 15 19  1  0
 16 20  2  0
 17 21  1  0
 18 22  1  0
 21 22  1  0
 22 23  2  0
 19 24  2  0
 20 24  1  0
 24 25  1  0
M  END
