diamond-x0591_0_A-mac-x0527
     RDKit          3D

 28 30  0  0  0  0  0  0  0  0999 V2000
   -6.5350   13.3470    0.6200 N   0  0  0  0  0  0  0  0  0  0  0  0
   -6.8460   14.1380    1.7840 C   0  0  0  0  0  0  0  0  0  0  0  0
   -7.0710   13.6790   -0.6040 C   0  0  0  0  0  0  0  0  0  0  0  0
   -8.2710   13.8540   -0.7780 O   0  0  0  0  0  0  0  0  0  0  0  0
   -6.1280   13.8390   -1.7490 C   0  0  0  0  0  0  0  0  0  0  0  0
   -4.8150   13.3480   -1.6430 C   0  0  0  0  0  0  0  0  0  0  0  0
   -6.5340   14.4730   -2.9270 C   0  0  0  0  0  0  0  0  0  0  0  0
   -3.9140   13.5080   -2.7080 C   0  0  0  0  0  0  0  0  0  0  0  0
   -5.6460   14.6310   -3.9860 C   0  0  0  0  0  0  0  0  0  0  0  0
   -4.3370   14.1660   -3.8820 C   0  0  0  0  0  0  0  0  0  0  0  0
   -3.2250   14.4360   -5.2640 S   0  0  0  0  0  0  0  0  0  0  0  0
   -1.6210   14.3250   -4.5500 N   0  0  0  0  0  0  0  0  0  0  0  0
   -3.3950   13.3210   -6.1730 O   0  0  0  0  0  0  0  0  0  0  0  0
   -3.4230   15.7870   -5.7610 O   0  0  0  0  0  0  0  0  0  0  0  0
   -1.6730   14.6090   -3.1440 N   0  0  0  0  0  0  0  0  0  0  0  0
   -1.1120   13.0530   -4.9890 C   0  0  0  0  0  0  0  0  0  0  0  0
   -3.0040   15.1590   -2.7820 C   0  0  0  0  0  0  0  0  0  0  0  0
   -1.8280   11.9240   -4.5830 C   0  0  0  0  0  0  0  0  0  0  0  0
    0.0210   12.9100   -5.7940 C   0  0  0  0  0  0  0  0  0  0  0  0
   -3.2660   15.1950   -1.2900 C   0  0  0  0  0  0  0  0  0  0  0  0
   -1.4260   10.6570   -4.9790 C   0  0  0  0  0  0  0  0  0  0  0  0
    0.4250   11.6360   -6.1940 C   0  0  0  0  0  0  0  0  0  0  0  0
   -4.4530   15.7380   -0.8210 C   0  0  0  0  0  0  0  0  0  0  0  0
   -2.3310   14.6840   -0.4290 N   0  0  0  0  0  0  0  0  0  0  0  0
   -0.3080   10.5130   -5.7850 C   0  0  0  0  0  0  0  0  0  0  0  0
   -4.7600   15.8030    0.4860 N   0  0  0  0  0  0  0  0  0  0  0  0
   -2.6540   14.7550    0.8850 C   0  0  0  0  0  0  0  0  0  0  0  0
   -3.8410   15.3040    1.3270 C   0  0  0  0  0  0  0  0  0  0  0  0
  1  2  1  0
  1  3  1  0
  3  4  2  0
  3  5  1  0
  5  6  2  0
  5  7  1  0
  6  8  1  0
  7  9  2  0
  8 10  2  0
  9 10  1  0
 10 11  1  0
 11 12  1  0
 11 13  2  0
 11 14  2  0
 12 15  1  0
 12 16  1  0
 15 17  1  0
 16 18  2  0
 16 19  1  0
 17 20  1  0
 18 21  1  0
 19 22  2  0
 20 23  2  0
 20 24  1  0
 21 25  2  0
 22 25  1  0
 23 26  1  0
 24 27  2  0
 26 28  2  0
 27 28  1  0
M  END
