diamond-x0371_0_A-diamond-x1015_0_A
     RDKit          3D

 35 39  0  0  0  0  0  0  0  0999 V2000
   -8.0440   14.4600    3.0150 N   0  0  0  0  0  0  0  0  0  0  0  0
   -8.7280   15.4840    3.6290 C   0  0  0  0  0  0  0  0  0  0  0  0
   -9.3880   16.3020    2.9930 O   0  0  0  0  0  0  0  0  0  0  0  0
   -8.2870   14.1310    1.6350 C   0  0  0  0  0  0  0  0  0  0  0  0
   -7.0490   14.4610    0.8960 C   0  0  0  0  0  0  0  0  0  0  0  0
   -8.6100   15.5010    5.0670 C   0  0  0  0  0  0  0  0  0  0  0  0
   -5.8370   14.5330    1.5280 N   0  0  0  0  0  0  0  0  0  0  0  0
   -6.9310   14.7150   -0.3960 N   0  0  0  0  0  0  0  0  0  0  0  0
   -8.0490   14.4310    5.7060 O   0  0  0  0  0  0  0  0  0  0  0  0
   -8.9800   16.4480    5.9990 C   0  0  0  0  0  0  0  0  0  0  0  0
   -5.5960   14.9550   -0.5970 C   0  0  0  0  0  0  0  0  0  0  0  0
   -4.8860   14.8550    0.5990 C   0  0  0  0  0  0  0  0  0  0  0  0
   -8.6240   15.9230    7.2670 C   0  0  0  0  0  0  0  0  0  0  0  0
   -8.0590   14.6960    7.0320 C   0  0  0  0  0  0  0  0  0  0  0  0
   -3.5120   15.0560    0.6940 C   0  0  0  0  0  0  0  0  0  0  0  0
   -4.9090   15.2600   -1.7760 C   0  0  0  0  0  0  0  0  0  0  0  0
   -2.8400   15.3580   -0.4940 C   0  0  0  0  0  0  0  0  0  0  0  0
   -3.5170   15.4550   -1.7230 C   0  0  0  0  0  0  0  0  0  0  0  0
   -2.7520   15.7560   -2.9870 C   0  0  0  0  0  0  0  0  0  0  0  0
   -2.2970   14.4340   -3.6180 C   0  0  0  0  0  0  0  0  0  0  0  0
   -1.0250   14.5830   -4.4470 C   0  0  0  0  0  0  0  0  0  0  0  0
    0.1530   13.6770   -4.0210 C   0  0  2  0  0  0  0  0  0  0  0  0
   -0.1610   12.2520   -3.9200 N   0  0  0  0  0  0  0  0  0  0  0  0
    0.4520   13.9590   -2.5510 C   0  0  0  0  0  0  0  0  0  0  0  0
    0.4950   15.0590   -2.0190 O   0  0  0  0  0  0  0  0  0  0  0  0
    0.2600   11.7380   -2.6780 C   0  0  0  0  0  0  0  0  0  0  0  0
    0.6760   12.7860   -1.9170 N   0  0  0  0  0  0  0  0  0  0  0  0
   -0.5320   11.4500   -5.0260 C   0  0  0  0  0  0  0  0  0  0  0  0
    0.2790   10.5680   -2.2850 O   0  0  0  0  0  0  0  0  0  0  0  0
    0.0420   11.6450   -6.2940 C   0  0  0  0  0  0  0  0  0  0  0  0
   -1.4880   10.4290   -4.8950 C   0  0  0  0  0  0  0  0  0  0  0  0
   -0.3240   10.8530   -7.3860 C   0  0  0  0  0  0  0  0  0  0  0  0
   -1.8570    9.6340   -5.9830 C   0  0  0  0  0  0  0  0  0  0  0  0
   -1.2740    9.8480   -7.2270 C   0  0  0  0  0  0  0  0  0  0  0  0
   -1.7290    8.8700   -8.5650 Cl  0  0  0  0  0  0  0  0  0  0  0  0
  1  2  1  0
  2  3  2  0
  1  4  1  0
  4  5  1  0
  2  6  1  0
  5  7  1  0
  5  8  2  0
  6  9  1  0
  6 10  2  0
  8 11  1  0
  7 12  1  0
 11 12  2  0
 10 13  1  0
  9 14  1  0
 13 14  2  0
 12 15  1  0
 11 16  1  0
 15 17  2  0
 16 18  2  0
 17 18  1  0
 18 19  1  0
 19 20  1  0
 20 21  1  0
 22 21  1  1
 22 23  1  0
 22 24  1  0
 24 25  2  0
 23 26  1  0
 24 27  1  0
 26 27  1  0
 23 28  1  0
 26 29  2  0
 28 30  2  0
 28 31  1  0
 30 32  1  0
 31 33  2  0
 32 34  2  0
 33 34  1  0
 34 35  1  0
M  END
