diamond-x0864_0_A-diamond-x0574_0_A
     RDKit          3D

 26 28  0  0  0  0  0  0  0  0999 V2000
    1.5600   11.5300   -7.1690 O   0  0  0  0  0  0  0  0  0  0  0  0
    0.4840   11.1810   -6.7260 C   0  0  0  0  0  0  0  0  0  0  0  0
   -0.1300   11.7780   -5.6510 N   0  0  0  0  0  0  0  0  0  0  0  0
   -0.2180   10.0400   -7.3430 C   0  0  0  0  0  0  0  0  0  0  0  0
    0.7430   12.6710   -4.9150 C   0  0  0  0  0  0  0  0  0  0  0  0
   -1.2420   11.2220   -5.0410 C   0  0  0  0  0  0  0  0  0  0  0  0
   -1.3240    9.5560   -6.7770 C   0  0  0  0  0  0  0  0  0  0  0  0
    0.6100   12.4430   -3.4370 C   0  0  0  0  0  0  0  0  0  0  0  0
   -2.2400    8.1140   -7.5190 Br  0  0  0  0  0  0  0  0  0  0  0  0
   -1.8440   10.1460   -5.5630 C   0  0  0  0  0  0  0  0  0  0  0  0
    0.5840   11.1490   -3.0500 O   0  0  0  0  0  0  0  0  0  0  0  0
    0.5280   13.4470   -2.6790 N   0  0  0  0  0  0  0  0  0  0  0  0
    0.3830   13.1950   -1.2820 C   0  0  0  0  0  0  0  0  0  0  0  0
    0.7840   14.4250   -0.4670 C   0  0  0  0  0  0  0  0  0  0  0  0
    0.2050   14.3450    0.8890 N   0  0  0  0  0  0  0  0  0  0  0  0
   -1.0860   14.4860    0.7710 C   0  0  0  0  0  0  0  0  0  0  0  0
   -2.0390   14.4790    1.6730 N   0  0  0  0  0  0  0  0  0  0  0  0
   -1.5130   14.7000   -0.8510 S   0  0  0  0  0  0  0  0  0  0  0  0
   -3.2420   14.6620    0.9720 C   0  0  0  0  0  0  0  0  0  0  0  0
   -3.1220   14.8070   -0.4100 C   0  0  0  0  0  0  0  0  0  0  0  0
   -4.5480   14.7150    1.4830 C   0  0  0  0  0  0  0  0  0  0  0  0
   -4.1820   15.0070   -1.2740 C   0  0  0  0  0  0  0  0  0  0  0  0
   -5.6400   14.9020    0.6200 C   0  0  0  0  0  0  0  0  0  0  0  0
   -5.4500   15.0520   -0.7390 C   0  0  0  0  0  0  0  0  0  0  0  0
   -6.8760   14.9250    1.2040 O   0  0  0  0  0  0  0  0  0  0  0  0
   -6.9730   14.6800    2.5960 C   0  0  0  0  0  0  0  0  0  0  0  0
  1  2  2  0
  2  3  1  0
  2  4  1  0
  3  5  1  0
  3  6  1  0
  4  7  2  0
  5  8  1  0
  7  9  1  0
  6 10  2  0
  7 10  1  0
  8 11  1  0
  8 12  2  3
 12 13  1  0
 13 14  1  0
 14 15  1  0
 15 16  1  0
 16 17  2  0
 16 18  1  0
 17 19  1  0
 18 20  1  0
 19 20  2  0
 19 21  1  0
 20 22  1  0
 21 23  2  0
 22 24  2  0
 23 24  1  0
 23 25  1  0
 25 26  1  0
M  END
