diamond-x0465_0_A-mac-x0326
     RDKit          3D

 23 25  0  0  0  0  0  0  0  0999 V2000
    0.6310   14.0300   -4.3220 C   0  0  0  0  0  0  0  0  0  0  0  0
    0.2700   12.5490   -4.3090 C   0  0  1  0  0  0  0  0  0  0  0  0
    0.5190   11.7570   -5.4850 O   0  0  0  0  0  0  0  0  0  0  0  0
   -0.4040   14.5010   -3.3270 C   0  0  0  0  0  0  0  0  0  0  0  0
    0.9250   11.9190   -3.1020 C   0  0  0  0  0  0  0  0  0  0  0  0
   -1.6730   14.5870   -3.6550 N   0  0  0  0  0  0  0  0  0  0  0  0
   -0.0470   14.9060   -1.6900 S   0  0  0  0  0  0  0  0  0  0  0  0
    1.7290   12.4770   -2.3760 O   0  0  0  0  0  0  0  0  0  0  0  0
    0.5300   10.6540   -2.8470 O   0  0  0  0  0  0  0  0  0  0  0  0
   -0.5080   10.8840   -5.7960 C   0  0  0  0  0  0  0  0  0  0  0  0
   -2.4370   14.9500   -2.5650 C   0  0  0  0  0  0  0  0  0  0  0  0
   -1.7310   15.1690   -1.3830 C   0  0  0  0  0  0  0  0  0  0  0  0
   -0.5260    9.8170   -6.7080 C   0  0  0  0  0  0  0  0  0  0  0  0
   -1.6840   11.1380   -5.0720 C   0  0  0  0  0  0  0  0  0  0  0  0
   -3.8360   15.0950   -2.5710 C   0  0  0  0  0  0  0  0  0  0  0  0
   -2.3840   15.5320   -0.1910 C   0  0  0  0  0  0  0  0  0  0  0  0
    0.5350    9.4910   -7.4510 F   0  0  0  0  0  0  0  0  0  0  0  0
   -1.6730    9.0380   -6.8790 C   0  0  0  0  0  0  0  0  0  0  0  0
   -2.8330   10.3620   -5.2430 C   0  0  0  0  0  0  0  0  0  0  0  0
   -4.4880   15.4450   -1.3930 C   0  0  0  0  0  0  0  0  0  0  0  0
   -3.7790   15.6650   -0.2160 C   0  0  0  0  0  0  0  0  0  0  0  0
   -6.2030   15.6010   -1.3970 Cl  0  0  0  0  0  0  0  0  0  0  0  0
   -2.8250    9.3070   -6.1500 C   0  0  0  0  0  0  0  0  0  0  0  0
  2  1  1  6
  2  3  1  0
  1  4  1  0
  2  5  1  0
  4  6  2  0
  4  7  1  0
  5  8  2  0
  5  9  1  0
  3 10  1  0
  6 11  1  0
  7 12  1  0
 11 12  2  0
 10 13  2  0
 10 14  1  0
 11 15  1  0
 12 16  1  0
 13 17  1  0
 13 18  1  0
 14 19  2  0
 15 20  2  0
 16 21  2  0
 20 21  1  0
 20 22  1  0
 18 23  2  0
 19 23  1  0
M  END
