diamond-x0837_0_A-mac-x0588
     RDKit          3D

 23 26  0  0  0  0  0  0  0  0999 V2000
   -7.7850   14.8070    0.3530 O   0  0  0  0  0  0  0  0  0  0  0  0
   -6.5810   14.8550    0.1260 C   0  0  0  0  0  0  0  0  0  0  0  0
   -5.6530   14.9770    1.1210 N   0  0  0  0  0  0  0  0  0  0  0  0
   -5.9990   14.7800   -1.2560 C   0  0  0  0  0  0  0  0  0  0  0  0
   -4.2850   14.5610    0.8990 C   0  0  1  0  0  0  0  0  0  0  0  0
   -5.0320   13.6020   -1.3180 C   0  0  1  0  0  0  0  0  0  0  0  0
   -3.7050   13.7530   -3.0790 I   0  0  0  0  0  0  0  0  0  0  0  0
   -4.2650   13.3470   -0.0060 C   0  0  0  0  0  0  0  0  0  0  0  0
   -3.3520   15.5770    0.2500 C   0  0  2  0  0  0  0  0  0  0  0  0
   -3.7770   15.8940   -1.1330 N   0  0  0  0  0  0  0  0  0  0  0  0
   -1.9790   14.8990    0.3900 C   0  0  1  0  0  0  0  0  0  0  0  0
   -2.9130   15.5220   -2.2520 C   0  0  0  0  0  0  0  0  0  0  0  0
   -1.2480   14.5930   -0.9010 C   0  0  1  0  0  0  0  0  0  0  0  0
   -1.0450   15.7630    1.0570 N   0  0  0  0  0  0  0  0  0  0  0  0
   -1.4950   15.4970   -1.9790 N   0  0  0  0  0  0  0  0  0  0  0  0
    0.1560   14.6240   -0.5230 N   0  0  0  0  0  0  0  0  0  0  0  0
    0.1720   15.0290    0.8580 C   0  0  0  0  0  0  0  0  0  0  0  0
   -0.6670   15.0900   -3.1260 C   0  0  0  0  0  0  0  0  0  0  0  0
   -0.6020   16.0020   -4.3670 C   0  0  1  0  0  0  0  0  0  0  0  0
   -1.3790   17.2030   -4.2570 O   0  0  0  0  0  0  0  0  0  0  0  0
    0.7960   16.4030   -4.8130 C   0  0  0  0  0  0  0  0  0  0  0  0
    0.6390   17.8190   -5.3160 C   0  0  0  0  0  0  0  0  0  0  0  0
   -0.8610   18.0670   -5.2710 C   0  0  0  0  0  0  0  0  0  0  0  0
  1  2  2  0
  2  3  1  0
  2  4  1  0
  3  5  1  0
  4  6  1  0
  6  7  1  6
  5  8  1  6
  6  8  1  0
  5  9  1  0
  9 10  1  6
  9 11  1  0
 10 12  1  0
 11 13  1  0
 11 14  1  1
 12 15  1  0
 13 15  1  0
 13 16  1  1
 14 17  1  0
 16 17  1  0
 15 18  1  0
 19 18  1  1
 19 20  1  0
 19 21  1  0
 21 22  1  0
 20 23  1  0
 22 23  1  0
M  END
