diamond-x0689_0_A-mac-x0137
     RDKit          3D

 17 19  0  0  0  0  0  0  0  0999 V2000
   -3.4910   13.7290    1.2960 N   0  0  0  0  0  0  0  0  0  0  0  0
   -4.7930   14.3860    1.3160 C   0  0  0  0  0  0  0  0  0  0  0  0
   -2.5010   14.5490    0.6770 C   0  0  2  0  0  0  0  0  0  0  0  0
   -2.4220   14.3840   -0.8110 N   0  0  0  0  0  0  0  0  0  0  0  0
   -1.2040   14.6750    1.2940 N   0  0  0  0  0  0  0  0  0  0  0  0
   -3.0850   15.8760    0.6730 N   0  0  0  0  0  0  0  0  0  0  0  0
   -1.1260   14.2010   -1.5580 C   0  0  2  0  0  0  0  0  0  0  0  0
   -0.1020   15.0550    0.5760 C   0  0  0  0  0  0  0  0  0  0  0  0
   -3.5990   14.9490   -1.2780 C   0  0  0  0  0  0  0  0  0  0  0  0
   -4.0060   15.8450   -0.3730 C   0  0  0  0  0  0  0  0  0  0  0  0
   -0.0160   14.8620   -0.7460 C   0  0  0  0  0  0  0  0  0  0  0  0
   -1.3030   14.7960   -3.0020 C   0  0  0  0  0  0  0  0  0  0  0  0
   -0.6150   12.7320   -1.7120 C   0  0  0  0  0  0  0  0  0  0  0  0
   -1.6760   13.7630   -4.0830 C   0  0  2  0  0  0  0  0  0  0  0  0
    0.1750   12.4230   -2.9940 C   0  0  0  0  0  0  0  0  0  0  0  0
   -2.8650   13.1790   -3.7560 F   0  0  0  0  0  0  0  0  0  0  0  0
   -0.6470   12.6550   -4.2550 C   0  0  0  0  0  0  0  0  0  0  0  0
  1  2  1  0
  3  1  1  1
  3  4  1  0
  3  5  1  0
  3  6  1  0
  4  7  1  0
  5  8  1  0
  4  9  1  0
  6 10  1  0
  9 10  2  0
  7 11  1  1
  8 11  2  0
  7 12  1  0
  7 13  1  0
 12 14  1  0
 13 15  1  0
 14 16  1  1
 14 17  1  0
 15 17  1  0
M  END
