diamond-x0465_0_A-diamond-x0895_1_A
     RDKit          3D

 23 24  0  0  0  0  0  0  0  0999 V2000
    2.3760   13.0220   -4.6680 C   0  0  0  0  0  0  0  0  0  0  0  0
    0.9060   12.6320   -4.7170 C   0  0  1  0  0  0  0  0  0  0  0  0
    0.7150   11.4850   -5.5620 O   0  0  0  0  0  0  0  0  0  0  0  0
    0.4200   12.3130   -3.3030 C   0  0  0  0  0  0  0  0  0  0  0  0
    0.0140   13.2400   -2.5150 N   0  0  0  0  0  0  0  0  0  0  0  0
    0.4400   10.9950   -2.9920 O   0  0  0  0  0  0  0  0  0  0  0  0
   -0.5130   10.8700   -5.6500 C   0  0  0  0  0  0  0  0  0  0  0  0
   -0.5320   12.9690   -1.1970 C   0  0  0  0  0  0  0  0  0  0  0  0
   -0.6180    9.8260   -6.5870 C   0  0  0  0  0  0  0  0  0  0  0  0
   -1.6390   11.1960   -4.8920 C   0  0  0  0  0  0  0  0  0  0  0  0
    0.4300    9.4730   -7.3440 F   0  0  0  0  0  0  0  0  0  0  0  0
    0.2350   13.7280   -0.1050 C   0  0  0  0  0  0  0  0  0  0  0  0
   -1.8100    9.1260   -6.7600 C   0  0  0  0  0  0  0  0  0  0  0  0
   -2.8390   10.4940   -5.0670 C   0  0  0  0  0  0  0  0  0  0  0  0
   -0.4540   15.0030    0.3460 C   0  0  0  0  0  0  0  0  0  0  0  0
   -2.9240    9.4590   -6.0000 C   0  0  0  0  0  0  0  0  0  0  0  0
   -1.5570   14.7640    1.2980 N   0  0  0  0  0  0  0  0  0  0  0  0
   -2.7450   14.6790    0.7900 C   0  0  0  0  0  0  0  0  0  0  0  0
   -3.0640   14.7520   -0.6950 C   0  0  0  0  0  0  0  0  0  0  0  0
   -3.9270   14.5070    1.4280 N   0  0  0  0  0  0  0  0  0  0  0  0
   -4.4190   15.2020   -0.6070 N   0  0  0  0  0  0  0  0  0  0  0  0
   -4.9540   14.8200    0.5950 C   0  0  0  0  0  0  0  0  0  0  0  0
   -6.1450   14.7720    0.8470 O   0  0  0  0  0  0  0  0  0  0  0  0
  2  1  1  1
  2  3  1  0
  2  4  1  0
  4  5  2  3
  4  6  1  0
  3  7  1  0
  5  8  1  0
  7  9  2  0
  7 10  1  0
  9 11  1  0
  8 12  1  0
  9 13  1  0
 10 14  2  0
 12 15  1  0
 13 16  2  0
 14 16  1  0
 15 17  1  0
 17 18  2  3
 18 19  1  0
 18 20  1  0
 19 21  1  0
 20 22  1  0
 21 22  1  0
 22 23  2  0
M  END
