diamond-x0724_0_A-diamond-x0662_0_A
     RDKit          3D

 35 38  0  0  0  0  0  0  0  0999 V2000
   -8.6730   13.8410    4.3370 N   0  0  0  0  0  0  0  0  0  0  0  0
   -8.4800   13.9160    5.7770 C   0  0  0  0  0  0  0  0  0  0  0  0
   -8.3840   15.1270    3.7000 C   0  0  0  0  0  0  0  0  0  0  0  0
   -7.7660   14.8870    2.3710 C   0  0  0  0  0  0  0  0  0  0  0  0
   -6.4340   14.9490    2.0500 C   0  0  0  0  0  0  0  0  0  0  0  0
   -8.3760   14.5500    1.1440 C   0  0  0  0  0  0  0  0  0  0  0  0
   -7.4970   14.4170    0.1460 N   0  0  0  0  0  0  0  0  0  0  0  0
   -6.2840   14.6670    0.7200 N   0  0  0  0  0  0  0  0  0  0  0  0
   -5.0720   14.6180   -0.0210 C   0  0  0  0  0  0  0  0  0  0  0  0
   -3.8270   14.6960    0.6180 C   0  0  0  0  0  0  0  0  0  0  0  0
   -5.1350   14.4790   -1.4060 C   0  0  0  0  0  0  0  0  0  0  0  0
   -2.6530   14.6160   -0.1400 C   0  0  0  0  0  0  0  0  0  0  0  0
   -3.9610   14.4000   -2.1520 C   0  0  0  0  0  0  0  0  0  0  0  0
   -2.7150   14.4580   -1.5290 C   0  0  0  0  0  0  0  0  0  0  0  0
   -1.4700   14.3280   -2.3670 C   0  0  0  0  0  0  0  0  0  0  0  0
   -1.3570   12.9140   -2.9770 C   0  0  0  0  0  0  0  0  0  0  0  0
   -0.1770   12.6570   -3.9180 C   0  0  0  0  0  0  0  0  0  0  0  0
   -0.5480   11.7350   -5.0000 N   0  0  0  0  0  0  0  0  0  0  0  0
    0.3430   11.5870   -5.9230 C   0  0  0  0  0  0  0  0  0  0  0  0
    1.4710   12.1060   -6.0300 O   0  0  0  0  0  0  0  0  0  0  0  0
    0.0690   10.6590   -7.1180 C   0  0  0  0  0  0  0  0  0  0  0  0
   -0.8880    9.6270   -7.1410 C   0  0  0  0  0  0  0  0  0  0  0  0
    0.8290   10.8560   -8.2750 C   0  0  0  0  0  0  0  0  0  0  0  0
   -1.0630    8.8390   -8.2850 C   0  0  0  0  0  0  0  0  0  0  0  0
    0.6740   10.0870   -9.4290 C   0  0  0  0  0  0  0  0  0  0  0  0
    1.4170   10.2560  -10.6190 N   0  0  0  0  0  0  0  0  0  0  0  0
   -0.2850    9.0700   -9.4220 C   0  0  0  0  0  0  0  0  0  0  0  0
    2.2090    9.3410  -11.2850 C   0  0  0  0  0  0  0  0  0  0  0  0
    2.3990    8.1760  -10.9720 O   0  0  0  0  0  0  0  0  0  0  0  0
    2.8860    9.9010  -12.4810 C   0  0  0  0  0  0  0  0  0  0  0  0
    2.6790   11.1720  -13.0950 C   0  0  0  0  0  0  0  0  0  0  0  0
    3.8400    9.2010  -13.1380 N   0  0  0  0  0  0  0  0  0  0  0  0
    4.2180   10.0200  -14.1370 N   0  0  0  0  0  0  0  0  0  0  0  0
    3.5540   11.2120  -14.1550 C   0  0  0  0  0  0  0  0  0  0  0  0
    5.2450    9.5790  -15.0480 C   0  0  0  0  0  0  0  0  0  0  0  0
  1  2  1  0
  1  3  1  0
  3  4  1  0
  4  5  2  0
  4  6  1  0
  6  7  2  0
  5  8  1  0
  7  8  1  0
  8  9  1  0
  9 10  2  0
  9 11  1  0
 10 12  1  0
 11 13  2  0
 12 14  2  0
 13 14  1  0
 14 15  1  0
 15 16  1  0
 16 17  1  0
 17 18  1  0
 18 19  2  3
 19 20  1  0
 19 21  1  0
 21 22  2  0
 21 23  1  0
 22 24  1  0
 23 25  2  0
 25 26  1  0
 24 27  2  0
 25 27  1  0
 26 28  1  0
 28 29  2  0
 28 30  1  0
 30 31  1  0
 30 32  2  0
 32 33  1  0
 31 34  2  0
 33 34  1  0
 33 35  1  0
M  CHG  1  20  -1
M  END
