diamond-x0933_0_A-diamond-x1012_0_A
     RDKit          3D

 22 23  0  0  0  0  0  0  0  0999 V2000
   -6.2580   14.6900    1.9240 N   0  0  0  0  0  0  0  0  0  0  0  0
   -5.0940   14.4580    1.1530 C   0  0  2  0  0  0  0  0  0  0  0  0
   -4.1730   15.4600    1.5580 N   0  0  0  0  0  0  0  0  0  0  0  0
   -5.4780   14.6530   -0.1950 N   0  0  0  0  0  0  0  0  0  0  0  0
   -4.3790   14.3190   -1.1090 C   0  0  1  0  0  0  0  0  0  0  0  0
   -2.9830   15.4100    0.7010 C   0  0  0  0  0  0  0  0  0  0  0  0
   -4.4160   15.3170   -2.2440 C   0  0  0  0  0  0  0  0  0  0  0  0
   -3.0510   14.2800   -0.3340 C   0  0  0  0  0  0  0  0  0  0  0  0
   -3.0410   15.5800   -2.8460 C   0  0  0  0  0  0  0  0  0  0  0  0
   -3.0950   15.8530   -4.3450 C   0  0  0  0  0  0  0  0  0  0  0  0
   -2.4260   17.1310   -4.5300 N   0  0  0  0  0  0  0  0  0  0  0  0
   -1.1760   17.0830   -4.7130 C   0  0  0  0  0  0  0  0  0  0  0  0
   -0.3300   18.1280   -4.8920 N   0  0  0  0  0  0  0  0  0  0  0  0
   -0.5110   15.8640   -4.7480 N   0  0  0  0  0  0  0  0  0  0  0  0
   -1.2090   14.5960   -5.0550 C   0  0  0  0  0  0  0  0  0  0  0  0
    0.9270   15.7050   -4.4590 C   0  0  0  0  0  0  0  0  0  0  0  0
   -1.0780   13.6590   -3.8610 C   0  0  0  0  0  0  0  0  0  0  0  0
    1.2110   14.6480   -3.3700 C   0  0  0  0  0  0  0  0  0  0  0  0
    0.3980   13.3540   -3.5750 C   0  0  0  0  0  0  0  0  0  0  0  0
    0.4620   12.4020   -2.4040 C   0  0  0  0  0  0  0  0  0  0  0  0
    0.3640   11.1040   -2.7720 O   0  0  0  0  0  0  0  0  0  0  0  0
    0.5740   12.7350   -1.2310 O   0  0  0  0  0  0  0  0  0  0  0  0
  2  1  1  1
  2  3  1  0
  2  4  1  0
  4  5  1  0
  3  6  1  0
  5  7  1  6
  5  8  1  0
  6  8  1  0
  7  9  1  0
  9 10  1  0
 10 11  1  0
 11 12  2  3
 12 13  1  0
 12 14  1  0
 14 15  1  0
 14 16  1  0
 15 17  1  0
 16 18  1  0
 17 19  1  0
 18 19  1  0
 19 20  1  0
 20 21  1  0
 20 22  2  0
M  END
