diamond-x0727_0_A-diamond-x1015_0_A
     RDKit          3D

 18 19  0  0  0  0  0  0  0  0999 V2000
    1.0800   11.9410   -5.0560 N   0  0  0  0  0  0  0  0  0  0  0  0
    1.8870   12.8000   -4.2810 C   0  0  1  0  0  0  0  0  0  0  0  0
    1.6840   14.2590   -4.6190 C   0  0  0  0  0  0  0  0  0  0  0  0
    1.3020   11.7200   -6.3380 C   0  0  0  0  0  0  0  0  0  0  0  0
    1.0230   11.4750   -7.4450 O   0  0  0  0  0  0  0  0  0  0  0  0
    1.4820   12.4980   -2.8570 C   0  0  0  0  0  0  0  0  0  0  0  0
   -0.7320   11.5570   -6.0120 S   0  0  0  0  0  0  0  0  0  0  0  0
    2.4400   12.9570   -2.0060 O   0  0  0  0  0  0  0  0  0  0  0  0
   -1.8360   10.9340   -7.4320 C   0  0  0  0  0  0  0  0  0  0  0  0
   -0.8070    9.7390   -5.7640 C   0  0  0  0  0  0  0  0  0  0  0  0
   -0.9800   12.0490   -4.1700 C   0  0  1  0  0  0  0  0  0  0  0  0
   -1.5590   13.1270   -5.5260 C   0  0  0  0  0  0  0  0  0  0  0  0
   -0.8200   11.1610   -3.1390 C   0  0  0  0  0  0  0  0  0  0  0  0
   -1.9540    9.3910   -7.4460 C   0  0  0  0  0  0  0  0  0  0  0  0
   -0.6980    9.0280   -6.9800 C   0  0  0  0  0  0  0  0  0  0  0  0
   -0.5990   13.9960   -4.9440 N   0  0  0  0  0  0  0  0  0  0  0  0
   -0.5400   13.4180   -3.7790 C   0  0  0  0  0  0  0  0  0  0  0  0
   -0.2000   14.0240   -2.6800 O   0  0  0  0  0  0  0  0  0  0  0  0
  1  2  1  0
  2  3  1  6
  1  4  1  0
  4  5  2  0
  2  6  1  0
  4  7  1  0
  6  8  1  0
  7  9  1  0
  7 10  1  0
  7 11  1  0
  7 12  1  0
 11 13  1  1
  9 14  1  0
 10 15  1  0
 14 15  1  0
 12 16  1  0
 11 17  1  0
 16 17  1  0
 17 18  2  0
M  END
