diamond-x0524_0_A-diamond-x1012_0_A
     RDKit          3D

 32 34  0  0  0  0  0  0  0  0999 V2000
   -0.5730    8.5210   -8.3010 N   0  0  0  0  0  0  0  0  0  0  0  0
   -0.8890    9.4880   -7.3860 C   0  0  0  0  0  0  0  0  0  0  0  0
   -1.8260    9.1170   -6.2520 C   0  0  0  0  0  0  0  0  0  0  0  0
    0.5270    8.5360   -9.1850 C   0  0  0  0  0  0  0  0  0  0  0  0
   -0.3590   10.6570   -7.5480 N   0  0  0  0  0  0  0  0  0  0  0  0
    1.6680    7.7590   -8.9980 C   0  0  0  0  0  0  0  0  0  0  0  0
    0.4680    9.3650  -10.3100 C   0  0  0  0  0  0  0  0  0  0  0  0
   -0.6420   11.7060   -6.5840 C   0  0  0  0  0  0  0  0  0  0  0  0
    2.7270    7.8030   -9.9140 C   0  0  0  0  0  0  0  0  0  0  0  0
    1.5260    9.4090  -11.2260 C   0  0  0  0  0  0  0  0  0  0  0  0
   -0.0010   11.2280   -5.2930 C   0  0  0  0  0  0  0  0  0  0  0  0
    2.6710    8.6250  -11.0430 C   0  0  0  0  0  0  0  0  0  0  0  0
    3.7120    8.6850  -11.9820 N   0  0  0  0  0  0  0  0  0  0  0  0
   -0.7110   11.6630   -4.0320 C   0  0  0  0  0  0  0  0  0  0  0  0
    0.2690   11.6510   -2.9820 O   0  0  0  0  0  0  0  0  0  0  0  0
    3.9940    9.5430  -13.0590 C   0  0  0  0  0  0  0  0  0  0  0  0
    0.2680   12.7560   -2.1860 C   0  0  0  0  0  0  0  0  0  0  0  0
    3.2250   10.7000  -13.2620 C   0  0  0  0  0  0  0  0  0  0  0  0
    5.0360    9.2790  -13.9500 C   0  0  0  0  0  0  0  0  0  0  0  0
    0.4630   12.7320   -0.9850 O   0  0  0  0  0  0  0  0  0  0  0  0
    3.4950   11.5640  -14.3240 C   0  0  0  0  0  0  0  0  0  0  0  0
    5.3090   10.1410  -15.0130 C   0  0  0  0  0  0  0  0  0  0  0  0
   -0.0340   14.0520   -2.9320 C   0  0  0  0  0  0  0  0  0  0  0  0
    4.5380   11.2840  -15.2000 C   0  0  0  0  0  0  0  0  0  0  0  0
   -1.5010   14.1150   -3.3900 C   0  0  0  0  0  0  0  0  0  0  0  0
    0.9720   14.3480   -4.0520 C   0  0  0  0  0  0  0  0  0  0  0  0
   -1.6230   14.7280   -4.7820 C   0  0  0  0  0  0  0  0  0  0  0  0
    0.6790   15.6870   -4.7330 C   0  0  0  0  0  0  0  0  0  0  0  0
   -0.7590   15.9010   -4.9290 N   0  0  0  0  0  0  0  0  0  0  0  0
   -1.2420   17.1850   -4.7910 C   0  0  0  0  0  0  0  0  0  0  0  0
   -0.3330   18.1730   -4.6580 N   0  0  0  0  0  0  0  0  0  0  0  0
   -2.4260   17.4830   -4.7710 O   0  0  0  0  0  0  0  0  0  0  0  0
  1  2  1  0
  2  3  1  0
  1  4  1  0
  2  5  2  3
  4  6  2  0
  4  7  1  0
  5  8  1  0
  6  9  1  0
  7 10  2  0
  8 11  1  0
  9 12  2  0
 10 12  1  0
 12 13  1  0
 11 14  1  0
 14 15  1  0
 13 16  1  0
 15 17  1  0
 16 18  2  0
 16 19  1  0
 17 20  2  0
 18 21  1  0
 19 22  2  0
 17 23  1  0
 21 24  2  0
 22 24  1  0
 23 25  1  0
 23 26  1  0
 25 27  1  0
 26 28  1  0
 27 29  1  0
 28 29  1  0
 29 30  1  0
 30 31  1  0
 30 32  2  0
M  END
