diamond-x0864_0_A-mac-x0180
     RDKit          3D

 26 27  0  0  0  0  0  0  0  0999 V2000
    1.5330   11.7890   -6.9330 O   0  0  0  0  0  0  0  0  0  0  0  0
    0.5000   11.2980   -6.5040 C   0  0  0  0  0  0  0  0  0  0  0  0
   -0.1310   11.7130   -5.3460 N   0  0  0  0  0  0  0  0  0  0  0  0
   -0.1250   10.1730   -7.2310 C   0  0  0  0  0  0  0  0  0  0  0  0
    0.6470   12.5860   -4.4700 C   0  0  0  0  0  0  0  0  0  0  0  0
   -1.3100   11.1460   -4.9000 C   0  0  0  0  0  0  0  0  0  0  0  0
   -1.2590    9.6300   -6.7700 C   0  0  0  0  0  0  0  0  0  0  0  0
    0.7010   12.0950   -3.0340 C   0  0  0  0  0  0  0  0  0  0  0  0
   -2.0860    8.2050   -7.6410 Br  0  0  0  0  0  0  0  0  0  0  0  0
   -1.8800   10.1360   -5.5680 C   0  0  0  0  0  0  0  0  0  0  0  0
    0.4440   10.7780   -2.8640 O   0  0  0  0  0  0  0  0  0  0  0  0
    0.9700   12.8860   -2.0700 N   0  0  0  0  0  0  0  0  0  0  0  0
    1.2450   14.3020   -2.2810 C   0  0  0  0  0  0  0  0  0  0  0  0
    0.1610   15.2140   -2.0390 O   0  0  0  0  0  0  0  0  0  0  0  0
   -1.0000   14.9660   -2.7090 C   0  0  0  0  0  0  0  0  0  0  0  0
   -1.1260   14.8350   -3.9130 O   0  0  0  0  0  0  0  0  0  0  0  0
   -2.1390   14.9080   -1.7430 C   0  0  0  0  0  0  0  0  0  0  0  0
   -1.9550   14.6480   -0.3790 C   0  0  0  0  0  0  0  0  0  0  0  0
   -3.4340   15.1370   -2.2270 C   0  0  0  0  0  0  0  0  0  0  0  0
   -3.0520   14.6150    0.4940 C   0  0  0  0  0  0  0  0  0  0  0  0
   -4.5270   15.1020   -1.3490 C   0  0  0  0  0  0  0  0  0  0  0  0
   -4.3420   14.8390    0.0170 C   0  0  0  0  0  0  0  0  0  0  0  0
   -5.4850   14.8110    0.8430 N   0  0  0  0  0  0  0  0  0  0  0  0
   -6.7910   14.7080    0.3860 C   0  0  0  0  0  0  0  0  0  0  0  0
   -7.7810   14.5000    1.5020 C   0  0  0  0  0  0  0  0  0  0  0  0
   -7.1690   14.7730   -0.7760 O   0  0  0  0  0  0  0  0  0  0  0  0
  1  2  2  0
  2  3  1  0
  2  4  1  0
  3  5  1  0
  3  6  1  0
  4  7  2  0
  5  8  1  0
  7  9  1  0
  6 10  2  0
  7 10  1  0
  8 11  1  0
  8 12  2  3
 12 13  1  0
 13 14  1  0
 14 15  1  0
 15 16  2  0
 15 17  1  0
 17 18  2  0
 17 19  1  0
 18 20  1  0
 19 21  2  0
 20 22  2  0
 21 22  1  0
 22 23  1  0
 23 24  1  0
 24 25  1  0
 24 26  2  0
M  END
