diamond-x0371_0_A-mac-x0226
     RDKit          3D

 35 39  0  0  0  0  0  0  0  0999 V2000
   -8.2510   14.5780    2.8510 N   0  0  0  0  0  0  0  0  0  0  0  0
   -8.8440   15.5420    3.6260 C   0  0  0  0  0  0  0  0  0  0  0  0
   -9.5120   16.3720    3.0040 O   0  0  0  0  0  0  0  0  0  0  0  0
   -8.3770   14.3830    1.4280 C   0  0  0  0  0  0  0  0  0  0  0  0
   -7.0650   14.5630    0.7530 C   0  0  0  0  0  0  0  0  0  0  0  0
   -8.6910   15.5660    5.0620 C   0  0  0  0  0  0  0  0  0  0  0  0
   -5.8560   14.4280    1.3950 N   0  0  0  0  0  0  0  0  0  0  0  0
   -6.8780   14.8690   -0.5190 N   0  0  0  0  0  0  0  0  0  0  0  0
   -8.0800   14.4720    5.6180 O   0  0  0  0  0  0  0  0  0  0  0  0
   -9.0160   16.4460    6.0760 C   0  0  0  0  0  0  0  0  0  0  0  0
   -5.5120   14.9230   -0.6910 C   0  0  0  0  0  0  0  0  0  0  0  0
   -4.8610   14.6460    0.4980 C   0  0  0  0  0  0  0  0  0  0  0  0
   -8.5820   15.8580    7.2910 C   0  0  0  0  0  0  0  0  0  0  0  0
   -8.0170   14.6570    6.9550 C   0  0  0  0  0  0  0  0  0  0  0  0
   -3.4790   14.6170    0.6470 C   0  0  0  0  0  0  0  0  0  0  0  0
   -4.7470   15.1970   -1.8290 C   0  0  0  0  0  0  0  0  0  0  0  0
   -2.7100   14.8780   -0.4900 C   0  0  0  0  0  0  0  0  0  0  0  0
   -3.3450   15.1700   -1.7170 C   0  0  0  0  0  0  0  0  0  0  0  0
   -1.1910   14.8390   -0.3540 C   0  0  0  0  0  0  0  0  0  0  0  0
   -0.5530   13.4970   -0.6090 C   0  0  0  0  0  0  0  0  0  0  0  0
    0.5020   13.6890   -1.6940 C   0  0  0  0  0  0  0  0  0  0  0  0
    1.1800   12.4640   -1.9740 O   0  0  0  0  0  0  0  0  0  0  0  0
    0.4960   11.5220   -2.6760 C   0  0  0  0  0  0  0  0  0  0  0  0
   -0.1160   10.5880   -2.1570 O   0  0  0  0  0  0  0  0  0  0  0  0
    0.6160   11.6800   -4.1110 C   0  0  0  0  0  0  0  0  0  0  0  0
    1.3630   12.5980   -4.8850 C   0  0  0  0  0  0  0  0  0  0  0  0
   -0.0100   10.8910   -5.0540 C   0  0  0  0  0  0  0  0  0  0  0  0
    1.2250   12.3920   -6.1980 N   0  0  0  0  0  0  0  0  0  0  0  0
    0.3780   11.3260   -6.2960 N   0  0  0  0  0  0  0  0  0  0  0  0
   -0.0060   10.7710   -7.5510 C   0  0  0  0  0  0  0  0  0  0  0  0
   -1.1760   10.0210   -7.6540 C   0  0  0  0  0  0  0  0  0  0  0  0
    0.7690   10.9540   -8.6910 C   0  0  0  0  0  0  0  0  0  0  0  0
   -1.5500    9.4690   -8.8840 C   0  0  0  0  0  0  0  0  0  0  0  0
    0.4050   10.4090   -9.9150 C   0  0  0  0  0  0  0  0  0  0  0  0
   -0.7570    9.6640  -10.0150 C   0  0  0  0  0  0  0  0  0  0  0  0
  1  2  1  0
  2  3  2  0
  1  4  1  0
  4  5  1  0
  2  6  1  0
  5  7  1  0
  5  8  2  0
  6  9  1  0
  6 10  2  0
  8 11  1  0
  7 12  1  0
 11 12  2  0
 10 13  1  0
  9 14  1  0
 13 14  2  0
 12 15  1  0
 11 16  1  0
 15 17  2  0
 16 18  2  0
 17 18  1  0
 17 19  1  0
 19 20  1  0
 20 21  1  0
 21 22  1  0
 22 23  1  0
 23 24  2  0
 23 25  1  0
 25 26  1  0
 25 27  2  0
 26 28  2  0
 27 29  1  0
 28 29  1  0
 29 30  1  0
 30 31  2  0
 30 32  1  0
 31 33  1  0
 32 34  2  0
 33 35  2  0
 34 35  1  0
M  END
