diamond-x0864_0_A-mac-x0392
     RDKit          3D

 23 24  0  0  0  0  0  0  0  0999 V2000
    1.5570   11.7620   -6.9500 O   0  0  0  0  0  0  0  0  0  0  0  0
    0.5180   11.2900   -6.5200 C   0  0  0  0  0  0  0  0  0  0  0  0
   -0.1110   11.7270   -5.3680 N   0  0  0  0  0  0  0  0  0  0  0  0
   -0.1210   10.1650   -7.2380 C   0  0  0  0  0  0  0  0  0  0  0  0
    0.6480   12.6290   -4.5030 C   0  0  0  0  0  0  0  0  0  0  0  0
   -1.2850   11.1580   -4.9070 C   0  0  0  0  0  0  0  0  0  0  0  0
   -1.2510    9.6270   -6.7680 C   0  0  0  0  0  0  0  0  0  0  0  0
    0.6990   12.1710   -3.0550 C   0  0  0  0  0  0  0  0  0  0  0  0
   -2.0920    8.2040   -7.6280 Br  0  0  0  0  0  0  0  0  0  0  0  0
   -1.8600   10.1400   -5.5630 C   0  0  0  0  0  0  0  0  0  0  0  0
    0.4060   10.8660   -2.8690 O   0  0  0  0  0  0  0  0  0  0  0  0
    0.9730   12.8210   -1.9960 N   0  0  0  0  0  0  0  0  0  0  0  0
    1.3180   14.2320   -2.1100 C   0  0  0  0  0  0  0  0  0  0  0  0
    0.2410   15.1540   -2.3200 O   0  0  0  0  0  0  0  0  0  0  0  0
   -1.0220   14.6830   -2.4800 C   0  0  0  0  0  0  0  0  0  0  0  0
   -1.5370   14.3080   -3.5160 O   0  0  0  0  0  0  0  0  0  0  0  0
   -1.7480   14.7090   -1.1890 C   0  0  0  0  0  0  0  0  0  0  0  0
   -1.1710   14.4010    0.0510 C   0  0  0  0  0  0  0  0  0  0  0  0
   -3.1020   15.0780   -1.2730 C   0  0  0  0  0  0  0  0  0  0  0  0
    0.1650   14.0210    0.2360 N   0  0  0  0  0  0  0  0  0  0  0  0
   -3.8410   15.1350   -0.1120 C   0  0  0  0  0  0  0  0  0  0  0  0
   -2.0230   14.4930    1.1440 C   0  0  0  0  0  0  0  0  0  0  0  0
   -3.3270   14.8500    1.0960 N   0  0  0  0  0  0  0  0  0  0  0  0
  1  2  2  0
  2  3  1  0
  2  4  1  0
  3  5  1  0
  3  6  1  0
  4  7  2  0
  5  8  1  0
  7  9  1  0
  6 10  2  0
  7 10  1  0
  8 11  1  0
  8 12  2  3
 12 13  1  0
 13 14  1  0
 14 15  1  0
 15 16  2  0
 15 17  1  0
 17 18  2  0
 17 19  1  0
 18 20  1  0
 19 21  2  0
 18 22  1  0
 21 23  1  0
 22 23  2  0
M  END
