diamond-x0742_0_A-diamond-x0465_0_A
     RDKit          3D

 30 33  0  0  0  0  0  0  0  0999 V2000
   -5.5270   12.2600   -0.5180 C   0  0  0  0  0  0  0  0  0  0  0  0
   -6.5840   11.5720    0.3040 C   0  0  0  0  0  0  0  0  0  0  0  0
   -4.9830   11.6590   -1.4480 O   0  0  0  0  0  0  0  0  0  0  0  0
   -5.1950   13.7160   -0.1490 C   0  0  2  0  0  0  0  0  0  0  0  0
   -4.8930   13.8140    1.3580 C   0  0  0  0  0  0  0  0  0  0  0  0
   -6.4260   14.5900   -0.4900 C   0  0  0  0  0  0  0  0  0  0  0  0
   -4.0520   14.2410   -1.0550 C   0  0  1  0  0  0  0  0  0  0  0  0
   -4.4580   15.6800   -1.3360 C   0  0  0  0  0  0  0  0  0  0  0  0
   -2.7020   14.1900   -0.4020 C   0  0  0  0  0  0  0  0  0  0  0  0
   -3.8070   14.8450    1.6810 C   0  0  0  0  0  0  0  0  0  0  0  0
   -5.9670   15.6370   -1.4920 C   0  0  0  0  0  0  0  0  0  0  0  0
   -1.5740   13.8460   -1.1150 C   0  0  0  0  0  0  0  0  0  0  0  0
   -2.5770   14.4830    0.9410 C   0  0  0  0  0  0  0  0  0  0  0  0
   -1.4210   14.4580    1.6230 N   0  0  0  0  0  0  0  0  0  0  0  0
   -0.3600   13.7980   -0.4670 C   0  0  0  0  0  0  0  0  0  0  0  0
    0.8510   13.3990   -1.2370 C   0  0  0  0  0  0  0  0  0  0  0  0
   -0.3430   14.1170    0.9000 C   0  0  0  0  0  0  0  0  0  0  0  0
    0.7590   13.5640   -2.6620 N   0  0  0  0  0  0  0  0  0  0  0  0
    0.6600   12.4860   -3.3590 C   0  0  0  0  0  0  0  0  0  0  0  0
    0.5790   12.5990   -4.8650 C   0  0  1  0  0  0  0  0  0  0  0  0
    0.6270   11.2330   -2.8470 O   0  0  0  0  0  0  0  0  0  0  0  0
    1.8380   13.3180   -5.2860 C   0  0  0  0  0  0  0  0  0  0  0  0
    0.6030   11.3380   -5.5280 O   0  0  0  0  0  0  0  0  0  0  0  0
   -0.6100   10.7290   -5.6680 C   0  0  0  0  0  0  0  0  0  0  0  0
   -0.7100    9.6950   -6.5990 C   0  0  0  0  0  0  0  0  0  0  0  0
   -1.7240   11.1010   -4.9220 C   0  0  0  0  0  0  0  0  0  0  0  0
    0.3610    9.3310   -7.3230 F   0  0  0  0  0  0  0  0  0  0  0  0
   -1.9070    9.0260   -6.7940 C   0  0  0  0  0  0  0  0  0  0  0  0
   -2.9320   10.4320   -5.1160 C   0  0  0  0  0  0  0  0  0  0  0  0
   -3.0270    9.3970   -6.0480 C   0  0  0  0  0  0  0  0  0  0  0  0
  1  2  1  0
  1  3  2  0
  4  1  1  6
  4  5  1  0
  4  6  1  0
  4  7  1  0
  7  8  1  1
  7  9  1  0
  5 10  1  0
  6 11  1  0
  8 11  1  0
  9 12  1  0
  9 13  2  0
 10 13  1  0
 13 14  1  0
 12 15  2  0
 15 16  1  0
 14 17  2  0
 15 17  1  0
 16 18  1  0
 18 19  2  3
 19 20  1  0
 19 21  1  0
 20 22  1  6
 20 23  1  0
 23 24  1  0
 24 25  2  0
 24 26  1  0
 25 27  1  0
 25 28  1  0
 26 29  2  0
 28 30  2  0
 29 30  1  0
M  END
