diamond-x0685_1_A-mac-x0358
     RDKit          3D

 19 20  0  0  0  0  0  0  0  0999 V2000
   -0.9700   11.4510   -5.2870 N   0  0  0  0  0  0  0  0  0  0  0  0
   -1.5220   10.7500   -4.1320 C   0  0  0  0  0  0  0  0  0  0  0  0
   -1.4430   11.6930   -2.9470 C   0  0  0  0  0  0  0  0  0  0  0  0
   -0.7460   10.7060   -6.5640 C   0  0  0  0  0  0  0  0  0  0  0  0
   -1.3490   12.8080   -5.3160 C   0  0  0  0  0  0  0  0  0  0  0  0
   -0.6890    9.1780   -6.4120 C   0  0  0  0  0  0  0  0  0  0  0  0
   -1.6590   11.1130   -7.7140 C   0  0  0  0  0  0  0  0  0  0  0  0
   -0.4520   13.8370   -5.0080 C   0  0  0  0  0  0  0  0  0  0  0  0
   -2.6660   13.1690   -5.6450 C   0  0  0  0  0  0  0  0  0  0  0  0
   -0.0810    8.5520   -7.6640 C   0  0  0  0  0  0  0  0  0  0  0  0
   -1.1230   10.5070   -9.0060 C   0  0  0  0  0  0  0  0  0  0  0  0
   -3.0720   14.5110   -5.6590 C   0  0  0  0  0  0  0  0  0  0  0  0
   -0.8520   15.1770   -5.0190 C   0  0  0  0  0  0  0  0  0  0  0  0
    0.2270   11.7980   -2.3460 S   0  0  0  0  0  0  0  0  0  0  0  0
   -0.8370    8.9960   -8.9230 C   0  0  0  0  0  0  0  0  0  0  0  0
   -2.1610   15.5140   -5.3430 C   0  0  0  0  0  0  0  0  0  0  0  0
    1.2340   12.4590   -3.4120 O   0  0  0  0  0  0  0  0  0  0  0  0
    0.6250   10.2840   -2.0850 O   0  0  0  0  0  0  0  0  0  0  0  0
    0.1510   12.6680   -1.0070 O   0  0  0  0  0  0  0  0  0  0  0  0
  1  2  1  0
  2  3  1  0
  1  4  1  0
  1  5  1  0
  4  6  1  0
  4  7  1  0
  5  8  2  0
  5  9  1  0
  6 10  1  0
  7 11  1  0
  9 12  2  0
  8 13  1  0
  3 14  1  0
 10 15  1  0
 11 15  1  0
 12 16  1  0
 13 16  2  0
 14 17  1  0
 14 18  1  0
 14 19  1  0
M  END
