diamond-x0371_0_A-diamond-x0724_0_A
     RDKit          3D

 19 21  0  0  0  0  0  0  0  0999 V2000
   -8.2780   14.4270    3.1510 N   0  0  0  0  0  0  0  0  0  0  0  0
   -8.8110   15.5840    3.7010 C   0  0  0  0  0  0  0  0  0  0  0  0
   -9.3290   16.4520    2.9930 O   0  0  0  0  0  0  0  0  0  0  0  0
   -8.4390   14.2220    1.7060 C   0  0  0  0  0  0  0  0  0  0  0  0
   -8.1600   13.2320    3.9910 C   0  0  0  0  0  0  0  0  0  0  0  0
   -7.1880   14.4980    0.9240 C   0  0  0  0  0  0  0  0  0  0  0  0
   -8.7300   15.6690    5.1410 C   0  0  0  0  0  0  0  0  0  0  0  0
   -5.9290   14.4640    1.4810 N   0  0  0  0  0  0  0  0  0  0  0  0
   -7.1140   14.7970   -0.3630 N   0  0  0  0  0  0  0  0  0  0  0  0
   -8.0850   14.6390    5.7670 O   0  0  0  0  0  0  0  0  0  0  0  0
   -9.1620   16.5670    6.0910 C   0  0  0  0  0  0  0  0  0  0  0  0
   -5.7750   14.9490   -0.6340 C   0  0  0  0  0  0  0  0  0  0  0  0
   -5.0150   14.7440    0.5070 C   0  0  0  0  0  0  0  0  0  0  0  0
   -8.7580   16.0510    7.3510 C   0  0  0  0  0  0  0  0  0  0  0  0
   -8.1030   14.8740    7.0930 C   0  0  0  0  0  0  0  0  0  0  0  0
   -3.6280   14.8260    0.5400 C   0  0  0  0  0  0  0  0  0  0  0  0
   -5.1300   15.2610   -1.8370 C   0  0  0  0  0  0  0  0  0  0  0  0
   -3.0010   15.1260   -0.6700 C   0  0  0  0  0  0  0  0  0  0  0  0
   -3.7350   15.3450   -1.8400 C   0  0  0  0  0  0  0  0  0  0  0  0
  1  2  1  0
  2  3  2  0
  1  4  1  0
  1  5  1  0
  4  6  1  0
  2  7  1  0
  6  8  1  0
  6  9  2  0
  7 10  1  0
  7 11  2  0
  9 12  1  0
  8 13  1  0
 12 13  2  0
 11 14  1  0
 10 15  1  0
 14 15  2  0
 13 16  1  0
 12 17  1  0
 16 18  2  0
 17 19  2  0
 18 19  1  0
M  END
