diamond-x0662_0_A-mac-x0565
     RDKit          3D

 32 35  0  0  0  0  0  0  0  0999 V2000
    5.3090    9.6220  -15.1330 C   0  0  0  0  0  0  0  0  0  0  0  0
    4.2810   10.0510  -14.2180 N   0  0  0  0  0  0  0  0  0  0  0  0
    3.6030   11.2400  -14.2220 C   0  0  0  0  0  0  0  0  0  0  0  0
    3.9110    9.2240  -13.2280 N   0  0  0  0  0  0  0  0  0  0  0  0
    2.7330   11.1800  -13.1580 C   0  0  0  0  0  0  0  0  0  0  0  0
    2.9590    9.9040  -12.5620 C   0  0  0  0  0  0  0  0  0  0  0  0
    2.3060    9.3110  -11.3740 C   0  0  0  0  0  0  0  0  0  0  0  0
    2.4370    8.1180  -11.1330 O   0  0  0  0  0  0  0  0  0  0  0  0
    1.5910   10.2050  -10.6070 N   0  0  0  0  0  0  0  0  0  0  0  0
    0.7630    9.9050   -9.5130 C   0  0  0  0  0  0  0  0  0  0  0  0
   -0.0970    8.8070   -9.4870 C   0  0  0  0  0  0  0  0  0  0  0  0
    0.8010   10.7460   -8.4010 C   0  0  0  0  0  0  0  0  0  0  0  0
   -0.9010    8.5570   -8.3730 C   0  0  0  0  0  0  0  0  0  0  0  0
   -0.0030   10.4990   -7.2950 C   0  0  0  0  0  0  0  0  0  0  0  0
    0.0200   11.4100   -6.1250 C   0  0  0  0  0  0  0  0  0  0  0  0
   -0.8560    9.4020   -7.2740 C   0  0  0  0  0  0  0  0  0  0  0  0
   -1.0170   11.5570   -5.4000 N   0  0  0  0  0  0  0  0  0  0  0  0
    1.1380   11.9540   -6.0400 O   0  0  0  0  0  0  0  0  0  0  0  0
   -1.0350   12.4950   -4.3100 C   0  0  0  0  0  0  0  0  0  0  0  0
   -1.4980   13.8200   -4.9300 C   0  0  0  0  0  0  0  0  0  0  0  0
   -1.7240   14.8540   -3.9500 N   0  0  0  0  0  0  0  0  0  0  0  0
   -2.9080   14.9050   -3.2310 C   0  0  0  0  0  0  0  0  0  0  0  0
   -0.7130   14.9730   -2.9220 C   0  0  0  0  0  0  0  0  0  0  0  0
   -2.6500   14.8750   -1.8720 C   0  0  0  0  0  0  0  0  0  0  0  0
   -4.2120   14.9730   -3.6750 C   0  0  0  0  0  0  0  0  0  0  0  0
   -1.3060   14.8070   -1.6070 O   0  0  0  0  0  0  0  0  0  0  0  0
   -3.6390   14.9110   -0.9130 C   0  0  0  0  0  0  0  0  0  0  0  0
   -5.2520   15.0100   -2.7310 C   0  0  0  0  0  0  0  0  0  0  0  0
   -4.9610   14.9780   -1.3520 C   0  0  0  0  0  0  0  0  0  0  0  0
   -6.0830   15.0110   -0.3890 C   0  0  0  0  0  0  0  0  0  0  0  0
   -5.6600   15.1460    0.8820 O   0  0  0  0  0  0  0  0  0  0  0  0
   -7.2710   14.9260   -0.6470 O   0  0  0  0  0  0  0  0  0  0  0  0
  1  2  1  0
  2  3  1  0
  2  4  1  0
  3  5  2  0
  4  6  2  0
  5  6  1  0
  6  7  1  0
  7  8  2  0
  7  9  1  0
  9 10  1  0
 10 11  2  0
 10 12  1  0
 11 13  1  0
 12 14  2  0
 14 15  1  0
 13 16  2  0
 14 16  1  0
 15 17  2  3
 15 18  1  0
 17 19  1  0
 19 20  1  0
 20 21  1  0
 21 22  1  0
 21 23  1  0
 22 24  2  0
 22 25  1  0
 23 26  1  0
 24 26  1  0
 24 27  1  0
 25 28  2  0
 27 29  2  0
 28 29  1  0
 29 30  1  0
 30 31  1  0
 30 32  2  0
M  CHG  1  18  -1
M  END
