diamond-x0685_0_A-mac-x0204
     RDKit          3D

 21 22  0  0  0  0  0  0  0  0999 V2000
   -6.4000   15.0300    2.5920 N   0  0  0  0  0  0  0  0  0  0  0  0
   -7.7870   14.6360    2.4640 C   0  0  0  0  0  0  0  0  0  0  0  0
   -8.0240   13.2880    3.1140 C   0  0  0  0  0  0  0  0  0  0  0  0
   -5.5920   15.0910    1.4710 C   0  0  0  0  0  0  0  0  0  0  0  0
   -4.2250   15.2890    1.5860 C   0  0  0  0  0  0  0  0  0  0  0  0
   -6.2220   14.9620    0.2930 N   0  0  0  0  0  0  0  0  0  0  0  0
   -3.4610   15.3650    0.4440 C   0  0  0  0  0  0  0  0  0  0  0  0
   -5.4580   15.0470   -0.8110 C   0  0  0  0  0  0  0  0  0  0  0  0
   -4.0910   15.2480   -0.7750 C   0  0  0  0  0  0  0  0  0  0  0  0
   -3.3550   15.3190   -1.9610 C   0  0  0  0  0  0  0  0  0  0  0  0
   -2.7480   15.1410   -2.9430 C   0  0  0  0  0  0  0  0  0  0  0  0
   -2.1840   14.4950   -4.0370 C   0  0  0  0  0  0  0  0  0  0  0  0
   -0.9530   13.8460   -3.9430 C   0  0  0  0  0  0  0  0  0  0  0  0
   -2.8970   14.4820   -5.2150 C   0  0  0  0  0  0  0  0  0  0  0  0
   -0.0890   13.8430   -2.7480 C   0  0  0  0  0  0  0  0  0  0  0  0
   -4.0780   15.1280   -5.4040 O   0  0  0  0  0  0  0  0  0  0  0  0
   -2.3960   13.7700   -6.2610 C   0  0  0  0  0  0  0  0  0  0  0  0
   -0.5300   13.1590   -5.0510 C   0  0  0  0  0  0  0  0  0  0  0  0
    0.2410   12.5980   -2.3520 O   0  0  0  0  0  0  0  0  0  0  0  0
    0.3070   14.8560   -2.1990 O   0  0  0  0  0  0  0  0  0  0  0  0
   -1.2320   13.0990   -6.1970 N   0  0  0  0  0  0  0  0  0  0  0  0
  1  2  1  0
  2  3  1  0
  1  4  1  0
  4  5  2  0
  4  6  1  0
  5  7  1  0
  6  8  2  0
  7  9  2  0
  8  9  1  0
  9 10  1  0
 10 11  3  0
 11 12  1  0
 12 13  2  0
 12 14  1  0
 13 15  1  0
 14 16  1  0
 14 17  2  0
 13 18  1  0
 15 19  1  0
 15 20  2  0
 17 21  1  0
 18 21  2  0
M  END
