diamond-x0967_0_A-diamond-x0574_0_A
     RDKit          3D

 17 19  0  0  0  0  0  0  0  0999 V2000
   -4.5640   15.7950    2.2670 C   0  0  0  0  0  0  0  0  0  0  0  0
   -4.0920   16.2220    1.0180 O   0  0  0  0  0  0  0  0  0  0  0  0
   -4.0440   14.9520    0.4660 C   0  0  1  0  0  0  0  0  0  0  0  0
   -5.4880   14.7320    0.1960 C   0  0  0  0  0  0  0  0  0  0  0  0
   -3.0760   14.6240   -0.6840 C   0  0  1  0  0  0  0  0  0  0  0  0
   -5.9540   14.8950   -1.0760 C   0  0  0  0  0  0  0  0  0  0  0  0
   -6.3690   14.3690    1.2240 C   0  0  0  0  0  0  0  0  0  0  0  0
   -3.7530   14.5960   -2.0820 C   0  0  0  0  0  0  0  0  0  0  0  0
   -1.2290   14.8660   -0.7100 S   0  0  0  0  0  0  0  0  0  0  0  0
   -2.7720   13.3170   -0.0370 C   0  0  0  0  0  0  0  0  0  0  0  0
   -7.2520   14.7240   -1.3880 N   0  0  0  0  0  0  0  0  0  0  0  0
   -7.7060   14.1900    0.9300 C   0  0  0  0  0  0  0  0  0  0  0  0
   -5.0700   15.2480   -2.0800 N   0  0  0  0  0  0  0  0  0  0  0  0
   -2.2670   13.7660    1.3030 N   0  0  0  0  0  0  0  0  0  0  0  0
   -1.0590   14.4600    1.0160 C   0  0  1  0  0  0  0  0  0  0  0  0
    0.0030   13.5290    1.2510 N   0  0  0  0  0  0  0  0  0  0  0  0
   -8.0970   14.3790   -0.3820 C   0  0  0  0  0  0  0  0  0  0  0  0
  1  2  1  0
  3  2  1  6
  3  4  1  0
  3  5  1  0
  4  6  2  0
  4  7  1  0
  5  8  1  6
  5  9  1  0
  5 10  1  0
  6 11  1  0
  7 12  2  0
  6 13  1  0
  8 13  1  0
 10 14  1  0
  9 15  1  0
 14 15  1  0
 15 16  1  6
 11 17  2  0
 12 17  1  0
M  END
