diamond-x0290_0_A-mac-x0546
     RDKit          3D

 29 31  0  0  0  0  0  0  0  0999 V2000
   -7.7790   13.8090    0.9100 N   0  0  0  0  0  0  0  0  0  0  0  0
   -8.6410   14.9690    0.7250 C   0  0  0  0  0  0  0  0  0  0  0  0
   -6.5770   14.1320    1.7070 C   0  0  0  0  0  0  0  0  0  0  0  0
   -5.3720   14.4720    0.8270 C   0  0  0  0  0  0  0  0  0  0  0  0
   -5.4680   14.4960   -0.4040 O   0  0  0  0  0  0  0  0  0  0  0  0
   -4.1700   14.7420    1.3920 N   0  0  0  0  0  0  0  0  0  0  0  0
   -2.8680   14.6480    0.9180 C   0  0  0  0  0  0  0  0  0  0  0  0
   -1.9450   14.5340    1.9010 N   0  0  0  0  0  0  0  0  0  0  0  0
   -2.5050   14.6600   -0.4140 C   0  0  0  0  0  0  0  0  0  0  0  0
   -0.6490   14.4290    1.5610 C   0  0  0  0  0  0  0  0  0  0  0  0
   -1.1460   14.5500   -0.7240 C   0  0  0  0  0  0  0  0  0  0  0  0
   -0.6090   14.5400   -2.0960 C   0  0  0  0  0  0  0  0  0  0  0  0
   -0.2160   14.4360    0.2810 C   0  0  0  0  0  0  0  0  0  0  0  0
    0.7920   13.9330   -1.9740 C   0  0  0  0  0  0  0  0  0  0  0  0
    0.6160   12.5040   -1.7500 N   0  0  0  0  0  0  0  0  0  0  0  0
    0.3310   11.8420   -2.7990 C   0  0  0  0  0  0  0  0  0  0  0  0
    0.1470   12.3590   -4.2320 C   0  0  0  0  0  0  0  0  0  0  0  0
    0.1660   10.5040   -2.6220 O   0  0  0  0  0  0  0  0  0  0  0  0
    0.4490   13.8290   -4.4400 C   0  0  0  0  0  0  0  0  0  0  0  0
   -0.5670   14.9300   -4.2980 C   0  0  2  0  0  0  0  0  0  0  0  0
    1.6130   14.4070   -4.7470 C   0  0  0  0  0  0  0  0  0  0  0  0
   -1.8520   15.0130   -5.0350 C   0  0  0  0  0  0  0  0  0  0  0  0
    0.3320   16.0810   -4.6910 C   0  0  0  0  0  0  0  0  0  0  0  0
    1.5600   15.7760   -4.8910 N   0  0  0  0  0  0  0  0  0  0  0  0
   -2.3150   16.2220   -5.4180 C   0  0  0  0  0  0  0  0  0  0  0  0
   -0.2520   17.4270   -4.7900 C   0  0  0  0  0  0  0  0  0  0  0  0
   -3.4890   16.4550   -6.0750 O   0  0  0  0  0  0  0  0  0  0  0  0
   -1.5500   17.4430   -5.1460 C   0  0  0  0  0  0  0  0  0  0  0  0
   -4.4080   15.3660   -6.1250 C   0  0  0  0  0  0  0  0  0  0  0  0
  1  2  1  0
  1  3  1  0
  3  4  1  0
  4  5  2  0
  4  6  1  0
  6  7  1  0
  7  8  2  0
  7  9  1  0
  8 10  1  0
  9 11  2  0
 11 12  1  0
 10 13  2  0
 11 13  1  0
 12 14  1  0
 14 15  1  0
 15 16  2  3
 16 17  1  0
 16 18  1  0
 17 19  1  0
 19 20  1  0
 19 21  2  0
 20 22  1  6
 20 23  1  0
 21 24  1  0
 23 24  2  0
 22 25  2  0
 23 26  1  0
 25 27  1  0
 25 28  1  0
 26 28  2  0
 27 29  1  0
M  END
