diamond-x1015_0_A-mac-x0510
     RDKit          3D

 27 30  0  0  0  0  0  0  0  0999 V2000
   -1.2750   14.1220   -4.8760 C   0  0  0  0  0  0  0  0  0  0  0  0
   -0.0030   13.5040   -4.3010 C   0  0  2  0  0  0  0  0  0  0  0  0
   -0.1470   12.0910   -4.0550 N   0  0  0  0  0  0  0  0  0  0  0  0
    0.1490   13.9620   -2.8930 C   0  0  0  0  0  0  0  0  0  0  0  0
   -0.1240   15.1140   -2.4450 N   0  0  0  0  0  0  0  0  0  0  0  0
    0.2940   11.7530   -2.7520 C   0  0  0  0  0  0  0  0  0  0  0  0
    0.6360   12.9400   -2.1420 N   0  0  0  0  0  0  0  0  0  0  0  0
   -0.5510   11.2520   -5.1080 C   0  0  0  0  0  0  0  0  0  0  0  0
    0.3840   10.6540   -2.2040 O   0  0  0  0  0  0  0  0  0  0  0  0
    0.0430   15.5420   -1.0920 C   0  0  0  0  0  0  0  0  0  0  0  0
    0.0130   11.4410   -6.3810 C   0  0  0  0  0  0  0  0  0  0  0  0
   -1.5000   10.2400   -4.9460 C   0  0  0  0  0  0  0  0  0  0  0  0
   -0.3620   10.6440   -7.4580 C   0  0  0  0  0  0  0  0  0  0  0  0
   -1.8800    9.4370   -6.0250 C   0  0  0  0  0  0  0  0  0  0  0  0
   -0.9810   15.2280   -0.1440 N   0  0  0  0  0  0  0  0  0  0  0  0
   -1.3090    9.6460   -7.2760 C   0  0  0  0  0  0  0  0  0  0  0  0
   -2.3430   15.2330   -0.2450 C   0  0  0  0  0  0  0  0  0  0  0  0
   -0.6620   14.8550    1.1250 C   0  0  0  0  0  0  0  0  0  0  0  0
   -1.7760    8.6630   -8.6030 Cl  0  0  0  0  0  0  0  0  0  0  0  0
   -2.7510   14.8660    1.0030 C   0  0  0  0  0  0  0  0  0  0  0  0
   -3.2810   15.5200   -1.2840 C   0  0  0  0  0  0  0  0  0  0  0  0
   -1.7280   14.6300    1.8480 N   0  0  0  0  0  0  0  0  0  0  0  0
   -2.9950   15.8820   -2.4200 O   0  0  0  0  0  0  0  0  0  0  0  0
   -4.0640   14.7650    1.3150 N   0  0  0  0  0  0  0  0  0  0  0  0
   -4.5900   15.3360   -0.8850 N   0  0  0  0  0  0  0  0  0  0  0  0
   -5.0220   15.0120    0.3810 C   0  0  0  0  0  0  0  0  0  0  0  0
   -6.2150   14.9480    0.6410 O   0  0  0  0  0  0  0  0  0  0  0  0
  2  1  1  1
  2  3  1  0
  2  4  1  0
  4  5  2  3
  3  6  1  0
  4  7  1  0
  6  7  1  0
  3  8  1  0
  6  9  2  0
  5 10  1  0
  8 11  2  0
  8 12  1  0
 11 13  1  0
 12 14  2  0
 10 15  1  0
 13 16  2  0
 14 16  1  0
 15 17  1  0
 15 18  1  0
 16 19  1  0
 17 20  2  0
 17 21  1  0
 18 22  2  0
 20 22  1  0
 21 23  2  0
 20 24  1  0
 21 25  1  0
 24 26  1  0
 25 26  1  0
 26 27  2  0
M  END
