diamond-x0962_3_A-mac-x0411
     RDKit          3D

 20 21  0  0  0  0  0  0  0  0999 V2000
    1.2810   11.9600   -6.7230 N   0  0  0  0  0  0  0  0  0  0  0  0
    0.9660   10.9910   -7.2740 C   0  0  0  0  0  0  0  0  0  0  0  0
    0.6500    9.8070   -7.9780 C   0  0  0  0  0  0  0  0  0  0  0  0
    0.0340    8.6590   -7.5190 N   0  0  0  0  0  0  0  0  0  0  0  0
    0.9030    9.5570   -9.3010 C   0  0  0  0  0  0  0  0  0  0  0  0
   -0.4650    8.3470   -6.1880 C   0  0  0  0  0  0  0  0  0  0  0  0
   -0.0490    7.7950   -8.5690 C   0  0  0  0  0  0  0  0  0  0  0  0
    0.4660    8.3100   -9.6570 N   0  0  0  0  0  0  0  0  0  0  0  0
   -1.5730    9.2620   -5.7560 C   0  0  0  0  0  0  0  0  0  0  0  0
   -1.4200   10.2600   -4.7670 C   0  0  0  0  0  0  0  0  0  0  0  0
   -2.8200    9.1020   -6.3780 C   0  0  0  0  0  0  0  0  0  0  0  0
   -0.1860   10.4040   -4.1600 O   0  0  0  0  0  0  0  0  0  0  0  0
   -2.5270   11.0680   -4.4290 C   0  0  0  0  0  0  0  0  0  0  0  0
   -3.9010    9.9040   -6.0380 C   0  0  0  0  0  0  0  0  0  0  0  0
   -2.4470   12.3100   -3.2280 Cl  0  0  0  0  0  0  0  0  0  0  0  0
    0.2800   11.7750   -4.0440 C   0  0  0  0  0  0  0  0  0  0  0  0
   -3.7560   10.8850   -5.0650 C   0  0  0  0  0  0  0  0  0  0  0  0
    0.5960   12.0710   -2.5820 C   0  0  0  0  0  0  0  0  0  0  0  0
    1.6890   12.8510   -2.4010 O   0  0  0  0  0  0  0  0  0  0  0  0
   -0.0690   11.6550   -1.6410 O   0  0  0  0  0  0  0  0  0  0  0  0
  1  2  3  0
  2  3  1  0
  3  4  1  0
  3  5  2  0
  4  6  1  0
  4  7  1  0
  5  8  1  0
  7  8  2  0
  6  9  1  0
  9 10  2  0
  9 11  1  0
 10 12  1  0
 10 13  1  0
 11 14  2  0
 13 15  1  0
 12 16  1  0
 13 17  2  0
 14 17  1  0
 16 18  1  0
 18 19  1  0
 18 20  2  0
M  END
