diamond-x0926_0_A-mac-x0212
     RDKit          3D

 13 13  0  0  0  0  0  0  0  0999 V2000
   -6.5390   14.9270   -0.5430 N   0  0  0  0  0  0  0  0  0  0  0  0
   -7.4070   14.3020    0.5720 S   0  0  1  0  0  0  0  0  0  0  0  0
   -6.5940   12.8290    1.1430 C   0  0  0  0  0  0  0  0  0  0  0  0
   -5.1060   14.7220   -0.3930 C   0  0  2  0  0  0  0  0  0  0  0  0
   -7.9060   15.0070    1.7390 O   0  0  0  0  0  0  0  0  0  0  0  0
   -4.5410   15.5240    0.7850 C   0  0  0  0  0  0  0  0  0  0  0  0
   -4.3470   15.1390   -1.5780 N   0  0  0  0  0  0  0  0  0  0  0  0
   -2.9250   14.8210   -1.4460 N   0  0  0  0  0  0  0  0  0  0  0  0
   -3.1100   15.1550    0.9390 C   0  0  0  0  0  0  0  0  0  0  0  0
   -2.1830   14.5040   -2.6270 C   0  0  0  0  0  0  0  0  0  0  0  0
   -2.3970   14.8300   -0.1470 C   0  0  0  0  0  0  0  0  0  0  0  0
   -1.0660   13.9750   -2.6000 O   0  0  0  0  0  0  0  0  0  0  0  0
   -2.7360   14.8060   -3.8260 O   0  0  0  0  0  0  0  0  0  0  0  0
  1  2  2  0
  2  3  1  1
  4  1  1  6
  2  5  2  0
  4  6  1  0
  4  7  1  0
  7  8  1  0
  6  9  1  0
  8 10  1  0
  8 11  1  0
  9 11  2  0
 10 12  2  0
 10 13  1  0
M  END
