diamond-x0910_1_A-diamond-x0837_0_A
     RDKit          3D

  7  7  0  0  0  0  0  0  0  0999 V2000
   -7.7250   14.3860    0.9740 N   0  0  0  0  0  0  0  0  0  0  0  0
   -6.5590   14.6510    0.3960 C   0  0  0  0  0  0  0  0  0  0  0  0
   -6.2640   14.5370   -0.8960 N   0  0  0  0  0  0  0  0  0  0  0  0
   -5.5420   15.0800    1.1840 N   0  0  0  0  0  0  0  0  0  0  0  0
   -4.9740   14.9110   -0.8980 N   0  0  0  0  0  0  0  0  0  0  0  0
   -4.5530   15.2430    0.3420 C   0  0  0  0  0  0  0  0  0  0  0  0
   -3.8130   14.9590   -2.5010 I   0  0  0  0  0  0  0  0  0  0  0  0
  1  2  1  0
  2  3  2  0
  2  4  1  0
  3  5  1  0
  4  6  2  0
  5  6  1  0
  5  7  1  0
M  END
