diamond-x0662_0_A-diamond-x1012_0_A
     RDKit          3D

 31 33  0  0  0  0  0  0  0  0999 V2000
    5.3210    9.5570  -15.0140 C   0  0  0  0  0  0  0  0  0  0  0  0
    4.2740   10.0300  -14.1410 N   0  0  0  0  0  0  0  0  0  0  0  0
    3.6250   11.2300  -14.2100 C   0  0  0  0  0  0  0  0  0  0  0  0
    3.8550    9.2490  -13.1360 N   0  0  0  0  0  0  0  0  0  0  0  0
    2.7210   11.2320  -13.1740 C   0  0  0  0  0  0  0  0  0  0  0  0
    2.8950    9.9760  -12.5240 C   0  0  0  0  0  0  0  0  0  0  0  0
    2.1800    9.4520  -11.3320 C   0  0  0  0  0  0  0  0  0  0  0  0
    2.3410    8.2830  -10.9970 O   0  0  0  0  0  0  0  0  0  0  0  0
    1.3810   10.3870  -10.6940 N   0  0  0  0  0  0  0  0  0  0  0  0
    0.5930   10.2100   -9.5350 C   0  0  0  0  0  0  0  0  0  0  0  0
   -0.4900    9.3300   -9.6660 C   0  0  0  0  0  0  0  0  0  0  0  0
    0.8110   10.8270   -8.2990 C   0  0  0  0  0  0  0  0  0  0  0  0
   -1.3390    9.0680   -8.5860 C   0  0  0  0  0  0  0  0  0  0  0  0
   -0.0350   10.5640   -7.2170 C   0  0  0  0  0  0  0  0  0  0  0  0
    0.2280   11.1970   -5.8880 C   0  0  0  0  0  0  0  0  0  0  0  0
   -1.1120    9.6850   -7.3600 C   0  0  0  0  0  0  0  0  0  0  0  0
   -0.1000   10.6020   -4.8040 N   0  0  0  0  0  0  0  0  0  0  0  0
    0.8350   12.2700   -6.0550 O   0  0  0  0  0  0  0  0  0  0  0  0
    0.2630   11.0780   -3.4880 C   0  0  0  0  0  0  0  0  0  0  0  0
   -0.4680   12.1620   -3.0290 O   0  0  0  0  0  0  0  0  0  0  0  0
    0.1980   13.0340   -2.2870 C   0  0  0  0  0  0  0  0  0  0  0  0
    0.8280   12.8050   -1.2610 O   0  0  0  0  0  0  0  0  0  0  0  0
   -0.0160   14.3980   -2.8740 C   0  0  0  0  0  0  0  0  0  0  0  0
   -1.4500   14.5330   -3.4230 C   0  0  0  0  0  0  0  0  0  0  0  0
    1.0850   14.6970   -3.9070 C   0  0  0  0  0  0  0  0  0  0  0  0
   -1.4670   14.8930   -4.8860 C   0  0  0  0  0  0  0  0  0  0  0  0
    0.7610   15.9400   -4.7320 C   0  0  0  0  0  0  0  0  0  0  0  0
   -0.6610   16.0760   -5.0620 N   0  0  0  0  0  0  0  0  0  0  0  0
   -1.3190   17.2600   -4.9220 C   0  0  0  0  0  0  0  0  0  0  0  0
   -0.5500   18.3610   -4.7730 N   0  0  0  0  0  0  0  0  0  0  0  0
   -2.5320   17.3840   -4.9090 O   0  0  0  0  0  0  0  0  0  0  0  0
  1  2  1  0
  2  3  1  0
  2  4  1  0
  3  5  2  0
  4  6  2  0
  5  6  1  0
  6  7  1  0
  7  8  2  0
  7  9  1  0
  9 10  1  0
 10 11  2  0
 10 12  1  0
 11 13  1  0
 12 14  2  0
 14 15  1  0
 13 16  2  0
 14 16  1  0
 15 17  2  3
 15 18  1  0
 17 19  1  0
 19 20  1  0
 20 21  1  0
 21 22  2  0
 21 23  1  0
 23 24  1  0
 23 25  1  0
 24 26  1  0
 25 27  1  0
 26 28  1  0
 27 28  1  0
 28 29  1  0
 29 30  1  0
 29 31  2  0
M  CHG  1  18  -1
M  END
