diamond-x0128_0_A-diamond-x0689_0_A
     RDKit          3D

 23 25  0  0  0  0  0  0  0  0999 V2000
   -6.5550   14.6830    2.4190 N   0  0  0  0  0  0  0  0  0  0  0  0
   -7.7030   15.1440    3.0660 C   0  0  0  0  0  0  0  0  0  0  0  0
   -8.7770   15.3190    2.5030 O   0  0  0  0  0  0  0  0  0  0  0  0
   -6.2020   14.8470    1.0490 C   0  0  0  0  0  0  0  0  0  0  0  0
   -7.4810   15.4020    4.4240 N   0  0  0  0  0  0  0  0  0  0  0  0
   -7.1860   14.8230    0.0560 C   0  0  0  0  0  0  0  0  0  0  0  0
   -4.8380   15.0510    0.6480 C   0  0  0  0  0  0  0  0  0  0  0  0
   -6.8540   15.0020   -1.2850 C   0  0  0  0  0  0  0  0  0  0  0  0
   -4.5460   15.2310   -0.7050 C   0  0  0  0  0  0  0  0  0  0  0  0
   -8.3480   16.0870    5.3230 C   0  0  0  0  0  0  0  0  0  0  0  0
   -3.7520   15.0810    1.5420 N   0  0  0  0  0  0  0  0  0  0  0  0
   -5.5400   15.2070   -1.6630 C   0  0  0  0  0  0  0  0  0  0  0  0
   -9.0420   17.2160    4.8820 C   0  0  0  0  0  0  0  0  0  0  0  0
   -8.5620   15.7100    6.6490 C   0  0  0  0  0  0  0  0  0  0  0  0
   -2.4550   14.7820    1.1000 C   0  0  0  0  0  0  0  0  0  0  0  0
   -9.8920   17.9580    5.6350 N   0  0  0  0  0  0  0  0  0  0  0  0
   -9.4320   16.4540    7.4510 C   0  0  0  0  0  0  0  0  0  0  0  0
   -2.2780   14.8130   -0.2350 N   0  0  0  0  0  0  0  0  0  0  0  0
   -1.4780   14.4940    1.9470 N   0  0  0  0  0  0  0  0  0  0  0  0
  -10.0660   17.5570    6.9080 C   0  0  0  0  0  0  0  0  0  0  0  0
   -1.0530   14.5490   -0.7130 C   0  0  0  0  0  0  0  0  0  0  0  0
   -0.2740   14.2370    1.4340 C   0  0  0  0  0  0  0  0  0  0  0  0
    0.0090   14.2500    0.0900 C   0  0  0  0  0  0  0  0  0  0  0  0
  1  2  1  0
  2  3  2  0
  1  4  1  0
  2  5  1  0
  4  6  2  0
  4  7  1  0
  6  8  1  0
  7  9  2  0
  5 10  1  0
  7 11  1  0
  8 12  2  0
  9 12  1  0
 10 13  2  0
 10 14  1  0
 11 15  1  0
 13 16  1  0
 14 17  2  0
 15 18  2  0
 15 19  1  0
 16 20  2  0
 17 20  1  0
 18 21  1  0
 19 22  2  0
 21 23  2  0
 22 23  1  0
M  END
