diamond-x0805_0_A-mac-x0402
     RDKit          3D

 28 31  0  0  0  0  0  0  0  0999 V2000
   -2.6230   14.6960    1.1030 C   0  0  0  0  0  0  0  0  0  0  0  0
   -2.7890   15.1170   -0.2770 N   0  0  0  0  0  0  0  0  0  0  0  0
   -2.5040   14.3080   -1.2820 C   0  0  0  0  0  0  0  0  0  0  0  0
   -4.0510   15.1380   -0.6480 C   0  0  0  0  0  0  0  0  0  0  0  0
   -3.4190   13.2910   -1.6250 C   0  0  0  0  0  0  0  0  0  0  0  0
   -1.3950   14.4620   -2.0000 C   0  0  0  0  0  0  0  0  0  0  0  0
   -5.0450   15.0180    0.2550 C   0  0  0  0  0  0  0  0  0  0  0  0
   -4.3580   15.2380   -2.0340 C   0  0  0  0  0  0  0  0  0  0  0  0
   -3.1720   15.3740   -3.3120 Cl  0  0  0  0  0  0  0  0  0  0  0  0
   -3.1940   12.4530   -2.7020 C   0  0  0  0  0  0  0  0  0  0  0  0
   -1.1520   13.6580   -3.0600 C   0  0  0  0  0  0  0  0  0  0  0  0
   -6.3580   14.9850   -0.1210 C   0  0  0  0  0  0  0  0  0  0  0  0
   -4.9200   14.8750    1.9480 S   0  0  0  0  0  0  0  0  0  0  0  0
   -5.6670   15.2130   -2.4340 C   0  0  0  0  0  0  0  0  0  0  0  0
   -2.0400   12.6410   -3.4360 C   0  0  0  0  0  0  0  0  0  0  0  0
    0.1030   13.9500   -3.7440 C   0  0  1  0  0  0  0  0  0  0  0  0
   -6.6020   14.7820    2.0560 C   0  0  0  0  0  0  0  0  0  0  0  0
   -7.2520   14.8430    0.9190 N   0  0  0  0  0  0  0  0  0  0  0  0
   -6.6700   15.0900   -1.4900 C   0  0  0  0  0  0  0  0  0  0  0  0
   -7.1940   14.6630    3.2480 N   0  0  0  0  0  0  0  0  0  0  0  0
    0.7600   12.7270   -4.2610 C   0  0  2  0  0  0  0  0  0  0  0  0
    0.1800   15.1570   -4.6280 C   0  0  0  0  0  0  0  0  0  0  0  0
    0.8650   11.8810   -3.0220 C   0  0  0  0  0  0  0  0  0  0  0  0
    2.1050   13.1680   -4.8060 C   0  0  0  0  0  0  0  0  0  0  0  0
    1.6100   15.5930   -4.6050 C   0  0  0  0  0  0  0  0  0  0  0  0
    0.2290   10.6980   -3.1140 O   0  0  0  0  0  0  0  0  0  0  0  0
    1.4290   12.2050   -1.9980 O   0  0  0  0  0  0  0  0  0  0  0  0
    2.4910   14.4740   -4.3230 O   0  0  0  0  0  0  0  0  0  0  0  0
  1  2  1  0
  2  3  1  0
  2  4  1  0
  3  5  2  0
  3  6  1  0
  4  7  1  0
  4  8  2  0
  8  9  1  0
  5 10  1  0
  6 11  2  0
  7 12  2  0
  7 13  1  0
  8 14  1  0
 10 15  2  0
 11 15  1  0
 16 11  1  6
 13 17  1  0
 12 18  1  0
 17 18  2  0
 12 19  1  0
 14 19  2  0
 17 20  1  0
 16 21  1  0
 16 22  1  0
 21 23  1  1
 21 24  1  0
 22 25  1  0
 23 26  1  0
 23 27  2  0
 24 28  1  0
 25 28  1  0
M  END
