diamond-x0711_0_A-mac-x0415
     RDKit          3D

 27 29  0  0  0  0  0  0  0  0999 V2000
   -1.4140   14.7730   -1.5790 N   0  0  0  0  0  0  0  0  0  0  0  0
   -1.0300   14.1150   -3.1080 S   0  0  0  0  0  0  0  0  0  0  0  0
   -2.2270   13.2480   -3.8000 C   0  0  0  0  0  0  0  0  0  0  0  0
   -2.7310   14.8000   -1.2310 C   0  0  0  0  0  0  0  0  0  0  0  0
   -1.3870   15.4580   -3.5780 O   0  0  0  0  0  0  0  0  0  0  0  0
   -0.3500   12.9230   -2.4800 N   0  0  0  0  0  0  0  0  0  0  0  0
   -3.8180   15.1620   -2.0060 C   0  0  0  0  0  0  0  0  0  0  0  0
   -2.9760   14.4120    0.0550 C   0  0  0  0  0  0  0  0  0  0  0  0
    0.4890   12.3150   -3.2160 C   0  0  0  0  0  0  0  0  0  0  0  0
   -5.1110   15.1340   -1.5060 C   0  0  0  0  0  0  0  0  0  0  0  0
   -4.2460   14.3780    0.5590 C   0  0  0  0  0  0  0  0  0  0  0  0
    1.0490   11.2230   -2.7080 O   0  0  0  0  0  0  0  0  0  0  0  0
    0.7880   12.8280   -4.5620 C   0  0  0  0  0  0  0  0  0  0  0  0
   -5.3110   14.7280   -0.1920 C   0  0  0  0  0  0  0  0  0  0  0  0
   -6.6300   14.6660    0.4060 C   0  0  0  0  0  0  0  0  0  0  0  0
    0.7490   14.3230   -4.6140 C   0  0  0  0  0  0  0  0  0  0  0  0
   -6.7520   14.5980    1.8090 N   0  0  0  0  0  0  0  0  0  0  0  0
   -7.6430   14.6720   -0.3100 O   0  0  0  0  0  0  0  0  0  0  0  0
    1.8530   15.2130   -4.3390 C   0  0  0  0  0  0  0  0  0  0  0  0
   -0.3370   15.0570   -4.9100 C   0  0  0  0  0  0  0  0  0  0  0  0
    1.4070   16.4420   -4.4570 N   0  0  0  0  0  0  0  0  0  0  0  0
    0.0700   16.4460   -4.7140 C   0  0  1  0  0  0  0  0  0  0  0  0
   -1.7250   14.7120   -5.2810 C   0  0  0  0  0  0  0  0  0  0  0  0
   -0.7620   17.4400   -5.3400 C   0  0  0  0  0  0  0  0  0  0  0  0
   -2.4970   15.7050   -5.6740 C   0  0  0  0  0  0  0  0  0  0  0  0
   -4.2860   15.2500   -6.1440 Br  0  0  0  0  0  0  0  0  0  0  0  0
   -1.9970   17.0970   -5.7840 C   0  0  0  0  0  0  0  0  0  0  0  0
  1  2  1  0
  2  3  1  0
  1  4  1  0
  2  5  2  0
  2  6  1  0
  4  7  2  0
  4  8  1  0
  6  9  2  3
  7 10  1  0
  8 11  2  0
  9 12  1  0
  9 13  1  0
 10 14  2  0
 11 14  1  0
 14 15  1  0
 13 16  1  0
 15 17  1  0
 15 18  2  0
 16 19  1  0
 16 20  2  0
 19 21  2  0
 20 22  1  0
 21 22  1  0
 20 23  1  0
 22 24  1  6
 23 25  2  0
 25 26  1  0
 24 27  2  0
 25 27  1  0
M  END
