diamond-x0849_0_A-mac-x0182
     RDKit          3D

 25 28  0  0  0  0  0  0  0  0999 V2000
   -3.7520   15.1710   -2.9630 Br  0  0  0  0  0  0  0  0  0  0  0  0
   -3.4580   15.0900   -1.0870 C   0  0  0  0  0  0  0  0  0  0  0  0
   -2.2330   14.7180   -0.4350 C   0  0  0  0  0  0  0  0  0  0  0  0
   -4.6020   15.4430   -0.3700 C   0  0  0  0  0  0  0  0  0  0  0  0
   -2.3420   14.7580    0.9820 C   0  0  0  0  0  0  0  0  0  0  0  0
   -4.5280   15.4220    0.9870 C   0  0  0  0  0  0  0  0  0  0  0  0
   -0.9190   14.3130   -0.9450 C   0  0  0  0  0  0  0  0  0  0  0  0
   -0.4230   14.1400   -2.3960 C   0  0  0  0  0  0  0  0  0  0  0  0
   -3.4300   15.0900    1.6370 N   0  0  0  0  0  0  0  0  0  0  0  0
   -1.3750   14.4670    1.8110 N   0  0  0  0  0  0  0  0  0  0  0  0
    0.0800   14.0240   -0.0050 C   0  0  0  0  0  0  0  0  0  0  0  0
   -1.4400   13.7290   -3.5040 C   0  0  0  0  0  0  0  0  0  0  0  0
   -0.2020   14.1180    1.3380 C   0  0  0  0  0  0  0  0  0  0  0  0
   -1.6780   12.2680   -3.6850 N   0  0  0  0  0  0  0  0  0  0  0  0
   -0.5880   11.2790   -4.1150 S   0  0  2  0  0  0  0  0  0  0  0  0
    0.2010   10.4550   -3.2370 O   0  0  0  0  0  0  0  0  0  0  0  0
    0.4910   12.2260   -4.9910 N   0  0  0  0  0  0  0  0  0  0  0  0
   -1.0690   10.3100   -5.4910 C   0  0  0  0  0  0  0  0  0  0  0  0
    0.7710   11.6480   -6.2060 C   0  0  0  0  0  0  0  0  0  0  0  0
   -0.2340   10.6180   -6.5600 C   0  0  0  0  0  0  0  0  0  0  0  0
   -2.0810    9.3730   -5.5850 C   0  0  0  0  0  0  0  0  0  0  0  0
    1.7220   11.9060   -6.9010 O   0  0  0  0  0  0  0  0  0  0  0  0
   -2.2440    8.7290   -6.8220 C   0  0  0  0  0  0  0  0  0  0  0  0
   -0.3860    9.9860   -7.7890 C   0  0  0  0  0  0  0  0  0  0  0  0
   -1.4040    9.0330   -7.9120 C   0  0  0  0  0  0  0  0  0  0  0  0
  1  2  1  0
  2  3  2  0
  2  4  1  0
  3  5  1  0
  4  6  2  0
  3  7  1  0
  7  8  1  0
  5  9  2  0
  6  9  1  0
  5 10  1  0
  7 11  2  0
  8 12  1  0
 10 13  2  0
 11 13  1  0
 12 14  1  0
 14 15  2  0
 15 16  2  0
 15 17  1  6
 15 18  1  0
 17 19  1  0
 18 20  2  0
 19 20  1  0
 18 21  1  0
 19 22  2  0
 21 23  2  0
 20 24  1  0
 23 25  1  0
 24 25  2  0
M  END
