diamond-x0962_0_A-mac-x0472
     RDKit          3D

 15 16  0  0  0  0  0  0  0  0999 V2000
   -2.2670   14.1610   -3.3570 N   0  0  0  0  0  0  0  0  0  0  0  0
   -3.3130   14.4150   -1.9770 S   0  0  0  0  0  0  0  0  0  0  0  0
   -1.5410   14.7200   -1.1890 O   0  0  0  0  0  0  0  0  0  0  0  0
   -3.9910   15.5710   -3.4650 O   0  0  0  0  0  0  0  0  0  0  0  0
   -4.1870   14.8080   -0.4120 C   0  0  0  0  0  0  0  0  0  0  0  0
   -3.9690   12.6890   -2.0890 C   0  0  0  0  0  0  0  0  0  0  0  0
   -3.6870   15.2380    0.7690 N   0  0  0  0  0  0  0  0  0  0  0  0
   -5.5240   14.7350   -0.0870 C   0  0  0  0  0  0  0  0  0  0  0  0
   -3.2640   11.6470   -2.5340 C   0  0  0  0  0  0  0  0  0  0  0  0
   -5.2550   12.4670   -1.6940 C   0  0  0  0  0  0  0  0  0  0  0  0
   -4.6250   15.3990    1.6990 C   0  0  0  0  0  0  0  0  0  0  0  0
   -5.7720   15.0800    1.1780 N   0  0  0  0  0  0  0  0  0  0  0  0
   -3.8080   10.3540   -2.6070 C   0  0  0  0  0  0  0  0  0  0  0  0
   -5.8660   11.2080   -1.7360 C   0  0  0  0  0  0  0  0  0  0  0  0
   -5.0940   10.2280   -2.1970 C   0  0  0  0  0  0  0  0  0  0  0  0
  1  2  1  0
  2  3  1  0
  2  4  1  0
  2  5  1  0
  2  6  1  0
  5  7  1  0
  5  8  2  0
  6  9  2  0
  6 10  1  0
  7 11  1  0
  8 12  1  0
 11 12  2  0
  9 13  1  0
 10 14  2  0
 13 15  2  0
 14 15  1  0
M  END
