diamond-x0591_0_A-mac-x0224
     RDKit          3D

 18 19  0  0  0  0  0  0  0  0999 V2000
   -5.2100   14.8160    0.7340 N   0  0  0  0  0  0  0  0  0  0  0  0
   -5.8920   14.5700    1.9740 C   0  0  0  0  0  0  0  0  0  0  0  0
   -5.9080   14.9010   -0.4360 C   0  0  0  0  0  0  0  0  0  0  0  0
   -3.5060   14.6000    0.5610 S   0  0  0  0  0  0  0  0  0  0  0  0
   -7.1210   15.0070   -0.5780 O   0  0  0  0  0  0  0  0  0  0  0  0
   -4.9870   14.8320   -1.5700 C   0  0  0  0  0  0  0  0  0  0  0  0
   -3.6230   14.6550   -1.2320 C   0  0  0  0  0  0  0  0  0  0  0  0
   -2.6450   14.5620   -2.2840 C   0  0  0  0  0  0  0  0  0  0  0  0
   -5.4460   14.9310   -2.8540 C   0  0  0  0  0  0  0  0  0  0  0  0
   -1.1560   14.3670   -2.0390 C   0  0  0  0  0  0  0  0  0  0  0  0
   -3.1600   14.6700   -3.6090 C   0  0  0  0  0  0  0  0  0  0  0  0
   -4.5260   14.8510   -3.8740 C   0  0  0  0  0  0  0  0  0  0  0  0
   -2.1630   14.5870   -5.0640 S   0  0  0  0  0  0  0  0  0  0  0  0
   -0.5600   14.1700   -0.9960 O   0  0  0  0  0  0  0  0  0  0  0  0
   -0.4590   14.4300   -3.2010 O   0  0  0  0  0  0  0  0  0  0  0  0
   -0.9340   15.6820   -4.7850 N   0  0  0  0  0  0  0  0  0  0  0  0
   -1.6110   13.2590   -5.1410 O   0  0  0  0  0  0  0  0  0  0  0  0
   -2.9550   15.1520   -6.1360 O   0  0  0  0  0  0  0  0  0  0  0  0
  1  2  1  0
  1  3  1  0
  1  4  1  0
  3  5  2  0
  3  6  1  0
  4  7  1  0
  6  7  2  0
  7  8  1  0
  6  9  1  0
  8 10  1  0
  8 11  2  0
  9 12  2  0
 11 12  1  0
 11 13  1  0
 10 14  2  0
 10 15  1  0
 13 16  1  0
 13 17  2  0
 13 18  2  0
M  END
