diamond-x0689_0_A-diamond-x0962_2_B
     RDKit          3D

 17 18  0  0  0  0  0  0  0  0999 V2000
   -3.7040   14.4050    1.7030 N   0  0  0  0  0  0  0  0  0  0  0  0
   -4.9960   14.6610    1.0930 C   0  0  0  0  0  0  0  0  0  0  0  0
   -6.0900   13.6790    1.5810 C   0  0  0  0  0  0  0  0  0  0  0  0
   -2.5090   14.4940    1.0190 C   0  0  0  0  0  0  0  0  0  0  0  0
   -2.4510   14.5300   -0.3220 N   0  0  0  0  0  0  0  0  0  0  0  0
   -1.4350   14.5290    1.8040 N   0  0  0  0  0  0  0  0  0  0  0  0
   -7.5590   14.1360    1.4340 C   0  0  0  0  0  0  0  0  0  0  0  0
   -1.2240   14.6050   -0.8780 C   0  0  0  0  0  0  0  0  0  0  0  0
   -0.2460   14.6080    1.2100 C   0  0  0  0  0  0  0  0  0  0  0  0
   -0.0620   14.6490   -0.1470 C   0  0  0  0  0  0  0  0  0  0  0  0
   -8.1050   14.8800    2.6130 C   0  0  0  0  0  0  0  0  0  0  0  0
   -9.1530   15.7660    2.7100 C   0  0  0  0  0  0  0  0  0  0  0  0
   -7.5320   14.7240    3.8430 N   0  0  0  0  0  0  0  0  0  0  0  0
  -10.0370   16.2230    1.7110 C   0  0  0  0  0  0  0  0  0  0  0  0
   -9.1900   16.1540    4.0240 N   0  0  0  0  0  0  0  0  0  0  0  0
   -8.1880   15.4960    4.6690 C   0  0  0  0  0  0  0  0  0  0  0  0
  -10.7860   16.5720    0.9020 N   0  0  0  0  0  0  0  0  0  0  0  0
  1  2  1  0
  2  3  1  0
  1  4  1  0
  4  5  2  0
  4  6  1  0
  3  7  1  0
  5  8  1  0
  6  9  2  0
  8 10  2  0
  9 10  1  0
  7 11  1  0
 11 12  2  0
 11 13  1  0
 12 14  1  0
 12 15  1  0
 13 16  2  0
 15 16  1  0
 14 17  3  0
M  END
