diamond-x0895_0_A-diamond-x0837_0_A
     RDKit          3D

  8  8  0  0  0  0  0  0  0  0999 V2000
   -1.6340   14.6040    1.8310 O   0  0  0  0  0  0  0  0  0  0  0  0
   -2.6580   14.7520    1.1700 C   0  0  0  0  0  0  0  0  0  0  0  0
   -4.0640   14.8870    1.7080 C   0  0  0  0  0  0  0  0  0  0  0  0
   -2.7010   14.8190   -0.1910 N   0  0  0  0  0  0  0  0  0  0  0  0
   -4.8970   15.0010    0.4760 C   0  0  0  0  0  0  0  0  0  0  0  0
   -3.9250   15.1330   -0.6840 C   0  0  0  0  0  0  0  0  0  0  0  0
   -4.2270   15.4430   -1.8090 O   0  0  0  0  0  0  0  0  0  0  0  0
   -6.1260   14.9820    0.3750 O   0  0  0  0  0  0  0  0  0  0  0  0
  1  2  2  0
  2  3  1  0
  2  4  1  0
  3  5  1  0
  4  6  1  0
  5  6  1  0
  6  7  2  0
  5  8  2  0
M  END
