diamond-x0900_1_A-mac-x0277
     RDKit          3D

 20 21  0  0  0  0  0  0  0  0999 V2000
   -0.7900    9.9780   -9.6960 O   0  0  0  0  0  0  0  0  0  0  0  0
   -0.9440    9.6350   -8.5380 C   0  0  0  0  0  0  0  0  0  0  0  0
    0.0300    9.5670   -7.5650 N   0  0  0  0  0  0  0  0  0  0  0  0
   -2.2230    9.2030   -7.8860 C   0  0  0  0  0  0  0  0  0  0  0  0
   -1.6980    8.1690   -6.8960 C   0  0  0  0  0  0  0  0  0  0  0  0
   -0.3610    8.7440   -6.4410 C   0  0  2  0  0  0  0  0  0  0  0  0
   -0.5010    9.4810   -5.0910 C   0  0  0  0  0  0  0  0  0  0  0  0
   -0.1730   10.9760   -4.9910 C   0  0  0  0  0  0  0  0  0  0  0  0
    0.0350   11.2590   -3.5730 O   0  0  0  0  0  0  0  0  0  0  0  0
    0.8240   12.3120   -3.1790 C   0  0  0  0  0  0  0  0  0  0  0  0
    1.0480   12.6100   -2.0090 O   0  0  0  0  0  0  0  0  0  0  0  0
    1.3930   13.0720   -4.3480 C   0  0  0  0  0  0  0  0  0  0  0  0
    0.6950   14.3920   -4.5500 C   0  0  0  0  0  0  0  0  0  0  0  0
   -0.6740   14.4430   -4.8440 C   0  0  0  0  0  0  0  0  0  0  0  0
    1.4100   15.5850   -4.4480 C   0  0  0  0  0  0  0  0  0  0  0  0
   -1.3140   15.6710   -5.0380 C   0  0  0  0  0  0  0  0  0  0  0  0
    0.7760   16.8130   -4.6430 C   0  0  0  0  0  0  0  0  0  0  0  0
   -3.0040   15.6550   -5.3970 Cl  0  0  0  0  0  0  0  0  0  0  0  0
   -0.5870   16.8580   -4.9420 C   0  0  0  0  0  0  0  0  0  0  0  0
   -1.3160   18.4010   -5.1840 Cl  0  0  0  0  0  0  0  0  0  0  0  0
  1  2  2  0
  2  3  1  0
  2  4  1  0
  4  5  1  0
  3  6  1  0
  5  6  1  0
  6  7  1  1
  7  8  1  0
  8  9  1  0
  9 10  1  0
 10 11  2  0
 10 12  1  0
 12 13  1  0
 13 14  2  0
 13 15  1  0
 14 16  1  0
 15 17  2  0
 16 18  1  0
 16 19  2  0
 17 19  1  0
 19 20  1  0
M  END
