diamond-x0587_0_A-diamond-x0910_1_A
     RDKit          3D

 13 13  0  0  0  0  0  0  0  0999 V2000
   -7.8250   14.8250    4.0910 N   0  0  0  0  0  0  0  0  0  0  0  0
   -8.2890   14.8760    2.8110 C   0  0  0  0  0  0  0  0  0  0  0  0
   -9.4830   15.0240    2.5700 O   0  0  0  0  0  0  0  0  0  0  0  0
   -7.3030   14.7690    1.7290 C   0  0  0  0  0  0  0  0  0  0  0  0
   -7.6960   14.5610    0.4260 C   0  0  0  0  0  0  0  0  0  0  0  0
   -5.9410   14.8770    1.9160 C   0  0  0  0  0  0  0  0  0  0  0  0
   -6.8280   14.4720   -0.6080 N   0  0  0  0  0  0  0  0  0  0  0  0
   -5.0270   14.7970    0.9250 N   0  0  0  0  0  0  0  0  0  0  0  0
   -5.5050   14.6000   -0.3270 C   0  0  0  0  0  0  0  0  0  0  0  0
   -4.5000   14.5250   -1.4790 C   0  0  0  0  0  0  0  0  0  0  0  0
   -3.2440   14.9280   -1.1180 F   0  0  0  0  0  0  0  0  0  0  0  0
   -4.3510   13.2710   -1.9990 F   0  0  0  0  0  0  0  0  0  0  0  0
   -4.8420   15.3120   -2.5420 F   0  0  0  0  0  0  0  0  0  0  0  0
  1  2  1  0
  2  3  2  0
  2  4  1  0
  4  5  2  0
  4  6  1  0
  5  7  1  0
  6  8  2  0
  7  9  2  0
  8  9  1  0
  9 10  1  0
 10 11  1  0
 10 12  1  0
 10 13  1  0
M  END
