diamond-x0421_0_A-mac-x0333
     RDKit          3D

 11 12  0  0  0  0  0  0  0  0999 V2000
   -3.7690   15.1290   -2.8560 N   0  0  0  0  0  0  0  0  0  0  0  0
   -2.8940   14.9070   -1.8310 C   0  0  0  0  0  0  0  0  0  0  0  0
   -1.6960   14.7410   -2.0270 O   0  0  0  0  0  0  0  0  0  0  0  0
   -3.5210   14.8910   -0.5110 C   0  0  0  0  0  0  0  0  0  0  0  0
   -2.8780   15.0140    0.7070 C   0  0  0  0  0  0  0  0  0  0  0  0
   -4.8870   14.7400   -0.3190 N   0  0  0  0  0  0  0  0  0  0  0  0
   -3.8650   14.9330    1.6420 N   0  0  0  0  0  0  0  0  0  0  0  0
   -5.0470   14.7680    0.9860 C   0  0  0  0  0  0  0  0  0  0  0  0
   -6.4050   14.6310    1.7170 C   0  0  0  0  0  0  0  0  0  0  0  0
   -7.6870   14.6610    0.9280 C   0  0  0  0  0  0  0  0  0  0  0  0
   -7.2010   13.3700    1.5240 C   0  0  0  0  0  0  0  0  0  0  0  0
  1  2  1  0
  2  3  2  0
  2  4  1  0
  4  5  2  0
  4  6  1  0
  5  7  1  0
  6  8  2  0
  7  8  1  0
  8  9  1  0
  9 10  1  0
  9 11  1  0
 10 11  1  0
M  END
