diamond-x0969_0_A-mac-x0193
     RDKit          3D

 27 29  0  0  0  0  0  0  0  0999 V2000
   -6.7370   14.7960    2.5740 N   0  0  0  0  0  0  0  0  0  0  0  0
   -6.5510   14.7580    1.2310 C   0  0  0  0  0  0  0  0  0  0  0  0
   -7.4960   14.6470    0.3260 N   0  0  0  0  0  0  0  0  0  0  0  0
   -5.3200   14.8430    0.5990 N   0  0  0  0  0  0  0  0  0  0  0  0
   -6.9110   14.6570   -0.9200 N   0  0  0  0  0  0  0  0  0  0  0  0
   -5.6170   14.7710   -0.7560 C   0  0  0  0  0  0  0  0  0  0  0  0
   -4.0210   14.9700    1.0890 C   0  0  0  0  0  0  0  0  0  0  0  0
   -4.5340   14.8200   -1.6770 C   0  0  0  0  0  0  0  0  0  0  0  0
   -3.0000   15.0060    0.2160 C   0  0  0  0  0  0  0  0  0  0  0  0
   -3.2690   14.9200   -1.2260 C   0  0  0  0  0  0  0  0  0  0  0  0
   -2.0860   14.9470   -2.1710 C   0  0  0  0  0  0  0  0  0  0  0  0
   -1.4590   13.6270   -2.5470 C   0  0  0  0  0  0  0  0  0  0  0  0
    0.0120   13.5560   -2.1180 C   0  0  0  0  0  0  0  0  0  0  0  0
    0.2000   12.1510   -1.8870 N   0  0  0  0  0  0  0  0  0  0  0  0
    0.4380   11.4430   -2.9290 C   0  0  0  0  0  0  0  0  0  0  0  0
    0.5340   10.1120   -2.7860 O   0  0  0  0  0  0  0  0  0  0  0  0
    0.6030   12.0510   -4.3550 C   0  0  0  0  0  0  0  0  0  0  0  0
    0.1140   11.1880   -5.4440 N   0  0  0  0  0  0  0  0  0  0  0  0
    0.6740   11.2300   -6.7160 C   0  0  0  0  0  0  0  0  0  0  0  0
    1.7470   11.7700   -6.9280 O   0  0  0  0  0  0  0  0  0  0  0  0
   -0.1390   10.5980   -7.6450 N   0  0  0  0  0  0  0  0  0  0  0  0
    0.2540    9.7530   -8.7970 C   0  0  0  0  0  0  0  0  0  0  0  0
    1.3080    8.7040   -8.4460 C   0  0  0  0  0  0  0  0  0  0  0  0
    0.6490   10.5610  -10.0360 C   0  0  0  0  0  0  0  0  0  0  0  0
    1.9870    8.1050   -9.6900 C   0  0  0  0  0  0  0  0  0  0  0  0
    0.7980    9.6790  -11.2800 C   0  0  0  0  0  0  0  0  0  0  0  0
    1.1200    8.2250  -10.9380 C   0  0  0  0  0  0  0  0  0  0  0  0
  1  2  1  0
  2  3  2  0
  2  4  1  0
  3  5  1  0
  4  6  1  0
  5  6  2  0
  4  7  1  0
  6  8  1  0
  7  9  2  0
  8 10  2  0
  9 10  1  0
 10 11  1  0
 11 12  1  0
 12 13  1  0
 13 14  1  0
 14 15  2  3
 15 16  1  0
 15 17  1  0
 17 18  1  0
 18 19  1  0
 19 20  2  0
 19 21  1  0
 21 22  1  0
 22 23  1  0
 22 24  1  0
 23 25  1  0
 24 26  1  0
 25 27  1  0
 26 27  1  0
M  END
