diamond-x0895_1_A-mac-x0180
     RDKit          3D

 13 13  0  0  0  0  0  0  0  0999 V2000
   -1.3850   14.7690    1.3830 O   0  0  0  0  0  0  0  0  0  0  0  0
   -2.4370   14.6490    0.7560 C   0  0  0  0  0  0  0  0  0  0  0  0
   -2.6990   14.3380   -0.7420 C   0  0  2  0  0  0  0  0  0  0  0  0
   -3.6760   14.7640    1.3390 N   0  0  0  0  0  0  0  0  0  0  0  0
   -1.6760   14.8150   -1.8120 C   0  0  0  0  0  0  0  0  0  0  0  0
   -4.0470   14.9590   -0.8340 N   0  0  0  0  0  0  0  0  0  0  0  0
   -4.6370   14.8200    0.4020 C   0  0  0  0  0  0  0  0  0  0  0  0
   -5.8360   14.7280    0.8480 N   0  0  0  0  0  0  0  0  0  0  0  0
   -1.8810   14.9860   -3.0180 O   0  0  0  0  0  0  0  0  0  0  0  0
   -0.4240   15.0540   -1.3560 O   0  0  0  0  0  0  0  0  0  0  0  0
   -6.9390   14.7570    0.0380 C   0  0  0  0  0  0  0  0  0  0  0  0
   -8.2100   14.6560    0.8380 C   0  0  0  0  0  0  0  0  0  0  0  0
   -6.9500   14.8520   -1.1800 O   0  0  0  0  0  0  0  0  0  0  0  0
  1  2  2  0
  2  3  1  0
  2  4  1  0
  3  5  1  6
  3  6  1  0
  4  7  1  0
  6  7  1  0
  7  8  2  3
  5  9  2  0
  5 10  1  0
  8 11  1  0
 11 12  1  0
 11 13  2  0
M  END
