diamond-x0900_0_A-mac-x0284
     RDKit          3D

 16 17  0  0  0  0  0  0  0  0999 V2000
   -7.0400   14.5390   -0.2840 O   0  0  0  0  0  0  0  0  0  0  0  0
   -6.0190   14.4610    0.3870 C   0  0  0  0  0  0  0  0  0  0  0  0
   -5.5670   15.2540    1.3740 N   0  0  0  0  0  0  0  0  0  0  0  0
   -4.9100   13.4960    0.3560 C   0  0  0  0  0  0  0  0  0  0  0  0
   -3.7590   14.5220    0.3690 C   0  0  2  0  0  0  0  0  0  0  0  0
   -4.3800   15.7980    0.8530 C   0  0  0  0  0  0  0  0  0  0  0  0
   -3.2140   14.6790   -0.9790 C   0  0  0  0  0  0  0  0  0  0  0  0
   -1.8550   14.5550   -1.1420 C   0  0  0  0  0  0  0  0  0  0  0  0
   -4.0440   14.9340   -2.0780 C   0  0  0  0  0  0  0  0  0  0  0  0
   -1.2930   14.6620   -2.3950 C   0  0  0  0  0  0  0  0  0  0  0  0
   -3.4940   15.0480   -3.3440 C   0  0  0  0  0  0  0  0  0  0  0  0
    0.1600   14.5100   -2.5320 C   0  0  0  0  0  0  0  0  0  0  0  0
   -2.1200   14.9070   -3.5040 C   0  0  0  0  0  0  0  0  0  0  0  0
   -1.6570   15.0210   -4.7830 O   0  0  0  0  0  0  0  0  0  0  0  0
    0.9460   14.6580   -1.6120 O   0  0  0  0  0  0  0  0  0  0  0  0
    0.5560   14.1770   -3.7630 O   0  0  0  0  0  0  0  0  0  0  0  0
  1  2  2  0
  2  3  1  0
  2  4  1  0
  4  5  1  0
  3  6  1  0
  5  6  1  0
  5  7  1  6
  7  8  2  0
  7  9  1  0
  8 10  1  0
  9 11  2  0
 10 12  1  0
 10 13  2  0
 11 13  1  0
 13 14  1  0
 12 15  2  0
 12 16  1  0
M  END
