diamond-x0421_0_A-diamond-x0471_0_A
     RDKit          3D

 18 19  0  0  0  0  0  0  0  0999 V2000
   -3.7410   15.1570   -2.8580 N   0  0  0  0  0  0  0  0  0  0  0  0
   -2.8630   14.9390   -1.8380 C   0  0  0  0  0  0  0  0  0  0  0  0
   -1.6650   14.7790   -2.0330 O   0  0  0  0  0  0  0  0  0  0  0  0
   -3.4910   14.9110   -0.5180 C   0  0  0  0  0  0  0  0  0  0  0  0
   -2.8600   15.0570    0.7060 C   0  0  0  0  0  0  0  0  0  0  0  0
   -4.8520   14.7210   -0.3340 N   0  0  0  0  0  0  0  0  0  0  0  0
   -3.8530   14.9490    1.6340 N   0  0  0  0  0  0  0  0  0  0  0  0
   -5.0200   14.7460    0.9680 C   0  0  0  0  0  0  0  0  0  0  0  0
   -6.3850   14.5570    1.6650 C   0  0  1  0  0  0  0  0  0  0  0  0
   -7.6420   14.3260    0.8640 C   0  0  1  0  0  0  0  0  0  0  0  0
   -6.9710   13.1760    1.5610 C   0  0  0  0  0  0  0  0  0  0  0  0
   -8.9700   14.7650    1.3610 C   0  0  0  0  0  0  0  0  0  0  0  0
   -9.1440   14.2570    2.7000 N   0  0  0  0  0  0  0  0  0  0  0  0
   -9.0740   15.1080    3.7710 C   0  0  0  0  0  0  0  0  0  0  0  0
   -9.2880   16.3130    3.6630 O   0  0  0  0  0  0  0  0  0  0  0  0
   -8.7370   14.4630    5.1110 C   0  0  0  0  0  0  0  0  0  0  0  0
   -9.9140   13.6440    5.6380 C   0  0  0  0  0  0  0  0  0  0  0  0
   -8.2750   15.5070    6.1200 C   0  0  0  0  0  0  0  0  0  0  0  0
  1  2  1  0
  2  3  2  0
  2  4  1  0
  4  5  2  0
  4  6  1  0
  5  7  1  0
  6  8  2  0
  7  8  1  0
  9  8  1  6
  9 10  1  0
  9 11  1  0
 10 11  1  0
 10 12  1  1
 12 13  1  0
 13 14  1  0
 14 15  2  0
 14 16  1  0
 16 17  1  0
 16 18  1  0
M  END
