diamond-x0591_0_A-mac-x0394
     RDKit          3D

 25 26  0  0  0  0  0  0  0  0999 V2000
   -5.9830   14.6580    1.0100 N   0  0  0  0  0  0  0  0  0  0  0  0
   -6.8640   14.5220    2.1430 C   0  0  0  0  0  0  0  0  0  0  0  0
   -6.5100   14.9360   -0.2270 C   0  0  0  0  0  0  0  0  0  0  0  0
   -7.6590   15.3230   -0.3970 O   0  0  0  0  0  0  0  0  0  0  0  0
   -5.6350   14.7290   -1.4000 C   0  0  0  0  0  0  0  0  0  0  0  0
   -4.2590   14.4780   -1.3000 C   0  0  0  0  0  0  0  0  0  0  0  0
   -6.2540   14.7870   -2.6480 C   0  0  0  0  0  0  0  0  0  0  0  0
   -3.5160   14.2770   -2.4660 C   0  0  0  0  0  0  0  0  0  0  0  0
   -5.5210   14.5870   -3.8030 C   0  0  0  0  0  0  0  0  0  0  0  0
   -4.1660   14.3310   -3.7050 C   0  0  0  0  0  0  0  0  0  0  0  0
   -3.2690   14.0660   -5.1790 S   0  0  1  0  0  0  0  0  0  0  0  0
   -1.8230   13.3970   -4.6880 N   0  0  0  0  0  0  0  0  0  0  0  0
   -3.8100   12.9780   -5.9400 O   0  0  0  0  0  0  0  0  0  0  0  0
   -2.7310   15.3800   -5.6530 N   0  0  0  0  0  0  0  0  0  0  0  0
   -1.3680   15.5180   -5.2240 C   0  0  0  0  0  0  0  0  0  0  0  0
   -0.6190   14.3510   -5.0140 C   0  0  0  0  0  0  0  0  0  0  0  0
   -0.8190   16.7430   -5.0300 C   0  0  0  0  0  0  0  0  0  0  0  0
    0.7060   14.4040   -4.5930 C   0  0  0  0  0  0  0  0  0  0  0  0
    0.4850   16.7960   -4.6210 C   0  0  0  0  0  0  0  0  0  0  0  0
    1.1340   18.3190   -4.3920 Cl  0  0  0  0  0  0  0  0  0  0  0  0
    1.4990   13.1370   -4.3600 C   0  0  0  0  0  0  0  0  0  0  0  0
    1.2620   15.6600   -4.3960 C   0  0  0  0  0  0  0  0  0  0  0  0
    1.1810   12.4740   -3.0330 C   0  0  0  0  0  0  0  0  0  0  0  0
    0.5130   11.3080   -3.1720 O   0  0  0  0  0  0  0  0  0  0  0  0
    1.4470   12.8800   -1.9190 O   0  0  0  0  0  0  0  0  0  0  0  0
  1  2  1  0
  1  3  1  0
  3  4  2  0
  3  5  1  0
  5  6  2  0
  5  7  1  0
  6  8  1  0
  7  9  2  0
  8 10  2  0
  9 10  1  0
 10 11  1  0
 11 12  1  1
 11 13  2  0
 11 14  2  0
 14 15  1  0
 15 16  2  0
 15 17  1  0
 16 18  1  0
 17 19  2  0
 19 20  1  0
 18 21  1  0
 18 22  2  0
 19 22  1  0
 21 23  1  0
 23 24  1  0
 23 25  2  0
M  END
