diamond-x0128_0_A-mac-x0148
     RDKit          3D

 33 38  0  0  0  0  0  0  0  0999 V2000
   -6.9450   14.1770    2.5620 N   0  0  0  0  0  0  0  0  0  0  0  0
   -7.8630   15.0600    3.1130 C   0  0  0  0  0  0  0  0  0  0  0  0
   -8.8080   15.4880    2.4630 O   0  0  0  0  0  0  0  0  0  0  0  0
   -6.2970   14.5850    1.3330 C   0  0  2  0  0  0  0  0  0  0  0  0
   -7.5690   15.3780    4.4330 N   0  0  0  0  0  0  0  0  0  0  0  0
   -7.2430   14.8280    0.2160 C   0  0  0  0  0  0  0  0  0  0  0  0
   -5.2010   13.7330    0.7160 C   0  0  0  0  0  0  0  0  0  0  0  0
   -6.7140   15.4110   -0.8510 C   0  0  0  0  0  0  0  0  0  0  0  0
   -4.3480   14.7420   -0.0670 C   0  0  1  0  0  0  0  0  0  0  0  0
   -8.4010   16.0860    5.3370 C   0  0  0  0  0  0  0  0  0  0  0  0
   -5.2520   15.7750   -0.8000 C   0  0  0  0  0  0  0  0  0  0  0  0
   -9.0850   17.2220    4.8950 C   0  0  0  0  0  0  0  0  0  0  0  0
   -8.5960   15.7250    6.6680 C   0  0  0  0  0  0  0  0  0  0  0  0
   -3.4740   15.2850    0.9950 N   0  0  0  0  0  0  0  0  0  0  0  0
   -3.4660   14.1890   -1.1980 C   0  0  0  0  0  0  0  0  0  0  0  0
   -9.9080   17.9820    5.6560 N   0  0  0  0  0  0  0  0  0  0  0  0
   -9.4380   16.4900    7.4820 C   0  0  0  0  0  0  0  0  0  0  0  0
   -2.1640   15.0650    0.5330 C   0  0  0  0  0  0  0  0  0  0  0  0
   -2.1170   14.4900   -0.7060 C   0  0  0  0  0  0  0  0  0  0  0  0
  -10.0640   17.5980    6.9350 C   0  0  0  0  0  0  0  0  0  0  0  0
   -1.1040   15.4020    1.2210 N   0  0  0  0  0  0  0  0  0  0  0  0
   -0.9110   14.2810   -1.2850 C   0  0  0  0  0  0  0  0  0  0  0  0
   -0.8680   13.7070   -2.5740 N   0  0  0  0  0  0  0  0  0  0  0  0
    0.2070   14.6180   -0.6220 N   0  0  0  0  0  0  0  0  0  0  0  0
    0.0460   15.1560    0.6020 C   0  0  0  0  0  0  0  0  0  0  0  0
   -1.0600   14.5790   -3.7780 C   0  0  2  0  0  0  0  0  0  0  0  0
    0.1000   12.6150   -2.6410 C   0  0  0  0  0  0  0  0  0  0  0  0
   -2.5040   15.1180   -3.9580 C   0  0  0  0  0  0  0  0  0  0  0  0
   -0.8740   13.7890   -5.1000 C   0  0  2  0  0  0  0  0  0  0  0  0
   -0.2530   11.7190   -3.8060 C   0  0  0  0  0  0  0  0  0  0  0  0
   -2.2890   13.5610   -5.5970 C   0  0  0  0  0  0  0  0  0  0  0  0
   -2.9810   14.7570   -5.2670 O   0  0  0  0  0  0  0  0  0  0  0  0
   -0.0460   12.4990   -5.0880 C   0  0  0  0  0  0  0  0  0  0  0  0
  1  2  1  0
  2  3  2  0
  4  1  1  1
  2  5  1  0
  4  6  1  0
  4  7  1  0
  6  8  2  0
  9  7  1  1
  5 10  1  0
  8 11  1  0
  9 11  1  0
 10 12  2  0
 10 13  1  0
  9 14  1  0
  9 15  1  0
 12 16  1  0
 13 17  2  0
 14 18  1  0
 15 19  1  0
 18 19  2  0
 16 20  2  0
 17 20  1  0
 18 21  1  0
 19 22  1  0
 22 23  1  0
 22 24  2  0
 21 25  2  0
 24 25  1  0
 23 26  1  0
 23 27  1  0
 26 28  1  6
 26 29  1  0
 27 30  1  0
 29 31  1  1
 28 32  1  0
 31 32  1  0
 29 33  1  0
 30 33  1  0
M  END
