diamond-x0962_0_A-diamond-x0253_0_A
     RDKit          3D

 24 25  0  0  0  0  0  0  0  0999 V2000
   -2.8030   15.1950   -2.4230 N   0  0  0  0  0  0  0  0  0  0  0  0
   -3.0610   14.1240   -1.4800 C   0  0  1  0  0  0  0  0  0  0  0  0
   -1.7470   13.5150   -0.9870 C   0  0  0  0  0  0  0  0  0  0  0  0
   -3.8900   14.5990   -0.3550 C   0  0  0  0  0  0  0  0  0  0  0  0
   -0.6020   14.5230   -0.8970 C   0  0  0  0  0  0  0  0  0  0  0  0
   -3.3800   15.0090    0.8490 N   0  0  0  0  0  0  0  0  0  0  0  0
   -5.2520   14.7280   -0.2310 C   0  0  0  0  0  0  0  0  0  0  0  0
    0.7430   13.8330   -1.0150 C   0  0  0  0  0  0  0  0  0  0  0  0
   -4.4390   15.3570    1.6340 C   0  0  0  0  0  0  0  0  0  0  0  0
   -5.5800   15.1900    1.0030 N   0  0  0  0  0  0  0  0  0  0  0  0
    1.1090   13.6690   -2.4040 N   0  0  0  0  0  0  0  0  0  0  0  0
    0.8930   12.6000   -3.0670 C   0  0  0  0  0  0  0  0  0  0  0  0
    0.3210   11.4560   -2.6090 O   0  0  0  0  0  0  0  0  0  0  0  0
    1.3130   12.6260   -4.5100 C   0  0  0  0  0  0  0  0  0  0  0  0
    0.4430   11.8890   -5.4110 N   0  0  0  0  0  0  0  0  0  0  0  0
    1.0810   11.6260   -6.5950 C   0  0  0  0  0  0  0  0  0  0  0  0
    2.1620   12.1290   -6.7850 O   0  0  0  0  0  0  0  0  0  0  0  0
    0.4460   10.7070   -7.5780 C   0  0  0  0  0  0  0  0  0  0  0  0
   -0.5320    9.7920   -7.1770 C   0  0  0  0  0  0  0  0  0  0  0  0
    0.8310   10.7520   -8.9220 C   0  0  0  0  0  0  0  0  0  0  0  0
   -1.1230    8.9340   -8.1090 C   0  0  0  0  0  0  0  0  0  0  0  0
    0.2490    9.9020   -9.8570 C   0  0  0  0  0  0  0  0  0  0  0  0
   -2.1730    7.9600   -7.6690 C   0  0  0  0  0  0  0  0  0  0  0  0
   -0.7260    8.9950   -9.4500 C   0  0  0  0  0  0  0  0  0  0  0  0
  2  1  1  6
  2  3  1  0
  2  4  1  0
  3  5  1  0
  4  6  1  0
  4  7  2  0
  5  8  1  0
  6  9  1  0
  7 10  1  0
  9 10  2  0
  8 11  1  0
 11 12  2  3
 12 13  1  0
 12 14  1  0
 14 15  1  0
 15 16  1  0
 16 17  2  0
 16 18  1  0
 18 19  2  0
 18 20  1  0
 19 21  1  0
 20 22  2  0
 21 23  1  0
 21 24  2  0
 22 24  1  0
M  END
