diamond-x1015_0_A-mac-x0402
     RDKit          3D

 25 28  0  0  0  0  0  0  0  0999 V2000
   -1.8350   14.5860   -3.7150 C   0  0  0  0  0  0  0  0  0  0  0  0
   -0.4730   13.8090   -3.6410 C   0  0  2  0  0  0  0  0  0  0  0  0
   -0.5200   12.3300   -3.6810 N   0  0  0  0  0  0  0  0  0  0  0  0
   -2.8560   14.7000   -2.5330 C   0  0  0  0  0  0  0  0  0  0  0  0
    0.2150   14.0190   -2.3030 C   0  0  0  0  0  0  0  0  0  0  0  0
   -4.1810   14.9610   -2.9190 C   0  0  0  0  0  0  0  0  0  0  0  0
   -2.5860   14.5780   -1.1340 C   0  0  0  0  0  0  0  0  0  0  0  0
    0.3700   15.0810   -1.7250 O   0  0  0  0  0  0  0  0  0  0  0  0
    0.1280   11.7990   -2.5540 C   0  0  0  0  0  0  0  0  0  0  0  0
    0.6610   12.8270   -1.8470 N   0  0  0  0  0  0  0  0  0  0  0  0
   -0.7400   11.5620   -4.8680 C   0  0  0  0  0  0  0  0  0  0  0  0
   -3.6760   14.7230   -0.2060 C   0  0  0  0  0  0  0  0  0  0  0  0
   -5.2250   15.0980   -2.0010 C   0  0  0  0  0  0  0  0  0  0  0  0
    0.2420   10.6210   -2.2050 O   0  0  0  0  0  0  0  0  0  0  0  0
   -0.0840   11.8080   -6.0920 C   0  0  0  0  0  0  0  0  0  0  0  0
   -1.6520   10.4920   -4.8340 C   0  0  0  0  0  0  0  0  0  0  0  0
   -4.9770   14.9760   -0.6370 C   0  0  0  0  0  0  0  0  0  0  0  0
   -3.7140   14.6400    1.5200 S   0  0  0  0  0  0  0  0  0  0  0  0
   -0.3360   11.0170   -7.2240 C   0  0  0  0  0  0  0  0  0  0  0  0
   -1.9050    9.7030   -5.9570 C   0  0  0  0  0  0  0  0  0  0  0  0
   -5.4120   14.9330    1.5140 C   0  0  0  0  0  0  0  0  0  0  0  0
   -5.9380   15.0870    0.3400 N   0  0  0  0  0  0  0  0  0  0  0  0
   -6.1670   15.0090    2.6240 N   0  0  0  0  0  0  0  0  0  0  0  0
   -1.2470    9.9660   -7.1510 C   0  0  0  0  0  0  0  0  0  0  0  0
   -1.5700    8.9860   -8.5270 Cl  0  0  0  0  0  0  0  0  0  0  0  0
  2  1  1  1
  2  3  1  0
  1  4  1  0
  2  5  1  0
  4  6  2  0
  4  7  1  0
  5  8  2  0
  3  9  1  0
  5 10  1  0
  9 10  1  0
  3 11  1  0
  7 12  2  0
  6 13  1  0
  9 14  2  0
 11 15  2  0
 11 16  1  0
 12 17  1  0
 13 17  2  0
 12 18  1  0
 15 19  1  0
 16 20  2  0
 18 21  1  0
 17 22  1  0
 21 22  2  0
 21 23  1  0
 19 24  2  0
 20 24  1  0
 24 25  1  0
M  END
