diamond-x0689_0_A-mac-x0263
     RDKit          3D

 21 23  0  0  0  0  0  0  0  0999 V2000
   -3.1170   15.1340    2.0010 N   0  0  0  0  0  0  0  0  0  0  0  0
   -2.2970   14.5020    1.0050 C   0  0  2  0  0  0  0  0  0  0  0  0
   -1.0220   14.5120    1.6540 N   0  0  0  0  0  0  0  0  0  0  0  0
   -2.3960   14.9710   -0.3590 N   0  0  0  0  0  0  0  0  0  0  0  0
   -1.3740   14.6730   -1.2190 C   0  0  0  0  0  0  0  0  0  0  0  0
    0.0820   14.4190    0.7290 C   0  0  0  0  0  0  0  0  0  0  0  0
   -3.7310   15.0390   -0.6320 C   0  0  0  0  0  0  0  0  0  0  0  0
   -0.1730   14.4070   -0.7370 C   0  0  0  0  0  0  0  0  0  0  0  0
   -4.3380   15.4250   -1.8330 C   0  0  0  0  0  0  0  0  0  0  0  0
   -4.5260   14.6690    0.4380 C   0  0  0  0  0  0  0  0  0  0  0  0
   -5.8810   14.6740    0.3440 C   0  0  0  0  0  0  0  0  0  0  0  0
   -5.7370   15.4390   -1.9630 C   0  0  0  0  0  0  0  0  0  0  0  0
   -6.4650   15.0540   -0.8420 C   0  0  0  0  0  0  0  0  0  0  0  0
   -6.7900   14.3420    1.2920 N   0  0  0  0  0  0  0  0  0  0  0  0
   -7.9410   14.5090    0.7170 C   0  0  0  0  0  0  0  0  0  0  0  0
   -7.8010   14.9400   -0.5810 N   0  0  0  0  0  0  0  0  0  0  0  0
   -9.2570   14.2840    1.3400 C   0  0  0  0  0  0  0  0  0  0  0  0
   -9.6180   15.4650    2.2180 C   0  0  0  0  0  0  0  0  0  0  0  0
  -10.9660   15.2900    2.8330 C   0  0  0  0  0  0  0  0  0  0  0  0
  -11.6590   14.2630    2.3130 O   0  0  0  0  0  0  0  0  0  0  0  0
  -11.4610   15.9560    3.7150 O   0  0  0  0  0  0  0  0  0  0  0  0
  2  1  1  1
  2  3  1  0
  2  4  1  0
  4  5  1  0
  3  6  1  0
  4  7  1  0
  5  8  2  0
  6  8  1  0
  7  9  2  0
  7 10  1  0
 10 11  2  0
  9 12  1  0
 11 13  1  0
 12 13  2  0
 11 14  1  0
 14 15  2  0
 13 16  1  0
 15 16  1  0
 15 17  1  0
 17 18  1  0
 18 19  1  0
 19 20  1  0
 19 21  2  0
M  END
