diamond-x0592_0_A-diamond-x0967_0_A
     RDKit          3D

 16 17  0  0  0  0  0  0  0  0999 V2000
   -2.5800   14.2940    1.2300 N   0  0  0  0  0  0  0  0  0  0  0  0
   -2.8630   13.8780   -0.0410 C   0  0  0  0  0  0  0  0  0  0  0  0
   -2.1880   14.3060   -0.9750 O   0  0  0  0  0  0  0  0  0  0  0  0
   -4.0340   12.9210   -0.2280 C   0  0  0  0  0  0  0  0  0  0  0  0
   -5.2300   13.6900   -0.7080 C   0  0  2  0  0  0  0  0  0  0  0  0
   -6.3000   13.0170   -1.4930 N   0  0  0  0  0  0  0  0  0  0  0  0
   -4.6080   14.7680   -1.5030 C   0  0  0  0  0  0  0  0  0  0  0  0
   -5.8990   14.1190    0.6300 C   0  0  2  0  0  0  0  0  0  0  0  0
   -7.2150   14.4500    0.0950 N   0  0  0  0  0  0  0  0  0  0  0  0
   -5.0750   15.1970    1.2750 C   0  0  0  0  0  0  0  0  0  0  0  0
   -4.1290   15.8050   -0.8820 C   0  0  0  0  0  0  0  0  0  0  0  0
   -7.3620   13.5520   -0.9420 C   0  0  0  0  0  0  0  0  0  0  0  0
   -8.3210   14.6630    1.0180 C   0  0  0  0  0  0  0  0  0  0  0  0
   -4.2400   15.9620    0.5540 C   0  0  0  0  0  0  0  0  0  0  0  0
   -8.0460   14.1050    2.4230 C   0  0  0  0  0  0  0  0  0  0  0  0
   -7.3040   15.0230    3.2210 O   0  0  0  0  0  0  0  0  0  0  0  0
  1  2  1  0
  2  3  2  0
  2  4  1  0
  5  4  1  1
  5  6  1  0
  5  7  1  0
  5  8  1  0
  8  9  1  0
  8 10  1  6
  7 11  2  0
  6 12  2  0
  9 12  1  0
  9 13  1  0
 10 14  2  0
 11 14  1  0
 13 15  1  0
 15 16  1  0
M  END
