diamond-x0128_0_A-diamond-x0969_0_A
     RDKit          3D

 19 21  0  0  0  0  0  0  0  0999 V2000
   -7.1370   14.2360    2.4200 N   0  0  0  0  0  0  0  0  0  0  0  0
   -8.0210   15.1040    3.0230 C   0  0  0  0  0  0  0  0  0  0  0  0
   -8.9540   15.6070    2.4120 O   0  0  0  0  0  0  0  0  0  0  0  0
   -6.7560   14.5320    1.0250 C   0  0  2  0  0  0  0  0  0  0  0  0
   -7.6920   15.3050    4.3410 N   0  0  0  0  0  0  0  0  0  0  0  0
   -7.0560   13.4410    0.0450 C   0  0  0  0  0  0  0  0  0  0  0  0
   -5.2560   14.4180    0.5770 C   0  0  1  0  0  0  0  0  0  0  0  0
   -5.8010   13.3860   -0.4240 C   0  0  0  0  0  0  0  0  0  0  0  0
   -4.3440   15.5170   -0.0270 C   0  0  2  0  0  0  0  0  0  0  0  0
   -8.4460   16.0300    5.2980 C   0  0  0  0  0  0  0  0  0  0  0  0
   -4.3310   13.6660    1.5060 C   0  0  0  0  0  0  0  0  0  0  0  0
   -4.0610   15.3210   -1.4880 C   0  0  0  0  0  0  0  0  0  0  0  0
   -9.1150   17.1880    4.8840 C   0  0  0  0  0  0  0  0  0  0  0  0
   -8.5850   15.6810    6.6390 C   0  0  0  0  0  0  0  0  0  0  0  0
   -3.0680   15.3450    0.6930 N   0  0  0  0  0  0  0  0  0  0  0  0
   -3.1320   14.2490    1.5090 C   0  0  0  0  0  0  0  0  0  0  0  0
   -9.8750   17.9750    5.6790 N   0  0  0  0  0  0  0  0  0  0  0  0
   -9.3620   16.4750    7.4880 C   0  0  0  0  0  0  0  0  0  0  0  0
   -9.9810   17.6010    6.9660 C   0  0  0  0  0  0  0  0  0  0  0  0
  1  2  1  0
  2  3  2  0
  4  1  1  1
  2  5  1  0
  4  6  1  0
  4  7  1  0
  6  8  2  0
  7  8  1  6
  7  9  1  0
  5 10  1  0
  7 11  1  0
  9 12  1  6
 10 13  2  0
 10 14  1  0
  9 15  1  0
 11 16  2  0
 15 16  1  0
 13 17  1  0
 14 18  2  0
 17 19  2  0
 18 19  1  0
M  END
