diamond-x0895_1_A-mac-x0193
     RDKit          3D

 24 25  0  0  0  0  0  0  0  0999 V2000
   -1.5740   14.6730    1.7130 O   0  0  0  0  0  0  0  0  0  0  0  0
   -2.5860   14.6770    1.0220 C   0  0  0  0  0  0  0  0  0  0  0  0
   -2.6570   14.6530   -0.5070 C   0  0  2  0  0  0  0  0  0  0  0  0
   -3.8620   14.7050    1.4890 N   0  0  0  0  0  0  0  0  0  0  0  0
   -1.5450   15.4270   -1.2310 C   0  0  0  0  0  0  0  0  0  0  0  0
   -4.0090   15.1300   -0.6810 N   0  0  0  0  0  0  0  0  0  0  0  0
   -4.7340   14.9040    0.4720 C   0  0  0  0  0  0  0  0  0  0  0  0
   -5.9510   14.8850    0.5470 O   0  0  0  0  0  0  0  0  0  0  0  0
   -0.8990   14.7720   -2.4720 C   0  0  0  0  0  0  0  0  0  0  0  0
    0.5380   14.2300   -2.3120 C   0  0  0  0  0  0  0  0  0  0  0  0
    0.4970   12.7670   -2.1420 N   0  0  0  0  0  0  0  0  0  0  0  0
    0.5460   11.9740   -3.1630 C   0  0  0  0  0  0  0  0  0  0  0  0
    0.4780   10.6360   -2.9960 O   0  0  0  0  0  0  0  0  0  0  0  0
    0.6680   12.4680   -4.6080 C   0  0  0  0  0  0  0  0  0  0  0  0
    0.0860   11.5680   -5.6210 N   0  0  0  0  0  0  0  0  0  0  0  0
    0.8100   11.3760   -6.7800 C   0  0  0  0  0  0  0  0  0  0  0  0
    1.9220   11.8270   -6.8900 O   0  0  0  0  0  0  0  0  0  0  0  0
    0.1310   10.6230   -7.7260 N   0  0  0  0  0  0  0  0  0  0  0  0
    0.8020   10.1140   -8.9380 C   0  0  0  0  0  0  0  0  0  0  0  0
    1.3620    8.7080   -8.6880 C   0  0  0  0  0  0  0  0  0  0  0  0
   -0.1210   10.1300  -10.1660 C   0  0  0  0  0  0  0  0  0  0  0  0
    2.0740    8.1240   -9.9090 C   0  0  0  0  0  0  0  0  0  0  0  0
    0.5930    9.5910  -11.4050 C   0  0  0  0  0  0  0  0  0  0  0  0
    1.2070    8.2060  -11.1650 C   0  0  0  0  0  0  0  0  0  0  0  0
  1  2  2  0
  2  3  1  0
  2  4  1  0
  3  5  1  6
  3  6  1  0
  4  7  1  0
  6  7  1  0
  7  8  2  0
  5  9  1  0
  9 10  1  0
 10 11  1  0
 11 12  2  3
 12 13  1  0
 12 14  1  0
 14 15  1  0
 15 16  1  0
 16 17  2  0
 16 18  1  0
 18 19  1  0
 19 20  1  0
 19 21  1  0
 20 22  1  0
 21 23  1  0
 22 24  1  0
 23 24  1  0
M  END
