diamond-x0471_0_A-diamond-x0837_0_A
     RDKit          3D

 17 18  0  0  0  0  0  0  0  0999 V2000
   -8.8650   14.0690    2.7680 N   0  0  0  0  0  0  0  0  0  0  0  0
   -8.9740   14.9810    3.7890 C   0  0  0  0  0  0  0  0  0  0  0  0
   -9.2890   16.1530    3.5920 O   0  0  0  0  0  0  0  0  0  0  0  0
   -8.9250   14.5010    1.3900 C   0  0  0  0  0  0  0  0  0  0  0  0
   -8.6960   14.4450    5.1880 C   0  0  0  0  0  0  0  0  0  0  0  0
   -7.5370   14.6290    0.8780 C   0  0  0  0  0  0  0  0  0  0  0  0
   -9.8940   13.6590    5.7250 C   0  0  0  0  0  0  0  0  0  0  0  0
   -8.2890   15.5750    6.1260 C   0  0  0  0  0  0  0  0  0  0  0  0
   -7.2720   14.6560   -0.4650 N   0  0  0  0  0  0  0  0  0  0  0  0
   -6.4280   14.7310    1.5810 N   0  0  0  0  0  0  0  0  0  0  0  0
   -5.4090   14.8180    0.6640 C   0  0  0  0  0  0  0  0  0  0  0  0
   -5.9220   14.7690   -0.6230 C   0  0  0  0  0  0  0  0  0  0  0  0
   -5.1360   14.8240   -1.7600 C   0  0  0  0  0  0  0  0  0  0  0  0
   -4.0200   14.9380    0.8560 C   0  0  0  0  0  0  0  0  0  0  0  0
   -3.7660   14.9210   -1.5590 C   0  0  0  0  0  0  0  0  0  0  0  0
   -3.1960   14.9860   -0.2800 C   0  0  0  0  0  0  0  0  0  0  0  0
   -2.5990   14.9360   -3.2790 I   0  0  0  0  0  0  0  0  0  0  0  0
  1  2  1  0
  2  3  2  0
  1  4  1  0
  2  5  1  0
  4  6  1  0
  5  7  1  0
  5  8  1  0
  6  9  1  0
  6 10  2  0
 10 11  1  0
  9 12  1  0
 11 12  2  0
 12 13  1  0
 11 14  1  0
 13 15  2  0
 14 16  2  0
 15 16  1  0
 15 17  1  0
M  END
