diamond-x0900_1_A-mac-x0223
     RDKit          3D

 21 22  0  0  0  0  0  0  0  0999 V2000
   -0.6240    9.6890   -9.7650 O   0  0  0  0  0  0  0  0  0  0  0  0
   -0.8760    9.2230   -8.6680 C   0  0  0  0  0  0  0  0  0  0  0  0
   -0.1660    9.4220   -7.5090 N   0  0  0  0  0  0  0  0  0  0  0  0
   -2.0360    8.3210   -8.2970 C   0  0  0  0  0  0  0  0  0  0  0  0
   -1.8380    8.1180   -6.7940 C   0  0  0  0  0  0  0  0  0  0  0  0
   -1.1350    9.4020   -6.4630 C   0  0  1  0  0  0  0  0  0  0  0  0
   -0.7230    9.6940   -5.0220 C   0  0  0  0  0  0  0  0  0  0  0  0
   -0.2580   11.1250   -4.7830 C   0  0  0  0  0  0  0  0  0  0  0  0
   -0.0160   11.4290   -3.3870 N   0  0  0  0  0  0  0  0  0  0  0  0
    0.5730   12.5350   -3.1430 C   0  0  0  0  0  0  0  0  0  0  0  0
    0.9860   13.4530   -4.2710 C   0  0  0  0  0  0  0  0  0  0  0  0
    0.8870   12.9950   -1.9150 O   0  0  0  0  0  0  0  0  0  0  0  0
    0.0530   14.6280   -4.4460 C   0  0  0  0  0  0  0  0  0  0  0  0
   -1.3440   14.4700   -4.4770 C   0  0  0  0  0  0  0  0  0  0  0  0
    0.5960   15.9090   -4.5770 C   0  0  0  0  0  0  0  0  0  0  0  0
   -0.2320   17.0140   -4.7320 C   0  0  0  0  0  0  0  0  0  0  0  0
   -2.1810   15.5820   -4.6320 C   0  0  0  0  0  0  0  0  0  0  0  0
    0.1890   18.2930   -4.8650 O   0  0  0  0  0  0  0  0  0  0  0  0
   -1.6050   16.8440   -4.7560 C   0  0  0  0  0  0  0  0  0  0  0  0
    1.2390   18.4760   -5.7800 C   0  0  0  0  0  0  0  0  0  0  0  0
   -2.3620   17.9730   -4.8970 O   0  0  0  0  0  0  0  0  0  0  0  0
  1  2  2  0
  2  3  1  0
  2  4  1  0
  4  5  1  0
  3  6  1  0
  5  6  1  0
  6  7  1  1
  7  8  1  0
  8  9  1  0
  9 10  2  3
 10 11  1  0
 10 12  1  0
 11 13  1  0
 13 14  2  0
 13 15  1  0
 15 16  2  0
 14 17  1  0
 16 18  1  0
 16 19  1  0
 17 19  2  0
 18 20  1  0
 19 21  1  0
M  END
