diamond-x0910_1_A-mac-x0163
     RDKit          3D

 23 26  0  0  0  0  0  0  0  0999 V2000
   -8.2290   14.0000    0.7250 N   0  0  0  0  0  0  0  0  0  0  0  0
   -7.0340   14.5600    0.5010 C   0  0  0  0  0  0  0  0  0  0  0  0
   -6.7080   15.2380   -0.6400 N   0  0  0  0  0  0  0  0  0  0  0  0
   -6.0180   14.5600    1.2970 N   0  0  0  0  0  0  0  0  0  0  0  0
   -5.4430   15.6940   -0.5770 N   0  0  0  0  0  0  0  0  0  0  0  0
   -5.0560   15.2500    0.6320 C   0  0  0  0  0  0  0  0  0  0  0  0
   -3.8530   15.4280    1.1940 N   0  0  0  0  0  0  0  0  0  0  0  0
   -2.5970   15.0270    0.7010 C   0  0  0  0  0  0  0  0  0  0  0  0
   -2.4570   14.7870   -0.6680 C   0  0  0  0  0  0  0  0  0  0  0  0
   -1.5480   14.8810    1.5370 N   0  0  0  0  0  0  0  0  0  0  0  0
   -3.7790   14.9580   -1.7720 Cl  0  0  0  0  0  0  0  0  0  0  0  0
   -1.2110   14.4050   -1.1390 C   0  0  0  0  0  0  0  0  0  0  0  0
   -0.3890   14.5100    0.9920 C   0  0  0  0  0  0  0  0  0  0  0  0
   -0.1580   14.2630   -0.3120 N   0  0  0  0  0  0  0  0  0  0  0  0
   -1.0570   14.1560   -2.5300 N   0  0  0  0  0  0  0  0  0  0  0  0
    0.1800   13.4480   -2.8240 C   0  0  0  0  0  0  0  0  0  0  0  0
   -1.3120   15.2800   -3.4430 C   0  0  0  0  0  0  0  0  0  0  0  0
    0.0030   12.9360   -4.2420 C   0  0  0  0  0  0  0  0  0  0  0  0
   -1.3510   14.8990   -4.9050 C   0  0  0  0  0  0  0  0  0  0  0  0
    1.0140   11.8610   -4.6210 C   0  0  0  0  0  0  0  0  0  0  0  0
   -1.0730   11.8110   -4.3650 C   0  0  0  0  0  0  0  0  0  0  0  0
   -0.1400   14.0550   -5.2650 C   0  0  0  0  0  0  0  0  0  0  0  0
    0.0440   10.8460   -3.9600 C   0  0  0  0  0  0  0  0  0  0  0  0
  1  2  1  0
  2  3  1  0
  2  4  2  0
  3  5  1  0
  4  6  1  0
  5  6  2  0
  6  7  1  0
  7  8  1  0
  8  9  2  0
  8 10  1  0
  9 11  1  0
  9 12  1  0
 10 13  2  0
 12 14  2  0
 13 14  1  0
 12 15  1  0
 15 16  1  0
 15 17  1  0
 18 16  1  0
 17 19  1  0
 18 20  1  0
 18 21  1  0
 18 22  1  0
 19 22  1  0
 20 23  1  0
 21 23  1  0
M  END
