diamond-x0950_1_A-diamond-x0662_0_A
     RDKit          3D

 22 23  0  0  0  0  0  0  0  0999 V2000
    0.8970   13.7400   -5.2310 C   0  0  0  0  0  0  0  0  0  0  0  0
    0.9970   12.2540   -4.9120 C   0  0  2  0  0  0  0  0  0  0  0  0
   -0.0800   11.4470   -5.6410 C   0  0  0  0  0  0  0  0  0  0  0  0
    0.9320   12.0460   -3.4080 C   0  0  0  0  0  0  0  0  0  0  0  0
    0.3570   11.1470   -2.8150 O   0  0  0  0  0  0  0  0  0  0  0  0
    1.5840   12.9760   -2.6940 O   0  0  0  0  0  0  0  0  0  0  0  0
   -1.1750   11.3960   -5.0870 O   0  0  0  0  0  0  0  0  0  0  0  0
   -0.0250   10.6670   -6.9520 C   0  0  0  0  0  0  0  0  0  0  0  0
   -0.9110    9.5960   -7.1000 C   0  0  0  0  0  0  0  0  0  0  0  0
    0.8500   10.9650   -8.0180 C   0  0  0  0  0  0  0  0  0  0  0  0
   -0.9330    8.8450   -8.2750 C   0  0  0  0  0  0  0  0  0  0  0  0
    0.8270   10.2050   -9.2260 C   0  0  0  0  0  0  0  0  0  0  0  0
    1.6320   10.3990  -10.3800 N   0  0  0  0  0  0  0  0  0  0  0  0
   -0.0760    9.1490   -9.3250 C   0  0  0  0  0  0  0  0  0  0  0  0
    2.1950    9.4210  -11.2080 C   0  0  0  0  0  0  0  0  0  0  0  0
    2.1770    8.2160  -10.9950 O   0  0  0  0  0  0  0  0  0  0  0  0
    2.8710    9.9540  -12.4220 C   0  0  0  0  0  0  0  0  0  0  0  0
    2.6650   11.1950  -13.0880 C   0  0  0  0  0  0  0  0  0  0  0  0
    3.8390    9.2350  -13.0430 N   0  0  0  0  0  0  0  0  0  0  0  0
    4.2260   10.0180  -14.0710 N   0  0  0  0  0  0  0  0  0  0  0  0
    3.5530   11.2000  -14.1400 C   0  0  0  0  0  0  0  0  0  0  0  0
    5.2730    9.5530  -14.9560 C   0  0  0  0  0  0  0  0  0  0  0  0
  2  1  1  1
  2  3  1  0
  2  4  1  0
  4  5  2  0
  4  6  1  0
  3  7  2  0
  3  8  1  0
  8  9  2  0
  8 10  1  0
  9 11  1  0
 10 12  2  0
 12 13  1  0
 11 14  2  0
 12 14  1  0
 13 15  1  0
 15 16  2  0
 15 17  1  0
 17 18  1  0
 17 19  2  0
 19 20  1  0
 18 21  2  0
 20 21  1  0
 20 22  1  0
M  END
