diamond-x0689_0_A-diamond-x0849_0_A
     RDKit          3D

 13 14  0  0  0  0  0  0  0  0999 V2000
   -3.5970   13.4400    1.3000 N   0  0  0  0  0  0  0  0  0  0  0  0
   -4.9410   13.9780    1.1990 C   0  0  0  0  0  0  0  0  0  0  0  0
   -2.5740   14.3800    0.9350 C   0  0  2  0  0  0  0  0  0  0  0  0
   -2.2900   14.5790   -0.5100 N   0  0  0  0  0  0  0  0  0  0  0  0
   -1.4560   14.2350    1.8480 N   0  0  0  0  0  0  0  0  0  0  0  0
   -3.1340   15.5010    1.5560 N   0  0  0  0  0  0  0  0  0  0  0  0
   -0.9600   14.6360   -0.9060 C   0  0  0  0  0  0  0  0  0  0  0  0
   -0.3040   14.3040    1.3420 C   0  0  0  0  0  0  0  0  0  0  0  0
   -3.3830   15.0920   -1.1980 C   0  0  0  0  0  0  0  0  0  0  0  0
   -3.8960   16.1310    0.8280 C   0  0  0  0  0  0  0  0  0  0  0  0
   -3.7000   14.7420   -3.0170 Br  0  0  0  0  0  0  0  0  0  0  0  0
    0.0720   14.5140   -0.0670 C   0  0  0  0  0  0  0  0  0  0  0  0
   -4.2530   15.8700   -0.5620 C   0  0  0  0  0  0  0  0  0  0  0  0
  1  2  1  0
  3  1  1  6
  3  4  1  0
  3  5  1  0
  3  6  1  0
  4  7  1  0
  5  8  2  0
  4  9  1  0
  6 10  2  0
  9 11  1  0
  7 12  2  0
  8 12  1  0
  9 13  2  0
 10 13  1  0
M  END
