diamond-x0438_0_A-diamond-x0689_0_A
     RDKit          3D

 22 24  0  0  0  0  0  0  0  0999 V2000
   -8.2080   15.3980    3.7260 C   0  0  0  0  0  0  0  0  0  0  0  0
   -9.5300   15.2890    2.5260 S   0  0  0  0  0  0  0  0  0  0  0  0
  -10.7340   14.8580    3.2130 O   0  0  0  0  0  0  0  0  0  0  0  0
   -9.0860   13.9900    1.3820 C   0  0  0  0  0  0  0  0  0  0  0  0
   -9.5580   16.5230    1.7730 O   0  0  0  0  0  0  0  0  0  0  0  0
   -7.8320   14.3440    0.6890 C   0  0  0  0  0  0  0  0  0  0  0  0
   -7.6920   14.4690   -0.6840 N   0  0  0  0  0  0  0  0  0  0  0  0
   -6.7140   14.5780    1.2910 N   0  0  0  0  0  0  0  0  0  0  0  0
   -5.8320   14.8610    0.2950 C   0  0  0  0  0  0  0  0  0  0  0  0
   -6.3850   14.8050   -0.9460 C   0  0  0  0  0  0  0  0  0  0  0  0
   -5.6560   15.0590   -2.1120 C   0  0  0  0  0  0  0  0  0  0  0  0
   -4.5330   15.1760    0.4490 C   0  0  0  0  0  0  0  0  0  0  0  0
   -4.0540   15.2270    1.8120 C   0  0  0  0  0  0  0  0  0  0  0  0
   -4.3030   15.3730   -1.9460 C   0  0  0  0  0  0  0  0  0  0  0  0
   -3.7520   15.4270   -0.6770 C   0  0  0  0  0  0  0  0  0  0  0  0
   -3.0660   14.2180    1.9870 N   0  0  0  0  0  0  0  0  0  0  0  0
   -2.0070   14.3600    1.1520 C   0  0  0  0  0  0  0  0  0  0  0  0
   -2.1470   13.9900   -0.1310 N   0  0  0  0  0  0  0  0  0  0  0  0
   -0.9180   14.8610    1.6610 N   0  0  0  0  0  0  0  0  0  0  0  0
   -1.0770   14.1660   -0.9240 C   0  0  0  0  0  0  0  0  0  0  0  0
    0.1180   15.0230    0.8410 C   0  0  0  0  0  0  0  0  0  0  0  0
    0.1040   14.6880   -0.4810 C   0  0  0  0  0  0  0  0  0  0  0  0
  2  1  1  0
  2  3  2  0
  2  4  1  0
  2  5  2  0
  4  6  1  0
  6  7  1  0
  6  8  2  0
  8  9  1  0
  7 10  1  0
  9 10  2  0
 10 11  1  0
  9 12  1  0
 12 13  1  0
 11 14  2  0
 12 15  2  0
 14 15  1  0
 13 16  1  0
 16 17  1  0
 17 18  2  0
 17 19  1  0
 18 20  1  0
 19 21  2  0
 20 22  2  0
 21 22  1  0
M  END
