diamond-x0591_0_A-mac-x0337
     RDKit          3D

 24 25  0  0  0  0  0  0  0  0999 V2000
   -6.5810   14.5920    0.0580 N   0  0  0  0  0  0  0  0  0  0  0  0
   -6.6230   14.4880    1.5160 C   0  0  0  0  0  0  0  0  0  0  0  0
   -5.3160   15.1830   -0.4430 C   0  0  1  0  0  0  0  0  0  0  0  0
   -5.2190   16.5410   -0.1480 O   0  0  0  0  0  0  0  0  0  0  0  0
   -3.7010   14.2150    0.0910 S   0  0  0  0  0  0  0  0  0  0  0  0
   -4.9150   14.9810   -1.8610 C   0  0  0  0  0  0  0  0  0  0  0  0
   -2.5140   14.7090   -0.5920 O   0  0  0  0  0  0  0  0  0  0  0  0
   -3.6590   14.0290    1.5090 O   0  0  0  0  0  0  0  0  0  0  0  0
   -3.5420   15.1150   -2.0060 C   0  0  0  0  0  0  0  0  0  0  0  0
   -5.7060   14.6830   -2.9770 C   0  0  0  0  0  0  0  0  0  0  0  0
   -4.2160   12.7180   -0.7270 C   0  0  0  0  0  0  0  0  0  0  0  0
   -2.9240   14.9590   -3.1890 C   0  0  0  0  0  0  0  0  0  0  0  0
   -5.0740   14.5210   -4.2160 C   0  0  0  0  0  0  0  0  0  0  0  0
   -3.4230   12.1210   -1.7100 C   0  0  0  0  0  0  0  0  0  0  0  0
   -5.4430   12.1710   -0.3660 C   0  0  0  0  0  0  0  0  0  0  0  0
   -3.6790   14.6640   -4.2850 C   0  0  0  0  0  0  0  0  0  0  0  0
   -3.8810   10.9550   -2.3320 C   0  0  0  0  0  0  0  0  0  0  0  0
   -5.8930   11.0140   -0.9910 C   0  0  0  0  0  0  0  0  0  0  0  0
   -2.7590   14.4870   -5.7520 S   0  0  0  0  0  0  0  0  0  0  0  0
   -5.1170   10.3980   -1.9760 C   0  0  0  0  0  0  0  0  0  0  0  0
   -1.3500   15.2670   -5.2320 N   0  0  0  0  0  0  0  0  0  0  0  0
   -2.3940   13.0980   -5.9110 O   0  0  0  0  0  0  0  0  0  0  0  0
   -3.3790   15.2810   -6.7810 O   0  0  0  0  0  0  0  0  0  0  0  0
   -5.6060    9.1430   -2.6410 C   0  0  0  0  0  0  0  0  0  0  0  0
  1  2  1  0
  1  3  1  0
  3  4  1  1
  3  5  1  0
  3  6  1  0
  5  7  2  0
  5  8  2  0
  6  9  2  0
  6 10  1  0
  5 11  1  0
  9 12  1  0
 10 13  2  0
 11 14  2  0
 11 15  1  0
 12 16  2  0
 13 16  1  0
 14 17  1  0
 15 18  2  0
 16 19  1  0
 17 20  2  0
 18 20  1  0
 19 21  1  0
 19 22  2  0
 19 23  2  0
 20 24  1  0
M  END
