diamond-x0371_0_A-mac-x0402
     RDKit          3D

 19 21  0  0  0  0  0  0  0  0999 V2000
   -8.1690   14.5660    2.8950 N   0  0  0  0  0  0  0  0  0  0  0  0
   -8.7940   15.5450    3.6330 C   0  0  0  0  0  0  0  0  0  0  0  0
   -9.4700   16.3640    3.0100 O   0  0  0  0  0  0  0  0  0  0  0  0
   -8.3730   14.4180    1.4770 C   0  0  0  0  0  0  0  0  0  0  0  0
   -7.0820   14.5950    0.7640 C   0  0  0  0  0  0  0  0  0  0  0  0
   -8.6410   15.5560    5.0640 C   0  0  0  0  0  0  0  0  0  0  0  0
   -5.8530   14.6180    1.3950 N   0  0  0  0  0  0  0  0  0  0  0  0
   -6.9390   14.7480   -0.5350 N   0  0  0  0  0  0  0  0  0  0  0  0
   -8.0460   14.4670    5.6340 O   0  0  0  0  0  0  0  0  0  0  0  0
   -8.9730   16.4590    6.0560 C   0  0  0  0  0  0  0  0  0  0  0  0
   -5.5920   14.8600   -0.7580 C   0  0  0  0  0  0  0  0  0  0  0  0
   -4.8890   14.7870    0.4390 C   0  0  0  0  0  0  0  0  0  0  0  0
   -8.5560   15.8840    7.2830 C   0  0  0  0  0  0  0  0  0  0  0  0
   -7.9960   14.6720    6.9680 C   0  0  0  0  0  0  0  0  0  0  0  0
   -3.5020   14.8690    0.5200 C   0  0  0  0  0  0  0  0  0  0  0  0
   -4.9000   15.0210   -1.9630 C   0  0  0  0  0  0  0  0  0  0  0  0
   -2.8240   15.0200   -0.6920 C   0  0  0  0  0  0  0  0  0  0  0  0
   -3.5060   15.0880   -1.9110 C   0  0  0  0  0  0  0  0  0  0  0  0
   -2.6070   15.2460   -3.3800 Cl  0  0  0  0  0  0  0  0  0  0  0  0
  1  2  1  0
  2  3  2  0
  1  4  1  0
  4  5  1  0
  2  6  1  0
  5  7  1  0
  5  8  2  0
  6  9  1  0
  6 10  2  0
  8 11  1  0
  7 12  1  0
 11 12  2  0
 10 13  1  0
  9 14  1  0
 13 14  2  0
 12 15  1  0
 11 16  1  0
 15 17  2  0
 16 18  2  0
 17 18  1  0
 18 19  1  0
M  END
