diamond-x0849_0_A-diamond-x0282_0_A
     RDKit          3D

 13 14  0  0  0  0  0  0  0  0999 V2000
   -3.4000   15.0950   -3.0100 Br  0  0  0  0  0  0  0  0  0  0  0  0
   -3.4840   14.8740   -1.1240 C   0  0  0  0  0  0  0  0  0  0  0  0
   -2.3280   14.7630   -0.3290 C   0  0  0  0  0  0  0  0  0  0  0  0
   -4.7520   14.8160   -0.5720 C   0  0  0  0  0  0  0  0  0  0  0  0
   -2.5260   14.6080    1.0470 C   0  0  0  0  0  0  0  0  0  0  0  0
   -4.8570   14.6420    0.7890 C   0  0  0  0  0  0  0  0  0  0  0  0
   -0.9970   14.7950   -0.8120 C   0  0  0  0  0  0  0  0  0  0  0  0
   -6.2380   14.5240    1.4490 C   0  0  0  0  0  0  0  0  0  0  0  0
   -3.7510   14.5530    1.5820 N   0  0  0  0  0  0  0  0  0  0  0  0
   -1.4980   14.5020    1.8760 N   0  0  0  0  0  0  0  0  0  0  0  0
    0.0640   14.6760    0.0660 C   0  0  0  0  0  0  0  0  0  0  0  0
   -7.3450   14.6640    0.5350 O   0  0  0  0  0  0  0  0  0  0  0  0
   -0.2460   14.5330    1.3940 C   0  0  0  0  0  0  0  0  0  0  0  0
  1  2  1  0
  2  3  2  0
  2  4  1  0
  3  5  1  0
  4  6  2  0
  3  7  1  0
  6  8  1  0
  5  9  2  0
  6  9  1  0
  5 10  1  0
  7 11  2  0
  8 12  1  0
 10 13  2  0
 11 13  1  0
M  END
