diamond-x0844_0_A-mac-x0371
     RDKit          3D

 19 20  0  0  0  0  0  0  0  0999 V2000
   -6.9520   14.9600   -0.5660 O   0  0  0  0  0  0  0  0  0  0  0  0
   -5.7120   14.9660   -0.5550 C   0  0  0  0  0  0  0  0  0  0  0  0
   -5.0530   14.9800    0.6430 N   0  0  0  0  0  0  0  0  0  0  0  0
   -4.8680   14.9450   -1.8400 C   0  0  0  0  0  0  0  0  0  0  0  0
   -3.7060   14.8210    0.7710 C   0  0  0  0  0  0  0  0  0  0  0  0
   -3.3350   15.1890   -1.7070 C   0  0  2  0  0  0  0  0  0  0  0  0
   -2.5460   14.3730   -2.7150 O   0  0  0  0  0  0  0  0  0  0  0  0
   -2.8720   14.9070   -0.2900 C   0  0  0  0  0  0  0  0  0  0  0  0
   -1.2390   14.7250   -3.2490 C   0  0  0  0  0  0  0  0  0  0  0  0
   -0.2970   13.6990   -3.6850 C   0  0  0  0  0  0  0  0  0  0  0  0
   -0.8250   16.0670   -3.3740 C   0  0  0  0  0  0  0  0  0  0  0  0
   -0.6450   12.2220   -3.6300 C   0  0  0  0  0  0  0  0  0  0  0  0
    0.4420   16.4130   -3.8790 C   0  0  0  0  0  0  0  0  0  0  0  0
    0.9830   14.0890   -4.1830 C   0  0  0  0  0  0  0  0  0  0  0  0
    2.1950   12.9650   -4.7080 Cl  0  0  0  0  0  0  0  0  0  0  0  0
   -0.1050   11.4440   -2.4630 C   0  0  0  0  0  0  0  0  0  0  0  0
    1.3340   15.4270   -4.2740 C   0  0  0  0  0  0  0  0  0  0  0  0
    0.1250   12.2080   -1.3760 O   0  0  0  0  0  0  0  0  0  0  0  0
    0.1190   10.2470   -2.4180 O   0  0  0  0  0  0  0  0  0  0  0  0
  1  2  2  0
  2  3  1  0
  2  4  1  0
  3  5  1  0
  4  6  1  0
  6  7  1  6
  5  8  2  0
  6  8  1  0
  7  9  1  0
  9 10  2  0
  9 11  1  0
 10 12  1  0
 11 13  2  0
 10 14  1  0
 14 15  1  0
 12 16  1  0
 13 17  1  0
 14 17  2  0
 16 18  1  0
 16 19  2  0
M  END
