diamond-x0742_0_A-mac-x0357
     RDKit          3D

 27 30  0  0  0  0  0  0  0  0999 V2000
   -5.4190   12.2130   -0.6040 C   0  0  0  0  0  0  0  0  0  0  0  0
   -6.5290   11.6150    0.2240 C   0  0  0  0  0  0  0  0  0  0  0  0
   -4.9330   11.5690   -1.5380 O   0  0  0  0  0  0  0  0  0  0  0  0
   -4.9430   13.6300   -0.2380 C   0  0  2  0  0  0  0  0  0  0  0  0
   -4.6900   13.6380    1.2820 C   0  0  0  0  0  0  0  0  0  0  0  0
   -6.1100   14.5820   -0.5920 C   0  0  0  0  0  0  0  0  0  0  0  0
   -3.7000   14.1120   -1.0660 C   0  0  1  0  0  0  0  0  0  0  0  0
   -4.1480   15.4870   -1.5930 C   0  0  0  0  0  0  0  0  0  0  0  0
   -2.3990   14.2530   -0.2840 C   0  0  0  0  0  0  0  0  0  0  0  0
   -3.7510   14.7510    1.6960 C   0  0  0  0  0  0  0  0  0  0  0  0
   -5.6460   15.3600   -1.8000 C   0  0  0  0  0  0  0  0  0  0  0  0
   -1.1270   14.0930   -0.8480 C   0  0  0  0  0  0  0  0  0  0  0  0
   -2.4450   14.5530    1.0500 C   0  0  0  0  0  0  0  0  0  0  0  0
   -1.0070   13.7860   -2.1910 N   0  0  0  0  0  0  0  0  0  0  0  0
   -1.3720   14.6880    1.8310 N   0  0  0  0  0  0  0  0  0  0  0  0
    0.0080   14.2320   -0.0600 C   0  0  0  0  0  0  0  0  0  0  0  0
   -0.2080   12.8770   -2.5870 C   0  0  0  0  0  0  0  0  0  0  0  0
   -0.1790   14.5270    1.2700 C   0  0  0  0  0  0  0  0  0  0  0  0
    0.5760   12.2410   -1.6790 O   0  0  0  0  0  0  0  0  0  0  0  0
   -0.0590   12.3890   -3.9560 C   0  0  0  0  0  0  0  0  0  0  0  0
    1.1000   12.4680   -4.7450 C   0  0  0  0  0  0  0  0  0  0  0  0
   -1.2300   11.8050   -4.4630 C   0  0  0  0  0  0  0  0  0  0  0  0
    2.4050   13.0750   -4.3020 C   0  0  0  0  0  0  0  0  0  0  0  0
   -1.2790   11.2930   -5.7490 C   0  0  0  0  0  0  0  0  0  0  0  0
    1.0100   11.9380   -6.0320 C   0  0  0  0  0  0  0  0  0  0  0  0
    2.1140   11.9990   -6.7940 O   0  0  0  0  0  0  0  0  0  0  0  0
   -0.1500   11.3590   -6.5460 C   0  0  0  0  0  0  0  0  0  0  0  0
  1  2  1  0
  1  3  2  0
  4  1  1  6
  4  5  1  0
  4  6  1  0
  4  7  1  0
  7  8  1  1
  7  9  1  0
  5 10  1  0
  6 11  1  0
  8 11  1  0
  9 12  1  0
  9 13  2  0
 10 13  1  0
 12 14  1  0
 13 15  1  0
 12 16  2  0
 14 17  2  3
 15 18  2  0
 16 18  1  0
 17 19  1  0
 17 20  1  0
 20 21  2  0
 20 22  1  0
 21 23  1  0
 22 24  2  0
 21 25  1  0
 25 26  1  0
 24 27  1  0
 25 27  2  0
M  END
