diamond-x0742_0_A-diamond-x0628_0_A
     RDKit          3D

 30 33  0  0  0  0  0  0  0  0999 V2000
   -5.4230   12.2350   -0.6460 C   0  0  0  0  0  0  0  0  0  0  0  0
   -5.3180   11.4630   -1.6910 N   0  0  0  0  0  0  0  0  0  0  0  0
   -4.6210   11.8690   -2.9220 C   0  0  0  0  0  0  0  0  0  0  0  0
   -6.1860   11.8190    0.6000 C   0  0  0  0  0  0  0  0  0  0  0  0
   -4.7730   13.6570   -0.6860 C   0  0  2  0  0  0  0  0  0  0  0  0
   -4.6870   14.4520    0.6290 C   0  0  2  0  0  0  0  0  0  0  0  0
   -5.7860   14.5750   -1.3970 C   0  0  0  0  0  0  0  0  0  0  0  0
   -3.3770   13.6680   -1.3490 C   0  0  0  0  0  0  0  0  0  0  0  0
   -3.2170   11.2530   -3.0100 C   0  0  0  0  0  0  0  0  0  0  0  0
   -4.3530   15.8290    0.1280 C   0  0  0  0  0  0  0  0  0  0  0  0
   -2.2240   13.9770   -0.4110 C   0  0  0  0  0  0  0  0  0  0  0  0
   -3.7070   13.9290    1.6230 C   0  0  0  0  0  0  0  0  0  0  0  0
   -5.2110   15.9560   -1.1260 C   0  0  0  0  0  0  0  0  0  0  0  0
   -2.2270   12.1520   -3.7770 C   0  0  0  0  0  0  0  0  0  0  0  0
   -0.9460   14.1540   -0.9420 C   0  0  0  0  0  0  0  0  0  0  0  0
   -2.3720   14.0940    0.9760 C   0  0  0  0  0  0  0  0  0  0  0  0
   -1.3620   14.3590    1.8120 N   0  0  0  0  0  0  0  0  0  0  0  0
    0.1100   14.4360   -0.0910 C   0  0  0  0  0  0  0  0  0  0  0  0
   -1.5160   11.4730   -4.9090 C   0  0  0  0  0  0  0  0  0  0  0  0
   -0.1560   14.5250    1.2630 C   0  0  0  0  0  0  0  0  0  0  0  0
   -1.8400   10.3300   -5.4830 N   0  0  0  0  0  0  0  0  0  0  0  0
   -0.3840   11.9600   -5.5290 N   0  0  0  0  0  0  0  0  0  0  0  0
    0.3720   13.1750   -5.2780 C   0  0  0  0  0  0  0  0  0  0  0  0
   -0.8840   10.1540   -6.4440 C   0  0  0  0  0  0  0  0  0  0  0  0
    0.0300   11.1290   -6.5120 N   0  0  0  0  0  0  0  0  0  0  0  0
   -0.8610    8.9790   -7.3340 C   0  0  0  0  0  0  0  0  0  0  0  0
    1.5720   12.9400   -4.3730 C   0  0  0  0  0  0  0  0  0  0  0  0
    1.1970   12.2590   -3.0810 C   0  0  0  0  0  0  0  0  0  0  0  0
    0.5260   11.2360   -3.0180 O   0  0  0  0  0  0  0  0  0  0  0  0
    1.6530   12.8730   -1.9790 O   0  0  0  0  0  0  0  0  0  0  0  0
  1  2  2  3
  2  3  1  0
  1  4  1  0
  5  1  1  1
  5  6  1  0
  5  7  1  0
  5  8  1  0
  3  9  1  0
  6 10  1  6
  8 11  1  0
  6 12  1  0
  7 13  1  0
 10 13  1  0
  9 14  1  0
 11 15  2  0
 11 16  1  0
 12 16  1  0
 16 17  2  0
 15 18  1  0
 14 19  1  0
 17 20  1  0
 18 20  2  0
 19 21  2  0
 19 22  1  0
 22 23  1  0
 21 24  1  0
 22 25  1  0
 24 25  2  0
 24 26  1  0
 23 27  1  0
 27 28  1  0
 28 29  2  0
 28 30  1  0
M  END
