diamond-x0685_0_A-mac-x0321
     RDKit          3D

 13 13  0  0  0  0  0  0  0  0999 V2000
   -5.9860   14.9270    2.6410 N   0  0  0  0  0  0  0  0  0  0  0  0
   -7.4270   14.6920    2.6720 C   0  0  0  0  0  0  0  0  0  0  0  0
   -7.7000   13.2290    2.9770 C   0  0  0  0  0  0  0  0  0  0  0  0
   -5.3390   14.9500    1.4060 C   0  0  0  0  0  0  0  0  0  0  0  0
   -3.9540   15.0230    1.2820 C   0  0  0  0  0  0  0  0  0  0  0  0
   -6.1500   14.9080    0.3390 N   0  0  0  0  0  0  0  0  0  0  0  0
   -3.3810   15.0640    0.0090 C   0  0  0  0  0  0  0  0  0  0  0  0
   -5.5780   14.9530   -0.8780 C   0  0  0  0  0  0  0  0  0  0  0  0
   -4.2130   15.0330   -1.1130 C   0  0  0  0  0  0  0  0  0  0  0  0
   -3.7290   15.0840   -2.5410 C   0  0  0  0  0  0  0  0  0  0  0  0
   -2.3160   14.6490   -2.8550 C   0  0  0  0  0  0  0  0  0  0  0  0
   -1.5010   14.5890   -1.7720 O   0  0  0  0  0  0  0  0  0  0  0  0
   -1.8560   14.3650   -3.9480 O   0  0  0  0  0  0  0  0  0  0  0  0
  1  2  1  0
  2  3  1  0
  1  4  1  0
  4  5  2  0
  4  6  1  0
  5  7  1  0
  6  8  2  0
  7  9  2  0
  8  9  1  0
  9 10  1  0
 10 11  1  0
 11 12  1  0
 11 13  2  0
M  END
