diamond-x0864_0_A-diamond-x0524_0_A
     RDKit          3D

 28 30  0  0  0  0  0  0  0  0999 V2000
    1.6570   12.0490   -6.5800 O   0  0  0  0  0  0  0  0  0  0  0  0
    0.5760   11.6210   -6.1930 C   0  0  0  0  0  0  0  0  0  0  0  0
   -0.1160   12.1160   -5.1020 N   0  0  0  0  0  0  0  0  0  0  0  0
   -0.0640   10.5020   -6.8880 C   0  0  0  0  0  0  0  0  0  0  0  0
    0.6650   12.9870   -4.2500 C   0  0  0  0  0  0  0  0  0  0  0  0
   -1.2410   11.4880   -4.5790 C   0  0  0  0  0  0  0  0  0  0  0  0
   -1.1770    9.9580   -6.3840 C   0  0  0  0  0  0  0  0  0  0  0  0
    0.7870   12.4080   -2.8540 C   0  0  0  0  0  0  0  0  0  0  0  0
   -1.8070    8.9250   -7.0240 O   0  0  0  0  0  0  0  0  0  0  0  0
   -1.7810   10.4280   -5.1830 C   0  0  0  0  0  0  0  0  0  0  0  0
    0.5500   11.0770   -2.8080 O   0  0  0  0  0  0  0  0  0  0  0  0
    1.0670   13.0060   -1.8370 O   0  0  0  0  0  0  0  0  0  0  0  0
   -1.3990    9.0360   -8.2810 C   0  0  0  0  0  0  0  0  0  0  0  0
   -0.4750    8.0810   -8.5080 N   0  0  0  0  0  0  0  0  0  0  0  0
   -1.7750    9.9080   -9.0300 O   0  0  0  0  0  0  0  0  0  0  0  0
    0.6320    8.2130   -9.3350 C   0  0  0  0  0  0  0  0  0  0  0  0
    1.8320    7.5530   -9.1420 C   0  0  0  0  0  0  0  0  0  0  0  0
    0.4900    9.0720  -10.4290 C   0  0  0  0  0  0  0  0  0  0  0  0
    2.8840    7.7380  -10.0390 C   0  0  0  0  0  0  0  0  0  0  0  0
    1.5440    9.2540  -11.3230 C   0  0  0  0  0  0  0  0  0  0  0  0
    2.7520    8.5860  -11.1410 C   0  0  0  0  0  0  0  0  0  0  0  0
    3.8360    8.7170  -12.0100 N   0  0  0  0  0  0  0  0  0  0  0  0
    4.0770    9.5600  -13.0980 C   0  0  0  0  0  0  0  0  0  0  0  0
    3.2760   10.6960  -13.2830 C   0  0  0  0  0  0  0  0  0  0  0  0
    5.0990    9.3120  -14.0120 C   0  0  0  0  0  0  0  0  0  0  0  0
    3.4960   11.5590  -14.3560 C   0  0  0  0  0  0  0  0  0  0  0  0
    5.3210   10.1710  -15.0850 C   0  0  0  0  0  0  0  0  0  0  0  0
    4.5210   11.2950  -15.2580 C   0  0  0  0  0  0  0  0  0  0  0  0
  1  2  2  0
  2  3  1  0
  2  4  1  0
  3  5  1  0
  3  6  1  0
  4  7  2  0
  5  8  1  0
  7  9  1  0
  6 10  2  0
  7 10  1  0
  8 11  1  0
  8 12  2  0
  9 13  1  0
 13 14  1  0
 13 15  2  0
 14 16  1  0
 16 17  2  0
 16 18  1  0
 17 19  1  0
 18 20  2  0
 19 21  2  0
 20 21  1  0
 21 22  1  0
 22 23  1  0
 23 24  2  0
 23 25  1  0
 24 26  1  0
 25 27  2  0
 26 28  2  0
 27 28  1  0
M  END
