diamond-x0591_0_A-mac-x0437
     RDKit          3D

 29 31  0  0  0  0  0  0  0  0999 V2000
   -5.8160   14.5440    0.9210 N   0  0  0  0  0  0  0  0  0  0  0  0
   -6.7310   14.5230    2.0410 C   0  0  0  0  0  0  0  0  0  0  0  0
   -6.3290   14.6680   -0.3450 C   0  0  0  0  0  0  0  0  0  0  0  0
   -7.5330   14.7300   -0.5650 O   0  0  0  0  0  0  0  0  0  0  0  0
   -5.3750   14.7340   -1.4910 C   0  0  0  0  0  0  0  0  0  0  0  0
   -3.9880   14.7400   -1.2610 C   0  0  0  0  0  0  0  0  0  0  0  0
   -5.8590   14.7940   -2.7960 C   0  0  0  0  0  0  0  0  0  0  0  0
   -3.0960   14.8170   -2.3440 C   0  0  0  0  0  0  0  0  0  0  0  0
   -4.9770   14.8650   -3.8650 C   0  0  0  0  0  0  0  0  0  0  0  0
   -3.6160   14.8880   -3.6460 C   0  0  0  0  0  0  0  0  0  0  0  0
   -2.5650   15.0180   -5.0520 S   0  0  1  0  0  0  0  0  0  0  0  0
   -1.4680   16.2590   -4.7980 N   0  0  0  0  0  0  0  0  0  0  0  0
   -1.6170   13.8600   -5.0910 N   0  0  0  0  0  0  0  0  0  0  0  0
   -3.3150   15.5330   -6.1670 O   0  0  0  0  0  0  0  0  0  0  0  0
   -0.1990   14.2330   -5.0560 C   0  0  0  0  0  0  0  0  0  0  0  0
    0.6520   13.0230   -5.3810 C   0  0  1  0  0  0  0  0  0  0  0  0
    1.8000   12.8250   -4.3950 C   0  0  0  0  0  0  0  0  0  0  0  0
   -0.2160   11.8510   -5.5880 N   0  0  0  0  0  0  0  0  0  0  0  0
    1.3170   12.1800   -3.1250 C   0  0  0  0  0  0  0  0  0  0  0  0
   -1.3020   11.5160   -4.8060 C   0  0  0  0  0  0  0  0  0  0  0  0
   -0.1200   10.9030   -6.5660 C   0  0  0  0  0  0  0  0  0  0  0  0
    1.5200   12.9630   -2.0490 O   0  0  0  0  0  0  0  0  0  0  0  0
    0.7970   11.0860   -3.0050 O   0  0  0  0  0  0  0  0  0  0  0  0
   -1.8960   10.4210   -5.2210 N   0  0  0  0  0  0  0  0  0  0  0  0
   -1.1710   10.0280   -6.3140 C   0  0  0  0  0  0  0  0  0  0  0  0
    0.7620   10.7240   -7.6260 C   0  0  0  0  0  0  0  0  0  0  0  0
   -1.3590    8.9150   -7.1470 C   0  0  0  0  0  0  0  0  0  0  0  0
    0.5660    9.6120   -8.4470 C   0  0  0  0  0  0  0  0  0  0  0  0
   -0.4750    8.7190   -8.2140 C   0  0  0  0  0  0  0  0  0  0  0  0
  1  2  1  0
  1  3  1  0
  3  4  2  0
  3  5  1  0
  5  6  2  0
  5  7  1  0
  6  8  1  0
  7  9  2  0
  8 10  2  0
  9 10  1  0
 10 11  1  0
 11 12  1  1
 11 13  2  0
 11 14  2  0
 13 15  1  0
 16 15  1  1
 16 17  1  0
 16 18  1  0
 17 19  1  0
 18 20  1  0
 18 21  1  0
 19 22  1  0
 19 23  2  0
 20 24  2  0
 21 25  2  0
 24 25  1  0
 21 26  1  0
 25 27  1  0
 26 28  2  0
 27 29  2  0
 28 29  1  0
M  END
