diamond-x0685_1_A-diamond-x0969_0_A
     RDKit          3D

 25 27  0  0  0  0  0  0  0  0999 V2000
   -1.2610   10.7340   -5.0130 N   0  0  0  0  0  0  0  0  0  0  0  0
   -0.4600   11.9570   -5.1350 C   0  0  0  0  0  0  0  0  0  0  0  0
   -0.4880   12.7990   -3.8750 C   0  0  0  0  0  0  0  0  0  0  0  0
   -1.4500   10.0590   -6.3050 C   0  0  0  0  0  0  0  0  0  0  0  0
   -0.6370    8.7570   -6.4410 C   0  0  0  0  0  0  0  0  0  0  0  0
   -1.1450   11.0850   -7.4250 C   0  0  0  0  0  0  0  0  0  0  0  0
    0.4810   12.1400   -2.5250 S   0  0  0  0  0  0  0  0  0  0  0  0
    0.1720    8.7130   -7.7310 C   0  0  0  0  0  0  0  0  0  0  0  0
   -1.3040   10.5000   -8.8220 C   0  0  0  0  0  0  0  0  0  0  0  0
    2.0250   12.4300   -2.8670 O   0  0  0  0  0  0  0  0  0  0  0  0
    0.2330   10.5470   -2.4840 O   0  0  0  0  0  0  0  0  0  0  0  0
   -0.0670   12.8360   -1.1760 O   0  0  0  0  0  0  0  0  0  0  0  0
   -0.6990    9.1000   -8.9300 C   0  0  0  0  0  0  0  0  0  0  0  0
   -0.4500   14.2340   -1.1350 C   0  0  0  0  0  0  0  0  0  0  0  0
   -1.7450   14.5440   -1.9300 C   0  0  0  0  0  0  0  0  0  0  0  0
   -3.0130   14.6950   -1.0970 C   0  0  0  0  0  0  0  0  0  0  0  0
   -4.2600   14.6410   -1.6380 C   0  0  0  0  0  0  0  0  0  0  0  0
   -2.8480   14.8800    0.3500 C   0  0  0  0  0  0  0  0  0  0  0  0
   -5.4130   14.6910   -0.7980 C   0  0  0  0  0  0  0  0  0  0  0  0
   -3.9350   14.9390    1.1320 C   0  0  0  0  0  0  0  0  0  0  0  0
   -6.7070   14.6170   -1.0390 N   0  0  0  0  0  0  0  0  0  0  0  0
   -5.2030   14.8160    0.5640 N   0  0  0  0  0  0  0  0  0  0  0  0
   -6.4720   14.7800    1.1230 C   0  0  0  0  0  0  0  0  0  0  0  0
   -7.3690   14.6700    0.1700 N   0  0  0  0  0  0  0  0  0  0  0  0
   -6.7060   14.8560    2.4520 N   0  0  0  0  0  0  0  0  0  0  0  0
  1  2  1  0
  2  3  1  0
  1  4  1  0
  4  5  1  0
  4  6  1  0
  3  7  1  0
  5  8  1  0
  6  9  1  0
  7 10  1  0
  7 11  1  0
  7 12  1  0
  8 13  1  0
  9 13  1  0
 12 14  1  0
 14 15  1  0
 15 16  1  0
 16 17  2  0
 16 18  1  0
 17 19  1  0
 18 20  2  0
 19 21  2  0
 19 22  1  0
 20 22  1  0
 22 23  1  0
 21 24  1  0
 23 24  2  0
 23 25  1  0
M  END
