diamond-x0421_0_A-mac-x0213
     RDKit          3D

 24 27  0  0  0  0  0  0  0  0999 V2000
   -3.7430   15.4950   -2.5950 N   0  0  0  0  0  0  0  0  0  0  0  0
   -3.0030   14.7180   -1.7580 C   0  0  0  0  0  0  0  0  0  0  0  0
   -2.0120   14.0650   -2.2290 N   0  0  0  0  0  0  0  0  0  0  0  0
   -3.5330   14.7820   -0.4100 C   0  0  0  0  0  0  0  0  0  0  0  0
   -1.0910   13.1620   -1.5340 C   0  0  0  0  0  0  0  0  0  0  0  0
   -2.9120   14.9690    0.8050 C   0  0  0  0  0  0  0  0  0  0  0  0
   -4.9030   14.6340   -0.2220 N   0  0  0  0  0  0  0  0  0  0  0  0
    0.1000   13.0910   -2.5170 C   0  0  0  0  0  0  0  0  0  0  0  0
   -3.9160   14.9300    1.7290 N   0  0  0  0  0  0  0  0  0  0  0  0
   -5.0870   14.7260    1.0690 C   0  0  0  0  0  0  0  0  0  0  0  0
    0.0480   11.8680   -3.2480 O   0  0  0  0  0  0  0  0  0  0  0  0
    1.3000   13.0940   -1.7830 O   0  0  0  0  0  0  0  0  0  0  0  0
   -6.4600   14.6120    1.7800 C   0  0  0  0  0  0  0  0  0  0  0  0
   -0.0890   14.3160   -3.4170 C   0  0  0  0  0  0  0  0  0  0  0  0
   -7.7360   14.6410    0.9800 C   0  0  0  0  0  0  0  0  0  0  0  0
   -7.2480   13.3490    1.5730 C   0  0  0  0  0  0  0  0  0  0  0  0
   -1.2070   14.2060   -4.4640 C   0  0  0  0  0  0  0  0  0  0  0  0
    1.0440   14.9790   -4.2110 C   0  0  0  0  0  0  0  0  0  0  0  0
   -1.1500   15.6320   -4.8890 C   0  0  0  0  0  0  0  0  0  0  0  0
    0.1710   16.0920   -4.7470 C   0  0  0  0  0  0  0  0  0  0  0  0
   -2.1670   16.4470   -5.3550 C   0  0  0  0  0  0  0  0  0  0  0  0
    0.4910   17.3960   -5.0800 C   0  0  0  0  0  0  0  0  0  0  0  0
   -1.8440   17.7600   -5.6920 C   0  0  0  0  0  0  0  0  0  0  0  0
   -0.5290   18.2260   -5.5550 C   0  0  0  0  0  0  0  0  0  0  0  0
  1  2  1  0
  2  3  2  3
  2  4  1  0
  3  5  1  0
  4  6  2  0
  4  7  1  0
  5  8  1  0
  6  9  1  0
  7 10  2  0
  9 10  1  0
  8 11  1  0
  8 12  1  0
 10 13  1  0
  8 14  1  0
 13 15  1  0
 13 16  1  0
 15 16  1  0
 14 17  1  0
 14 18  1  0
 17 19  1  0
 18 20  1  0
 19 20  2  0
 19 21  1  0
 20 22  1  0
 21 23  2  0
 22 24  2  0
 23 24  1  0
M  END
