diamond-x0864_0_A-mac-x0148
     RDKit          3D

 29 33  0  0  0  0  0  0  0  0999 V2000
    1.3310   11.8610   -6.6210 O   0  0  0  0  0  0  0  0  0  0  0  0
    0.2430   11.3070   -6.4790 C   0  0  0  0  0  0  0  0  0  0  0  0
   -0.7450   11.6450   -5.5490 N   0  0  0  0  0  0  0  0  0  0  0  0
   -0.1130   10.1600   -7.3460 C   0  0  0  0  0  0  0  0  0  0  0  0
   -1.6770   10.7310   -5.1260 C   0  0  0  0  0  0  0  0  0  0  0  0
   -1.1430    9.3720   -7.0020 C   0  0  0  0  0  0  0  0  0  0  0  0
   -0.6160   12.7870   -4.6540 C   0  0  2  0  0  0  0  0  0  0  0  0
   -1.6770    7.9110   -8.0240 Br  0  0  0  0  0  0  0  0  0  0  0  0
   -1.8940    9.6200   -5.8060 C   0  0  0  0  0  0  0  0  0  0  0  0
   -1.2110   14.0870   -5.1140 C   0  0  1  0  0  0  0  0  0  0  0  0
    0.7670   13.0670   -4.1860 C   0  0  0  0  0  0  0  0  0  0  0  0
   -2.6150   13.9150   -5.6600 C   0  0  0  0  0  0  0  0  0  0  0  0
   -1.3540   14.9690   -3.8600 C   0  0  1  0  0  0  0  0  0  0  0  0
    0.6580   13.7760   -2.8460 C   0  0  1  0  0  0  0  0  0  0  0  0
   -3.3590   14.9940   -5.1190 O   0  0  0  0  0  0  0  0  0  0  0  0
   -2.8720   15.1190   -3.7790 C   0  0  0  0  0  0  0  0  0  0  0  0
   -0.7050   14.3670   -2.6370 N   0  0  0  0  0  0  0  0  0  0  0  0
    1.0180   12.7430   -1.9100 N   0  0  0  0  0  0  0  0  0  0  0  0
   -1.1060   14.5630   -1.2860 C   0  0  0  0  0  0  0  0  0  0  0  0
    0.6650   11.5430   -2.1930 C   0  0  0  0  0  0  0  0  0  0  0  0
   -0.1200   14.4840   -0.3140 N   0  0  0  0  0  0  0  0  0  0  0  0
   -2.3470   14.8260   -0.7830 C   0  0  0  0  0  0  0  0  0  0  0  0
    0.0030   11.1150   -3.2620 O   0  0  0  0  0  0  0  0  0  0  0  0
   -0.3830   14.5820    1.0270 C   0  0  0  0  0  0  0  0  0  0  0  0
   -2.5260   14.9750    0.6910 C   0  0  0  0  0  0  0  0  0  0  0  0
   -3.6800   15.0390   -1.2630 C   0  0  0  0  0  0  0  0  0  0  0  0
   -1.5090   14.8080    1.5760 N   0  0  0  0  0  0  0  0  0  0  0  0
   -3.7430   15.2740    1.0260 N   0  0  0  0  0  0  0  0  0  0  0  0
   -4.4210   15.3040   -0.1770 C   0  0  0  0  0  0  0  0  0  0  0  0
  1  2  2  0
  2  3  1  0
  2  4  1  0
  3  5  1  0
  4  6  2  0
  7  3  1  6
  6  8  1  0
  5  9  2  0
  6  9  1  0
  7 10  1  0
  7 11  1  0
 10 12  1  1
 10 13  1  0
 11 14  1  0
 12 15  1  0
 13 16  1  1
 15 16  1  0
 13 17  1  0
 14 17  1  0
 14 18  1  1
 17 19  1  0
 18 20  2  3
 19 21  1  0
 19 22  2  0
 20 23  1  0
 21 24  1  0
 22 25  1  0
 22 26  1  0
 24 27  2  0
 25 27  1  0
 25 28  2  0
 26 29  2  0
 28 29  1  0
M  END
