diamond-x0844_0_A-mac-x0451
     RDKit          3D

 13 14  0  0  0  0  0  0  0  0999 V2000
   -7.1400   13.5900    0.2510 O   0  0  0  0  0  0  0  0  0  0  0  0
   -6.1440   14.2930    0.1240 C   0  0  0  0  0  0  0  0  0  0  0  0
   -5.4790   14.7920    1.2530 N   0  0  0  0  0  0  0  0  0  0  0  0
   -5.6830   14.7060   -1.2650 C   0  0  2  0  0  0  0  0  0  0  0  0
   -6.3540   14.9480    2.3720 N   0  0  0  0  0  0  0  0  0  0  0  0
   -4.0970   14.4790    1.6460 C   0  0  0  0  0  0  0  0  0  0  0  0
   -4.1920   14.8130   -1.6610 C   0  0  0  0  0  0  0  0  0  0  0  0
   -6.3320   16.0280   -1.4050 C   0  0  0  0  0  0  0  0  0  0  0  0
   -3.0530   14.8870    0.6320 C   0  0  2  0  0  0  0  0  0  0  0  0
   -3.1820   14.1780   -0.7160 C   0  0  2  0  0  0  0  0  0  0  0  0
   -1.7680   14.2750   -1.2290 C   0  0  0  0  0  0  0  0  0  0  0  0
   -1.5960   14.6590    1.0720 C   0  0  0  0  0  0  0  0  0  0  0  0
   -0.9010   14.5320   -0.2430 C   0  0  0  0  0  0  0  0  0  0  0  0
  1  2  2  0
  2  3  1  0
  2  4  1  0
  3  5  1  0
  3  6  1  0
  4  7  1  0
  4  8  1  1
  9  6  1  1
 10  7  1  6
  9 10  1  0
 10 11  1  0
  9 12  1  0
 11 13  2  0
 12 13  1  0
M  END
