diamond-x1012_0_A-mac-x0182
     RDKit          3D

 23 25  0  0  0  0  0  0  0  0999 V2000
   -0.3260   18.3130   -4.8300 N   0  0  0  0  0  0  0  0  0  0  0  0
   -1.2850   17.3710   -4.8050 C   0  0  0  0  0  0  0  0  0  0  0  0
   -2.4400   17.7230   -4.8960 O   0  0  0  0  0  0  0  0  0  0  0  0
   -0.8680   16.0810   -4.6510 N   0  0  0  0  0  0  0  0  0  0  0  0
   -1.8910   15.1070   -4.1680 C   0  0  0  0  0  0  0  0  0  0  0  0
    0.5710   15.7520   -4.6160 C   0  0  0  0  0  0  0  0  0  0  0  0
   -1.4150   14.2110   -3.0110 C   0  0  0  0  0  0  0  0  0  0  0  0
    0.9380   14.9820   -3.3680 C   0  0  0  0  0  0  0  0  0  0  0  0
   -0.0010   13.8040   -3.3530 C   0  0  0  0  0  0  0  0  0  0  0  0
    0.6560   12.5650   -2.7850 C   0  0  0  0  0  0  0  0  0  0  0  0
    1.2960   12.1720   -3.9070 N   0  0  0  0  0  0  0  0  0  0  0  0
    0.6350   12.0830   -1.6470 O   0  0  0  0  0  0  0  0  0  0  0  0
    0.4950   11.7010   -4.8120 C   0  0  0  0  0  0  0  0  0  0  0  0
    0.7220   11.3150   -6.2660 C   0  0  0  0  0  0  0  0  0  0  0  0
   -1.2410   11.3900   -4.3650 S   0  0  0  0  0  0  0  0  0  0  0  0
    1.6050   11.7300   -6.9780 O   0  0  0  0  0  0  0  0  0  0  0  0
   -1.9920   12.6060   -4.7820 O   0  0  0  0  0  0  0  0  0  0  0  0
   -1.3470   10.2810   -5.7740 C   0  0  0  0  0  0  0  0  0  0  0  0
   -0.2850   10.3490   -6.6740 C   0  0  0  0  0  0  0  0  0  0  0  0
   -2.3910    9.4020   -5.9990 C   0  0  0  0  0  0  0  0  0  0  0  0
   -0.2330    9.5600   -7.8150 C   0  0  0  0  0  0  0  0  0  0  0  0
   -2.3590    8.5940   -7.1420 C   0  0  0  0  0  0  0  0  0  0  0  0
   -1.2850    8.6770   -8.0450 C   0  0  0  0  0  0  0  0  0  0  0  0
  1  2  1  0
  2  3  2  0
  2  4  1  0
  4  5  1  0
  4  6  1  0
  5  7  1  0
  6  8  1  0
  7  9  1  0
  8  9  1  0
  9 10  1  0
 10 11  1  0
 10 12  2  0
 11 13  2  3
 13 14  1  0
 15 13  1  6
 14 16  2  0
 15 17  2  0
 15 18  1  0
 14 19  1  0
 18 19  2  0
 18 20  1  0
 19 21  1  0
 20 22  2  0
 21 23  2  0
 22 23  1  0
M  END
