diamond-x0837_0_A-diamond-x0727_0_A
     RDKit          3D

 24 25  0  0  0  0  0  0  0  0999 V2000
   -7.5140   14.5820   -0.0420 O   0  0  0  0  0  0  0  0  0  0  0  0
   -6.3100   14.8610    0.0610 C   0  0  0  0  0  0  0  0  0  0  0  0
   -5.6160   14.8370    1.3260 N   0  0  0  0  0  0  0  0  0  0  0  0
   -5.4330   15.2700   -1.1150 C   0  0  0  0  0  0  0  0  0  0  0  0
   -4.2530   15.1780    1.3350 C   0  0  0  0  0  0  0  0  0  0  0  0
   -4.1120   14.5820   -0.9450 C   0  0  1  0  0  0  0  0  0  0  0  0
   -2.8820   14.8150   -2.6730 I   0  0  0  0  0  0  0  0  0  0  0  0
   -3.4910   15.0740    0.2920 C   0  0  0  0  0  0  0  0  0  0  0  0
   -0.8520   14.3900   -2.0930 C   0  0  0  0  0  0  0  0  0  0  0  0
    0.1940   15.1890   -2.9160 C   0  0  0  0  0  0  0  0  0  0  0  0
    0.1300   14.8390   -4.3050 C   0  0  0  0  0  0  0  0  0  0  0  0
    1.0970   13.9800   -4.9290 C   0  0  0  0  0  0  0  0  0  0  0  0
    1.1120   12.5150   -4.7230 C   0  0  2  0  0  0  0  0  0  0  0  0
    0.2670   11.8730   -5.6440 N   0  0  0  0  0  0  0  0  0  0  0  0
    0.9570   12.0380   -3.3560 C   0  0  0  0  0  0  0  0  0  0  0  0
    0.3500   10.9230   -3.1290 O   0  0  0  0  0  0  0  0  0  0  0  0
    0.4650   11.0650   -6.7210 C   0  0  0  0  0  0  0  0  0  0  0  0
    1.4400   12.7210   -2.2590 O   0  0  0  0  0  0  0  0  0  0  0  0
    1.4630   11.1830   -7.4530 O   0  0  0  0  0  0  0  0  0  0  0  0
   -0.5350    9.9980   -6.9990 C   0  0  0  0  0  0  0  0  0  0  0  0
   -1.0310   10.0260   -8.4050 C   0  0  0  0  0  0  0  0  0  0  0  0
   -0.1730    8.6130   -6.8190 C   0  0  0  0  0  0  0  0  0  0  0  0
   -2.0290    8.8550   -8.3420 C   0  0  0  0  0  0  0  0  0  0  0  0
   -1.4710    7.9030   -7.2760 C   0  0  0  0  0  0  0  0  0  0  0  0
  1  2  2  0
  2  3  1  0
  2  4  1  0
  3  5  1  0
  4  6  1  0
  6  7  1  6
  5  8  2  0
  6  8  1  0
  7  9  1  0
  9 10  1  0
 10 11  1  0
 11 12  1  0
 13 12  1  1
 13 14  1  0
 13 15  1  0
 15 16  2  0
 14 17  1  0
 15 18  1  0
 17 19  2  0
 17 20  1  0
 20 21  1  0
 20 22  1  0
 21 23  1  0
 22 24  1  0
 23 24  1  0
M  END
