diamond-x0253_0_A-mac-x0555
     RDKit          3D

 28 30  0  0  0  0  0  0  0  0999 V2000
    0.3530   11.7960   -5.1700 N   0  0  0  0  0  0  0  0  0  0  0  0
    1.0540   11.6820   -6.3790 C   0  0  0  0  0  0  0  0  0  0  0  0
    2.1130   12.2570   -6.5550 O   0  0  0  0  0  0  0  0  0  0  0  0
    1.0050   12.4530   -4.0200 C   0  0  0  0  0  0  0  0  0  0  0  0
    0.5820   11.8150   -2.6700 C   0  0  0  0  0  0  0  0  0  0  0  0
    0.4660   10.7830   -7.4390 C   0  0  0  0  0  0  0  0  0  0  0  0
    0.4380   12.4800   -1.5650 N   0  0  0  0  0  0  0  0  0  0  0  0
    0.3630   10.4790   -2.7010 O   0  0  0  0  0  0  0  0  0  0  0  0
   -0.5150    9.8670   -7.0480 C   0  0  0  0  0  0  0  0  0  0  0  0
    0.8530   10.8150   -8.7940 C   0  0  0  0  0  0  0  0  0  0  0  0
    0.6390   13.9090   -1.3820 C   0  0  0  0  0  0  0  0  0  0  0  0
   -1.1050    8.9990   -7.9800 C   0  0  0  0  0  0  0  0  0  0  0  0
    0.2730    9.9580   -9.7230 C   0  0  0  0  0  0  0  0  0  0  0  0
   -2.1560    8.0260   -7.5360 C   0  0  0  0  0  0  0  0  0  0  0  0
   -0.6690   14.4720   -0.8110 C   0  0  0  0  0  0  0  0  0  0  0  0
   -0.7050    9.0510   -9.3200 C   0  0  0  0  0  0  0  0  0  0  0  0
   -1.6900   14.6330   -1.9470 C   0  0  0  0  0  0  0  0  0  0  0  0
   -3.1500   14.7600   -1.5470 C   0  0  0  0  0  0  0  0  0  0  0  0
   -4.0800   15.0580   -2.5440 C   0  0  0  0  0  0  0  0  0  0  0  0
   -3.6170   14.5730   -0.2330 C   0  0  0  0  0  0  0  0  0  0  0  0
   -5.0020   14.6600    0.0520 C   0  0  0  0  0  0  0  0  0  0  0  0
   -5.4400   15.1460   -2.2500 C   0  0  0  0  0  0  0  0  0  0  0  0
   -5.5150   14.4620    1.3460 C   0  0  0  0  0  0  0  0  0  0  0  0
   -5.9240   14.9430   -0.9730 C   0  0  0  0  0  0  0  0  0  0  0  0
   -6.8910   14.5350    1.5850 C   0  0  0  0  0  0  0  0  0  0  0  0
   -7.2510   15.0180   -0.7610 N   0  0  0  0  0  0  0  0  0  0  0  0
   -7.4130   14.3400    2.8650 N   0  0  0  0  0  0  0  0  0  0  0  0
   -7.7000   14.8110    0.4940 C   0  0  0  0  0  0  0  0  0  0  0  0
  1  2  1  0
  2  3  2  0
  1  4  1  0
  4  5  1  0
  2  6  1  0
  5  7  2  3
  5  8  1  0
  6  9  2  0
  6 10  1  0
  7 11  1  0
  9 12  1  0
 10 13  2  0
 12 14  1  0
 11 15  1  0
 12 16  2  0
 13 16  1  0
 15 17  1  0
 17 18  1  0
 18 19  2  0
 18 20  1  0
 20 21  2  0
 19 22  1  0
 21 23  1  0
 21 24  1  0
 22 24  2  0
 23 25  2  0
 24 26  1  0
 25 27  1  0
 25 28  1  0
 26 28  2  0
M  END
