diamond-x0104_0_A-mac-x0380
     RDKit          3D

 23 25  0  0  0  0  0  0  0  0999 V2000
   -6.7410   14.8200    2.8590 N   0  0  0  0  0  0  0  0  0  0  0  0
   -8.0180   15.1420    3.2580 C   0  0  0  0  0  0  0  0  0  0  0  0
   -8.0570   15.0840    4.6290 N   0  0  0  0  0  0  0  0  0  0  0  0
   -6.5550   14.0490    1.6590 C   0  0  2  0  0  0  0  0  0  0  0  0
   -8.9140   15.4190    2.4720 O   0  0  0  0  0  0  0  0  0  0  0  0
   -5.1070   13.9560    1.0940 C   0  0  1  0  0  0  0  0  0  0  0  0
   -7.3230   14.6480    0.5230 C   0  0  0  0  0  0  0  0  0  0  0  0
   -6.6800   14.4900   -0.6360 C   0  0  0  0  0  0  0  0  0  0  0  0
   -9.2050   15.0700    5.3920 C   0  0  0  0  0  0  0  0  0  0  0  0
   -5.3730   13.7570   -0.4340 C   0  0  1  0  0  0  0  0  0  0  0  0
   -4.1910   15.1380    1.3900 C   0  0  0  0  0  0  0  0  0  0  0  0
   -4.1430   14.2790   -1.1880 C   0  0  2  0  0  0  0  0  0  0  0  0
   -9.2790   15.1760    6.7630 C   0  0  0  0  0  0  0  0  0  0  0  0
  -10.7490   14.9090    4.6890 S   0  0  0  0  0  0  0  0  0  0  0  0
   -3.7240   15.9620    0.4690 C   0  0  0  0  0  0  0  0  0  0  0  0
   -4.2150   14.0300   -2.5980 O   0  0  0  0  0  0  0  0  0  0  0  0
   -2.9770   13.6700   -0.5800 N   0  0  0  0  0  0  0  0  0  0  0  0
  -11.5260   14.9800    6.2060 C   0  0  0  0  0  0  0  0  0  0  0  0
  -10.6240   15.1240    7.2410 C   0  0  0  0  0  0  0  0  0  0  0  0
   -4.0890   15.7630   -0.9580 C   0  0  0  0  0  0  0  0  0  0  0  0
   -3.2430   14.6350   -3.3080 C   0  0  0  0  0  0  0  0  0  0  0  0
   -2.0550   14.3410   -2.7370 O   0  0  0  0  0  0  0  0  0  0  0  0
   -3.3630   15.3330   -4.2930 O   0  0  0  0  0  0  0  0  0  0  0  0
  1  2  1  0
  2  3  1  0
  4  1  1  1
  2  5  2  0
  4  6  1  0
  4  7  1  0
  7  8  2  0
  3  9  1  0
  6 10  1  0
 10  8  1  6
  6 11  1  6
 10 12  1  0
  9 13  2  0
  9 14  1  0
 11 15  2  0
 12 16  1  0
 12 17  1  1
 14 18  1  0
 13 19  1  0
 18 19  2  0
 12 20  1  0
 15 20  1  0
 16 21  1  0
 21 22  1  0
 21 23  2  0
M  END
