diamond-x0962_2_B-mac-x0306
     RDKit          3D

 18 20  0  0  0  0  0  0  0  0999 V2000
  -10.7610   14.7870    1.1180 N   0  0  0  0  0  0  0  0  0  0  0  0
   -9.6210   15.5550    1.6150 C   0  0  1  0  0  0  0  0  0  0  0  0
   -9.3120   15.4160    3.0570 C   0  0  0  0  0  0  0  0  0  0  0  0
   -8.2900   15.0490    1.1690 C   0  0  0  0  0  0  0  0  0  0  0  0
   -9.1840   16.4470    3.9580 N   0  0  0  0  0  0  0  0  0  0  0  0
   -9.0540   14.2830    3.7950 C   0  0  0  0  0  0  0  0  0  0  0  0
   -7.4830   14.2490    1.9400 C   0  0  0  0  0  0  0  0  0  0  0  0
   -7.6580   15.3480   -0.0250 N   0  0  0  0  0  0  0  0  0  0  0  0
   -8.8490   15.9000    5.1620 C   0  0  0  0  0  0  0  0  0  0  0  0
   -8.7660   14.5900    5.0910 N   0  0  0  0  0  0  0  0  0  0  0  0
   -6.3510   14.1010    1.2540 N   0  0  0  0  0  0  0  0  0  0  0  0
   -6.4570   14.7870    0.0880 C   0  0  0  0  0  0  0  0  0  0  0  0
   -5.3300   14.8580   -0.8110 C   0  0  0  0  0  0  0  0  0  0  0  0
   -5.4740   15.0020   -2.1840 C   0  0  0  0  0  0  0  0  0  0  0  0
   -4.0430   14.7930   -0.2690 C   0  0  0  0  0  0  0  0  0  0  0  0
   -4.3240   15.0710   -2.9490 C   0  0  0  0  0  0  0  0  0  0  0  0
   -2.9600   14.8710   -1.1140 C   0  0  0  0  0  0  0  0  0  0  0  0
   -3.0730   15.0080   -2.4480 N   0  0  0  0  0  0  0  0  0  0  0  0
  2  1  1  6
  2  3  1  0
  2  4  1  0
  3  5  1  0
  3  6  2  0
  4  7  2  0
  4  8  1  0
  5  9  1  0
  6 10  1  0
  9 10  2  0
  7 11  1  0
  8 12  2  0
 11 12  1  0
 12 13  1  0
 13 14  2  0
 13 15  1  0
 14 16  1  0
 15 17  2  0
 16 18  2  0
 17 18  1  0
M  END
