diamond-x0962_0_A-mac-x0204
     RDKit          3D

 19 20  0  0  0  0  0  0  0  0999 V2000
   -2.7160   15.1400   -2.3020 N   0  0  0  0  0  0  0  0  0  0  0  0
   -2.7800   14.2200   -1.1940 C   0  0  1  0  0  0  0  0  0  0  0  0
   -1.4210   13.9480   -0.5290 C   0  0  0  0  0  0  0  0  0  0  0  0
   -3.8000   14.6160   -0.2070 C   0  0  0  0  0  0  0  0  0  0  0  0
   -0.1270   14.4960   -1.1380 C   0  0  0  0  0  0  0  0  0  0  0  0
   -3.5000   15.1820    1.0030 N   0  0  0  0  0  0  0  0  0  0  0  0
   -5.1730   14.5260   -0.2210 C   0  0  0  0  0  0  0  0  0  0  0  0
    0.2590   14.1220   -2.5840 C   0  0  0  0  0  0  0  0  0  0  0  0
   -4.6710   15.3980    1.6570 C   0  0  0  0  0  0  0  0  0  0  0  0
   -5.7030   15.0050    0.9380 N   0  0  0  0  0  0  0  0  0  0  0  0
    0.9800   12.9090   -2.5650 O   0  0  0  0  0  0  0  0  0  0  0  0
    1.2180   15.0830   -3.0080 O   0  0  0  0  0  0  0  0  0  0  0  0
   -0.8420   14.1430   -3.6450 C   0  0  0  0  0  0  0  0  0  0  0  0
   -1.2600   15.3070   -4.3140 C   0  0  0  0  0  0  0  0  0  0  0  0
   -1.5010   12.9590   -4.0080 C   0  0  0  0  0  0  0  0  0  0  0  0
   -2.2730   15.2470   -5.2680 C   0  0  0  0  0  0  0  0  0  0  0  0
   -2.4930   12.8710   -4.9390 N   0  0  0  0  0  0  0  0  0  0  0  0
   -2.6980   16.3620   -5.9320 O   0  0  0  0  0  0  0  0  0  0  0  0
   -2.8570   14.0220   -5.5470 C   0  0  0  0  0  0  0  0  0  0  0  0
  2  1  1  6
  2  3  1  0
  2  4  1  0
  3  5  1  0
  4  6  1  0
  4  7  2  0
  5  8  1  0
  6  9  1  0
  7 10  1  0
  9 10  2  0
  8 11  1  0
  8 12  1  0
  8 13  1  0
 13 14  2  0
 13 15  1  0
 14 16  1  0
 15 17  2  0
 16 18  1  0
 16 19  2  0
 17 19  1  0
M  END
