diamond-x0681_0_A-mac-x0213
     RDKit          3D

 24 27  0  0  0  0  0  0  0  0999 V2000
   -3.8850   15.4780   -2.6180 N   0  0  0  0  0  0  0  0  0  0  0  0
   -3.0810   14.8110   -1.7220 C   0  0  0  0  0  0  0  0  0  0  0  0
   -1.8500   14.6220   -2.0180 N   0  0  0  0  0  0  0  0  0  0  0  0
   -3.7180   14.4190   -0.3860 C   0  0  2  0  0  0  0  0  0  0  0  0
   -4.7930   13.3740   -0.4730 C   0  0  0  0  0  0  0  0  0  0  0  0
   -4.1110   15.5560    0.5560 C   0  0  0  0  0  0  0  0  0  0  0  0
   -0.8850   14.9360   -3.0420 C   0  0  1  0  0  0  0  0  0  0  0  0
   -5.7820   13.3160    0.4680 N   0  0  0  0  0  0  0  0  0  0  0  0
   -4.5970   14.9630    1.8590 C   0  0  0  0  0  0  0  0  0  0  0  0
   -4.9550   12.4230   -1.3710 N   0  0  0  0  0  0  0  0  0  0  0  0
    0.4550   14.2380   -3.1400 C   0  0  1  0  0  0  0  0  0  0  0  0
   -1.0270   15.9030   -4.1750 C   0  0  0  0  0  0  0  0  0  0  0  0
    0.4670   12.7480   -3.0360 C   0  0  0  0  0  0  0  0  0  0  0  0
   -5.8990   14.2160    1.5920 C   0  0  0  0  0  0  0  0  0  0  0  0
   -6.6100   12.2880    0.1680 C   0  0  0  0  0  0  0  0  0  0  0  0
   -6.0820   11.7450   -0.9800 C   0  0  0  0  0  0  0  0  0  0  0  0
    0.2480   16.0260   -4.7470 C   0  0  0  0  0  0  0  0  0  0  0  0
    1.2780   15.0840   -4.1370 C   0  0  0  0  0  0  0  0  0  0  0  0
   -2.1110   16.6330   -4.6400 C   0  0  0  0  0  0  0  0  0  0  0  0
   -0.1730   12.0450   -3.9810 O   0  0  0  0  0  0  0  0  0  0  0  0
    1.0140   12.1680   -2.1180 O   0  0  0  0  0  0  0  0  0  0  0  0
   -1.8910   17.5420   -5.6800 C   0  0  0  0  0  0  0  0  0  0  0  0
    0.4620   16.9330   -5.7600 C   0  0  0  0  0  0  0  0  0  0  0  0
   -0.6100   17.6970   -6.2240 C   0  0  0  0  0  0  0  0  0  0  0  0
  1  2  1  0
  2  3  2  3
  4  2  1  6
  4  5  1  0
  4  6  1  0
  7  3  1  6
  5  8  1  0
  6  9  1  0
  5 10  2  0
  7 11  1  0
  7 12  1  0
 11 13  1  6
  8 14  1  0
  9 14  1  0
  8 15  1  0
 10 16  1  0
 15 16  2  0
 12 17  2  0
 11 18  1  0
 17 18  1  0
 12 19  1  0
 13 20  1  0
 13 21  2  0
 19 22  2  0
 17 23  1  0
 22 24  1  0
 23 24  2  0
M  END
