diamond-x0471_0_A-mac-x0328
     RDKit          3D

 20 21  0  0  0  0  0  0  0  0999 V2000
   -8.9220   14.1010    2.7270 N   0  0  0  0  0  0  0  0  0  0  0  0
   -8.9980   15.0050    3.7610 C   0  0  0  0  0  0  0  0  0  0  0  0
   -9.2940   16.1840    3.5820 O   0  0  0  0  0  0  0  0  0  0  0  0
   -8.8990   14.5640    1.3590 C   0  0  0  0  0  0  0  0  0  0  0  0
   -8.7020   14.4420    5.1450 C   0  0  0  0  0  0  0  0  0  0  0  0
   -7.4830   14.6760    0.9360 C   0  0  0  0  0  0  0  0  0  0  0  0
   -9.8940   13.6480    5.6800 C   0  0  0  0  0  0  0  0  0  0  0  0
   -8.2850   15.5510    6.1040 C   0  0  0  0  0  0  0  0  0  0  0  0
   -7.1190   14.7150   -0.3820 N   0  0  0  0  0  0  0  0  0  0  0  0
   -6.4230   14.7500    1.7160 N   0  0  0  0  0  0  0  0  0  0  0  0
   -5.3410   14.8320    0.8790 C   0  0  0  0  0  0  0  0  0  0  0  0
   -5.7520   14.8090   -0.4360 C   0  0  0  0  0  0  0  0  0  0  0  0
   -4.8930   14.8660   -1.5120 C   0  0  0  0  0  0  0  0  0  0  0  0
   -3.9710   14.9270    1.1620 C   0  0  0  0  0  0  0  0  0  0  0  0
   -5.5180   14.8320   -2.7110 O   0  0  0  0  0  0  0  0  0  0  0  0
   -3.4890   14.9340   -1.2390 C   0  0  0  0  0  0  0  0  0  0  0  0
   -3.0630   14.9730    0.0990 C   0  0  0  0  0  0  0  0  0  0  0  0
   -2.4190   14.9520   -2.2900 C   0  0  0  0  0  0  0  0  0  0  0  0
   -2.8050   15.0100   -3.5740 O   0  0  0  0  0  0  0  0  0  0  0  0
   -1.2280   14.8970   -2.0070 O   0  0  0  0  0  0  0  0  0  0  0  0
  1  2  1  0
  2  3  2  0
  1  4  1  0
  2  5  1  0
  4  6  1  0
  5  7  1  0
  5  8  1  0
  6  9  1  0
  6 10  2  0
 10 11  1  0
  9 12  1  0
 11 12  2  0
 12 13  1  0
 11 14  1  0
 13 15  1  0
 13 16  2  0
 14 17  2  0
 16 17  1  0
 16 18  1  0
 18 19  1  0
 18 20  2  0
M  END
