diamond-x0900_1_A-mac-x0204
     RDKit          3D

 18 19  0  0  0  0  0  0  0  0999 V2000
   -0.9240   10.0790   -9.5290 O   0  0  0  0  0  0  0  0  0  0  0  0
   -0.8270    9.5860   -8.4170 C   0  0  0  0  0  0  0  0  0  0  0  0
    0.1270    8.6760   -8.0230 N   0  0  0  0  0  0  0  0  0  0  0  0
   -1.7160    9.8240   -7.2140 C   0  0  2  0  0  0  0  0  0  0  0  0
   -1.0740   10.8440   -6.2490 C   0  0  0  0  0  0  0  0  0  0  0  0
   -1.7190    8.4070   -6.6250 C   0  0  0  0  0  0  0  0  0  0  0  0
   -0.3070    7.9090   -6.8880 C   0  0  0  0  0  0  0  0  0  0  0  0
   -1.7810   12.2140   -6.2610 C   0  0  0  0  0  0  0  0  0  0  0  0
   -2.4270   12.5490   -4.9700 N   0  0  0  0  0  0  0  0  0  0  0  0
   -3.2630   13.7550   -5.1220 C   0  0  0  0  0  0  0  0  0  0  0  0
   -1.4740   12.6890   -3.8440 C   0  0  0  0  0  0  0  0  0  0  0  0
   -0.6820   14.0240   -3.8770 C   0  0  2  0  0  0  0  0  0  0  0  0
   -2.3950   15.0010   -5.2810 C   0  0  1  0  0  0  0  0  0  0  0  0
    0.2760   14.2070   -2.7200 C   0  0  0  0  0  0  0  0  0  0  0  0
   -3.1040   16.1670   -5.6980 O   0  0  0  0  0  0  0  0  0  0  0  0
   -1.6040   15.2380   -4.0320 C   0  0  0  0  0  0  0  0  0  0  0  0
    0.4510   13.1160   -1.9510 O   0  0  0  0  0  0  0  0  0  0  0  0
    0.8920   15.2210   -2.4460 O   0  0  0  0  0  0  0  0  0  0  0  0
  1  2  2  0
  2  3  1  0
  2  4  1  0
  4  5  1  1
  4  6  1  0
  3  7  1  0
  6  7  1  0
  5  8  1  0
  8  9  1  0
  9 10  1  0
  9 11  1  0
 11 12  1  0
 10 13  1  0
 12 14  1  1
 13 15  1  1
 12 16  1  0
 13 16  1  0
 14 17  1  0
 14 18  2  0
M  END
