diamond-x0962_2_B-mac-x0472
     RDKit          3D

 24 26  0  0  0  0  0  0  0  0999 V2000
  -11.4470   16.4040    1.1070 N   0  0  0  0  0  0  0  0  0  0  0  0
  -10.5760   16.1230    1.8130 C   0  0  0  0  0  0  0  0  0  0  0  0
   -9.4610   15.7870    2.6160 C   0  0  0  0  0  0  0  0  0  0  0  0
   -9.3050   16.2070    3.9240 N   0  0  0  0  0  0  0  0  0  0  0  0
   -8.4130   15.0280    2.2020 C   0  0  0  0  0  0  0  0  0  0  0  0
   -8.1540   15.7030    4.2890 C   0  0  0  0  0  0  0  0  0  0  0  0
   -7.5990   14.9960    3.2630 N   0  0  0  0  0  0  0  0  0  0  0  0
   -6.3440   14.3560    3.3460 C   0  0  0  0  0  0  0  0  0  0  0  0
   -5.8270   13.6080    2.1380 C   0  0  0  0  0  0  0  0  0  0  0  0
   -4.5230   14.0490    1.5120 C   0  0  0  0  0  0  0  0  0  0  0  0
   -4.5800   14.2460   -0.1680 S   0  0  0  0  0  0  0  0  0  0  0  0
   -3.3180   14.2880    2.0360 N   0  0  0  0  0  0  0  0  0  0  0  0
   -2.3780   14.6070    1.0550 N   0  0  0  0  0  0  0  0  0  0  0  0
   -2.9340   14.5910   -0.1360 C   0  0  0  0  0  0  0  0  0  0  0  0
   -2.2240   14.8310   -1.3670 N   0  0  0  0  0  0  0  0  0  0  0  0
   -3.3150   14.5680   -2.6540 S   0  0  0  0  0  0  0  0  0  0  0  0
   -4.3880   15.5130   -2.4570 O   0  0  0  0  0  0  0  0  0  0  0  0
   -2.6100   14.5020   -3.9140 O   0  0  0  0  0  0  0  0  0  0  0  0
   -4.0020   12.9260   -2.3800 C   0  0  0  0  0  0  0  0  0  0  0  0
   -3.1990   11.7910   -2.5620 C   0  0  0  0  0  0  0  0  0  0  0  0
   -5.3440   12.7800   -1.9920 C   0  0  0  0  0  0  0  0  0  0  0  0
   -3.7450   10.5190   -2.3610 C   0  0  0  0  0  0  0  0  0  0  0  0
   -5.8790   11.5060   -1.7920 C   0  0  0  0  0  0  0  0  0  0  0  0
   -5.0800   10.3790   -1.9800 C   0  0  0  0  0  0  0  0  0  0  0  0
  1  2  3  0
  2  3  1  0
  3  4  1  0
  3  5  2  0
  4  6  2  0
  5  7  1  0
  6  7  1  0
  7  8  1  0
  8  9  1  0
  9 10  1  0
 10 11  1  0
 10 12  2  0
 12 13  1  0
 11 14  1  0
 13 14  2  0
 14 15  1  0
 16 15  1  0
 16 17  2  0
 16 18  2  0
 16 19  1  0
 19 20  2  0
 19 21  1  0
 20 22  1  0
 21 23  2  0
 22 24  2  0
 23 24  1  0
M  END
