diamond-x0895_0_A-diamond-x0128_0_A
     RDKit          3D

 22 24  0  0  0  0  0  0  0  0999 V2000
   -1.5500   14.6380    1.9380 O   0  0  0  0  0  0  0  0  0  0  0  0
   -2.4480   14.9270    1.1670 C   0  0  0  0  0  0  0  0  0  0  0  0
   -3.3520   16.1770    1.0680 C   0  0  0  0  0  0  0  0  0  0  0  0
   -2.9260   14.1610    0.1350 N   0  0  0  0  0  0  0  0  0  0  0  0
   -3.7710   16.0430   -0.3340 N   0  0  0  0  0  0  0  0  0  0  0  0
   -4.0590   14.8000   -0.2370 C   0  0  0  0  0  0  0  0  0  0  0  0
   -5.2160   14.3080   -0.3930 C   0  0  0  0  0  0  0  0  0  0  0  0
   -6.4110   15.0440   -0.7510 C   0  0  0  0  0  0  0  0  0  0  0  0
   -5.3040   12.9580   -0.0400 C   0  0  0  0  0  0  0  0  0  0  0  0
   -7.4350   14.8130    0.0630 C   0  0  0  0  0  0  0  0  0  0  0  0
   -6.3120   12.7290    0.7970 C   0  0  0  0  0  0  0  0  0  0  0  0
   -7.2720   13.8400    1.2070 C   0  0  0  0  0  0  0  0  0  0  0  0
   -6.8480   14.5660    2.3870 N   0  0  0  0  0  0  0  0  0  0  0  0
   -7.8360   15.2200    3.1010 C   0  0  0  0  0  0  0  0  0  0  0  0
   -8.8760   15.5590    2.5480 O   0  0  0  0  0  0  0  0  0  0  0  0
   -7.5280   15.4440    4.4310 N   0  0  0  0  0  0  0  0  0  0  0  0
   -8.3640   16.1120    5.3560 C   0  0  0  0  0  0  0  0  0  0  0  0
   -9.0710   17.2410    4.9310 C   0  0  0  0  0  0  0  0  0  0  0  0
   -8.5490   15.7310    6.6840 C   0  0  0  0  0  0  0  0  0  0  0  0
   -9.9050   17.9790    5.7010 N   0  0  0  0  0  0  0  0  0  0  0  0
   -9.4020   16.4710    7.5050 C   0  0  0  0  0  0  0  0  0  0  0  0
  -10.0520   17.5740    6.9770 C   0  0  0  0  0  0  0  0  0  0  0  0
  1  2  2  0
  2  3  1  0
  2  4  1  0
  3  5  1  0
  4  6  1  0
  5  6  1  0
  6  7  2  3
  7  8  1  0
  7  9  1  0
  8 10  2  0
  9 11  2  0
 10 12  1  0
 11 12  1  0
 12 13  1  0
 13 14  1  0
 14 15  2  0
 14 16  1  0
 16 17  1  0
 17 18  2  0
 17 19  1  0
 18 20  1  0
 19 21  2  0
 20 22  2  0
 21 22  1  0
M  END
