diamond-x0926_0_A-diamond-x0626_0_A
     RDKit          3D

 11 11  0  0  0  0  0  0  0  0999 V2000
   -6.3570   15.0090   -0.2340 N   0  0  0  0  0  0  0  0  0  0  0  0
   -6.8240   14.4940    0.8630 C   0  0  0  0  0  0  0  0  0  0  0  0
   -8.2270   14.2750    1.3180 C   0  0  0  0  0  0  0  0  0  0  0  0
   -4.9870   15.0070   -0.1680 C   0  0  0  0  0  0  0  0  0  0  0  0
   -4.4680   15.1220    1.0970 C   0  0  0  0  0  0  0  0  0  0  0  0
   -4.2040   14.8860   -1.2580 N   0  0  0  0  0  0  0  0  0  0  0  0
   -9.1770   14.9680    0.3750 C   0  0  0  0  0  0  0  0  0  0  0  0
   -2.8320   14.8610   -1.0800 N   0  0  0  0  0  0  0  0  0  0  0  0
   -3.1130   15.0940    1.2770 C   0  0  0  0  0  0  0  0  0  0  0  0
   -2.3010   14.9570    0.1790 C   0  0  0  0  0  0  0  0  0  0  0  0
   -0.8020   14.9110    0.3910 C   0  0  0  0  0  0  0  0  0  0  0  0
  1  2  2  3
  2  3  1  0
  1  4  1  0
  4  5  2  0
  4  6  1  0
  3  7  1  0
  6  8  2  0
  5  9  1  0
  8 10  1  0
  9 10  2  0
 10 11  1  0
M  END
