diamond-x0864_0_A-diamond-x0969_0_A
     RDKit          3D

 25 27  0  0  0  0  0  0  0  0999 V2000
    1.4680   11.9530   -6.7730 O   0  0  0  0  0  0  0  0  0  0  0  0
    0.4860   11.3670   -6.3380 C   0  0  0  0  0  0  0  0  0  0  0  0
   -0.1280   11.6440   -5.1160 N   0  0  0  0  0  0  0  0  0  0  0  0
   -0.1050   10.2560   -7.1240 C   0  0  0  0  0  0  0  0  0  0  0  0
    0.6310   12.4170   -4.1300 C   0  0  0  0  0  0  0  0  0  0  0  0
   -1.3580   11.1050   -4.7810 C   0  0  0  0  0  0  0  0  0  0  0  0
   -1.2530    9.6880   -6.7240 C   0  0  0  0  0  0  0  0  0  0  0  0
    0.5360   11.8410   -2.7110 C   0  0  0  0  0  0  0  0  0  0  0  0
   -2.0380    8.2830   -7.6640 Br  0  0  0  0  0  0  0  0  0  0  0  0
   -1.9270   10.1580   -5.5390 C   0  0  0  0  0  0  0  0  0  0  0  0
    0.4060   10.4920   -2.6050 O   0  0  0  0  0  0  0  0  0  0  0  0
    0.5660   12.4630   -1.5870 N   0  0  0  0  0  0  0  0  0  0  0  0
    0.7050   13.9160   -1.5920 C   0  0  0  0  0  0  0  0  0  0  0  0
   -0.5370   14.5240   -0.9430 C   0  0  0  0  0  0  0  0  0  0  0  0
   -1.7880   14.6050   -1.8510 C   0  0  0  0  0  0  0  0  0  0  0  0
   -3.0700   14.7370   -1.0580 C   0  0  0  0  0  0  0  0  0  0  0  0
   -4.3070   14.6660   -1.6170 C   0  0  0  0  0  0  0  0  0  0  0  0
   -2.9130   14.9260    0.3810 C   0  0  0  0  0  0  0  0  0  0  0  0
   -5.4640   14.7030   -0.7790 C   0  0  0  0  0  0  0  0  0  0  0  0
   -3.9960   14.9730    1.1590 C   0  0  0  0  0  0  0  0  0  0  0  0
   -6.7590   14.6100   -1.0160 N   0  0  0  0  0  0  0  0  0  0  0  0
   -5.2550   14.8340    0.5850 N   0  0  0  0  0  0  0  0  0  0  0  0
   -6.5140   14.7840    1.1490 C   0  0  0  0  0  0  0  0  0  0  0  0
   -7.4120   14.6580    0.2000 N   0  0  0  0  0  0  0  0  0  0  0  0
   -6.7270   14.8610    2.4790 N   0  0  0  0  0  0  0  0  0  0  0  0
  1  2  2  0
  2  3  1  0
  2  4  1  0
  3  5  1  0
  3  6  1  0
  4  7  2  0
  5  8  1  0
  7  9  1  0
  6 10  2  0
  7 10  1  0
  8 11  1  0
  8 12  2  3
 12 13  1  0
 13 14  1  0
 14 15  1  0
 15 16  1  0
 16 17  2  0
 16 18  1  0
 17 19  1  0
 18 20  2  0
 19 21  2  0
 19 22  1  0
 20 22  1  0
 22 23  1  0
 21 24  1  0
 23 24  2  0
 23 25  1  0
M  END
