diamond-x0837_0_A-diamond-x0662_0_A
     RDKit          3D

 29 31  0  0  0  0  0  0  0  0999 V2000
   -7.5710   14.7020   -0.0350 O   0  0  0  0  0  0  0  0  0  0  0  0
   -6.3470   14.8700    0.0930 C   0  0  0  0  0  0  0  0  0  0  0  0
   -5.7090   14.8660    1.3710 N   0  0  0  0  0  0  0  0  0  0  0  0
   -5.4860   15.0900   -1.0960 C   0  0  0  0  0  0  0  0  0  0  0  0
   -4.3320   15.2880    1.4090 C   0  0  0  0  0  0  0  0  0  0  0  0
   -4.1730   14.4250   -0.8190 C   0  0  1  0  0  0  0  0  0  0  0  0
   -2.9310   14.6320   -2.5640 I   0  0  0  0  0  0  0  0  0  0  0  0
   -3.6010   15.0690    0.3590 C   0  0  0  0  0  0  0  0  0  0  0  0
   -1.0010   13.8810   -2.1300 C   0  0  0  0  0  0  0  0  0  0  0  0
   -0.3110   13.2780   -3.3160 C   0  0  0  0  0  0  0  0  0  0  0  0
   -0.9110   11.9080   -3.7060 C   0  0  0  0  0  0  0  0  0  0  0  0
   -0.5270   11.4740   -4.9270 N   0  0  0  0  0  0  0  0  0  0  0  0
    0.1510   11.3920   -5.9050 C   0  0  0  0  0  0  0  0  0  0  0  0
    1.3240   12.2280   -5.9030 O   0  0  0  0  0  0  0  0  0  0  0  0
    0.0120   10.5710   -7.1400 C   0  0  0  0  0  0  0  0  0  0  0  0
   -0.9040    9.5480   -7.1770 C   0  0  0  0  0  0  0  0  0  0  0  0
    0.7630   10.7980   -8.2520 C   0  0  0  0  0  0  0  0  0  0  0  0
   -1.0270    8.7980   -8.3260 C   0  0  0  0  0  0  0  0  0  0  0  0
    0.6610   10.0610   -9.4310 C   0  0  0  0  0  0  0  0  0  0  0  0
    1.4730   10.3660  -10.5460 N   0  0  0  0  0  0  0  0  0  0  0  0
   -0.2590    9.0470   -9.4400 C   0  0  0  0  0  0  0  0  0  0  0  0
    2.2040    9.4690  -11.3130 C   0  0  0  0  0  0  0  0  0  0  0  0
    2.3090    8.2680  -11.0430 O   0  0  0  0  0  0  0  0  0  0  0  0
    2.9360    9.9250  -12.5120 C   0  0  0  0  0  0  0  0  0  0  0  0
    2.7800   11.1360  -13.1770 C   0  0  0  0  0  0  0  0  0  0  0  0
    3.8920    9.2780  -13.1860 N   0  0  0  0  0  0  0  0  0  0  0  0
    4.3520    9.9710  -14.2060 N   0  0  0  0  0  0  0  0  0  0  0  0
    3.6730   11.1320  -14.2200 C   0  0  0  0  0  0  0  0  0  0  0  0
    5.4070    9.5500  -15.1390 C   0  0  0  0  0  0  0  0  0  0  0  0
  1  2  2  0
  2  3  1  0
  2  4  1  0
  3  5  1  0
  4  6  1  0
  6  7  1  6
  5  8  2  0
  6  8  1  0
  7  9  1  0
  9 10  1  0
 10 11  1  0
 11 12  1  0
 12 13  2  3
 13 14  1  0
 13 15  1  0
 15 16  2  0
 15 17  1  0
 16 18  1  0
 17 19  2  0
 19 20  1  0
 18 21  2  0
 19 21  1  0
 20 22  1  0
 22 23  2  0
 22 24  1  0
 24 25  1  0
 24 26  2  0
 26 27  1  0
 25 28  2  0
 27 28  1  0
 27 29  1  0
M  CHG  1  14  -1
M  END
