diamond-x0837_0_A-diamond-x0685_1_A
     RDKit          3D

 23 24  0  0  0  0  0  0  0  0999 V2000
   -7.5550   14.8900    0.1390 O   0  0  0  0  0  0  0  0  0  0  0  0
   -6.3300   14.7310    0.1810 C   0  0  0  0  0  0  0  0  0  0  0  0
   -5.6130   14.8890    1.4280 N   0  0  0  0  0  0  0  0  0  0  0  0
   -5.5140   14.3650   -1.0110 C   0  0  0  0  0  0  0  0  0  0  0  0
   -4.1890   15.0700    1.2930 C   0  0  0  0  0  0  0  0  0  0  0  0
   -4.3170   15.2630   -1.0910 C   0  0  2  0  0  0  0  0  0  0  0  0
   -3.1040   14.7920   -2.7780 I   0  0  0  0  0  0  0  0  0  0  0  0
   -3.5730   15.2370    0.1690 C   0  0  0  0  0  0  0  0  0  0  0  0
   -3.3970   12.8420   -3.5230 C   0  0  0  0  0  0  0  0  0  0  0  0
   -2.5240   12.5570   -4.7540 C   0  0  0  0  0  0  0  0  0  0  0  0
   -1.3170   11.7440   -4.3320 C   0  0  1  0  0  0  0  0  0  0  0  0
   -1.2250   10.5870   -4.9750 N   0  0  0  0  0  0  0  0  0  0  0  0
   -0.1930   12.6690   -4.0230 C   0  0  0  0  0  0  0  0  0  0  0  0
    0.6410   12.4540   -2.5370 S   0  0  0  0  0  0  0  0  0  0  0  0
   -1.2690   10.0850   -6.2210 C   0  0  0  0  0  0  0  0  0  0  0  0
    2.2420   12.2950   -2.9540 O   0  0  0  0  0  0  0  0  0  0  0  0
    0.3780   10.4570   -2.4700 O   0  0  0  0  0  0  0  0  0  0  0  0
    0.2810   12.7840   -1.2920 O   0  0  0  0  0  0  0  0  0  0  0  0
   -0.6780    8.7070   -6.5270 C   0  0  0  0  0  0  0  0  0  0  0  0
   -1.0380   11.1270   -7.3100 C   0  0  0  0  0  0  0  0  0  0  0  0
    0.2100    8.8220   -7.7620 C   0  0  0  0  0  0  0  0  0  0  0  0
   -1.2810   10.5860   -8.6850 C   0  0  0  0  0  0  0  0  0  0  0  0
   -0.6630    9.2530   -8.8750 C   0  0  0  0  0  0  0  0  0  0  0  0
  1  2  2  0
  2  3  1  0
  2  4  1  0
  3  5  1  0
  4  6  1  0
  6  7  1  6
  5  8  2  0
  6  8  1  0
  7  9  1  0
  9 10  1  0
 11 10  1  6
 11 12  1  0
 11 13  1  0
 13 14  1  0
 12 15  1  0
 14 16  1  0
 14 17  1  0
 14 18  1  0
 15 19  1  0
 15 20  1  0
 19 21  1  0
 20 22  1  0
 21 23  1  0
 22 23  1  0
M  END
