diamond-x0805_0_A-mac-x0271
     RDKit          3D

 29 32  0  0  0  0  0  0  0  0999 V2000
   -3.5540   15.6090    0.4700 C   0  0  0  0  0  0  0  0  0  0  0  0
   -3.7610   15.7950   -0.9350 O   0  0  0  0  0  0  0  0  0  0  0  0
   -3.1180   15.0240   -1.8980 C   0  0  0  0  0  0  0  0  0  0  0  0
   -3.8750   14.3530   -2.8680 C   0  0  0  0  0  0  0  0  0  0  0  0
   -1.7780   14.8550   -2.0190 C   0  0  0  0  0  0  0  0  0  0  0  0
   -5.1470   14.4420   -2.8990 O   0  0  0  0  0  0  0  0  0  0  0  0
   -3.3960   13.5620   -3.8680 C   0  0  0  0  0  0  0  0  0  0  0  0
   -1.2720   14.0830   -3.0440 C   0  0  0  0  0  0  0  0  0  0  0  0
   -2.0650   13.4230   -3.9630 C   0  0  0  0  0  0  0  0  0  0  0  0
    0.1650   13.9680   -3.1970 C   0  0  1  0  0  0  0  0  0  0  0  0
   -5.5920   14.5350   -1.6810 C   0  0  0  0  0  0  0  0  0  0  0  0
    0.6700   12.6490   -3.7240 C   0  0  2  0  0  0  0  0  0  0  0  0
    0.5170   15.1680   -4.0220 C   0  0  0  0  0  0  0  0  0  0  0  0
   -6.8320   14.9780   -1.4560 C   0  0  0  0  0  0  0  0  0  0  0  0
   -4.7180   14.1490   -0.6510 C   0  0  0  0  0  0  0  0  0  0  0  0
    0.6260   11.8190   -2.4550 C   0  0  0  0  0  0  0  0  0  0  0  0
    2.0450   12.8440   -4.3590 C   0  0  0  0  0  0  0  0  0  0  0  0
    1.9630   15.3040   -4.2120 C   0  0  0  0  0  0  0  0  0  0  0  0
   -7.2380   15.0380   -0.1760 C   0  0  0  0  0  0  0  0  0  0  0  0
   -5.1450   14.2230    0.6660 C   0  0  0  0  0  0  0  0  0  0  0  0
    0.4600   10.4780   -2.6110 O   0  0  0  0  0  0  0  0  0  0  0  0
    0.6940   12.2830   -1.3360 O   0  0  0  0  0  0  0  0  0  0  0  0
    2.6740   14.0760   -4.0020 O   0  0  0  0  0  0  0  0  0  0  0  0
   -6.4350   14.6750    0.9060 C   0  0  0  0  0  0  0  0  0  0  0  0
   -8.5330   15.4900    0.0030 O   0  0  0  0  0  0  0  0  0  0  0  0
   -7.0210   14.7980    2.2280 C   0  0  0  0  0  0  0  0  0  0  0  0
   -9.1820   15.1230    1.1450 C   0  0  0  0  0  0  0  0  0  0  0  0
  -10.3790   14.9090    1.1830 O   0  0  0  0  0  0  0  0  0  0  0  0
   -8.3270   15.0070    2.3350 C   0  0  0  0  0  0  0  0  0  0  0  0
  1  2  1  0
  2  3  1  0
  3  4  2  0
  3  5  1  0
  4  6  1  0
  4  7  1  0
  5  8  2  0
  7  9  2  0
  8  9  1  0
 10  8  1  6
  6 11  1  0
 10 12  1  0
 10 13  1  0
 11 14  2  0
 11 15  1  0
 12 16  1  1
 12 17  1  0
 13 18  1  0
 14 19  1  0
 15 20  2  0
 16 21  1  0
 16 22  2  0
 17 23  1  0
 18 23  1  0
 19 24  2  0
 20 24  1  0
 19 25  1  0
 24 26  1  0
 25 27  1  0
 27 28  2  0
 26 29  2  0
 27 29  1  0
M  END
