diamond-x0574_0_A-diamond-x0910_1_A
     RDKit          3D

 16 18  0  0  0  0  0  0  0  0999 V2000
    0.2440   13.9960    2.3460 N   0  0  0  0  0  0  0  0  0  0  0  0
   -0.7190   14.2320    1.5170 C   0  0  0  0  0  0  0  0  0  0  0  0
   -1.9050   14.3070    1.9610 N   0  0  0  0  0  0  0  0  0  0  0  0
   -0.4690   14.4480   -0.1550 S   0  0  0  0  0  0  0  0  0  0  0  0
   -2.7460   14.5330    0.9480 C   0  0  0  0  0  0  0  0  0  0  0  0
   -2.1610   14.6490   -0.3100 C   0  0  0  0  0  0  0  0  0  0  0  0
   -4.1060   14.6490    1.0960 C   0  0  0  0  0  0  0  0  0  0  0  0
   -2.9070   14.8890   -1.4550 C   0  0  0  0  0  0  0  0  0  0  0  0
   -4.8370   14.8790   -0.0390 C   0  0  0  0  0  0  0  0  0  0  0  0
   -4.2620   15.0020   -1.2850 C   0  0  0  0  0  0  0  0  0  0  0  0
   -6.2110   15.0060   -0.0330 C   0  0  0  0  0  0  0  0  0  0  0  0
   -6.8540   15.3650   -1.1000 N   0  0  0  0  0  0  0  0  0  0  0  0
   -7.0540   14.7990    0.9940 N   0  0  0  0  0  0  0  0  0  0  0  0
   -8.1490   15.4080   -0.7830 N   0  0  0  0  0  0  0  0  0  0  0  0
   -8.2520   15.0640    0.4740 C   0  0  0  0  0  0  0  0  0  0  0  0
   -6.7940   14.3980    2.3410 C   0  0  0  0  0  0  0  0  0  0  0  0
  1  2  1  0
  2  3  2  0
  2  4  1  0
  3  5  1  0
  4  6  1  0
  5  6  2  0
  5  7  1  0
  6  8  1  0
  7  9  2  0
  8 10  2  0
  9 10  1  0
  9 11  1  0
 11 12  2  0
 11 13  1  0
 12 14  1  0
 13 15  1  0
 14 15  2  0
 13 16  1  0
M  END
