diamond-x0950_0_A-mac-x0398
     RDKit          3D

 19 19  0  0  0  0  0  0  0  0999 V2000
    2.8460   12.9660   -4.1500 C   0  0  0  0  0  0  0  0  0  0  0  0
    1.3470   12.7960   -4.2590 C   0  0  1  0  0  0  0  0  0  0  0  0
    1.0400   12.0800   -5.4600 O   0  0  0  0  0  0  0  0  0  0  0  0
    0.7870   12.0830   -3.0260 C   0  0  0  0  0  0  0  0  0  0  0  0
    0.4090   10.9180   -3.0330 O   0  0  0  0  0  0  0  0  0  0  0  0
    0.7700   12.8900   -1.9300 O   0  0  0  0  0  0  0  0  0  0  0  0
    0.3900   14.2640   -2.1500 C   0  0  0  0  0  0  0  0  0  0  0  0
   -0.9230   14.3340   -2.9340 C   0  0  0  0  0  0  0  0  0  0  0  0
   -1.8970   15.0780   -2.1680 O   0  0  0  0  0  0  0  0  0  0  0  0
   -3.2040   15.0660   -2.5460 C   0  0  0  0  0  0  0  0  0  0  0  0
   -3.6340   15.1190   -3.6920 O   0  0  0  0  0  0  0  0  0  0  0  0
   -4.0750   14.9920   -1.3460 C   0  0  0  0  0  0  0  0  0  0  0  0
   -5.4680   15.0560   -1.3770 C   0  0  0  0  0  0  0  0  0  0  0  0
   -3.4390   14.8460   -0.0970 C   0  0  0  0  0  0  0  0  0  0  0  0
   -6.1990   15.1970   -2.5280 O   0  0  0  0  0  0  0  0  0  0  0  0
   -6.2100   14.9720   -0.2010 C   0  0  0  0  0  0  0  0  0  0  0  0
   -4.1920   14.7640    1.0850 C   0  0  0  0  0  0  0  0  0  0  0  0
   -5.5870   14.8250    1.0420 C   0  0  0  0  0  0  0  0  0  0  0  0
   -6.3620   14.7440    2.2130 N   0  0  0  0  0  0  0  0  0  0  0  0
  2  1  1  1
  2  3  1  0
  2  4  1  0
  4  5  2  0
  4  6  1  0
  6  7  1  0
  7  8  1  0
  8  9  1  0
  9 10  1  0
 10 11  2  0
 10 12  1  0
 12 13  2  0
 12 14  1  0
 13 15  1  0
 13 16  1  0
 14 17  2  0
 16 18  2  0
 17 18  1  0
 18 19  1  0
M  END
