diamond-x0910_1_A-mac-x0357
     RDKit          3D

 20 21  0  0  0  0  0  0  0  0999 V2000
   -7.5250   14.1150    1.2820 N   0  0  0  0  0  0  0  0  0  0  0  0
   -6.4910   14.6390    0.5990 C   0  0  0  0  0  0  0  0  0  0  0  0
   -6.5940   15.1090   -0.6810 N   0  0  0  0  0  0  0  0  0  0  0  0
   -5.2610   14.7930    1.0080 N   0  0  0  0  0  0  0  0  0  0  0  0
   -5.4120   15.5790   -1.1230 N   0  0  0  0  0  0  0  0  0  0  0  0
   -4.6190   15.3660   -0.0640 C   0  0  0  0  0  0  0  0  0  0  0  0
   -3.1620   15.7220   -0.0470 C   0  0  0  0  0  0  0  0  0  0  0  0
   -2.1840   14.5300   -0.0670 C   0  0  0  0  0  0  0  0  0  0  0  0
   -0.8690   14.8030   -0.8260 C   0  0  0  0  0  0  0  0  0  0  0  0
   -0.8630   14.1370   -2.1370 N   0  0  0  0  0  0  0  0  0  0  0  0
    0.0180   13.2800   -2.5280 C   0  0  0  0  0  0  0  0  0  0  0  0
    1.0690   12.8750   -1.7890 O   0  0  0  0  0  0  0  0  0  0  0  0
   -0.0220   12.6110   -3.8650 C   0  0  0  0  0  0  0  0  0  0  0  0
    1.0770   12.5840   -4.7640 C   0  0  0  0  0  0  0  0  0  0  0  0
   -1.2300   11.9820   -4.2240 C   0  0  0  0  0  0  0  0  0  0  0  0
    2.3940   13.2300   -4.4350 C   0  0  0  0  0  0  0  0  0  0  0  0
   -1.3730   11.3330   -5.4480 C   0  0  0  0  0  0  0  0  0  0  0  0
    0.8890   11.9210   -5.9870 C   0  0  0  0  0  0  0  0  0  0  0  0
    1.8680   11.8270   -6.9210 O   0  0  0  0  0  0  0  0  0  0  0  0
   -0.3060   11.3050   -6.3330 C   0  0  0  0  0  0  0  0  0  0  0  0
  1  2  1  0
  2  3  1  0
  2  4  2  0
  3  5  1  0
  4  6  1  0
  5  6  2  0
  6  7  1  0
  7  8  1  0
  8  9  1  0
  9 10  1  0
 10 11  2  3
 11 12  1  0
 11 13  1  0
 13 14  2  0
 13 15  1  0
 14 16  1  0
 15 17  2  0
 14 18  1  0
 18 19  1  0
 17 20  1  0
 18 20  2  0
M  END
