diamond-x0282_0_A-mac-x0305
     RDKit          3D

 23 25  0  0  0  0  0  0  0  0999 V2000
   -7.7600   14.3030    0.9150 C   0  0  0  0  0  0  0  0  0  0  0  0
   -8.5490   14.5270   -0.2420 O   0  0  0  0  0  0  0  0  0  0  0  0
   -6.2650   14.4260    0.6150 C   0  0  0  0  0  0  0  0  0  0  0  0
   -5.5130   14.5270    1.9170 C   0  0  0  0  0  0  0  0  0  0  0  0
   -5.7170   13.2000   -0.1180 C   0  0  0  0  0  0  0  0  0  0  0  0
   -4.0320   14.7270    1.6770 C   0  0  0  0  0  0  0  0  0  0  0  0
   -4.1780   13.1250   -0.1630 C   0  0  0  0  0  0  0  0  0  0  0  0
   -3.4640   13.5160    1.0860 N   0  0  0  0  0  0  0  0  0  0  0  0
   -2.0360   13.7500    0.7670 C   0  0  1  0  0  0  0  0  0  0  0  0
   -1.3910   13.0070   -0.3340 N   0  0  0  0  0  0  0  0  0  0  0  0
   -1.7570   15.0240    0.3090 N   0  0  0  0  0  0  0  0  0  0  0  0
   -0.1020   13.2780   -0.7390 C   0  0  0  0  0  0  0  0  0  0  0  0
   -0.3190   15.2860    0.5260 C   0  0  0  0  0  0  0  0  0  0  0  0
   -2.4000   15.0830   -0.9360 C   0  0  0  0  0  0  0  0  0  0  0  0
    0.4740   14.3960   -0.3480 C   0  0  0  0  0  0  0  0  0  0  0  0
   -1.8870   14.7930   -2.2350 C   0  0  0  0  0  0  0  0  0  0  0  0
   -3.7500   15.4680   -0.9270 C   0  0  0  0  0  0  0  0  0  0  0  0
   -0.4730   14.3560   -2.5810 C   0  0  0  0  0  0  0  0  0  0  0  0
   -4.5120   15.5490   -2.0790 C   0  0  0  0  0  0  0  0  0  0  0  0
   -2.6330   14.8710   -3.3950 N   0  0  0  0  0  0  0  0  0  0  0  0
   -0.4790   13.0330   -2.9240 O   0  0  0  0  0  0  0  0  0  0  0  0
    0.5510   15.0190   -2.5880 O   0  0  0  0  0  0  0  0  0  0  0  0
   -3.9130   15.2420   -3.2740 C   0  0  0  0  0  0  0  0  0  0  0  0
  1  2  1  0
  1  3  1  0
  3  4  1  0
  3  5  1  0
  4  6  1  0
  5  7  1  0
  6  8  1  0
  7  8  1  0
  9  8  1  6
  9 10  1  0
  9 11  1  0
 10 12  1  0
 11 13  1  0
 11 14  1  0
 12 15  2  0
 13 15  1  0
 14 16  2  0
 14 17  1  0
 16 18  1  0
 17 19  2  0
 16 20  1  0
 18 21  1  0
 18 22  2  0
 19 23  1  0
 20 23  2  0
M  END
