diamond-x0855_0_A-mac-x0373
     RDKit          3D

 19 21  0  0  0  0  0  0  0  0999 V2000
    0.7940   13.0150   -2.1250 O   0  0  0  0  0  0  0  0  0  0  0  0
    0.8530   12.0710   -3.0710 C   0  0  0  0  0  0  0  0  0  0  0  0
    0.9950   12.5850   -4.4830 C   0  0  0  0  0  0  0  0  0  0  0  0
    0.0670   14.1230   -2.4480 C   0  0  0  0  0  0  0  0  0  0  0  0
    0.7530   10.8810   -2.7850 O   0  0  0  0  0  0  0  0  0  0  0  0
    0.5190   15.2280   -2.1490 O   0  0  0  0  0  0  0  0  0  0  0  0
   -1.3080   13.9050   -3.1820 C   0  0  1  0  0  0  0  0  0  0  0  0
   -0.3230   12.5210   -5.0830 N   0  0  0  0  0  0  0  0  0  0  0  0
   -1.3190   12.5760   -4.0080 N   0  0  0  0  0  0  0  0  0  0  0  0
   -2.4100   14.4410   -2.2010 C   0  0  0  0  0  0  0  0  0  0  0  0
   -0.4960   11.1990   -5.6980 C   0  0  0  0  0  0  0  0  0  0  0  0
   -2.5110   11.8510   -4.5510 C   0  0  0  0  0  0  0  0  0  0  0  0
   -3.6260   15.0230   -2.6130 C   0  0  0  0  0  0  0  0  0  0  0  0
   -2.1850   14.3720   -0.7940 C   0  0  0  0  0  0  0  0  0  0  0  0
   -1.9920   11.1540   -5.8420 C   0  0  2  0  0  0  0  0  0  0  0  0
   -4.5620   15.5070   -1.6790 C   0  0  0  0  0  0  0  0  0  0  0  0
   -3.1250   14.8590    0.1320 C   0  0  0  0  0  0  0  0  0  0  0  0
   -2.5640    9.3210   -6.1600 Br  0  0  0  0  0  0  0  0  0  0  0  0
   -4.3110   15.4270   -0.3100 C   0  0  0  0  0  0  0  0  0  0  0  0
  1  2  1  0
  2  3  1  0
  1  4  1  0
  2  5  2  0
  4  6  2  0
  4  7  1  0
  3  8  1  0
  7  9  1  0
  8  9  1  0
  7 10  1  1
  8 11  1  0
  9 12  1  0
 10 13  2  0
 10 14  1  0
 11 15  1  0
 12 15  1  0
 13 16  1  0
 14 17  2  0
 15 18  1  1
 16 19  2  0
 17 19  1  0
M  END
