diamond-x0852_0_B-diamond-x0967_0_A
     RDKit          3D

 22 24  0  0  0  0  0  0  0  0999 V2000
   -9.6700   17.8250    7.1720 N   0  0  0  0  0  0  0  0  0  0  0  0
   -9.4410   17.2840    6.1690 C   0  0  0  0  0  0  0  0  0  0  0  0
   -9.2190   16.5580    4.9560 C   0  0  0  0  0  0  0  0  0  0  0  0
   -8.3240   15.4750    4.9010 C   0  0  0  0  0  0  0  0  0  0  0  0
   -9.9260   16.9410    3.7890 C   0  0  0  0  0  0  0  0  0  0  0  0
   -7.5650   14.9850    5.9200 O   0  0  0  0  0  0  0  0  0  0  0  0
   -8.1510   14.7920    3.7220 C   0  0  0  0  0  0  0  0  0  0  0  0
   -9.7300   16.2310    2.5990 C   0  0  0  0  0  0  0  0  0  0  0  0
  -10.2910   16.4040    1.3610 O   0  0  0  0  0  0  0  0  0  0  0  0
   -8.8470   15.1670    2.5930 C   0  0  0  0  0  0  0  0  0  0  0  0
  -10.4490   15.1880    0.6050 C   0  0  0  0  0  0  0  0  0  0  0  0
   -9.3780   14.9350   -0.4790 C   0  0  0  0  0  0  0  0  0  0  0  0
   -7.9300   14.8490   -0.0120 C   0  0  0  0  0  0  0  0  0  0  0  0
   -7.0180   15.0060   -0.9990 N   0  0  0  0  0  0  0  0  0  0  0  0
   -7.5490   14.6350    1.3050 C   0  0  0  0  0  0  0  0  0  0  0  0
   -5.7140   14.9700   -0.7270 C   0  0  0  0  0  0  0  0  0  0  0  0
   -6.1890   14.5970    1.6020 C   0  0  0  0  0  0  0  0  0  0  0  0
   -5.2490   14.7680    0.5850 C   0  0  0  0  0  0  0  0  0  0  0  0
   -4.8620   15.1320   -1.7350 N   0  0  0  0  0  0  0  0  0  0  0  0
   -3.5400   15.1050   -1.4830 C   0  0  0  0  0  0  0  0  0  0  0  0
   -3.8700   14.7440    0.8340 C   0  0  0  0  0  0  0  0  0  0  0  0
   -2.9950   14.9160   -0.2240 C   0  0  0  0  0  0  0  0  0  0  0  0
  1  2  3  0
  2  3  1  0
  3  4  2  0
  3  5  1  0
  4  6  1  0
  4  7  1  0
  5  8  2  0
  8  9  1  0
  7 10  2  0
  8 10  1  0
  9 11  1  0
 11 12  1  0
 12 13  1  0
 13 14  2  0
 13 15  1  0
 14 16  1  0
 15 17  2  0
 16 18  2  0
 17 18  1  0
 16 19  1  0
 19 20  2  0
 18 21  1  0
 20 22  1  0
 21 22  2  0
M  END
