diamond-x0969_0_A-mac-x0398
     RDKit          3D

 14 15  0  0  0  0  0  0  0  0999 V2000
   -6.3430   14.7400    2.8000 N   0  0  0  0  0  0  0  0  0  0  0  0
   -6.4610   14.7690    1.4600 C   0  0  0  0  0  0  0  0  0  0  0  0
   -7.5760   14.6980    0.7670 N   0  0  0  0  0  0  0  0  0  0  0  0
   -5.3880   14.8900    0.6040 N   0  0  0  0  0  0  0  0  0  0  0  0
   -7.2600   14.7720   -0.5620 N   0  0  0  0  0  0  0  0  0  0  0  0
   -5.9590   14.8860   -0.6560 C   0  0  0  0  0  0  0  0  0  0  0  0
   -4.0150   14.9970    0.8320 C   0  0  0  0  0  0  0  0  0  0  0  0
   -5.1070   14.9920   -1.7630 C   0  0  0  0  0  0  0  0  0  0  0  0
   -3.1960   15.0810   -0.2350 C   0  0  0  0  0  0  0  0  0  0  0  0
   -5.7760   14.9880   -2.9620 O   0  0  0  0  0  0  0  0  0  0  0  0
   -3.7810   15.0740   -1.5950 C   0  0  0  0  0  0  0  0  0  0  0  0
   -2.9260   15.1510   -2.7950 C   0  0  0  0  0  0  0  0  0  0  0  0
   -3.3410   15.3360   -3.9270 O   0  0  0  0  0  0  0  0  0  0  0  0
   -1.6150   14.9820   -2.5650 O   0  0  0  0  0  0  0  0  0  0  0  0
  1  2  1  0
  2  3  2  0
  2  4  1  0
  3  5  1  0
  4  6  1  0
  5  6  2  0
  4  7  1  0
  6  8  1  0
  7  9  2  0
  8 10  1  0
  8 11  2  0
  9 11  1  0
 11 12  1  0
 12 13  2  0
 12 14  1  0
M  END
