diamond-x0253_0_A-mac-x0326
     RDKit          3D

 25 27  0  0  0  0  0  0  0  0999 V2000
    0.1330   12.1650   -5.6610 N   0  0  0  0  0  0  0  0  0  0  0  0
    1.0850   11.7510   -6.5610 C   0  0  0  0  0  0  0  0  0  0  0  0
    2.2470   12.1100   -6.5170 O   0  0  0  0  0  0  0  0  0  0  0  0
    0.3030   12.8040   -4.3380 C   0  0  1  0  0  0  0  0  0  0  0  0
    1.0270   12.0150   -3.2590 C   0  0  0  0  0  0  0  0  0  0  0  0
    0.5090   14.3100   -4.2020 C   0  0  0  0  0  0  0  0  0  0  0  0
    0.5260   10.7910   -7.5740 C   0  0  0  0  0  0  0  0  0  0  0  0
    1.9920   12.4150   -2.6300 O   0  0  0  0  0  0  0  0  0  0  0  0
    0.5090   10.8060   -2.9700 O   0  0  0  0  0  0  0  0  0  0  0  0
   -0.4360    9.8560   -7.1680 C   0  0  0  0  0  0  0  0  0  0  0  0
    0.9250   10.7970   -8.9220 C   0  0  0  0  0  0  0  0  0  0  0  0
   -0.5660   14.5730   -3.2080 C   0  0  0  0  0  0  0  0  0  0  0  0
   -0.9910    8.9500   -8.0760 C   0  0  0  0  0  0  0  0  0  0  0  0
    0.3780    9.8970   -9.8290 C   0  0  0  0  0  0  0  0  0  0  0  0
   -1.8000   14.8010   -3.5750 N   0  0  0  0  0  0  0  0  0  0  0  0
   -0.2700   14.5440   -1.5120 S   0  0  0  0  0  0  0  0  0  0  0  0
   -2.0230    7.9630   -7.6130 C   0  0  0  0  0  0  0  0  0  0  0  0
   -0.5790    8.9750   -9.4100 C   0  0  0  0  0  0  0  0  0  0  0  0
   -2.5960   14.9420   -2.4650 C   0  0  0  0  0  0  0  0  0  0  0  0
   -1.9460   14.8310   -1.2350 C   0  0  0  0  0  0  0  0  0  0  0  0
   -3.9750   15.1800   -2.5000 C   0  0  0  0  0  0  0  0  0  0  0  0
   -2.6410   14.9530   -0.0160 C   0  0  0  0  0  0  0  0  0  0  0  0
   -4.6670   15.2990   -1.3010 C   0  0  0  0  0  0  0  0  0  0  0  0
   -4.0180   15.1910   -0.0760 C   0  0  0  0  0  0  0  0  0  0  0  0
   -6.3620   15.5800   -1.3470 Cl  0  0  0  0  0  0  0  0  0  0  0  0
  1  2  1  0
  2  3  2  0
  1  4  1  0
  4  5  1  0
  4  6  1  6
  2  7  1  0
  5  8  2  0
  5  9  1  0
  7 10  2  0
  7 11  1  0
  6 12  1  0
 10 13  1  0
 11 14  2  0
 12 15  2  0
 12 16  1  0
 13 17  1  0
 13 18  2  0
 14 18  1  0
 15 19  1  0
 16 20  1  0
 19 20  2  0
 19 21  1  0
 20 22  1  0
 21 23  2  0
 22 24  2  0
 23 24  1  0
 23 25  1  0
M  END
