diamond-x0128_0_A-mac-x0138
     RDKit          3D

 27 30  0  0  0  0  0  0  0  0999 V2000
   -6.3000   14.9740    2.5970 N   0  0  0  0  0  0  0  0  0  0  0  0
   -7.5460   15.1770    3.1980 C   0  0  0  0  0  0  0  0  0  0  0  0
   -8.6250   15.1780    2.6080 O   0  0  0  0  0  0  0  0  0  0  0  0
   -6.0730   14.8460    1.2070 C   0  0  0  0  0  0  0  0  0  0  0  0
   -7.4390   15.4110    4.5630 N   0  0  0  0  0  0  0  0  0  0  0  0
   -7.2580   14.7740    0.4410 C   0  0  0  0  0  0  0  0  0  0  0  0
   -4.8020   14.7870    0.4890 C   0  0  0  0  0  0  0  0  0  0  0  0
   -7.2650   14.6620   -0.9400 C   0  0  0  0  0  0  0  0  0  0  0  0
   -4.9230   14.6690   -0.9060 C   0  0  0  0  0  0  0  0  0  0  0  0
   -8.3470   16.1570    5.3520 C   0  0  0  0  0  0  0  0  0  0  0  0
   -3.3150   14.7990    0.6130 C   0  0  0  0  0  0  0  0  0  0  0  0
   -6.0900   14.6110   -1.6130 C   0  0  0  0  0  0  0  0  0  0  0  0
   -9.0680   17.2740    4.9240 C   0  0  0  0  0  0  0  0  0  0  0  0
   -8.5460   15.7520    6.6730 C   0  0  0  0  0  0  0  0  0  0  0  0
   -2.8790   15.1670   -0.6450 C   0  0  0  0  0  0  0  0  0  0  0  0
   -2.3460   14.5050    1.5980 N   0  0  0  0  0  0  0  0  0  0  0  0
   -9.9330   17.9720    5.7040 N   0  0  0  0  0  0  0  0  0  0  0  0
   -9.4290   16.4550    7.4970 C   0  0  0  0  0  0  0  0  0  0  0  0
   -3.6080   15.5040   -1.7680 N   0  0  0  0  0  0  0  0  0  0  0  0
   -1.5500   15.2170   -0.9040 C   0  0  0  0  0  0  0  0  0  0  0  0
   -1.0350   14.5850    1.1800 C   0  0  0  0  0  0  0  0  0  0  0  0
   -0.0310   14.2330    2.0680 N   0  0  0  0  0  0  0  0  0  0  0  0
  -10.0920   17.5490    6.9700 C   0  0  0  0  0  0  0  0  0  0  0  0
   -1.4730   15.5850   -2.2270 N   0  0  0  0  0  0  0  0  0  0  0  0
   -2.7370   15.7450   -2.6960 C   0  0  0  0  0  0  0  0  0  0  0  0
   -0.5740   14.9450   -0.0420 N   0  0  0  0  0  0  0  0  0  0  0  0
   -0.2790   15.7670   -2.9980 C   0  0  0  0  0  0  0  0  0  0  0  0
  1  2  1  0
  2  3  2  0
  1  4  1  0
  2  5  1  0
  4  6  2  0
  4  7  1  0
  6  8  1  0
  7  9  2  0
  5 10  1  0
  7 11  1  0
  8 12  2  0
  9 12  1  0
 10 13  2  0
 10 14  1  0
 11 15  1  0
 11 16  2  0
 13 17  1  0
 14 18  2  0
 15 19  1  0
 15 20  2  0
 16 21  1  0
 21 22  1  0
 17 23  2  0
 18 23  1  0
 20 24  1  0
 19 25  2  0
 24 25  1  0
 20 26  1  0
 21 26  2  0
 24 27  1  0
M  END
