diamond-x0290_0_A-mac-x0326
     RDKit          3D

 28 30  0  0  0  0  0  0  0  0999 V2000
   -7.7360   13.6990    1.5110 N   0  0  0  0  0  0  0  0  0  0  0  0
   -8.4430   14.8090    0.8780 C   0  0  0  0  0  0  0  0  0  0  0  0
   -6.5320   14.1510    2.2410 C   0  0  0  0  0  0  0  0  0  0  0  0
   -5.3270   14.1320    1.3110 C   0  0  0  0  0  0  0  0  0  0  0  0
   -5.5050   13.8390    0.1230 O   0  0  0  0  0  0  0  0  0  0  0  0
   -4.0560   14.4120    1.6960 N   0  0  0  0  0  0  0  0  0  0  0  0
   -2.8210   14.2690    1.0730 C   0  0  0  0  0  0  0  0  0  0  0  0
   -1.7640   14.6130    1.8370 N   0  0  0  0  0  0  0  0  0  0  0  0
   -2.6640   13.8120   -0.2240 C   0  0  0  0  0  0  0  0  0  0  0  0
   -0.5340   14.4930    1.2840 C   0  0  0  0  0  0  0  0  0  0  0  0
   -1.3880   13.6890   -0.7920 C   0  0  0  0  0  0  0  0  0  0  0  0
   -1.2030   13.1690   -2.2130 C   0  0  0  0  0  0  0  0  0  0  0  0
   -0.2980   14.0480    0.0020 C   0  0  0  0  0  0  0  0  0  0  0  0
   -1.4340   14.0660   -3.3310 N   0  0  0  0  0  0  0  0  0  0  0  0
   -0.3360   14.9930   -3.5430 C   0  0  2  0  0  0  0  0  0  0  0  0
   -2.5490   14.9460   -3.0690 C   0  0  2  0  0  0  0  0  0  0  0  0
    0.9850   14.4350   -4.1080 C   0  0  0  0  0  0  0  0  0  0  0  0
   -2.0480   15.9090   -1.9870 C   0  0  2  0  0  0  0  0  0  0  0  0
   -0.2530   15.7320   -1.9050 S   0  0  0  0  0  0  0  0  0  0  0  0
   -3.8820   14.2700   -2.6980 C   0  0  0  0  0  0  0  0  0  0  0  0
    0.9910   12.9630   -4.5040 C   0  0  0  0  0  0  0  0  0  0  0  0
   -4.7020   15.2950   -1.9150 C   0  0  1  0  0  0  0  0  0  0  0  0
   -2.7420   15.9130   -0.6630 C   0  0  0  0  0  0  0  0  0  0  0  0
   -6.4250   14.8860   -1.7370 Cl  0  0  0  0  0  0  0  0  0  0  0  0
    1.1080   12.0900   -3.2960 C   0  0  0  0  0  0  0  0  0  0  0  0
   -4.0370   15.6290   -0.6220 C   0  0  0  0  0  0  0  0  0  0  0  0
    0.3650   10.9710   -3.3670 O   0  0  0  0  0  0  0  0  0  0  0  0
    1.7920   12.3220   -2.3200 O   0  0  0  0  0  0  0  0  0  0  0  0
  1  2  1  0
  1  3  1  0
  3  4  1  0
  4  5  2  0
  4  6  1  0
  6  7  1  0
  7  8  2  0
  7  9  1  0
  8 10  1  0
  9 11  2  0
 11 12  1  0
 10 13  2  0
 11 13  1  0
 12 14  1  0
 14 15  1  0
 14 16  1  0
 15 17  1  1
 16 18  1  0
 15 19  1  0
 18 19  1  0
 16 20  1  1
 17 21  1  0
 20 22  1  0
 18 23  1  1
 22 24  1  1
 21 25  1  0
 22 26  1  0
 23 26  2  0
 25 27  1  0
 25 28  2  0
M  END
