diamond-x0910_0_A-diamond-x0104_0_A
     RDKit          3D

 22 24  0  0  0  0  0  0  0  0999 V2000
   -2.8330   14.4340   -1.8260 N   0  0  0  0  0  0  0  0  0  0  0  0
   -4.0520   15.1580   -1.9540 O   0  0  0  0  0  0  0  0  0  0  0  0
   -4.8400   14.9780   -0.8230 C   0  0  0  0  0  0  0  0  0  0  0  0
   -1.9090   14.6420   -0.8360 C   0  0  0  0  0  0  0  0  0  0  0  0
   -2.2500   14.7540    0.4930 N   0  0  0  0  0  0  0  0  0  0  0  0
   -0.5960   14.7660   -0.9170 N   0  0  0  0  0  0  0  0  0  0  0  0
   -1.1710   14.9500    1.2760 N   0  0  0  0  0  0  0  0  0  0  0  0
   -0.1930   14.9530    0.3750 C   0  0  0  0  0  0  0  0  0  0  0  0
   -4.1850   14.9350    0.3500 N   0  0  0  0  0  0  0  0  0  0  0  0
   -6.2200   14.8530   -0.9460 C   0  0  0  0  0  0  0  0  0  0  0  0
   -4.9360   14.7610    1.4500 C   0  0  0  0  0  0  0  0  0  0  0  0
   -6.9680   14.6700    0.2280 C   0  0  0  0  0  0  0  0  0  0  0  0
   -6.3160   14.6230    1.4650 C   0  0  0  0  0  0  0  0  0  0  0  0
   -6.9450   14.4500    2.7200 N   0  0  0  0  0  0  0  0  0  0  0  0
   -8.0840   15.0710    3.1890 C   0  0  0  0  0  0  0  0  0  0  0  0
   -8.0150   15.1040    4.5670 N   0  0  0  0  0  0  0  0  0  0  0  0
   -8.9930   15.5150    2.4930 O   0  0  0  0  0  0  0  0  0  0  0  0
   -9.1200   15.1020    5.3940 C   0  0  0  0  0  0  0  0  0  0  0  0
   -9.2680   15.1990    6.7570 C   0  0  0  0  0  0  0  0  0  0  0  0
  -10.6150   14.9440    4.5900 S   0  0  0  0  0  0  0  0  0  0  0  0
  -11.4830   15.0030    6.0670 C   0  0  0  0  0  0  0  0  0  0  0  0
  -10.6400   15.1410    7.1490 C   0  0  0  0  0  0  0  0  0  0  0  0
  1  2  1  0
  2  3  1  0
  1  4  1  0
  4  5  1  0
  4  6  2  0
  5  7  1  0
  6  8  1  0
  7  8  2  0
  3  9  2  0
  3 10  1  0
  9 11  1  0
 10 12  2  0
 11 13  2  0
 12 13  1  0
 13 14  1  0
 14 15  1  0
 15 16  1  0
 15 17  2  0
 16 18  1  0
 18 19  2  0
 18 20  1  0
 20 21  1  0
 19 22  1  0
 21 22  2  0
M  END
