diamond-x0962_2_B-diamond-x0910_1_A
     RDKit          3D

 15 16  0  0  0  0  0  0  0  0999 V2000
  -10.5360   17.0020    1.4430 N   0  0  0  0  0  0  0  0  0  0  0  0
  -10.0790   15.6360    1.5770 C   0  0  1  0  0  0  0  0  0  0  0  0
   -9.3720   15.1580    0.2940 C   0  0  0  0  0  0  0  0  0  0  0  0
   -9.2870   15.3850    2.8220 C   0  0  0  0  0  0  0  0  0  0  0  0
   -8.7240   13.7730    0.3320 C   0  0  0  0  0  0  0  0  0  0  0  0
   -8.9840   16.3440    3.7710 N   0  0  0  0  0  0  0  0  0  0  0  0
   -8.7050   14.2360    3.3150 C   0  0  0  0  0  0  0  0  0  0  0  0
   -7.4430   13.8070    1.0280 N   0  0  0  0  0  0  0  0  0  0  0  0
   -8.2520   15.7370    4.7560 C   0  0  0  0  0  0  0  0  0  0  0  0
   -8.0740   14.4620    4.5030 N   0  0  0  0  0  0  0  0  0  0  0  0
   -6.4520   14.5340    0.4770 C   0  0  0  0  0  0  0  0  0  0  0  0
   -6.5290   15.0180   -0.8010 N   0  0  0  0  0  0  0  0  0  0  0  0
   -5.3070   14.9020    0.9950 N   0  0  0  0  0  0  0  0  0  0  0  0
   -5.4240   15.7130   -1.1270 N   0  0  0  0  0  0  0  0  0  0  0  0
   -4.7160   15.6130   -0.0000 C   0  0  0  0  0  0  0  0  0  0  0  0
  2  1  1  6
  2  3  1  0
  2  4  1  0
  3  5  1  0
  4  6  1  0
  4  7  2  0
  5  8  1  0
  6  9  1  0
  7 10  1  0
  9 10  2  0
  8 11  1  0
 11 12  1  0
 11 13  2  0
 12 14  1  0
 13 15  1  0
 14 15  2  0
M  END
