diamond-x0681_0_A-diamond-x0685_1_A
     RDKit          3D

 27 29  0  0  0  0  0  0  0  0999 V2000
   -4.2410   15.7340   -2.2980 N   0  0  0  0  0  0  0  0  0  0  0  0
   -3.4250   14.7560   -1.8280 C   0  0  0  0  0  0  0  0  0  0  0  0
   -2.4980   14.1510   -2.4730 N   0  0  0  0  0  0  0  0  0  0  0  0
   -3.6210   14.3020   -0.3810 C   0  0  2  0  0  0  0  0  0  0  0  0
   -1.7490   13.0940   -1.7870 C   0  0  0  0  0  0  0  0  0  0  0  0
   -4.7340   13.3040   -0.3430 C   0  0  0  0  0  0  0  0  0  0  0  0
   -3.8760   15.5100    0.5320 C   0  0  0  0  0  0  0  0  0  0  0  0
   -0.5740   13.6750   -1.0150 C   0  0  0  0  0  0  0  0  0  0  0  0
   -5.7240   13.3650    0.5880 N   0  0  0  0  0  0  0  0  0  0  0  0
   -4.4510   15.0500    1.8490 C   0  0  0  0  0  0  0  0  0  0  0  0
   -4.9240   12.2830   -1.1490 N   0  0  0  0  0  0  0  0  0  0  0  0
    0.6720   13.1830   -1.5160 O   0  0  0  0  0  0  0  0  0  0  0  0
   -5.8030   14.3760    1.6100 C   0  0  0  0  0  0  0  0  0  0  0  0
   -6.5890   12.3370    0.3770 C   0  0  0  0  0  0  0  0  0  0  0  0
   -6.0720   11.6760   -0.7110 C   0  0  0  0  0  0  0  0  0  0  0  0
    0.7970   12.1650   -2.7690 S   0  0  0  0  0  0  0  0  0  0  0  0
   -0.0810   12.8110   -4.1950 C   0  0  0  0  0  0  0  0  0  0  0  0
    2.3180   12.1320   -3.2650 O   0  0  0  0  0  0  0  0  0  0  0  0
    0.2630   10.6710   -2.4460 O   0  0  0  0  0  0  0  0  0  0  0  0
   -1.3670   12.0810   -4.6050 C   0  0  0  0  0  0  0  0  0  0  0  0
   -1.1790   10.6470   -4.8720 N   0  0  0  0  0  0  0  0  0  0  0  0
   -0.6570   10.3580   -6.2150 C   0  0  0  0  0  0  0  0  0  0  0  0
   -0.5450    8.8380   -6.4450 C   0  0  0  0  0  0  0  0  0  0  0  0
   -1.5370   11.0190   -7.2990 C   0  0  0  0  0  0  0  0  0  0  0  0
    0.0490    8.5580   -7.8140 C   0  0  0  0  0  0  0  0  0  0  0  0
   -1.0460   10.7090   -8.7070 C   0  0  0  0  0  0  0  0  0  0  0  0
   -0.7950    9.2090   -8.9180 C   0  0  0  0  0  0  0  0  0  0  0  0
  1  2  1  0
  2  3  2  3
  4  2  1  6
  3  5  1  0
  4  6  1  0
  4  7  1  0
  5  8  1  0
  6  9  1  0
  7 10  1  0
  6 11  2  0
  8 12  1  0
  9 13  1  0
 10 13  1  0
  9 14  1  0
 11 15  1  0
 14 15  2  0
 16 12  1  0
 16 17  1  0
 16 18  1  0
 16 19  1  0
 17 20  1  0
 20 21  1  0
 21 22  1  0
 22 23  1  0
 22 24  1  0
 23 25  1  0
 24 26  1  0
 25 27  1  0
 26 27  1  0
M  END
