diamond-x0962_2_B-diamond-x0290_0_A
     RDKit          3D

 21 22  0  0  0  0  0  0  0  0999 V2000
  -11.1640   16.3410    1.8630 N   0  0  0  0  0  0  0  0  0  0  0  0
  -10.0710   15.4320    1.6140 C   0  0  1  0  0  0  0  0  0  0  0  0
   -9.2930   15.8510    0.3540 C   0  0  0  0  0  0  0  0  0  0  0  0
   -9.2600   15.3090    2.8590 C   0  0  0  0  0  0  0  0  0  0  0  0
   -8.0920   14.9540   -0.0140 C   0  0  0  0  0  0  0  0  0  0  0  0
   -9.0920   16.3070    3.8000 N   0  0  0  0  0  0  0  0  0  0  0  0
   -8.5340   14.2520    3.3580 C   0  0  0  0  0  0  0  0  0  0  0  0
   -7.7630   13.9290    0.9910 N   0  0  0  0  0  0  0  0  0  0  0  0
   -8.2870   15.8080    4.7890 C   0  0  0  0  0  0  0  0  0  0  0  0
   -7.9430   14.5680    4.5470 N   0  0  0  0  0  0  0  0  0  0  0  0
   -6.4610   14.1760    1.6760 C   0  0  0  0  0  0  0  0  0  0  0  0
   -5.2840   14.4300    0.7140 C   0  0  0  0  0  0  0  0  0  0  0  0
   -5.4430   14.4030   -0.5020 O   0  0  0  0  0  0  0  0  0  0  0  0
   -4.1000   14.6680    1.3770 N   0  0  0  0  0  0  0  0  0  0  0  0
   -2.8200   14.6400    0.8450 C   0  0  0  0  0  0  0  0  0  0  0  0
   -1.8040   14.5810    1.7470 N   0  0  0  0  0  0  0  0  0  0  0  0
   -2.5990   14.6710   -0.5190 C   0  0  0  0  0  0  0  0  0  0  0  0
   -0.5450   14.5480    1.2570 C   0  0  0  0  0  0  0  0  0  0  0  0
   -1.2920   14.6340   -1.0030 C   0  0  0  0  0  0  0  0  0  0  0  0
   -1.0460   14.6620   -2.4800 C   0  0  0  0  0  0  0  0  0  0  0  0
   -0.2390   14.5750   -0.0910 C   0  0  0  0  0  0  0  0  0  0  0  0
  2  1  1  1
  2  3  1  0
  2  4  1  0
  3  5  1  0
  4  6  1  0
  4  7  2  0
  5  8  1  0
  6  9  1  0
  7 10  1  0
  9 10  2  0
  8 11  1  0
 11 12  1  0
 12 13  2  0
 12 14  1  0
 14 15  1  0
 15 16  2  0
 15 17  1  0
 16 18  1  0
 17 19  2  0
 19 20  1  0
 18 21  2  0
 19 21  1  0
M  END
