diamond-x1012_0_A-diamond-x0900_1_A
     RDKit          3D

 20 21  0  0  0  0  0  0  0  0999 V2000
   -0.2550   18.1580   -4.7140 N   0  0  0  0  0  0  0  0  0  0  0  0
   -1.2040   17.1960   -4.7760 C   0  0  0  0  0  0  0  0  0  0  0  0
   -2.3770   17.5420   -4.7570 O   0  0  0  0  0  0  0  0  0  0  0  0
   -0.7820   15.8830   -4.8240 N   0  0  0  0  0  0  0  0  0  0  0  0
   -1.7210   14.7560   -4.7620 C   0  0  0  0  0  0  0  0  0  0  0  0
    0.6610   15.5940   -4.7200 C   0  0  0  0  0  0  0  0  0  0  0  0
   -1.4060   13.7870   -3.6370 C   0  0  0  0  0  0  0  0  0  0  0  0
    0.9880   14.5750   -3.6190 C   0  0  0  0  0  0  0  0  0  0  0  0
    0.0580   13.3520   -3.7030 C   0  0  0  0  0  0  0  0  0  0  0  0
    0.3120   12.3050   -2.6230 C   0  0  0  0  0  0  0  0  0  0  0  0
    0.3770   11.0550   -3.1940 O   0  0  0  0  0  0  0  0  0  0  0  0
    0.4440   12.5450   -1.4170 O   0  0  0  0  0  0  0  0  0  0  0  0
   -0.7190   10.6320   -4.0610 C   0  0  0  0  0  0  0  0  0  0  0  0
   -0.3550   10.6030   -5.5630 C   0  0  0  0  0  0  0  0  0  0  0  0
   -0.3800    9.1820   -6.2070 C   0  0  2  0  0  0  0  0  0  0  0  0
    0.0990    9.1720   -7.5720 N   0  0  0  0  0  0  0  0  0  0  0  0
   -1.7930    8.6610   -6.4100 C   0  0  0  0  0  0  0  0  0  0  0  0
   -0.9140    9.4760   -8.4610 C   0  0  0  0  0  0  0  0  0  0  0  0
   -2.2220    9.2830   -7.7390 C   0  0  0  0  0  0  0  0  0  0  0  0
   -0.7650    9.8310   -9.6180 O   0  0  0  0  0  0  0  0  0  0  0  0
  1  2  1  0
  2  3  2  0
  2  4  1  0
  4  5  1  0
  4  6  1  0
  5  7  1  0
  6  8  1  0
  7  9  1  0
  8  9  1  0
  9 10  1  0
 10 11  1  0
 10 12  2  0
 11 13  1  0
 13 14  1  0
 15 14  1  6
 15 16  1  0
 15 17  1  0
 16 18  1  0
 17 19  1  0
 18 19  1  0
 18 20  2  0
M  END
