diamond-x0933_0_A-mac-x0546
     RDKit          3D

 25 27  0  0  0  0  0  0  0  0999 V2000
   -6.1980   14.6550    1.9050 N   0  0  0  0  0  0  0  0  0  0  0  0
   -5.1170   15.0260    1.0560 C   0  0  1  0  0  0  0  0  0  0  0  0
   -3.9610   14.4740    1.6300 N   0  0  0  0  0  0  0  0  0  0  0  0
   -5.3510   14.3140   -0.1510 N   0  0  0  0  0  0  0  0  0  0  0  0
   -4.2700   14.4880   -1.1430 C   0  0  2  0  0  0  0  0  0  0  0  0
   -2.7980   14.9620    0.9230 C   0  0  0  0  0  0  0  0  0  0  0  0
   -4.4010   13.3780   -2.2180 C   0  0  0  0  0  0  0  0  0  0  0  0
   -2.8390   14.5670   -0.5580 C   0  0  0  0  0  0  0  0  0  0  0  0
   -3.8540   13.6980   -3.6080 C   0  0  0  0  0  0  0  0  0  0  0  0
   -4.5570   14.9330   -4.1660 C   0  0  0  0  0  0  0  0  0  0  0  0
   -3.7530   15.6490   -5.1980 N   0  0  0  0  0  0  0  0  0  0  0  0
   -4.1650   15.1570   -6.5060 C   0  0  0  0  0  0  0  0  0  0  0  0
   -2.4190   15.8530   -4.8890 C   0  0  0  0  0  0  0  0  0  0  0  0
   -1.7200   14.8090   -4.4710 C   0  0  0  0  0  0  0  0  0  0  0  0
   -1.7530   17.1810   -4.9560 C   0  0  0  0  0  0  0  0  0  0  0  0
   -0.3470   14.9350   -4.0180 C   0  0  2  0  0  0  0  0  0  0  0  0
   -0.4140   17.3630   -4.8300 C   0  0  0  0  0  0  0  0  0  0  0  0
    0.3460   16.1160   -4.6350 C   0  0  0  0  0  0  0  0  0  0  0  0
    0.7150   13.9320   -4.2330 C   0  0  0  0  0  0  0  0  0  0  0  0
    0.6340   12.4680   -3.9860 C   0  0  0  0  0  0  0  0  0  0  0  0
    1.5770   15.9070   -4.9170 N   0  0  0  0  0  0  0  0  0  0  0  0
    1.7720   14.5640   -4.6680 C   0  0  0  0  0  0  0  0  0  0  0  0
    0.2870   12.0090   -2.5890 C   0  0  0  0  0  0  0  0  0  0  0  0
    0.4950   12.5310   -1.5050 O   0  0  0  0  0  0  0  0  0  0  0  0
   -0.3490   10.8210   -2.6420 O   0  0  0  0  0  0  0  0  0  0  0  0
  2  1  1  1
  2  3  1  0
  2  4  1  0
  4  5  1  0
  3  6  1  0
  5  7  1  6
  5  8  1  0
  6  8  1  0
  7  9  1  0
  9 10  1  0
 10 11  1  0
 11 12  1  0
 11 13  1  0
 13 14  2  0
 13 15  1  0
 16 14  1  6
 15 17  2  0
 16 18  1  0
 17 18  1  0
 16 19  1  0
 19 20  1  0
 18 21  2  0
 19 22  2  0
 21 22  1  0
 20 23  1  0
 23 24  2  0
 23 25  1  0
M  END
