diamond-x0628_0_A-mac-x0326
     RDKit          3D

 22 24  0  0  0  0  0  0  0  0999 V2000
   -0.4540    9.4600   -7.5520 C   0  0  0  0  0  0  0  0  0  0  0  0
   -0.6950   10.5030   -6.5370 C   0  0  0  0  0  0  0  0  0  0  0  0
   -1.8110   10.5000   -5.7650 N   0  0  0  0  0  0  0  0  0  0  0  0
    0.1530   11.5200   -6.2980 N   0  0  0  0  0  0  0  0  0  0  0  0
   -0.4840   12.1940   -5.2940 N   0  0  0  0  0  0  0  0  0  0  0  0
   -1.6680   11.5570   -4.9910 C   0  0  0  0  0  0  0  0  0  0  0  0
   -2.6600   11.9540   -3.9640 C   0  0  0  0  0  0  0  0  0  0  0  0
    0.1380   13.4080   -4.7090 C   0  0  2  0  0  0  0  0  0  0  0  0
    1.5290   13.0890   -4.2040 C   0  0  0  0  0  0  0  0  0  0  0  0
   -0.7740   13.9500   -3.6060 C   0  0  0  0  0  0  0  0  0  0  0  0
    1.4110   12.3070   -2.9410 C   0  0  0  0  0  0  0  0  0  0  0  0
   -2.0180   14.2850   -3.8320 N   0  0  0  0  0  0  0  0  0  0  0  0
   -0.2940   14.1260   -1.9390 S   0  0  0  0  0  0  0  0  0  0  0  0
    0.8380   11.2410   -2.7690 O   0  0  0  0  0  0  0  0  0  0  0  0
    2.0070   12.9400   -1.9220 O   0  0  0  0  0  0  0  0  0  0  0  0
   -2.6660   14.6450   -2.6690 C   0  0  0  0  0  0  0  0  0  0  0  0
   -1.8940   14.6150   -1.5110 C   0  0  0  0  0  0  0  0  0  0  0  0
   -4.0140   15.0090   -2.5940 C   0  0  0  0  0  0  0  0  0  0  0  0
   -2.4440   14.9450   -0.2520 C   0  0  0  0  0  0  0  0  0  0  0  0
   -4.5650   15.3250   -1.3590 C   0  0  0  0  0  0  0  0  0  0  0  0
   -3.7980   15.3010   -0.1980 C   0  0  0  0  0  0  0  0  0  0  0  0
   -6.2290   15.7360   -1.2850 Cl  0  0  0  0  0  0  0  0  0  0  0  0
  1  2  1  0
  2  3  1  0
  2  4  2  0
  4  5  1  0
  3  6  2  0
  5  6  1  0
  6  7  1  0
  5  8  1  0
  8  9  1  1
  8 10  1  0
  9 11  1  0
 10 12  2  0
 10 13  1  0
 11 14  2  0
 11 15  1  0
 12 16  1  0
 13 17  1  0
 16 17  2  0
 16 18  1  0
 17 19  1  0
 18 20  2  0
 19 21  2  0
 20 21  1  0
 20 22  1  0
M  END
