diamond-x0727_0_A-diamond-x0950_0_A
     RDKit          3D

 14 14  0  0  0  0  0  0  0  0999 V2000
    0.0330   11.5750   -5.6730 N   0  0  0  0  0  0  0  0  0  0  0  0
    0.8960   12.2120   -4.6780 C   0  0  1  0  0  0  0  0  0  0  0  0
    0.9390   13.7160   -4.7770 C   0  0  0  0  0  0  0  0  0  0  0  0
    0.6570   11.1420   -6.8190 C   0  0  0  0  0  0  0  0  0  0  0  0
    1.6650   11.6770   -7.2010 O   0  0  0  0  0  0  0  0  0  0  0  0
    0.5060   11.7740   -3.2720 C   0  0  0  0  0  0  0  0  0  0  0  0
    0.0310    9.9510   -7.5270 C   0  0  0  0  0  0  0  0  0  0  0  0
   -0.1320   10.7720   -2.9870 O   0  0  0  0  0  0  0  0  0  0  0  0
    0.9400   12.6130   -2.3130 O   0  0  0  0  0  0  0  0  0  0  0  0
    2.2680   14.1400   -4.1810 C   0  0  0  0  0  0  0  0  0  0  0  0
   -1.2910   10.2900   -8.2250 C   0  0  0  0  0  0  0  0  0  0  0  0
   -0.2720    8.7690   -6.5870 C   0  0  0  0  0  0  0  0  0  0  0  0
   -2.1550    9.0500   -8.0520 C   0  0  0  0  0  0  0  0  0  0  0  0
   -1.7690    8.5280   -6.6800 C   0  0  0  0  0  0  0  0  0  0  0  0
  1  2  1  0
  2  3  1  1
  1  4  1  0
  4  5  2  0
  2  6  1  0
  4  7  1  0
  6  8  2  0
  6  9  1  0
  3 10  1  0
  7 11  1  0
  7 12  1  0
 11 13  1  0
 12 14  1  0
 13 14  1  0
M  END
