diamond-x0711_0_A-mac-x0360
     RDKit          3D

 25 26  0  0  0  0  0  0  0  0999 V2000
   -2.0200   14.8910   -1.7330 N   0  0  0  0  0  0  0  0  0  0  0  0
   -1.0120   14.0200   -2.8120 S   0  0  0  0  0  0  0  0  0  0  0  0
   -2.1000   13.0590   -3.8400 C   0  0  0  0  0  0  0  0  0  0  0  0
   -2.4020   14.2620   -0.1730 S   0  0  0  0  0  0  0  0  0  0  0  0
   -3.4010   14.9460   -1.7000 C   0  0  0  0  0  0  0  0  0  0  0  0
   -0.3590   14.9460   -3.7230 O   0  0  0  0  0  0  0  0  0  0  0  0
   -0.1830   13.0940   -2.0690 O   0  0  0  0  0  0  0  0  0  0  0  0
   -3.0640   15.3930    0.4820 O   0  0  0  0  0  0  0  0  0  0  0  0
   -1.2780   13.6760    0.4800 O   0  0  0  0  0  0  0  0  0  0  0  0
   -4.3890   14.9510   -2.6670 C   0  0  0  0  0  0  0  0  0  0  0  0
   -3.7070   14.9910   -0.3510 C   0  0  0  0  0  0  0  0  0  0  0  0
   -3.7800   13.0400   -0.3150 C   0  0  0  0  0  0  0  0  0  0  0  0
   -5.7230   14.9740   -2.1900 C   0  0  0  0  0  0  0  0  0  0  0  0
   -4.9700   15.0150    0.1050 C   0  0  0  0  0  0  0  0  0  0  0  0
   -3.8250   12.1470   -1.4040 C   0  0  0  0  0  0  0  0  0  0  0  0
   -4.8260   12.9630    0.6580 C   0  0  0  0  0  0  0  0  0  0  0  0
   -5.9880   14.9950   -0.7900 C   0  0  0  0  0  0  0  0  0  0  0  0
   -4.8730   11.2180   -1.5110 C   0  0  0  0  0  0  0  0  0  0  0  0
   -5.8680   12.0200    0.5160 C   0  0  0  0  0  0  0  0  0  0  0  0
   -7.3350   14.9850   -0.2050 C   0  0  0  0  0  0  0  0  0  0  0  0
   -7.1480   11.9000    1.6720 Cl  0  0  0  0  0  0  0  0  0  0  0  0
   -4.9150   10.1190   -2.8340 Cl  0  0  0  0  0  0  0  0  0  0  0  0
   -5.8900   11.1550   -0.5660 C   0  0  0  0  0  0  0  0  0  0  0  0
   -7.3950   14.6930    1.1390 N   0  0  0  0  0  0  0  0  0  0  0  0
   -8.3360   15.2080   -0.8510 O   0  0  0  0  0  0  0  0  0  0  0  0
  2  1  1  0
  2  3  1  0
  4  1  1  0
  1  5  1  0
  2  6  2  0
  2  7  2  0
  4  8  2  0
  4  9  2  0
  5 10  2  0
  5 11  1  0
  4 12  1  0
 10 13  1  0
 11 14  2  0
 12 15  2  0
 12 16  1  0
 13 17  2  0
 14 17  1  0
 15 18  1  0
 16 19  2  0
 17 20  1  0
 19 21  1  0
 18 22  1  0
 18 23  2  0
 19 23  1  0
 20 24  1  0
 20 25  2  0
M  END
