diamond-x0438_0_A-mac-x0587
     RDKit          3D

 24 25  0  0  0  0  0  0  0  0999 V2000
   -8.0120   15.4540    3.7650 C   0  0  0  0  0  0  0  0  0  0  0  0
   -9.1760   15.2670    2.4250 S   0  0  0  0  0  0  0  0  0  0  0  0
  -10.3720   14.6650    2.9860 O   0  0  0  0  0  0  0  0  0  0  0  0
   -8.4540   14.1320    1.2630 C   0  0  0  0  0  0  0  0  0  0  0  0
   -9.3150   16.5300    1.7370 O   0  0  0  0  0  0  0  0  0  0  0  0
   -7.0780   14.4370    0.7310 C   0  0  0  0  0  0  0  0  0  0  0  0
   -6.9000   14.5980   -0.6490 N   0  0  0  0  0  0  0  0  0  0  0  0
   -5.9820   14.5360    1.4420 N   0  0  0  0  0  0  0  0  0  0  0  0
   -4.9750   14.6940    0.5100 C   0  0  0  0  0  0  0  0  0  0  0  0
   -5.6070   14.7580   -0.7930 C   0  0  0  0  0  0  0  0  0  0  0  0
   -4.7890   14.9400   -2.0100 C   0  0  0  0  0  0  0  0  0  0  0  0
   -3.6420   14.7600    0.6510 C   0  0  0  0  0  0  0  0  0  0  0  0
   -3.4250   14.9840   -1.9200 C   0  0  0  0  0  0  0  0  0  0  0  0
   -2.7730   14.8840   -0.5680 C   0  0  0  0  0  0  0  0  0  0  0  0
   -2.6030   15.1220   -3.2240 C   0  0  0  0  0  0  0  0  0  0  0  0
   -1.5410   14.8860   -0.4480 O   0  0  0  0  0  0  0  0  0  0  0  0
   -1.1010   14.6940   -3.3920 C   0  0  2  0  0  0  0  0  0  0  0  0
   -3.1900   15.5810   -4.1980 O   0  0  0  0  0  0  0  0  0  0  0  0
   -0.1600   15.8480   -3.7690 C   0  0  0  0  0  0  0  0  0  0  0  0
   -0.8410   13.3370   -4.6270 S   0  0  0  0  0  0  0  0  0  0  0  0
   -0.8610   11.7760   -3.6630 C   0  0  0  0  0  0  0  0  0  0  0  0
    0.4100   11.4880   -2.9090 C   0  0  0  0  0  0  0  0  0  0  0  0
    0.6370   10.4610   -2.2840 O   0  0  0  0  0  0  0  0  0  0  0  0
    1.3110   12.4840   -2.9680 O   0  0  0  0  0  0  0  0  0  0  0  0
  2  1  1  0
  2  3  2  0
  2  4  1  0
  2  5  2  0
  4  6  1  0
  6  7  1  0
  6  8  2  0
  8  9  1  0
  7 10  2  0
  9 10  1  0
 10 11  1  0
  9 12  2  0
 11 13  2  0
 12 14  1  0
 13 14  1  0
 13 15  1  0
 14 16  2  0
 15 17  1  0
 15 18  2  0
 17 19  1  6
 17 20  1  0
 20 21  1  0
 21 22  1  0
 22 23  2  0
 22 24  1  0
M  END
