diamond-x0727_0_A-mac-x0228
     RDKit          3D

 26 28  0  0  0  0  0  0  0  0999 V2000
    0.0570   12.0380   -5.5470 N   0  0  0  0  0  0  0  0  0  0  0  0
    0.9420   12.6320   -4.5380 C   0  0  1  0  0  0  0  0  0  0  0  0
    0.5920   14.1070   -4.2700 C   0  0  0  0  0  0  0  0  0  0  0  0
    0.4660   11.2580   -6.5910 C   0  0  0  0  0  0  0  0  0  0  0  0
    1.5470   11.4160   -7.1390 O   0  0  0  0  0  0  0  0  0  0  0  0
    0.9170   11.8530   -3.2230 C   0  0  0  0  0  0  0  0  0  0  0  0
   -0.5780   10.2150   -6.9360 C   0  0  0  0  0  0  0  0  0  0  0  0
    0.3810   10.7710   -3.0220 O   0  0  0  0  0  0  0  0  0  0  0  0
    1.5840   12.5220   -2.2430 O   0  0  0  0  0  0  0  0  0  0  0  0
   -0.6850   14.5480   -4.9880 C   0  0  0  0  0  0  0  0  0  0  0  0
   -1.0340   10.1460   -8.3780 C   0  0  0  0  0  0  0  0  0  0  0  0
   -0.2160    8.7620   -6.6790 C   0  0  0  0  0  0  0  0  0  0  0  0
   -1.9160   14.6290   -4.1730 N   0  0  0  0  0  0  0  0  0  0  0  0
   -1.9770    8.9430   -8.3250 C   0  0  0  0  0  0  0  0  0  0  0  0
   -1.4780    8.0720   -7.1660 C   0  0  0  0  0  0  0  0  0  0  0  0
   -2.0900   14.6860   -2.8890 C   0  0  0  0  0  0  0  0  0  0  0  0
   -1.0580   14.6740   -2.0230 O   0  0  0  0  0  0  0  0  0  0  0  0
   -3.3980   14.7740   -2.2010 C   0  0  0  0  0  0  0  0  0  0  0  0
   -3.5490   14.5770   -0.8220 C   0  0  0  0  0  0  0  0  0  0  0  0
   -4.5100   15.0650   -3.0060 C   0  0  0  0  0  0  0  0  0  0  0  0
   -4.8330   14.6780   -0.3000 C   0  0  0  0  0  0  0  0  0  0  0  0
   -5.7880   15.1660   -2.4590 C   0  0  0  0  0  0  0  0  0  0  0  0
   -5.9230   14.9680   -1.1050 C   0  0  0  0  0  0  0  0  0  0  0  0
   -5.3040   14.5140    1.0850 C   0  0  0  0  0  0  0  0  0  0  0  0
   -7.1140   15.0300   -0.4350 O   0  0  0  0  0  0  0  0  0  0  0  0
   -6.8080   14.4180    0.8420 C   0  0  0  0  0  0  0  0  0  0  0  0
  1  2  1  0
  2  3  1  1
  1  4  1  0
  4  5  2  0
  2  6  1  0
  4  7  1  0
  6  8  2  0
  6  9  1  0
  3 10  1  0
  7 11  1  0
  7 12  1  0
 10 13  1  0
 11 14  1  0
 12 15  1  0
 14 15  1  0
 13 16  2  3
 16 17  1  0
 16 18  1  0
 18 19  2  0
 18 20  1  0
 19 21  1  0
 20 22  2  0
 21 23  2  0
 22 23  1  0
 21 24  1  0
 23 25  1  0
 24 26  1  0
 25 26  1  0
M  END
