diamond-x0685_0_A-diamond-x0962_0_A
     RDKit          3D

 11 11  0  0  0  0  0  0  0  0999 V2000
   -5.9910   14.9750    2.5520 N   0  0  0  0  0  0  0  0  0  0  0  0
   -6.9830   13.9140    2.6180 C   0  0  0  0  0  0  0  0  0  0  0  0
   -8.0800   14.2790    3.5910 C   0  0  0  0  0  0  0  0  0  0  0  0
   -5.2930   14.9990    1.3600 C   0  0  0  0  0  0  0  0  0  0  0  0
   -3.9110   15.0430    1.3060 C   0  0  0  0  0  0  0  0  0  0  0  0
   -6.0650   14.9800    0.2600 N   0  0  0  0  0  0  0  0  0  0  0  0
   -3.2890   15.0750    0.0660 C   0  0  0  0  0  0  0  0  0  0  0  0
   -5.4440   15.0180   -0.9380 C   0  0  0  0  0  0  0  0  0  0  0  0
   -4.0700   15.0670   -1.0830 C   0  0  0  0  0  0  0  0  0  0  0  0
   -3.4980   15.1080   -2.3840 C   0  0  0  0  0  0  0  0  0  0  0  0
   -3.0390   15.1480   -3.4490 N   0  0  0  0  0  0  0  0  0  0  0  0
  1  2  1  0
  2  3  1  0
  1  4  1  0
  4  5  2  0
  4  6  1  0
  5  7  1  0
  6  8  2  0
  7  9  2  0
  8  9  1  0
  9 10  1  0
 10 11  3  0
M  END
