diamond-x0969_0_A-mac-x0283
     RDKit          3D

 10 11  0  0  0  0  0  0  0  0999 V2000
   -6.8060   14.7050    2.5720 N   0  0  0  0  0  0  0  0  0  0  0  0
   -6.6030   14.7370    1.2340 C   0  0  0  0  0  0  0  0  0  0  0  0
   -7.5370   14.6420    0.3120 N   0  0  0  0  0  0  0  0  0  0  0  0
   -5.3700   14.8890    0.6200 N   0  0  0  0  0  0  0  0  0  0  0  0
   -6.9430   14.7360   -0.9250 N   0  0  0  0  0  0  0  0  0  0  0  0
   -5.6510   14.8830   -0.7410 C   0  0  0  0  0  0  0  0  0  0  0  0
   -4.0780   15.0270    1.1320 C   0  0  0  0  0  0  0  0  0  0  0  0
   -4.5670   15.0260   -1.6410 C   0  0  0  0  0  0  0  0  0  0  0  0
   -3.0490   15.1520    0.2780 C   0  0  0  0  0  0  0  0  0  0  0  0
   -3.3200   15.1500   -1.1550 C   0  0  0  0  0  0  0  0  0  0  0  0
  1  2  1  0
  2  3  2  0
  2  4  1  0
  3  5  1  0
  4  6  1  0
  5  6  2  0
  4  7  1  0
  6  8  1  0
  7  9  2  0
  8 10  2  0
  9 10  1  0
M  END
