diamond-x0933_0_A-mac-x0417
     RDKit          3D

 23 25  0  0  0  0  0  0  0  0999 V2000
   -6.1030   14.6390    1.6210 N   0  0  0  0  0  0  0  0  0  0  0  0
   -4.9770   15.1490    0.9310 C   0  0  1  0  0  0  0  0  0  0  0  0
   -3.9360   14.3480    1.4120 N   0  0  0  0  0  0  0  0  0  0  0  0
   -5.1960   14.8870   -0.4620 N   0  0  0  0  0  0  0  0  0  0  0  0
   -3.9650   15.0430   -1.2640 C   0  0  0  0  0  0  0  0  0  0  0  0
   -2.6790   14.7500    0.8420 C   0  0  0  0  0  0  0  0  0  0  0  0
   -2.7360   14.3400   -0.6350 C   0  0  2  0  0  0  0  0  0  0  0  0
   -1.4000   14.5760   -1.3710 C   0  0  0  0  0  0  0  0  0  0  0  0
   -0.4780   13.3560   -1.3510 C   0  0  0  0  0  0  0  0  0  0  0  0
    0.9540   13.7260   -1.7520 C   0  0  0  0  0  0  0  0  0  0  0  0
    1.5720   12.6960   -2.5370 O   0  0  0  0  0  0  0  0  0  0  0  0
    0.7520   11.9290   -3.3100 C   0  0  0  0  0  0  0  0  0  0  0  0
    0.3920   10.8020   -3.0050 O   0  0  0  0  0  0  0  0  0  0  0  0
    0.3580   12.6510   -4.5820 C   0  0  0  0  0  0  0  0  0  0  0  0
    0.2730   11.7140   -5.7340 C   0  0  0  0  0  0  0  0  0  0  0  0
    1.2390   11.7150   -6.6530 N   0  0  0  0  0  0  0  0  0  0  0  0
   -0.7330   10.7580   -6.0280 C   0  0  0  0  0  0  0  0  0  0  0  0
    0.8740   10.7430   -7.5800 O   0  0  0  0  0  0  0  0  0  0  0  0
   -0.3010   10.1750   -7.2050 C   0  0  0  0  0  0  0  0  0  0  0  0
   -1.9360   10.3190   -5.4560 C   0  0  0  0  0  0  0  0  0  0  0  0
   -0.9880    9.1620   -7.8740 C   0  0  0  0  0  0  0  0  0  0  0  0
   -2.6540    9.3020   -6.1000 C   0  0  0  0  0  0  0  0  0  0  0  0
   -2.1860    8.7360   -7.2880 C   0  0  0  0  0  0  0  0  0  0  0  0
  2  1  1  1
  2  3  1  0
  2  4  1  0
  4  5  1  0
  3  6  1  0
  5  7  1  0
  6  7  1  0
  7  8  1  6
  8  9  1  0
  9 10  1  0
 10 11  1  0
 11 12  1  0
 12 13  2  0
 12 14  1  0
 14 15  1  0
 15 16  2  0
 15 17  1  0
 16 18  1  0
 17 19  2  0
 18 19  1  0
 17 20  1  0
 19 21  1  0
 20 22  2  0
 21 23  2  0
 22 23  1  0
M  END
