diamond-x0950_0_A-mac-x0510
     RDKit          3D

 18 19  0  0  0  0  0  0  0  0999 V2000
    2.8660   12.9680   -3.9430 C   0  0  0  0  0  0  0  0  0  0  0  0
    1.3500   12.9610   -4.0230 C   0  0  1  0  0  0  0  0  0  0  0  0
    0.9720   12.2830   -5.2240 O   0  0  0  0  0  0  0  0  0  0  0  0
    0.7260   12.2990   -2.7860 C   0  0  0  0  0  0  0  0  0  0  0  0
    0.3350   11.1340   -2.7940 O   0  0  0  0  0  0  0  0  0  0  0  0
    0.6740   13.1320   -1.6870 O   0  0  0  0  0  0  0  0  0  0  0  0
   -0.1640   14.3260   -1.7540 C   0  0  0  0  0  0  0  0  0  0  0  0
   -0.9780   14.4940   -0.5390 N   0  0  0  0  0  0  0  0  0  0  0  0
   -2.3210   14.7990   -0.4520 C   0  0  0  0  0  0  0  0  0  0  0  0
   -0.5420   14.3740    0.7620 C   0  0  0  0  0  0  0  0  0  0  0  0
   -2.5950   14.8190    0.8900 C   0  0  0  0  0  0  0  0  0  0  0  0
   -3.3260   15.0620   -1.4300 C   0  0  0  0  0  0  0  0  0  0  0  0
   -1.5040   14.5680    1.6460 N   0  0  0  0  0  0  0  0  0  0  0  0
   -3.1260   15.1940   -2.6300 O   0  0  0  0  0  0  0  0  0  0  0  0
   -3.8570   15.0660    1.3540 N   0  0  0  0  0  0  0  0  0  0  0  0
   -4.5770   15.1810   -0.8780 N   0  0  0  0  0  0  0  0  0  0  0  0
   -4.8940   15.0760    0.4540 C   0  0  0  0  0  0  0  0  0  0  0  0
   -6.0620   14.9810    0.8100 O   0  0  0  0  0  0  0  0  0  0  0  0
  2  1  1  1
  2  3  1  0
  2  4  1  0
  4  5  2  0
  4  6  1  0
  6  7  1  0
  7  8  1  0
  8  9  1  0
  8 10  1  0
  9 11  2  0
  9 12  1  0
 10 13  2  0
 11 13  1  0
 12 14  2  0
 11 15  1  0
 12 16  1  0
 15 17  1  0
 16 17  1  0
 17 18  2  0
M  END
