diamond-x1018_0_A-mac-x0142
     RDKit          3D

 23 27  0  0  0  0  0  0  0  0999 V2000
   -8.1470   14.4730    0.6020 Cl  0  0  0  0  0  0  0  0  0  0  0  0
   -6.4750   14.8220    0.0720 C   0  0  1  0  0  0  0  0  0  0  0  0
   -5.5470   14.6930    1.2320 C   0  0  0  0  0  0  0  0  0  0  0  0
   -6.1640   13.8730   -0.9760 N   0  0  0  0  0  0  0  0  0  0  0  0
   -4.7850   13.9660   -1.4070 N   0  0  0  0  0  0  0  0  0  0  0  0
   -4.2730   14.3000    1.0400 C   0  0  0  0  0  0  0  0  0  0  0  0
   -4.5580   15.0270   -2.3140 N   0  0  0  0  0  0  0  0  0  0  0  0
   -3.7200   13.9770   -0.3480 C   0  0  2  0  0  0  0  0  0  0  0  0
   -2.7070   15.0450   -0.8540 C   0  0  1  0  0  0  0  0  0  0  0  0
   -3.4900   15.8560   -1.8320 N   0  0  0  0  0  0  0  0  0  0  0  0
   -2.2410   15.8310    0.3810 C   0  0  0  0  0  0  0  0  0  0  0  0
   -1.2480   14.7950   -1.4910 C   0  0  2  0  0  0  0  0  0  0  0  0
   -0.9450   14.3710   -2.8500 N   0  0  0  0  0  0  0  0  0  0  0  0
   -0.3430   14.0540   -0.5960 N   0  0  0  0  0  0  0  0  0  0  0  0
   -1.5290   14.9780    1.3170 N   0  0  0  0  0  0  0  0  0  0  0  0
   -1.9570   14.2120   -3.8720 C   0  0  0  0  0  0  0  0  0  0  0  0
    0.3530   14.7730   -3.3850 C   0  0  0  0  0  0  0  0  0  0  0  0
   -0.2460   14.5790    0.7610 C   0  0  0  0  0  0  0  0  0  0  0  0
    0.8540   13.6070   -4.2020 C   0  0  0  0  0  0  0  0  0  0  0  0
   -1.5180   13.1240   -4.8700 C   0  0  0  0  0  0  0  0  0  0  0  0
    2.3310   13.3160   -4.3330 C   0  0  0  0  0  0  0  0  0  0  0  0
    1.4850   12.4870   -3.4140 C   0  0  0  0  0  0  0  0  0  0  0  0
   -0.0590   13.2450   -5.3440 C   0  0  0  0  0  0  0  0  0  0  0  0
  2  1  1  1
  2  3  1  0
  2  4  1  0
  4  5  1  0
  3  6  2  0
  5  7  1  0
  5  8  1  0
  8  6  1  1
  8  9  1  0
  7 10  1  0
  9 10  1  0
  9 11  1  1
  9 12  1  0
 12 13  1  6
 12 14  1  0
 11 15  1  0
 13 16  1  0
 13 17  1  0
 14 18  1  0
 15 18  1  0
 19 17  1  0
 16 20  1  0
 19 21  1  0
 19 22  1  0
 21 22  1  0
 19 23  1  0
 20 23  1  0
M  END
