diamond-x0685_0_A-mac-x0361
     RDKit          3D

 12 12  0  0  0  0  0  0  0  0999 V2000
   -6.0460   14.9280    2.5970 N   0  0  0  0  0  0  0  0  0  0  0  0
   -7.4790   14.7820    2.8320 C   0  0  0  0  0  0  0  0  0  0  0  0
   -7.8930   13.3350    3.0520 C   0  0  0  0  0  0  0  0  0  0  0  0
   -5.5210   14.3210    1.3980 C   0  0  2  0  0  0  0  0  0  0  0  0
   -4.0330   14.5610    1.2740 C   0  0  0  0  0  0  0  0  0  0  0  0
   -6.3300   14.8730    0.2960 N   0  0  0  0  0  0  0  0  0  0  0  0
   -3.4410   15.0390    0.1700 C   0  0  0  0  0  0  0  0  0  0  0  0
   -5.6510   14.7430   -1.0020 C   0  0  0  0  0  0  0  0  0  0  0  0
   -7.5730   14.1210    0.2030 O   0  0  0  0  0  0  0  0  0  0  0  0
   -4.2600   15.3840   -1.0500 C   0  0  2  0  0  0  0  0  0  0  0  0
   -3.5540   15.1090   -2.3140 C   0  0  0  0  0  0  0  0  0  0  0  0
   -3.0270   14.9530   -3.3340 N   0  0  0  0  0  0  0  0  0  0  0  0
  1  2  1  0
  2  3  1  0
  4  1  1  1
  4  5  1  0
  4  6  1  0
  5  7  2  0
  6  8  1  0
  6  9  1  0
  7 10  1  0
  8 10  1  0
 10 11  1  6
 11 12  3  0
M  END
