diamond-x0926_0_A-mac-x0437
     RDKit          3D

 24 26  0  0  0  0  0  0  0  0999 V2000
   -6.6850   15.0620   -0.5410 O   0  0  0  0  0  0  0  0  0  0  0  0
   -5.4710   15.1520   -0.4080 C   0  0  0  0  0  0  0  0  0  0  0  0
   -4.8450   15.1520    0.9380 C   0  0  0  0  0  0  0  0  0  0  0  0
   -4.6030   15.2460   -1.4730 N   0  0  0  0  0  0  0  0  0  0  0  0
   -3.2230   14.9590   -1.3280 N   0  0  0  0  0  0  0  0  0  0  0  0
   -3.5280   15.3400    1.0640 C   0  0  0  0  0  0  0  0  0  0  0  0
   -2.6360   15.5600   -0.1180 C   0  0  1  0  0  0  0  0  0  0  0  0
   -1.1810   15.0980    0.1160 C   0  0  0  0  0  0  0  0  0  0  0  0
   -0.3980   14.8020   -1.1730 C   0  0  0  0  0  0  0  0  0  0  0  0
    0.2140   13.3980   -1.1500 C   0  0  0  0  0  0  0  0  0  0  0  0
    1.3110   13.2160   -2.0710 O   0  0  0  0  0  0  0  0  0  0  0  0
    1.1490   12.3500   -3.0990 C   0  0  0  0  0  0  0  0  0  0  0  0
    0.7320   11.2070   -2.9900 O   0  0  0  0  0  0  0  0  0  0  0  0
    1.5660   12.9990   -4.4030 C   0  0  0  0  0  0  0  0  0  0  0  0
    0.4010   13.1520   -5.3800 C   0  0  0  0  0  0  0  0  0  0  0  0
   -0.4700   12.0070   -5.5790 N   0  0  0  0  0  0  0  0  0  0  0  0
   -1.6140   11.6900   -4.9060 C   0  0  0  0  0  0  0  0  0  0  0  0
   -0.2590   11.0270   -6.5200 C   0  0  0  0  0  0  0  0  0  0  0  0
   -2.1520   10.5730   -5.3460 N   0  0  0  0  0  0  0  0  0  0  0  0
   -1.3210   10.1460   -6.3490 C   0  0  0  0  0  0  0  0  0  0  0  0
    0.7300   10.8280   -7.4800 C   0  0  0  0  0  0  0  0  0  0  0  0
   -1.4140    9.0060   -7.1610 C   0  0  0  0  0  0  0  0  0  0  0  0
    0.6260    9.6850   -8.2850 C   0  0  0  0  0  0  0  0  0  0  0  0
   -0.4290    8.7870   -8.1280 C   0  0  0  0  0  0  0  0  0  0  0  0
  1  2  2  0
  2  3  1  0
  2  4  1  0
  4  5  1  0
  3  6  2  0
  5  7  1  0
  6  7  1  0
  7  8  1  1
  8  9  1  0
  9 10  1  0
 10 11  1  0
 11 12  1  0
 12 13  2  0
 12 14  1  0
 14 15  1  0
 15 16  1  0
 16 17  1  0
 16 18  1  0
 17 19  2  0
 18 20  2  0
 19 20  1  0
 18 21  1  0
 20 22  1  0
 21 23  2  0
 22 24  2  0
 23 24  1  0
M  END
