diamond-x0676_0_B-diamond-x0900_1_A
     RDKit          3D

 21 23  0  0  0  0  0  0  0  0999 V2000
    5.7380    6.6490   -9.0960 C   0  0  0  0  0  0  0  0  0  0  0  0
    4.7570    7.1930  -10.0760 C   0  0  0  0  0  0  0  0  0  0  0  0
    5.0820    7.6470  -11.2490 N   0  0  0  0  0  0  0  0  0  0  0  0
    3.2850    7.2630   -9.7710 C   0  0  0  0  0  0  0  0  0  0  0  0
    2.8310    8.0590  -10.9770 C   0  0  0  0  0  0  0  0  0  0  0  0
    3.8990    8.0950  -11.8440 N   0  0  0  0  0  0  0  0  0  0  0  0
    1.6950    8.6060  -11.1620 N   0  0  0  0  0  0  0  0  0  0  0  0
    4.0220    9.1300  -12.8230 C   0  0  0  0  0  0  0  0  0  0  0  0
    0.6220    8.5760  -10.2030 C   0  0  0  0  0  0  0  0  0  0  0  0
    3.0850   10.1970  -12.8480 C   0  0  0  0  0  0  0  0  0  0  0  0
    5.0310    9.1710  -13.7880 C   0  0  0  0  0  0  0  0  0  0  0  0
    0.0080    9.9770  -10.2050 C   0  0  0  0  0  0  0  0  0  0  0  0
    3.1580   11.2380  -13.7790 C   0  0  0  0  0  0  0  0  0  0  0  0
    5.1060   10.2110  -14.7260 C   0  0  0  0  0  0  0  0  0  0  0  0
   -1.2160    9.9370   -9.4280 N   0  0  0  0  0  0  0  0  0  0  0  0
    4.1730   11.2440  -14.7220 C   0  0  0  0  0  0  0  0  0  0  0  0
   -1.0750    9.4720   -8.2520 C   0  0  0  0  0  0  0  0  0  0  0  0
    0.0400    9.0080   -7.6060 N   0  0  0  0  0  0  0  0  0  0  0  0
   -2.2560    9.3660   -7.3290 C   0  0  0  0  0  0  0  0  0  0  0  0
   -1.8310    8.2000   -6.4360 C   0  0  0  0  0  0  0  0  0  0  0  0
   -0.3030    8.2310   -6.4290 C   0  0  0  0  0  0  0  0  0  0  0  0
  1  2  1  0
  2  3  2  0
  2  4  1  0
  4  5  1  0
  3  6  1  0
  5  6  1  0
  5  7  2  3
  6  8  1  0
  7  9  1  0
  8 10  2  0
  8 11  1  0
  9 12  1  0
 10 13  1  0
 11 14  2  0
 12 15  1  0
 13 16  2  0
 14 16  1  0
 15 17  2  3
 17 18  1  0
 17 19  1  0
 19 20  1  0
 18 21  1  0
 20 21  1  0
M  END
