diamond-x0711_0_A-mac-x0392
     RDKit          3D

 15 15  0  0  0  0  0  0  0  0999 V2000
   -1.5000   15.0670   -2.6350 N   0  0  0  0  0  0  0  0  0  0  0  0
   -0.4830   13.8190   -3.0930 S   0  0  0  0  0  0  0  0  0  0  0  0
   -1.5940   12.7750   -4.0010 C   0  0  0  0  0  0  0  0  0  0  0  0
   -2.7060   14.9290   -1.8630 C   0  0  0  0  0  0  0  0  0  0  0  0
    0.4070   14.4300   -4.0600 O   0  0  0  0  0  0  0  0  0  0  0  0
    0.0250   13.1060   -1.9420 O   0  0  0  0  0  0  0  0  0  0  0  0
   -3.9560   15.1560   -2.4300 C   0  0  0  0  0  0  0  0  0  0  0  0
   -2.5830   14.5700   -0.4980 C   0  0  0  0  0  0  0  0  0  0  0  0
   -1.2710   14.3460    0.0560 N   0  0  0  0  0  0  0  0  0  0  0  0
   -5.1050   15.0360   -1.6580 C   0  0  0  0  0  0  0  0  0  0  0  0
   -3.7580   14.4500    0.2830 C   0  0  0  0  0  0  0  0  0  0  0  0
   -5.0210   14.6870   -0.3070 C   0  0  0  0  0  0  0  0  0  0  0  0
   -6.3250   14.5890    0.4260 C   0  0  0  0  0  0  0  0  0  0  0  0
   -6.3490   14.7100    1.7880 N   0  0  0  0  0  0  0  0  0  0  0  0
   -7.3780   14.4190   -0.1830 O   0  0  0  0  0  0  0  0  0  0  0  0
  2  1  1  0
  2  3  1  0
  1  4  1  0
  2  5  2  0
  2  6  2  0
  4  7  2  0
  4  8  1  0
  8  9  1  0
  7 10  1  0
  8 11  2  0
 10 12  2  0
 11 12  1  0
 12 13  1  0
 13 14  1  0
 13 15  2  0
M  END
