diamond-x0626_0_A-diamond-x0962_0_A
     RDKit          3D

 18 19  0  0  0  0  0  0  0  0999 V2000
   -4.7510   13.7010    1.9340 N   0  0  0  0  0  0  0  0  0  0  0  0
   -6.0610   13.6610    1.5740 C   0  0  0  0  0  0  0  0  0  0  0  0
   -6.3280   13.0940    0.5040 O   0  0  0  0  0  0  0  0  0  0  0  0
   -3.6470   14.0230    1.2320 C   0  0  0  0  0  0  0  0  0  0  0  0
   -7.1690   14.2770    2.4050 C   0  0  0  0  0  0  0  0  0  0  0  0
   -2.4400   14.3270    1.7130 N   0  0  0  0  0  0  0  0  0  0  0  0
   -3.8120   14.0480   -0.4060 S   0  0  0  0  0  0  0  0  0  0  0  0
   -8.3330   14.7730    1.5600 C   0  0  0  0  0  0  0  0  0  0  0  0
   -2.1890   14.5100   -0.6110 C   0  0  0  0  0  0  0  0  0  0  0  0
   -1.5770   14.6090    0.6340 C   0  0  0  0  0  0  0  0  0  0  0  0
   -0.1700   14.9650    0.9320 C   0  0  0  0  0  0  0  0  0  0  0  0
   -1.8740   14.6820   -2.0560 C   0  0  2  0  0  0  0  0  0  0  0  0
   -1.1640   15.8990   -2.4170 N   0  0  0  0  0  0  0  0  0  0  0  0
   -3.2400   14.6530   -2.6480 C   0  0  0  0  0  0  0  0  0  0  0  0
   -4.2720   15.3920   -2.1010 N   0  0  0  0  0  0  0  0  0  0  0  0
   -3.8270   14.0020   -3.7090 C   0  0  0  0  0  0  0  0  0  0  0  0
   -5.3950   15.1520   -2.8200 C   0  0  0  0  0  0  0  0  0  0  0  0
   -5.1600   14.3180   -3.8020 N   0  0  0  0  0  0  0  0  0  0  0  0
  1  2  1  0
  2  3  2  0
  1  4  1  0
  2  5  1  0
  4  6  2  0
  4  7  1  0
  5  8  1  0
  7  9  1  0
  6 10  1  0
  9 10  2  0
 10 11  1  0
  9 12  1  0
 12 13  1  1
 12 14  1  0
 14 15  1  0
 14 16  2  0
 15 17  1  0
 16 18  1  0
 17 18  2  0
M  END
