diamond-x0421_0_A-mac-x0365
     RDKit          3D

 14 15  0  0  0  0  0  0  0  0999 V2000
   -3.8230   15.2640   -3.1720 N   0  0  0  0  0  0  0  0  0  0  0  0
   -3.0450   15.0140   -2.0820 C   0  0  0  0  0  0  0  0  0  0  0  0
   -1.7650   14.8600   -2.3560 N   0  0  0  0  0  0  0  0  0  0  0  0
   -3.6900   14.9390   -0.7600 C   0  0  0  0  0  0  0  0  0  0  0  0
   -0.9610   14.6130   -1.2450 O   0  0  0  0  0  0  0  0  0  0  0  0
   -3.0650   14.8410    0.4200 C   0  0  0  0  0  0  0  0  0  0  0  0
   -5.1710   14.9470   -0.5660 C   0  0  1  0  0  0  0  0  0  0  0  0
   -5.8480   16.1150   -0.8790 O   0  0  0  0  0  0  0  0  0  0  0  0
   -5.8420   13.9990   -1.2800 F   0  0  0  0  0  0  0  0  0  0  0  0
   -3.9090   14.7340    1.4840 N   0  0  0  0  0  0  0  0  0  0  0  0
   -5.0940   14.7550    0.9400 C   0  0  0  0  0  0  0  0  0  0  0  0
   -6.3120   14.6200    1.7530 C   0  0  0  0  0  0  0  0  0  0  0  0
   -7.6780   14.6700    1.1090 C   0  0  0  0  0  0  0  0  0  0  0  0
   -7.1540   13.3740    1.6540 C   0  0  0  0  0  0  0  0  0  0  0  0
  1  2  1  0
  2  3  2  3
  2  4  1  0
  3  5  1  0
  4  6  2  0
  4  7  1  0
  7  8  1  1
  7  9  1  0
  6 10  1  0
  7 11  1  0
 10 11  2  0
 11 12  1  0
 12 13  1  0
 12 14  1  0
 13 14  1  0
M  END
