diamond-x0662_0_A-mac-x0132
     RDKit          3D

 32 35  0  0  0  0  0  0  0  0999 V2000
    5.3270    9.5730  -15.0160 C   0  0  0  0  0  0  0  0  0  0  0  0
    4.2750    9.9870  -14.1160 N   0  0  0  0  0  0  0  0  0  0  0  0
    3.5880   11.1640  -14.1430 C   0  0  0  0  0  0  0  0  0  0  0  0
    3.8970    9.1600  -13.1250 N   0  0  0  0  0  0  0  0  0  0  0  0
    2.6990   11.1030  -13.0930 C   0  0  0  0  0  0  0  0  0  0  0  0
    2.9200    9.8360  -12.4780 C   0  0  0  0  0  0  0  0  0  0  0  0
    2.2430    9.2430  -11.2860 C   0  0  0  0  0  0  0  0  0  0  0  0
    2.4470    8.0740  -10.9820 O   0  0  0  0  0  0  0  0  0  0  0  0
    1.4260   10.1390  -10.6230 N   0  0  0  0  0  0  0  0  0  0  0  0
    0.6870   10.0040   -9.4200 C   0  0  0  0  0  0  0  0  0  0  0  0
   -0.2110    8.9420   -9.2980 C   0  0  0  0  0  0  0  0  0  0  0  0
    0.8010   10.8810   -8.3510 C   0  0  0  0  0  0  0  0  0  0  0  0
   -0.9660    8.7880   -8.1230 C   0  0  0  0  0  0  0  0  0  0  0  0
    0.0620   10.7780   -7.1640 C   0  0  0  0  0  0  0  0  0  0  0  0
    0.3190   11.8780   -6.1170 C   0  0  0  0  0  0  0  0  0  0  0  0
   -0.8330    9.7010   -7.0620 C   0  0  0  0  0  0  0  0  0  0  0  0
   -0.6880   12.5830   -5.7040 N   0  0  0  0  0  0  0  0  0  0  0  0
    1.5240   11.9620   -5.8310 O   0  0  0  0  0  0  0  0  0  0  0  0
   -0.3980   13.6940   -4.7660 C   0  0  0  0  0  0  0  0  0  0  0  0
   -1.4940   13.6900   -3.7050 C   0  0  0  0  0  0  0  0  0  0  0  0
   -1.8550   15.0240   -3.0350 C   0  0  0  0  0  0  0  0  0  0  0  0
   -3.2390   14.9520   -2.3920 C   0  0  0  0  0  0  0  0  0  0  0  0
   -4.3570   14.8150   -3.1940 C   0  0  0  0  0  0  0  0  0  0  0  0
   -3.4360   15.0100   -0.9960 C   0  0  0  0  0  0  0  0  0  0  0  0
   -4.7430   14.9140   -0.4360 C   0  0  0  0  0  0  0  0  0  0  0  0
   -5.6360   14.7220   -2.6350 C   0  0  0  0  0  0  0  0  0  0  0  0
   -5.0310   14.9580    0.9270 C   0  0  0  0  0  0  0  0  0  0  0  0
   -5.8510   14.7610   -1.2690 C   0  0  0  0  0  0  0  0  0  0  0  0
   -3.9870   15.1340    1.8410 N   0  0  0  0  0  0  0  0  0  0  0  0
   -7.1080   14.6480   -0.8120 N   0  0  0  0  0  0  0  0  0  0  0  0
   -6.2880   14.8410    1.4120 N   0  0  0  0  0  0  0  0  0  0  0  0
   -7.2610   14.6880    0.5140 C   0  0  0  0  0  0  0  0  0  0  0  0
  1  2  1  0
  2  3  1  0
  2  4  1  0
  3  5  2  0
  4  6  2  0
  5  6  1  0
  6  7  1  0
  7  8  2  0
  7  9  1  0
  9 10  1  0
 10 11  2  0
 10 12  1  0
 11 13  1  0
 12 14  2  0
 14 15  1  0
 13 16  2  0
 14 16  1  0
 15 17  2  3
 15 18  1  0
 17 19  1  0
 19 20  1  0
 20 21  1  0
 21 22  1  0
 22 23  2  0
 22 24  1  0
 24 25  2  0
 23 26  1  0
 25 27  1  0
 25 28  1  0
 26 28  2  0
 27 29  1  0
 28 30  1  0
 27 31  2  0
 30 32  2  0
 31 32  1  0
M  CHG  1  18  -1
M  END
