diamond-x0796_0_B-diamond-x0918_2_A
     RDKit          3D

 25 28  0  0  0  0  0  0  0  0999 V2000
   10.7150   11.2440   12.5010 O   0  0  0  0  0  0  0  0  0  0  0  0
   11.9430   11.3710   12.5220 C   0  0  0  0  0  0  0  0  0  0  0  0
   12.7410   10.7590   11.5720 N   0  0  0  0  0  0  0  0  0  0  0  0
   12.7210   12.1600   13.5870 C   0  0  1  0  0  0  0  0  0  0  0  0
   14.1460   10.6740   11.6630 C   0  0  0  0  0  0  0  0  0  0  0  0
   13.8880   12.8360   12.8780 C   0  0  0  0  0  0  0  0  0  0  0  0
   11.8690   13.1230   14.3100 N   0  0  0  0  0  0  0  0  0  0  0  0
   13.1520   11.1460   14.6580 C   0  0  0  0  0  0  0  0  0  0  0  0
   14.7570   11.7490   12.3370 C   0  0  0  0  0  0  0  0  0  0  0  0
   12.0670   11.2840   15.7080 C   0  0  0  0  0  0  0  0  0  0  0  0
   11.8680   12.7770   15.7280 C   0  0  0  0  0  0  0  0  0  0  0  0
   14.7200    9.5030   11.0610 C   0  0  0  0  0  0  0  0  0  0  0  0
   15.5420    8.3660   10.5060 C   0  0  0  0  0  0  0  0  0  0  0  0
   16.0980   11.8050   12.5050 C   0  0  0  0  0  0  0  0  0  0  0  0
   16.1200    9.7400   11.3400 C   0  0  0  0  0  0  0  0  0  0  0  0
   15.5100    7.1230   11.3730 C   0  0  0  0  0  0  0  0  0  0  0  0
   16.7820   10.7750   11.9920 C   0  0  0  0  0  0  0  0  0  0  0  0
   14.2050    6.3550   11.2420 C   0  0  0  0  0  0  0  0  0  0  0  0
   14.4290    4.9320   11.1730 N   0  0  0  0  0  0  0  0  0  0  0  0
   14.7230    4.2760    9.9840 C   0  0  0  0  0  0  0  0  0  0  0  0
   15.3460    4.8530    8.8810 C   0  0  0  0  0  0  0  0  0  0  0  0
   14.3670    2.9360    9.8890 C   0  0  0  0  0  0  0  0  0  0  0  0
   15.5770    4.0660    7.7600 C   0  0  0  0  0  0  0  0  0  0  0  0
   14.6350    2.2330    8.7300 C   0  0  0  0  0  0  0  0  0  0  0  0
   15.2350    2.7700    7.6550 N   0  0  0  0  0  0  0  0  0  0  0  0
  1  2  2  0
  2  3  1  0
  4  2  1  0
  3  5  1  0
  4  6  1  6
  4  7  1  0
  4  8  1  0
  5  9  2  0
  6  9  1  0
  8 10  1  0
  7 11  1  0
 10 11  1  0
  5 12  1  0
 12 13  1  0
  9 14  1  0
 12 15  2  0
 13 16  1  0
 14 17  2  0
 15 17  1  0
 16 18  1  0
 18 19  1  0
 19 20  1  0
 20 21  2  0
 20 22  1  0
 21 23  1  0
 22 24  2  0
 23 25  2  0
 24 25  1  0
M  END
