diamond-x0837_0_A-diamond-x0626_0_A
     RDKit          3D

 18 19  0  0  0  0  0  0  0  0999 V2000
   -5.9790   15.0760    0.4320 N   0  0  0  0  0  0  0  0  0  0  0  0
   -7.0250   14.3050   -0.1800 C   0  0  0  0  0  0  0  0  0  0  0  0
   -6.4320   12.9210   -0.1800 C   0  0  0  0  0  0  0  0  0  0  0  0
   -4.9760   15.4620   -0.2590 C   0  0  0  0  0  0  0  0  0  0  0  0
   -3.9940   16.1270    0.4060 N   0  0  0  0  0  0  0  0  0  0  0  0
   -4.7490   15.2280   -1.7520 C   0  0  0  0  0  0  0  0  0  0  0  0
   -5.5820   12.5520    0.8170 N   0  0  0  0  0  0  0  0  0  0  0  0
   -6.6980   12.1050   -1.0720 O   0  0  0  0  0  0  0  0  0  0  0  0
   -2.6860   15.9960    0.0790 C   0  0  0  0  0  0  0  0  0  0  0  0
   -3.2740   14.9410   -2.0870 C   0  0  1  0  0  0  0  0  0  0  0  0
   -2.6490   15.6550   -4.0480 I   0  0  0  0  0  0  0  0  0  0  0  0
   -2.2820   15.4570   -1.0800 C   0  0  0  0  0  0  0  0  0  0  0  0
   -4.4380   13.1880    1.2570 C   0  0  0  0  0  0  0  0  0  0  0  0
   -3.2510   13.7770    1.5390 N   0  0  0  0  0  0  0  0  0  0  0  0
   -4.0670   12.7010   -0.3810 S   0  0  0  0  0  0  0  0  0  0  0  0
   -2.4720   13.2700   -0.5060 C   0  0  0  0  0  0  0  0  0  0  0  0
   -2.1870   13.8380    0.6680 C   0  0  0  0  0  0  0  0  0  0  0  0
   -0.9100   14.4780    1.0990 C   0  0  0  0  0  0  0  0  0  0  0  0
  1  2  1  0
  2  3  1  0
  1  4  2  3
  4  5  1  0
  4  6  1  0
  3  7  1  0
  3  8  2  0
  5  9  1  0
  6 10  1  0
 10 11  1  6
  9 12  2  0
 10 12  1  0
  7 13  1  0
 13 14  2  0
 13 15  1  0
 15 16  1  0
 14 17  1  0
 16 17  2  0
 17 18  1  0
M  END
