diamond-x0962_3_A-diamond-x0950_0_A
     RDKit          3D

 14 14  0  0  0  0  0  0  0  0999 V2000
    1.1160   11.3130   -9.2260 N   0  0  0  0  0  0  0  0  0  0  0  0
    0.9550   10.8780   -7.8420 C   0  0  1  0  0  0  0  0  0  0  0  0
    0.9180   12.0460   -6.7960 C   0  0  0  0  0  0  0  0  0  0  0  0
   -0.2200   10.0140   -7.8690 C   0  0  0  0  0  0  0  0  0  0  0  0
    0.7550   11.5790   -5.4510 O   0  0  0  0  0  0  0  0  0  0  0  0
   -0.2020    8.8240   -8.5620 N   0  0  0  0  0  0  0  0  0  0  0  0
   -1.4720   10.0800   -7.3130 C   0  0  0  0  0  0  0  0  0  0  0  0
    1.3090   12.4380   -4.4460 C   0  0  2  0  0  0  0  0  0  0  0  0
   -1.4090    8.2340   -8.3940 C   0  0  0  0  0  0  0  0  0  0  0  0
   -2.2030    8.9700   -7.6420 N   0  0  0  0  0  0  0  0  0  0  0  0
    2.8340   12.3410   -4.5230 C   0  0  0  0  0  0  0  0  0  0  0  0
    0.8620   12.0320   -3.0300 C   0  0  0  0  0  0  0  0  0  0  0  0
    0.3610   10.9560   -2.7640 O   0  0  0  0  0  0  0  0  0  0  0  0
    1.0720   12.9740   -2.0810 O   0  0  0  0  0  0  0  0  0  0  0  0
  2  1  1  6
  2  3  1  0
  2  4  1  0
  3  5  1  0
  4  6  1  0
  4  7  2  0
  5  8  1  0
  6  9  1  0
  7 10  1  0
  9 10  2  0
  8 11  1  1
  8 12  1  0
 12 13  2  0
 12 14  1  0
M  END
