diamond-x0905_0_A-diamond-x0962_0_A
     RDKit          3D

  8  8  0  0  0  0  0  0  0  0999 V2000
   -7.1070   15.0500   -0.6870 O   0  0  0  0  0  0  0  0  0  0  0  0
   -5.7620   15.0430   -0.5330 C   0  0  0  0  0  0  0  0  0  0  0  0
   -5.3690   14.9990    0.7470 N   0  0  0  0  0  0  0  0  0  0  0  0
   -4.9270   15.0760   -1.6280 C   0  0  0  0  0  0  0  0  0  0  0  0
   -4.0380   14.9970    0.9490 C   0  0  0  0  0  0  0  0  0  0  0  0
   -3.5590   15.0610   -1.3930 C   0  0  0  0  0  0  0  0  0  0  0  0
   -3.1070   15.0240   -0.0740 C   0  0  0  0  0  0  0  0  0  0  0  0
   -2.6530   15.0760   -2.4590 N   0  0  0  0  0  0  0  0  0  0  0  0
  1  2  1  0
  2  3  2  0
  2  4  1  0
  3  5  1  0
  4  6  2  0
  5  7  2  0
  6  7  1  0
  6  8  1  0
M  END
