diamond-x0962_3_A-mac-x0358
     RDKit          3D

 20 21  0  0  0  0  0  0  0  0999 V2000
    1.2420   11.0910   -9.0940 N   0  0  0  0  0  0  0  0  0  0  0  0
    0.1960   11.1900   -8.1130 C   0  0  2  0  0  0  0  0  0  0  0  0
    0.5830   11.7980   -6.7650 C   0  0  0  0  0  0  0  0  0  0  0  0
   -0.4030    9.8780   -7.8980 C   0  0  0  0  0  0  0  0  0  0  0  0
    0.0340   11.0330   -5.5490 C   0  0  0  0  0  0  0  0  0  0  0  0
    0.1010    8.7050   -8.4070 N   0  0  0  0  0  0  0  0  0  0  0  0
   -1.5220    9.5180   -7.1920 C   0  0  0  0  0  0  0  0  0  0  0  0
   -1.2670   11.4510   -5.2100 O   0  0  0  0  0  0  0  0  0  0  0  0
   -0.7270    7.7040   -7.9890 C   0  0  0  0  0  0  0  0  0  0  0  0
   -1.7160    8.1690   -7.2530 N   0  0  0  0  0  0  0  0  0  0  0  0
   -1.5470   12.7770   -5.2190 C   0  0  0  0  0  0  0  0  0  0  0  0
   -0.5330   13.6630   -4.7730 C   0  0  0  0  0  0  0  0  0  0  0  0
   -2.7820   13.2670   -5.6400 C   0  0  0  0  0  0  0  0  0  0  0  0
    0.8400   13.1920   -4.2980 C   0  0  0  0  0  0  0  0  0  0  0  0
   -3.0350   14.6350   -5.6280 C   0  0  0  0  0  0  0  0  0  0  0  0
   -0.8090   15.0360   -4.7700 C   0  0  0  0  0  0  0  0  0  0  0  0
    0.8800   12.3320   -3.0390 C   0  0  0  0  0  0  0  0  0  0  0  0
   -2.0530   15.5200   -5.1930 C   0  0  0  0  0  0  0  0  0  0  0  0
    1.4320   12.9270   -1.9640 O   0  0  0  0  0  0  0  0  0  0  0  0
    0.4580   11.1850   -2.9640 O   0  0  0  0  0  0  0  0  0  0  0  0
  2  1  1  6
  2  3  1  0
  2  4  1  0
  3  5  1  0
  4  6  1  0
  4  7  2  0
  5  8  1  0
  6  9  1  0
  7 10  1  0
  9 10  2  0
  8 11  1  0
 11 12  2  0
 11 13  1  0
 12 14  1  0
 13 15  2  0
 12 16  1  0
 14 17  1  0
 15 18  1  0
 16 18  2  0
 17 19  1  0
 17 20  2  0
M  END
