diamond-x0855_0_A-diamond-x0962_0_A
     RDKit          3D

 20 21  0  0  0  0  0  0  0  0999 V2000
    1.6850   13.1150   -2.5640 O   0  0  0  0  0  0  0  0  0  0  0  0
    1.0180   12.2120   -3.3100 C   0  0  0  0  0  0  0  0  0  0  0  0
    0.6950   12.5780   -4.7500 C   0  0  2  0  0  0  0  0  0  0  0  0
    0.6880   11.1330   -2.8300 O   0  0  0  0  0  0  0  0  0  0  0  0
    0.4290   14.0860   -4.8910 C   0  0  0  0  0  0  0  0  0  0  0  0
   -0.3900   11.7280   -5.2180 N   0  0  0  0  0  0  0  0  0  0  0  0
   -0.2620   14.7080   -3.6650 C   0  0  0  0  0  0  0  0  0  0  0  0
   -0.3130   10.7530   -6.1650 C   0  0  0  0  0  0  0  0  0  0  0  0
   -1.6330   11.8680   -4.6860 N   0  0  0  0  0  0  0  0  0  0  0  0
   -1.7620   14.9300   -3.8830 C   0  0  0  0  0  0  0  0  0  0  0  0
   -1.5700   10.2220   -6.2450 C   0  0  0  0  0  0  0  0  0  0  0  0
   -2.3490   10.9340   -5.3260 C   0  0  0  0  0  0  0  0  0  0  0  0
   -2.1600    8.8340   -7.3370 Br  0  0  0  0  0  0  0  0  0  0  0  0
   -2.5080   14.9280   -2.6130 C   0  0  0  0  0  0  0  0  0  0  0  0
   -3.1280   14.9600   -1.5910 C   0  0  0  0  0  0  0  0  0  0  0  0
   -3.8850   15.0230   -0.4020 C   0  0  0  0  0  0  0  0  0  0  0  0
   -3.3710   15.1740    0.8510 N   0  0  0  0  0  0  0  0  0  0  0  0
   -5.2410   14.9480   -0.2380 C   0  0  0  0  0  0  0  0  0  0  0  0
   -4.4270   15.1890    1.7180 C   0  0  0  0  0  0  0  0  0  0  0  0
   -5.5720   15.0470    1.0860 N   0  0  0  0  0  0  0  0  0  0  0  0
  1  2  1  0
  2  3  1  0
  2  4  2  0
  3  5  1  1
  3  6  1  0
  5  7  1  0
  6  8  1  0
  6  9  1  0
  7 10  1  0
  8 11  2  0
  9 12  2  0
 11 12  1  0
 11 13  1  0
 10 14  1  0
 14 15  3  0
 15 16  1  0
 16 17  1  0
 16 18  2  0
 17 19  1  0
 18 20  1  0
 19 20  2  0
M  END
