diamond-x0626_0_A-mac-x0411
     RDKit          3D

 27 28  0  0  0  0  0  0  0  0999 V2000
   -5.0740   14.7490    1.4380 N   0  0  0  0  0  0  0  0  0  0  0  0
   -6.2550   14.6370    0.7900 C   0  0  0  0  0  0  0  0  0  0  0  0
   -6.2870   14.7980   -0.4350 O   0  0  0  0  0  0  0  0  0  0  0  0
   -3.8520   14.7830    0.8700 C   0  0  0  0  0  0  0  0  0  0  0  0
   -7.5010   14.3270    1.5930 C   0  0  0  0  0  0  0  0  0  0  0  0
   -2.6800   14.7890    1.4510 N   0  0  0  0  0  0  0  0  0  0  0  0
   -3.8990   14.8180   -0.8350 S   0  0  0  0  0  0  0  0  0  0  0  0
   -8.7570   14.7000    0.8290 C   0  0  0  0  0  0  0  0  0  0  0  0
   -2.2050   14.8510   -0.8330 C   0  0  0  0  0  0  0  0  0  0  0  0
   -1.7330   14.8420    0.4620 C   0  0  0  0  0  0  0  0  0  0  0  0
   -0.3340   14.8890    0.8510 C   0  0  0  0  0  0  0  0  0  0  0  0
    0.5420   14.1540   -0.1240 C   0  0  0  0  0  0  0  0  0  0  0  0
    0.0110   13.7200   -1.4600 C   0  0  0  0  0  0  0  0  0  0  0  0
    1.1380   12.8900   -2.0460 C   0  0  0  0  0  0  0  0  0  0  0  0
    1.2290   13.0860   -3.4300 O   0  0  0  0  0  0  0  0  0  0  0  0
    0.8200   12.0480   -4.1710 C   0  0  0  0  0  0  0  0  0  0  0  0
    0.4240   10.9770   -3.7220 O   0  0  0  0  0  0  0  0  0  0  0  0
    0.9270   12.4220   -5.6340 C   0  0  0  0  0  0  0  0  0  0  0  0
    0.6740   11.3160   -6.4850 O   0  0  0  0  0  0  0  0  0  0  0  0
   -0.5140   10.6520   -6.2840 C   0  0  0  0  0  0  0  0  0  0  0  0
   -1.6130   11.1520   -5.5570 C   0  0  0  0  0  0  0  0  0  0  0  0
   -0.6130    9.3760   -6.8640 C   0  0  0  0  0  0  0  0  0  0  0  0
    0.6760    8.6880   -7.7790 Cl  0  0  0  0  0  0  0  0  0  0  0  0
   -1.6460   12.7020   -4.7930 Cl  0  0  0  0  0  0  0  0  0  0  0  0
   -2.7720   10.3760   -5.4230 C   0  0  0  0  0  0  0  0  0  0  0  0
   -1.7730    8.6160   -6.7210 C   0  0  0  0  0  0  0  0  0  0  0  0
   -2.8500    9.1120   -6.0020 C   0  0  0  0  0  0  0  0  0  0  0  0
  1  2  1  0
  2  3  2  0
  1  4  1  0
  2  5  1  0
  4  6  2  0
  4  7  1  0
  5  8  1  0
  7  9  1  0
  6 10  1  0
  9 10  2  0
 10 11  1  0
 11 12  1  0
 12 13  1  0
 13 14  1  0
 14 15  1  0
 15 16  1  0
 16 17  2  0
 16 18  1  0
 18 19  1  0
 19 20  1  0
 20 21  2  0
 20 22  1  0
 22 23  1  0
 21 24  1  0
 21 25  1  0
 22 26  2  0
 25 27  2  0
 26 27  1  0
M  END
