diamond-x0837_0_A-mac-x0451
     RDKit          3D

 13 14  0  0  0  0  0  0  0  0999 V2000
   -7.5260   14.0750    0.1890 O   0  0  0  0  0  0  0  0  0  0  0  0
   -6.3450   14.4110    0.1680 C   0  0  0  0  0  0  0  0  0  0  0  0
   -5.6290   14.6350    1.3610 N   0  0  0  0  0  0  0  0  0  0  0  0
   -5.6070   14.6550   -1.1380 C   0  0  2  0  0  0  0  0  0  0  0  0
   -6.4610   14.8040    2.5150 N   0  0  0  0  0  0  0  0  0  0  0  0
   -4.2680   15.2040    1.4600 C   0  0  0  0  0  0  0  0  0  0  0  0
   -4.3230   13.8980   -1.4800 C   0  0  0  0  0  0  0  0  0  0  0  0
   -5.2040   16.0770   -1.0530 C   0  0  0  0  0  0  0  0  0  0  0  0
   -3.2140   14.3130    0.7990 C   0  0  1  0  0  0  0  0  0  0  0  0
   -3.1210   14.4400   -0.7220 C   0  0  1  0  0  0  0  0  0  0  0  0
   -1.8280   13.7230   -0.9680 C   0  0  0  0  0  0  0  0  0  0  0  0
   -1.7550   14.5070    1.2300 C   0  0  0  0  0  0  0  0  0  0  0  0
   -1.0550   13.7730    0.1260 C   0  0  0  0  0  0  0  0  0  0  0  0
  1  2  2  0
  2  3  1  0
  2  4  1  0
  3  5  1  0
  3  6  1  0
  4  7  1  0
  4  8  1  1
  9  6  1  1
 10  7  1  6
  9 10  1  0
 10 11  1  0
  9 12  1  0
 11 13  2  0
 12 13  1  0
M  END
