diamond-x0104_0_A-diamond-x1018_0_A
     RDKit          3D

 20 22  0  0  0  0  0  0  0  0999 V2000
   -6.7540   14.6460    2.5800 N   0  0  0  0  0  0  0  0  0  0  0  0
   -8.0000   15.0380    3.0860 C   0  0  0  0  0  0  0  0  0  0  0  0
   -8.0230   15.0120    4.4800 N   0  0  0  0  0  0  0  0  0  0  0  0
   -6.2360   14.7900    1.3070 C   0  0  0  0  0  0  0  0  0  0  0  0
   -8.9460   15.3630    2.3790 O   0  0  0  0  0  0  0  0  0  0  0  0
   -4.9120   15.0420    1.1210 C   0  0  0  0  0  0  0  0  0  0  0  0
   -7.0660   14.7050    0.1170 C   0  0  0  0  0  0  0  0  0  0  0  0
   -4.3060   15.2260   -0.1260 N   0  0  0  0  0  0  0  0  0  0  0  0
   -6.5100   14.7320   -1.1100 C   0  0  0  0  0  0  0  0  0  0  0  0
   -9.1590   15.0380    5.2800 C   0  0  0  0  0  0  0  0  0  0  0  0
   -5.0250   14.8410   -1.3460 C   0  0  1  0  0  0  0  0  0  0  0  0
   -9.1870   15.1770    6.6550 C   0  0  0  0  0  0  0  0  0  0  0  0
  -10.7250   14.8950    4.6310 S   0  0  0  0  0  0  0  0  0  0  0  0
   -3.0760   14.5810   -0.3750 N   0  0  0  0  0  0  0  0  0  0  0  0
   -4.8060   15.7720   -2.3890 O   0  0  0  0  0  0  0  0  0  0  0  0
  -11.4590   15.0140    6.1720 C   0  0  0  0  0  0  0  0  0  0  0  0
  -10.5230   15.1620    7.1690 C   0  0  0  0  0  0  0  0  0  0  0  0
   -3.1970   13.7200   -1.4440 N   0  0  0  0  0  0  0  0  0  0  0  0
   -4.4270   13.5560   -1.6660 N   0  0  0  0  0  0  0  0  0  0  0  0
   -3.6510   15.4140   -3.1340 C   0  0  0  0  0  0  0  0  0  0  0  0
  1  2  1  0
  2  3  1  0
  1  4  1  0
  2  5  2  0
  4  6  2  0
  4  7  1  0
  6  8  1  0
  7  9  2  0
  3 10  1  0
  8 11  1  0
  9 11  1  0
 10 12  2  0
 10 13  1  0
  8 14  1  0
 11 15  1  6
 13 16  1  0
 12 17  1  0
 16 17  2  0
 14 18  1  0
 11 19  1  0
 18 19  2  0
 15 20  1  0
M  END
