diamond-x1018_0_A-mac-x0357
     RDKit          3D

 22 24  0  0  0  0  0  0  0  0999 V2000
   -8.4140   14.6260    0.7470 Cl  0  0  0  0  0  0  0  0  0  0  0  0
   -6.7190   14.6100    0.4100 C   0  0  0  0  0  0  0  0  0  0  0  0
   -5.7630   14.4620    1.5440 C   0  0  0  0  0  0  0  0  0  0  0  0
   -6.3690   14.7310   -0.8380 N   0  0  0  0  0  0  0  0  0  0  0  0
   -5.0140   14.7120   -1.0140 N   0  0  0  0  0  0  0  0  0  0  0  0
   -4.4840   14.7840    1.3010 C   0  0  0  0  0  0  0  0  0  0  0  0
   -4.4710   14.8390   -2.2940 N   0  0  0  0  0  0  0  0  0  0  0  0
   -4.1020   15.2630   -0.0420 C   0  0  1  0  0  0  0  0  0  0  0  0
   -2.8340   14.8380   -0.5970 N   0  0  0  0  0  0  0  0  0  0  0  0
   -3.0660   15.1170   -2.0240 N   0  0  0  0  0  0  0  0  0  0  0  0
   -2.0900   14.3640   -2.8560 C   0  0  0  0  0  0  0  0  0  0  0  0
   -0.8380   14.0060   -2.1660 N   0  0  0  0  0  0  0  0  0  0  0  0
    0.0570   13.2130   -2.6320 C   0  0  0  0  0  0  0  0  0  0  0  0
    1.1870   12.8920   -1.9690 O   0  0  0  0  0  0  0  0  0  0  0  0
   -0.0060   12.5290   -3.9470 C   0  0  0  0  0  0  0  0  0  0  0  0
    1.0710   12.5250   -4.8520 C   0  0  0  0  0  0  0  0  0  0  0  0
   -1.2040   11.8710   -4.2830 C   0  0  0  0  0  0  0  0  0  0  0  0
    2.3860   13.2000   -4.5560 C   0  0  0  0  0  0  0  0  0  0  0  0
   -1.3460   11.2110   -5.5020 C   0  0  0  0  0  0  0  0  0  0  0  0
    0.8890   11.8490   -6.0620 C   0  0  0  0  0  0  0  0  0  0  0  0
    1.9150   11.8270   -6.9380 O   0  0  0  0  0  0  0  0  0  0  0  0
   -0.2930   11.1990   -6.3980 C   0  0  0  0  0  0  0  0  0  0  0  0
  1  2  1  0
  2  3  1  0
  2  4  2  0
  4  5  1  0
  3  6  2  0
  5  7  1  0
  5  8  1  0
  8  6  1  1
  8  9  1  0
  7 10  1  0
  9 10  1  0
 10 11  1  0
 11 12  1  0
 12 13  2  3
 13 14  1  0
 13 15  1  0
 15 16  2  0
 15 17  1  0
 16 18  1  0
 17 19  2  0
 16 20  1  0
 20 21  1  0
 19 22  1  0
 20 22  2  0
M  END
