diamond-x0864_0_A-diamond-x0685_1_A
     RDKit          3D

 14 14  0  0  0  0  0  0  0  0999 V2000
    1.4360   11.8970   -6.8060 O   0  0  0  0  0  0  0  0  0  0  0  0
    0.4480   11.2750   -6.4250 C   0  0  0  0  0  0  0  0  0  0  0  0
   -0.2230   11.5030   -5.2240 N   0  0  0  0  0  0  0  0  0  0  0  0
   -0.0880   10.1760   -7.2630 C   0  0  0  0  0  0  0  0  0  0  0  0
    0.1540   12.6650   -4.4120 C   0  0  2  0  0  0  0  0  0  0  0  0
   -1.4200   10.8810   -4.9260 C   0  0  0  0  0  0  0  0  0  0  0  0
   -1.2190    9.5530   -6.9040 C   0  0  0  0  0  0  0  0  0  0  0  0
    0.9550   12.2690   -3.1170 C   0  0  0  0  0  0  0  0  0  0  0  0
   -1.9470    8.1600   -7.9040 Br  0  0  0  0  0  0  0  0  0  0  0  0
   -1.1180   13.4610   -4.1120 C   0  0  0  0  0  0  0  0  0  0  0  0
   -1.9240    9.9420   -5.7130 C   0  0  0  0  0  0  0  0  0  0  0  0
    0.6020   10.9730   -2.7060 O   0  0  0  0  0  0  0  0  0  0  0  0
    0.7430   13.1250   -2.0230 O   0  0  0  0  0  0  0  0  0  0  0  0
    2.3380   12.3140   -3.3270 O   0  0  0  0  0  0  0  0  0  0  0  0
  1  2  2  0
  2  3  1  0
  2  4  1  0
  3  5  1  0
  3  6  1  0
  4  7  2  0
  5  8  1  0
  7  9  1  0
  5 10  1  1
  6 11  2  0
  7 11  1  0
  8 12  1  0
  8 13  1  0
  8 14  1  0
M  END
