diamond-x0626_0_A-diamond-x0844_0_A
     RDKit          3D

 18 19  0  0  0  0  0  0  0  0999 V2000
   -4.7800   14.0610    1.8920 N   0  0  0  0  0  0  0  0  0  0  0  0
   -5.9000   13.4180    1.4410 C   0  0  0  0  0  0  0  0  0  0  0  0
   -5.7360   12.3070    0.9440 O   0  0  0  0  0  0  0  0  0  0  0  0
   -3.5460   14.0860    1.2960 C   0  0  0  0  0  0  0  0  0  0  0  0
   -7.2920   14.0650    1.4380 C   0  0  0  0  0  0  0  0  0  0  0  0
   -2.3990   14.5930    1.7130 N   0  0  0  0  0  0  0  0  0  0  0  0
   -3.5170   13.3360   -0.2400 S   0  0  0  0  0  0  0  0  0  0  0  0
   -7.3740   14.3180   -0.0150 C   0  0  0  0  0  0  0  0  0  0  0  0
   -1.8540   13.7200   -0.3790 C   0  0  0  0  0  0  0  0  0  0  0  0
   -1.4290   14.3830    0.7490 C   0  0  0  0  0  0  0  0  0  0  0  0
   -0.0660   14.8730    1.0010 C   0  0  0  0  0  0  0  0  0  0  0  0
   -6.3880   15.0100   -0.5720 C   0  0  0  0  0  0  0  0  0  0  0  0
   -5.4280   15.5030    0.2730 N   0  0  0  0  0  0  0  0  0  0  0  0
   -6.1600   15.3210   -2.0300 C   0  0  0  0  0  0  0  0  0  0  0  0
   -4.1320   15.6620   -0.0290 C   0  0  0  0  0  0  0  0  0  0  0  0
   -4.6450   15.2570   -2.3850 C   0  0  2  0  0  0  0  0  0  0  0  0
   -4.1120   13.5290   -3.1310 Br  0  0  0  0  0  0  0  0  0  0  0  0
   -3.6950   15.5410   -1.2720 C   0  0  0  0  0  0  0  0  0  0  0  0
  1  2  1  0
  2  3  2  0
  1  4  1  0
  2  5  1  0
  4  6  2  0
  4  7  1  0
  5  8  1  0
  7  9  1  0
  6 10  1  0
  9 10  2  0
 10 11  1  0
  8 12  2  3
 12 13  1  0
 12 14  1  0
 13 15  1  0
 14 16  1  0
 16 17  1  1
 15 18  2  0
 16 18  1  0
M  END
