diamond-x0962_1_A-diamond-x0852_0_B
     RDKit          3D

 16 17  0  0  0  0  0  0  0  0999 V2000
   -4.3230   15.4680   -1.0090 N   0  0  0  0  0  0  0  0  0  0  0  0
   -4.9640   14.9960   -0.1490 C   0  0  0  0  0  0  0  0  0  0  0  0
   -5.7260   14.3190    0.9490 C   0  0  1  0  0  0  0  0  0  0  0  0
   -6.2680   15.1360    2.0840 N   0  0  0  0  0  0  0  0  0  0  0  0
   -7.0020   13.6510    0.5070 C   0  0  0  0  0  0  0  0  0  0  0  0
   -7.7010   14.7530    2.3990 C   0  0  1  0  0  0  0  0  0  0  0  0
   -7.6680   13.4070    1.8120 N   0  0  0  0  0  0  0  0  0  0  0  0
   -8.0670   14.8130    4.0010 C   0  0  1  0  0  0  0  0  0  0  0  0
   -8.8520   15.3740    1.5290 C   0  0  0  0  0  0  0  0  0  0  0  0
   -6.9600   15.2180    4.7830 O   0  0  0  0  0  0  0  0  0  0  0  0
  -10.0410   16.0560    2.2180 C   0  0  2  0  0  0  0  0  0  0  0  0
   -9.3110   15.6420    4.5070 C   0  0  1  0  0  0  0  0  0  0  0  0
   -9.2170   16.3250    5.8300 C   0  0  0  0  0  0  0  0  0  0  0  0
  -10.9160   17.2860    0.9770 Br  0  0  0  0  0  0  0  0  0  0  0  0
   -9.7460   16.7140    3.5330 C   0  0  0  0  0  0  0  0  0  0  0  0
   -9.2370   16.8870    6.8560 N   0  0  0  0  0  0  0  0  0  0  0  0
  1  2  3  0
  3  2  1  6
  3  4  1  0
  3  5  1  0
  6  4  1  0
  5  7  1  0
  6  7  1  0
  6  8  1  0
  6  9  1  6
  8 10  1  1
  9 11  1  0
  8 12  1  0
 12 13  1  1
 11 14  1  6
 11 15  1  0
 12 15  1  0
 13 16  3  0
M  END
