diamond-x0910_0_A-mac-x0338
     RDKit          3D

 16 17  0  0  0  0  0  0  0  0999 V2000
   -2.2320   13.8060   -1.5030 N   0  0  0  0  0  0  0  0  0  0  0  0
   -1.4650   14.2980   -0.5140 C   0  0  0  0  0  0  0  0  0  0  0  0
   -1.8340   14.3690    0.8110 N   0  0  0  0  0  0  0  0  0  0  0  0
   -0.2560   14.7770   -0.6550 N   0  0  0  0  0  0  0  0  0  0  0  0
   -3.0730   13.9480    1.4500 C   0  0  0  0  0  0  0  0  0  0  0  0
   -0.8450   14.9020    1.5370 N   0  0  0  0  0  0  0  0  0  0  0  0
    0.0810   15.1330    0.6170 C   0  0  0  0  0  0  0  0  0  0  0  0
   -4.0540   14.9350    1.8150 N   0  0  0  0  0  0  0  0  0  0  0  0
   -5.1790   15.0360    1.0890 C   0  0  0  0  0  0  0  0  0  0  0  0
   -6.3020   15.0440    1.5940 O   0  0  0  0  0  0  0  0  0  0  0  0
   -4.9630   15.0780   -0.3650 C   0  0  0  0  0  0  0  0  0  0  0  0
   -3.6890   15.2950   -0.7660 N   0  0  0  0  0  0  0  0  0  0  0  0
   -5.9950   14.8940   -1.2600 C   0  0  0  0  0  0  0  0  0  0  0  0
   -3.4940   15.3160   -2.0980 C   0  0  0  0  0  0  0  0  0  0  0  0
   -5.7890   14.9100   -2.6000 N   0  0  0  0  0  0  0  0  0  0  0  0
   -4.5160   15.1240   -2.9980 C   0  0  0  0  0  0  0  0  0  0  0  0
  1  2  1  0
  2  3  1  0
  2  4  2  0
  3  5  1  0
  3  6  1  0
  4  7  1  0
  6  7  2  0
  5  8  1  0
  8  9  1  0
  9 10  2  0
  9 11  1  0
 11 12  2  0
 11 13  1  0
 12 14  1  0
 13 15  2  0
 14 16  2  0
 15 16  1  0
M  END
