diamond-x1015_0_A-mac-x0338
     RDKit          3D

 26 28  0  0  0  0  0  0  0  0999 V2000
   -1.4580   14.1610   -4.2410 C   0  0  0  0  0  0  0  0  0  0  0  0
   -0.0770   13.5210   -4.1080 C   0  0  2  0  0  0  0  0  0  0  0  0
   -0.1710   12.0730   -4.0030 N   0  0  0  0  0  0  0  0  0  0  0  0
    0.5120   13.7620   -2.7380 C   0  0  0  0  0  0  0  0  0  0  0  0
    0.4010   14.7040   -1.9080 N   0  0  0  0  0  0  0  0  0  0  0  0
    0.4900   11.6350   -2.8360 C   0  0  0  0  0  0  0  0  0  0  0  0
    1.2550   12.6900   -2.4400 N   0  0  0  0  0  0  0  0  0  0  0  0
   -0.5470   11.2910   -5.1090 C   0  0  0  0  0  0  0  0  0  0  0  0
    0.4330   10.5600   -2.2400 O   0  0  0  0  0  0  0  0  0  0  0  0
   -0.4770   15.8270   -2.1710 C   0  0  0  0  0  0  0  0  0  0  0  0
    0.0230   11.4980   -6.3720 C   0  0  0  0  0  0  0  0  0  0  0  0
   -1.5120   10.2780   -4.9770 C   0  0  0  0  0  0  0  0  0  0  0  0
   -1.4160   15.7860   -0.9800 C   0  0  0  0  0  0  0  0  0  0  0  0
   -0.3520   10.7250   -7.4670 C   0  0  0  0  0  0  0  0  0  0  0  0
   -1.8920    9.5010   -6.0700 C   0  0  0  0  0  0  0  0  0  0  0  0
   -1.3110    9.7270   -7.3140 C   0  0  0  0  0  0  0  0  0  0  0  0
   -2.8800   15.5110   -1.2260 C   0  0  0  0  0  0  0  0  0  0  0  0
   -1.7830    8.7700   -8.6570 Cl  0  0  0  0  0  0  0  0  0  0  0  0
   -3.5540   15.3660   -0.0860 N   0  0  0  0  0  0  0  0  0  0  0  0
   -3.5350   15.4090   -2.4620 C   0  0  0  0  0  0  0  0  0  0  0  0
   -4.8700   15.1250   -0.1800 C   0  0  0  0  0  0  0  0  0  0  0  0
   -4.8760   15.1600   -2.5610 N   0  0  0  0  0  0  0  0  0  0  0  0
   -5.5380   14.9820    1.1210 C   0  0  0  0  0  0  0  0  0  0  0  0
   -5.5360   15.0220   -1.3800 C   0  0  0  0  0  0  0  0  0  0  0  0
   -4.7080   15.2200    2.1680 N   0  0  0  0  0  0  0  0  0  0  0  0
   -6.7130   14.6920    1.2600 O   0  0  0  0  0  0  0  0  0  0  0  0
  2  1  1  1
  2  3  1  0
  2  4  1  0
  4  5  2  3
  3  6  1  0
  4  7  1  0
  6  7  1  0
  3  8  1  0
  6  9  2  0
  5 10  1  0
  8 11  2  0
  8 12  1  0
 10 13  1  0
 11 14  1  0
 12 15  2  0
 14 16  2  0
 15 16  1  0
 13 17  1  0
 16 18  1  0
 17 19  2  0
 17 20  1  0
 19 21  1  0
 20 22  2  0
 21 23  1  0
 21 24  2  0
 22 24  1  0
 23 25  1  0
 23 26  2  0
M  END
