diamond-x0962_0_A-diamond-x0587_0_A
     RDKit          3D

 13 13  0  0  0  0  0  0  0  0999 V2000
   -2.3960   14.4790   -1.1960 N   0  0  0  0  0  0  0  0  0  0  0  0
   -3.7350   15.1060   -1.3140 C   0  0  1  0  0  0  0  0  0  0  0  0
   -4.6530   14.4590   -2.3380 C   0  0  0  0  0  0  0  0  0  0  0  0
   -4.4800   15.1140   -0.0210 C   0  0  0  0  0  0  0  0  0  0  0  0
   -4.3780   13.1480   -2.4910 F   0  0  0  0  0  0  0  0  0  0  0  0
   -4.4990   15.0650   -3.5340 F   0  0  0  0  0  0  0  0  0  0  0  0
   -3.8810   15.3840    1.1720 N   0  0  0  0  0  0  0  0  0  0  0  0
   -5.8370   14.8680    0.1580 C   0  0  0  0  0  0  0  0  0  0  0  0
   -4.8620   15.3170    2.0530 C   0  0  0  0  0  0  0  0  0  0  0  0
   -6.1080   14.9990    1.5110 N   0  0  0  0  0  0  0  0  0  0  0  0
   -7.3560   14.8710    2.2530 C   0  0  0  0  0  0  0  0  0  0  0  0
   -7.2400   14.9130    3.6060 N   0  0  0  0  0  0  0  0  0  0  0  0
   -8.4470   14.7620    1.6950 O   0  0  0  0  0  0  0  0  0  0  0  0
  2  1  1  1
  2  3  1  0
  2  4  1  0
  3  5  1  0
  3  6  1  0
  4  7  1  0
  4  8  2  0
  7  9  2  0
  8 10  1  0
  9 10  1  0
 10 11  1  0
 11 12  1  0
 11 13  2  0
M  END
