diamond-x0592_0_A-mac-x0510
     RDKit          3D

 20 22  0  0  0  0  0  0  0  0999 V2000
   -3.7710   13.6510   -1.1240 N   0  0  0  0  0  0  0  0  0  0  0  0
   -4.6730   14.3330   -2.0660 C   0  0  0  0  0  0  0  0  0  0  0  0
   -5.9970   14.5610   -1.4170 C   0  0  0  0  0  0  0  0  0  0  0  0
   -7.2140   14.8440   -2.0530 C   0  0  0  0  0  0  0  0  0  0  0  0
   -6.3120   14.5430   -0.0700 C   0  0  0  0  0  0  0  0  0  0  0  0
   -8.2260   14.9820   -1.1930 N   0  0  0  0  0  0  0  0  0  0  0  0
   -7.6610   14.7890    0.0160 N   0  0  0  0  0  0  0  0  0  0  0  0
   -5.4980   14.3310    0.9530 N   0  0  0  0  0  0  0  0  0  0  0  0
   -8.4990   14.8610    1.2060 C   0  0  0  0  0  0  0  0  0  0  0  0
   -4.3710   14.8830    0.7100 C   0  0  0  0  0  0  0  0  0  0  0  0
   -7.8650   14.1600    2.4050 C   0  0  0  0  0  0  0  0  0  0  0  0
   -3.3990   14.6600    1.6280 N   0  0  0  0  0  0  0  0  0  0  0  0
   -4.2680   15.5610   -0.4970 N   0  0  0  0  0  0  0  0  0  0  0  0
   -7.3130   15.0710    3.3570 O   0  0  0  0  0  0  0  0  0  0  0  0
   -2.2380   14.9250    1.1870 C   0  0  0  0  0  0  0  0  0  0  0  0
   -3.1100   15.8450   -0.9430 C   0  0  0  0  0  0  0  0  0  0  0  0
   -1.9940   15.4800   -0.1360 C   0  0  0  0  0  0  0  0  0  0  0  0
   -1.0620   14.7540    1.7880 N   0  0  0  0  0  0  0  0  0  0  0  0
   -0.7410   15.5580   -0.3560 N   0  0  0  0  0  0  0  0  0  0  0  0
   -0.2240   15.1240    0.8560 C   0  0  0  0  0  0  0  0  0  0  0  0
  1  2  1  0
  2  3  1  0
  3  4  1  0
  3  5  2  0
  4  6  2  0
  5  7  1  0
  6  7  1  0
  5  8  1  0
  7  9  1  0
  8 10  2  3
  9 11  1  0
 10 12  1  0
 10 13  1  0
 11 14  1  0
 12 15  2  0
 13 16  2  0
 15 17  1  0
 16 17  1  0
 15 18  1  0
 17 19  2  0
 18 20  2  0
 19 20  1  0
M  END
