diamond-x0421_0_A-mac-x0231
     RDKit          3D

 27 30  0  0  0  0  0  0  0  0999 V2000
   -4.1200   14.5700   -3.0980 N   0  0  0  0  0  0  0  0  0  0  0  0
   -3.4400   15.4680   -2.3350 C   0  0  0  0  0  0  0  0  0  0  0  0
   -2.6760   16.4130   -2.7630 N   0  0  0  0  0  0  0  0  0  0  0  0
   -3.7090   15.2600   -0.8920 C   0  0  0  0  0  0  0  0  0  0  0  0
   -2.5220   16.5700   -4.2420 C   0  0  0  0  0  0  0  0  0  0  0  0
   -2.8560   15.2200    0.2100 C   0  0  0  0  0  0  0  0  0  0  0  0
   -5.0090   15.0540   -0.4540 N   0  0  0  0  0  0  0  0  0  0  0  0
   -3.6720   14.9870    1.2920 N   0  0  0  0  0  0  0  0  0  0  0  0
   -4.9530   14.8960    0.8410 C   0  0  0  0  0  0  0  0  0  0  0  0
   -1.9210   15.3270   -4.6620 C   0  0  0  0  0  0  0  0  0  0  0  0
   -6.2000   14.6370    1.7280 C   0  0  0  0  0  0  0  0  0  0  0  0
   -0.5580   15.2090   -4.5430 C   0  0  0  0  0  0  0  0  0  0  0  0
   -2.7190   14.2790   -5.1330 C   0  0  0  0  0  0  0  0  0  0  0  0
   -7.5670   14.6260    1.0900 C   0  0  0  0  0  0  0  0  0  0  0  0
   -6.9520   13.3450    1.5640 C   0  0  0  0  0  0  0  0  0  0  0  0
    0.0050   13.9960   -4.8280 C   0  0  0  0  0  0  0  0  0  0  0  0
    0.3380   16.3260   -4.1150 C   0  0  0  0  0  0  0  0  0  0  0  0
   -2.1380   13.0720   -5.4670 C   0  0  0  0  0  0  0  0  0  0  0  0
   -0.0470   17.4110   -3.6890 O   0  0  0  0  0  0  0  0  0  0  0  0
    1.4330   13.8880   -4.5720 C   0  0  0  0  0  0  0  0  0  0  0  0
    1.6730   16.0870   -4.2940 N   0  0  0  0  0  0  0  0  0  0  0  0
   -0.7680   12.9240   -5.3000 C   0  0  0  0  0  0  0  0  0  0  0  0
    1.9630   12.5170   -4.4820 C   0  0  0  0  0  0  0  0  0  0  0  0
    2.2270   14.8660   -4.3120 N   0  0  0  0  0  0  0  0  0  0  0  0
    1.4230   11.9820   -3.1800 C   0  0  0  0  0  0  0  0  0  0  0  0
    0.6850   10.8590   -3.3020 O   0  0  0  0  0  0  0  0  0  0  0  0
    1.5820   12.4660   -2.0760 O   0  0  0  0  0  0  0  0  0  0  0  0
  1  2  1  0
  2  3  2  3
  2  4  1  0
  3  5  1  0
  4  6  2  0
  4  7  1  0
  6  8  1  0
  7  9  2  0
  8  9  1  0
  5 10  1  0
  9 11  1  0
 10 12  1  0
 10 13  2  0
 11 14  1  0
 11 15  1  0
 14 15  1  0
 12 16  2  0
 12 17  1  0
 13 18  1  0
 17 19  2  0
 16 20  1  0
 17 21  1  0
 16 22  1  0
 18 22  2  0
 20 23  1  0
 20 24  2  0
 21 24  1  0
 23 25  1  0
 25 26  1  0
 25 27  2  0
M  END
