diamond-x0852_0_B-diamond-x0591_0_A
     RDKit          3D

 25 26  0  0  0  0  0  0  0  0999 V2000
   -9.7610   17.6640    7.3870 N   0  0  0  0  0  0  0  0  0  0  0  0
   -9.5940   17.1880    6.3410 C   0  0  0  0  0  0  0  0  0  0  0  0
   -9.3900   16.6710    5.0230 C   0  0  0  0  0  0  0  0  0  0  0  0
   -8.3750   15.7570    4.7460 C   0  0  0  0  0  0  0  0  0  0  0  0
  -10.2350   17.0990    3.9920 C   0  0  0  0  0  0  0  0  0  0  0  0
   -7.5540   15.3360    5.7710 O   0  0  0  0  0  0  0  0  0  0  0  0
   -8.2010   15.2820    3.4440 C   0  0  0  0  0  0  0  0  0  0  0  0
  -10.0590   16.6110    2.6990 C   0  0  0  0  0  0  0  0  0  0  0  0
  -11.1760   17.1680    1.2840 Br  0  0  0  0  0  0  0  0  0  0  0  0
   -7.1270   14.3430    3.0790 C   0  0  0  0  0  0  0  0  0  0  0  0
   -9.0520   15.7110    2.4280 C   0  0  0  0  0  0  0  0  0  0  0  0
   -7.0200   13.8010    1.6570 C   0  0  0  0  0  0  0  0  0  0  0  0
   -6.0190   14.4720    0.8430 N   0  0  0  0  0  0  0  0  0  0  0  0
   -6.3210   14.8300   -0.4460 C   0  0  0  0  0  0  0  0  0  0  0  0
   -7.4480   15.1870   -0.7730 O   0  0  0  0  0  0  0  0  0  0  0  0
   -5.2590   14.7540   -1.4850 C   0  0  0  0  0  0  0  0  0  0  0  0
   -3.8970   14.5310   -1.2160 C   0  0  0  0  0  0  0  0  0  0  0  0
   -5.6780   14.9140   -2.8020 C   0  0  0  0  0  0  0  0  0  0  0  0
   -2.9730   14.4730   -2.2760 C   0  0  0  0  0  0  0  0  0  0  0  0
   -4.7680   14.8520   -3.8520 C   0  0  0  0  0  0  0  0  0  0  0  0
   -3.4250   14.6360   -3.5890 C   0  0  0  0  0  0  0  0  0  0  0  0
   -2.3320   14.5760   -4.9880 S   0  0  0  0  0  0  0  0  0  0  0  0
   -1.0790   15.6000   -4.5340 N   0  0  0  0  0  0  0  0  0  0  0  0
   -1.7550   13.2520   -5.0480 O   0  0  0  0  0  0  0  0  0  0  0  0
   -3.0240   15.1740   -6.1030 O   0  0  0  0  0  0  0  0  0  0  0  0
  1  2  3  0
  2  3  1  0
  3  4  2  0
  3  5  1  0
  4  6  1  0
  4  7  1  0
  5  8  2  0
  8  9  1  0
  7 10  1  0
  7 11  2  0
  8 11  1  0
 10 12  1  0
 12 13  1  0
 13 14  1  0
 14 15  2  0
 14 16  1  0
 16 17  2  0
 16 18  1  0
 17 19  1  0
 18 20  2  0
 19 21  2  0
 20 21  1  0
 21 22  1  0
 22 23  1  0
 22 24  2  0
 22 25  2  0
M  END
