diamond-x0159_0_B-diamond-x1015_0_A
     RDKit          3D

 35 39  0  0  0  0  0  0  0  0999 V2000
    1.6420    9.0070  -10.2230 N   0  0  0  0  0  0  0  0  0  0  0  0
    2.0910    7.7610   -9.6200 C   0  0  0  0  0  0  0  0  0  0  0  0
    0.9970    7.1890   -8.7350 C   0  0  1  0  0  0  0  0  0  0  0  0
    2.3260    9.3760  -11.3050 C   0  0  0  0  0  0  0  0  0  0  0  0
    2.0660   10.5300  -11.9890 N   0  0  0  0  0  0  0  0  0  0  0  0
    3.3080    8.7000  -11.8340 N   0  0  0  0  0  0  0  0  0  0  0  0
   -0.4510    7.2290   -9.2880 C   0  0  0  0  0  0  0  0  0  0  0  0
    3.7190    9.4470  -12.9000 C   0  0  0  0  0  0  0  0  0  0  0  0
    2.9570   10.6070  -13.0260 C   0  0  0  0  0  0  0  0  0  0  0  0
    1.3540    5.8240   -8.2110 C   0  0  0  0  0  0  0  0  0  0  0  0
   -1.5800    7.6560   -8.3490 C   0  0  0  0  0  0  0  0  0  0  0  0
    2.3430    5.0380   -8.8270 C   0  0  0  0  0  0  0  0  0  0  0  0
    0.6980    5.3380   -7.1050 C   0  0  0  0  0  0  0  0  0  0  0  0
    3.1580   11.5530  -14.0240 C   0  0  0  0  0  0  0  0  0  0  0  0
    4.7460    9.2000  -13.8120 C   0  0  0  0  0  0  0  0  0  0  0  0
   -1.9300    9.1320   -8.4550 C   0  0  0  0  0  0  0  0  0  0  0  0
    2.6550    3.7800   -8.3250 C   0  0  0  0  0  0  0  0  0  0  0  0
    1.0060    4.0980   -6.6160 C   0  0  0  0  0  0  0  0  0  0  0  0
    4.1890   11.2900  -14.9300 C   0  0  0  0  0  0  0  0  0  0  0  0
    4.9720   10.1360  -14.8290 C   0  0  0  0  0  0  0  0  0  0  0  0
    1.9840    3.3090   -7.2140 C   0  0  0  0  0  0  0  0  0  0  0  0
   -1.4290    9.9310   -7.2720 C   0  0  0  0  0  0  0  0  0  0  0  0
   -0.4320   10.8980   -7.4350 C   0  0  0  0  0  0  0  0  0  0  0  0
   -1.9560    9.7230   -5.9960 C   0  0  0  0  0  0  0  0  0  0  0  0
    0.0240   11.6440   -6.3430 C   0  0  0  0  0  0  0  0  0  0  0  0
   -1.4970   10.4730   -4.9090 C   0  0  0  0  0  0  0  0  0  0  0  0
   -0.5000   11.4490   -5.0630 C   0  0  0  0  0  0  0  0  0  0  0  0
   -0.0480   12.2090   -3.9500 N   0  0  0  0  0  0  0  0  0  0  0  0
    0.0240   13.6680   -3.9620 C   0  0  1  0  0  0  0  0  0  0  0  0
    0.2940   11.7000   -2.6870 C   0  0  0  0  0  0  0  0  0  0  0  0
   -1.3050   14.3560   -4.2520 C   0  0  0  0  0  0  0  0  0  0  0  0
    0.2980   10.5310   -2.2920 O   0  0  0  0  0  0  0  0  0  0  0  0
    0.6460   12.7510   -1.8990 N   0  0  0  0  0  0  0  0  0  0  0  0
    0.4040   13.9330   -2.5130 C   0  0  0  0  0  0  0  0  0  0  0  0
    0.4900   15.0280   -1.9770 O   0  0  0  0  0  0  0  0  0  0  0  0
  1  2  1  0
  3  2  1  6
  1  4  1  0
  4  5  1  0
  4  6  2  0
  3  7  1  0
  6  8  1  0
  5  9  1  0
  8  9  2  0
  3 10  1  0
  7 11  1  0
 10 12  2  0
 10 13  1  0
  9 14  1  0
  8 15  1  0
 11 16  1  0
 12 17  1  0
 13 18  2  0
 14 19  2  0
 15 20  2  0
 19 20  1  0
 17 21  2  0
 18 21  1  0
 16 22  1  0
 22 23  2  0
 22 24  1  0
 23 25  1  0
 24 26  2  0
 25 27  2  0
 26 27  1  0
 27 28  1  0
 28 29  1  0
 28 30  1  0
 29 31  1  1
 30 32  2  0
 30 33  1  0
 29 34  1  0
 33 34  1  0
 34 35  2  0
M  END
