diamond-x0742_0_A-mac-x0546
     RDKit          3D

 32 36  0  0  0  0  0  0  0  0999 V2000
   -5.4400   12.6450   -0.5010 C   0  0  0  0  0  0  0  0  0  0  0  0
   -6.3410   11.8810    0.4320 C   0  0  0  0  0  0  0  0  0  0  0  0
   -4.9580   12.0590   -1.4840 O   0  0  0  0  0  0  0  0  0  0  0  0
   -5.1450   14.1580   -0.2580 C   0  0  2  0  0  0  0  0  0  0  0  0
   -5.0810   14.3780    1.2780 C   0  0  0  0  0  0  0  0  0  0  0  0
   -6.2470   14.9220   -0.9910 C   0  0  0  0  0  0  0  0  0  0  0  0
   -3.9560   14.8650   -0.9360 C   0  0  2  0  0  0  0  0  0  0  0  0
   -4.2710   14.8190   -2.4280 C   0  0  0  0  0  0  0  0  0  0  0  0
   -2.6460   14.5110   -0.3300 C   0  0  0  0  0  0  0  0  0  0  0  0
   -3.7910   15.0950    1.7420 C   0  0  0  0  0  0  0  0  0  0  0  0
   -5.8110   14.7680   -2.4530 C   0  0  0  0  0  0  0  0  0  0  0  0
   -1.5530   14.0830   -1.0300 C   0  0  0  0  0  0  0  0  0  0  0  0
   -2.5640   14.6330    1.0370 C   0  0  0  0  0  0  0  0  0  0  0  0
   -1.4550   14.3580    1.7530 N   0  0  0  0  0  0  0  0  0  0  0  0
   -0.3970   13.7830   -0.3460 C   0  0  0  0  0  0  0  0  0  0  0  0
    0.7730   13.2990   -1.1070 C   0  0  0  0  0  0  0  0  0  0  0  0
   -0.3950   13.9380    1.0420 C   0  0  0  0  0  0  0  0  0  0  0  0
    0.5960   13.4140   -2.4910 N   0  0  0  0  0  0  0  0  0  0  0  0
    0.3030   12.4090   -3.2070 C   0  0  0  0  0  0  0  0  0  0  0  0
    0.0900   12.5300   -4.6520 C   0  0  0  0  0  0  0  0  0  0  0  0
    0.1650   11.1780   -2.6680 O   0  0  0  0  0  0  0  0  0  0  0  0
    0.3440   13.9810   -4.7320 C   0  0  0  0  0  0  0  0  0  0  0  0
   -0.6610   15.0490   -4.4670 C   0  0  2  0  0  0  0  0  0  0  0  0
    1.5030   14.5380   -4.9720 C   0  0  0  0  0  0  0  0  0  0  0  0
   -1.9370   15.1820   -5.1870 C   0  0  0  0  0  0  0  0  0  0  0  0
    0.2530   16.2140   -4.7870 C   0  0  0  0  0  0  0  0  0  0  0  0
    1.4800   15.9060   -5.0180 N   0  0  0  0  0  0  0  0  0  0  0  0
   -2.3730   16.4050   -5.4920 C   0  0  0  0  0  0  0  0  0  0  0  0
   -0.3130   17.5680   -4.8010 C   0  0  0  0  0  0  0  0  0  0  0  0
   -3.5620   16.5760   -6.1420 O   0  0  0  0  0  0  0  0  0  0  0  0
   -1.6160   17.6130   -5.1580 C   0  0  0  0  0  0  0  0  0  0  0  0
   -4.3540   15.3820   -6.0740 C   0  0  0  0  0  0  0  0  0  0  0  0
  1  2  1  0
  1  3  2  0
  4  1  1  1
  4  5  1  0
  4  6  1  0
  4  7  1  0
  7  8  1  6
  7  9  1  0
  5 10  1  0
  6 11  1  0
  8 11  1  0
  9 12  1  0
  9 13  2  0
 10 13  1  0
 13 14  1  0
 12 15  2  0
 15 16  1  0
 14 17  2  0
 15 17  1  0
 16 18  1  0
 18 19  2  3
 19 20  1  0
 19 21  1  0
 20 22  1  0
 22 23  1  0
 22 24  2  0
 23 25  1  6
 23 26  1  0
 24 27  1  0
 26 27  2  0
 25 28  2  0
 26 29  1  0
 28 30  1  0
 28 31  1  0
 29 31  2  0
 30 32  1  0
M  END
