diamond-x0628_0_A-diamond-x0631_0_A
     RDKit          3D

 27 29  0  0  0  0  0  0  0  0999 V2000
   -1.3150    9.3840   -7.3980 C   0  0  2  0  0  0  0  0  0  0  0  0
   -2.6250    8.6260   -7.2060 C   0  0  0  0  0  0  0  0  0  0  0  0
   -0.0480    8.5330   -7.2760 C   0  0  0  0  0  0  0  0  0  0  0  0
   -1.2080   10.5010   -6.4230 C   0  0  0  0  0  0  0  0  0  0  0  0
   -2.1330   10.7210   -5.4440 N   0  0  0  0  0  0  0  0  0  0  0  0
   -0.1990   11.3690   -6.4380 N   0  0  0  0  0  0  0  0  0  0  0  0
    1.1290    9.2270   -7.8360 N   0  0  0  0  0  0  0  0  0  0  0  0
   -0.4990   12.1830   -5.4220 N   0  0  0  0  0  0  0  0  0  0  0  0
   -1.6720   11.7850   -4.8230 C   0  0  0  0  0  0  0  0  0  0  0  0
    1.1160   10.6320   -7.6280 N   0  0  0  0  0  0  0  0  0  0  0  0
    1.2430    9.0340   -9.2520 N   0  0  0  0  0  0  0  0  0  0  0  0
   -2.3040   12.4560   -3.6680 C   0  0  0  0  0  0  0  0  0  0  0  0
    0.3970   13.2830   -5.1350 C   0  0  0  0  0  0  0  0  0  0  0  0
    0.5280   11.2100   -8.8100 N   0  0  0  0  0  0  0  0  0  0  0  0
    0.6560   10.2130   -9.8690 C   0  0  1  0  0  0  0  0  0  0  0  0
    1.5560   12.9200   -4.2160 C   0  0  0  0  0  0  0  0  0  0  0  0
    1.5870   10.7150  -10.8440 N   0  0  0  0  0  0  0  0  0  0  0  0
    1.0660   12.2780   -2.9480 C   0  0  0  0  0  0  0  0  0  0  0  0
    2.1650    9.7110  -11.7430 C   0  0  2  0  0  0  0  0  0  0  0  0
    0.6230   11.1510   -2.8060 O   0  0  0  0  0  0  0  0  0  0  0  0
    1.1610   13.1100   -1.8990 O   0  0  0  0  0  0  0  0  0  0  0  0
    2.7240    8.6810  -10.9440 O   0  0  0  0  0  0  0  0  0  0  0  0
    3.1540   10.1800  -12.8580 C   0  0  1  0  0  0  0  0  0  0  0  0
    3.3210    9.3350  -13.9850 O   0  0  0  0  0  0  0  0  0  0  0  0
    2.7640   11.5030  -13.4940 C   0  0  0  0  0  0  0  0  0  0  0  0
    3.6750   11.5740  -14.6950 C   0  0  0  0  0  0  0  0  0  0  0  0
    4.1350   10.1360  -14.8530 C   0  0  0  0  0  0  0  0  0  0  0  0
  1  2  1  1
  1  3  1  0
  1  4  1  0
  4  5  1  0
  4  6  2  0
  3  7  1  0
  6  8  1  0
  5  9  2  0
  8  9  1  0
  7 10  1  0
  7 11  1  0
  9 12  1  0
  8 13  1  0
 10 14  1  0
 11 15  1  0
 14 15  1  0
 13 16  1  0
 15 17  1  6
 16 18  1  0
 17 19  1  0
 18 20  2  0
 18 21  1  0
 19 22  1  1
 19 23  1  0
 23 24  1  0
 23 25  1  6
 25 26  1  0
 24 27  1  0
 26 27  1  0
M  END
