diamond-x0681_0_A-mac-x0328
     RDKit          3D

 21 23  0  0  0  0  0  0  0  0999 V2000
   -4.3490   15.5830   -1.6250 N   0  0  0  0  0  0  0  0  0  0  0  0
   -2.9840   15.3840   -1.0040 C   0  0  2  0  0  0  0  0  0  0  0  0
   -1.7660   15.5040   -2.0850 C   0  0  0  0  0  0  0  0  0  0  0  0
   -3.0170   14.1540   -0.0110 C   0  0  2  0  0  0  0  0  0  0  0  0
   -2.2580   16.4360   -3.0840 O   0  0  0  0  0  0  0  0  0  0  0  0
   -1.4410   14.3050   -2.7960 O   0  0  0  0  0  0  0  0  0  0  0  0
   -4.2210   13.2480   -0.1440 C   0  0  0  0  0  0  0  0  0  0  0  0
   -3.0180   14.6860    1.4370 C   0  0  0  0  0  0  0  0  0  0  0  0
   -0.4930   16.1140   -1.4800 C   0  0  0  0  0  0  0  0  0  0  0  0
   -5.3360   13.4220    0.6440 N   0  0  0  0  0  0  0  0  0  0  0  0
   -4.3240   15.4440    1.6590 C   0  0  0  0  0  0  0  0  0  0  0  0
   -4.4000   12.2260   -0.9610 N   0  0  0  0  0  0  0  0  0  0  0  0
   -1.3300   15.6360   -0.5630 C   0  0  0  0  0  0  0  0  0  0  0  0
   -0.3040   16.2760   -2.8220 C   0  0  0  0  0  0  0  0  0  0  0  0
   -5.4900   14.4540    1.6520 C   0  0  0  0  0  0  0  0  0  0  0  0
   -6.2540   12.4710    0.3130 C   0  0  0  0  0  0  0  0  0  0  0  0
   -5.6550   11.7420   -0.6840 C   0  0  0  0  0  0  0  0  0  0  0  0
   -2.4210   15.0990   -1.2720 C   0  0  0  0  0  0  0  0  0  0  0  0
   -1.3790   15.7470   -3.5160 C   0  0  0  0  0  0  0  0  0  0  0  0
   -2.4270   15.1610   -2.7290 C   0  0  0  0  0  0  0  0  0  0  0  0
   -3.5060   14.6210   -3.3740 O   0  0  0  0  0  0  0  0  0  0  0  0
  2  1  1  6
  2  3  1  0
  2  4  1  0
  3  5  1  0
  3  6  1  0
  4  7  1  0
  4  8  1  1
  3  9  1  0
  7 10  1  0
  8 11  1  0
  7 12  2  0
  9 13  2  0
  9 14  1  0
 10 15  1  0
 11 15  1  0
 10 16  1  0
 12 17  1  0
 16 17  2  0
 13 18  1  0
 14 19  2  0
 18 20  2  0
 19 20  1  0
 20 21  1  0
M  END
