diamond-x0855_0_A-mac-x0213
     RDKit          3D

 19 21  0  0  0  0  0  0  0  0999 V2000
    2.1240   12.7900   -3.1890 O   0  0  0  0  0  0  0  0  0  0  0  0
    0.8750   12.6900   -3.8470 C   0  0  0  0  0  0  0  0  0  0  0  0
    0.9150   12.2630   -5.3160 C   0  0  0  0  0  0  0  0  0  0  0  0
    0.0930   11.7970   -3.0660 O   0  0  0  0  0  0  0  0  0  0  0  0
    0.2430   14.0630   -4.0840 C   0  0  0  0  0  0  0  0  0  0  0  0
   -0.2570   11.4820   -5.6350 N   0  0  0  0  0  0  0  0  0  0  0  0
   -1.2290   14.3690   -3.7490 C   0  0  0  0  0  0  0  0  0  0  0  0
    0.9810   15.3120   -3.6070 C   0  0  0  0  0  0  0  0  0  0  0  0
   -0.3200   10.3650   -6.3960 C   0  0  0  0  0  0  0  0  0  0  0  0
   -1.4550   11.8690   -5.1410 N   0  0  0  0  0  0  0  0  0  0  0  0
   -1.2130   15.7200   -4.4180 C   0  0  0  0  0  0  0  0  0  0  0  0
    0.0850   16.2650   -4.3310 C   0  0  0  0  0  0  0  0  0  0  0  0
   -1.6300    9.9990   -6.3870 C   0  0  0  0  0  0  0  0  0  0  0  0
   -2.2990   10.9460   -5.6110 C   0  0  0  0  0  0  0  0  0  0  0  0
   -2.2350   16.4160   -5.0510 C   0  0  0  0  0  0  0  0  0  0  0  0
    0.3850   17.4990   -4.8680 C   0  0  0  0  0  0  0  0  0  0  0  0
   -2.3960    8.5330   -7.2360 Br  0  0  0  0  0  0  0  0  0  0  0  0
   -1.9310   17.6690   -5.6000 C   0  0  0  0  0  0  0  0  0  0  0  0
   -0.6350   18.2030   -5.5070 C   0  0  0  0  0  0  0  0  0  0  0  0
  2  1  1  0
  2  3  1  0
  2  4  1  0
  2  5  1  0
  3  6  1  0
  5  7  1  0
  5  8  1  0
  6  9  1  0
  6 10  1  0
  7 11  1  0
  8 12  1  0
 11 12  2  0
  9 13  2  0
 10 14  2  0
 13 14  1  0
 11 15  1  0
 12 16  1  0
 13 17  1  0
 15 18  2  0
 16 19  2  0
 18 19  1  0
M  END
