diamond-x0722_0_A-mac-x0346
     RDKit          3D

 14 14  0  0  0  0  0  0  0  0999 V2000
   -4.3800   15.8260    2.2120 C   0  0  0  0  0  0  0  0  0  0  0  0
   -3.3830   15.2940    1.2940 C   0  0  0  0  0  0  0  0  0  0  0  0
   -2.2180   14.9490    1.7950 N   0  0  0  0  0  0  0  0  0  0  0  0
   -3.4620   15.0930   -0.1050 C   0  0  0  0  0  0  0  0  0  0  0  0
   -4.6270   15.3700   -0.9980 C   0  0  0  0  0  0  0  0  0  0  0  0
   -2.2060   14.5940   -0.4220 C   0  0  0  0  0  0  0  0  0  0  0  0
   -1.5180   14.5360    0.7620 N   0  0  0  0  0  0  0  0  0  0  0  0
   -0.1710   14.1040    1.0090 C   0  0  0  0  0  0  0  0  0  0  0  0
   -1.6220   14.1850   -1.7150 C   0  0  0  0  0  0  0  0  0  0  0  0
   -5.8680   14.6570   -0.4920 C   0  0  0  0  0  0  0  0  0  0  0  0
   -7.0270   15.1980   -0.7210 N   0  0  0  0  0  0  0  0  0  0  0  0
   -5.7180   13.4710    0.1980 N   0  0  0  0  0  0  0  0  0  0  0  0
   -8.0570   14.4970   -0.2090 N   0  0  0  0  0  0  0  0  0  0  0  0
   -7.9480   14.5150    1.2420 O   0  0  0  0  0  0  0  0  0  0  0  0
  1  2  1  0
  2  3  2  0
  2  4  1  0
  4  5  1  0
  4  6  2  0
  3  7  1  0
  6  7  1  0
  7  8  1  0
  6  9  1  0
  5 10  1  0
 10 11  2  3
 10 12  1  0
 11 13  1  0
 13 14  1  0
M  END
