diamond-x0766_0_A-mac-x0436
     RDKit          3D

 26 29  0  0  0  0  0  0  0  0999 V2000
    0.9570   12.7360   -2.6820 C   0  0  0  0  0  0  0  0  0  0  0  0
    2.1510   12.4510   -2.0380 O   0  0  0  0  0  0  0  0  0  0  0  0
   -0.0720   12.1150   -1.9170 O   0  0  0  0  0  0  0  0  0  0  0  0
    1.1000   12.1670   -4.0790 C   0  0  0  0  0  0  0  0  0  0  0  0
    1.0470   14.2360   -2.8340 C   0  0  1  0  0  0  0  0  0  0  0  0
    0.2700   12.8050   -5.1690 C   0  0  0  0  0  0  0  0  0  0  0  0
    1.9690   14.6630   -3.9780 C   0  0  0  0  0  0  0  0  0  0  0  0
   -0.1650   15.1540   -2.9760 C   0  0  1  0  0  0  0  0  0  0  0  0
    1.0820   15.2770   -5.0440 C   0  0  0  0  0  0  0  0  0  0  0  0
   -0.3320   15.3350   -4.4730 C   0  0  0  0  0  0  0  0  0  0  0  0
   -1.4160   14.8620   -2.1770 C   0  0  0  0  0  0  0  0  0  0  0  0
   -0.5460   11.6790   -5.6550 C   0  0  0  0  0  0  0  0  0  0  0  0
   -2.7010   14.8320   -2.6950 C   0  0  0  0  0  0  0  0  0  0  0  0
   -1.4330   14.5990   -0.7700 C   0  0  0  0  0  0  0  0  0  0  0  0
   -1.8860   11.4290   -4.9690 C   0  0  0  0  0  0  0  0  0  0  0  0
   -0.0540   10.9470   -6.5940 N   0  0  0  0  0  0  0  0  0  0  0  0
   -2.3300   12.1960   -4.1260 O   0  0  0  0  0  0  0  0  0  0  0  0
   -2.6990   14.3930   -0.2810 C   0  0  0  0  0  0  0  0  0  0  0  0
   -3.8810   14.5080   -1.5030 S   0  0  0  0  0  0  0  0  0  0  0  0
   -2.5260   10.2910   -5.3620 N   0  0  0  0  0  0  0  0  0  0  0  0
   -0.7910    9.8460   -6.9920 C   0  0  0  0  0  0  0  0  0  0  0  0
   -2.0130    9.5010   -6.3960 C   0  0  0  0  0  0  0  0  0  0  0  0
   -0.2820    9.0600   -8.0180 C   0  0  0  0  0  0  0  0  0  0  0  0
   -0.9840    7.9380   -8.4470 C   0  0  0  0  0  0  0  0  0  0  0  0
   -2.7190    8.3830   -6.8170 C   0  0  0  0  0  0  0  0  0  0  0  0
   -2.1980    7.5990   -7.8490 C   0  0  0  0  0  0  0  0  0  0  0  0
  1  2  1  0
  1  3  1  0
  1  4  1  0
  5  1  1  6
  4  6  1  0
  5  7  1  0
  5  8  1  0
  7  9  1  0
  8 10  1  0
  9 10  1  0
  8 11  1  6
  6 12  1  0
 11 13  2  0
 11 14  1  0
 12 15  1  0
 12 16  2  0
 15 17  2  0
 14 18  2  0
 13 19  1  0
 18 19  1  0
 15 20  1  0
 16 21  1  0
 20 22  1  0
 21 22  2  0
 21 23  1  0
 23 24  2  0
 22 25  1  0
 24 26  1  0
 25 26  2  0
M  END
