diamond-x0524_0_A-mac-x0139
     RDKit          3D

 36 39  0  0  0  0  0  0  0  0999 V2000
   -0.2520    8.4340   -7.9430 N   0  0  0  0  0  0  0  0  0  0  0  0
   -0.9150    9.4280   -7.2590 C   0  0  0  0  0  0  0  0  0  0  0  0
   -2.3560    9.0960   -6.8870 C   0  0  0  0  0  0  0  0  0  0  0  0
    0.6820    8.5350   -8.9910 C   0  0  0  0  0  0  0  0  0  0  0  0
   -0.3920   10.5590   -6.9360 N   0  0  0  0  0  0  0  0  0  0  0  0
    1.8650    7.7930   -8.8990 C   0  0  0  0  0  0  0  0  0  0  0  0
    0.5130    9.3290  -10.1250 C   0  0  0  0  0  0  0  0  0  0  0  0
    0.9940   10.8570   -7.2750 C   0  0  0  0  0  0  0  0  0  0  0  0
    2.8360    7.8440   -9.9060 C   0  0  0  0  0  0  0  0  0  0  0  0
    1.4840    9.3820  -11.1340 C   0  0  0  0  0  0  0  0  0  0  0  0
    1.6040   11.5350   -6.0580 C   0  0  0  0  0  0  0  0  0  0  0  0
    2.6590    8.6420  -11.0420 C   0  0  0  0  0  0  0  0  0  0  0  0
    3.6580    8.6620  -12.0240 N   0  0  0  0  0  0  0  0  0  0  0  0
    0.8180   11.1300   -4.8130 C   0  0  0  0  0  0  0  0  0  0  0  0
    1.5310   11.4680   -3.6150 O   0  0  0  0  0  0  0  0  0  0  0  0
    3.9410    9.5480  -13.0720 C   0  0  0  0  0  0  0  0  0  0  0  0
    1.1170   12.5680   -2.9280 C   0  0  0  0  0  0  0  0  0  0  0  0
    3.2120   10.7210  -13.3090 C   0  0  0  0  0  0  0  0  0  0  0  0
    5.0070    9.2510  -13.9250 C   0  0  0  0  0  0  0  0  0  0  0  0
    0.6880   13.6750   -3.8550 C   0  0  0  0  0  0  0  0  0  0  0  0
    1.1030   12.6500   -1.7160 O   0  0  0  0  0  0  0  0  0  0  0  0
    3.5360   11.5700  -14.3660 C   0  0  0  0  0  0  0  0  0  0  0  0
    5.3340   10.0990  -14.9850 C   0  0  0  0  0  0  0  0  0  0  0  0
    0.2950   14.8950   -3.0220 C   0  0  0  0  0  0  0  0  0  0  0  0
    4.5970   11.2600  -15.2050 C   0  0  0  0  0  0  0  0  0  0  0  0
   -1.0750   14.7510   -2.4740 N   0  0  0  0  0  0  0  0  0  0  0  0
   -2.1410   15.0090   -3.4470 C   0  0  0  0  0  0  0  0  0  0  0  0
   -1.2830   14.7850   -1.0750 C   0  0  0  0  0  0  0  0  0  0  0  0
   -2.5170   14.9460   -0.5280 C   0  0  0  0  0  0  0  0  0  0  0  0
   -0.1560   14.6780   -0.2490 N   0  0  0  0  0  0  0  0  0  0  0  0
   -2.6270   14.9750    0.9490 C   0  0  0  0  0  0  0  0  0  0  0  0
   -0.3330   14.6850    1.0420 C   0  0  0  0  0  0  0  0  0  0  0  0
   -3.8680   15.1310   -0.9510 C   0  0  0  0  0  0  0  0  0  0  0  0
   -1.5220   14.7640    1.6800 N   0  0  0  0  0  0  0  0  0  0  0  0
   -3.8360   15.2060    1.3470 N   0  0  0  0  0  0  0  0  0  0  0  0
   -4.5690   15.2930    0.1780 C   0  0  0  0  0  0  0  0  0  0  0  0
  1  2  1  0
  2  3  1  0
  1  4  1  0
  2  5  2  3
  4  6  2  0
  4  7  1  0
  5  8  1  0
  6  9  1  0
  7 10  2  0
  8 11  1  0
  9 12  2  0
 10 12  1  0
 12 13  1  0
 11 14  1  0
 14 15  1  0
 13 16  1  0
 15 17  1  0
 16 18  2  0
 16 19  1  0
 17 20  1  0
 17 21  2  0
 18 22  1  0
 19 23  2  0
 20 24  1  0
 22 25  2  0
 23 25  1  0
 24 26  1  0
 26 27  1  0
 26 28  1  0
 28 29  2  0
 28 30  1  0
 29 31  1  0
 30 32  2  0
 29 33  1  0
 31 34  1  0
 32 34  1  0
 31 35  2  0
 33 36  2  0
 35 36  1  0
M  END
