diamond-x0864_0_A-diamond-x0849_0_A
     RDKit          3D

 24 26  0  0  0  0  0  0  0  0999 V2000
    1.5650   11.7040   -6.9900 O   0  0  0  0  0  0  0  0  0  0  0  0
    0.5080   11.2670   -6.5710 C   0  0  0  0  0  0  0  0  0  0  0  0
   -0.1360   11.7620   -5.4560 N   0  0  0  0  0  0  0  0  0  0  0  0
   -0.1400   10.1310   -7.2560 C   0  0  0  0  0  0  0  0  0  0  0  0
    0.5100   12.8830   -4.7960 C   0  0  0  0  0  0  0  0  0  0  0  0
   -1.2900   11.1960   -4.9480 C   0  0  0  0  0  0  0  0  0  0  0  0
   -1.2670    9.6090   -6.7600 C   0  0  0  0  0  0  0  0  0  0  0  0
    0.6780   12.6950   -3.3050 C   0  0  0  0  0  0  0  0  0  0  0  0
   -2.1200    8.1700   -7.5830 Br  0  0  0  0  0  0  0  0  0  0  0  0
   -1.8620   10.1510   -5.5570 C   0  0  0  0  0  0  0  0  0  0  0  0
    0.6590   11.4080   -2.8720 O   0  0  0  0  0  0  0  0  0  0  0  0
    0.8210   13.7310   -2.5690 N   0  0  0  0  0  0  0  0  0  0  0  0
    0.9800   13.5990   -1.1530 C   0  0  0  0  0  0  0  0  0  0  0  0
   -0.1980   14.0480   -0.3510 C   0  0  0  0  0  0  0  0  0  0  0  0
   -0.2460   14.1030    1.0390 C   0  0  0  0  0  0  0  0  0  0  0  0
   -1.3380   14.4220   -1.0070 C   0  0  0  0  0  0  0  0  0  0  0  0
   -2.4620   14.8150   -0.2880 C   0  0  0  0  0  0  0  0  0  0  0  0
   -1.3050   14.4870    1.7550 N   0  0  0  0  0  0  0  0  0  0  0  0
   -2.3900   14.8280    1.1040 C   0  0  0  0  0  0  0  0  0  0  0  0
   -3.6630   15.1930   -0.8880 C   0  0  0  0  0  0  0  0  0  0  0  0
   -3.8500   15.1950   -2.7740 Br  0  0  0  0  0  0  0  0  0  0  0  0
   -3.4150   15.1790    1.8370 N   0  0  0  0  0  0  0  0  0  0  0  0
   -4.7410   15.5650   -0.1110 C   0  0  0  0  0  0  0  0  0  0  0  0
   -4.5560   15.5340    1.2480 C   0  0  0  0  0  0  0  0  0  0  0  0
  1  2  2  0
  2  3  1  0
  2  4  1  0
  3  5  1  0
  3  6  1  0
  4  7  2  0
  5  8  1  0
  7  9  1  0
  6 10  2  0
  7 10  1  0
  8 11  1  0
  8 12  2  3
 12 13  1  0
 13 14  1  0
 14 15  2  0
 14 16  1  0
 16 17  2  0
 15 18  1  0
 17 19  1  0
 18 19  2  0
 17 20  1  0
 20 21  1  0
 19 22  1  0
 20 23  2  0
 22 24  2  0
 23 24  1  0
M  END
