diamond-x1015_0_A-diamond-x0689_0_A
     RDKit          3D

 24 26  0  0  0  0  0  0  0  0999 V2000
   -1.1910   14.2870   -4.4250 C   0  0  0  0  0  0  0  0  0  0  0  0
    0.1190   13.5470   -4.1530 C   0  0  2  0  0  0  0  0  0  0  0  0
   -0.0200   12.0940   -4.1020 N   0  0  0  0  0  0  0  0  0  0  0  0
    0.5110   13.7740   -2.7150 C   0  0  0  0  0  0  0  0  0  0  0  0
    0.9960   14.8330   -2.2310 N   0  0  0  0  0  0  0  0  0  0  0  0
    0.1390   11.6030   -2.7980 C   0  0  0  0  0  0  0  0  0  0  0  0
    0.2650   12.6680   -1.9850 N   0  0  0  0  0  0  0  0  0  0  0  0
   -0.4550   11.3330   -5.1950 C   0  0  0  0  0  0  0  0  0  0  0  0
    0.1640   10.4420   -2.3800 O   0  0  0  0  0  0  0  0  0  0  0  0
    1.2030   14.6260   -0.8210 C   0  0  0  0  0  0  0  0  0  0  0  0
    0.0680   11.5300   -6.4760 C   0  0  0  0  0  0  0  0  0  0  0  0
   -1.4330   10.3440   -5.0210 C   0  0  0  0  0  0  0  0  0  0  0  0
   -0.3720   10.7630   -7.5540 C   0  0  0  0  0  0  0  0  0  0  0  0
   -1.8760    9.5740   -6.0940 C   0  0  0  0  0  0  0  0  0  0  0  0
   -0.0950   14.5900   -0.1220 C   0  0  0  0  0  0  0  0  0  0  0  0
   -1.3420    9.7870   -7.3580 C   0  0  0  0  0  0  0  0  0  0  0  0
   -1.2460   14.6220   -0.8600 C   0  0  0  0  0  0  0  0  0  0  0  0
   -0.2920   14.5180    1.2420 C   0  0  0  0  0  0  0  0  0  0  0  0
   -1.8870    8.8380   -8.6790 Cl  0  0  0  0  0  0  0  0  0  0  0  0
   -2.4660   14.5870   -0.3410 N   0  0  0  0  0  0  0  0  0  0  0  0
   -1.5010   14.4780    1.8080 N   0  0  0  0  0  0  0  0  0  0  0  0
   -2.5450   14.5130    0.9830 C   0  0  0  0  0  0  0  0  0  0  0  0
   -3.8280   14.4760    1.4310 N   0  0  0  0  0  0  0  0  0  0  0  0
   -4.5950   15.6300    1.1210 C   0  0  0  0  0  0  0  0  0  0  0  0
  2  1  1  1
  2  3  1  0
  2  4  1  0
  4  5  2  3
  3  6  1  0
  4  7  1  0
  6  7  1  0
  3  8  1  0
  6  9  2  0
  5 10  1  0
  8 11  2  0
  8 12  1  0
 11 13  1  0
 12 14  2  0
 10 15  1  0
 13 16  2  0
 14 16  1  0
 15 17  2  0
 15 18  1  0
 16 19  1  0
 17 20  1  0
 18 21  2  0
 20 22  2  0
 21 22  1  0
 22 23  1  0
 23 24  1  0
M  END
