diamond-x0626_0_A-diamond-x0574_0_A
     RDKit          3D

 16 17  0  0  0  0  0  0  0  0999 V2000
   -5.5860   13.6010    1.6920 N   0  0  0  0  0  0  0  0  0  0  0  0
   -4.2140   13.2740    1.4330 C   0  0  0  0  0  0  0  0  0  0  0  0
   -3.3620   14.4070    1.2710 N   0  0  0  0  0  0  0  0  0  0  0  0
   -4.0710   15.5560    1.2450 C   0  0  0  0  0  0  0  0  0  0  0  0
   -2.4490   14.2330    0.1520 C   0  0  1  0  0  0  0  0  0  0  0  0
   -3.1500   14.5050   -1.2180 C   0  0  2  0  0  0  0  0  0  0  0  0
   -1.2940   15.2660    0.2430 C   0  0  1  0  0  0  0  0  0  0  0  0
   -4.6490   15.9450    0.1200 C   0  0  0  0  0  0  0  0  0  0  0  0
    0.0060   14.7660    0.8430 C   0  0  0  0  0  0  0  0  0  0  0  0
   -2.1450   15.3600   -1.9530 C   0  0  0  0  0  0  0  0  0  0  0  0
   -4.5430   15.1530   -1.1030 C   0  0  2  0  0  0  0  0  0  0  0  0
   -1.1390   15.7670   -1.1650 C   0  0  0  0  0  0  0  0  0  0  0  0
   -5.6390   14.2200   -1.0290 O   0  0  0  0  0  0  0  0  0  0  0  0
   -6.9060   14.8560   -0.8130 C   0  0  0  0  0  0  0  0  0  0  0  0
   -7.4450   14.4820    0.5750 C   0  0  0  0  0  0  0  0  0  0  0  0
   -8.9140   14.8310    0.7460 C   0  0  0  0  0  0  0  0  0  0  0  0
  1  2  1  0
  2  3  1  0
  3  4  1  0
  5  3  1  1
  5  6  1  0
  5  7  1  0
  4  8  2  0
  7  9  1  6
  6 10  1  6
  6 11  1  0
  8 11  1  0
  7 12  1  0
 10 12  2  0
 11 13  1  1
 13 14  1  0
 14 15  1  0
 15 16  1  0
M  END
