diamond-x0681_0_A-mac-x0451
     RDKit          3D

 17 19  0  0  0  0  0  0  0  0999 V2000
   -6.4500   15.9590   -2.1320 N   0  0  0  0  0  0  0  0  0  0  0  0
   -5.7310   15.7830   -0.8900 C   0  0  0  0  0  0  0  0  0  0  0  0
   -4.7380   14.6590   -1.0130 C   0  0  2  0  0  0  0  0  0  0  0  0
   -5.5280   13.4860   -0.4510 C   0  0  2  0  0  0  0  0  0  0  0  0
   -3.4020   15.1490   -0.3720 C   0  0  1  0  0  0  0  0  0  0  0  0
   -4.6820   14.5980   -2.4970 C   0  0  0  0  0  0  0  0  0  0  0  0
   -5.3370   13.0500    0.9830 C   0  0  1  0  0  0  0  0  0  0  0  0
   -3.2150   15.1910    1.1310 C   0  0  0  0  0  0  0  0  0  0  0  0
   -5.5860   12.2070   -1.1580 N   0  0  0  0  0  0  0  0  0  0  0  0
   -3.5680   14.5530   -3.1620 C   0  0  0  0  0  0  0  0  0  0  0  0
   -2.1950   14.7950   -1.1890 C   0  0  0  0  0  0  0  0  0  0  0  0
   -5.4590   14.2810    1.8900 C   0  0  2  0  0  0  0  0  0  0  0  0
   -4.0810   14.8390    2.0960 C   0  0  0  0  0  0  0  0  0  0  0  0
   -6.4040   11.9790    0.9270 C   0  0  0  0  0  0  0  0  0  0  0  0
   -6.4800   11.5410   -0.3540 C   0  0  0  0  0  0  0  0  0  0  0  0
   -2.3090   14.5330   -2.4950 C   0  0  0  0  0  0  0  0  0  0  0  0
   -6.1040   13.9870    3.1650 N   0  0  0  0  0  0  0  0  0  0  0  0
  1  2  1  0
  3  2  1  6
  3  4  1  0
  3  5  1  0
  3  6  1  0
  4  7  1  0
  5  8  1  1
  4  9  1  6
  6 10  2  0
  5 11  1  0
  7 12  1  0
  8 13  2  0
 12 13  1  0
  7 14  1  1
  9 15  1  0
 14 15  2  0
 10 16  1  0
 11 16  2  0
 12 17  1  1
M  END
