diamond-x0421_0_A-diamond-x0727_0_A
     RDKit          3D

 26 28  0  0  0  0  0  0  0  0999 V2000
   -3.5850   15.1990   -2.7790 N   0  0  0  0  0  0  0  0  0  0  0  0
   -2.7930   14.8390   -1.7170 C   0  0  0  0  0  0  0  0  0  0  0  0
   -1.5620   14.4780   -1.6420 N   0  0  0  0  0  0  0  0  0  0  0  0
   -3.4960   14.8720   -0.4380 C   0  0  0  0  0  0  0  0  0  0  0  0
   -0.7220   14.3810   -2.8340 C   0  0  0  0  0  0  0  0  0  0  0  0
   -2.9160   15.0760    0.7970 C   0  0  0  0  0  0  0  0  0  0  0  0
   -4.8690   14.6880   -0.3010 N   0  0  0  0  0  0  0  0  0  0  0  0
    0.7410   14.2350   -2.3680 C   0  0  0  0  0  0  0  0  0  0  0  0
   -3.9370   15.0100    1.6880 N   0  0  0  0  0  0  0  0  0  0  0  0
   -5.0830   14.7740    0.9970 C   0  0  0  0  0  0  0  0  0  0  0  0
    1.2600   12.8840   -2.4460 O   0  0  0  0  0  0  0  0  0  0  0  0
   -6.4770   14.6170    1.6640 C   0  0  0  0  0  0  0  0  0  0  0  0
    0.6610   11.9870   -3.2800 C   0  0  0  0  0  0  0  0  0  0  0  0
   -7.7200   14.6540    0.8170 C   0  0  0  0  0  0  0  0  0  0  0  0
   -7.2870   13.3700    1.4680 C   0  0  0  0  0  0  0  0  0  0  0  0
    0.9040   12.3320   -4.7600 C   0  0  1  0  0  0  0  0  0  0  0  0
    0.0220   11.0040   -2.8990 O   0  0  0  0  0  0  0  0  0  0  0  0
    0.1490   11.3940   -5.5950 N   0  0  0  0  0  0  0  0  0  0  0  0
    0.5080   13.7580   -5.1150 C   0  0  0  0  0  0  0  0  0  0  0  0
    0.7130   11.0760   -6.8030 C   0  0  0  0  0  0  0  0  0  0  0  0
    1.6510   11.6960   -7.2200 O   0  0  0  0  0  0  0  0  0  0  0  0
    0.0950    9.8930   -7.5420 C   0  0  0  0  0  0  0  0  0  0  0  0
   -1.2030   10.2740   -8.2530 C   0  0  0  0  0  0  0  0  0  0  0  0
   -0.2490    8.7350   -6.5860 C   0  0  0  0  0  0  0  0  0  0  0  0
   -2.1770    9.1330   -7.9980 C   0  0  0  0  0  0  0  0  0  0  0  0
   -1.7510    8.5210   -6.6770 C   0  0  0  0  0  0  0  0  0  0  0  0
  1  2  1  0
  2  3  2  3
  2  4  1  0
  3  5  1  0
  4  6  2  0
  4  7  1  0
  5  8  1  0
  6  9  1  0
  7 10  2  0
  9 10  1  0
  8 11  1  0
 10 12  1  0
 11 13  1  0
 12 14  1  0
 12 15  1  0
 14 15  1  0
 13 16  1  0
 13 17  2  0
 16 18  1  0
 16 19  1  1
 18 20  1  0
 20 21  2  0
 20 22  1  0
 22 23  1  0
 22 24  1  0
 23 25  1  0
 24 26  1  0
 25 26  1  0
M  END
