diamond-x0681_0_A-mac-x0190
     RDKit          3D

 18 20  0  0  0  0  0  0  0  0999 V2000
   -4.1820   15.4110   -2.3010 N   0  0  0  0  0  0  0  0  0  0  0  0
   -3.1150   14.7920   -1.7200 C   0  0  0  0  0  0  0  0  0  0  0  0
   -2.0490   14.7520   -2.3180 O   0  0  0  0  0  0  0  0  0  0  0  0
   -3.3440   14.1610   -0.3390 C   0  0  2  0  0  0  0  0  0  0  0  0
   -4.4260   13.1100   -0.4760 C   0  0  0  0  0  0  0  0  0  0  0  0
   -3.6200   15.2300    0.7760 C   0  0  0  0  0  0  0  0  0  0  0  0
   -5.6530   13.3010    0.0310 N   0  0  0  0  0  0  0  0  0  0  0  0
   -4.8410   14.8830    1.6470 C   0  0  0  0  0  0  0  0  0  0  0  0
   -4.3800   11.9360   -1.0640 N   0  0  0  0  0  0  0  0  0  0  0  0
   -5.9480   14.5030    0.6720 C   0  0  2  0  0  0  0  0  0  0  0  0
   -6.4440   12.2330   -0.2050 C   0  0  0  0  0  0  0  0  0  0  0  0
   -5.6350   11.3870   -0.8990 C   0  0  0  0  0  0  0  0  0  0  0  0
   -7.4500   14.6020    0.9030 C   0  0  0  0  0  0  0  0  0  0  0  0
   -5.9130   15.3920   -0.5200 C   0  0  0  0  0  0  0  0  0  0  0  0
   -8.1860   13.9820    2.0570 C   0  0  0  0  0  0  0  0  0  0  0  0
   -8.1030   15.2470   -0.0280 N   0  0  0  0  0  0  0  0  0  0  0  0
   -7.1410   15.7240   -0.8760 C   0  0  0  0  0  0  0  0  0  0  0  0
   -9.1890   14.8710    2.5240 O   0  0  0  0  0  0  0  0  0  0  0  0
  1  2  1  0
  2  3  2  0
  4  2  1  6
  4  5  1  0
  4  6  1  0
  5  7  1  0
  6  8  1  0
  5  9  2  0
  7 10  1  0
 10  8  1  1
  7 11  1  0
  9 12  1  0
 11 12  2  0
 10 13  1  0
 10 14  1  0
 13 15  1  0
 13 16  2  0
 14 17  2  0
 16 17  1  0
 15 18  1  0
M  END
