diamond-x0805_0_A-mac-x0437
     RDKit          3D

 28 31  0  0  0  0  0  0  0  0999 V2000
   -4.3560   15.3020    1.1300 C   0  0  0  0  0  0  0  0  0  0  0  0
   -3.5240   15.8910    0.1450 O   0  0  0  0  0  0  0  0  0  0  0  0
   -3.2770   15.1750   -0.9870 C   0  0  0  0  0  0  0  0  0  0  0  0
   -4.2010   14.1670   -1.2950 C   0  0  0  0  0  0  0  0  0  0  0  0
   -2.1930   15.3880   -1.8200 C   0  0  0  0  0  0  0  0  0  0  0  0
   -4.0370   13.3800   -2.4340 C   0  0  0  0  0  0  0  0  0  0  0  0
   -2.0170   14.6120   -2.9600 C   0  0  0  0  0  0  0  0  0  0  0  0
   -2.9470   13.6030   -3.2660 C   0  0  0  0  0  0  0  0  0  0  0  0
   -0.8280   14.8660   -3.8380 C   0  0  2  0  0  0  0  0  0  0  0  0
   -0.1800   13.5640   -4.1750 C   0  0  2  0  0  0  0  0  0  0  0  0
    0.2840   15.7810   -3.2710 C   0  0  0  0  0  0  0  0  0  0  0  0
    0.3210   12.6750   -3.0320 C   0  0  0  0  0  0  0  0  0  0  0  0
    0.9700   13.8030   -5.1500 C   0  0  0  0  0  0  0  0  0  0  0  0
    1.5700   15.7690   -4.1170 C   0  0  0  0  0  0  0  0  0  0  0  0
   -0.6380   11.7820   -2.4790 O   0  0  0  0  0  0  0  0  0  0  0  0
    0.9640   13.3350   -1.9570 O   0  0  0  0  0  0  0  0  0  0  0  0
    1.2720   11.9160   -3.8090 C   0  0  0  0  0  0  0  0  0  0  0  0
    2.0060   14.4750   -4.4760 O   0  0  0  0  0  0  0  0  0  0  0  0
    0.9700   12.2130   -5.2850 C   0  0  0  0  0  0  0  0  0  0  0  0
   -0.1610   11.3980   -5.6470 N   0  0  0  0  0  0  0  0  0  0  0  0
   -1.3680   11.3080   -5.0060 C   0  0  0  0  0  0  0  0  0  0  0  0
   -0.1710   10.5760   -6.7020 C   0  0  0  0  0  0  0  0  0  0  0  0
   -2.1600   10.4480   -5.6030 N   0  0  0  0  0  0  0  0  0  0  0  0
   -1.4190    9.9800   -6.6600 C   0  0  0  0  0  0  0  0  0  0  0  0
    0.7870   10.3050   -7.6640 C   0  0  0  0  0  0  0  0  0  0  0  0
   -1.7400    9.0380   -7.6360 C   0  0  0  0  0  0  0  0  0  0  0  0
    0.4590    9.3700   -8.6290 C   0  0  0  0  0  0  0  0  0  0  0  0
   -0.7830    8.7400   -8.6200 C   0  0  0  0  0  0  0  0  0  0  0  0
  1  2  1  0
  2  3  1  0
  3  4  2  0
  3  5  1  0
  4  6  1  0
  5  7  2  0
  6  8  2  0
  7  8  1  0
  9  7  1  1
  9 10  1  0
  9 11  1  0
 10 12  1  1
 10 13  1  0
 11 14  1  0
 12 15  1  0
 12 16  1  0
 12 17  1  0
 13 18  1  0
 14 18  1  0
 17 19  1  0
 19 20  1  0
 20 21  1  0
 20 22  1  0
 21 23  2  0
 22 24  2  0
 23 24  1  0
 22 25  1  0
 24 26  1  0
 25 27  2  0
 26 28  2  0
 27 28  1  0
M  END
