diamond-x0685_1_A-mac-x0590
     RDKit          3D

 29 32  0  0  0  0  0  0  0  0999 V2000
   -2.0620   11.5070   -4.8840 N   0  0  0  0  0  0  0  0  0  0  0  0
   -1.5690   12.4140   -3.7520 C   0  0  1  0  0  0  0  0  0  0  0  0
   -0.0520   12.6830   -3.8340 C   0  0  1  0  0  0  0  0  0  0  0  0
   -1.1710   11.0570   -6.0170 C   0  0  0  0  0  0  0  0  0  0  0  0
   -2.1800   13.8740   -3.5510 C   0  0  0  0  0  0  0  0  0  0  0  0
   -0.8210    9.5310   -5.9640 C   0  0  0  0  0  0  0  0  0  0  0  0
   -1.9010   11.3290   -7.3430 C   0  0  0  0  0  0  0  0  0  0  0  0
    0.7300   12.0100   -2.3610 S   0  0  0  0  0  0  0  0  0  0  0  0
   -0.1010    8.9880   -7.2240 C   0  0  0  0  0  0  0  0  0  0  0  0
   -1.1350   10.8220   -8.5760 C   0  0  0  0  0  0  0  0  0  0  0  0
   -2.6390   14.3250   -2.1830 N   0  0  0  0  0  0  0  0  0  0  0  0
    0.6690   12.1600   -5.0430 C   0  0  2  0  0  0  0  0  0  0  0  0
    2.2790   12.3900   -2.4750 O   0  0  0  0  0  0  0  0  0  0  0  0
    0.4710   10.4240   -2.3220 O   0  0  0  0  0  0  0  0  0  0  0  0
    0.1230   12.6850   -1.0630 O   0  0  0  0  0  0  0  0  0  0  0  0
   -0.8250    9.3300   -8.5170 C   0  0  0  0  0  0  0  0  0  0  0  0
   -3.3880   15.5540   -2.1160 C   0  0  0  0  0  0  0  0  0  0  0  0
   -1.7830   14.1590   -1.0130 C   0  0  2  0  0  0  0  0  0  0  0  0
    1.5560   11.0250   -4.7120 C   0  0  0  0  0  0  0  0  0  0  0  0
    1.7140   13.0490   -5.6470 C   0  0  0  0  0  0  0  0  0  0  0  0
   -4.3040   15.6230   -0.9810 N   0  0  0  0  0  0  0  0  0  0  0  0
   -2.5140   14.3110    0.3350 C   0  0  2  0  0  0  0  0  0  0  0  0
   -0.7010   15.1420   -0.9010 N   0  0  0  0  0  0  0  0  0  0  0  0
    2.8720   12.8740   -4.6850 C   0  0  0  0  0  0  0  0  0  0  0  0
    2.5610   11.7040   -3.9280 O   0  0  0  0  0  0  0  0  0  0  0  0
   -3.9750   14.8410    0.1960 C   0  0  1  0  0  0  0  0  0  0  0  0
   -1.6460   15.1670    1.1840 N   0  0  0  0  0  0  0  0  0  0  0  0
   -0.3620   15.1080    0.5090 C   0  0  0  0  0  0  0  0  0  0  0  0
   -4.4780   15.5480    1.3690 N   0  0  0  0  0  0  0  0  0  0  0  0
  1  2  1  0
  2  3  1  0
  1  4  1  0
  2  5  1  6
  4  6  1  0
  4  7  1  0
  3  8  1  1
  6  9  1  0
  7 10  1  0
  5 11  1  0
  3 12  1  0
  8 13  1  0
  8 14  1  0
  8 15  1  0
  9 16  1  0
 10 16  1  0
 11 17  1  0
 11 18  1  0
 12 19  1  1
 12 20  1  0
 17 21  1  0
 18 22  1  0
 18 23  1  6
 20 24  1  0
 19 25  1  0
 24 25  1  0
 21 26  1  0
 22 26  1  0
 22 27  1  1
 23 28  1  0
 27 28  1  0
 26 29  1  1
M  END
