diamond-x0849_0_A-mac-x0123
     RDKit          3D

 23 27  0  0  0  0  0  0  0  0999 V2000
   -3.8350   15.4140   -2.7180 Br  0  0  0  0  0  0  0  0  0  0  0  0
   -3.4810   15.4100   -0.8750 C   0  0  0  0  0  0  0  0  0  0  0  0
   -2.3670   14.8780   -0.3130 C   0  0  0  0  0  0  0  0  0  0  0  0
   -4.4320   16.0520    0.0670 C   0  0  0  0  0  0  0  0  0  0  0  0
   -2.3450   14.9570    1.1830 C   0  0  1  0  0  0  0  0  0  0  0  0
   -4.4600   15.6390    1.3500 C   0  0  0  0  0  0  0  0  0  0  0  0
   -1.2130   14.2550   -0.9540 C   0  0  0  0  0  0  0  0  0  0  0  0
   -3.7070   14.5880    1.6170 N   0  0  0  0  0  0  0  0  0  0  0  0
   -1.2440   14.3530    1.9050 N   0  0  0  0  0  0  0  0  0  0  0  0
   -0.2050   13.7480   -0.2350 C   0  0  0  0  0  0  0  0  0  0  0  0
   -0.3180   13.8250    1.2320 C   0  0  0  0  0  0  0  0  0  0  0  0
   -4.6260   13.9240    0.7770 C   0  0  0  0  0  0  0  0  0  0  0  0
   -4.3310   13.4670   -0.5360 N   0  0  0  0  0  0  0  0  0  0  0  0
   -5.9120   13.8320    1.1630 C   0  0  0  0  0  0  0  0  0  0  0  0
   -5.3550   12.9990   -1.3950 C   0  0  0  0  0  0  0  0  0  0  0  0
   -6.9040   13.3070    0.1910 C   0  0  0  0  0  0  0  0  0  0  0  0
   -6.6680   14.1950    2.3970 C   0  0  0  0  0  0  0  0  0  0  0  0
   -3.1470   13.3910   -1.2060 N   0  0  0  0  0  0  0  0  0  0  0  0
   -6.6680   12.9280   -1.0150 N   0  0  0  0  0  0  0  0  0  0  0  0
   -8.2750   13.3090    0.7960 C   0  0  0  0  0  0  0  0  0  0  0  0
   -8.1080   14.3390    1.9100 C   0  0  0  0  0  0  0  0  0  0  0  0
   -4.8310   12.6630   -2.5520 N   0  0  0  0  0  0  0  0  0  0  0  0
   -3.5090   12.9140   -2.3880 C   0  0  0  0  0  0  0  0  0  0  0  0
  1  2  1  0
  2  3  2  0
  2  4  1  0
  3  5  1  0
  4  6  2  0
  3  7  1  0
  5  8  1  0
  6  8  1  0
  5  9  1  1
  7 10  2  0
  9 11  2  0
 10 11  1  0
  8 12  1  0
 12 13  1  0
 12 14  2  0
 13 15  1  0
 14 16  1  0
 14 17  1  0
 13 18  1  0
 15 19  1  0
 16 19  2  0
 16 20  1  0
 17 21  1  0
 20 21  1  0
 15 22  2  0
 18 23  2  0
 22 23  1  0
M  END
