diamond-x0864_0_A-diamond-x0766_0_A
     RDKit          3D

 22 24  0  0  0  0  0  0  0  0999 V2000
    1.1260   12.0020   -6.4500 O   0  0  0  0  0  0  0  0  0  0  0  0
    0.1710   11.2630   -6.2140 C   0  0  0  0  0  0  0  0  0  0  0  0
   -0.6250   11.3100   -5.0560 N   0  0  0  0  0  0  0  0  0  0  0  0
   -0.1920   10.2180   -7.1990 C   0  0  0  0  0  0  0  0  0  0  0  0
   -0.6060   12.4650   -4.1830 C   0  0  0  0  0  0  0  0  0  0  0  0
   -1.7130   10.5000   -4.8810 C   0  0  0  0  0  0  0  0  0  0  0  0
   -1.2540    9.4340   -6.9650 C   0  0  0  0  0  0  0  0  0  0  0  0
    0.2720   12.3450   -2.9070 C   0  0  0  0  0  0  0  0  0  0  0  0
   -1.7880    8.0880   -8.1360 Br  0  0  0  0  0  0  0  0  0  0  0  0
   -2.0440    9.5910   -5.7790 C   0  0  0  0  0  0  0  0  0  0  0  0
    0.9590   11.1300   -2.9360 O   0  0  0  0  0  0  0  0  0  0  0  0
   -0.4110   12.3140   -1.6640 O   0  0  0  0  0  0  0  0  0  0  0  0
    1.1050   13.5950   -2.9320 C   0  0  1  0  0  0  0  0  0  0  0  0
    1.7570   13.8550   -4.3100 C   0  0  0  0  0  0  0  0  0  0  0  0
    0.2300   14.8740   -2.6940 C   0  0  1  0  0  0  0  0  0  0  0  0
    1.6620   15.3510   -4.4860 C   0  0  0  0  0  0  0  0  0  0  0  0
    0.3160   15.7150   -3.9490 C   0  0  0  0  0  0  0  0  0  0  0  0
   -1.1420   14.7640   -2.0710 C   0  0  0  0  0  0  0  0  0  0  0  0
   -2.3920   14.7670   -2.6890 C   0  0  0  0  0  0  0  0  0  0  0  0
   -1.3030   14.6490   -0.6490 C   0  0  0  0  0  0  0  0  0  0  0  0
   -2.6160   14.5790   -0.2510 C   0  0  0  0  0  0  0  0  0  0  0  0
   -3.6900   14.6470   -1.5740 S   0  0  0  0  0  0  0  0  0  0  0  0
  1  2  2  0
  2  3  1  0
  2  4  1  0
  3  5  1  0
  3  6  1  0
  4  7  2  0
  5  8  1  0
  7  9  1  0
  6 10  2  0
  7 10  1  0
  8 11  1  0
  8 12  1  0
 13  8  1  6
 13 14  1  0
 13 15  1  0
 14 16  1  0
 15 17  1  0
 16 17  1  0
 15 18  1  6
 18 19  2  0
 18 20  1  0
 20 21  2  0
 19 22  1  0
 21 22  1  0
M  END
