diamond-x0685_1_A-diamond-x0926_0_A
     RDKit          3D

 22 23  0  0  0  0  0  0  0  0999 V2000
   -0.8840   10.9110   -4.9670 N   0  0  0  0  0  0  0  0  0  0  0  0
   -0.9690   12.3750   -4.9380 C   0  0  0  0  0  0  0  0  0  0  0  0
   -0.1920   13.1500   -3.8630 C   0  0  0  0  0  0  0  0  0  0  0  0
   -0.5620   10.4280   -6.3100 C   0  0  0  0  0  0  0  0  0  0  0  0
   -0.5910    8.8960   -6.3750 C   0  0  0  0  0  0  0  0  0  0  0  0
   -1.5200   10.9750   -7.3750 C   0  0  0  0  0  0  0  0  0  0  0  0
    0.6950   12.2740   -2.5630 S   0  0  0  0  0  0  0  0  0  0  0  0
   -0.0390    8.4540   -7.7260 C   0  0  0  0  0  0  0  0  0  0  0  0
   -1.0650   10.5490   -8.7680 C   0  0  0  0  0  0  0  0  0  0  0  0
    2.2460   12.4010   -2.9360 O   0  0  0  0  0  0  0  0  0  0  0  0
    0.2920   10.7070   -2.5830 O   0  0  0  0  0  0  0  0  0  0  0  0
    0.3970   12.9280   -1.0970 O   0  0  0  0  0  0  0  0  0  0  0  0
   -0.8630    9.0340   -8.8810 C   0  0  0  0  0  0  0  0  0  0  0  0
   -0.2370   14.2070   -0.8210 C   0  0  0  0  0  0  0  0  0  0  0  0
   -1.4360   14.4960   -1.7410 C   0  0  0  0  0  0  0  0  0  0  0  0
   -2.8120   14.9740   -1.1510 C   0  0  1  0  0  0  0  0  0  0  0  0
   -3.8910   14.3000   -1.8490 N   0  0  0  0  0  0  0  0  0  0  0  0
   -3.1320   15.0110    0.3310 C   0  0  0  0  0  0  0  0  0  0  0  0
   -4.4210   15.0360    0.7480 C   0  0  0  0  0  0  0  0  0  0  0  0
   -5.0880   14.9750   -1.5750 N   0  0  0  0  0  0  0  0  0  0  0  0
   -5.5100   15.0070   -0.2740 C   0  0  0  0  0  0  0  0  0  0  0  0
   -6.6990   14.9790    0.0190 O   0  0  0  0  0  0  0  0  0  0  0  0
  1  2  1  0
  2  3  1  0
  1  4  1  0
  4  5  1  0
  4  6  1  0
  3  7  1  0
  5  8  1  0
  6  9  1  0
  7 10  1  0
  7 11  1  0
  7 12  1  0
  8 13  1  0
  9 13  1  0
 12 14  1  0
 14 15  1  0
 16 15  1  1
 16 17  1  0
 16 18  1  0
 18 19  2  0
 17 20  1  0
 19 21  1  0
 20 21  1  0
 21 22  2  0
M  END
