diamond-x0681_0_A-diamond-x0910_0_A
     RDKit          3D

 17 19  0  0  0  0  0  0  0  0999 V2000
   -3.4000   15.6050   -2.2260 N   0  0  0  0  0  0  0  0  0  0  0  0
   -2.9300   14.4980   -1.4010 C   0  0  2  0  0  0  0  0  0  0  0  0
   -2.8330   13.3880   -2.2870 O   0  0  0  0  0  0  0  0  0  0  0  0
   -3.8620   14.2150   -0.2310 C   0  0  2  0  0  0  0  0  0  0  0  0
   -1.6220   14.7220   -0.6540 C   0  0  0  0  0  0  0  0  0  0  0  0
   -4.9540   13.2420   -0.3540 C   0  0  0  0  0  0  0  0  0  0  0  0
   -4.3340   15.4620    0.5170 C   0  0  0  0  0  0  0  0  0  0  0  0
   -1.6050   14.9150    0.6820 N   0  0  0  0  0  0  0  0  0  0  0  0
   -0.3770   14.7330   -1.2420 N   0  0  0  0  0  0  0  0  0  0  0  0
   -5.8740   13.1670    0.6450 N   0  0  0  0  0  0  0  0  0  0  0  0
   -4.7110   15.0010    1.8950 C   0  0  0  0  0  0  0  0  0  0  0  0
   -5.1990   12.3850   -1.3190 N   0  0  0  0  0  0  0  0  0  0  0  0
   -0.3060   15.0460    0.9260 N   0  0  0  0  0  0  0  0  0  0  0  0
    0.4140   14.9390   -0.2130 C   0  0  0  0  0  0  0  0  0  0  0  0
   -5.8650   13.9950    1.8440 C   0  0  0  0  0  0  0  0  0  0  0  0
   -6.7680   12.2010    0.3130 C   0  0  0  0  0  0  0  0  0  0  0  0
   -6.3290   11.7300   -0.9080 C   0  0  0  0  0  0  0  0  0  0  0  0
  2  1  1  6
  2  3  1  0
  2  4  1  0
  2  5  1  0
  4  6  1  0
  4  7  1  6
  5  8  2  0
  5  9  1  0
  6 10  1  0
  7 11  1  0
  6 12  2  0
  8 13  1  0
  9 14  2  0
 13 14  1  0
 10 15  1  0
 11 15  1  0
 10 16  1  0
 12 17  1  0
 16 17  2  0
M  END
