diamond-x0962_2_B-mac-x0341
     RDKit          3D

 19 21  0  0  0  0  0  0  0  0999 V2000
  -10.6110   16.2740    0.9150 N   0  0  0  0  0  0  0  0  0  0  0  0
   -9.9060   16.0340    1.8020 C   0  0  0  0  0  0  0  0  0  0  0  0
   -9.0620   15.7430    2.8940 C   0  0  0  0  0  0  0  0  0  0  0  0
   -9.2310   16.2720    4.1450 N   0  0  0  0  0  0  0  0  0  0  0  0
   -7.9460   14.9280    2.9850 C   0  0  0  0  0  0  0  0  0  0  0  0
   -7.3910   14.1990    1.9890 N   0  0  0  0  0  0  0  0  0  0  0  0
   -8.2440   15.7690    4.9350 C   0  0  0  0  0  0  0  0  0  0  0  0
   -7.4740   14.9620    4.2600 N   0  0  0  0  0  0  0  0  0  0  0  0
   -6.3780   14.5670    1.1030 C   0  0  0  0  0  0  0  0  0  0  0  0
   -6.8380   14.7850   -0.1800 N   0  0  0  0  0  0  0  0  0  0  0  0
   -5.1030   14.6980    1.3380 N   0  0  0  0  0  0  0  0  0  0  0  0
   -6.0350   15.0260   -1.2700 C   0  0  0  0  0  0  0  0  0  0  0  0
   -4.1970   15.0170    0.3140 C   0  0  0  0  0  0  0  0  0  0  0  0
   -6.4940   15.0960   -2.3980 O   0  0  0  0  0  0  0  0  0  0  0  0
   -4.6060   15.1860   -1.0020 C   0  0  0  0  0  0  0  0  0  0  0  0
   -2.8390   15.1610    0.6130 C   0  0  0  0  0  0  0  0  0  0  0  0
   -1.9160   15.4650   -0.3950 C   0  0  0  0  0  0  0  0  0  0  0  0
   -3.6990   15.4880   -2.0210 C   0  0  0  0  0  0  0  0  0  0  0  0
   -2.3470   15.6280   -1.7130 C   0  0  0  0  0  0  0  0  0  0  0  0
  1  2  3  0
  2  3  1  0
  3  4  1  0
  3  5  2  0
  5  6  1  0
  4  7  1  0
  5  8  1  0
  7  8  2  0
  6  9  1  0
  9 10  1  0
  9 11  2  0
 10 12  1  0
 11 13  1  0
 12 14  2  0
 12 15  1  0
 13 15  2  0
 13 16  1  0
 16 17  2  0
 15 18  1  0
 17 19  1  0
 18 19  2  0
M  END
