diamond-x0967_0_A-diamond-x0844_0_A
     RDKit          3D

 12 13  0  0  0  0  0  0  0  0999 V2000
   -6.0660   14.6300   -2.4960 O   0  0  0  0  0  0  0  0  0  0  0  0
   -5.3480   14.7420   -1.4580 N   0  0  0  0  0  0  0  0  0  0  0  0
   -5.9990   14.7170   -0.2410 C   0  0  0  0  0  0  0  0  0  0  0  0
   -3.9540   14.8820   -1.4950 C   0  0  0  0  0  0  0  0  0  0  0  0
   -2.9880   14.9120   -3.1300 Br  0  0  0  0  0  0  0  0  0  0  0  0
   -7.3540   14.5710   -0.2770 N   0  0  0  0  0  0  0  0  0  0  0  0
   -5.2710   14.8350    0.9460 C   0  0  0  0  0  0  0  0  0  0  0  0
   -3.2200   15.0010   -0.3070 C   0  0  0  0  0  0  0  0  0  0  0  0
   -6.0020   14.8000    2.1310 C   0  0  0  0  0  0  0  0  0  0  0  0
   -8.0120   14.5390    0.8860 C   0  0  0  0  0  0  0  0  0  0  0  0
   -3.8810   14.9800    0.9160 C   0  0  0  0  0  0  0  0  0  0  0  0
   -7.3850   14.6490    2.1080 C   0  0  0  0  0  0  0  0  0  0  0  0
  1  2  1  0
  2  3  2  0
  2  4  1  0
  4  5  1  0
  3  6  1  0
  3  7  1  0
  4  8  2  0
  7  9  1  0
  6 10  2  0
  7 11  2  0
  8 11  1  0
  9 12  2  0
 10 12  1  0
M  CHG  2   1  -1   2   1
M  END
