diamond-x0864_0_A-mac-x0509
     RDKit          3D

 22 24  0  0  0  0  0  0  0  0999 V2000
    1.7020   11.8900   -6.6770 O   0  0  0  0  0  0  0  0  0  0  0  0
    0.5360   11.6650   -6.3780 C   0  0  0  0  0  0  0  0  0  0  0  0
   -0.0620   12.0800   -5.2070 N   0  0  0  0  0  0  0  0  0  0  0  0
   -0.3320   10.9030   -7.2960 C   0  0  0  0  0  0  0  0  0  0  0  0
    0.7690   12.8640   -4.3150 C   0  0  0  0  0  0  0  0  0  0  0  0
   -1.2070   11.4690   -4.7190 C   0  0  0  0  0  0  0  0  0  0  0  0
   -1.5110   10.4340   -6.8540 C   0  0  0  0  0  0  0  0  0  0  0  0
    0.8300   12.3050   -2.9070 C   0  0  0  0  0  0  0  0  0  0  0  0
   -2.4340    9.7200   -7.5400 O   0  0  0  0  0  0  0  0  0  0  0  0
   -1.9240   10.6640   -5.4990 C   0  0  0  0  0  0  0  0  0  0  0  0
    0.5290   10.9980   -2.7830 O   0  0  0  0  0  0  0  0  0  0  0  0
    1.1250   12.9500   -1.9190 O   0  0  0  0  0  0  0  0  0  0  0  0
   -1.9610    8.5000   -7.9410 C   0  0  2  0  0  0  0  0  0  0  0  0
   -1.3820    7.6700   -6.7760 C   0  0  0  0  0  0  0  0  0  0  0  0
   -0.7170    8.7720   -8.7400 C   0  0  0  0  0  0  0  0  0  0  0  0
   -1.8910    7.4960   -5.6860 O   0  0  0  0  0  0  0  0  0  0  0  0
    0.3030    7.9510   -8.2800 C   0  0  0  0  0  0  0  0  0  0  0  0
   -0.1610    7.1730   -7.2240 N   0  0  0  0  0  0  0  0  0  0  0  0
   -0.5100    9.6620   -9.7820 C   0  0  0  0  0  0  0  0  0  0  0  0
    0.7570    9.7010  -10.3630 C   0  0  0  0  0  0  0  0  0  0  0  0
    1.5560    7.9690   -8.8460 C   0  0  0  0  0  0  0  0  0  0  0  0
    1.7770    8.8580   -9.9000 C   0  0  0  0  0  0  0  0  0  0  0  0
  1  2  2  0
  2  3  1  0
  2  4  1  0
  3  5  1  0
  3  6  1  0
  4  7  2  0
  5  8  1  0
  7  9  1  0
  6 10  2  0
  7 10  1  0
  8 11  1  0
  8 12  2  0
 13  9  1  1
 13 14  1  0
 13 15  1  0
 14 16  2  0
 15 17  2  0
 14 18  1  0
 17 18  1  0
 15 19  1  0
 19 20  2  0
 17 21  1  0
 20 22  1  0
 21 22  2  0
M  END
