diamond-x0950_0_A-diamond-x0727_0_A
     RDKit          3D

 14 14  0  0  0  0  0  0  0  0999 V2000
    2.5530   12.9620   -4.3300 C   0  0  0  0  0  0  0  0  0  0  0  0
    1.0750   13.0250   -3.9650 C   0  0  1  0  0  0  0  0  0  0  0  0
    0.3100   12.8440   -5.1710 O   0  0  0  0  0  0  0  0  0  0  0  0
    0.7190   12.0320   -2.8490 C   0  0  0  0  0  0  0  0  0  0  0  0
    0.4370   10.8580   -2.9850 O   0  0  0  0  0  0  0  0  0  0  0  0
    0.7200   12.5680   -1.5930 O   0  0  0  0  0  0  0  0  0  0  0  0
    0.1040   11.4860   -5.5340 N   0  0  0  0  0  0  0  0  0  0  0  0
    0.7270   11.1450   -6.7170 C   0  0  0  0  0  0  0  0  0  0  0  0
    1.6900   11.7410   -7.1290 O   0  0  0  0  0  0  0  0  0  0  0  0
    0.1240    9.9480   -7.4560 C   0  0  0  0  0  0  0  0  0  0  0  0
   -1.1640   10.3050   -8.2040 C   0  0  0  0  0  0  0  0  0  0  0  0
   -0.2410    8.7950   -6.5000 C   0  0  0  0  0  0  0  0  0  0  0  0
   -2.1370    9.1570   -7.9620 C   0  0  0  0  0  0  0  0  0  0  0  0
   -1.7390    8.5690   -6.6190 C   0  0  0  0  0  0  0  0  0  0  0  0
  2  1  1  6
  2  3  1  0
  2  4  1  0
  4  5  2  0
  4  6  1  0
  3  7  1  0
  7  8  1  0
  8  9  2  0
  8 10  1  0
 10 11  1  0
 10 12  1  0
 11 13  1  0
 12 14  1  0
 13 14  1  0
M  END
