diamond-x0727_0_A-mac-x0213
     RDKit          3D

 22 24  0  0  0  0  0  0  0  0999 V2000
    0.2820   11.2600   -5.5080 N   0  0  0  0  0  0  0  0  0  0  0  0
    1.0960   12.2380   -4.7490 C   0  0  1  0  0  0  0  0  0  0  0  0
    1.3100   13.4180   -5.6650 C   0  0  0  0  0  0  0  0  0  0  0  0
    0.6730   10.9940   -6.8030 C   0  0  0  0  0  0  0  0  0  0  0  0
    1.5400   11.6240   -7.3390 O   0  0  0  0  0  0  0  0  0  0  0  0
    0.3860   12.6750   -3.4640 C   0  0  0  0  0  0  0  0  0  0  0  0
    0.0090    9.8360   -7.5250 C   0  0  0  0  0  0  0  0  0  0  0  0
   -0.6310   11.7110   -3.1260 O   0  0  0  0  0  0  0  0  0  0  0  0
    1.2610   12.7160   -2.3420 O   0  0  0  0  0  0  0  0  0  0  0  0
   -1.2890   10.2450   -8.2170 C   0  0  0  0  0  0  0  0  0  0  0  0
   -0.3290    8.6510   -6.6070 C   0  0  0  0  0  0  0  0  0  0  0  0
   -0.1300   14.0650   -3.8390 C   0  0  0  0  0  0  0  0  0  0  0  0
   -2.2250    9.0650   -8.0200 C   0  0  0  0  0  0  0  0  0  0  0  0
   -1.8390    8.4960   -6.6640 C   0  0  0  0  0  0  0  0  0  0  0  0
   -1.5850   14.4860   -3.6640 C   0  0  0  0  0  0  0  0  0  0  0  0
    0.6950   15.2970   -3.4670 C   0  0  0  0  0  0  0  0  0  0  0  0
   -1.4240   15.7870   -4.4060 C   0  0  0  0  0  0  0  0  0  0  0  0
   -0.0980   16.2520   -4.2860 C   0  0  0  0  0  0  0  0  0  0  0  0
   -2.3610   16.5000   -5.1260 C   0  0  0  0  0  0  0  0  0  0  0  0
    0.3080   17.4330   -4.8800 C   0  0  0  0  0  0  0  0  0  0  0  0
   -1.9540   17.6940   -5.7300 C   0  0  0  0  0  0  0  0  0  0  0  0
   -0.6350   18.1560   -5.6070 C   0  0  0  0  0  0  0  0  0  0  0  0
  1  2  1  0
  2  3  1  6
  1  4  1  0
  4  5  2  0
  2  6  1  0
  4  7  1  0
  6  8  1  0
  6  9  1  0
  7 10  1  0
  7 11  1  0
  6 12  1  0
 10 13  1  0
 11 14  1  0
 13 14  1  0
 12 15  1  0
 12 16  1  0
 15 17  1  0
 16 18  1  0
 17 18  2  0
 17 19  1  0
 18 20  1  0
 19 21  2  0
 20 22  2  0
 21 22  1  0
M  END
