diamond-x0685_1_A-diamond-x1012_0_A
     RDKit          3D

 22 23  0  0  0  0  0  0  0  0999 V2000
   -1.8630   10.4430   -5.2230 N   0  0  0  0  0  0  0  0  0  0  0  0
   -1.4430   11.7520   -5.0580 C   0  0  0  0  0  0  0  0  0  0  0  0
   -0.0390   12.0640   -4.8630 C   0  0  0  0  0  0  0  0  0  0  0  0
   -1.5810    9.8730   -6.5460 C   0  0  0  0  0  0  0  0  0  0  0  0
   -0.6770    8.7060   -6.5130 C   0  0  0  0  0  0  0  0  0  0  0  0
   -1.0810   10.9860   -7.4520 C   0  0  0  0  0  0  0  0  0  0  0  0
    0.4150   12.4810   -3.2230 S   0  0  0  0  0  0  0  0  0  0  0  0
    0.1870    8.7450   -7.7550 C   0  0  0  0  0  0  0  0  0  0  0  0
   -1.1160   10.5500   -8.9010 C   0  0  0  0  0  0  0  0  0  0  0  0
    1.1490   12.1460   -1.5140 O   0  0  0  0  0  0  0  0  0  0  0  0
   -0.4660   10.8260   -2.5410 O   0  0  0  0  0  0  0  0  0  0  0  0
    2.3260   12.8980   -3.2360 O   0  0  0  0  0  0  0  0  0  0  0  0
   -0.6200    9.1300   -8.9730 C   0  0  0  0  0  0  0  0  0  0  0  0
   -0.1730   14.0370   -2.9390 C   0  0  0  0  0  0  0  0  0  0  0  0
   -1.5180   14.3340   -3.4280 C   0  0  0  0  0  0  0  0  0  0  0  0
    0.6600   15.2410   -3.3740 C   0  0  0  0  0  0  0  0  0  0  0  0
   -1.6980   14.8040   -4.8440 C   0  0  0  0  0  0  0  0  0  0  0  0
    0.5590   15.5300   -4.8070 C   0  0  0  0  0  0  0  0  0  0  0  0
   -0.8090   15.9310   -5.0390 N   0  0  0  0  0  0  0  0  0  0  0  0
   -1.2590   17.2300   -4.8530 C   0  0  0  0  0  0  0  0  0  0  0  0
   -0.4390   18.3630   -4.8250 N   0  0  0  0  0  0  0  0  0  0  0  0
   -2.5010   17.4180   -4.6880 O   0  0  0  0  0  0  0  0  0  0  0  0
  1  2  1  0
  2  3  1  0
  1  4  1  0
  4  5  1  0
  4  6  1  0
  3  7  1  0
  5  8  1  0
  6  9  1  0
  7 10  1  0
  7 11  1  0
  7 12  1  0
  8 13  1  0
  9 13  1  0
  7 14  1  0
 14 15  1  0
 14 16  1  0
 15 17  1  0
 16 18  1  0
 17 19  1  0
 18 19  1  0
 19 20  1  0
 20 21  1  0
 20 22  2  0
M  END
