diamond-x0471_0_A-mac-x0360
     RDKit          3D

 28 30  0  0  0  0  0  0  0  0999 V2000
   -9.2620   13.9670    2.7270 N   0  0  0  0  0  0  0  0  0  0  0  0
   -9.0970   14.9420    3.6850 C   0  0  0  0  0  0  0  0  0  0  0  0
   -9.2480   16.1410    3.4450 O   0  0  0  0  0  0  0  0  0  0  0  0
   -9.1330   14.2640    1.3180 C   0  0  0  0  0  0  0  0  0  0  0  0
   -8.7310   14.4340    5.0770 C   0  0  0  0  0  0  0  0  0  0  0  0
   -7.7120   14.6060    1.0810 C   0  0  0  0  0  0  0  0  0  0  0  0
   -9.8880   13.6450    5.6920 C   0  0  0  0  0  0  0  0  0  0  0  0
   -8.2830   15.5730    5.9920 C   0  0  0  0  0  0  0  0  0  0  0  0
   -7.1420   14.6880   -0.1670 N   0  0  0  0  0  0  0  0  0  0  0  0
   -6.8350   14.8730    2.0270 N   0  0  0  0  0  0  0  0  0  0  0  0
   -5.6580   15.1420    1.3910 C   0  0  0  0  0  0  0  0  0  0  0  0
   -5.8230   15.0290    0.0290 C   0  0  0  0  0  0  0  0  0  0  0  0
   -4.7470   15.2460   -0.7660 C   0  0  0  0  0  0  0  0  0  0  0  0
   -4.3970   15.4950    1.9210 C   0  0  0  0  0  0  0  0  0  0  0  0
   -4.6040   15.1410   -2.1100 N   0  0  0  0  0  0  0  0  0  0  0  0
   -3.5460   15.5740   -0.2540 C   0  0  0  0  0  0  0  0  0  0  0  0
   -3.3390   15.7070    1.0670 C   0  0  0  0  0  0  0  0  0  0  0  0
   -3.5850   14.0620   -1.7950 S   0  0  1  0  0  0  0  0  0  0  0  0
   -2.7810   13.8610   -3.2360 N   0  0  0  0  0  0  0  0  0  0  0  0
   -2.5150   14.1770   -0.8120 O   0  0  0  0  0  0  0  0  0  0  0  0
   -4.6050   12.7160   -1.2830 C   0  0  0  0  0  0  0  0  0  0  0  0
   -4.5880   11.5840   -2.0560 C   0  0  0  0  0  0  0  0  0  0  0  0
   -5.4180   12.8000   -0.1300 C   0  0  0  0  0  0  0  0  0  0  0  0
   -5.3950   10.5230   -1.6960 C   0  0  0  0  0  0  0  0  0  0  0  0
   -6.2330   11.7110    0.2130 C   0  0  0  0  0  0  0  0  0  0  0  0
   -7.2620   11.7450    1.5960 Cl  0  0  0  0  0  0  0  0  0  0  0  0
   -5.3620    9.1140   -2.6720 Cl  0  0  0  0  0  0  0  0  0  0  0  0
   -6.2180   10.5760   -0.5790 C   0  0  0  0  0  0  0  0  0  0  0  0
  1  2  1  0
  2  3  2  0
  1  4  1  0
  2  5  1  0
  4  6  1  0
  5  7  1  0
  5  8  1  0
  6  9  1  0
  6 10  2  0
 10 11  1  0
  9 12  1  0
 11 12  2  0
 12 13  1  0
 11 14  1  0
 13 15  1  0
 13 16  2  0
 14 17  2  0
 16 17  1  0
 15 18  2  0
 18 19  1  6
 18 20  2  0
 18 21  1  0
 21 22  2  0
 21 23  1  0
 22 24  1  0
 23 25  2  0
 25 26  1  0
 24 27  1  0
 24 28  2  0
 25 28  1  0
M  END
