diamond-x1018_0_A-mac-x0564
     RDKit          3D

 19 22  0  0  0  0  0  0  0  0999 V2000
   -8.1200   14.5900    0.1250 Cl  0  0  0  0  0  0  0  0  0  0  0  0
   -6.4800   15.1620   -0.3150 C   0  0  1  0  0  0  0  0  0  0  0  0
   -5.5820   14.9030    0.8690 C   0  0  0  0  0  0  0  0  0  0  0  0
   -6.1380   14.5380   -1.5780 N   0  0  0  0  0  0  0  0  0  0  0  0
   -4.7710   14.0780   -1.7000 C   0  0  1  0  0  0  0  0  0  0  0  0
   -4.5530   14.0860    0.8130 C   0  0  0  0  0  0  0  0  0  0  0  0
   -3.7240   15.0790   -1.9530 N   0  0  0  0  0  0  0  0  0  0  0  0
   -4.2540   13.3720   -0.4650 C   0  0  2  0  0  0  0  0  0  0  0  0
   -2.7700   13.3480   -0.7370 C   0  0  1  0  0  0  0  0  0  0  0  0
   -2.4460   14.3000   -1.9130 C   0  0  2  0  0  0  0  0  0  0  0  0
   -1.1350   14.7790   -1.3070 C   0  0  1  0  0  0  0  0  0  0  0  0
   -2.2810   13.7640   -3.2780 N   0  0  0  0  0  0  0  0  0  0  0  0
   -2.0820   13.8390    0.5810 C   0  0  0  0  0  0  0  0  0  0  0  0
    0.0940   14.7680   -2.1730 C   0  0  0  0  0  0  0  0  0  0  0  0
   -1.3690   14.5190   -4.1240 C   0  0  0  0  0  0  0  0  0  0  0  0
   -2.0810   15.2740    0.7310 O   0  0  0  0  0  0  0  0  0  0  0  0
   -1.2850   15.8540   -0.2840 C   0  0  0  0  0  0  0  0  0  0  0  0
    1.2080   14.9030   -1.6880 O   0  0  0  0  0  0  0  0  0  0  0  0
   -0.0830   14.5260   -3.5030 N   0  0  0  0  0  0  0  0  0  0  0  0
  2  1  1  1
  2  3  1  0
  2  4  1  0
  5  4  1  1
  3  6  2  0
  5  7  1  0
  5  8  1  0
  8  6  1  1
  8  9  1  0
 10  7  1  6
  9 10  1  0
 10 11  1  0
 10 12  1  0
  9 13  1  1
 11 14  1  0
 12 15  1  0
 13 16  1  0
 11 17  1  6
 16 17  1  0
 14 18  2  0
 14 19  1  0
 15 19  1  0
M  END
