diamond-x0742_0_A-diamond-x0895_0_A
     RDKit          3D

 18 20  0  0  0  0  0  0  0  0999 V2000
   -5.1320   12.4260   -0.7300 C   0  0  0  0  0  0  0  0  0  0  0  0
   -6.1200   11.7960    0.2260 C   0  0  0  0  0  0  0  0  0  0  0  0
   -4.5490   11.6920   -1.5360 O   0  0  0  0  0  0  0  0  0  0  0  0
   -4.8950   13.9720   -0.7250 C   0  0  2  0  0  0  0  0  0  0  0  0
   -4.8850   14.7360    0.6010 C   0  0  1  0  0  0  0  0  0  0  0  0
   -6.2180   14.6110   -1.1680 C   0  0  0  0  0  0  0  0  0  0  0  0
   -3.6080   14.3570   -1.5430 C   0  0  0  0  0  0  0  0  0  0  0  0
   -6.1400   14.2920    1.3030 C   0  0  0  0  0  0  0  0  0  0  0  0
   -2.3430   14.1950   -0.7030 C   0  0  0  0  0  0  0  0  0  0  0  0
   -3.5590   15.1540    1.2040 C   0  0  0  0  0  0  0  0  0  0  0  0
   -7.1110   14.4450    0.1050 C   0  0  0  0  0  0  0  0  0  0  0  0
   -3.3620   15.0480    2.5860 O   0  0  0  0  0  0  0  0  0  0  0  0
   -3.5290   16.5050    0.8480 O   0  0  0  0  0  0  0  0  0  0  0  0
   -1.1440   13.6890   -1.1870 C   0  0  0  0  0  0  0  0  0  0  0  0
   -2.3520   14.5660    0.6180 C   0  0  0  0  0  0  0  0  0  0  0  0
   -1.3410   14.4760    1.5030 N   0  0  0  0  0  0  0  0  0  0  0  0
   -0.0580   13.5860   -0.3140 C   0  0  0  0  0  0  0  0  0  0  0  0
   -0.2220   13.9850    1.0090 C   0  0  0  0  0  0  0  0  0  0  0  0
  1  2  1  0
  1  3  2  0
  4  1  1  1
  4  5  1  0
  4  6  1  0
  4  7  1  0
  5  8  1  1
  7  9  1  0
  5 10  1  0
  6 11  1  0
  8 11  1  0
 10 12  1  0
 10 13  1  0
  9 14  2  0
  9 15  1  0
 10 15  1  0
 15 16  2  0
 14 17  1  0
 16 18  1  0
 17 18  2  0
M  END
