diamond-x0471_0_A-mac-x0385
     RDKit          3D

 24 26  0  0  0  0  0  0  0  0999 V2000
   -8.0170   14.5630    3.2940 N   0  0  0  0  0  0  0  0  0  0  0  0
   -8.6930   15.1760    4.2620 C   0  0  0  0  0  0  0  0  0  0  0  0
   -9.2580   16.2380    3.9750 O   0  0  0  0  0  0  0  0  0  0  0  0
   -8.5370   13.9210    2.1470 C   0  0  0  0  0  0  0  0  0  0  0  0
   -8.7740   14.5740    5.6450 C   0  0  0  0  0  0  0  0  0  0  0  0
   -7.6330   14.2470    1.0550 C   0  0  0  0  0  0  0  0  0  0  0  0
  -10.0450   13.7580    5.8550 C   0  0  0  0  0  0  0  0  0  0  0  0
   -8.5020   15.5850    6.7380 C   0  0  0  0  0  0  0  0  0  0  0  0
   -6.2780   14.3850    1.1860 N   0  0  0  0  0  0  0  0  0  0  0  0
   -7.9970   14.4360   -0.1490 N   0  0  0  0  0  0  0  0  0  0  0  0
   -6.8700   14.6890   -0.8270 C   0  0  0  0  0  0  0  0  0  0  0  0
   -5.7760   14.6770   -0.0590 C   0  0  0  0  0  0  0  0  0  0  0  0
   -4.5490   14.9250   -0.6410 C   0  0  0  0  0  0  0  0  0  0  0  0
   -6.7260   14.9370   -2.1610 C   0  0  0  0  0  0  0  0  0  0  0  0
   -4.4250   15.1690   -1.9630 C   0  0  0  0  0  0  0  0  0  0  0  0
   -5.4960   15.1650   -2.7150 C   0  0  0  0  0  0  0  0  0  0  0  0
   -3.3630   14.9450   -0.0380 C   0  0  0  0  0  0  0  0  0  0  0  0
   -3.1070   15.1630    1.2660 C   0  0  0  0  0  0  0  0  0  0  0  0
   -2.3510   14.7160   -0.9190 C   0  0  0  0  0  0  0  0  0  0  0  0
   -4.1190   15.4170    2.1980 N   0  0  0  0  0  0  0  0  0  0  0  0
   -1.8680   15.1470    1.6710 N   0  0  0  0  0  0  0  0  0  0  0  0
   -1.1210   14.7000   -0.5830 N   0  0  0  0  0  0  0  0  0  0  0  0
   -0.9740   14.9240    0.7030 C   0  0  0  0  0  0  0  0  0  0  0  0
    0.3660   14.9180    1.0630 C   0  0  0  0  0  0  0  0  0  0  0  0
  1  2  1  0
  2  3  2  0
  1  4  1  0
  2  5  1  0
  4  6  1  0
  5  7  1  0
  5  8  1  0
  6  9  1  0
  6 10  2  0
 10 11  1  0
  9 12  1  0
 11 12  2  0
 12 13  1  0
 11 14  1  0
 13 15  2  0
 14 16  2  0
 15 16  1  0
 13 17  1  0
 17 18  2  0
 17 19  1  0
 18 20  1  0
 18 21  1  0
 19 22  2  0
 21 23  2  0
 22 23  1  0
 23 24  1  0
M  END
