diamond-x0128_0_A-mac-x0567
     RDKit          3D

 24 27  0  0  0  0  0  0  0  0999 V2000
   -7.1880   14.4450    2.4130 N   0  0  0  0  0  0  0  0  0  0  0  0
   -8.1020   15.2960    2.9600 C   0  0  0  0  0  0  0  0  0  0  0  0
   -9.0310   15.8300    2.3740 O   0  0  0  0  0  0  0  0  0  0  0  0
   -6.3870   14.6130    1.2750 C   0  0  0  0  0  0  0  0  0  0  0  0
   -7.7920   15.4460    4.2980 N   0  0  0  0  0  0  0  0  0  0  0  0
   -6.9070   14.8160   -0.0240 C   0  0  0  0  0  0  0  0  0  0  0  0
   -5.0470   14.5680    1.4310 C   0  0  0  0  0  0  0  0  0  0  0  0
   -6.0360   14.9540   -1.1400 C   0  0  0  0  0  0  0  0  0  0  0  0
   -4.2130   14.6900    0.3660 C   0  0  0  0  0  0  0  0  0  0  0  0
   -8.5440   16.1840    5.2370 C   0  0  0  0  0  0  0  0  0  0  0  0
   -4.6370   14.8810   -0.9650 C   0  0  0  0  0  0  0  0  0  0  0  0
   -9.2460   17.3470    4.9310 C   0  0  0  0  0  0  0  0  0  0  0  0
   -8.6050   15.7370    6.5570 C   0  0  0  0  0  0  0  0  0  0  0  0
   -2.8550   14.6060    0.6090 C   0  0  0  0  0  0  0  0  0  0  0  0
   -9.9780   18.0570    5.8240 N   0  0  0  0  0  0  0  0  0  0  0  0
   -9.3500   16.4530    7.4990 C   0  0  0  0  0  0  0  0  0  0  0  0
   -2.2380   14.4370    1.7770 N   0  0  0  0  0  0  0  0  0  0  0  0
   -1.9240   14.6920   -0.4540 C   0  0  0  0  0  0  0  0  0  0  0  0
   -3.6580   14.9780   -2.0190 C   0  0  0  0  0  0  0  0  0  0  0  0
  -10.0120   17.5980    7.0850 C   0  0  0  0  0  0  0  0  0  0  0  0
   -0.6840   14.5510    0.1360 C   0  0  0  0  0  0  0  0  0  0  0  0
   -0.9450   14.4050    1.4670 N   0  0  0  0  0  0  0  0  0  0  0  0
   -2.2460   14.8780   -1.8070 C   0  0  0  0  0  0  0  0  0  0  0  0
    0.5800   14.5320   -0.3180 N   0  0  0  0  0  0  0  0  0  0  0  0
  1  2  1  0
  2  3  2  0
  1  4  1  0
  2  5  1  0
  4  6  2  0
  4  7  1  0
  6  8  1  0
  7  9  2  0
  5 10  1  0
  8 11  2  0
  9 11  1  0
 10 12  2  0
 10 13  1  0
  9 14  1  0
 12 15  1  0
 13 16  2  0
 14 17  2  0
 14 18  1  0
 11 19  1  0
 15 20  2  0
 16 20  1  0
 18 21  2  0
 17 22  1  0
 21 22  1  0
 18 23  1  0
 19 23  2  0
 21 24  1  0
M  END
