diamond-x1018_0_A-diamond-x0766_0_A
     RDKit          3D

 17 19  0  0  0  0  0  0  0  0999 V2000
   -7.7420   14.4950    0.0130 Cl  0  0  0  0  0  0  0  0  0  0  0  0
   -6.0180   14.5930   -0.1860 C   0  0  0  0  0  0  0  0  0  0  0  0
   -5.1950   14.7400    1.0430 C   0  0  0  0  0  0  0  0  0  0  0  0
   -5.5160   14.5310   -1.4130 N   0  0  0  0  0  0  0  0  0  0  0  0
   -4.1290   14.6330   -1.4780 N   0  0  0  0  0  0  0  0  0  0  0  0
   -3.9050   15.0850    0.8720 C   0  0  0  0  0  0  0  0  0  0  0  0
   -3.3210   14.2720   -2.6190 N   0  0  0  0  0  0  0  0  0  0  0  0
   -3.3430   15.3220   -0.4950 C   0  0  1  0  0  0  0  0  0  0  0  0
   -2.0100   14.8100   -0.7740 N   0  0  0  0  0  0  0  0  0  0  0  0
   -1.8660   14.5970   -2.2430 C   0  0  1  0  0  0  0  0  0  0  0  0
   -0.6090   13.7030   -2.7080 C   0  0  1  0  0  0  0  0  0  0  0  0
   -1.2870   15.8620   -2.9870 C   0  0  0  0  0  0  0  0  0  0  0  0
   -0.3130   12.3140   -2.2170 C   0  0  0  0  0  0  0  0  0  0  0  0
   -0.3780   13.9200   -4.1940 C   0  0  0  0  0  0  0  0  0  0  0  0
   -0.3200   15.4330   -4.1520 C   0  0  0  0  0  0  0  0  0  0  0  0
    0.4270   12.1420   -1.2730 O   0  0  0  0  0  0  0  0  0  0  0  0
   -0.8740   11.2890   -2.8900 O   0  0  0  0  0  0  0  0  0  0  0  0
  1  2  1  0
  2  3  1  0
  2  4  2  0
  4  5  1  0
  3  6  2  0
  5  7  1  0
  5  8  1  0
  8  6  1  1
  8  9  1  0
 10  7  1  0
  9 10  1  0
 10 11  1  0
 10 12  1  6
 11 13  1  6
 11 14  1  0
 12 15  1  0
 14 15  1  0
 13 16  2  0
 13 17  1  0
M  END
