diamond-x1012_0_A-mac-x0402
     RDKit          3D

 23 25  0  0  0  0  0  0  0  0999 V2000
   -0.4620   18.1180   -4.7420 N   0  0  0  0  0  0  0  0  0  0  0  0
   -1.2870   17.0500   -4.8890 C   0  0  0  0  0  0  0  0  0  0  0  0
   -2.4930   17.2390   -4.7640 O   0  0  0  0  0  0  0  0  0  0  0  0
   -0.6490   15.8290   -5.1520 N   0  0  0  0  0  0  0  0  0  0  0  0
   -1.4290   14.5690   -5.1290 C   0  0  0  0  0  0  0  0  0  0  0  0
    0.7670   15.6660   -4.8170 C   0  0  0  0  0  0  0  0  0  0  0  0
   -1.3750   13.9420   -3.7360 C   0  0  2  0  0  0  0  0  0  0  0  0
    1.0830   14.2420   -4.3770 C   0  0  0  0  0  0  0  0  0  0  0  0
   -1.9070   15.0700   -2.8950 C   0  0  0  0  0  0  0  0  0  0  0  0
    0.1000   13.7750   -3.3020 C   0  0  2  0  0  0  0  0  0  0  0  0
    0.5000   12.4470   -2.6930 C   0  0  0  0  0  0  0  0  0  0  0  0
   -3.1490   14.9920   -2.0740 C   0  0  0  0  0  0  0  0  0  0  0  0
   -0.0950   11.3320   -3.1580 O   0  0  0  0  0  0  0  0  0  0  0  0
    1.3310   12.4050   -1.8150 O   0  0  0  0  0  0  0  0  0  0  0  0
   -4.4260   15.0740   -2.6300 C   0  0  0  0  0  0  0  0  0  0  0  0
   -2.9820   14.8600   -0.7040 C   0  0  0  0  0  0  0  0  0  0  0  0
   -4.1080   14.8210    0.0910 C   0  0  0  0  0  0  0  0  0  0  0  0
   -5.5570   15.0310   -1.8090 C   0  0  0  0  0  0  0  0  0  0  0  0
   -5.3950   14.9030   -0.4210 C   0  0  0  0  0  0  0  0  0  0  0  0
   -4.1850   14.6770    1.7740 S   0  0  0  0  0  0  0  0  0  0  0  0
   -5.8920   14.7390    1.7170 C   0  0  0  0  0  0  0  0  0  0  0  0
   -6.4060   14.8500    0.5190 N   0  0  0  0  0  0  0  0  0  0  0  0
   -6.6530   14.6850    2.8300 N   0  0  0  0  0  0  0  0  0  0  0  0
  1  2  1  0
  2  3  2  0
  2  4  1  0
  4  5  1  0
  4  6  1  0
  5  7  1  0
  6  8  1  0
  7  9  1  1
  7 10  1  0
  8 10  1  0
 10 11  1  6
  9 12  1  0
 11 13  1  0
 11 14  2  0
 12 15  2  0
 12 16  1  0
 16 17  2  0
 15 18  1  0
 17 19  1  0
 18 19  2  0
 17 20  1  0
 20 21  1  0
 19 22  1  0
 21 22  2  0
 21 23  1  0
M  END
