diamond-x0849_0_A-diamond-x0591_0_A
     RDKit          3D

 25 27  0  0  0  0  0  0  0  0999 V2000
   -2.4840   16.0060   -2.8960 Br  0  0  0  0  0  0  0  0  0  0  0  0
   -2.9300   15.5230   -1.1280 C   0  0  0  0  0  0  0  0  0  0  0  0
   -1.9520   15.2060   -0.2520 C   0  0  0  0  0  0  0  0  0  0  0  0
   -4.2280   15.4700   -0.7560 C   0  0  0  0  0  0  0  0  0  0  0  0
   -2.3180   14.8270    1.0340 C   0  0  0  0  0  0  0  0  0  0  0  0
   -4.5390   15.0750    0.5080 C   0  0  0  0  0  0  0  0  0  0  0  0
   -0.6200   15.2490   -0.6290 C   0  0  0  0  0  0  0  0  0  0  0  0
   -5.9210   14.9850    0.7270 N   0  0  0  0  0  0  0  0  0  0  0  0
   -3.5940   14.7640    1.4210 N   0  0  0  0  0  0  0  0  0  0  0  0
   -1.3960   14.5030    1.9130 N   0  0  0  0  0  0  0  0  0  0  0  0
    0.3210   14.9120    0.2730 C   0  0  0  0  0  0  0  0  0  0  0  0
   -6.3580   14.4810    2.0260 C   0  0  0  0  0  0  0  0  0  0  0  0
   -6.5030   14.5740   -0.4720 C   0  0  0  0  0  0  0  0  0  0  0  0
   -0.1120   14.5430    1.5270 C   0  0  0  0  0  0  0  0  0  0  0  0
   -7.6900   14.3620   -0.6970 O   0  0  0  0  0  0  0  0  0  0  0  0
   -5.5200   14.4000   -1.6110 C   0  0  0  0  0  0  0  0  0  0  0  0
   -4.2780   13.7220   -1.4410 C   0  0  0  0  0  0  0  0  0  0  0  0
   -5.8190   14.9230   -2.8700 C   0  0  0  0  0  0  0  0  0  0  0  0
   -3.3660   13.6000   -2.5140 C   0  0  0  0  0  0  0  0  0  0  0  0
   -4.9110   14.7940   -3.9340 C   0  0  0  0  0  0  0  0  0  0  0  0
   -3.6890   14.1490   -3.7630 C   0  0  0  0  0  0  0  0  0  0  0  0
   -2.5880   14.0650   -5.1790 S   0  0  0  0  0  0  0  0  0  0  0  0
   -1.2750   15.0630   -4.8180 N   0  0  0  0  0  0  0  0  0  0  0  0
   -2.0760   12.7250   -5.2710 O   0  0  0  0  0  0  0  0  0  0  0  0
   -3.2380   14.7350   -6.2860 O   0  0  0  0  0  0  0  0  0  0  0  0
  1  2  1  0
  2  3  2  0
  2  4  1  0
  3  5  1  0
  4  6  2  0
  3  7  1  0
  6  8  1  0
  5  9  2  0
  6  9  1  0
  5 10  1  0
  7 11  2  0
  8 12  1  0
  8 13  1  0
 10 14  2  0
 11 14  1  0
 13 15  2  0
 13 16  1  0
 16 17  2  0
 16 18  1  0
 17 19  1  0
 18 20  2  0
 19 21  2  0
 20 21  1  0
 21 22  1  0
 22 23  1  0
 22 24  2  0
 22 25  2  0
M  END
