diamond-x0128_0_A-diamond-x0967_0_A
     RDKit          3D

 20 22  0  0  0  0  0  0  0  0999 V2000
   -6.9440   14.3910    2.4960 N   0  0  0  0  0  0  0  0  0  0  0  0
   -7.9520   15.1740    3.0100 C   0  0  0  0  0  0  0  0  0  0  0  0
   -8.8900   15.6350    2.3720 O   0  0  0  0  0  0  0  0  0  0  0  0
   -6.3870   14.4430    1.2570 C   0  0  0  0  0  0  0  0  0  0  0  0
   -7.7230   15.3530    4.3560 N   0  0  0  0  0  0  0  0  0  0  0  0
   -7.1550   14.0330    0.0980 C   0  0  0  0  0  0  0  0  0  0  0  0
   -5.1760   14.8180    0.8430 C   0  0  0  0  0  0  0  0  0  0  0  0
   -6.4180   14.1490   -1.0200 C   0  0  0  0  0  0  0  0  0  0  0  0
   -5.0670   14.6960   -0.6600 C   0  0  1  0  0  0  0  0  0  0  0  0
   -4.0120   15.2980    1.5160 C   0  0  0  0  0  0  0  0  0  0  0  0
   -8.4990   16.1250    5.2500 C   0  0  0  0  0  0  0  0  0  0  0  0
   -4.9760   16.0390   -1.2610 C   0  0  0  0  0  0  0  0  0  0  0  0
   -9.1970   17.2800    4.8970 C   0  0  0  0  0  0  0  0  0  0  0  0
   -8.5910   15.7190    6.5830 C   0  0  0  0  0  0  0  0  0  0  0  0
   -3.7920   14.0170   -1.0530 C   0  0  0  0  0  0  0  0  0  0  0  0
   -2.8250   14.9820    0.9710 C   0  0  0  0  0  0  0  0  0  0  0  0
   -9.9460   18.0160    5.7520 N   0  0  0  0  0  0  0  0  0  0  0  0
   -9.3550   16.4610    7.4860 C   0  0  0  0  0  0  0  0  0  0  0  0
   -2.7250   14.1820   -0.2470 C   0  0  0  0  0  0  0  0  0  0  0  0
  -10.0090   17.5940    7.0270 C   0  0  0  0  0  0  0  0  0  0  0  0
  1  2  1  0
  2  3  2  0
  1  4  1  0
  2  5  1  0
  4  6  1  0
  4  7  2  0
  6  8  2  0
  7  9  1  0
  8  9  1  0
  7 10  1  0
  5 11  1  0
  9 12  1  6
 11 13  2  0
 11 14  1  0
  9 15  1  0
 10 16  2  0
 13 17  1  0
 14 18  2  0
 15 19  2  0
 16 19  1  0
 17 20  2  0
 18 20  1  0
M  END
