diamond-x0962_0_A-mac-x0439
     RDKit          3D

 22 24  0  0  0  0  0  0  0  0999 V2000
   -1.7270   15.1070   -1.3080 N   0  0  0  0  0  0  0  0  0  0  0  0
   -3.0810   14.7230   -1.6870 C   0  0  2  0  0  0  0  0  0  0  0  0
   -3.5310   15.5580   -2.8900 C   0  0  0  0  0  0  0  0  0  0  0  0
   -3.9420   14.9100   -0.4900 C   0  0  0  0  0  0  0  0  0  0  0  0
   -3.4120   14.8260   -4.2350 C   0  0  0  0  0  0  0  0  0  0  0  0
   -3.4390   15.2790    0.7310 N   0  0  0  0  0  0  0  0  0  0  0  0
   -5.2970   14.7820   -0.2870 C   0  0  0  0  0  0  0  0  0  0  0  0
   -3.0270   15.7110   -5.4400 C   0  0  0  0  0  0  0  0  0  0  0  0
   -4.4870   15.3560    1.6010 C   0  0  0  0  0  0  0  0  0  0  0  0
   -5.6200   15.0540    1.0090 N   0  0  0  0  0  0  0  0  0  0  0  0
   -1.8210   16.6210   -5.2700 C   0  0  0  0  0  0  0  0  0  0  0  0
   -0.8630   16.4530   -4.1180 C   0  0  1  0  0  0  0  0  0  0  0  0
   -1.5660   17.6330   -6.1330 C   0  0  0  0  0  0  0  0  0  0  0  0
   -0.4370   15.1660   -3.5090 C   0  0  0  0  0  0  0  0  0  0  0  0
    0.5300   16.9190   -4.5030 C   0  0  0  0  0  0  0  0  0  0  0  0
   -0.4020   18.5020   -6.0070 C   0  0  0  0  0  0  0  0  0  0  0  0
    0.9020   15.0880   -3.5120 C   0  0  0  0  0  0  0  0  0  0  0  0
    1.5030   16.1480   -4.1300 N   0  0  0  0  0  0  0  0  0  0  0  0
    0.6530   18.1900   -5.2300 C   0  0  0  0  0  0  0  0  0  0  0  0
    1.6460   13.9500   -2.8970 C   0  0  0  0  0  0  0  0  0  0  0  0
    2.9730   14.1970   -2.7300 O   0  0  0  0  0  0  0  0  0  0  0  0
    1.1280   12.9000   -2.5550 O   0  0  0  0  0  0  0  0  0  0  0  0
  2  1  1  1
  2  3  1  0
  2  4  1  0
  3  5  1  0
  4  6  1  0
  4  7  2  0
  5  8  1  0
  6  9  1  0
  7 10  1  0
  9 10  2  0
  8 11  1  0
 11 12  1  0
 11 13  2  0
 12 14  1  6
 12 15  1  0
 13 16  1  0
 14 17  2  0
 15 18  2  0
 17 18  1  0
 15 19  1  0
 16 19  2  0
 17 20  1  0
 20 21  1  0
 20 22  2  0
M  END
