diamond-x0380_0_B-diamond-x0228_0_B
     RDKit          3D

 33 35  0  0  0  0  0  0  0  0999 V2000
   -4.2620   30.2530  -14.6500 N   0  0  0  0  0  0  0  0  0  0  0  0
   -3.7450   31.3240  -15.3350 C   0  0  0  0  0  0  0  0  0  0  0  0
   -4.2290   32.4330  -15.4450 O   0  0  0  0  0  0  0  0  0  0  0  0
   -5.5790   30.0320  -14.1630 C   0  0  0  0  0  0  0  0  0  0  0  0
   -2.4100   30.9750  -16.0070 C   0  0  0  0  0  0  0  0  0  0  0  0
   -5.7170   29.3800  -12.9230 C   0  0  0  0  0  0  0  0  0  0  0  0
   -6.7310   30.4220  -14.8580 C   0  0  0  0  0  0  0  0  0  0  0  0
   -4.5040   28.9490  -12.1570 C   0  0  0  0  0  0  0  0  0  0  0  0
   -2.3540   31.5590  -17.3570 N   0  0  0  0  0  0  0  0  0  0  0  0
   -6.9970   29.1360  -12.4290 C   0  0  0  0  0  0  0  0  0  0  0  0
   -8.0050   30.1710  -14.3390 C   0  0  0  0  0  0  0  0  0  0  0  0
   -7.2380   28.3320  -10.9450 Cl  0  0  0  0  0  0  0  0  0  0  0  0
   -3.4410   28.4410  -13.1320 C   0  0  0  0  0  0  0  0  0  0  0  0
   -8.1370   29.5250  -13.1210 C   0  0  0  0  0  0  0  0  0  0  0  0
   -4.0790   27.7880  -14.3640 C   0  0  0  0  0  0  0  0  0  0  0  0
   -3.5580   26.4530  -14.5840 N   0  0  0  0  0  0  0  0  0  0  0  0
   -2.1920   26.4830  -15.1200 C   0  0  0  0  0  0  0  0  0  0  0  0
   -3.7460   25.6940  -13.4030 C   0  0  0  0  0  0  0  0  0  0  0  0
   -2.6810   25.4030  -12.5620 C   0  0  0  0  0  0  0  0  0  0  0  0
   -5.0390   25.2070  -13.0430 C   0  0  0  0  0  0  0  0  0  0  0  0
   -6.1020   25.5250  -13.9190 N   0  0  0  0  0  0  0  0  0  0  0  0
   -2.8730   24.6540  -11.4190 C   0  0  0  0  0  0  0  0  0  0  0  0
   -5.2140   24.4540  -11.8750 C   0  0  0  0  0  0  0  0  0  0  0  0
   -7.4200   25.1220  -13.8790 C   0  0  0  0  0  0  0  0  0  0  0  0
   -4.1230   24.1720  -11.0560 C   0  0  0  0  0  0  0  0  0  0  0  0
   -8.1190   25.6970  -14.9280 N   0  0  0  0  0  0  0  0  0  0  0  0
   -7.9360   24.3690  -13.0620 O   0  0  0  0  0  0  0  0  0  0  0  0
   -4.3020   23.3650   -9.8010 C   0  0  0  0  0  0  0  0  0  0  0  0
   -9.4370   25.4080  -15.0850 N   0  0  0  0  0  0  0  0  0  0  0  0
   -9.9370   24.3700  -15.7960 C   0  0  0  0  0  0  0  0  0  0  0  0
  -10.4850   26.0990  -14.5730 C   0  0  0  0  0  0  0  0  0  0  0  0
  -11.2530   24.4140  -15.7290 N   0  0  0  0  0  0  0  0  0  0  0  0
  -11.6010   25.5110  -14.9530 N   0  0  0  0  0  0  0  0  0  0  0  0
  1  2  1  0
  2  3  2  0
  1  4  1  0
  2  5  1  0
  4  6  2  0
  4  7  1  0
  6  8  1  0
  5  9  1  0
  6 10  1  0
  7 11  2  0
 10 12  1  0
  8 13  1  0
 10 14  2  0
 11 14  1  0
 13 15  1  0
 15 16  1  0
 16 17  1  0
 16 18  1  0
 18 19  2  0
 18 20  1  0
 20 21  1  0
 19 22  1  0
 20 23  2  0
 21 24  1  0
 22 25  2  0
 23 25  1  0
 24 26  1  0
 24 27  2  0
 25 28  1  0
 26 29  1  0
 29 30  1  0
 29 31  1  0
 30 32  2  0
 31 33  2  0
 32 33  1  0
M  END
