diamond-x0910_0_A-diamond-x0574_0_A
     RDKit          3D

 14 15  0  0  0  0  0  0  0  0999 V2000
   -2.6340   14.7740   -2.7720 N   0  0  0  0  0  0  0  0  0  0  0  0
   -2.2380   14.7620   -1.4600 C   0  0  0  0  0  0  0  0  0  0  0  0
   -0.8730   14.7190   -1.2260 N   0  0  0  0  0  0  0  0  0  0  0  0
   -3.1280   14.7840   -0.4440 C   0  0  0  0  0  0  0  0  0  0  0  0
   -2.6280   14.7690    0.8750 N   0  0  0  0  0  0  0  0  0  0  0  0
   -0.5160   14.6680    0.0120 C   0  0  0  0  0  0  0  0  0  0  0  0
   -4.5990   14.8050   -0.6070 C   0  0  0  0  0  0  0  0  0  0  0  0
    0.7500   14.6100    0.3540 N   0  0  0  0  0  0  0  0  0  0  0  0
   -1.2930   14.6550    1.1090 N   0  0  0  0  0  0  0  0  0  0  0  0
   -5.3940   14.8850    0.4800 C   0  0  0  0  0  0  0  0  0  0  0  0
   -3.4930   14.9090    1.9030 C   0  0  0  0  0  0  0  0  0  0  0  0
   -6.7620   14.8890    0.5980 O   0  0  0  0  0  0  0  0  0  0  0  0
   -4.7970   14.9770    1.7750 C   0  0  0  0  0  0  0  0  0  0  0  0
   -7.2640   14.4490    1.8610 C   0  0  0  0  0  0  0  0  0  0  0  0
  1  2  1  0
  2  3  1  0
  2  4  2  0
  4  5  1  0
  3  6  2  0
  4  7  1  0
  6  8  1  0
  5  9  1  0
  6  9  1  0
  7 10  2  0
  5 11  1  0
 10 12  1  0
 10 13  1  0
 11 13  2  0
 12 14  1  0
M  END
