diamond-x0766_0_A-mac-x0344
     RDKit          3D

 22 24  0  0  0  0  0  0  0  0999 V2000
    0.6970   12.4930   -2.8620 C   0  0  0  0  0  0  0  0  0  0  0  0
    0.2450   12.6290   -1.5210 O   0  0  0  0  0  0  0  0  0  0  0  0
    0.3740   11.2880   -3.5200 N   0  0  0  0  0  0  0  0  0  0  0  0
    2.0780   12.8000   -2.8990 O   0  0  0  0  0  0  0  0  0  0  0  0
    0.0590   13.4680   -3.8840 C   0  0  2  0  0  0  0  0  0  0  0  0
    0.4180   11.6650   -4.7350 C   0  0  0  0  0  0  0  0  0  0  0  0
    1.1340   13.9690   -4.8920 C   0  0  0  0  0  0  0  0  0  0  0  0
   -0.5580   14.7900   -3.4680 C   0  0  2  0  0  0  0  0  0  0  0  0
    0.2530   11.1540   -5.9750 N   0  0  0  0  0  0  0  0  0  0  0  0
    1.6390   15.2830   -4.3200 C   0  0  0  0  0  0  0  0  0  0  0  0
    0.6600   15.6680   -3.2210 C   0  0  0  0  0  0  0  0  0  0  0  0
   -1.6270   14.7850   -2.4200 C   0  0  0  0  0  0  0  0  0  0  0  0
   -2.9860   14.9110   -2.6420 C   0  0  0  0  0  0  0  0  0  0  0  0
   -1.3610   14.6490   -1.0130 C   0  0  0  0  0  0  0  0  0  0  0  0
   -0.7780   10.2960   -6.3710 C   0  0  0  0  0  0  0  0  0  0  0  0
   -2.5060   14.6830   -0.2480 C   0  0  0  0  0  0  0  0  0  0  0  0
   -3.9060   14.8760   -1.2050 S   0  0  0  0  0  0  0  0  0  0  0  0
   -0.6770    9.5990   -7.5660 C   0  0  0  0  0  0  0  0  0  0  0  0
   -1.9130   10.1380   -5.5680 C   0  0  0  0  0  0  0  0  0  0  0  0
   -1.6920    8.7440   -7.9730 C   0  0  0  0  0  0  0  0  0  0  0  0
   -2.9360    9.2810   -5.9740 C   0  0  0  0  0  0  0  0  0  0  0  0
   -2.8230    8.5860   -7.1770 C   0  0  0  0  0  0  0  0  0  0  0  0
  1  2  1  0
  1  3  1  0
  1  4  1  0
  5  1  1  1
  3  6  2  3
  5  7  1  0
  5  8  1  0
  6  9  1  0
  7 10  1  0
  8 11  1  0
 10 11  1  0
  8 12  1  1
 12 13  2  0
 12 14  1  0
  9 15  1  0
 14 16  2  0
 13 17  1  0
 16 17  1  0
 15 18  2  0
 15 19  1  0
 18 20  1  0
 19 21  2  0
 20 22  2  0
 21 22  1  0
M  END
