diamond-x0855_0_A-mac-x0204
     RDKit          3D

 19 20  0  0  0  0  0  0  0  0999 V2000
    1.2320   13.5200   -3.0050 O   0  0  0  0  0  0  0  0  0  0  0  0
    0.8370   12.3110   -3.4740 C   0  0  0  0  0  0  0  0  0  0  0  0
    0.6500   12.3780   -4.9660 C   0  0  0  0  0  0  0  0  0  0  0  0
    0.3320   14.5050   -2.7440 C   0  0  0  0  0  0  0  0  0  0  0  0
    0.6540   11.2760   -2.8350 O   0  0  0  0  0  0  0  0  0  0  0  0
    0.4500   15.3930   -1.9270 O   0  0  0  0  0  0  0  0  0  0  0  0
   -0.8930   14.4070   -3.5990 C   0  0  0  0  0  0  0  0  0  0  0  0
   -0.3370   11.4150   -5.3920 N   0  0  0  0  0  0  0  0  0  0  0  0
   -1.2400   15.4850   -4.4310 C   0  0  0  0  0  0  0  0  0  0  0  0
   -1.7320   13.2980   -3.6180 C   0  0  0  0  0  0  0  0  0  0  0  0
   -0.2530   10.5790   -6.4630 C   0  0  0  0  0  0  0  0  0  0  0  0
   -1.4860   11.2770   -4.6960 N   0  0  0  0  0  0  0  0  0  0  0  0
   -2.3840   15.4020   -5.2230 C   0  0  0  0  0  0  0  0  0  0  0  0
   -2.8540   13.1960   -4.3880 N   0  0  0  0  0  0  0  0  0  0  0  0
   -2.7170   16.4590   -6.0240 O   0  0  0  0  0  0  0  0  0  0  0  0
   -1.4180    9.8640   -6.4460 C   0  0  0  0  0  0  0  0  0  0  0  0
   -2.1460   10.3260   -5.3490 C   0  0  0  0  0  0  0  0  0  0  0  0
   -3.1530   14.2520   -5.1730 C   0  0  0  0  0  0  0  0  0  0  0  0
   -1.9710    8.5310   -7.6240 Br  0  0  0  0  0  0  0  0  0  0  0  0
  1  2  1  0
  2  3  1  0
  1  4  1  0
  2  5  2  0
  4  6  2  0
  4  7  1  0
  3  8  1  0
  7  9  2  0
  7 10  1  0
  8 11  1  0
  8 12  1  0
  9 13  1  0
 10 14  2  0
 13 15  1  0
 11 16  2  0
 12 17  2  0
 16 17  1  0
 13 18  2  0
 14 18  1  0
 16 19  1  0
M  END
