diamond-x0837_0_A-diamond-x0855_0_A
     RDKit          3D

 21 22  0  0  0  0  0  0  0  0999 V2000
   -7.4850   14.5270    0.3760 O   0  0  0  0  0  0  0  0  0  0  0  0
   -6.2640   14.8390    0.2650 C   0  0  0  0  0  0  0  0  0  0  0  0
   -5.4180   14.8900    1.4240 N   0  0  0  0  0  0  0  0  0  0  0  0
   -5.6560   15.1760   -1.0460 C   0  0  0  0  0  0  0  0  0  0  0  0
   -4.0510   15.1950    1.2280 C   0  0  0  0  0  0  0  0  0  0  0  0
   -4.2970   14.5650   -1.1070 C   0  0  1  0  0  0  0  0  0  0  0  0
   -3.3350   14.9640   -2.9510 I   0  0  0  0  0  0  0  0  0  0  0  0
   -3.5200   15.0420    0.0460 C   0  0  0  0  0  0  0  0  0  0  0  0
   -1.3000   14.4170   -3.1180 C   0  0  0  0  0  0  0  0  0  0  0  0
   -0.8570   14.5450   -4.5810 C   0  0  0  0  0  0  0  0  0  0  0  0
    0.5600   14.0720   -4.7800 C   0  0  0  0  0  0  0  0  0  0  0  0
    0.7360   12.5830   -4.7480 C   0  0  1  0  0  0  0  0  0  0  0  0
    1.0260   12.1790   -3.3460 C   0  0  0  0  0  0  0  0  0  0  0  0
   -0.3810   11.7980   -5.1530 N   0  0  0  0  0  0  0  0  0  0  0  0
    1.6980   13.0130   -2.4500 O   0  0  0  0  0  0  0  0  0  0  0  0
    0.6570   11.0610   -2.9320 O   0  0  0  0  0  0  0  0  0  0  0  0
   -0.3130   10.8240   -6.0760 C   0  0  0  0  0  0  0  0  0  0  0  0
   -1.6150   11.8570   -4.7290 N   0  0  0  0  0  0  0  0  0  0  0  0
   -1.5530   10.2750   -6.2000 C   0  0  0  0  0  0  0  0  0  0  0  0
   -2.3860   10.9450   -5.3360 C   0  0  0  0  0  0  0  0  0  0  0  0
   -2.0470    8.8290   -7.3620 Br  0  0  0  0  0  0  0  0  0  0  0  0
  1  2  2  0
  2  3  1  0
  2  4  1  0
  3  5  1  0
  4  6  1  0
  6  7  1  6
  5  8  2  0
  6  8  1  0
  7  9  1  0
  9 10  1  0
 10 11  1  0
 12 11  1  1
 12 13  1  0
 12 14  1  0
 13 15  1  0
 13 16  2  0
 14 17  1  0
 14 18  1  0
 17 19  2  0
 18 20  2  0
 19 20  1  0
 19 21  1  0
M  END
