diamond-x0662_0_A-diamond-x0631_0_A
     RDKit          3D

 21 22  0  0  0  0  0  0  0  0999 V2000
    5.3770    9.6000  -15.1050 C   0  0  0  0  0  0  0  0  0  0  0  0
    4.3300   10.0770  -14.2330 N   0  0  0  0  0  0  0  0  0  0  0  0
    3.6870   11.2780  -14.2910 C   0  0  0  0  0  0  0  0  0  0  0  0
    3.9130    9.2890  -13.2410 N   0  0  0  0  0  0  0  0  0  0  0  0
    2.7870   11.2660  -13.2540 C   0  0  0  0  0  0  0  0  0  0  0  0
    2.9570   10.0000  -12.6120 C   0  0  0  0  0  0  0  0  0  0  0  0
    2.2710    9.4210  -11.4270 C   0  0  0  0  0  0  0  0  0  0  0  0
    2.4110    8.2300  -11.1550 O   0  0  0  0  0  0  0  0  0  0  0  0
    1.5080   10.2900  -10.6640 N   0  0  0  0  0  0  0  0  0  0  0  0
    0.8330    9.9140   -9.4920 C   0  0  0  0  0  0  0  0  0  0  0  0
    0.1540    8.7230   -9.4010 C   0  0  0  0  0  0  0  0  0  0  0  0
    0.8530   10.7640   -8.3790 C   0  0  0  0  0  0  0  0  0  0  0  0
   -0.4740    8.3930   -8.2150 C   0  0  0  0  0  0  0  0  0  0  0  0
    0.2160   10.4680   -7.1600 C   0  0  0  0  0  0  0  0  0  0  0  0
    0.2820   11.4650   -6.0010 C   0  0  0  0  0  0  0  0  0  0  0  0
   -0.4470    9.2420   -7.1010 C   0  0  0  0  0  0  0  0  0  0  0  0
   -0.7210   11.5530   -5.2180 O   0  0  0  0  0  0  0  0  0  0  0  0
    1.3560   12.1330   -5.8780 O   0  0  0  0  0  0  0  0  0  0  0  0
   -1.1520    8.7500   -5.8950 C   0  0  0  0  0  0  0  0  0  0  0  0
   -2.4060    8.0460   -6.3590 C   0  0  0  0  0  0  0  0  0  0  0  0
   -3.0210    8.8100   -7.5230 C   0  0  0  0  0  0  0  0  0  0  0  0
  1  2  1  0
  2  3  1  0
  2  4  1  0
  3  5  2  0
  4  6  2  0
  5  6  1  0
  6  7  1  0
  7  8  2  0
  7  9  1  0
  9 10  1  0
 10 11  2  0
 10 12  1  0
 11 13  1  0
 12 14  2  0
 14 15  1  0
 13 16  2  0
 14 16  1  0
 15 17  2  0
 15 18  1  0
 16 19  1  0
 19 20  1  0
 20 21  1  0
M  CHG  1  18  -1
M  END
