diamond-x0805_0_A-mac-x0348
     RDKit          3D

 29 32  0  0  0  0  0  0  0  0999 V2000
   -4.4370   15.2460    1.0560 C   0  0  0  0  0  0  0  0  0  0  0  0
   -3.5120   15.6220    0.0540 O   0  0  0  0  0  0  0  0  0  0  0  0
   -3.3940   14.8060   -1.0350 C   0  0  0  0  0  0  0  0  0  0  0  0
   -4.3850   14.0300   -1.6280 C   0  0  0  0  0  0  0  0  0  0  0  0
   -2.1220   14.7910   -1.5650 C   0  0  0  0  0  0  0  0  0  0  0  0
   -4.0800   13.2490   -2.7500 C   0  0  0  0  0  0  0  0  0  0  0  0
   -1.7990   14.0430   -2.6680 C   0  0  0  0  0  0  0  0  0  0  0  0
   -2.7880   13.2560   -3.2710 C   0  0  0  0  0  0  0  0  0  0  0  0
   -0.3770   14.1330   -3.1410 C   0  0  2  0  0  0  0  0  0  0  0  0
    0.5660   13.1880   -2.3900 C   0  0  1  0  0  0  0  0  0  0  0  0
    0.2220   15.5300   -3.1120 C   0  0  0  0  0  0  0  0  0  0  0  0
    0.8530   12.0610   -3.3030 C   0  0  0  0  0  0  0  0  0  0  0  0
    1.9190   13.8770   -2.0510 C   0  0  0  0  0  0  0  0  0  0  0  0
    1.6000   15.5300   -3.7510 C   0  0  0  0  0  0  0  0  0  0  0  0
    0.2060   10.8710   -2.8820 O   0  0  0  0  0  0  0  0  0  0  0  0
    2.2430   11.9660   -3.2310 O   0  0  0  0  0  0  0  0  0  0  0  0
    0.4740   12.6590   -4.6610 C   0  0  0  0  0  0  0  0  0  0  0  0
    2.5080   14.6280   -3.1250 O   0  0  0  0  0  0  0  0  0  0  0  0
    1.0900   14.0630   -4.7870 C   0  0  0  0  0  0  0  0  0  0  0  0
    0.2690   15.2810   -5.1450 C   0  0  0  0  0  0  0  0  0  0  0  0
    0.8160   16.5200   -5.3650 C   0  0  0  0  0  0  0  0  0  0  0  0
   -1.1270   15.4370   -5.3570 C   0  0  0  0  0  0  0  0  0  0  0  0
   -0.1310   17.4020   -5.7060 N   0  0  0  0  0  0  0  0  0  0  0  0
   -1.3420   16.7790   -5.7240 C   0  0  0  0  0  0  0  0  0  0  0  0
   -2.2230   14.5660   -5.2980 C   0  0  0  0  0  0  0  0  0  0  0  0
    0.1490   18.7660   -6.0160 C   0  0  0  0  0  0  0  0  0  0  0  0
   -3.4800   15.0320   -5.6240 C   0  0  0  0  0  0  0  0  0  0  0  0
   -2.5970   17.2530   -6.0450 C   0  0  0  0  0  0  0  0  0  0  0  0
   -3.6520   16.3380   -5.9960 C   0  0  0  0  0  0  0  0  0  0  0  0
  1  2  1  0
  2  3  1  0
  3  4  2  0
  3  5  1  0
  4  6  1  0
  5  7  2  0
  6  8  2  0
  7  8  1  0
  9  7  1  1
  9 10  1  0
  9 11  1  0
 10 12  1  6
 10 13  1  0
 11 14  1  0
 12 15  1  0
 12 16  1  0
 12 17  1  0
 13 18  1  0
 14 18  1  0
 17 19  1  0
 19 20  1  0
 20 21  2  0
 20 22  1  0
 21 23  1  0
 22 24  2  0
 23 24  1  0
 22 25  1  0
 23 26  1  0
 25 27  2  0
 24 28  1  0
 27 29  1  0
 28 29  2  0
M  END
