diamond-x0855_0_A-diamond-x0421_0_A
     RDKit          3D

 23 25  0  0  0  0  0  0  0  0999 V2000
    1.7250   12.8190   -2.3540 O   0  0  0  0  0  0  0  0  0  0  0  0
    0.5380   12.2460   -2.8870 C   0  0  0  0  0  0  0  0  0  0  0  0
    0.3940   12.5610   -4.4000 C   0  0  0  0  0  0  0  0  0  0  0  0
    0.7420   10.8460   -2.7740 O   0  0  0  0  0  0  0  0  0  0  0  0
   -0.6650   12.5410   -1.9620 C   0  0  0  0  0  0  0  0  0  0  0  0
   -0.8630   13.9680   -1.4430 C   0  0  0  0  0  0  0  0  0  0  0  0
   -0.5520   11.6890   -5.0530 N   0  0  0  0  0  0  0  0  0  0  0  0
   -1.8300   14.5850   -2.3290 N   0  0  0  0  0  0  0  0  0  0  0  0
   -0.3370   10.7930   -6.0640 C   0  0  0  0  0  0  0  0  0  0  0  0
   -1.8370   11.7200   -4.6350 N   0  0  0  0  0  0  0  0  0  0  0  0
   -2.9960   14.9920   -1.9570 C   0  0  0  0  0  0  0  0  0  0  0  0
   -1.5530   10.2100   -6.2910 C   0  0  0  0  0  0  0  0  0  0  0  0
   -2.4430   10.8090   -5.3960 C   0  0  0  0  0  0  0  0  0  0  0  0
   -1.9940    8.8840   -7.5200 Br  0  0  0  0  0  0  0  0  0  0  0  0
   -3.9500   15.5520   -2.7490 N   0  0  0  0  0  0  0  0  0  0  0  0
   -3.5050   14.9170   -0.5790 C   0  0  0  0  0  0  0  0  0  0  0  0
   -2.8260   14.9790    0.6300 C   0  0  0  0  0  0  0  0  0  0  0  0
   -4.8670   14.7690   -0.3400 N   0  0  0  0  0  0  0  0  0  0  0  0
   -3.7910   14.8690    1.5940 N   0  0  0  0  0  0  0  0  0  0  0  0
   -4.9910   14.7450    0.9650 C   0  0  0  0  0  0  0  0  0  0  0  0
   -6.3380   14.5930    1.7170 C   0  0  0  0  0  0  0  0  0  0  0  0
   -7.6330   14.6170    0.9460 C   0  0  0  0  0  0  0  0  0  0  0  0
   -7.1260   13.3260    1.5280 C   0  0  0  0  0  0  0  0  0  0  0  0
  2  1  1  0
  2  3  1  0
  2  4  1  0
  2  5  1  0
  5  6  1  0
  3  7  1  0
  6  8  1  0
  7  9  1  0
  7 10  1  0
  8 11  2  3
  9 12  2  0
 10 13  2  0
 12 13  1  0
 12 14  1  0
 11 15  1  0
 11 16  1  0
 16 17  2  0
 16 18  1  0
 17 19  1  0
 18 20  2  0
 19 20  1  0
 20 21  1  0
 21 22  1  0
 21 23  1  0
 22 23  1  0
M  END
