diamond-x0895_1_A-mac-x0417
     RDKit          3D

 23 25  0  0  0  0  0  0  0  0999 V2000
   -1.6830   14.7460    1.5820 O   0  0  0  0  0  0  0  0  0  0  0  0
   -2.7390   14.7310    0.9480 C   0  0  0  0  0  0  0  0  0  0  0  0
   -2.9030   14.7460   -0.5860 C   0  0  1  0  0  0  0  0  0  0  0  0
   -3.9760   14.7020    1.4970 N   0  0  0  0  0  0  0  0  0  0  0  0
   -2.0590   13.6840   -1.2860 C   0  0  0  0  0  0  0  0  0  0  0  0
   -4.3190   14.4910   -0.6740 N   0  0  0  0  0  0  0  0  0  0  0  0
   -4.9270   14.6510    0.5430 C   0  0  0  0  0  0  0  0  0  0  0  0
   -6.1280   14.7300    0.7240 O   0  0  0  0  0  0  0  0  0  0  0  0
   -0.5750   13.7480   -0.8850 C   0  0  0  0  0  0  0  0  0  0  0  0
    0.3660   14.0170   -2.0630 C   0  0  0  0  0  0  0  0  0  0  0  0
    1.1580   12.8500   -2.3620 O   0  0  0  0  0  0  0  0  0  0  0  0
    0.6700   11.9770   -3.2930 C   0  0  0  0  0  0  0  0  0  0  0  0
    0.5010   10.7840   -3.0840 O   0  0  0  0  0  0  0  0  0  0  0  0
    0.3670   12.6840   -4.5970 C   0  0  0  0  0  0  0  0  0  0  0  0
    0.2860   11.7240   -5.7280 C   0  0  0  0  0  0  0  0  0  0  0  0
    1.2650   11.7020   -6.6340 N   0  0  0  0  0  0  0  0  0  0  0  0
   -0.7210   10.7680   -6.0200 C   0  0  0  0  0  0  0  0  0  0  0  0
    0.9090   10.7160   -7.5480 O   0  0  0  0  0  0  0  0  0  0  0  0
   -0.2740   10.1580   -7.1780 C   0  0  0  0  0  0  0  0  0  0  0  0
   -1.9360   10.3410   -5.4580 C   0  0  0  0  0  0  0  0  0  0  0  0
   -0.9540    9.1370   -7.8410 C   0  0  0  0  0  0  0  0  0  0  0  0
   -2.6460    9.3150   -6.0980 C   0  0  0  0  0  0  0  0  0  0  0  0
   -2.1630    8.7230   -7.2670 C   0  0  0  0  0  0  0  0  0  0  0  0
  1  2  2  0
  2  3  1  0
  2  4  1  0
  3  5  1  6
  3  6  1  0
  4  7  1  0
  6  7  1  0
  7  8  2  0
  5  9  1  0
  9 10  1  0
 10 11  1  0
 11 12  1  0
 12 13  2  0
 12 14  1  0
 14 15  1  0
 15 16  2  0
 15 17  1  0
 16 18  1  0
 17 19  2  0
 18 19  1  0
 17 20  1  0
 19 21  1  0
 20 22  2  0
 21 23  2  0
 22 23  1  0
M  END
