diamond-x0587_0_A-mac-x0179
     RDKit          3D

 30 32  0  0  0  0  0  0  0  0999 V2000
   -7.6800   14.8600    4.0000 N   0  0  0  0  0  0  0  0  0  0  0  0
   -8.2010   14.8820    2.7410 C   0  0  0  0  0  0  0  0  0  0  0  0
   -9.4030   15.0230    2.5400 O   0  0  0  0  0  0  0  0  0  0  0  0
   -7.2530   14.7530    1.6260 C   0  0  0  0  0  0  0  0  0  0  0  0
   -7.6200   14.4650    0.3330 C   0  0  0  0  0  0  0  0  0  0  0  0
   -5.9000   14.9320    1.8240 C   0  0  0  0  0  0  0  0  0  0  0  0
   -6.7400   14.3640   -0.6950 N   0  0  0  0  0  0  0  0  0  0  0  0
   -4.9730   14.8440    0.8420 N   0  0  0  0  0  0  0  0  0  0  0  0
   -5.4190   14.5650   -0.4080 C   0  0  0  0  0  0  0  0  0  0  0  0
   -4.3760   14.4840   -1.5520 C   0  0  0  0  0  0  0  0  0  0  0  0
   -3.1280   14.8620   -1.1420 F   0  0  0  0  0  0  0  0  0  0  0  0
   -4.2930   13.1890   -2.1900 O   0  0  0  0  0  0  0  0  0  0  0  0
   -4.6690   15.3500   -2.5630 F   0  0  0  0  0  0  0  0  0  0  0  0
   -3.0250   12.5140   -2.0490 C   0  0  0  0  0  0  0  0  0  0  0  0
   -2.0750   12.7320   -3.2610 C   0  0  0  0  0  0  0  0  0  0  0  0
   -2.1210   11.6480   -4.2630 N   0  0  0  0  0  0  0  0  0  0  0  0
   -1.2650   11.3470   -5.1940 C   0  0  0  0  0  0  0  0  0  0  0  0
   -0.0840   12.0470   -5.3940 N   0  0  0  0  0  0  0  0  0  0  0  0
   -1.2920   10.2890   -6.2260 C   0  0  0  0  0  0  0  0  0  0  0  0
    0.5510   12.8940   -4.4000 C   0  0  0  0  0  0  0  0  0  0  0  0
    0.6330   11.5300   -6.4310 C   0  0  0  0  0  0  0  0  0  0  0  0
   -0.1330   10.4200   -6.9750 C   0  0  0  0  0  0  0  0  0  0  0  0
   -2.2020    9.2940   -6.5330 C   0  0  0  0  0  0  0  0  0  0  0  0
    0.9290   12.1680   -3.1260 C   0  0  0  0  0  0  0  0  0  0  0  0
    1.7160   11.8640   -6.8560 O   0  0  0  0  0  0  0  0  0  0  0  0
    0.1770    9.5930   -8.0460 C   0  0  0  0  0  0  0  0  0  0  0  0
   -1.9170    8.4400   -7.6100 C   0  0  0  0  0  0  0  0  0  0  0  0
    1.5480   12.9130   -2.1990 O   0  0  0  0  0  0  0  0  0  0  0  0
    0.7060   10.9900   -2.9020 O   0  0  0  0  0  0  0  0  0  0  0  0
   -0.7380    8.5900   -8.3610 C   0  0  0  0  0  0  0  0  0  0  0  0
  1  2  1  0
  2  3  2  0
  2  4  1  0
  4  5  2  0
  4  6  1  0
  5  7  1  0
  6  8  2  0
  7  9  2  0
  8  9  1  0
  9 10  1  0
 10 11  1  0
 10 12  1  0
 10 13  1  0
 12 14  1  0
 14 15  1  0
 15 16  1  0
 16 17  2  3
 17 18  1  0
 17 19  1  0
 18 20  1  0
 18 21  1  0
 19 22  2  0
 21 22  1  0
 19 23  1  0
 20 24  1  0
 21 25  2  0
 22 26  1  0
 23 27  2  0
 24 28  1  0
 24 29  2  0
 26 30  2  0
 27 30  1  0
M  END
