diamond-x0900_0_A-mac-x0182
     RDKit          3D

 21 23  0  0  0  0  0  0  0  0999 V2000
   -7.0170   14.9600   -0.7810 O   0  0  0  0  0  0  0  0  0  0  0  0
   -5.8910   14.7980   -0.3450 C   0  0  0  0  0  0  0  0  0  0  0  0
   -4.7060   14.7670   -1.0490 N   0  0  0  0  0  0  0  0  0  0  0  0
   -5.5080   14.5820    1.0970 C   0  0  0  0  0  0  0  0  0  0  0  0
   -4.4920   14.0940   -2.3190 C   0  0  0  0  0  0  0  0  0  0  0  0
   -4.1470   15.2700    1.1780 C   0  0  0  0  0  0  0  0  0  0  0  0
   -3.6400   15.2920   -0.2540 C   0  0  0  0  0  0  0  0  0  0  0  0
   -3.0220   14.0360   -2.7790 C   0  0  0  0  0  0  0  0  0  0  0  0
   -2.3800   12.6390   -2.7560 C   0  0  0  0  0  0  0  0  0  0  0  0
   -1.9040   12.2530   -4.0970 N   0  0  0  0  0  0  0  0  0  0  0  0
   -0.7800   11.2320   -4.2600 S   0  0  2  0  0  0  0  0  0  0  0  0
   -0.1060   10.4620   -3.2440 O   0  0  0  0  0  0  0  0  0  0  0  0
    0.4110   12.1350   -5.0370 N   0  0  0  0  0  0  0  0  0  0  0  0
   -1.1290   10.2210   -5.6280 C   0  0  0  0  0  0  0  0  0  0  0  0
    0.7300   11.5840   -6.2510 C   0  0  0  0  0  0  0  0  0  0  0  0
   -0.2300   10.5230   -6.6450 C   0  0  0  0  0  0  0  0  0  0  0  0
   -2.1160    9.2620   -5.7510 C   0  0  0  0  0  0  0  0  0  0  0  0
    1.6860   11.8870   -6.9230 O   0  0  0  0  0  0  0  0  0  0  0  0
   -2.1860    8.5830   -6.9700 C   0  0  0  0  0  0  0  0  0  0  0  0
   -0.2950    9.8530   -7.8570 C   0  0  0  0  0  0  0  0  0  0  0  0
   -1.2860    8.8740   -8.0150 C   0  0  0  0  0  0  0  0  0  0  0  0
  1  2  2  0
  2  3  1  0
  2  4  1  0
  3  5  1  0
  4  6  1  0
  3  7  1  0
  6  7  1  0
  5  8  1  0
  8  9  1  0
  9 10  1  0
 10 11  2  0
 11 12  2  0
 11 13  1  6
 11 14  1  0
 13 15  1  0
 14 16  2  0
 15 16  1  0
 14 17  1  0
 15 18  2  0
 17 19  2  0
 16 20  1  0
 19 21  1  0
 20 21  2  0
M  END
