diamond-x0844_0_A-diamond-x0681_0_A
     RDKit          3D

 14 15  0  0  0  0  0  0  0  0999 V2000
   -7.6100   15.2560    0.0970 O   0  0  0  0  0  0  0  0  0  0  0  0
   -6.4720   14.8440   -0.1240 C   0  0  0  0  0  0  0  0  0  0  0  0
   -5.7120   13.7370    0.5500 C   0  0  2  0  0  0  0  0  0  0  0  0
   -5.5890   15.3350   -1.1650 C   0  0  0  0  0  0  0  0  0  0  0  0
   -4.4930   14.2340    1.2330 C   0  0  0  0  0  0  0  0  0  0  0  0
   -4.2840   15.3900   -0.8390 C   0  0  0  0  0  0  0  0  0  0  0  0
   -5.1250   12.9840   -0.6270 C   0  0  0  0  0  0  0  0  0  0  0  0
   -6.5340   12.5910    1.0410 C   0  0  0  0  0  0  0  0  0  0  0  0
   -3.3840   15.7120   -1.7560 N   0  0  0  0  0  0  0  0  0  0  0  0
   -3.7780   15.0730    0.4930 C   0  0  0  0  0  0  0  0  0  0  0  0
   -5.5260   11.7860   -0.8330 N   0  0  0  0  0  0  0  0  0  0  0  0
   -6.3910   11.5620    0.1980 C   0  0  0  0  0  0  0  0  0  0  0  0
   -3.7230   15.3160   -2.9050 C   0  0  0  0  0  0  0  0  0  0  0  0
   -3.1100   15.4490   -4.0840 N   0  0  0  0  0  0  0  0  0  0  0  0
  1  2  2  0
  3  2  1  0
  2  4  1  0
  3  5  1  1
  4  6  2  0
  3  7  1  0
  3  8  1  0
  6  9  1  0
  5 10  2  0
  6 10  1  0
  7 11  2  0
  8 12  2  0
 11 12  1  0
  9 13  2  3
 13 14  1  0
M  END
