diamond-x0855_0_A-mac-x0567
     RDKit          3D

 23 25  0  0  0  0  0  0  0  0999 V2000
    2.1880   12.4690   -2.9560 O   0  0  0  0  0  0  0  0  0  0  0  0
    0.8270   12.1910   -3.2650 C   0  0  0  0  0  0  0  0  0  0  0  0
    0.6660   12.3620   -4.7810 C   0  0  0  0  0  0  0  0  0  0  0  0
    0.5810   10.8490   -2.8770 O   0  0  0  0  0  0  0  0  0  0  0  0
   -0.0380   13.1520   -2.4690 C   0  0  0  0  0  0  0  0  0  0  0  0
    0.5820   14.5350   -2.3070 C   0  0  0  0  0  0  0  0  0  0  0  0
   -0.4240   11.5770   -5.2800 N   0  0  0  0  0  0  0  0  0  0  0  0
    0.7900   14.8700   -0.8500 C   0  0  0  0  0  0  0  0  0  0  0  0
   -0.3670   10.6180   -6.2420 C   0  0  0  0  0  0  0  0  0  0  0  0
   -1.6630   11.7610   -4.7650 N   0  0  0  0  0  0  0  0  0  0  0  0
    0.1750   13.9260    0.0630 N   0  0  0  0  0  0  0  0  0  0  0  0
   -1.6410   10.1440   -6.3490 C   0  0  0  0  0  0  0  0  0  0  0  0
   -2.4070   10.8710   -5.4310 C   0  0  0  0  0  0  0  0  0  0  0  0
   -2.2690    8.8010   -7.4740 Br  0  0  0  0  0  0  0  0  0  0  0  0
   -1.0740   14.3150    0.4460 C   0  0  0  0  0  0  0  0  0  0  0  0
   -1.4710   14.4210    1.7400 N   0  0  0  0  0  0  0  0  0  0  0  0
   -2.1860   14.6850   -0.2770 C   0  0  0  0  0  0  0  0  0  0  0  0
   -2.7480   14.8330    1.9060 N   0  0  0  0  0  0  0  0  0  0  0  0
   -3.2170   15.0080    0.6690 C   0  0  0  0  0  0  0  0  0  0  0  0
   -2.3020   14.7460   -1.6680 C   0  0  0  0  0  0  0  0  0  0  0  0
   -4.4830   15.4320    0.2400 C   0  0  0  0  0  0  0  0  0  0  0  0
   -3.5820   15.1750   -2.0710 C   0  0  0  0  0  0  0  0  0  0  0  0
   -4.6290   15.5060   -1.1620 C   0  0  0  0  0  0  0  0  0  0  0  0
  2  1  1  0
  2  3  1  0
  2  4  1  0
  2  5  1  0
  5  6  1  0
  3  7  1  0
  6  8  1  0
  7  9  1  0
  7 10  1  0
  8 11  1  0
  9 12  2  0
 10 13  2  0
 12 13  1  0
 12 14  1  0
 11 15  1  0
 15 16  1  0
 15 17  2  0
 16 18  1  0
 17 19  1  0
 18 19  2  0
 17 20  1  0
 19 21  1  0
 20 22  2  0
 21 23  2  0
 22 23  1  0
M  END
