diamond-x0628_0_A-diamond-x0962_3_A
     RDKit          3D

 20 21  0  0  0  0  0  0  0  0999 V2000
   -0.7270    8.7060   -5.9660 C   0  0  0  0  0  0  0  0  0  0  0  0
   -0.7250   10.1420   -5.4430 C   0  0  2  0  0  0  0  0  0  0  0  0
   -1.9740   10.4840   -4.7940 N   0  0  0  0  0  0  0  0  0  0  0  0
   -0.5390   11.3180   -6.2880 N   0  0  0  0  0  0  0  0  0  0  0  0
   -0.8890   12.4250   -5.3970 N   0  0  0  0  0  0  0  0  0  0  0  0
   -1.6150   11.8070   -4.2930 C   0  0  1  0  0  0  0  0  0  0  0  0
    0.7650   11.5650   -6.8560 C   0  0  0  0  0  0  0  0  0  0  0  0
   -2.8620   12.5970   -3.9510 C   0  0  0  0  0  0  0  0  0  0  0  0
    0.2500   13.3310   -5.0770 C   0  0  0  0  0  0  0  0  0  0  0  0
    1.0470   10.5670   -8.0060 C   0  0  2  0  0  0  0  0  0  0  0  0
    1.4430   12.8540   -4.2290 C   0  0  0  0  0  0  0  0  0  0  0  0
    1.2520   11.1570   -9.3310 N   0  0  0  0  0  0  0  0  0  0  0  0
   -0.0640    9.6180   -8.1460 C   0  0  0  0  0  0  0  0  0  0  0  0
    1.0270   12.2270   -2.9240 C   0  0  0  0  0  0  0  0  0  0  0  0
    0.0840    8.3260   -8.5760 N   0  0  0  0  0  0  0  0  0  0  0  0
   -1.4100    9.7630   -7.9040 C   0  0  0  0  0  0  0  0  0  0  0  0
    0.6310   11.0820   -2.7670 O   0  0  0  0  0  0  0  0  0  0  0  0
    1.1270   13.0690   -1.8850 O   0  0  0  0  0  0  0  0  0  0  0  0
   -1.1540    7.7540   -8.5710 C   0  0  0  0  0  0  0  0  0  0  0  0
   -2.0750    8.6000   -8.1680 N   0  0  0  0  0  0  0  0  0  0  0  0
  2  1  1  6
  2  3  1  0
  2  4  1  0
  4  5  1  0
  3  6  1  0
  5  6  1  0
  4  7  1  0
  6  8  1  6
  5  9  1  0
  7 10  1  0
  9 11  1  0
 10 12  1  6
 10 13  1  0
 11 14  1  0
 13 15  1  0
 13 16  2  0
 14 17  2  0
 14 18  1  0
 15 19  1  0
 16 20  1  0
 19 20  2  0
M  END
