diamond-x0900_1_A-diamond-x0766_0_A
     RDKit          3D

 21 23  0  0  0  0  0  0  0  0999 V2000
   -0.8480    9.6370   -9.7740 O   0  0  0  0  0  0  0  0  0  0  0  0
   -0.9020    9.3350   -8.5940 C   0  0  0  0  0  0  0  0  0  0  0  0
    0.1030    9.4710   -7.6710 N   0  0  0  0  0  0  0  0  0  0  0  0
   -2.0820    8.7520   -7.8400 C   0  0  0  0  0  0  0  0  0  0  0  0
   -1.5560    8.6980   -6.3970 C   0  0  0  0  0  0  0  0  0  0  0  0
   -0.5150    9.8070   -6.4270 C   0  0  1  0  0  0  0  0  0  0  0  0
    0.3930    9.8860   -5.1920 C   0  0  0  0  0  0  0  0  0  0  0  0
   -0.2150   10.6890   -4.0460 C   0  0  0  0  0  0  0  0  0  0  0  0
    0.7950   11.0300   -3.0850 O   0  0  0  0  0  0  0  0  0  0  0  0
    0.7400   12.2390   -2.4560 C   0  0  0  0  0  0  0  0  0  0  0  0
    0.5600   12.3990   -1.2640 O   0  0  0  0  0  0  0  0  0  0  0  0
    0.9840   13.4590   -3.2990 C   0  0  1  0  0  0  0  0  0  0  0  0
    0.9350   13.4750   -4.8110 C   0  0  0  0  0  0  0  0  0  0  0  0
    0.2260   14.7370   -2.8420 C   0  0  1  0  0  0  0  0  0  0  0  0
    1.2430   14.9490   -5.0010 C   0  0  0  0  0  0  0  0  0  0  0  0
    0.2820   15.6490   -4.0630 C   0  0  0  0  0  0  0  0  0  0  0  0
   -1.1410   14.6750   -2.1680 C   0  0  0  0  0  0  0  0  0  0  0  0
   -2.3820   14.6410   -2.8050 C   0  0  0  0  0  0  0  0  0  0  0  0
   -1.3310   14.6630   -0.7450 C   0  0  0  0  0  0  0  0  0  0  0  0
   -2.6510   14.6270   -0.3650 C   0  0  0  0  0  0  0  0  0  0  0  0
   -3.6980   14.6040   -1.7090 S   0  0  0  0  0  0  0  0  0  0  0  0
  1  2  2  0
  2  3  1  0
  2  4  1  0
  4  5  1  0
  3  6  1  0
  5  6  1  0
  6  7  1  1
  7  8  1  0
  8  9  1  0
  9 10  1  0
 10 11  2  0
 12 10  1  1
 12 13  1  0
 12 14  1  0
 13 15  1  0
 14 16  1  0
 15 16  1  0
 14 17  1  6
 17 18  2  0
 17 19  1  0
 19 20  2  0
 18 21  1  0
 20 21  1  0
M  END
