diamond-x1015_0_A-mac-x0326
     RDKit          3D

 29 32  0  0  0  0  0  0  0  0999 V2000
   -2.5230   13.3980   -5.3790 C   0  0  0  0  0  0  0  0  0  0  0  0
   -1.5890   13.2210   -4.2000 C   0  0  1  0  0  0  0  0  0  0  0  0
   -0.9380   11.8860   -4.1320 N   0  0  0  0  0  0  0  0  0  0  0  0
   -0.3720   14.1020   -4.4730 C   0  0  0  0  0  0  0  0  0  0  0  0
   -0.3110   15.3160   -4.6370 O   0  0  0  0  0  0  0  0  0  0  0  0
    0.3040   12.2180   -3.7150 C   0  0  0  0  0  0  0  0  0  0  0  0
    0.6540   13.2390   -4.4980 N   0  0  0  0  0  0  0  0  0  0  0  0
   -1.0880   11.0490   -5.2170 C   0  0  0  0  0  0  0  0  0  0  0  0
    1.1080   11.8210   -2.8450 N   0  0  0  0  0  0  0  0  0  0  0  0
   -0.4020   11.3190   -6.4170 C   0  0  0  0  0  0  0  0  0  0  0  0
   -1.9060    9.9140   -5.1910 C   0  0  0  0  0  0  0  0  0  0  0  0
    2.1830   12.6340   -2.9960 C   0  0  0  0  0  0  0  0  0  0  0  0
   -0.5290   10.5010   -7.5350 C   0  0  0  0  0  0  0  0  0  0  0  0
   -2.0400    9.0890   -6.3060 C   0  0  0  0  0  0  0  0  0  0  0  0
    3.3050   12.4690   -2.6080 O   0  0  0  0  0  0  0  0  0  0  0  0
    1.8370   13.8690   -3.7830 C   0  0  0  0  0  0  0  0  0  0  0  0
   -1.3500    9.3880   -7.4760 C   0  0  0  0  0  0  0  0  0  0  0  0
   -1.5230    8.3720   -8.8450 Cl  0  0  0  0  0  0  0  0  0  0  0  0
    1.4180   14.9850   -2.8480 C   0  0  0  0  0  0  0  0  0  0  0  0
    0.0590   14.8880   -2.1760 C   0  0  0  0  0  0  0  0  0  0  0  0
   -1.1010   15.0730   -2.7810 N   0  0  0  0  0  0  0  0  0  0  0  0
   -0.0660   14.5430   -0.5000 S   0  0  0  0  0  0  0  0  0  0  0  0
   -2.1590   14.9630   -1.8970 C   0  0  0  0  0  0  0  0  0  0  0  0
   -1.7860   14.6770   -0.5860 C   0  0  0  0  0  0  0  0  0  0  0  0
   -3.5250   15.1260   -2.2170 C   0  0  0  0  0  0  0  0  0  0  0  0
   -2.7340   14.5460    0.4350 C   0  0  0  0  0  0  0  0  0  0  0  0
   -4.4700   15.0030   -1.2020 C   0  0  0  0  0  0  0  0  0  0  0  0
   -4.0830   14.7170    0.1030 C   0  0  0  0  0  0  0  0  0  0  0  0
   -6.1410   15.2030   -1.5580 Cl  0  0  0  0  0  0  0  0  0  0  0  0
  2  1  1  6
  2  3  1  0
  2  4  1  0
  4  5  2  0
  3  6  1  0
  4  7  1  0
  6  7  1  0
  3  8  1  0
  6  9  2  3
  8 10  2  0
  8 11  1  0
  9 12  1  0
 10 13  1  0
 11 14  2  0
 12 15  2  0
 12 16  1  0
 13 17  2  0
 14 17  1  0
 17 18  1  0
 16 19  1  0
 19 20  1  0
 20 21  2  0
 20 22  1  0
 21 23  1  0
 22 24  1  0
 23 24  2  0
 23 25  1  0
 24 26  1  0
 25 27  2  0
 26 28  2  0
 27 28  1  0
 27 29  1  0
M  END
