diamond-x0950_1_A-mac-x0138
     RDKit          3D

 20 21  0  0  0  0  0  0  0  0999 V2000
    1.0470   13.8920   -5.0620 C   0  0  0  0  0  0  0  0  0  0  0  0
    1.3530   12.4550   -4.7030 C   0  0  2  0  0  0  0  0  0  0  0  0
    0.6090   11.6230   -5.5930 O   0  0  0  0  0  0  0  0  0  0  0  0
    1.0580   12.0760   -3.2420 C   0  0  0  0  0  0  0  0  0  0  0  0
    0.2950   11.1700   -2.9060 O   0  0  0  0  0  0  0  0  0  0  0  0
    1.7530   12.8550   -2.3790 O   0  0  0  0  0  0  0  0  0  0  0  0
    0.9740   13.7990   -1.6430 C   0  0  0  0  0  0  0  0  0  0  0  0
    0.4270   14.9110   -2.5450 C   0  0  0  0  0  0  0  0  0  0  0  0
   -0.9720   14.6350   -3.1330 C   0  0  0  0  0  0  0  0  0  0  0  0
   -2.0460   14.8480   -2.1980 N   0  0  0  0  0  0  0  0  0  0  0  0
   -3.3440   15.1980   -2.4780 C   0  0  0  0  0  0  0  0  0  0  0  0
   -1.9220   14.7360   -0.8510 C   0  0  0  0  0  0  0  0  0  0  0  0
   -4.0570   15.3230   -1.3760 N   0  0  0  0  0  0  0  0  0  0  0  0
   -3.1700   15.0390   -0.3540 C   0  0  0  0  0  0  0  0  0  0  0  0
   -0.8240   14.4090   -0.1520 N   0  0  0  0  0  0  0  0  0  0  0  0
   -3.2890   15.0060    1.0340 C   0  0  0  0  0  0  0  0  0  0  0  0
   -1.0430   14.3940    1.1660 C   0  0  0  0  0  0  0  0  0  0  0  0
   -4.4740   15.3040    1.6800 N   0  0  0  0  0  0  0  0  0  0  0  0
    0.0050   14.0680    2.0090 N   0  0  0  0  0  0  0  0  0  0  0  0
   -2.1970   14.6740    1.7730 N   0  0  0  0  0  0  0  0  0  0  0  0
  2  1  1  1
  2  3  1  0
  2  4  1  0
  4  5  2  0
  4  6  1  0
  6  7  1  0
  7  8  1  0
  8  9  1  0
  9 10  1  0
 10 11  1  0
 10 12  1  0
 11 13  2  0
 12 14  2  0
 13 14  1  0
 12 15  1  0
 14 16  1  0
 15 17  2  0
 16 18  1  0
 17 19  1  0
 16 20  2  0
 17 20  1  0
M  END
