diamond-x0662_0_A-diamond-x0676_0_B
     RDKit          3D

 22 24  0  0  0  0  0  0  0  0999 V2000
    5.1920    8.2390  -14.4160 C   0  0  0  0  0  0  0  0  0  0  0  0
    3.9920    8.9400  -14.0000 N   0  0  0  0  0  0  0  0  0  0  0  0
    4.0460   10.3350  -14.1200 C   0  0  0  0  0  0  0  0  0  0  0  0
    3.3990    8.6280  -12.6470 C   0  0  2  0  0  0  0  0  0  0  0  0
    3.1690   10.9500  -13.3420 C   0  0  0  0  0  0  0  0  0  0  0  0
    2.4030    9.8820  -12.6100 C   0  0  2  0  0  0  0  0  0  0  0  0
    4.4460    8.4660  -11.6150 N   0  0  0  0  0  0  0  0  0  0  0  0
    2.6520    7.3340  -12.4060 C   0  0  0  0  0  0  0  0  0  0  0  0
    1.7290   10.4410  -11.3480 C   0  0  0  0  0  0  0  0  0  0  0  0
    4.2580    7.3800  -10.9340 C   0  0  0  0  0  0  0  0  0  0  0  0
    3.1260    6.5980  -11.3680 C   0  0  0  0  0  0  0  0  0  0  0  0
    1.7860    9.5990  -10.1790 N   0  0  0  0  0  0  0  0  0  0  0  0
    5.1580    6.9470   -9.7960 C   0  0  0  0  0  0  0  0  0  0  0  0
    0.8410    9.6880   -9.1530 C   0  0  0  0  0  0  0  0  0  0  0  0
   -0.2440    8.8140   -9.2190 C   0  0  0  0  0  0  0  0  0  0  0  0
    0.8900   10.5730   -8.0620 C   0  0  0  0  0  0  0  0  0  0  0  0
   -1.2350    8.8140   -8.2400 C   0  0  0  0  0  0  0  0  0  0  0  0
   -0.0880   10.5920   -7.0600 C   0  0  0  0  0  0  0  0  0  0  0  0
    0.0230   11.5630   -5.8950 C   0  0  0  0  0  0  0  0  0  0  0  0
   -1.1560    9.6970   -7.1640 C   0  0  0  0  0  0  0  0  0  0  0  0
   -0.9890   11.6890   -5.1360 O   0  0  0  0  0  0  0  0  0  0  0  0
    1.1300   12.1690   -5.7470 O   0  0  0  0  0  0  0  0  0  0  0  0
  1  2  1  0
  2  3  1  0
  2  4  1  0
  3  5  2  0
  4  6  1  0
  5  6  1  0
  4  7  1  0
  4  8  1  6
  6  9  1  1
  7 10  2  0
  8 11  2  0
 10 11  1  0
  9 12  1  0
 10 13  1  0
 12 14  1  0
 14 15  2  0
 14 16  1  0
 15 17  1  0
 16 18  2  0
 18 19  1  0
 17 20  2  0
 18 20  1  0
 19 21  2  0
 19 22  1  0
M  CHG  1  22  -1
M  END
