diamond-x0685_1_A-diamond-x0631_0_A
     RDKit          3D

 28 30  0  0  0  0  0  0  0  0999 V2000
   -1.4500   11.0000   -5.3060 N   0  0  0  0  0  0  0  0  0  0  0  0
   -1.0760   12.3960   -4.9800 C   0  0  0  0  0  0  0  0  0  0  0  0
    0.3960   12.4780   -4.6040 C   0  0  0  0  0  0  0  0  0  0  0  0
   -1.1610   10.7720   -6.7560 C   0  0  1  0  0  0  0  0  0  0  0  0
   -0.5900    9.3340   -7.1560 C   0  0  1  0  0  0  0  0  0  0  0  0
   -2.3760   11.1320   -7.6060 C   0  0  0  0  0  0  0  0  0  0  0  0
    0.7880   12.1050   -2.8930 S   0  0  0  0  0  0  0  0  0  0  0  0
   -1.2920    8.7400   -8.4040 C   0  0  0  0  0  0  0  0  0  0  0  0
   -2.0890   11.0480   -9.1080 C   0  0  0  0  0  0  0  0  0  0  0  0
    0.8470    9.4850   -7.4410 N   0  0  0  0  0  0  0  0  0  0  0  0
   -0.8510    8.2930   -6.0410 C   0  0  0  0  0  0  0  0  0  0  0  0
    2.3690   12.1910   -2.7980 O   0  0  0  0  0  0  0  0  0  0  0  0
    0.2740   10.6190   -2.5290 O   0  0  0  0  0  0  0  0  0  0  0  0
    0.1150   13.2130   -1.9560 O   0  0  0  0  0  0  0  0  0  0  0  0
   -1.5280    9.7110   -9.5500 C   0  0  0  0  0  0  0  0  0  0  0  0
    1.0750   10.8970   -7.3210 N   0  0  0  0  0  0  0  0  0  0  0  0
    1.1750    9.1850   -8.8100 N   0  0  0  0  0  0  0  0  0  0  0  0
   -2.3450    8.0340   -5.9090 C   0  0  0  0  0  0  0  0  0  0  0  0
    0.6950   11.3560   -8.6310 N   0  0  0  0  0  0  0  0  0  0  0  0
    1.5700   10.4720   -9.3100 C   0  0  2  0  0  0  0  0  0  0  0  0
    1.4200   10.6300  -10.7290 N   0  0  0  0  0  0  0  0  0  0  0  0
    2.0300    9.6230  -11.5940 C   0  0  2  0  0  0  0  0  0  0  0  0
    2.9770    8.8050  -10.9090 O   0  0  0  0  0  0  0  0  0  0  0  0
    2.5980   10.0510  -12.9780 C   0  0  2  0  0  0  0  0  0  0  0  0
    3.9340    9.5980  -13.2170 O   0  0  0  0  0  0  0  0  0  0  0  0
    2.6450   11.5340  -13.2780 C   0  0  0  0  0  0  0  0  0  0  0  0
    3.5940   11.6040  -14.4540 C   0  0  0  0  0  0  0  0  0  0  0  0
    4.3880   10.3060  -14.3800 C   0  0  0  0  0  0  0  0  0  0  0  0
  1  2  1  0
  2  3  1  0
  4  1  1  1
  4  5  1  0
  4  6  1  0
  3  7  1  0
  5  8  1  0
  6  9  1  0
  5 10  1  0
  5 11  1  1
  7 12  1  0
  7 13  1  0
  7 14  1  0
  8 15  1  0
  9 15  1  0
 10 16  1  0
 10 17  1  0
 11 18  1  0
 16 19  1  0
 17 20  1  0
 19 20  1  0
 20 21  1  6
 21 22  1  0
 22 23  1  1
 22 24  1  0
 24 25  1  0
 24 26  1  1
 26 27  1  0
 25 28  1  0
 27 28  1  0
M  END
