diamond-x0128_0_A-mac-x0510
     RDKit          3D

 21 23  0  0  0  0  0  0  0  0999 V2000
   -6.5940   14.5160    2.2950 N   0  0  0  0  0  0  0  0  0  0  0  0
   -7.6890   15.1350    2.9100 C   0  0  0  0  0  0  0  0  0  0  0  0
   -8.7000   15.4240    2.2780 O   0  0  0  0  0  0  0  0  0  0  0  0
   -6.1000   14.8240    0.9400 C   0  0  2  0  0  0  0  0  0  0  0  0
   -7.4920   15.3730    4.2750 N   0  0  0  0  0  0  0  0  0  0  0  0
   -6.3330   13.6590    0.0480 C   0  0  0  0  0  0  0  0  0  0  0  0
   -4.6530   15.4810    0.8660 C   0  0  0  0  0  0  0  0  0  0  0  0
   -5.5700   13.3960   -1.0090 C   0  0  0  0  0  0  0  0  0  0  0  0
   -3.6630   14.6880   -0.0110 C   0  0  1  0  0  0  0  0  0  0  0  0
   -8.3530   16.1050    5.1480 C   0  0  0  0  0  0  0  0  0  0  0  0
   -4.4160   14.2760   -1.2720 C   0  0  0  0  0  0  0  0  0  0  0  0
   -9.0960   17.2320    4.7950 C   0  0  0  0  0  0  0  0  0  0  0  0
   -8.4780   15.6740    6.4770 C   0  0  0  0  0  0  0  0  0  0  0  0
   -2.3200   15.1910   -0.4720 N   0  0  0  0  0  0  0  0  0  0  0  0
   -3.1130   13.5740    0.8060 C   0  0  0  0  0  0  0  0  0  0  0  0
   -4.1070   14.6300   -2.4170 O   0  0  0  0  0  0  0  0  0  0  0  0
   -9.9100   17.9190    5.6380 N   0  0  0  0  0  0  0  0  0  0  0  0
   -9.3100   16.3670    7.3660 C   0  0  0  0  0  0  0  0  0  0  0  0
   -2.0050   14.2110    1.5500 N   0  0  0  0  0  0  0  0  0  0  0  0
   -1.2660   14.8260    0.4960 C   0  0  0  0  0  0  0  0  0  0  0  0
   -9.9970   17.4730    6.9030 C   0  0  0  0  0  0  0  0  0  0  0  0
  1  2  1  0
  2  3  2  0
  4  1  1  1
  2  5  1  0
  4  6  1  0
  4  7  1  0
  6  8  2  0
  9  7  1  1
  5 10  1  0
  8 11  1  0
  9 11  1  0
 10 12  2  0
 10 13  1  0
  9 14  1  0
  9 15  1  0
 11 16  2  0
 12 17  1  0
 13 18  2  0
 15 19  1  0
 14 20  1  0
 19 20  1  0
 17 21  2  0
 18 21  1  0
M  END
