diamond-x0282_0_A-diamond-x0895_0_A
     RDKit          3D

 16 17  0  0  0  0  0  0  0  0999 V2000
   -6.7530   13.3280    1.0160 C   0  0  0  0  0  0  0  0  0  0  0  0
   -8.1020   13.4030    0.5410 O   0  0  0  0  0  0  0  0  0  0  0  0
   -6.1540   14.7130    0.8340 C   0  0  0  0  0  0  0  0  0  0  0  0
   -5.0560   15.2180    1.7840 C   0  0  0  0  0  0  0  0  0  0  0  0
   -5.6720   14.9800   -0.5650 C   0  0  0  0  0  0  0  0  0  0  0  0
   -3.7030   14.6070    1.5750 C   0  0  0  0  0  0  0  0  0  0  0  0
   -4.2050   14.6990   -0.7880 C   0  0  0  0  0  0  0  0  0  0  0  0
   -2.8890   14.5420    2.5030 O   0  0  0  0  0  0  0  0  0  0  0  0
   -3.8080   14.9180   -1.9300 O   0  0  0  0  0  0  0  0  0  0  0  0
   -3.4330   14.2400    0.2890 N   0  0  0  0  0  0  0  0  0  0  0  0
   -2.0550   14.4000    0.1080 C   0  0  0  0  0  0  0  0  0  0  0  0
   -1.5510   14.4190   -1.1270 N   0  0  0  0  0  0  0  0  0  0  0  0
   -1.3010   14.5390    1.2240 N   0  0  0  0  0  0  0  0  0  0  0  0
   -0.2380   14.5880   -1.2580 C   0  0  0  0  0  0  0  0  0  0  0  0
   -0.0000   14.7060    1.0380 C   0  0  0  0  0  0  0  0  0  0  0  0
    0.5940   14.7430   -0.2000 C   0  0  0  0  0  0  0  0  0  0  0  0
  1  2  1  0
  1  3  1  0
  3  4  1  0
  3  5  1  0
  4  6  1  0
  5  7  1  0
  6  8  2  0
  7  9  2  0
  6 10  1  0
  7 10  1  0
 10 11  1  0
 11 12  2  0
 11 13  1  0
 12 14  1  0
 13 15  2  0
 14 16  2  0
 15 16  1  0
M  END
