diamond-x0711_0_A-diamond-x1012_0_A
     RDKit          3D

 25 26  0  0  0  0  0  0  0  0999 V2000
   -1.6400   14.7640   -1.9990 N   0  0  0  0  0  0  0  0  0  0  0  0
   -1.2840   13.3840   -2.8700 S   0  0  0  0  0  0  0  0  0  0  0  0
   -2.4030   12.1030   -2.8740 C   0  0  0  0  0  0  0  0  0  0  0  0
   -2.9000   14.7750   -1.4130 C   0  0  0  0  0  0  0  0  0  0  0  0
   -1.0660   14.0060   -4.6390 O   0  0  0  0  0  0  0  0  0  0  0  0
    0.3370   12.8630   -2.6320 C   0  0  0  0  0  0  0  0  0  0  0  0
   -4.0060   15.1000   -2.1560 C   0  0  0  0  0  0  0  0  0  0  0  0
   -2.9940   14.4400   -0.0780 C   0  0  0  0  0  0  0  0  0  0  0  0
    0.3520   11.4830   -2.8470 O   0  0  0  0  0  0  0  0  0  0  0  0
    0.6960   13.0730   -1.2910 O   0  0  0  0  0  0  0  0  0  0  0  0
   -5.2130   15.0670   -1.5130 C   0  0  0  0  0  0  0  0  0  0  0  0
   -4.2100   14.4180    0.5280 C   0  0  0  0  0  0  0  0  0  0  0  0
    0.9400   13.5990   -3.7210 C   0  0  0  0  0  0  0  0  0  0  0  0
   -5.3680   14.7310   -0.1830 C   0  0  0  0  0  0  0  0  0  0  0  0
   -0.0470   13.6280   -4.9080 C   0  0  0  0  0  0  0  0  0  0  0  0
    1.2360   15.0490   -3.3970 C   0  0  0  0  0  0  0  0  0  0  0  0
   -6.6470   14.6930    0.4690 C   0  0  0  0  0  0  0  0  0  0  0  0
   -1.1570   14.7270   -4.9030 C   0  0  0  0  0  0  0  0  0  0  0  0
    0.9650   15.8620   -4.6840 C   0  0  0  0  0  0  0  0  0  0  0  0
   -6.7380   14.6410    1.8750 N   0  0  0  0  0  0  0  0  0  0  0  0
   -7.6880   14.7030   -0.2160 O   0  0  0  0  0  0  0  0  0  0  0  0
   -0.4570   15.9850   -4.9210 N   0  0  0  0  0  0  0  0  0  0  0  0
   -1.1420   17.2120   -4.7980 C   0  0  0  0  0  0  0  0  0  0  0  0
   -0.4400   18.4240   -4.7780 N   0  0  0  0  0  0  0  0  0  0  0  0
   -2.3970   17.3060   -4.6920 O   0  0  0  0  0  0  0  0  0  0  0  0
  1  2  1  0
  2  3  1  0
  1  4  1  0
  2  5  2  0
  2  6  1  0
  4  7  2  0
  4  8  1  0
  6  9  1  0
  6 10  1  0
  7 11  1  0
  8 12  2  0
  6 13  1  0
 11 14  2  0
 12 14  1  0
 13 15  1  0
 13 16  1  0
 14 17  1  0
 15 18  1  0
 16 19  1  0
 17 20  1  0
 17 21  2  0
 18 22  1  0
 19 22  1  0
 22 23  1  0
 23 24  1  0
 23 25  2  0
M  END
