diamond-x0905_0_A-diamond-x0805_0_A
     RDKit          3D

 23 25  0  0  0  0  0  0  0  0999 V2000
   -7.8560   15.1520   -0.3470 O   0  0  0  0  0  0  0  0  0  0  0  0
   -6.5130   15.1850   -0.3330 C   0  0  0  0  0  0  0  0  0  0  0  0
   -5.9930   14.8550    0.8630 N   0  0  0  0  0  0  0  0  0  0  0  0
   -5.8280   15.5310   -1.4650 C   0  0  0  0  0  0  0  0  0  0  0  0
   -4.6540   14.8620    0.9230 C   0  0  0  0  0  0  0  0  0  0  0  0
   -4.4680   15.5260   -1.3690 C   0  0  0  0  0  0  0  0  0  0  0  0
   -3.8940   15.1780   -0.1590 C   0  0  0  0  0  0  0  0  0  0  0  0
   -2.5960   15.1300   -0.1000 O   0  0  0  0  0  0  0  0  0  0  0  0
   -2.5010   14.4300   -1.2500 C   0  0  0  0  0  0  0  0  0  0  0  0
   -3.5790   13.5680   -1.5170 C   0  0  0  0  0  0  0  0  0  0  0  0
   -1.4660   14.5440   -2.1110 C   0  0  0  0  0  0  0  0  0  0  0  0
   -3.5950   12.8170   -2.6870 C   0  0  0  0  0  0  0  0  0  0  0  0
   -1.4690   13.7970   -3.2800 C   0  0  0  0  0  0  0  0  0  0  0  0
   -2.5330   12.9360   -3.5700 C   0  0  0  0  0  0  0  0  0  0  0  0
   -0.3090   13.9460   -4.1900 C   0  0  2  0  0  0  0  0  0  0  0  0
    0.6440   12.7330   -4.0950 C   0  0  2  0  0  0  0  0  0  0  0  0
    0.3150   15.3040   -3.8170 C   0  0  0  0  0  0  0  0  0  0  0  0
    0.5320   12.0100   -2.7620 C   0  0  0  0  0  0  0  0  0  0  0  0
    2.0590   13.0620   -4.5430 C   0  0  0  0  0  0  0  0  0  0  0  0
    1.7270   15.4330   -4.2820 C   0  0  0  0  0  0  0  0  0  0  0  0
    0.1250   10.7340   -2.8670 O   0  0  0  0  0  0  0  0  0  0  0  0
    0.7620   12.4820   -1.6470 O   0  0  0  0  0  0  0  0  0  0  0  0
    2.5260   14.2890   -3.9990 O   0  0  0  0  0  0  0  0  0  0  0  0
  1  2  1  0
  2  3  2  0
  2  4  1  0
  3  5  1  0
  4  6  2  0
  5  7  2  0
  6  7  1  0
  7  8  1  0
  8  9  1  0
  9 10  2  0
  9 11  1  0
 10 12  1  0
 11 13  2  0
 12 14  2  0
 13 14  1  0
 15 13  1  1
 15 16  1  0
 15 17  1  0
 16 18  1  1
 16 19  1  0
 17 20  1  0
 18 21  1  0
 18 22  2  0
 19 23  1  0
 20 23  1  0
M  END
