diamond-x0855_0_A-mac-x0139
     RDKit          3D

 22 24  0  0  0  0  0  0  0  0999 V2000
    1.9150   12.6430   -2.5560 O   0  0  0  0  0  0  0  0  0  0  0  0
    0.8380   11.8800   -2.8630 C   0  0  0  0  0  0  0  0  0  0  0  0
   -0.2890   12.6310   -3.4520 C   0  0  1  0  0  0  0  0  0  0  0  0
    0.8440   10.6870   -2.6260 O   0  0  0  0  0  0  0  0  0  0  0  0
   -0.1860   14.1700   -3.4290 C   0  0  0  0  0  0  0  0  0  0  0  0
   -0.9610   11.8980   -4.5340 N   0  0  0  0  0  0  0  0  0  0  0  0
   -1.2620   14.8330   -2.6430 N   0  0  0  0  0  0  0  0  0  0  0  0
   -0.4610   10.9700   -5.4130 C   0  0  0  0  0  0  0  0  0  0  0  0
   -2.2800   12.1110   -4.7210 N   0  0  0  0  0  0  0  0  0  0  0  0
   -2.4340   15.1540   -3.4560 C   0  0  0  0  0  0  0  0  0  0  0  0
   -1.5110   10.5560   -6.1760 C   0  0  0  0  0  0  0  0  0  0  0  0
   -2.6020   11.2850   -5.7220 C   0  0  0  0  0  0  0  0  0  0  0  0
   -1.3390   14.8280   -1.2200 C   0  0  0  0  0  0  0  0  0  0  0  0
   -1.5500    9.2850   -7.5410 Br  0  0  0  0  0  0  0  0  0  0  0  0
   -2.5470   14.9520   -0.6040 C   0  0  0  0  0  0  0  0  0  0  0  0
   -0.1740   14.7400   -0.4390 N   0  0  0  0  0  0  0  0  0  0  0  0
   -2.5950   14.9690    0.8760 C   0  0  0  0  0  0  0  0  0  0  0  0
   -0.2960   14.7410    0.8680 C   0  0  0  0  0  0  0  0  0  0  0  0
   -3.9140   15.1100   -0.9800 C   0  0  0  0  0  0  0  0  0  0  0  0
   -1.4560   14.7820    1.5570 N   0  0  0  0  0  0  0  0  0  0  0  0
   -3.7950   15.1790    1.3190 N   0  0  0  0  0  0  0  0  0  0  0  0
   -4.5730   15.2530    0.1770 C   0  0  0  0  0  0  0  0  0  0  0  0
  1  2  1  0
  2  3  1  0
  2  4  2  0
  3  5  1  6
  3  6  1  0
  5  7  1  0
  6  8  1  0
  6  9  1  0
  7 10  1  0
  8 11  2  0
  9 12  2  0
 11 12  1  0
  7 13  1  0
 11 14  1  0
 13 15  2  0
 13 16  1  0
 15 17  1  0
 16 18  2  0
 15 19  1  0
 17 20  1  0
 18 20  1  0
 17 21  2  0
 19 22  2  0
 21 22  1  0
M  END
