diamond-x0591_0_A-diamond-x0685_1_A
     RDKit          3D

 26 27  0  0  0  0  0  0  0  0999 V2000
   -6.1150   14.6990    0.7020 N   0  0  0  0  0  0  0  0  0  0  0  0
   -6.9520   14.4730    1.8580 C   0  0  0  0  0  0  0  0  0  0  0  0
   -6.4700   14.9100   -0.6110 C   0  0  0  0  0  0  0  0  0  0  0  0
   -7.6200   15.1940   -0.9110 O   0  0  0  0  0  0  0  0  0  0  0  0
   -5.4180   14.7620   -1.6360 C   0  0  0  0  0  0  0  0  0  0  0  0
   -4.1750   14.3910   -1.1950 C   0  0  0  0  0  0  0  0  0  0  0  0
   -5.6380   14.9750   -3.0180 C   0  0  0  0  0  0  0  0  0  0  0  0
   -3.1670   14.2250   -2.0940 C   0  0  0  0  0  0  0  0  0  0  0  0
   -4.5800   14.8030   -3.9610 C   0  0  0  0  0  0  0  0  0  0  0  0
   -3.3410   14.4170   -3.4560 C   0  0  0  0  0  0  0  0  0  0  0  0
   -1.7940   14.0610   -4.1240 S   0  0  1  0  0  0  0  0  0  0  0  0
   -1.1560   15.5340   -3.6950 N   0  0  0  0  0  0  0  0  0  0  0  0
   -0.9010   12.7820   -4.9050 C   0  0  0  0  0  0  0  0  0  0  0  0
   -3.1810   13.2350   -4.3390 O   0  0  0  0  0  0  0  0  0  0  0  0
   -1.5440   11.6050   -5.2730 N   0  0  0  0  0  0  0  0  0  0  0  0
    0.5610   12.8770   -5.1040 C   0  0  0  0  0  0  0  0  0  0  0  0
    1.1860   12.4870   -3.4450 S   0  0  0  0  0  0  0  0  0  0  0  0
   -1.1140   10.7720   -6.4110 C   0  0  0  0  0  0  0  0  0  0  0  0
    2.7760   12.4080   -3.4730 O   0  0  0  0  0  0  0  0  0  0  0  0
    0.5650   11.0690   -3.0170 O   0  0  0  0  0  0  0  0  0  0  0  0
    0.7150   13.5650   -2.3580 O   0  0  0  0  0  0  0  0  0  0  0  0
   -0.8510    9.2780   -6.1770 C   0  0  0  0  0  0  0  0  0  0  0  0
   -1.9090   11.0380   -7.6820 C   0  0  0  0  0  0  0  0  0  0  0  0
   -0.1660    8.6720   -7.4160 C   0  0  0  0  0  0  0  0  0  0  0  0
   -1.1760   10.4990   -8.9070 C   0  0  0  0  0  0  0  0  0  0  0  0
   -0.8520    9.0140   -8.7490 C   0  0  0  0  0  0  0  0  0  0  0  0
  1  2  1  0
  1  3  1  0
  3  4  2  0
  3  5  1  0
  5  6  2  0
  5  7  1  0
  6  8  1  0
  7  9  2  0
  8 10  2  0
  9 10  1  0
 10 11  1  0
 11 12  1  6
 11 13  2  0
 11 14  2  0
 13 15  1  0
 13 16  1  0
 16 17  1  0
 15 18  1  0
 17 19  1  0
 17 20  1  0
 17 21  1  0
 18 22  1  0
 18 23  1  0
 22 24  1  0
 23 25  1  0
 24 26  1  0
 25 26  1  0
M  END
