diamond-x0926_0_A-diamond-x0962_2_B
     RDKit          3D

 17 18  0  0  0  0  0  0  0  0999 V2000
   -6.2620   13.0820   -1.0200 O   0  0  0  0  0  0  0  0  0  0  0  0
   -5.4240   13.9580   -0.8930 C   0  0  0  0  0  0  0  0  0  0  0  0
   -5.6540   15.1250    0.0000 C   0  0  2  0  0  0  0  0  0  0  0  0
   -4.2390   13.9550   -1.6000 N   0  0  0  0  0  0  0  0  0  0  0  0
   -6.4130   16.0770   -0.9380 C   0  0  0  0  0  0  0  0  0  0  0  0
   -3.1460   14.7020   -1.1270 N   0  0  0  0  0  0  0  0  0  0  0  0
   -4.3810   15.5560    0.6910 C   0  0  0  0  0  0  0  0  0  0  0  0
   -7.9780   16.0510   -0.9040 C   0  0  0  0  0  0  0  0  0  0  0  0
   -3.2240   15.3070    0.0970 C   0  0  0  0  0  0  0  0  0  0  0  0
   -8.6420   15.0010    0.0310 C   0  0  0  0  0  0  0  0  0  0  0  0
   -9.6010   15.4670    1.1800 C   0  0  2  0  0  0  0  0  0  0  0  0
  -10.1110   16.8230    0.9660 N   0  0  0  0  0  0  0  0  0  0  0  0
   -8.9990   15.3180    2.5460 C   0  0  0  0  0  0  0  0  0  0  0  0
   -9.0740   16.2720    3.5480 N   0  0  0  0  0  0  0  0  0  0  0  0
   -8.2790   14.2980    3.1320 C   0  0  0  0  0  0  0  0  0  0  0  0
   -8.4130   15.7900    4.6420 C   0  0  0  0  0  0  0  0  0  0  0  0
   -7.9280   14.5950    4.4170 N   0  0  0  0  0  0  0  0  0  0  0  0
  1  2  2  0
  2  3  1  0
  2  4  1  0
  3  5  1  6
  4  6  1  0
  3  7  1  0
  5  8  1  0
  6  9  1  0
  7  9  2  0
  8 10  1  0
 10 11  1  0
 11 12  1  6
 11 13  1  0
 13 14  1  0
 13 15  2  0
 14 16  1  0
 15 17  1  0
 16 17  2  0
M  END
