diamond-x0290_0_A-mac-x0375
     RDKit          3D

 26 27  0  0  0  0  0  0  0  0999 V2000
   -7.7660   13.8090    0.8580 N   0  0  0  0  0  0  0  0  0  0  0  0
   -8.6420   14.9580    0.7210 C   0  0  0  0  0  0  0  0  0  0  0  0
   -6.5810   14.0780    1.6930 C   0  0  0  0  0  0  0  0  0  0  0  0
   -5.3280   14.4310    0.8830 C   0  0  0  0  0  0  0  0  0  0  0  0
   -5.3640   14.4510   -0.3540 O   0  0  0  0  0  0  0  0  0  0  0  0
   -4.1480   14.7190    1.4970 N   0  0  0  0  0  0  0  0  0  0  0  0
   -2.8500   14.6600    1.0030 C   0  0  0  0  0  0  0  0  0  0  0  0
   -1.7950   14.5690    1.8350 N   0  0  0  0  0  0  0  0  0  0  0  0
   -2.6950   14.6950   -0.3740 C   0  0  0  0  0  0  0  0  0  0  0  0
   -0.5630   14.5120    1.2970 C   0  0  0  0  0  0  0  0  0  0  0  0
   -1.4130   14.6370   -0.9150 C   0  0  0  0  0  0  0  0  0  0  0  0
   -1.2070   14.6710   -2.3990 C   0  0  0  0  0  0  0  0  0  0  0  0
   -0.3200   14.5440   -0.0540 C   0  0  0  0  0  0  0  0  0  0  0  0
   -0.2530   13.5950   -2.8500 C   0  0  0  0  0  0  0  0  0  0  0  0
    1.2070   13.8530   -2.4780 C   0  0  0  0  0  0  0  0  0  0  0  0
    1.8850   12.6580   -2.8140 O   0  0  0  0  0  0  0  0  0  0  0  0
    1.1300   11.8830   -3.6200 C   0  0  0  0  0  0  0  0  0  0  0  0
    0.5740   10.8510   -3.2620 O   0  0  0  0  0  0  0  0  0  0  0  0
    1.0630   12.4600   -5.0360 C   0  0  0  0  0  0  0  0  0  0  0  0
    0.7690   11.5530   -6.0800 O   0  0  0  0  0  0  0  0  0  0  0  0
   -0.4060   10.8620   -6.0450 C   0  0  0  0  0  0  0  0  0  0  0  0
   -0.3870    9.6730   -6.7820 C   0  0  0  0  0  0  0  0  0  0  0  0
   -1.5710   11.2230   -5.3670 C   0  0  0  0  0  0  0  0  0  0  0  0
   -1.5110    8.8540   -6.8430 C   0  0  0  0  0  0  0  0  0  0  0  0
   -2.7000   10.4020   -5.4290 C   0  0  0  0  0  0  0  0  0  0  0  0
   -2.6730    9.2170   -6.1650 C   0  0  0  0  0  0  0  0  0  0  0  0
  1  2  1  0
  1  3  1  0
  3  4  1  0
  4  5  2  0
  4  6  1  0
  6  7  1  0
  7  8  2  0
  7  9  1  0
  8 10  1  0
  9 11  2  0
 11 12  1  0
 10 13  2  0
 11 13  1  0
 12 14  1  0
 14 15  1  0
 15 16  1  0
 16 17  1  0
 17 18  2  0
 17 19  1  0
 19 20  1  0
 20 21  1  0
 21 22  2  0
 21 23  1  0
 22 24  1  0
 23 25  2  0
 24 26  2  0
 25 26  1  0
M  END
