diamond-x0900_0_A-mac-x0333
     RDKit          3D

 11 12  0  0  0  0  0  0  0  0999 V2000
   -7.3350   15.2980   -1.1140 O   0  0  0  0  0  0  0  0  0  0  0  0
   -6.2060   14.9090   -0.8500 C   0  0  0  0  0  0  0  0  0  0  0  0
   -5.0540   15.4430   -1.3540 N   0  0  0  0  0  0  0  0  0  0  0  0
   -5.8730   13.7790    0.0740 C   0  0  1  0  0  0  0  0  0  0  0  0
   -4.9040   14.2240    1.1410 C   0  0  2  0  0  0  0  0  0  0  0  0
   -3.8080   14.8140   -1.0060 C   0  0  1  0  0  0  0  0  0  0  0  0
   -6.9370   13.1400    0.7860 O   0  0  0  0  0  0  0  0  0  0  0  0
   -2.7650   15.3600   -1.7770 O   0  0  0  0  0  0  0  0  0  0  0  0
   -3.6270   14.8000    0.5220 C   0  0  0  0  0  0  0  0  0  0  0  0
   -4.8900   12.8840    1.7820 C   0  0  0  0  0  0  0  0  0  0  0  0
   -6.0970   12.3400    1.5470 C   0  0  0  0  0  0  0  0  0  0  0  0
  1  2  2  0
  2  3  1  0
  2  4  1  0
  4  5  1  0
  3  6  1  0
  4  7  1  1
  6  8  1  6
  5  9  1  6
  6  9  1  0
  5 10  1  0
  7 11  1  0
 10 11  2  0
M  END
