diamond-x0918_3_A-diamond-x0299_0_A
     RDKit          3D

 17 18  0  0  0  0  0  0  0  0999 V2000
   16.2070    5.2170    8.3030 N   0  0  0  0  0  0  0  0  0  0  0  0
   15.0230    5.2560    9.1100 C   0  0  2  0  0  0  0  0  0  0  0  0
   15.2360    4.8980   10.5260 C   0  0  0  0  0  0  0  0  0  0  0  0
   14.0190    4.2530    8.6870 C   0  0  0  0  0  0  0  0  0  0  0  0
   14.6840    6.6760    9.2420 N   0  0  0  0  0  0  0  0  0  0  0  0
   14.0740    2.9970    9.1760 C   0  0  0  0  0  0  0  0  0  0  0  0
   15.5900    3.4840   10.7840 C   0  0  0  0  0  0  0  0  0  0  0  0
   15.0780    5.8660   11.3640 N   0  0  0  0  0  0  0  0  0  0  0  0
   14.7580    6.9150   10.5150 C   0  0  0  0  0  0  0  0  0  0  0  0
   14.5240    8.3030   11.0800 C   0  0  0  0  0  0  0  0  0  0  0  0
   15.0070    2.5530   10.0890 N   0  0  0  0  0  0  0  0  0  0  0  0
   14.0020    8.2010   12.4260 N   0  0  0  0  0  0  0  0  0  0  0  0
   14.8590    8.4050   13.4820 C   0  0  0  0  0  0  0  0  0  0  0  0
   16.0390    8.7000   13.3330 O   0  0  0  0  0  0  0  0  0  0  0  0
   14.1920    8.2260   14.8290 C   0  0  0  0  0  0  0  0  0  0  0  0
   15.0970    7.5550   15.8550 C   0  0  0  0  0  0  0  0  0  0  0  0
   15.9060    8.5650   16.6550 C   0  0  0  0  0  0  0  0  0  0  0  0
  2  1  1  6
  2  3  1  0
  2  4  1  0
  2  5  1  0
  4  6  2  0
  3  7  1  0
  3  8  2  0
  5  9  2  0
  8  9  1  0
  9 10  1  0
  6 11  1  0
  7 11  2  0
 10 12  1  0
 12 13  1  0
 13 14  2  0
 13 15  1  0
 15 16  1  0
 16 17  1  0
M  END
