diamond-x0864_0_A-mac-x0231
     RDKit          3D

 23 25  0  0  0  0  0  0  0  0999 V2000
    1.6510   12.0270   -6.6980 O   0  0  0  0  0  0  0  0  0  0  0  0
    0.6570   11.3940   -6.3740 C   0  0  0  0  0  0  0  0  0  0  0  0
   -0.1510   11.6520   -5.2710 N   0  0  0  0  0  0  0  0  0  0  0  0
    0.2380   10.2080   -7.1820 C   0  0  0  0  0  0  0  0  0  0  0  0
    0.2430   12.4700   -4.0790 C   0  0  1  0  0  0  0  0  0  0  0  0
   -1.4600   11.2280   -5.2910 C   0  0  0  0  0  0  0  0  0  0  0  0
   -0.9910    9.6860   -7.0280 C   0  0  0  0  0  0  0  0  0  0  0  0
    1.0360   11.8190   -3.0070 C   0  0  0  0  0  0  0  0  0  0  0  0
   -1.6040    8.1950   -7.9630 Br  0  0  0  0  0  0  0  0  0  0  0  0
   -1.8990   10.2880   -6.1060 C   0  0  0  0  0  0  0  0  0  0  0  0
    0.5370   13.9680   -4.1160 C   0  0  2  0  0  0  0  0  0  0  0  0
    0.6170   10.5660   -2.7480 O   0  0  0  0  0  0  0  0  0  0  0  0
    1.9380   12.3400   -2.3840 O   0  0  0  0  0  0  0  0  0  0  0  0
   -0.8640   14.5260   -4.3030 C   0  0  1  0  0  0  0  0  0  0  0  0
    1.5150   14.5000   -5.0710 N   0  0  0  0  0  0  0  0  0  0  0  0
   -0.8930   16.0060   -4.6380 C   0  0  1  0  0  0  0  0  0  0  0  0
    1.5000   15.9070   -5.0850 N   0  0  0  0  0  0  0  0  0  0  0  0
   -1.8020   13.6550   -5.1100 C   0  0  0  0  0  0  0  0  0  0  0  0
    0.3590   16.6440   -5.1970 C   0  0  0  0  0  0  0  0  0  0  0  0
   -2.1700   16.4430   -5.3180 C   0  0  0  0  0  0  0  0  0  0  0  0
   -2.8080   14.1530   -5.8070 C   0  0  0  0  0  0  0  0  0  0  0  0
    0.3630   17.7670   -5.7010 O   0  0  0  0  0  0  0  0  0  0  0  0
   -3.0480   15.5670   -5.8440 C   0  0  0  0  0  0  0  0  0  0  0  0
  1  2  2  0
  2  3  1  0
  2  4  1  0
  3  5  1  0
  3  6  1  0
  4  7  2  0
  5  8  1  6
  7  9  1  0
  6 10  2  0
  7 10  1  0
  5 11  1  0
  8 12  1  0
  8 13  2  0
 11 14  1  0
 11 15  1  6
 14 16  1  0
 15 17  1  0
 14 18  1  6
 16 19  1  0
 17 19  1  0
 16 20  1  6
 18 21  2  0
 19 22  2  0
 20 23  2  0
 21 23  1  0
M  END
