diamond-x0685_1_A-diamond-x0950_0_A
     RDKit          3D

 14 14  0  0  0  0  0  0  0  0999 V2000
   -1.1280   10.5700   -4.8190 N   0  0  0  0  0  0  0  0  0  0  0  0
   -1.3970   11.9730   -4.4990 C   0  0  0  0  0  0  0  0  0  0  0  0
   -0.1800   12.7840   -4.0750 C   0  0  0  0  0  0  0  0  0  0  0  0
   -1.3120   10.0780   -6.1850 C   0  0  0  0  0  0  0  0  0  0  0  0
   -0.6650    8.7190   -6.4710 C   0  0  0  0  0  0  0  0  0  0  0  0
   -1.0110   11.1350   -7.2770 C   0  0  0  0  0  0  0  0  0  0  0  0
    0.6830   12.0630   -2.6730 S   0  0  0  0  0  0  0  0  0  0  0  0
    0.1310    8.7300   -7.7700 C   0  0  0  0  0  0  0  0  0  0  0  0
   -1.2200   10.6500   -8.7140 C   0  0  0  0  0  0  0  0  0  0  0  0
    2.2610   12.2990   -2.9240 O   0  0  0  0  0  0  0  0  0  0  0  0
    0.3200   10.4930   -2.5950 O   0  0  0  0  0  0  0  0  0  0  0  0
    0.1500   12.7780   -1.3360 O   0  0  0  0  0  0  0  0  0  0  0  0
   -0.6880    9.2430   -8.9580 C   0  0  0  0  0  0  0  0  0  0  0  0
    2.7260   12.9270   -4.1160 C   0  0  0  0  0  0  0  0  0  0  0  0
  1  2  1  0
  2  3  1  0
  1  4  1  0
  4  5  1  0
  4  6  1  0
  3  7  1  0
  5  8  1  0
  6  9  1  0
  7 10  1  0
  7 11  1  0
  7 12  1  0
  8 13  1  0
  9 13  1  0
 10 14  1  0
M  END
