diamond-x0895_1_A-mac-x0373
     RDKit          3D

 17 18  0  0  0  0  0  0  0  0999 V2000
   -1.5540   14.7820    1.3650 O   0  0  0  0  0  0  0  0  0  0  0  0
   -2.5780   14.6560    0.6870 C   0  0  0  0  0  0  0  0  0  0  0  0
   -2.6960   14.6070   -0.8750 C   0  0  1  0  0  0  0  0  0  0  0  0
   -3.8260   14.5430    1.2240 N   0  0  0  0  0  0  0  0  0  0  0  0
   -1.6850   13.5960   -1.5350 C   0  0  2  0  0  0  0  0  0  0  0  0
   -4.1250   14.3550   -0.9610 N   0  0  0  0  0  0  0  0  0  0  0  0
   -4.7590   14.5430    0.2570 C   0  0  0  0  0  0  0  0  0  0  0  0
   -5.9600   14.6810    0.4260 O   0  0  0  0  0  0  0  0  0  0  0  0
   -0.2270   14.0140   -1.4950 C   0  0  0  0  0  0  0  0  0  0  0  0
   -1.9680   12.8490   -2.8550 C   0  0  0  0  0  0  0  0  0  0  0  0
    0.5690   12.9660   -1.1500 O   0  0  0  0  0  0  0  0  0  0  0  0
    0.2330   15.1230   -1.7450 O   0  0  0  0  0  0  0  0  0  0  0  0
   -1.2290   13.0590   -4.0490 C   0  0  0  0  0  0  0  0  0  0  0  0
   -2.9880   11.8920   -2.8740 C   0  0  0  0  0  0  0  0  0  0  0  0
   -1.5160   12.3210   -5.2070 C   0  0  0  0  0  0  0  0  0  0  0  0
   -3.2690   11.1630   -4.0290 C   0  0  0  0  0  0  0  0  0  0  0  0
   -2.5360   11.3730   -5.1930 C   0  0  0  0  0  0  0  0  0  0  0  0
  1  2  2  0
  2  3  1  0
  2  4  1  0
  3  5  1  0
  3  6  1  1
  4  7  1  0
  6  7  1  0
  7  8  2  0
  5  9  1  6
  5 10  1  0
  9 11  1  0
  9 12  2  0
 10 13  2  0
 10 14  1  0
 13 15  1  0
 14 16  2  0
 15 17  2  0
 16 17  1  0
M  END
