diamond-x0438_0_A-mac-x0305
     RDKit          3D

 18 19  0  0  0  0  0  0  0  0999 V2000
   -8.2410   15.8280    4.0170 C   0  0  0  0  0  0  0  0  0  0  0  0
   -9.1610   15.3630    2.5640 S   0  0  0  0  0  0  0  0  0  0  0  0
  -10.4080   14.7890    3.0430 O   0  0  0  0  0  0  0  0  0  0  0  0
   -8.2150   14.0110    1.8730 C   0  0  0  0  0  0  0  0  0  0  0  0
   -9.2400   16.4460    1.6080 O   0  0  0  0  0  0  0  0  0  0  0  0
   -6.9560   14.3060    1.0960 C   0  0  0  0  0  0  0  0  0  0  0  0
   -6.9200   14.7740   -0.2010 N   0  0  0  0  0  0  0  0  0  0  0  0
   -5.7130   14.1280    1.5320 N   0  0  0  0  0  0  0  0  0  0  0  0
   -4.8390   14.4380    0.4980 C   0  0  0  0  0  0  0  0  0  0  0  0
   -5.5960   14.8530   -0.5990 C   0  0  0  0  0  0  0  0  0  0  0  0
   -5.0210   15.2340   -1.8060 C   0  0  0  0  0  0  0  0  0  0  0  0
   -3.3940   14.3870    0.3850 C   0  0  0  0  0  0  0  0  0  0  0  0
   -2.5890   13.9960    1.4370 O   0  0  0  0  0  0  0  0  0  0  0  0
   -3.6230   15.1560   -1.9150 C   0  0  0  0  0  0  0  0  0  0  0  0
   -2.7960   14.7270   -0.8550 C   0  0  0  0  0  0  0  0  0  0  0  0
   -1.3000   14.6440   -1.1550 C   0  0  0  0  0  0  0  0  0  0  0  0
   -0.5800   14.0030   -0.2050 O   0  0  0  0  0  0  0  0  0  0  0  0
   -0.7230   15.0480   -2.1570 O   0  0  0  0  0  0  0  0  0  0  0  0
  2  1  1  0
  2  3  2  0
  2  4  1  0
  2  5  2  0
  4  6  1  0
  6  7  1  0
  6  8  2  0
  8  9  1  0
  7 10  1  0
  9 10  2  0
 10 11  1  0
  9 12  1  0
 12 13  1  0
 11 14  2  0
 12 15  2  0
 14 15  1  0
 15 16  1  0
 16 17  1  0
 16 18  2  0
M  END
