diamond-x0371_0_A-mac-x0433
     RDKit          3D

 20 22  0  0  0  0  0  0  0  0999 V2000
   -7.7070   14.2690    2.7730 N   0  0  0  0  0  0  0  0  0  0  0  0
   -8.5120   15.2190    3.4080 C   0  0  0  0  0  0  0  0  0  0  0  0
   -9.2350   15.9400    2.7070 O   0  0  0  0  0  0  0  0  0  0  0  0
   -7.6710   13.7550    1.3780 C   0  0  0  0  0  0  0  0  0  0  0  0
   -6.6960   14.5990    0.4780 C   0  0  1  0  0  0  0  0  0  0  0  0
   -8.4950   15.3460    4.8620 C   0  0  0  0  0  0  0  0  0  0  0  0
   -5.2780   14.6450    0.9520 N   0  0  0  0  0  0  0  0  0  0  0  0
   -6.5430   14.2840   -0.9880 N   0  0  0  0  0  0  0  0  0  0  0  0
   -8.0020   14.3480    5.6550 O   0  0  0  0  0  0  0  0  0  0  0  0
   -8.9230   16.3810    5.6820 C   0  0  0  0  0  0  0  0  0  0  0  0
   -4.8490   15.3600    2.1300 C   0  0  0  0  0  0  0  0  0  0  0  0
   -7.6530   14.7270   -1.8440 N   0  0  0  0  0  0  0  0  0  0  0  0
   -5.4990   15.2960   -1.3080 C   0  0  1  0  0  0  0  0  0  0  0  0
   -4.6750   15.4810   -0.0380 C   0  0  2  0  0  0  0  0  0  0  0  0
   -8.6730   15.9850    7.0200 C   0  0  0  0  0  0  0  0  0  0  0  0
   -8.1070   14.7370    6.9460 C   0  0  0  0  0  0  0  0  0  0  0  0
   -3.2270   15.1530   -0.0820 C   0  0  0  0  0  0  0  0  0  0  0  0
   -4.6850   14.9850   -2.5190 C   0  0  0  0  0  0  0  0  0  0  0  0
   -2.6260   14.8300   -1.2170 C   0  0  0  0  0  0  0  0  0  0  0  0
   -3.3590   14.7810   -2.4580 C   0  0  0  0  0  0  0  0  0  0  0  0
  1  2  1  0
  2  3  2  0
  1  4  1  0
  5  4  1  1
  2  6  1  0
  5  7  1  0
  5  8  1  0
  6  9  1  0
  6 10  2  0
  7 11  1  0
  8 12  1  0
  8 13  1  0
  7 14  1  0
 13 14  1  0
 10 15  1  0
  9 16  1  0
 15 16  2  0
 14 17  1  6
 13 18  1  6
 17 19  2  0
 18 20  2  0
 19 20  1  0
M  END
