diamond-x0685_0_A-diamond-x0685_1_A
     RDKit          3D

 26 27  0  0  0  0  0  0  0  0999 V2000
   -5.9940   15.1600    2.6320 N   0  0  0  0  0  0  0  0  0  0  0  0
   -7.3780   14.7190    2.8320 C   0  0  0  0  0  0  0  0  0  0  0  0
   -7.5830   13.2290    2.6050 C   0  0  0  0  0  0  0  0  0  0  0  0
   -5.3350   15.0730    1.4160 C   0  0  0  0  0  0  0  0  0  0  0  0
   -3.9500   15.1100    1.3310 C   0  0  0  0  0  0  0  0  0  0  0  0
   -6.1230   14.9650    0.3350 N   0  0  0  0  0  0  0  0  0  0  0  0
   -3.3480   15.0470    0.0800 C   0  0  0  0  0  0  0  0  0  0  0  0
   -5.5210   14.9080   -0.8690 C   0  0  0  0  0  0  0  0  0  0  0  0
   -4.1530   14.9480   -1.0480 C   0  0  0  0  0  0  0  0  0  0  0  0
   -3.5970   14.8820   -2.3520 C   0  0  0  0  0  0  0  0  0  0  0  0
   -3.1670   14.7290   -3.4600 C   0  0  0  0  0  0  0  0  0  0  0  0
   -2.6640   14.4330   -4.8060 C   0  0  0  0  0  0  0  0  0  0  0  0
   -2.4830   12.9250   -5.0680 C   0  0  0  0  0  0  0  0  0  0  0  0
   -1.0400   12.3620   -4.9930 C   0  0  2  0  0  0  0  0  0  0  0  0
   -1.0710   10.8800   -4.9120 N   0  0  0  0  0  0  0  0  0  0  0  0
   -0.1790   13.0470   -3.9240 C   0  0  0  0  0  0  0  0  0  0  0  0
    0.6380   12.0910   -2.6390 S   0  0  0  0  0  0  0  0  0  0  0  0
   -1.4030   10.2240   -6.1940 C   0  0  0  0  0  0  0  0  0  0  0  0
    2.2000   12.2470   -2.9140 O   0  0  0  0  0  0  0  0  0  0  0  0
    0.1890   10.5460   -2.6580 O   0  0  0  0  0  0  0  0  0  0  0  0
    0.2590   12.7360   -1.2280 O   0  0  0  0  0  0  0  0  0  0  0  0
   -0.6780    8.8640   -6.3220 C   0  0  0  0  0  0  0  0  0  0  0  0
   -1.0920   11.1690   -7.3850 C   0  0  0  0  0  0  0  0  0  0  0  0
    0.1040    8.7390   -7.6270 C   0  0  0  0  0  0  0  0  0  0  0  0
   -1.3380   10.5320   -8.7420 C   0  0  0  0  0  0  0  0  0  0  0  0
   -0.7670    9.1130   -8.8280 C   0  0  0  0  0  0  0  0  0  0  0  0
  1  2  1  0
  2  3  1  0
  1  4  1  0
  4  5  2  0
  4  6  1  0
  5  7  1  0
  6  8  2  0
  7  9  2  0
  8  9  1  0
  9 10  1  0
 10 11  3  0
 11 12  1  0
 12 13  1  0
 14 13  1  1
 14 15  1  0
 14 16  1  0
 16 17  1  0
 15 18  1  0
 17 19  1  0
 17 20  1  0
 17 21  1  0
 18 22  1  0
 18 23  1  0
 22 24  1  0
 23 25  1  0
 24 26  1  0
 25 26  1  0
M  END
