diamond-x0969_0_A-mac-x0179
     RDKit          3D

 28 31  0  0  0  0  0  0  0  0999 V2000
   -6.7100   14.8130    2.5390 N   0  0  0  0  0  0  0  0  0  0  0  0
   -6.6030   14.7820    1.1970 C   0  0  0  0  0  0  0  0  0  0  0  0
   -7.6060   14.6810    0.3580 N   0  0  0  0  0  0  0  0  0  0  0  0
   -5.4070   14.8640    0.4870 N   0  0  0  0  0  0  0  0  0  0  0  0
   -7.1060   14.6940   -0.9180 N   0  0  0  0  0  0  0  0  0  0  0  0
   -5.8050   14.7990   -0.8390 C   0  0  0  0  0  0  0  0  0  0  0  0
   -4.0660   14.9810    0.8760 C   0  0  0  0  0  0  0  0  0  0  0  0
   -4.8030   14.8440   -1.8330 C   0  0  0  0  0  0  0  0  0  0  0  0
   -3.1090   15.0140   -0.0750 C   0  0  0  0  0  0  0  0  0  0  0  0
   -3.5090   14.9320   -1.4930 C   0  0  0  0  0  0  0  0  0  0  0  0
   -2.4660   14.9330   -2.5830 C   0  0  0  0  0  0  0  0  0  0  0  0
   -2.6310   13.7350   -3.5350 C   0  0  0  0  0  0  0  0  0  0  0  0
   -1.7870   12.5210   -3.1470 C   0  0  0  0  0  0  0  0  0  0  0  0
   -1.8950   11.4940   -4.1730 N   0  0  0  0  0  0  0  0  0  0  0  0
   -1.1210   11.2570   -5.1740 C   0  0  0  0  0  0  0  0  0  0  0  0
    0.0160   11.9980   -5.4310 N   0  0  0  0  0  0  0  0  0  0  0  0
   -1.2020   10.2420   -6.2390 C   0  0  0  0  0  0  0  0  0  0  0  0
    0.6550   12.9120   -4.5050 C   0  0  0  0  0  0  0  0  0  0  0  0
    0.7130   11.4950   -6.4830 C   0  0  0  0  0  0  0  0  0  0  0  0
   -0.0780   10.4000   -7.0350 C   0  0  0  0  0  0  0  0  0  0  0  0
   -2.1270    9.2560   -6.5390 C   0  0  0  0  0  0  0  0  0  0  0  0
    0.9750   12.1930   -3.1940 C   0  0  0  0  0  0  0  0  0  0  0  0
    1.7890   11.8460   -6.8930 O   0  0  0  0  0  0  0  0  0  0  0  0
    0.1830    9.6120   -8.1460 C   0  0  0  0  0  0  0  0  0  0  0  0
   -1.8930    8.4400   -7.6550 C   0  0  0  0  0  0  0  0  0  0  0  0
    1.6470   12.9730   -2.3090 O   0  0  0  0  0  0  0  0  0  0  0  0
    0.6750   11.0410   -2.9220 O   0  0  0  0  0  0  0  0  0  0  0  0
   -0.7470    8.6160   -8.4530 C   0  0  0  0  0  0  0  0  0  0  0  0
  1  2  1  0
  2  3  2  0
  2  4  1  0
  3  5  1  0
  4  6  1  0
  5  6  2  0
  4  7  1  0
  6  8  1  0
  7  9  2  0
  8 10  2  0
  9 10  1  0
 10 11  1  0
 11 12  1  0
 12 13  1  0
 13 14  1  0
 14 15  2  3
 15 16  1  0
 15 17  1  0
 16 18  1  0
 16 19  1  0
 17 20  2  0
 19 20  1  0
 17 21  1  0
 18 22  1  0
 19 23  2  0
 20 24  1  0
 21 25  2  0
 22 26  1  0
 22 27  2  0
 24 28  2  0
 25 28  1  0
M  END
