diamond-x0681_0_A-diamond-x0724_0_A
     RDKit          3D

 19 21  0  0  0  0  0  0  0  0999 V2000
   -4.4950   15.4510   -2.3460 N   0  0  0  0  0  0  0  0  0  0  0  0
   -3.4290   14.8090   -1.7900 C   0  0  0  0  0  0  0  0  0  0  0  0
   -2.4040   14.6470   -2.4420 O   0  0  0  0  0  0  0  0  0  0  0  0
   -3.6160   14.3310   -0.3510 C   0  0  2  0  0  0  0  0  0  0  0  0
   -4.6770   13.2390   -0.2870 C   0  0  0  0  0  0  0  0  0  0  0  0
   -3.9140   15.5420    0.5570 C   0  0  0  0  0  0  0  0  0  0  0  0
   -5.7950   13.3150    0.5110 N   0  0  0  0  0  0  0  0  0  0  0  0
   -4.6960   15.1070    1.7860 C   0  0  0  0  0  0  0  0  0  0  0  0
   -4.6940   12.1080   -0.9610 N   0  0  0  0  0  0  0  0  0  0  0  0
   -6.0260   14.4840    1.3200 C   0  0  1  0  0  0  0  0  0  0  0  0
   -6.5340   12.1980    0.3440 C   0  0  0  0  0  0  0  0  0  0  0  0
   -5.8420   11.4610   -0.5770 C   0  0  0  0  0  0  0  0  0  0  0  0
   -6.4620   15.1930    0.1010 N   0  0  0  0  0  0  0  0  0  0  0  0
   -7.3490   14.7280    2.0920 C   0  0  0  0  0  0  0  0  0  0  0  0
   -7.5860   14.8370    3.5650 C   0  0  0  0  0  0  0  0  0  0  0  0
   -7.6360   14.7680   -0.1060 N   0  0  0  0  0  0  0  0  0  0  0  0
   -8.2410   14.8620    1.1050 C   0  0  0  0  0  0  0  0  0  0  0  0
   -8.2450   13.6700    4.1500 N   0  0  0  0  0  0  0  0  0  0  0  0
   -8.5480   13.9110    5.5510 C   0  0  0  0  0  0  0  0  0  0  0  0
  1  2  1  0
  2  3  2  0
  4  2  1  6
  4  5  1  0
  4  6  1  0
  5  7  1  0
  6  8  1  0
  5  9  2  0
  7 10  1  0
 10  8  1  1
  7 11  1  0
  9 12  1  0
 11 12  2  0
 10 13  1  0
 10 14  1  0
 14 15  1  0
 13 16  2  0
 14 17  2  0
 16 17  1  0
 15 18  1  0
 18 19  1  0
M  END
