diamond-x0371_0_A-diamond-x0855_0_A
     RDKit          3D

 31 34  0  0  0  0  0  0  0  0999 V2000
   -8.1760   14.5950    2.8760 N   0  0  0  0  0  0  0  0  0  0  0  0
   -8.8450   15.5730    3.5750 C   0  0  0  0  0  0  0  0  0  0  0  0
   -9.5440   16.4080    3.0040 O   0  0  0  0  0  0  0  0  0  0  0  0
   -8.3870   14.4360    1.4580 C   0  0  0  0  0  0  0  0  0  0  0  0
   -7.0850   14.6090    0.7580 C   0  0  0  0  0  0  0  0  0  0  0  0
   -8.6650   15.5290    5.0040 C   0  0  0  0  0  0  0  0  0  0  0  0
   -5.8870   14.4310    1.4040 N   0  0  0  0  0  0  0  0  0  0  0  0
   -6.8870   14.9380   -0.5080 N   0  0  0  0  0  0  0  0  0  0  0  0
   -8.0510   14.4430    5.5670 O   0  0  0  0  0  0  0  0  0  0  0  0
   -9.0170   16.4220    5.9950 C   0  0  0  0  0  0  0  0  0  0  0  0
   -5.5210   14.9610   -0.6700 C   0  0  0  0  0  0  0  0  0  0  0  0
   -4.8830   14.6420    0.5170 C   0  0  0  0  0  0  0  0  0  0  0  0
   -8.5930   15.8530    7.2200 C   0  0  0  0  0  0  0  0  0  0  0  0
   -8.0090   14.6500    6.9040 C   0  0  0  0  0  0  0  0  0  0  0  0
   -3.5090   14.5700    0.6760 C   0  0  0  0  0  0  0  0  0  0  0  0
   -4.7370   15.2390   -1.7960 C   0  0  0  0  0  0  0  0  0  0  0  0
   -2.7160   14.8290   -0.4440 C   0  0  0  0  0  0  0  0  0  0  0  0
   -3.3360   15.1690   -1.6740 C   0  0  0  0  0  0  0  0  0  0  0  0
   -1.2040   14.7190   -0.2780 C   0  0  0  0  0  0  0  0  0  0  0  0
   -0.3590   14.5980   -1.5610 C   0  0  0  0  0  0  0  0  0  0  0  0
    0.8570   13.6930   -1.3660 C   0  0  0  0  0  0  0  0  0  0  0  0
    1.4150   13.2970   -2.6330 O   0  0  0  0  0  0  0  0  0  0  0  0
    0.8900   12.2030   -3.2580 C   0  0  0  0  0  0  0  0  0  0  0  0
    0.6810   11.1240   -2.7160 O   0  0  0  0  0  0  0  0  0  0  0  0
    0.6120   12.5500   -4.6960 C   0  0  0  0  0  0  0  0  0  0  0  0
   -0.4370   11.6910   -5.1890 N   0  0  0  0  0  0  0  0  0  0  0  0
   -0.3240   10.7310   -6.1510 C   0  0  0  0  0  0  0  0  0  0  0  0
   -1.6830   11.7980   -4.6750 N   0  0  0  0  0  0  0  0  0  0  0  0
   -1.5690   10.1790   -6.2530 C   0  0  0  0  0  0  0  0  0  0  0  0
   -2.3720   10.8630   -5.3340 C   0  0  0  0  0  0  0  0  0  0  0  0
   -2.1210    8.7960   -7.3700 Br  0  0  0  0  0  0  0  0  0  0  0  0
  1  2  1  0
  2  3  2  0
  1  4  1  0
  4  5  1  0
  2  6  1  0
  5  7  1  0
  5  8  2  0
  6  9  1  0
  6 10  2  0
  8 11  1  0
  7 12  1  0
 11 12  2  0
 10 13  1  0
  9 14  1  0
 13 14  2  0
 12 15  1  0
 11 16  1  0
 15 17  2  0
 16 18  2  0
 17 18  1  0
 17 19  1  0
 19 20  1  0
 20 21  1  0
 21 22  1  0
 22 23  1  0
 23 24  2  0
 23 25  1  0
 25 26  1  0
 26 27  1  0
 26 28  1  0
 27 29  2  0
 28 30  2  0
 29 30  1  0
 29 31  1  0
M  END
