diamond-x0689_0_A-diamond-x0967_0_A
     RDKit          3D

 18 20  0  0  0  0  0  0  0  0999 V2000
   -3.0100   14.2750    1.9810 N   0  0  0  0  0  0  0  0  0  0  0  0
   -3.8910   15.3430    1.7120 C   0  0  0  0  0  0  0  0  0  0  0  0
   -4.4560   15.1920    0.3720 C   0  0  0  0  0  0  0  0  0  0  0  0
   -1.9590   14.3590    1.1450 C   0  0  0  0  0  0  0  0  0  0  0  0
   -2.1050   13.9290   -0.1140 N   0  0  0  0  0  0  0  0  0  0  0  0
   -0.8790   14.8760    1.6280 N   0  0  0  0  0  0  0  0  0  0  0  0
   -1.0370   14.0640   -0.9170 C   0  0  0  0  0  0  0  0  0  0  0  0
    0.1550   15.0050    0.8050 C   0  0  0  0  0  0  0  0  0  0  0  0
   -5.7890   14.8700    0.3310 C   0  0  0  0  0  0  0  0  0  0  0  0
   -3.7400   15.3480   -0.8040 C   0  0  0  0  0  0  0  0  0  0  0  0
    0.1430   14.6090   -0.5030 C   0  0  0  0  0  0  0  0  0  0  0  0
   -6.3950   14.7160   -0.9120 C   0  0  0  0  0  0  0  0  0  0  0  0
   -6.5520   14.6960    1.5000 C   0  0  0  0  0  0  0  0  0  0  0  0
   -4.4050   15.1760   -1.9830 C   0  0  0  0  0  0  0  0  0  0  0  0
   -7.6830   14.4140   -0.9920 N   0  0  0  0  0  0  0  0  0  0  0  0
   -7.8840   14.3830    1.4110 C   0  0  0  0  0  0  0  0  0  0  0  0
   -5.7110   14.8660   -2.0480 N   0  0  0  0  0  0  0  0  0  0  0  0
   -8.3990   14.2560    0.1430 C   0  0  0  0  0  0  0  0  0  0  0  0
  1  2  1  0
  2  3  1  0
  1  4  1  0
  4  5  2  0
  4  6  1  0
  5  7  1  0
  6  8  2  0
  3  9  1  0
  3 10  2  0
  7 11  2  0
  8 11  1  0
  9 12  2  0
  9 13  1  0
 10 14  1  0
 12 15  1  0
 13 16  2  0
 12 17  1  0
 14 17  2  0
 15 18  2  0
 16 18  1  0
M  END
