diamond-x0724_0_A-mac-x0411
     RDKit          3D

 29 31  0  0  0  0  0  0  0  0999 V2000
   -8.7820   13.7340    4.2670 N   0  0  0  0  0  0  0  0  0  0  0  0
   -8.6950   13.7550    5.7220 C   0  0  0  0  0  0  0  0  0  0  0  0
   -8.3210   15.0080    3.7220 C   0  0  0  0  0  0  0  0  0  0  0  0
   -7.6710   14.8380    2.3870 C   0  0  0  0  0  0  0  0  0  0  0  0
   -6.3280   14.8580    2.0810 C   0  0  0  0  0  0  0  0  0  0  0  0
   -8.2820   14.6280    1.1290 C   0  0  0  0  0  0  0  0  0  0  0  0
   -7.4000   14.5340    0.1270 N   0  0  0  0  0  0  0  0  0  0  0  0
   -6.1870   14.6840    0.7230 N   0  0  0  0  0  0  0  0  0  0  0  0
   -4.9550   14.6690    0.0030 C   0  0  0  0  0  0  0  0  0  0  0  0
   -3.7670   14.8300    0.7330 C   0  0  0  0  0  0  0  0  0  0  0  0
   -4.8950   14.5060   -1.3950 C   0  0  0  0  0  0  0  0  0  0  0  0
   -2.5370   14.8270    0.0830 C   0  0  0  0  0  0  0  0  0  0  0  0
   -3.6460   14.5040   -2.0550 C   0  0  0  0  0  0  0  0  0  0  0  0
   -3.5420   14.3300   -3.5550 C   0  0  0  0  0  0  0  0  0  0  0  0
   -2.4800   14.6660   -1.3000 C   0  0  0  0  0  0  0  0  0  0  0  0
   -3.2370   12.8830   -4.0030 C   0  0  0  0  0  0  0  0  0  0  0  0
   -1.8340   12.5960   -4.5940 C   0  0  0  0  0  0  0  0  0  0  0  0
   -1.7240   11.2880   -5.3750 C   0  0  0  0  0  0  0  0  0  0  0  0
   -0.5810   10.8280   -6.1000 C   0  0  0  0  0  0  0  0  0  0  0  0
   -2.8720   10.4690   -5.3760 C   0  0  0  0  0  0  0  0  0  0  0  0
    0.6120   11.5340   -6.1740 O   0  0  0  0  0  0  0  0  0  0  0  0
   -2.9080    9.2510   -6.0560 C   0  0  0  0  0  0  0  0  0  0  0  0
   -0.6450    9.5950   -6.7880 C   0  0  0  0  0  0  0  0  0  0  0  0
    0.6870    8.9850   -7.7010 Cl  0  0  0  0  0  0  0  0  0  0  0  0
    0.8460   12.5200   -5.1470 C   0  0  0  0  0  0  0  0  0  0  0  0
   -1.7980    8.8180   -6.7610 C   0  0  0  0  0  0  0  0  0  0  0  0
    1.0060   11.8500   -3.7850 C   0  0  0  0  0  0  0  0  0  0  0  0
    1.4480   12.6960   -2.8220 O   0  0  0  0  0  0  0  0  0  0  0  0
    0.7690   10.6730   -3.5550 O   0  0  0  0  0  0  0  0  0  0  0  0
  1  2  1  0
  1  3  1  0
  3  4  1  0
  4  5  2  0
  4  6  1  0
  6  7  2  0
  5  8  1  0
  7  8  1  0
  8  9  1  0
  9 10  2  0
  9 11  1  0
 10 12  1  0
 11 13  2  0
 13 14  1  0
 12 15  2  0
 13 15  1  0
 14 16  1  0
 16 17  1  0
 17 18  1  0
 18 19  2  0
 18 20  1  0
 19 21  1  0
 20 22  2  0
 19 23  1  0
 23 24  1  0
 21 25  1  0
 22 26  1  0
 23 26  2  0
 25 27  1  0
 27 28  1  0
 27 29  2  0
M  END
