diamond-x0895_0_A-mac-x0439
     RDKit          3D

 22 24  0  0  0  0  0  0  0  0999 V2000
   -1.5520   14.6060    1.8780 O   0  0  0  0  0  0  0  0  0  0  0  0
   -2.5050   14.7750    1.1290 C   0  0  0  0  0  0  0  0  0  0  0  0
   -3.9560   15.0370    1.4960 C   0  0  0  0  0  0  0  0  0  0  0  0
   -2.4770   14.7540   -0.2380 N   0  0  0  0  0  0  0  0  0  0  0  0
   -4.4470   15.6130    0.2600 N   0  0  0  0  0  0  0  0  0  0  0  0
   -3.6790   15.1140   -0.7450 C   0  0  0  0  0  0  0  0  0  0  0  0
   -3.8730   14.9310   -1.9930 N   0  0  0  0  0  0  0  0  0  0  0  0
   -2.7400   14.3610   -2.7480 C   0  0  0  0  0  0  0  0  0  0  0  0
   -2.9540   14.4470   -4.2670 C   0  0  0  0  0  0  0  0  0  0  0  0
   -3.0590   15.8920   -4.7780 C   0  0  0  0  0  0  0  0  0  0  0  0
   -1.7420   16.5370   -5.1370 C   0  0  0  0  0  0  0  0  0  0  0  0
   -0.4610   15.7510   -5.0460 C   0  0  2  0  0  0  0  0  0  0  0  0
   -1.6590   17.8260   -5.5620 C   0  0  0  0  0  0  0  0  0  0  0  0
   -0.1410   14.7150   -4.0460 C   0  0  0  0  0  0  0  0  0  0  0  0
    0.7070   16.6610   -4.7720 C   0  0  0  0  0  0  0  0  0  0  0  0
   -0.3930   18.4480   -5.9010 C   0  0  0  0  0  0  0  0  0  0  0  0
    1.0210   15.0160   -3.4750 C   0  0  0  0  0  0  0  0  0  0  0  0
    1.5430   16.2130   -3.9000 N   0  0  0  0  0  0  0  0  0  0  0  0
    0.7900   17.9290   -5.5360 C   0  0  0  0  0  0  0  0  0  0  0  0
    1.6720   14.1220   -2.4870 C   0  0  0  0  0  0  0  0  0  0  0  0
    3.0140   14.2790   -2.4560 O   0  0  0  0  0  0  0  0  0  0  0  0
    1.1160   13.3060   -1.7790 O   0  0  0  0  0  0  0  0  0  0  0  0
  1  2  2  0
  2  3  1  0
  2  4  1  0
  3  5  1  0
  4  6  1  0
  5  6  1  0
  6  7  2  3
  7  8  1  0
  8  9  1  0
  9 10  1  0
 10 11  1  0
 11 12  1  0
 11 13  2  0
 12 14  1  1
 12 15  1  0
 13 16  1  0
 14 17  2  0
 15 18  2  0
 17 18  1  0
 15 19  1  0
 16 19  2  0
 17 20  1  0
 20 21  1  0
 20 22  2  0
M  END
