diamond-x0895_0_A-mac-x0303
     RDKit          3D

 15 16  0  0  0  0  0  0  0  0999 V2000
   -1.7360   14.6690    1.9270 O   0  0  0  0  0  0  0  0  0  0  0  0
   -2.6190   14.8300    1.0930 C   0  0  0  0  0  0  0  0  0  0  0  0
   -3.8390   15.7310    1.1620 C   0  0  0  0  0  0  0  0  0  0  0  0
   -2.6590   14.1730   -0.0790 N   0  0  0  0  0  0  0  0  0  0  0  0
   -4.8150   14.9680    0.2730 C   0  0  2  0  0  0  0  0  0  0  0  0
   -3.8940   14.2110   -0.6260 C   0  0  0  0  0  0  0  0  0  0  0  0
   -4.1990   13.7440   -1.7000 O   0  0  0  0  0  0  0  0  0  0  0  0
   -5.7950   15.6400   -0.6260 C   0  0  0  0  0  0  0  0  0  0  0  0
   -5.7340   14.2630    1.2030 N   0  0  0  0  0  0  0  0  0  0  0  0
   -6.9360   14.6310    0.8340 C   0  0  0  0  0  0  0  0  0  0  0  0
   -7.0220   15.3960   -0.3140 N   0  0  0  0  0  0  0  0  0  0  0  0
   -8.4160   14.2260    1.8080 S   0  0  0  0  0  0  0  0  0  0  0  0
   -8.2300   12.6700    2.4440 N   0  0  0  0  0  0  0  0  0  0  0  0
   -8.4210   15.1140    2.9560 O   0  0  0  0  0  0  0  0  0  0  0  0
   -9.5490   14.1760    0.9130 O   0  0  0  0  0  0  0  0  0  0  0  0
  1  2  2  0
  2  3  1  0
  2  4  1  0
  5  3  1  1
  4  6  1  0
  5  6  1  0
  6  7  2  0
  5  8  1  0
  5  9  1  0
  9 10  2  0
  8 11  2  0
 10 11  1  0
 10 12  1  0
 12 13  1  0
 12 14  2  0
 12 15  2  0
M  END
