diamond-x0962_0_A-mac-x0357
     RDKit          3D

 19 20  0  0  0  0  0  0  0  0999 V2000
   -3.0590   13.6580   -2.5020 N   0  0  0  0  0  0  0  0  0  0  0  0
   -2.9290   15.0020   -1.9910 C   0  0  2  0  0  0  0  0  0  0  0  0
   -1.4150   15.4000   -2.1060 C   0  0  0  0  0  0  0  0  0  0  0  0
   -3.6680   15.0790   -0.6660 C   0  0  0  0  0  0  0  0  0  0  0  0
   -0.4250   14.3290   -1.7470 N   0  0  0  0  0  0  0  0  0  0  0  0
   -3.0870   15.2850    0.5690 N   0  0  0  0  0  0  0  0  0  0  0  0
   -5.0170   14.9660   -0.3700 C   0  0  0  0  0  0  0  0  0  0  0  0
    0.0730   13.3280   -2.4410 C   0  0  0  0  0  0  0  0  0  0  0  0
   -4.0870   15.2840    1.5120 C   0  0  0  0  0  0  0  0  0  0  0  0
   -5.2640   15.0860    0.9680 N   0  0  0  0  0  0  0  0  0  0  0  0
    0.9620   12.5990   -1.7520 O   0  0  0  0  0  0  0  0  0  0  0  0
   -0.0240   12.7070   -3.7950 C   0  0  0  0  0  0  0  0  0  0  0  0
    1.0780   12.6600   -4.6910 C   0  0  0  0  0  0  0  0  0  0  0  0
   -1.2570   12.1390   -4.1620 C   0  0  0  0  0  0  0  0  0  0  0  0
    2.4220   13.2460   -4.3500 C   0  0  0  0  0  0  0  0  0  0  0  0
   -1.4140   11.5250   -5.4070 C   0  0  0  0  0  0  0  0  0  0  0  0
    0.8810   12.0310   -5.9330 C   0  0  0  0  0  0  0  0  0  0  0  0
    1.8620   11.9150   -6.8620 O   0  0  0  0  0  0  0  0  0  0  0  0
   -0.3430   11.4720   -6.2890 C   0  0  0  0  0  0  0  0  0  0  0  0
  2  1  1  1
  2  3  1  0
  2  4  1  0
  3  5  1  0
  4  6  1  0
  4  7  2  0
  5  8  2  3
  6  9  1  0
  7 10  1  0
  9 10  2  0
  8 11  1  0
  8 12  1  0
 12 13  2  0
 12 14  1  0
 13 15  1  0
 14 16  2  0
 13 17  1  0
 17 18  1  0
 16 19  1  0
 17 19  2  0
M  END
