diamond-x0969_0_A-mac-x0190
     RDKit          3D

 12 13  0  0  0  0  0  0  0  0999 V2000
   -6.7480   13.5440    2.2340 N   0  0  0  0  0  0  0  0  0  0  0  0
   -6.4420   14.6130    1.3390 C   0  0  2  0  0  0  0  0  0  0  0  0
   -7.6140   14.9510    0.4930 N   0  0  0  0  0  0  0  0  0  0  0  0
   -5.2270   14.7070    0.5510 N   0  0  0  0  0  0  0  0  0  0  0  0
   -8.8300   14.1860    0.7820 C   0  0  0  0  0  0  0  0  0  0  0  0
   -7.0660   14.7720   -0.9530 N   0  0  0  0  0  0  0  0  0  0  0  0
   -5.6970   15.2870   -0.6940 C   0  0  2  0  0  0  0  0  0  0  0  0
   -3.9360   14.9400    0.9560 C   0  0  0  0  0  0  0  0  0  0  0  0
   -9.4250   14.5680    2.0140 O   0  0  0  0  0  0  0  0  0  0  0  0
   -4.6370   15.0690   -1.7350 C   0  0  0  0  0  0  0  0  0  0  0  0
   -2.9710   15.0730    0.0410 C   0  0  0  0  0  0  0  0  0  0  0  0
   -3.3360   14.9730   -1.3700 C   0  0  0  0  0  0  0  0  0  0  0  0
  2  1  1  6
  2  3  1  0
  2  4  1  0
  3  5  1  0
  3  6  1  0
  4  7  1  0
  6  7  1  0
  4  8  1  0
  5  9  1  0
  7 10  1  6
  8 11  2  0
 10 12  2  0
 11 12  1  0
M  END
