diamond-x0104_0_A-mac-x0415
     RDKit          3D

 33 36  0  0  0  0  0  0  0  0999 V2000
   -6.8160   14.5680    2.6590 N   0  0  0  0  0  0  0  0  0  0  0  0
   -8.0360   15.0440    3.1320 C   0  0  0  0  0  0  0  0  0  0  0  0
   -8.0620   15.0950    4.5210 N   0  0  0  0  0  0  0  0  0  0  0  0
   -6.2660   14.7430    1.3740 C   0  0  0  0  0  0  0  0  0  0  0  0
   -8.9570   15.3690    2.3950 O   0  0  0  0  0  0  0  0  0  0  0  0
   -4.9120   14.9710    1.1100 C   0  0  0  0  0  0  0  0  0  0  0  0
   -7.1340   14.6920    0.2850 C   0  0  0  0  0  0  0  0  0  0  0  0
   -4.3940   15.1490   -0.1310 N   0  0  0  0  0  0  0  0  0  0  0  0
   -6.6300   14.8740   -0.9980 C   0  0  0  0  0  0  0  0  0  0  0  0
   -9.2010   15.0990    5.3080 C   0  0  0  0  0  0  0  0  0  0  0  0
   -5.2740   15.0970   -1.1530 C   0  0  0  0  0  0  0  0  0  0  0  0
   -9.2310   15.1800    6.6850 C   0  0  0  0  0  0  0  0  0  0  0  0
  -10.7690   15.0010    4.6530 S   0  0  0  0  0  0  0  0  0  0  0  0
   -4.8600   15.2730   -2.4530 O   0  0  0  0  0  0  0  0  0  0  0  0
  -11.4990   15.0620    6.1950 C   0  0  0  0  0  0  0  0  0  0  0  0
  -10.5640   15.1580    7.1990 C   0  0  0  0  0  0  0  0  0  0  0  0
   -3.5490   14.8060   -2.7450 C   0  0  0  0  0  0  0  0  0  0  0  0
   -3.6720   13.8420   -3.9210 C   0  0  0  0  0  0  0  0  0  0  0  0
   -4.4520   14.4180   -5.1080 C   0  0  0  0  0  0  0  0  0  0  0  0
   -3.6790   15.3760   -5.8470 O   0  0  0  0  0  0  0  0  0  0  0  0
   -2.3860   15.5930   -5.4180 C   0  0  0  0  0  0  0  0  0  0  0  0
   -2.0230   16.9460   -4.9830 C   0  0  0  0  0  0  0  0  0  0  0  0
   -1.4730   14.5860   -5.3960 C   0  0  0  0  0  0  0  0  0  0  0  0
   -0.1540   14.8860   -4.9290 C   0  0  0  0  0  0  0  0  0  0  0  0
   -0.7620   17.3060   -4.7740 C   0  0  0  0  0  0  0  0  0  0  0  0
    0.8260   14.1120   -4.4460 C   0  0  0  0  0  0  0  0  0  0  0  0
    0.2810   16.3060   -5.0080 C   0  0  1  0  0  0  0  0  0  0  0  0
    1.0150   12.6620   -4.2250 C   0  0  0  0  0  0  0  0  0  0  0  0
    1.8020   15.1350   -4.0580 C   0  0  0  0  0  0  0  0  0  0  0  0
    1.5100   16.3810   -4.2790 N   0  0  0  0  0  0  0  0  0  0  0  0
    0.6450   12.2520   -2.8250 C   0  0  0  0  0  0  0  0  0  0  0  0
   -0.0880   11.1270   -2.8140 O   0  0  0  0  0  0  0  0  0  0  0  0
    0.9420   12.8150   -1.7870 O   0  0  0  0  0  0  0  0  0  0  0  0
  1  2  1  0
  2  3  1  0
  1  4  1  0
  2  5  2  0
  4  6  2  0
  4  7  1  0
  6  8  1  0
  7  9  2  0
  3 10  1  0
  8 11  2  0
  9 11  1  0
 10 12  2  0
 10 13  1  0
 11 14  1  0
 13 15  1  0
 12 16  1  0
 15 16  2  0
 14 17  1  0
 17 18  1  0
 18 19  1  0
 19 20  1  0
 20 21  1  0
 21 22  1  0
 21 23  2  0
 23 24  1  0
 22 25  2  0
 24 26  2  0
 24 27  1  0
 27 25  1  1
 26 28  1  0
 26 29  1  0
 27 30  1  0
 29 30  2  0
 28 31  1  0
 31 32  1  0
 31 33  2  0
M  END
