diamond-x0371_0_A-mac-x0188
     RDKit          3D

 26 29  0  0  0  0  0  0  0  0999 V2000
   -7.6270   14.6050    2.7710 N   0  0  0  0  0  0  0  0  0  0  0  0
   -8.5460   15.4290    3.4150 C   0  0  0  0  0  0  0  0  0  0  0  0
   -9.3490   16.1010    2.7650 O   0  0  0  0  0  0  0  0  0  0  0  0
   -7.8080   14.1960    1.3860 C   0  0  0  0  0  0  0  0  0  0  0  0
   -6.5280   14.3590    0.5920 C   0  0  0  0  0  0  0  0  0  0  0  0
   -8.5000   15.4530    4.8710 C   0  0  0  0  0  0  0  0  0  0  0  0
   -5.4650   15.1190    1.0340 N   0  0  0  0  0  0  0  0  0  0  0  0
   -6.2320   13.8240   -0.6030 N   0  0  0  0  0  0  0  0  0  0  0  0
   -7.9690   14.3740    5.5250 O   0  0  0  0  0  0  0  0  0  0  0  0
   -8.9030   16.3850    5.8150 C   0  0  0  0  0  0  0  0  0  0  0  0
   -4.9490   14.2570   -0.9170 C   0  0  0  0  0  0  0  0  0  0  0  0
   -4.4860   15.0580    0.0740 C   0  0  0  0  0  0  0  0  0  0  0  0
   -8.5970   15.8410    7.0890 C   0  0  0  0  0  0  0  0  0  0  0  0
   -8.0280   14.6170    6.8560 C   0  0  0  0  0  0  0  0  0  0  0  0
   -3.2470   15.7010    0.1090 C   0  0  0  0  0  0  0  0  0  0  0  0
   -4.1070   13.9330   -2.1500 C   0  0  0  0  0  0  0  0  0  0  0  0
   -2.3940   15.5070   -0.9520 C   0  0  0  0  0  0  0  0  0  0  0  0
   -2.6240   14.5980   -2.2150 C   0  0  2  0  0  0  0  0  0  0  0  0
   -2.5850   15.3150   -3.5430 N   0  0  0  0  0  0  0  0  0  0  0  0
   -1.3040   13.6910   -2.4490 C   0  0  2  0  0  0  0  0  0  0  0  0
   -0.1000   14.0290   -1.5810 C   0  0  0  0  0  0  0  0  0  0  0  0
   -0.7890   13.9980   -3.8590 C   0  0  2  0  0  0  0  0  0  0  0  0
   -1.9690   14.3880   -4.5240 O   0  0  0  0  0  0  0  0  0  0  0  0
   -0.0210   12.8910   -4.5920 C   0  0  0  0  0  0  0  0  0  0  0  0
    0.4390   15.1210   -1.5050 O   0  0  0  0  0  0  0  0  0  0  0  0
    0.4150   12.9880   -0.8750 O   0  0  0  0  0  0  0  0  0  0  0  0
  1  2  1  0
  2  3  2  0
  1  4  1  0
  4  5  1  0
  2  6  1  0
  5  7  1  0
  5  8  2  0
  6  9  1  0
  6 10  2  0
  8 11  1  0
  7 12  1  0
 11 12  2  0
 10 13  1  0
  9 14  1  0
 13 14  2  0
 12 15  1  0
 11 16  1  0
 15 17  2  0
 18 16  1  1
 18 17  1  0
 18 19  1  0
 18 20  1  0
 20 21  1  1
 20 22  1  0
 19 23  1  0
 22 23  1  0
 22 24  1  6
 21 25  2  0
 21 26  1  0
M  END
