diamond-x0967_0_A-mac-x0436
     RDKit          3D

 28 31  0  0  0  0  0  0  0  0999 V2000
    0.5750   11.2510   -3.1550 O   0  0  0  0  0  0  0  0  0  0  0  0
    1.2540   12.4020   -2.9990 C   0  0  0  0  0  0  0  0  0  0  0  0
    1.3920   12.8750   -1.8870 O   0  0  0  0  0  0  0  0  0  0  0  0
    1.7790   12.9750   -4.2930 C   0  0  0  0  0  0  0  0  0  0  0  0
    0.6900   13.2400   -5.3330 C   0  0  0  0  0  0  0  0  0  0  0  0
   -0.1920   12.0480   -5.6510 C   0  0  0  0  0  0  0  0  0  0  0  0
   -1.5620   11.9540   -4.9700 C   0  0  0  0  0  0  0  0  0  0  0  0
    0.2220   11.1540   -6.4980 N   0  0  0  0  0  0  0  0  0  0  0  0
   -2.0140   12.9370   -4.2530 N   0  0  0  0  0  0  0  0  0  0  0  0
   -2.2990   10.7830   -5.1590 N   0  0  0  0  0  0  0  0  0  0  0  0
   -0.6100   10.0670   -6.7990 C   0  0  0  0  0  0  0  0  0  0  0  0
   -3.2430   13.1480   -3.5210 C   0  0  0  0  0  0  0  0  0  0  0  0
   -1.8500    9.8630   -6.1550 C   0  0  0  0  0  0  0  0  0  0  0  0
   -0.1660    9.1730   -7.7740 C   0  0  0  0  0  0  0  0  0  0  0  0
   -3.2190   14.6040   -3.0090 C   0  0  0  0  0  0  0  0  0  0  0  0
   -0.9430    8.0680   -8.1210 C   0  0  0  0  0  0  0  0  0  0  0  0
   -2.6250    8.7470   -6.5100 C   0  0  0  0  0  0  0  0  0  0  0  0
   -3.8540   14.7030   -1.6550 C   0  0  0  0  0  0  0  0  0  0  0  0
   -2.1680    7.8570   -7.4890 C   0  0  0  0  0  0  0  0  0  0  0  0
   -5.1920   14.5760   -1.6550 N   0  0  0  0  0  0  0  0  0  0  0  0
   -3.1090   14.8980   -0.4960 C   0  0  0  0  0  0  0  0  0  0  0  0
   -5.8580   14.6210   -0.5150 C   0  0  0  0  0  0  0  0  0  0  0  0
   -3.7920   14.9520    0.7110 C   0  0  0  0  0  0  0  0  0  0  0  0
   -7.1810   14.4790   -0.5720 N   0  0  0  0  0  0  0  0  0  0  0  0
   -5.1860   14.8050    0.7040 C   0  0  0  0  0  0  0  0  0  0  0  0
   -5.9420   14.8340    1.8810 C   0  0  0  0  0  0  0  0  0  0  0  0
   -7.8890   14.5080    0.5720 C   0  0  0  0  0  0  0  0  0  0  0  0
   -7.3200   14.6790    1.8170 C   0  0  0  0  0  0  0  0  0  0  0  0
  1  2  1  0
  2  3  2  0
  2  4  1  0
  4  5  1  0
  5  6  1  0
  6  7  1  0
  6  8  2  0
  7  9  2  3
  7 10  1  0
  8 11  1  0
  9 12  1  0
 10 13  1  0
 11 13  2  0
 11 14  1  0
 12 15  1  0
 14 16  2  0
 13 17  1  0
 15 18  1  0
 16 19  1  0
 17 19  2  0
 18 20  2  0
 18 21  1  0
 20 22  1  0
 21 23  2  0
 22 24  2  0
 22 25  1  0
 23 25  1  0
 25 26  2  0
 24 27  1  0
 26 28  1  0
 27 28  2  0
M  END
