diamond-x0631_0_A-diamond-x0253_0_A
     RDKit          3D

 23 24  0  0  0  0  0  0  0  0999 V2000
   -2.5660    9.2240   -7.6440 C   0  0  0  0  0  0  0  0  0  0  0  0
   -1.4850    8.1780   -7.4480 C   0  0  0  0  0  0  0  0  0  0  0  0
   -0.2490    8.7390   -6.7390 C   0  0  0  0  0  0  0  0  0  0  0  0
    0.6550    9.5120   -7.6250 N   0  0  0  0  0  0  0  0  0  0  0  0
    0.4350   10.8960   -7.6030 N   0  0  0  0  0  0  0  0  0  0  0  0
    0.5630    9.1110   -9.0370 N   0  0  0  0  0  0  0  0  0  0  0  0
    1.0770   11.6770   -6.6010 C   0  0  0  0  0  0  0  0  0  0  0  0
    0.3430   11.3550   -8.9510 N   0  0  0  0  0  0  0  0  0  0  0  0
    1.0710   10.3140   -9.6580 C   0  0  2  0  0  0  0  0  0  0  0  0
    0.9600   10.3890  -11.1010 N   0  0  0  0  0  0  0  0  0  0  0  0
    0.3190   11.9040   -5.4740 N   0  0  0  0  0  0  0  0  0  0  0  0
    2.2080   12.1280   -6.6360 O   0  0  0  0  0  0  0  0  0  0  0  0
    1.8590    9.4780  -11.8260 C   0  0  2  0  0  0  0  0  0  0  0  0
    0.8790   12.8040   -4.4820 C   0  0  0  0  0  0  0  0  0  0  0  0
    2.5670    8.7350  -10.8400 O   0  0  0  0  0  0  0  0  0  0  0  0
    0.7730   12.2540   -3.0710 C   0  0  0  0  0  0  0  0  0  0  0  0
    2.9240   10.1290  -12.7670 C   0  0  1  0  0  0  0  0  0  0  0  0
    1.2260   12.7760   -2.0640 O   0  0  0  0  0  0  0  0  0  0  0  0
    0.1100   11.0830   -2.9760 O   0  0  0  0  0  0  0  0  0  0  0  0
    3.1770    9.3890  -13.9590 O   0  0  0  0  0  0  0  0  0  0  0  0
    2.5800   11.5200  -13.2950 C   0  0  0  0  0  0  0  0  0  0  0  0
    3.4950   11.6490  -14.5020 C   0  0  0  0  0  0  0  0  0  0  0  0
    4.0660   10.2520  -14.6660 C   0  0  0  0  0  0  0  0  0  0  0  0
  1  2  1  0
  2  3  1  0
  3  4  1  0
  4  5  1  0
  4  6  1  0
  5  7  1  0
  5  8  1  0
  6  9  1  0
  8  9  1  0
  9 10  1  6
  7 11  1  0
  7 12  2  0
 10 13  1  0
 11 14  1  0
 13 15  1  1
 14 16  1  0
 13 17  1  0
 16 18  2  0
 16 19  1  0
 17 20  1  0
 17 21  1  6
 21 22  1  0
 20 23  1  0
 22 23  1  0
M  END
