diamond-x0282_0_A-diamond-x0805_0_A
     RDKit          3D

 31 34  0  0  0  0  0  0  0  0999 V2000
   -7.7400   13.8090    0.8440 C   0  0  0  0  0  0  0  0  0  0  0  0
   -8.4320   14.7310    0.0160 O   0  0  0  0  0  0  0  0  0  0  0  0
   -6.2270   13.8000    0.5630 C   0  0  2  0  0  0  0  0  0  0  0  0
   -5.4920   13.5510    1.8760 C   0  0  0  0  0  0  0  0  0  0  0  0
   -5.7020   15.1320   -0.0060 C   0  0  2  0  0  0  0  0  0  0  0  0
   -5.3000   15.3700   -1.4230 C   0  0  0  0  0  0  0  0  0  0  0  0
   -4.0300   13.3240    1.5900 C   0  0  0  0  0  0  0  0  0  0  0  0
   -4.4520   15.5830    0.7570 C   0  0  0  0  0  0  0  0  0  0  0  0
   -3.9020   15.5470   -1.4950 O   0  0  0  0  0  0  0  0  0  0  0  0
   -3.5810   14.4210    0.7810 N   0  0  0  0  0  0  0  0  0  0  0  0
   -2.2150   14.5450    0.5790 C   0  0  0  0  0  0  0  0  0  0  0  0
   -3.4190   14.4890   -2.1410 C   0  0  0  0  0  0  0  0  0  0  0  0
   -1.7890   14.6480   -0.6810 N   0  0  0  0  0  0  0  0  0  0  0  0
   -1.3800   14.5470    1.6270 N   0  0  0  0  0  0  0  0  0  0  0  0
   -4.0970   13.2810   -2.1810 C   0  0  0  0  0  0  0  0  0  0  0  0
   -2.2030   14.6320   -2.7900 C   0  0  0  0  0  0  0  0  0  0  0  0
   -0.4860   14.7650   -0.9180 C   0  0  0  0  0  0  0  0  0  0  0  0
   -0.0850   14.6620    1.3370 C   0  0  0  0  0  0  0  0  0  0  0  0
   -3.5650   12.2140   -2.8760 C   0  0  0  0  0  0  0  0  0  0  0  0
   -1.6470   13.5710   -3.4910 C   0  0  0  0  0  0  0  0  0  0  0  0
    0.4270   14.7800    0.0670 C   0  0  0  0  0  0  0  0  0  0  0  0
   -2.3460   12.3570   -3.5300 C   0  0  0  0  0  0  0  0  0  0  0  0
   -0.3150   13.7430   -4.1860 C   0  0  2  0  0  0  0  0  0  0  0  0
    0.8110   13.1320   -3.3790 C   0  0  1  0  0  0  0  0  0  0  0  0
    0.1040   15.1950   -4.4460 C   0  0  0  0  0  0  0  0  0  0  0  0
    0.5080   11.9700   -2.4880 C   0  0  0  0  0  0  0  0  0  0  0  0
    1.9910   12.9530   -4.2660 C   0  0  0  0  0  0  0  0  0  0  0  0
    1.6250   15.3940   -4.3900 C   0  0  0  0  0  0  0  0  0  0  0  0
    0.3460   10.7540   -3.0400 O   0  0  0  0  0  0  0  0  0  0  0  0
    0.4180   12.1620   -1.2860 O   0  0  0  0  0  0  0  0  0  0  0  0
    2.4560   14.2370   -4.6470 O   0  0  0  0  0  0  0  0  0  0  0  0
  1  2  1  0
  3  1  1  1
  3  4  1  0
  3  5  1  0
  5  6  1  6
  4  7  1  0
  5  8  1  0
  6  9  1  0
  7 10  1  0
  8 10  1  0
 10 11  1  0
  9 12  1  0
 11 13  2  0
 11 14  1  0
 12 15  2  0
 12 16  1  0
 13 17  1  0
 14 18  2  0
 15 19  1  0
 16 20  2  0
 17 21  2  0
 18 21  1  0
 19 22  2  0
 20 22  1  0
 23 20  1  1
 23 24  1  0
 23 25  1  0
 24 26  1  6
 24 27  1  0
 25 28  1  0
 26 29  1  0
 26 30  2  0
 27 31  1  0
 28 31  1  0
M  END
