diamond-x0421_0_A-mac-x0206
     RDKit          3D

 15 17  0  0  0  0  0  0  0  0999 V2000
   -3.7590   14.9460   -2.6600 N   0  0  0  0  0  0  0  0  0  0  0  0
   -2.7530   14.8740   -1.7570 C   0  0  0  0  0  0  0  0  0  0  0  0
   -1.6000   14.6300   -2.0890 O   0  0  0  0  0  0  0  0  0  0  0  0
   -4.9570   15.2940   -2.3110 C   0  0  0  0  0  0  0  0  0  0  0  0
   -3.1590   15.1200   -0.3260 C   0  0  2  0  0  0  0  0  0  0  0  0
   -5.6210   15.6890   -1.0100 C   0  0  2  0  0  0  0  0  0  0  0  0
   -1.9840   14.9610    0.5860 C   0  0  0  0  0  0  0  0  0  0  0  0
   -4.1910   14.0990    0.2070 C   0  0  2  0  0  0  0  0  0  0  0  0
   -5.5720   14.7320    0.2000 C   0  0  2  0  0  0  0  0  0  0  0  0
   -7.0880   15.7290   -1.3790 C   0  0  0  0  0  0  0  0  0  0  0  0
   -3.6300   13.7810    1.5290 N   0  0  0  0  0  0  0  0  0  0  0  0
   -7.3510   14.2500   -1.4030 C   0  0  1  0  0  0  0  0  0  0  0  0
   -2.3230   14.1970    1.5890 C   0  0  0  0  0  0  0  0  0  0  0  0
   -6.7320   13.7550   -0.1010 C   0  0  0  0  0  0  0  0  0  0  0  0
   -8.7150   13.9990   -1.4560 O   0  0  0  0  0  0  0  0  0  0  0  0
  1  2  1  0
  2  3  2  0
  1  4  2  0
  2  5  1  0
  6  4  1  6
  5  7  1  1
  5  8  1  0
  6  9  1  0
  8  9  1  0
  6 10  1  0
  8 11  1  1
 10 12  1  0
  7 13  2  0
 11 13  1  0
  9 14  1  6
 12 14  1  0
 12 15  1  1
M  END
