diamond-x0962_1_A-diamond-x0766_0_A
     RDKit          3D

 20 22  0  0  0  0  0  0  0  0999 V2000
   -3.6140   16.2080    0.7320 N   0  0  0  0  0  0  0  0  0  0  0  0
   -3.8970   14.8680    0.3080 C   0  0  1  0  0  0  0  0  0  0  0  0
   -5.3710   14.7320    0.3850 C   0  0  0  0  0  0  0  0  0  0  0  0
   -3.1970   14.7630   -0.9860 C   0  0  0  0  0  0  0  0  0  0  0  0
   -5.9510   14.5180    1.6000 N   0  0  0  0  0  0  0  0  0  0  0  0
   -6.4390   14.7640   -0.4940 C   0  0  0  0  0  0  0  0  0  0  0  0
   -1.8490   14.6540   -1.2220 C   0  0  0  0  0  0  0  0  0  0  0  0
   -4.0980   14.7880   -2.4260 S   0  0  0  0  0  0  0  0  0  0  0  0
   -7.2890   14.4310    1.4420 C   0  0  0  0  0  0  0  0  0  0  0  0
   -7.6260   14.5740    0.1810 N   0  0  0  0  0  0  0  0  0  0  0  0
   -2.6850   14.6540   -3.3650 C   0  0  0  0  0  0  0  0  0  0  0  0
   -1.5330   14.5940   -2.6030 C   0  0  0  0  0  0  0  0  0  0  0  0
   -0.1150   14.4900   -3.0730 C   0  0  1  0  0  0  0  0  0  0  0  0
    0.1860   13.2230   -3.8790 C   0  0  2  0  0  0  0  0  0  0  0  0
    0.3470   15.6420   -3.9400 C   0  0  0  0  0  0  0  0  0  0  0  0
    0.5660   12.1560   -2.8930 C   0  0  0  0  0  0  0  0  0  0  0  0
    1.3060   13.6060   -4.8610 C   0  0  0  0  0  0  0  0  0  0  0  0
    1.5630   15.1020   -4.6440 C   0  0  0  0  0  0  0  0  0  0  0  0
    1.4300   12.2860   -2.0510 O   0  0  0  0  0  0  0  0  0  0  0  0
   -0.1380   11.0130   -2.9790 O   0  0  0  0  0  0  0  0  0  0  0  0
  2  1  1  6
  2  3  1  0
  2  4  1  0
  3  5  1  0
  3  6  2  0
  4  7  2  0
  4  8  1  0
  5  9  1  0
  6 10  1  0
  9 10  2  0
  8 11  1  0
  7 12  1  0
 11 12  2  0
 13 12  1  6
 13 14  1  0
 13 15  1  0
 14 16  1  1
 14 17  1  0
 15 18  1  0
 17 18  1  0
 16 19  2  0
 16 20  1  0
M  END
