diamond-x0421_0_A-mac-x0190
     RDKit          3D

 13 14  0  0  0  0  0  0  0  0999 V2000
   -3.9530   15.1610   -2.8820 N   0  0  0  0  0  0  0  0  0  0  0  0
   -3.0420   14.9600   -1.8910 C   0  0  0  0  0  0  0  0  0  0  0  0
   -1.8430   14.8250   -2.1310 O   0  0  0  0  0  0  0  0  0  0  0  0
   -3.6130   14.9170   -0.5490 C   0  0  0  0  0  0  0  0  0  0  0  0
   -2.8910   15.0080    0.6240 C   0  0  0  0  0  0  0  0  0  0  0  0
   -4.9790   14.7680   -0.2720 N   0  0  0  0  0  0  0  0  0  0  0  0
   -3.8090   14.9130    1.6110 N   0  0  0  0  0  0  0  0  0  0  0  0
   -5.0350   14.7690    1.0450 C   0  0  0  0  0  0  0  0  0  0  0  0
   -6.2670   14.6250    1.9840 C   0  0  1  0  0  0  0  0  0  0  0  0
   -7.7620   14.5290    1.7680 C   0  0  2  0  0  0  0  0  0  0  0  0
   -6.9560   13.2800    1.8900 C   0  0  0  0  0  0  0  0  0  0  0  0
   -8.5690   14.7690    0.5680 C   0  0  0  0  0  0  0  0  0  0  0  0
   -9.8340   15.1420    1.0970 O   0  0  0  0  0  0  0  0  0  0  0  0
  1  2  1  0
  2  3  2  0
  2  4  1  0
  4  5  2  0
  4  6  1  0
  5  7  1  0
  6  8  2  0
  7  8  1  0
  9  8  1  6
  9 10  1  0
  9 11  1  0
 10 11  1  0
 10 12  1  6
 12 13  1  0
M  END
