diamond-x0438_0_A-mac-x0341
     RDKit          3D

 15 16  0  0  0  0  0  0  0  0999 V2000
   -8.0790   15.4290    3.7730 C   0  0  0  0  0  0  0  0  0  0  0  0
   -9.3150   15.2610    2.4960 S   0  0  0  0  0  0  0  0  0  0  0  0
  -10.5160   14.7570    3.1310 O   0  0  0  0  0  0  0  0  0  0  0  0
   -8.7220   13.9870    1.4010 C   0  0  0  0  0  0  0  0  0  0  0  0
   -9.3850   16.4910    1.7290 O   0  0  0  0  0  0  0  0  0  0  0  0
   -7.3710   14.3240    0.8630 C   0  0  0  0  0  0  0  0  0  0  0  0
   -7.1440   14.5330   -0.6160 N   0  0  1  0  0  0  0  0  0  0  0  0
   -6.3000   14.4300    1.6000 N   0  0  0  0  0  0  0  0  0  0  0  0
   -7.7820   15.6030   -1.1170 O   0  0  0  0  0  0  0  0  0  0  0  0
   -5.2570   14.7120    0.7030 C   0  0  0  0  0  0  0  0  0  0  0  0
   -5.7150   14.7870   -0.6040 C   0  0  0  0  0  0  0  0  0  0  0  0
   -4.8870   15.0600   -1.6710 C   0  0  0  0  0  0  0  0  0  0  0  0
   -3.9220   14.8990    0.9930 C   0  0  0  0  0  0  0  0  0  0  0  0
   -3.5400   15.2480   -1.3900 C   0  0  0  0  0  0  0  0  0  0  0  0
   -3.0610   15.1650   -0.0700 C   0  0  0  0  0  0  0  0  0  0  0  0
  2  1  1  0
  2  3  2  0
  2  4  1  0
  2  5  2  0
  4  6  1  0
  6  7  1  0
  6  8  2  0
  7  9  1  1
  8 10  1  0
  7 11  1  0
 10 11  2  0
 11 12  1  0
 10 13  1  0
 12 14  2  0
 13 15  2  0
 14 15  1  0
M  CHG  2   7   1   9  -1
M  END
