diamond-x0290_0_A-diamond-x0371_0_A
     RDKit          3D

 30 33  0  0  0  0  0  0  0  0999 V2000
   -7.5260   14.1500    1.6820 C   0  0  2  0  0  0  0  0  0  0  0  0
   -8.8870   13.8720    1.0230 C   0  0  0  0  0  0  0  0  0  0  0  0
   -6.6020   12.9040    1.8030 C   0  0  0  0  0  0  0  0  0  0  0  0
   -7.5430   14.8260    2.9820 N   0  0  0  0  0  0  0  0  0  0  0  0
   -6.5700   14.6590    0.7230 C   0  0  0  0  0  0  0  0  0  0  0  0
   -5.2950   13.1400    0.9440 C   0  0  0  0  0  0  0  0  0  0  0  0
   -8.5730   15.5400    3.5730 C   0  0  0  0  0  0  0  0  0  0  0  0
   -5.3840   15.0410    1.2250 N   0  0  0  0  0  0  0  0  0  0  0  0
   -6.6560   14.7550   -0.5800 N   0  0  0  0  0  0  0  0  0  0  0  0
   -5.3820   12.8850   -0.2560 O   0  0  0  0  0  0  0  0  0  0  0  0
   -4.1190   13.6400    1.5350 N   0  0  0  0  0  0  0  0  0  0  0  0
   -9.4300   16.1200    2.9040 O   0  0  0  0  0  0  0  0  0  0  0  0
   -8.5480   15.5500    5.0210 C   0  0  0  0  0  0  0  0  0  0  0  0
   -5.4050   15.1850   -0.9260 C   0  0  0  0  0  0  0  0  0  0  0  0
   -4.6040   15.3820    0.1910 C   0  0  0  0  0  0  0  0  0  0  0  0
   -2.8580   13.9590    0.9380 C   0  0  0  0  0  0  0  0  0  0  0  0
   -7.9950   14.4650    5.6510 O   0  0  0  0  0  0  0  0  0  0  0  0
   -8.9760   16.4500    5.9810 C   0  0  0  0  0  0  0  0  0  0  0  0
   -3.2980   15.8120    0.1600 C   0  0  0  0  0  0  0  0  0  0  0  0
   -4.8670   15.4200   -2.1820 C   0  0  0  0  0  0  0  0  0  0  0  0
   -1.8270   14.2330    1.8010 N   0  0  0  0  0  0  0  0  0  0  0  0
   -2.6540   13.9940   -0.4420 C   0  0  0  0  0  0  0  0  0  0  0  0
   -8.6620   15.8820    7.2440 C   0  0  0  0  0  0  0  0  0  0  0  0
   -8.0650   14.6760    6.9870 C   0  0  0  0  0  0  0  0  0  0  0  0
   -2.7720   16.0310   -1.1050 C   0  0  0  0  0  0  0  0  0  0  0  0
   -3.5360   15.8370   -2.2540 C   0  0  0  0  0  0  0  0  0  0  0  0
   -0.6130   14.5230    1.2760 C   0  0  0  0  0  0  0  0  0  0  0  0
   -1.3840   14.3120   -0.9590 C   0  0  0  0  0  0  0  0  0  0  0  0
   -1.1520   14.3630   -2.4420 C   0  0  0  0  0  0  0  0  0  0  0  0
   -0.3440   14.5780   -0.0720 C   0  0  0  0  0  0  0  0  0  0  0  0
  1  2  1  6
  1  3  1  0
  1  4  1  0
  1  5  1  0
  3  6  1  0
  4  7  1  0
  5  8  1  0
  5  9  2  0
  6 10  2  0
  6 11  1  0
  7 12  2  0
  7 13  1  0
  9 14  1  0
  8 15  1  0
 14 15  2  0
 11 16  1  0
 13 17  1  0
 13 18  2  0
 15 19  1  0
 14 20  1  0
 16 21  2  0
 16 22  1  0
 18 23  1  0
 17 24  1  0
 23 24  2  0
 19 25  2  0
 20 26  2  0
 25 26  1  0
 21 27  1  0
 22 28  2  0
 28 29  1  0
 27 30  2  0
 28 30  1  0
M  END
