diamond-x0864_0_A-mac-x0132
     RDKit          3D

 26 28  0  0  0  0  0  0  0  0999 V2000
    1.7110   11.6980   -6.6980 O   0  0  0  0  0  0  0  0  0  0  0  0
    0.6230   11.2580   -6.3490 C   0  0  0  0  0  0  0  0  0  0  0  0
   -0.1180   11.7530   -5.2830 N   0  0  0  0  0  0  0  0  0  0  0  0
    0.0270   10.1170   -7.0870 C   0  0  0  0  0  0  0  0  0  0  0  0
    0.5200   12.7600   -4.4360 C   0  0  0  0  0  0  0  0  0  0  0  0
   -1.3710   11.2620   -4.9560 C   0  0  0  0  0  0  0  0  0  0  0  0
   -1.1780    9.6470   -6.7330 C   0  0  0  0  0  0  0  0  0  0  0  0
    0.6530   12.2900   -2.9900 C   0  0  0  0  0  0  0  0  0  0  0  0
   -1.9740    8.2140   -7.6240 Br  0  0  0  0  0  0  0  0  0  0  0  0
   -1.9090   10.2430   -5.6400 C   0  0  0  0  0  0  0  0  0  0  0  0
    0.7010   10.9430   -2.8810 O   0  0  0  0  0  0  0  0  0  0  0  0
    0.7110   13.0830   -1.9790 N   0  0  0  0  0  0  0  0  0  0  0  0
    0.6520   14.5390   -2.0910 C   0  0  0  0  0  0  0  0  0  0  0  0
   -0.6510   15.0650   -1.4550 C   0  0  0  0  0  0  0  0  0  0  0  0
   -1.7360   15.5010   -2.4650 C   0  0  0  0  0  0  0  0  0  0  0  0
   -3.1650   15.2930   -1.9990 C   0  0  0  0  0  0  0  0  0  0  0  0
   -4.2050   15.1720   -2.9250 C   0  0  0  0  0  0  0  0  0  0  0  0
   -3.4920   15.2170   -0.6450 C   0  0  0  0  0  0  0  0  0  0  0  0
   -4.8320   15.0150   -0.2250 C   0  0  0  0  0  0  0  0  0  0  0  0
   -5.5280   14.9760   -2.4980 C   0  0  0  0  0  0  0  0  0  0  0  0
   -5.2220   14.9200    1.1020 C   0  0  0  0  0  0  0  0  0  0  0  0
   -5.8630   14.8910   -1.1580 C   0  0  0  0  0  0  0  0  0  0  0  0
   -4.2490   15.0370    2.0940 N   0  0  0  0  0  0  0  0  0  0  0  0
   -7.1410   14.6940   -0.8030 N   0  0  0  0  0  0  0  0  0  0  0  0
   -6.4930   14.7200    1.4890 N   0  0  0  0  0  0  0  0  0  0  0  0
   -7.3940   14.6150    0.5090 C   0  0  0  0  0  0  0  0  0  0  0  0
  1  2  2  0
  2  3  1  0
  2  4  1  0
  3  5  1  0
  3  6  1  0
  4  7  2  0
  5  8  1  0
  7  9  1  0
  6 10  2  0
  7 10  1  0
  8 11  1  0
  8 12  2  3
 12 13  1  0
 13 14  1  0
 14 15  1  0
 15 16  1  0
 16 17  2  0
 16 18  1  0
 18 19  2  0
 17 20  1  0
 19 21  1  0
 19 22  1  0
 20 22  2  0
 21 23  1  0
 22 24  1  0
 21 25  2  0
 24 26  2  0
 25 26  1  0
M  END
