diamond-x1012_0_A-diamond-x0626_0_A
     RDKit          3D

 25 26  0  0  0  0  0  0  0  0999 V2000
   -0.3260   18.1960   -4.6320 N   0  0  0  0  0  0  0  0  0  0  0  0
   -1.2310   17.1940   -4.6480 C   0  0  0  0  0  0  0  0  0  0  0  0
   -2.4200   17.4700   -4.6350 O   0  0  0  0  0  0  0  0  0  0  0  0
   -0.7330   15.9130   -4.6810 N   0  0  0  0  0  0  0  0  0  0  0  0
   -1.6940   14.8130   -4.6570 C   0  0  0  0  0  0  0  0  0  0  0  0
    0.7020   15.5860   -4.7350 C   0  0  0  0  0  0  0  0  0  0  0  0
   -1.3320   13.7700   -3.6110 C   0  0  0  0  0  0  0  0  0  0  0  0
    1.1090   14.4950   -3.7430 C   0  0  0  0  0  0  0  0  0  0  0  0
    0.1190   13.3150   -3.7700 C   0  0  0  0  0  0  0  0  0  0  0  0
    0.4120   12.2310   -2.7450 C   0  0  0  0  0  0  0  0  0  0  0  0
    0.3560   10.9750   -3.2090 O   0  0  0  0  0  0  0  0  0  0  0  0
    0.6830   12.4300   -1.5180 N   0  0  0  0  0  0  0  0  0  0  0  0
    0.7290   13.7780   -1.0070 C   0  0  0  0  0  0  0  0  0  0  0  0
    0.0360   13.6540    0.3280 C   0  0  0  0  0  0  0  0  0  0  0  0
   -0.3460   14.9250    0.9750 C   0  0  0  0  0  0  0  0  0  0  0  0
   -1.7180   15.1200    0.5620 C   0  0  0  0  0  0  0  0  0  0  0  0
   -2.6850   14.8830    1.4910 N   0  0  0  0  0  0  0  0  0  0  0  0
   -2.1390   15.5010   -0.6930 C   0  0  0  0  0  0  0  0  0  0  0  0
   -3.8430   15.0760    0.9180 C   0  0  0  0  0  0  0  0  0  0  0  0
   -3.8410   15.5540   -0.7230 S   0  0  0  0  0  0  0  0  0  0  0  0
   -5.0730   14.9440    1.4550 N   0  0  0  0  0  0  0  0  0  0  0  0
   -6.2160   14.6810    0.7740 C   0  0  0  0  0  0  0  0  0  0  0  0
   -6.2120   14.7670   -0.4610 O   0  0  0  0  0  0  0  0  0  0  0  0
   -7.4590   14.3030    1.5480 C   0  0  0  0  0  0  0  0  0  0  0  0
   -8.7300   14.6890    0.8130 C   0  0  0  0  0  0  0  0  0  0  0  0
  1  2  1  0
  2  3  2  0
  2  4  1  0
  4  5  1  0
  4  6  1  0
  5  7  1  0
  6  8  1  0
  7  9  1  0
  8  9  1  0
  9 10  1  0
 10 11  1  0
 10 12  2  3
 12 13  1  0
 13 14  1  0
 14 15  1  0
 15 16  1  0
 16 17  1  0
 16 18  2  0
 17 19  2  0
 18 20  1  0
 19 20  1  0
 19 21  1  0
 21 22  1  0
 22 23  2  0
 22 24  1  0
 24 25  1  0
M  END
