diamond-x0926_0_A-mac-x0271
     RDKit          3D

 13 14  0  0  0  0  0  0  0  0999 V2000
   -6.4580   13.5760   -1.1360 O   0  0  0  0  0  0  0  0  0  0  0  0
   -6.2230   14.8190   -0.5120 C   0  0  1  0  0  0  0  0  0  0  0  0
   -5.6160   14.5160    0.9290 C   0  0  1  0  0  0  0  0  0  0  0  0
   -5.3140   15.5610   -1.4160 N   0  0  0  0  0  0  0  0  0  0  0  0
   -7.5710   15.3440   -0.4870 O   0  0  0  0  0  0  0  0  0  0  0  0
   -3.9980   15.1010   -1.2610 N   0  0  0  0  0  0  0  0  0  0  0  0
   -4.1780   14.9970    1.1030 C   0  0  0  0  0  0  0  0  0  0  0  0
   -6.5820   14.8520    2.0540 C   0  0  0  0  0  0  0  0  0  0  0  0
   -8.4350   15.0120    0.5000 C   0  0  0  0  0  0  0  0  0  0  0  0
   -3.2120   15.1580   -2.3970 O   0  0  0  0  0  0  0  0  0  0  0  0
   -9.6110   14.7130    0.3240 O   0  0  0  0  0  0  0  0  0  0  0  0
   -3.4620   15.2340    0.0000 C   0  0  0  0  0  0  0  0  0  0  0  0
   -7.8820   15.0550    1.8430 C   0  0  0  0  0  0  0  0  0  0  0  0
  2  1  1  6
  2  3  1  0
  2  4  1  0
  2  5  1  0
  4  6  1  0
  3  7  1  1
  3  8  1  0
  5  9  1  0
  6 10  1  0
  9 11  2  0
  6 12  1  0
  7 12  2  0
  8 13  2  0
  9 13  1  0
M  END
