diamond-x0290_0_A-diamond-x0895_0_A
     RDKit          3D

 13 13  0  0  0  0  0  0  0  0999 V2000
   -7.7510   13.8130    0.9390 N   0  0  0  0  0  0  0  0  0  0  0  0
   -8.5950   14.9690    0.6900 C   0  0  0  0  0  0  0  0  0  0  0  0
   -6.5530   14.1610    1.7330 C   0  0  0  0  0  0  0  0  0  0  0  0
   -5.3360   14.4540    0.8500 C   0  0  0  0  0  0  0  0  0  0  0  0
   -5.4490   14.4900   -0.3810 O   0  0  0  0  0  0  0  0  0  0  0  0
   -4.1050   14.6700    1.3790 N   0  0  0  0  0  0  0  0  0  0  0  0
   -2.8320   14.6350    0.8250 C   0  0  0  0  0  0  0  0  0  0  0  0
   -1.8190   14.5680    1.7240 N   0  0  0  0  0  0  0  0  0  0  0  0
   -2.5980   14.6630   -0.5380 C   0  0  0  0  0  0  0  0  0  0  0  0
   -0.5560   14.5250    1.2490 C   0  0  0  0  0  0  0  0  0  0  0  0
   -1.2820   14.6210   -1.0130 C   0  0  0  0  0  0  0  0  0  0  0  0
   -1.0180   14.6480   -2.4870 C   0  0  0  0  0  0  0  0  0  0  0  0
   -0.2370   14.5500   -0.0930 C   0  0  0  0  0  0  0  0  0  0  0  0
  1  2  1  0
  1  3  1  0
  3  4  1  0
  4  5  2  0
  4  6  1  0
  6  7  1  0
  7  8  2  0
  7  9  1  0
  8 10  1  0
  9 11  2  0
 11 12  1  0
 10 13  2  0
 11 13  1  0
M  END
