diamond-x0895_0_A-mac-x0213
     RDKit          3D

 21 23  0  0  0  0  0  0  0  0999 V2000
   -1.6240   14.3890    2.2010 O   0  0  0  0  0  0  0  0  0  0  0  0
   -2.5440   14.5670    1.4430 C   0  0  0  0  0  0  0  0  0  0  0  0
   -3.9880   14.8530    1.7880 C   0  0  0  0  0  0  0  0  0  0  0  0
   -2.3940   14.5630    0.1210 N   0  0  0  0  0  0  0  0  0  0  0  0
   -1.0430   14.8100   -0.3300 C   0  0  0  0  0  0  0  0  0  0  0  0
   -4.3860   15.4660    0.5620 N   0  0  0  0  0  0  0  0  0  0  0  0
   -3.5480   15.0570   -0.4480 C   0  0  0  0  0  0  0  0  0  0  0  0
   -3.8530   15.1370   -1.6270 O   0  0  0  0  0  0  0  0  0  0  0  0
   -0.2000   13.5650   -0.5580 C   0  0  0  0  0  0  0  0  0  0  0  0
    0.0520   13.7760   -1.9380 N   0  0  0  0  0  0  0  0  0  0  0  0
    0.1010   13.0030   -2.9110 C   0  0  0  0  0  0  0  0  0  0  0  0
   -0.0460   11.6670   -2.7300 O   0  0  0  0  0  0  0  0  0  0  0  0
    0.2470   13.5240   -4.3100 C   0  0  0  0  0  0  0  0  0  0  0  0
   -1.1630   13.9150   -4.8010 C   0  0  0  0  0  0  0  0  0  0  0  0
    1.1400   14.7860   -4.3600 C   0  0  0  0  0  0  0  0  0  0  0  0
   -1.0930   15.4010   -4.9850 C   0  0  0  0  0  0  0  0  0  0  0  0
    0.1940   15.8850   -4.7470 C   0  0  0  0  0  0  0  0  0  0  0  0
   -2.1270   16.2560   -5.3520 C   0  0  0  0  0  0  0  0  0  0  0  0
    0.4710   17.2390   -4.8800 C   0  0  0  0  0  0  0  0  0  0  0  0
   -1.8460   17.6160   -5.4910 C   0  0  0  0  0  0  0  0  0  0  0  0
   -0.5570   18.0990   -5.2570 C   0  0  0  0  0  0  0  0  0  0  0  0
  1  2  2  0
  2  3  1  0
  2  4  1  0
  4  5  1  0
  3  6  1  0
  4  7  1  0
  6  7  1  0
  7  8  2  0
  5  9  1  0
  9 10  1  0
 10 11  2  3
 11 12  1  0
 11 13  1  0
 13 14  1  0
 13 15  1  0
 14 16  1  0
 15 17  1  0
 16 17  2  0
 16 18  1  0
 17 19  1  0
 18 20  2  0
 19 21  2  0
 20 21  1  0
M  END
