diamond-x0727_0_A-mac-x0139
     RDKit          3D

 25 27  0  0  0  0  0  0  0  0999 V2000
    0.0960   11.5620   -5.5590 N   0  0  0  0  0  0  0  0  0  0  0  0
    0.8100   12.4630   -4.6300 C   0  0  1  0  0  0  0  0  0  0  0  0
    0.1890   13.8750   -4.5770 C   0  0  0  0  0  0  0  0  0  0  0  0
    0.7210   11.1960   -6.7300 C   0  0  0  0  0  0  0  0  0  0  0  0
    1.7010   11.7730   -7.1220 O   0  0  0  0  0  0  0  0  0  0  0  0
    0.7310   11.8360   -3.2430 C   0  0  0  0  0  0  0  0  0  0  0  0
    0.1130   10.0060   -7.4760 C   0  0  0  0  0  0  0  0  0  0  0  0
    0.0420   10.8790   -2.9110 O   0  0  0  0  0  0  0  0  0  0  0  0
    1.5340   12.4440   -2.3530 O   0  0  0  0  0  0  0  0  0  0  0  0
    0.2260   14.5950   -3.1960 C   0  0  0  0  0  0  0  0  0  0  0  0
   -1.1960   10.3660   -8.1810 C   0  0  0  0  0  0  0  0  0  0  0  0
   -0.2150    8.8350   -6.5330 C   0  0  0  0  0  0  0  0  0  0  0  0
   -1.1230   14.7090   -2.5740 N   0  0  0  0  0  0  0  0  0  0  0  0
   -2.1150    9.1650   -8.0050 C   0  0  0  0  0  0  0  0  0  0  0  0
   -1.6940    8.5200   -6.6990 C   0  0  0  0  0  0  0  0  0  0  0  0
   -2.1770   15.0520   -3.5220 C   0  0  0  0  0  0  0  0  0  0  0  0
   -1.3000   14.7810   -1.1580 C   0  0  0  0  0  0  0  0  0  0  0  0
   -2.5220   14.9410   -0.5760 C   0  0  0  0  0  0  0  0  0  0  0  0
   -0.1590   14.7140   -0.3440 N   0  0  0  0  0  0  0  0  0  0  0  0
   -2.5970   15.0100    0.9070 C   0  0  0  0  0  0  0  0  0  0  0  0
   -0.3020   14.7550    0.9520 C   0  0  0  0  0  0  0  0  0  0  0  0
   -3.8890   15.0980   -0.9620 C   0  0  0  0  0  0  0  0  0  0  0  0
   -1.4770   14.8300    1.6150 N   0  0  0  0  0  0  0  0  0  0  0  0
   -3.8020   15.2430    1.3290 N   0  0  0  0  0  0  0  0  0  0  0  0
   -4.5610   15.2860    0.1790 C   0  0  0  0  0  0  0  0  0  0  0  0
  1  2  1  0
  2  3  1  1
  1  4  1  0
  4  5  2  0
  2  6  1  0
  4  7  1  0
  6  8  2  0
  6  9  1  0
  3 10  1  0
  7 11  1  0
  7 12  1  0
 10 13  1  0
 11 14  1  0
 12 15  1  0
 14 15  1  0
 13 16  1  0
 13 17  1  0
 17 18  2  0
 17 19  1  0
 18 20  1  0
 19 21  2  0
 18 22  1  0
 20 23  1  0
 21 23  1  0
 20 24  2  0
 22 25  2  0
 24 25  1  0
M  END
