diamond-x1012_0_A-diamond-x0967_0_A
     RDKit          3D

 24 26  0  0  0  0  0  0  0  0999 V2000
   -0.5060   17.9830   -5.1540 N   0  0  0  0  0  0  0  0  0  0  0  0
   -1.2860   16.9860   -4.6690 C   0  0  0  0  0  0  0  0  0  0  0  0
   -2.4970   17.0640   -4.2800 N   0  0  0  0  0  0  0  0  0  0  0  0
   -0.6220   15.7790   -4.6150 N   0  0  0  0  0  0  0  0  0  0  0  0
   -3.1110   15.8240   -3.7710 C   0  0  0  0  0  0  0  0  0  0  0  0
   -1.2520   14.5410   -5.0970 C   0  0  0  0  0  0  0  0  0  0  0  0
    0.8310   15.6790   -4.4610 C   0  0  0  0  0  0  0  0  0  0  0  0
   -2.5380   15.4810   -2.4030 C   0  0  0  0  0  0  0  0  0  0  0  0
   -1.0820   13.4740   -4.0300 C   0  0  0  0  0  0  0  0  0  0  0  0
    1.1260   14.6240   -3.3870 C   0  0  0  0  0  0  0  0  0  0  0  0
    0.3860   13.2890   -3.6230 C   0  0  0  0  0  0  0  0  0  0  0  0
   -3.5440   15.2980   -1.2970 C   0  0  0  0  0  0  0  0  0  0  0  0
    0.4580   12.3730   -2.4130 C   0  0  0  0  0  0  0  0  0  0  0  0
   -4.8450   15.0140   -1.5940 N   0  0  0  0  0  0  0  0  0  0  0  0
   -3.0880   15.4290    0.0010 C   0  0  0  0  0  0  0  0  0  0  0  0
    0.3440   11.0680   -2.7510 O   0  0  0  0  0  0  0  0  0  0  0  0
    0.5890   12.7240   -1.2530 O   0  0  0  0  0  0  0  0  0  0  0  0
   -5.7190   14.8580   -0.5980 C   0  0  0  0  0  0  0  0  0  0  0  0
   -3.9840   15.2680    1.0340 C   0  0  0  0  0  0  0  0  0  0  0  0
   -6.9900   14.5840   -0.9060 N   0  0  0  0  0  0  0  0  0  0  0  0
   -5.3200   14.9800    0.7440 C   0  0  0  0  0  0  0  0  0  0  0  0
   -6.2760   14.8090    1.7520 C   0  0  0  0  0  0  0  0  0  0  0  0
   -7.8910   14.4230    0.0880 C   0  0  0  0  0  0  0  0  0  0  0  0
   -7.5850   14.5250    1.4260 C   0  0  0  0  0  0  0  0  0  0  0  0
  1  2  1  0
  2  3  2  3
  2  4  1  0
  3  5  1  0
  4  6  1  0
  4  7  1  0
  5  8  1  0
  6  9  1  0
  7 10  1  0
  9 11  1  0
 10 11  1  0
  8 12  1  0
 11 13  1  0
 12 14  2  0
 12 15  1  0
 13 16  1  0
 13 17  2  0
 14 18  1  0
 15 19  2  0
 18 20  2  0
 18 21  1  0
 19 21  1  0
 21 22  2  0
 20 23  1  0
 22 24  1  0
 23 24  2  0
M  END
