diamond-x0591_0_A-mac-x0347
     RDKit          3D

 29 31  0  0  0  0  0  0  0  0999 V2000
   -7.8830   14.8810    0.0420 N   0  0  0  0  0  0  0  0  0  0  0  0
   -8.2410   14.8050    1.4580 C   0  0  0  0  0  0  0  0  0  0  0  0
   -6.7640   14.0270   -0.3300 C   0  0  1  0  0  0  0  0  0  0  0  0
   -7.0990   12.6930   -0.0080 O   0  0  0  0  0  0  0  0  0  0  0  0
   -6.2200   14.1690   -1.7730 C   0  0  0  0  0  0  0  0  0  0  0  0
   -5.4720   14.3320    0.4190 C   0  0  0  0  0  0  0  0  0  0  0  0
   -4.8430   13.9310   -1.9230 C   0  0  0  0  0  0  0  0  0  0  0  0
   -6.9380   14.5150   -2.9350 C   0  0  0  0  0  0  0  0  0  0  0  0
   -5.1850   14.4870    1.7810 C   0  0  0  0  0  0  0  0  0  0  0  0
   -4.4250   14.4710   -0.4770 C   0  0  0  0  0  0  0  0  0  0  0  0
   -4.1990   14.0390   -3.1460 C   0  0  0  0  0  0  0  0  0  0  0  0
   -6.2800   14.6150   -4.1840 C   0  0  0  0  0  0  0  0  0  0  0  0
   -3.8660   14.7710    2.1730 C   0  0  0  0  0  0  0  0  0  0  0  0
   -3.1280   14.7410   -0.1480 C   0  0  0  0  0  0  0  0  0  0  0  0
   -4.9010   14.3790   -4.2710 C   0  0  0  0  0  0  0  0  0  0  0  0
   -2.2100   14.8240   -1.2950 C   0  0  0  0  0  0  0  0  0  0  0  0
   -2.8360   14.8970    1.2130 C   0  0  0  0  0  0  0  0  0  0  0  0
   -3.9890   14.4990   -5.7970 S   0  0  0  0  0  0  0  0  0  0  0  0
   -0.8420   14.5300   -1.2470 C   0  0  0  0  0  0  0  0  0  0  0  0
   -2.7110   15.2100   -2.5500 C   0  0  0  0  0  0  0  0  0  0  0  0
   -2.8570   15.6960   -5.4400 N   0  0  0  0  0  0  0  0  0  0  0  0
   -3.2550   13.2690   -5.9940 O   0  0  0  0  0  0  0  0  0  0  0  0
   -4.8290   15.0740   -6.8110 O   0  0  0  0  0  0  0  0  0  0  0  0
   -0.0720   14.6200   -2.4120 C   0  0  0  0  0  0  0  0  0  0  0  0
   -1.9820   15.3120   -3.6890 N   0  0  0  0  0  0  0  0  0  0  0  0
    1.3600   14.3100   -2.4490 C   0  0  0  0  0  0  0  0  0  0  0  0
   -0.6760   15.0100   -3.5950 C   0  0  0  0  0  0  0  0  0  0  0  0
    2.0140   14.8220   -3.5120 O   0  0  0  0  0  0  0  0  0  0  0  0
    1.8900   13.6370   -1.5930 O   0  0  0  0  0  0  0  0  0  0  0  0
  1  2  1  0
  1  3  1  0
  3  4  1  6
  3  5  1  0
  3  6  1  0
  5  7  2  0
  5  8  1  0
  6  9  2  0
  6 10  1  0
  7 11  1  0
  8 12  2  0
  9 13  1  0
 10 14  2  0
 11 15  2  0
 12 15  1  0
 14 16  1  0
 13 17  2  0
 14 17  1  0
 15 18  1  0
 16 19  2  0
 16 20  1  0
 18 21  1  0
 18 22  2  0
 18 23  2  0
 19 24  1  0
 20 25  2  0
 24 26  1  0
 24 27  2  0
 25 27  1  0
 26 28  1  0
 26 29  2  0
M  END
