diamond-x0727_0_A-mac-x0404
     RDKit          3D

 23 25  0  0  0  0  0  0  0  0999 V2000
    0.1320   11.5810   -5.5690 N   0  0  0  0  0  0  0  0  0  0  0  0
    1.0000   12.2800   -4.6040 C   0  0  1  0  0  0  0  0  0  0  0  0
    1.0320   13.8050   -4.6930 C   0  0  0  0  0  0  0  0  0  0  0  0
    0.6940   11.1820   -6.7560 C   0  0  0  0  0  0  0  0  0  0  0  0
    1.6660   11.7450   -7.1860 O   0  0  0  0  0  0  0  0  0  0  0  0
    0.6970   11.8020   -3.1880 C   0  0  0  0  0  0  0  0  0  0  0  0
    0.0930    9.9880   -7.4970 C   0  0  0  0  0  0  0  0  0  0  0  0
    0.0820   10.7970   -2.8710 O   0  0  0  0  0  0  0  0  0  0  0  0
    1.1920   12.6230   -2.2390 O   0  0  0  0  0  0  0  0  0  0  0  0
   -1.1720   10.3140   -8.2960 C   0  0  0  0  0  0  0  0  0  0  0  0
   -0.2630    8.8140   -6.5690 C   0  0  0  0  0  0  0  0  0  0  0  0
   -0.2750   14.5130   -4.9030 C   0  0  0  0  0  0  0  0  0  0  0  0
   -2.3030    9.5340   -7.6370 C   0  0  0  0  0  0  0  0  0  0  0  0
   -1.6360    8.3290   -6.9980 C   0  0  0  0  0  0  0  0  0  0  0  0
   -0.3190   15.9040   -5.1320 C   0  0  0  0  0  0  0  0  0  0  0  0
   -1.4570   13.7620   -4.8740 C   0  0  0  0  0  0  0  0  0  0  0  0
   -1.5750   16.5180   -5.3380 C   0  0  0  0  0  0  0  0  0  0  0  0
   -2.6840   14.3790   -5.0730 C   0  0  0  0  0  0  0  0  0  0  0  0
    0.8240   16.7160   -5.1720 C   0  0  0  0  0  0  0  0  0  0  0  0
   -2.7410   15.7470   -5.3040 C   0  0  0  0  0  0  0  0  0  0  0  0
   -1.6430   17.8890   -5.5800 C   0  0  0  0  0  0  0  0  0  0  0  0
    0.7470   18.0810   -5.4140 C   0  0  0  0  0  0  0  0  0  0  0  0
   -0.4980   18.6610   -5.6200 C   0  0  0  0  0  0  0  0  0  0  0  0
  1  2  1  0
  2  3  1  1
  1  4  1  0
  4  5  2  0
  2  6  1  0
  4  7  1  0
  6  8  2  0
  6  9  1  0
  7 10  1  0
  7 11  1  0
  3 12  1  0
 10 13  1  0
 11 14  1  0
 13 14  1  0
 12 15  1  0
 12 16  2  0
 15 17  2  0
 16 18  1  0
 15 19  1  0
 17 20  1  0
 18 20  2  0
 17 21  1  0
 19 22  2  0
 21 23  2  0
 22 23  1  0
M  END
