diamond-x0933_0_A-diamond-x0864_0_A
     RDKit          3D

 22 23  0  0  0  0  0  0  0  0999 V2000
   -6.2110   14.5490    1.8670 N   0  0  0  0  0  0  0  0  0  0  0  0
   -5.1220   15.0010    1.0660 C   0  0  1  0  0  0  0  0  0  0  0  0
   -3.9200   14.5020    1.6260 N   0  0  0  0  0  0  0  0  0  0  0  0
   -5.3890   14.5360   -0.2520 N   0  0  0  0  0  0  0  0  0  0  0  0
   -4.3250   14.9550   -1.1410 C   0  0  0  0  0  0  0  0  0  0  0  0
   -2.7400   14.7660    0.8380 C   0  0  0  0  0  0  0  0  0  0  0  0
   -2.9820   14.3970   -0.6370 C   0  0  2  0  0  0  0  0  0  0  0  0
   -1.8400   14.8190   -1.5620 C   0  0  0  0  0  0  0  0  0  0  0  0
   -1.0440   13.7720   -2.2870 C   0  0  0  0  0  0  0  0  0  0  0  0
    0.3080   13.5710   -1.6090 C   0  0  0  0  0  0  0  0  0  0  0  0
    0.4320   12.1460   -1.5890 N   0  0  0  0  0  0  0  0  0  0  0  0
    0.5750   11.6140   -2.7340 C   0  0  0  0  0  0  0  0  0  0  0  0
    0.6770   12.2540   -4.1210 C   0  0  0  0  0  0  0  0  0  0  0  0
    0.6330   10.2680   -2.6870 O   0  0  0  0  0  0  0  0  0  0  0  0
   -0.1430   11.6120   -5.1470 N   0  0  0  0  0  0  0  0  0  0  0  0
   -1.3740   11.0770   -4.8100 C   0  0  0  0  0  0  0  0  0  0  0  0
    0.4570   11.3450   -6.3700 C   0  0  0  0  0  0  0  0  0  0  0  0
    1.4250   11.9500   -6.8110 O   0  0  0  0  0  0  0  0  0  0  0  0
   -1.9360   10.1300   -5.5660 C   0  0  0  0  0  0  0  0  0  0  0  0
   -0.1160   10.2260   -7.1520 C   0  0  0  0  0  0  0  0  0  0  0  0
   -1.2610    9.6540   -6.7500 C   0  0  0  0  0  0  0  0  0  0  0  0
   -2.0330    8.2370   -7.6800 Br  0  0  0  0  0  0  0  0  0  0  0  0
  2  1  1  1
  2  3  1  0
  2  4  1  0
  4  5  1  0
  3  6  1  0
  5  7  1  0
  6  7  1  0
  7  8  1  6
  8  9  1  0
  9 10  1  0
 10 11  1  0
 11 12  2  3
 12 13  1  0
 12 14  1  0
 13 15  1  0
 15 16  1  0
 15 17  1  0
 17 18  2  0
 16 19  2  0
 17 20  1  0
 19 21  1  0
 20 21  2  0
 21 22  1  0
M  END
