diamond-x0727_0_A-diamond-x0855_0_A
     RDKit          3D

 19 20  0  0  0  0  0  0  0  0999 V2000
    0.8750   11.4620   -5.5230 N   0  0  0  0  0  0  0  0  0  0  0  0
   -0.0890   12.2720   -4.8150 C   0  0  2  0  0  0  0  0  0  0  0  0
    0.0230   13.7520   -5.2210 C   0  0  0  0  0  0  0  0  0  0  0  0
    0.8510   11.1010   -6.8480 C   0  0  0  0  0  0  0  0  0  0  0  0
    1.5050   11.7080   -7.5940 O   0  0  0  0  0  0  0  0  0  0  0  0
    0.3280   12.1350   -3.3130 C   0  0  0  0  0  0  0  0  0  0  0  0
    0.1010    9.9000   -7.4260 C   0  0  0  0  0  0  0  0  0  0  0  0
   -1.3980   11.6920   -5.0420 N   0  0  0  0  0  0  0  0  0  0  0  0
   -0.0210   11.1960   -2.5970 O   0  0  0  0  0  0  0  0  0  0  0  0
    1.1200   13.1060   -2.7980 O   0  0  0  0  0  0  0  0  0  0  0  0
   -1.2830   10.2250   -7.9740 C   0  0  0  0  0  0  0  0  0  0  0  0
   -0.0600    8.6540   -6.5460 C   0  0  0  0  0  0  0  0  0  0  0  0
   -1.6290   10.3940   -5.3690 C   0  0  0  0  0  0  0  0  0  0  0  0
   -2.5310   12.4370   -4.9490 N   0  0  0  0  0  0  0  0  0  0  0  0
   -1.9440    8.8630   -8.0880 C   0  0  0  0  0  0  0  0  0  0  0  0
   -1.4070    8.0460   -6.9090 C   0  0  0  0  0  0  0  0  0  0  0  0
   -2.9700   10.2790   -5.5060 C   0  0  0  0  0  0  0  0  0  0  0  0
   -3.4910   11.5470   -5.2400 C   0  0  0  0  0  0  0  0  0  0  0  0
   -3.9600    8.7640   -5.9560 Br  0  0  0  0  0  0  0  0  0  0  0  0
  1  2  1  0
  2  3  1  6
  1  4  1  0
  4  5  2  0
  2  6  1  0
  4  7  1  0
  2  8  1  0
  6  9  2  0
  6 10  1  0
  7 11  1  0
  7 12  1  0
  8 13  1  0
  8 14  1  0
 11 15  1  0
 12 16  1  0
 15 16  1  0
 13 17  2  0
 14 18  2  0
 17 18  1  0
 17 19  1  0
M  END
