diamond-x0628_0_A-diamond-x0724_0_A
     RDKit          3D

 28 30  0  0  0  0  0  0  0  0999 V2000
   -0.8710    9.0670   -7.3010 C   0  0  0  0  0  0  0  0  0  0  0  0
   -0.8870   10.2660   -6.4410 C   0  0  0  0  0  0  0  0  0  0  0  0
   -1.9020   10.5410   -5.5630 N   0  0  0  0  0  0  0  0  0  0  0  0
    0.0950   11.1690   -6.4580 N   0  0  0  0  0  0  0  0  0  0  0  0
   -0.3230   12.0560   -5.5360 N   0  0  0  0  0  0  0  0  0  0  0  0
   -1.5320   11.6780   -4.9950 C   0  0  0  0  0  0  0  0  0  0  0  0
   -2.2820   12.4390   -3.9380 C   0  0  0  0  0  0  0  0  0  0  0  0
    0.5020   13.2150   -5.2540 C   0  0  0  0  0  0  0  0  0  0  0  0
    1.6240   12.9200   -4.2670 C   0  0  0  0  0  0  0  0  0  0  0  0
   -2.4390   13.9500   -4.1940 C   0  0  0  0  0  0  0  0  0  0  0  0
    1.1030   12.2040   -3.0530 C   0  0  0  0  0  0  0  0  0  0  0  0
   -3.6990   14.6130   -3.6000 C   0  0  0  0  0  0  0  0  0  0  0  0
    0.6190   11.0870   -2.9930 O   0  0  0  0  0  0  0  0  0  0  0  0
    1.2210   12.9450   -1.9410 O   0  0  0  0  0  0  0  0  0  0  0  0
   -3.7510   14.6550   -2.0850 C   0  0  0  0  0  0  0  0  0  0  0  0
   -2.5620   14.7080   -1.3530 C   0  0  0  0  0  0  0  0  0  0  0  0
   -4.9770   14.6470   -1.3960 C   0  0  0  0  0  0  0  0  0  0  0  0
   -2.5840   14.7520    0.0420 C   0  0  0  0  0  0  0  0  0  0  0  0
   -5.0060   14.6930    0.0090 C   0  0  0  0  0  0  0  0  0  0  0  0
   -6.2340   14.6940    0.7300 N   0  0  0  0  0  0  0  0  0  0  0  0
   -3.7980   14.7450    0.7230 C   0  0  0  0  0  0  0  0  0  0  0  0
   -7.4290   14.5370    0.1010 N   0  0  0  0  0  0  0  0  0  0  0  0
   -6.4100   14.8560    2.0900 C   0  0  0  0  0  0  0  0  0  0  0  0
   -7.7670   14.8180    2.3470 C   0  0  0  0  0  0  0  0  0  0  0  0
   -8.3370   14.6110    1.0770 C   0  0  0  0  0  0  0  0  0  0  0  0
   -8.4660   14.9700    3.6510 C   0  0  0  0  0  0  0  0  0  0  0  0
   -8.2560   13.7550    4.4210 N   0  0  0  0  0  0  0  0  0  0  0  0
   -8.7070   13.9170    5.7960 C   0  0  0  0  0  0  0  0  0  0  0  0
  1  2  1  0
  2  3  1  0
  2  4  2  0
  4  5  1  0
  3  6  2  0
  5  6  1  0
  6  7  1  0
  5  8  1  0
  8  9  1  0
  7 10  1  0
  9 11  1  0
 10 12  1  0
 11 13  2  0
 11 14  1  0
 12 15  1  0
 15 16  2  0
 15 17  1  0
 16 18  1  0
 17 19  2  0
 19 20  1  0
 18 21  2  0
 19 21  1  0
 20 22  1  0
 20 23  1  0
 23 24  2  0
 22 25  2  0
 24 25  1  0
 24 26  1  0
 26 27  1  0
 27 28  1  0
M  END
