diamond-x0849_0_A-mac-x0116
     RDKit          3D

 17 19  0  0  0  0  0  0  0  0999 V2000
   -3.4240   15.1390   -2.9520 Br  0  0  0  0  0  0  0  0  0  0  0  0
   -3.4060   14.9300   -1.0610 C   0  0  0  0  0  0  0  0  0  0  0  0
   -2.2170   14.7990   -0.3180 C   0  0  0  0  0  0  0  0  0  0  0  0
   -4.6370   14.9010   -0.4280 C   0  0  0  0  0  0  0  0  0  0  0  0
   -2.3600   14.6540    1.0610 C   0  0  0  0  0  0  0  0  0  0  0  0
   -4.6460   14.7350    0.9370 C   0  0  0  0  0  0  0  0  0  0  0  0
   -0.9030   14.8030   -0.8400 C   0  0  0  0  0  0  0  0  0  0  0  0
   -3.5260   14.6260    1.6520 N   0  0  0  0  0  0  0  0  0  0  0  0
   -1.3370   14.5330    1.8610 N   0  0  0  0  0  0  0  0  0  0  0  0
    0.1730   14.6730    0.0180 C   0  0  0  0  0  0  0  0  0  0  0  0
   -5.9380   14.6460    1.6900 C   0  0  0  0  0  0  0  0  0  0  0  0
   -0.1170   14.5430    1.3570 C   0  0  0  0  0  0  0  0  0  0  0  0
   -6.3960   13.2440    1.7390 C   0  0  0  0  0  0  0  0  0  0  0  0
   -6.3900   12.5800    0.5480 O   0  0  0  0  0  0  0  0  0  0  0  0
   -6.8500   12.4220    2.7420 C   0  0  0  0  0  0  0  0  0  0  0  0
   -7.1410   11.1890    2.1350 C   0  0  0  0  0  0  0  0  0  0  0  0
   -6.8460   11.3320    0.8000 C   0  0  0  0  0  0  0  0  0  0  0  0
  1  2  1  0
  2  3  2  0
  2  4  1  0
  3  5  1  0
  4  6  2  0
  3  7  1  0
  5  8  2  0
  6  8  1  0
  5  9  1  0
  7 10  2  0
  6 11  1  0
  9 12  2  0
 10 12  1  0
 11 13  1  0
 13 14  1  0
 13 15  2  0
 15 16  1  0
 14 17  1  0
 16 17  2  0
M  END
