diamond-x0855_0_A-diamond-x0962_3_A
     RDKit          3D

 16 17  0  0  0  0  0  0  0  0999 V2000
    1.7310   13.0040   -2.2910 O   0  0  0  0  0  0  0  0  0  0  0  0
    0.7810   12.2120   -2.8150 C   0  0  0  0  0  0  0  0  0  0  0  0
   -0.2820   12.8740   -3.6300 C   0  0  0  0  0  0  0  0  0  0  0  0
    0.7750   10.9990   -2.6430 O   0  0  0  0  0  0  0  0  0  0  0  0
   -0.9550   11.8780   -4.4060 N   0  0  0  0  0  0  0  0  0  0  0  0
   -0.3940   11.2500   -5.4230 C   0  0  0  0  0  0  0  0  0  0  0  0
   -2.2320   11.4810   -4.1640 N   0  0  0  0  0  0  0  0  0  0  0  0
   -1.3170   10.3890   -5.8990 C   0  0  0  0  0  0  0  0  0  0  0  0
   -2.4590   10.5390   -5.1070 C   0  0  0  0  0  0  0  0  0  0  0  0
   -0.8970    9.6690   -6.9720 N   0  0  0  0  0  0  0  0  0  0  0  0
   -0.9900    8.4140   -7.5380 C   0  0  0  0  0  0  0  0  0  0  0  0
   -0.1180   10.4090   -7.7400 C   0  0  0  0  0  0  0  0  0  0  0  0
    0.2610    9.6550   -8.7350 C   0  0  0  0  0  0  0  0  0  0  0  0
   -0.2630    8.3820   -8.6560 N   0  0  0  0  0  0  0  0  0  0  0  0
    1.1030   10.1990   -9.7080 C   0  0  0  0  0  0  0  0  0  0  0  0
    1.7570   10.7660  -10.4510 N   0  0  0  0  0  0  0  0  0  0  0  0
  1  2  1  0
  2  3  1  0
  2  4  2  0
  3  5  1  0
  5  6  1  0
  5  7  1  0
  6  8  2  0
  7  9  2  0
  8  9  1  0
  8 10  1  0
 10 11  1  0
 10 12  1  0
 12 13  2  0
 11 14  2  0
 13 14  1  0
 13 15  1  0
 15 16  3  0
M  END
