diamond-x0104_0_A-mac-x0188
     RDKit          3D

 31 34  0  0  0  0  0  0  0  0999 V2000
   -7.1560   14.3320    2.9240 N   0  0  0  0  0  0  0  0  0  0  0  0
   -8.2090   15.0280    3.4490 C   0  0  0  0  0  0  0  0  0  0  0  0
   -8.0770   15.0720    4.8070 N   0  0  0  0  0  0  0  0  0  0  0  0
   -6.7280   14.6020    1.6370 C   0  0  0  0  0  0  0  0  0  0  0  0
   -9.1120   15.5230    2.7870 O   0  0  0  0  0  0  0  0  0  0  0  0
   -5.4230   14.7640    1.2510 C   0  0  0  0  0  0  0  0  0  0  0  0
   -7.7380   14.7270    0.6750 C   0  0  0  0  0  0  0  0  0  0  0  0
   -5.1060   15.0530   -0.0160 N   0  0  0  0  0  0  0  0  0  0  0  0
   -7.4250   15.0280   -0.6410 C   0  0  0  0  0  0  0  0  0  0  0  0
   -9.1770   15.0760    5.6220 C   0  0  0  0  0  0  0  0  0  0  0  0
   -6.1080   15.1850   -0.9190 C   0  0  0  0  0  0  0  0  0  0  0  0
   -9.3460   15.1890    6.9770 C   0  0  0  0  0  0  0  0  0  0  0  0
  -10.6520   14.9040    4.7840 S   0  0  0  0  0  0  0  0  0  0  0  0
   -5.7200   15.4950   -2.1730 O   0  0  0  0  0  0  0  0  0  0  0  0
  -11.5490   14.9800    6.2390 C   0  0  0  0  0  0  0  0  0  0  0  0
  -10.7280   15.1330    7.3370 C   0  0  0  0  0  0  0  0  0  0  0  0
   -4.4580   15.2070   -2.0100 C   0  0  0  0  0  0  0  0  0  0  0  0
   -3.6150   14.7910   -2.9800 C   0  0  0  0  0  0  0  0  0  0  0  0
   -4.0610   15.3540   -0.6810 C   0  0  0  0  0  0  0  0  0  0  0  0
   -2.7770   15.0540   -0.3050 C   0  0  0  0  0  0  0  0  0  0  0  0
   -2.3290   14.4960   -2.6090 C   0  0  0  0  0  0  0  0  0  0  0  0
   -1.4280   14.0520   -3.6100 C   0  0  0  0  0  0  0  0  0  0  0  0
   -1.9000   14.6190   -1.2800 C   0  0  0  0  0  0  0  0  0  0  0  0
   -1.8300   13.9080   -4.8790 N   0  0  0  0  0  0  0  0  0  0  0  0
   -0.0760   13.7180   -3.4320 C   0  0  0  0  0  0  0  0  0  0  0  0
    0.6800   13.7530   -2.2060 C   0  0  0  0  0  0  0  0  0  0  0  0
    0.3240   13.3580   -4.6980 C   0  0  0  0  0  0  0  0  0  0  0  0
   -0.7240   13.4740   -5.5590 O   0  0  0  0  0  0  0  0  0  0  0  0
    1.5860   12.8960   -5.2900 C   0  0  0  0  0  0  0  0  0  0  0  0
    1.2840   14.7240   -1.7790 O   0  0  0  0  0  0  0  0  0  0  0  0
    0.6910   12.5820   -1.5030 O   0  0  0  0  0  0  0  0  0  0  0  0
  1  2  1  0
  2  3  1  0
  1  4  1  0
  2  5  2  0
  4  6  2  0
  4  7  1  0
  6  8  1  0
  7  9  2  0
  3 10  1  0
  8 11  2  0
  9 11  1  0
 10 12  2  0
 10 13  1  0
 11 14  1  0
 13 15  1  0
 12 16  1  0
 15 16  2  0
 14 17  1  0
 17 18  2  0
 17 19  1  0
 19 20  2  0
 18 21  1  0
 21 22  1  0
 20 23  1  0
 21 23  2  0
 22 24  2  0
 22 25  1  0
 25 26  1  0
 25 27  2  0
 24 28  1  0
 27 28  1  0
 27 29  1  0
 26 30  2  0
 26 31  1  0
M  END
