diamond-x0662_0_A-mac-x0319
     RDKit          3D

 28 30  0  0  0  0  0  0  0  0999 V2000
    5.2520    9.5440  -14.9350 C   0  0  0  0  0  0  0  0  0  0  0  0
    4.2070   10.0210  -14.0530 N   0  0  0  0  0  0  0  0  0  0  0  0
    3.5380   11.2080  -14.1350 C   0  0  0  0  0  0  0  0  0  0  0  0
    3.8120    9.2530  -13.0170 N   0  0  0  0  0  0  0  0  0  0  0  0
    2.6490   11.2170  -13.0820 C   0  0  0  0  0  0  0  0  0  0  0  0
    2.8480    9.9810  -12.4020 C   0  0  0  0  0  0  0  0  0  0  0  0
    2.1650    9.4610  -11.1790 C   0  0  0  0  0  0  0  0  0  0  0  0
    2.1310    8.2550  -10.9710 O   0  0  0  0  0  0  0  0  0  0  0  0
    1.6260   10.4460  -10.3410 N   0  0  0  0  0  0  0  0  0  0  0  0
    0.8200   10.2590   -9.1790 C   0  0  0  0  0  0  0  0  0  0  0  0
   -0.1100    9.2250   -9.3000 C   0  0  0  0  0  0  0  0  0  0  0  0
    0.8690   10.9990   -7.9510 C   0  0  0  0  0  0  0  0  0  0  0  0
   -0.9710    8.9230   -8.2540 C   0  0  0  0  0  0  0  0  0  0  0  0
   -0.0130   10.7040   -6.8790 C   0  0  0  0  0  0  0  0  0  0  0  0
   -0.1450   11.3780   -5.4940 C   0  0  0  0  0  0  0  0  0  0  0  0
   -0.9240    9.6500   -7.0680 C   0  0  0  0  0  0  0  0  0  0  0  0
   -1.1640   11.0710   -4.8940 O   0  0  0  0  0  0  0  0  0  0  0  0
    0.7370   12.2750   -4.8480 N   0  0  0  0  0  0  0  0  0  0  0  0
    0.9530   11.8060   -3.5430 C   0  0  0  0  0  0  0  0  0  0  0  0
    0.2770   13.6390   -4.7930 C   0  0  0  0  0  0  0  0  0  0  0  0
    0.4890   10.5710   -3.2300 O   0  0  0  0  0  0  0  0  0  0  0  0
    1.4980   12.4100   -2.6210 O   0  0  0  0  0  0  0  0  0  0  0  0
    1.1190   14.7330   -4.4860 C   0  0  0  0  0  0  0  0  0  0  0  0
   -1.0760   13.9110   -5.0310 C   0  0  0  0  0  0  0  0  0  0  0  0
    0.5870   16.0320   -4.4270 C   0  0  0  0  0  0  0  0  0  0  0  0
   -1.5840   15.2100   -4.9710 C   0  0  0  0  0  0  0  0  0  0  0  0
    1.3920   17.0780   -4.1210 O   0  0  0  0  0  0  0  0  0  0  0  0
   -0.7530   16.2700   -4.6700 C   0  0  0  0  0  0  0  0  0  0  0  0
  1  2  1  0
  2  3  1  0
  2  4  1  0
  3  5  2  0
  4  6  2  0
  5  6  1  0
  6  7  1  0
  7  8  2  0
  7  9  1  0
  9 10  1  0
 10 11  2  0
 10 12  1  0
 11 13  1  0
 12 14  2  0
 14 15  1  0
 13 16  2  0
 14 16  1  0
 15 17  2  0
 15 18  1  0
 18 19  1  0
 18 20  1  0
 19 21  1  0
 19 22  2  0
 20 23  2  0
 20 24  1  0
 23 25  1  0
 24 26  2  0
 25 27  1  0
 25 28  2  0
 26 28  1  0
M  END
