diamond-x0282_0_A-mac-x0379
     RDKit          3D

 22 24  0  0  0  0  0  0  0  0999 V2000
   -7.5470   14.9510   -0.1500 C   0  0  0  0  0  0  0  0  0  0  0  0
   -8.5960   14.1260   -0.6160 O   0  0  0  0  0  0  0  0  0  0  0  0
   -6.2660   14.1580    0.1060 C   0  0  2  0  0  0  0  0  0  0  0  0
   -5.8510   14.0890    1.6040 C   0  0  0  0  0  0  0  0  0  0  0  0
   -4.9520   14.5730   -0.5490 C   0  0  1  0  0  0  0  0  0  0  0  0
   -4.3320   13.9050    1.9350 C   0  0  0  0  0  0  0  0  0  0  0  0
   -4.1590   13.3130   -0.3510 C   0  0  0  0  0  0  0  0  0  0  0  0
   -4.5240   14.7990   -1.9510 C   0  0  0  0  0  0  0  0  0  0  0  0
   -3.4740   13.4880    0.8500 N   0  0  0  0  0  0  0  0  0  0  0  0
   -5.1010   14.8630   -3.1180 N   0  0  0  0  0  0  0  0  0  0  0  0
   -2.8300   14.9800   -1.9430 S   0  0  0  0  0  0  0  0  0  0  0  0
   -2.1710   13.9610    0.6960 C   0  0  0  0  0  0  0  0  0  0  0  0
   -4.0930   15.0590   -4.0740 C   0  0  0  0  0  0  0  0  0  0  0  0
   -2.7920   15.1380   -3.5970 C   0  0  0  0  0  0  0  0  0  0  0  0
   -1.5470   15.3160   -4.2830 C   0  0  0  0  0  0  0  0  0  0  0  0
   -1.7520   14.1530   -0.5570 N   0  0  0  0  0  0  0  0  0  0  0  0
   -1.3780   14.1860    1.7470 N   0  0  0  0  0  0  0  0  0  0  0  0
   -1.3650   15.2790   -5.4750 O   0  0  0  0  0  0  0  0  0  0  0  0
   -0.4930   15.5330   -3.4580 O   0  0  0  0  0  0  0  0  0  0  0  0
   -0.5140   14.5820   -0.7810 C   0  0  0  0  0  0  0  0  0  0  0  0
   -0.1380   14.6000    1.4690 C   0  0  0  0  0  0  0  0  0  0  0  0
    0.3520   14.8270    0.2130 C   0  0  0  0  0  0  0  0  0  0  0  0
  1  2  1  0
  3  1  1  1
  3  4  1  0
  3  5  1  0
  4  6  1  0
  5  7  1  0
  5  8  1  6
  6  9  1  0
  7  9  1  0
  8 10  2  0
  8 11  1  0
  9 12  1  0
 10 13  1  0
 11 14  1  0
 13 14  2  0
 14 15  1  0
 12 16  2  0
 12 17  1  0
 15 18  2  0
 15 19  1  0
 16 20  1  0
 17 21  2  0
 20 22  2  0
 21 22  1  0
M  END
