diamond-x0962_3_A-diamond-x0253_0_A
     RDKit          3D

 13 13  0  0  0  0  0  0  0  0999 V2000
    0.5580   11.8180   -8.2120 N   0  0  0  0  0  0  0  0  0  0  0  0
    0.8640   11.0500   -7.0780 C   0  0  1  0  0  0  0  0  0  0  0  0
    0.2670   11.7790   -5.9380 N   0  0  0  0  0  0  0  0  0  0  0  0
    0.0600    9.8300   -7.3610 C   0  0  0  0  0  0  0  0  0  0  0  0
    1.1890   12.5210   -5.0280 C   0  0  0  0  0  0  0  0  0  0  0  0
    0.5400    8.7570   -8.1020 N   0  0  0  0  0  0  0  0  0  0  0  0
   -1.2270    9.6010   -6.9540 C   0  0  0  0  0  0  0  0  0  0  0  0
    0.9470   12.2350   -3.5320 C   0  0  0  0  0  0  0  0  0  0  0  0
   -0.4570    7.9060   -8.1300 C   0  0  0  0  0  0  0  0  0  0  0  0
   -1.5350    8.3800   -7.4530 N   0  0  0  0  0  0  0  0  0  0  0  0
    1.4480   12.8400   -2.5910 O   0  0  0  0  0  0  0  0  0  0  0  0
    0.0930   11.2210   -3.2710 O   0  0  0  0  0  0  0  0  0  0  0  0
   -2.7800    7.6900   -7.3020 C   0  0  0  0  0  0  0  0  0  0  0  0
  2  1  1  6
  2  3  1  0
  2  4  1  0
  3  5  1  0
  4  6  1  0
  4  7  2  0
  5  8  1  0
  6  9  2  0
  7 10  1  0
  9 10  1  0
  8 11  2  0
  8 12  1  0
 10 13  1  0
M  END
