diamond-x1015_0_A-mac-x0180
     RDKit          3D

 26 29  0  0  0  0  0  0  0  0999 V2000
   -1.2100   14.3540   -3.7960 C   0  0  0  0  0  0  0  0  0  0  0  0
   -1.3000   14.4580   -2.4630 C   0  0  0  0  0  0  0  0  0  0  0  0
   -0.1970   14.0960   -1.7500 N   0  0  0  0  0  0  0  0  0  0  0  0
    0.1050   13.7680   -4.1100 C   0  0  2  0  0  0  0  0  0  0  0  0
    0.2780   12.3350   -4.2300 N   0  0  0  0  0  0  0  0  0  0  0  0
    0.4960   13.6430   -2.6760 C   0  0  0  0  0  0  0  0  0  0  0  0
   -2.4660   14.7620   -1.7030 C   0  0  0  0  0  0  0  0  0  0  0  0
    0.8560   11.8790   -3.0150 C   0  0  0  0  0  0  0  0  0  0  0  0
    1.5780   12.9490   -2.5550 N   0  0  0  0  0  0  0  0  0  0  0  0
   -0.2820   11.5100   -5.2230 C   0  0  0  0  0  0  0  0  0  0  0  0
   -2.3230   14.5750   -0.3260 C   0  0  0  0  0  0  0  0  0  0  0  0
   -3.6850   15.1510   -2.2350 C   0  0  0  0  0  0  0  0  0  0  0  0
    0.7260   10.7990   -2.4540 O   0  0  0  0  0  0  0  0  0  0  0  0
    0.1680   11.6170   -6.5430 C   0  0  0  0  0  0  0  0  0  0  0  0
   -1.2820   10.5630   -4.9400 C   0  0  0  0  0  0  0  0  0  0  0  0
   -3.3910   14.7360    0.5220 C   0  0  0  0  0  0  0  0  0  0  0  0
   -4.7630   15.3110   -1.3780 C   0  0  0  0  0  0  0  0  0  0  0  0
   -0.3530   10.8080   -7.5500 C   0  0  0  0  0  0  0  0  0  0  0  0
   -1.8080    9.7470   -5.9470 C   0  0  0  0  0  0  0  0  0  0  0  0
   -4.6130   15.0840   -0.0040 C   0  0  0  0  0  0  0  0  0  0  0  0
   -5.7480   15.2100    0.7650 N   0  0  0  0  0  0  0  0  0  0  0  0
   -1.3410    9.8730   -7.2510 C   0  0  0  0  0  0  0  0  0  0  0  0
   -1.9740    8.8770   -8.4980 Cl  0  0  0  0  0  0  0  0  0  0  0  0
   -6.9970   14.8020    0.3330 C   0  0  0  0  0  0  0  0  0  0  0  0
   -7.9390   14.5270    1.4700 C   0  0  0  0  0  0  0  0  0  0  0  0
   -7.3590   14.6650   -0.8290 O   0  0  0  0  0  0  0  0  0  0  0  0
  1  2  2  0
  2  3  1  0
  4  1  1  1
  4  5  1  0
  3  6  2  0
  4  6  1  0
  2  7  1  0
  5  8  1  0
  6  9  1  0
  8  9  1  0
  5 10  1  0
  7 11  2  0
  7 12  1  0
  8 13  2  0
 10 14  2  0
 10 15  1  0
 11 16  1  0
 12 17  2  0
 14 18  1  0
 15 19  2  0
 16 20  2  0
 17 20  1  0
 20 21  1  0
 18 22  2  0
 19 22  1  0
 22 23  1  0
 21 24  1  0
 24 25  1  0
 24 26  2  0
M  END
