diamond-x0689_0_A-mac-x0123
     RDKit          3D

 20 23  0  0  0  0  0  0  0  0999 V2000
   -3.7800   14.8760    1.3240 N   0  0  0  0  0  0  0  0  0  0  0  0
   -3.8730   16.2710    1.4840 C   0  0  0  0  0  0  0  0  0  0  0  0
   -2.4500   14.6520    0.8940 C   0  0  0  0  0  0  0  0  0  0  0  0
   -4.8400   14.6210    0.5040 C   0  0  0  0  0  0  0  0  0  0  0  0
   -2.1790   14.6470   -0.4220 N   0  0  0  0  0  0  0  0  0  0  0  0
   -1.4910   14.4670    1.8080 N   0  0  0  0  0  0  0  0  0  0  0  0
   -4.6460   14.6820   -0.8790 N   0  0  0  0  0  0  0  0  0  0  0  0
   -6.0690   14.3800    0.9640 C   0  0  0  0  0  0  0  0  0  0  0  0
   -0.9120   14.4570   -0.8220 C   0  0  0  0  0  0  0  0  0  0  0  0
   -0.2380   14.2830    1.3710 C   0  0  0  0  0  0  0  0  0  0  0  0
   -5.7100   14.5050   -1.7680 C   0  0  0  0  0  0  0  0  0  0  0  0
   -7.1340   14.2110   -0.0460 C   0  0  0  0  0  0  0  0  0  0  0  0
   -6.6490   14.2600    2.3270 C   0  0  0  0  0  0  0  0  0  0  0  0
   -3.5030   14.9070   -1.5800 N   0  0  0  0  0  0  0  0  0  0  0  0
    0.1190   14.2690    0.0450 C   0  0  0  0  0  0  0  0  0  0  0  0
   -6.9870   14.2650   -1.3330 N   0  0  0  0  0  0  0  0  0  0  0  0
   -8.4540   13.9800    0.6180 C   0  0  0  0  0  0  0  0  0  0  0  0
   -8.1630   14.2590    2.1010 C   0  0  0  0  0  0  0  0  0  0  0  0
   -5.2520   14.6110   -2.9950 N   0  0  0  0  0  0  0  0  0  0  0  0
   -3.9270   14.8530   -2.8290 C   0  0  0  0  0  0  0  0  0  0  0  0
  1  2  1  0
  1  3  1  0
  1  4  1  0
  3  5  2  0
  3  6  1  0
  4  7  1  0
  4  8  2  0
  5  9  1  0
  6 10  2  0
  7 11  1  0
  8 12  1  0
  8 13  1  0
  7 14  1  0
  9 15  2  0
 10 15  1  0
 11 16  1  0
 12 16  2  0
 12 17  1  0
 13 18  1  0
 17 18  1  0
 11 19  2  0
 14 20  2  0
 19 20  1  0
M  END
