diamond-x1018_0_A-diamond-x0895_0_A
     RDKit          3D

 16 18  0  0  0  0  0  0  0  0999 V2000
   -8.6360   14.8740    1.0180 Cl  0  0  0  0  0  0  0  0  0  0  0  0
   -7.1110   14.1810    0.5980 C   0  0  0  0  0  0  0  0  0  0  0  0
   -6.4430   13.2680    1.5670 C   0  0  0  0  0  0  0  0  0  0  0  0
   -6.6380   14.5000   -0.5720 N   0  0  0  0  0  0  0  0  0  0  0  0
   -5.4300   13.9180   -0.8930 N   0  0  0  0  0  0  0  0  0  0  0  0
   -5.1680   12.9590    1.3120 C   0  0  0  0  0  0  0  0  0  0  0  0
   -4.5380   14.5250   -1.7590 N   0  0  0  0  0  0  0  0  0  0  0  0
   -4.4940   13.5280    0.1310 C   0  0  1  0  0  0  0  0  0  0  0  0
   -3.5800   12.7190   -0.6830 N   0  0  0  0  0  0  0  0  0  0  0  0
   -3.6170   13.4240   -1.9870 N   0  0  0  0  0  0  0  0  0  0  0  0
   -3.8150   15.5240   -1.0010 C   0  0  1  0  0  0  0  0  0  0  0  0
   -4.6380   15.9090    0.1450 N   0  0  0  0  0  0  0  0  0  0  0  0
   -2.6370   14.9490   -0.4030 N   0  0  0  0  0  0  0  0  0  0  0  0
   -3.7460   16.0220    1.3040 C   0  0  0  0  0  0  0  0  0  0  0  0
   -2.5600   15.1550    0.9620 C   0  0  0  0  0  0  0  0  0  0  0  0
   -1.6920   14.7160    1.7110 O   0  0  0  0  0  0  0  0  0  0  0  0
  1  2  1  0
  2  3  1  0
  2  4  2  0
  4  5  1  0
  3  6  2  0
  5  7  1  0
  5  8  1  0
  8  6  1  1
  8  9  1  0
  7 10  1  0
  9 10  1  0
 11  7  1  6
 11 12  1  0
 11 13  1  0
 12 14  1  0
 13 15  1  0
 14 15  1  0
 15 16  2  0
M  END
