diamond-x0962_2_B-diamond-x0849_0_A
     RDKit          3D

 20 22  0  0  0  0  0  0  0  0999 V2000
  -11.7520   16.1550    1.7070 N   0  0  0  0  0  0  0  0  0  0  0  0
  -10.7740   15.9400    2.2780 C   0  0  0  0  0  0  0  0  0  0  0  0
   -9.5180   15.6610    2.8540 C   0  0  0  0  0  0  0  0  0  0  0  0
   -9.1390   15.9610    4.1480 N   0  0  0  0  0  0  0  0  0  0  0  0
   -8.5330   15.0600    2.1660 C   0  0  0  0  0  0  0  0  0  0  0  0
   -7.8920   15.5320    4.2240 C   0  0  0  0  0  0  0  0  0  0  0  0
   -7.5160   14.9910    3.0210 N   0  0  0  0  0  0  0  0  0  0  0  0
   -6.2540   14.4340    2.6430 C   0  0  0  0  0  0  0  0  0  0  0  0
   -6.1160   14.4200    1.1390 C   0  0  0  0  0  0  0  0  0  0  0  0
   -4.7110   14.5720    0.6250 C   0  0  0  0  0  0  0  0  0  0  0  0
   -3.6520   14.4930    1.4550 N   0  0  0  0  0  0  0  0  0  0  0  0
   -4.5790   14.7690   -0.7190 C   0  0  0  0  0  0  0  0  0  0  0  0
   -2.4200   14.5860    0.9620 C   0  0  0  0  0  0  0  0  0  0  0  0
   -3.3130   14.8660   -1.2380 C   0  0  0  0  0  0  0  0  0  0  0  0
   -3.2150   15.1180   -3.1190 Br  0  0  0  0  0  0  0  0  0  0  0  0
   -2.1840   14.7680   -0.4080 C   0  0  0  0  0  0  0  0  0  0  0  0
   -1.4310   14.4920    1.8280 N   0  0  0  0  0  0  0  0  0  0  0  0
   -0.1700   14.5630    1.3920 C   0  0  0  0  0  0  0  0  0  0  0  0
   -0.8390   14.8370   -0.8380 C   0  0  0  0  0  0  0  0  0  0  0  0
    0.1850   14.7340    0.0740 C   0  0  0  0  0  0  0  0  0  0  0  0
  1  2  3  0
  2  3  1  0
  3  4  1  0
  3  5  2  0
  4  6  2  0
  5  7  1  0
  6  7  1  0
  7  8  1  0
  8  9  1  0
  9 10  1  0
 10 11  2  0
 10 12  1  0
 11 13  1  0
 12 14  2  0
 14 15  1  0
 13 16  2  0
 14 16  1  0
 13 17  1  0
 17 18  2  0
 16 19  1  0
 18 20  1  0
 19 20  2  0
M  END
