diamond-x0900_0_A-diamond-x0438_0_A
     RDKit          3D

 14 15  0  0  0  0  0  0  0  0999 V2000
   -6.3000   16.1170   -0.9520 O   0  0  0  0  0  0  0  0  0  0  0  0
   -5.8490   14.8940   -0.4980 C   0  0  1  0  0  0  0  0  0  0  0  0
   -4.6780   14.6040   -1.2970 N   0  0  0  0  0  0  0  0  0  0  0  0
   -5.2590   14.9290    0.9740 C   0  0  2  0  0  0  0  0  0  0  0  0
   -7.0090   14.0540   -0.3500 N   0  0  0  0  0  0  0  0  0  0  0  0
   -3.8270   14.5440    0.8040 C   0  0  0  0  0  0  0  0  0  0  0  0
   -3.5690   14.3880   -0.5020 C   0  0  0  0  0  0  0  0  0  0  0  0
   -7.3670   14.2920    1.0250 C   0  0  2  0  0  0  0  0  0  0  0  0
   -6.1110   13.9760    1.7010 N   0  0  0  0  0  0  0  0  0  0  0  0
   -8.6120   13.7450    1.7040 C   0  0  0  0  0  0  0  0  0  0  0  0
   -9.4030   15.0940    2.5680 S   0  0  0  0  0  0  0  0  0  0  0  0
   -8.2520   15.4590    3.8780 C   0  0  0  0  0  0  0  0  0  0  0  0
  -10.6180   14.5850    3.1740 O   0  0  0  0  0  0  0  0  0  0  0  0
   -9.4520   16.2550    1.6990 O   0  0  0  0  0  0  0  0  0  0  0  0
  2  1  1  6
  2  3  1  0
  2  4  1  0
  2  5  1  0
  4  6  1  6
  3  7  1  0
  6  7  2  0
  5  8  1  0
  4  9  1  0
  8  9  1  0
  8 10  1  1
 11 10  1  0
 11 12  1  0
 11 13  2  0
 11 14  2  0
M  END
