diamond-x0471_0_A-diamond-x1018_0_A
     RDKit          3D

 16 17  0  0  0  0  0  0  0  0999 V2000
   -8.8020   14.1080    2.8430 N   0  0  0  0  0  0  0  0  0  0  0  0
   -9.1600   15.1390    3.6770 C   0  0  0  0  0  0  0  0  0  0  0  0
   -9.4260   16.2530    3.2370 O   0  0  0  0  0  0  0  0  0  0  0  0
   -8.8880   14.2850    1.4120 C   0  0  0  0  0  0  0  0  0  0  0  0
   -9.2540   14.8380    5.1680 C   0  0  0  0  0  0  0  0  0  0  0  0
   -7.5160   14.5350    0.8890 C   0  0  0  0  0  0  0  0  0  0  0  0
   -9.6290   13.3850    5.4420 C   0  0  0  0  0  0  0  0  0  0  0  0
   -8.0030   15.2770    5.9180 C   0  0  0  0  0  0  0  0  0  0  0  0
   -7.2490   14.8280   -0.4270 N   0  0  0  0  0  0  0  0  0  0  0  0
   -6.4080   14.5120    1.5960 N   0  0  0  0  0  0  0  0  0  0  0  0
   -5.3950   14.7950    0.7230 C   0  0  0  0  0  0  0  0  0  0  0  0
   -5.8900   14.9990   -0.5580 C   0  0  0  0  0  0  0  0  0  0  0  0
   -5.0770   15.3010   -1.6460 C   0  0  0  0  0  0  0  0  0  0  0  0
   -4.0180   14.8920    0.9590 C   0  0  0  0  0  0  0  0  0  0  0  0
   -3.7060   15.3910   -1.3940 C   0  0  0  0  0  0  0  0  0  0  0  0
   -3.1820   15.1880   -0.1120 C   0  0  0  0  0  0  0  0  0  0  0  0
  1  2  1  0
  2  3  2  0
  1  4  1  0
  2  5  1  0
  4  6  1  0
  5  7  1  0
  5  8  1  0
  6  9  1  0
  6 10  2  0
 10 11  1  0
  9 12  1  0
 11 12  2  0
 12 13  1  0
 11 14  1  0
 13 15  2  0
 14 16  2  0
 15 16  1  0
M  END
