diamond-x0962_3_A-diamond-x0465_0_A
     RDKit          3D

 19 20  0  0  0  0  0  0  0  0999 V2000
    0.5810   11.5460   -8.5590 N   0  0  0  0  0  0  0  0  0  0  0  0
    0.4840   10.4560   -7.6030 C   0  0  2  0  0  0  0  0  0  0  0  0
   -0.1020    9.2750   -8.1690 C   0  0  0  0  0  0  0  0  0  0  0  0
   -0.5750   10.5310   -6.5100 C   0  0  0  0  0  0  0  0  0  0  0  0
    0.5540    8.1580   -8.5720 N   0  0  0  0  0  0  0  0  0  0  0  0
   -1.4250    9.0330   -8.3910 C   0  0  0  0  0  0  0  0  0  0  0  0
   -0.4130   11.2780   -5.3610 C   0  0  0  0  0  0  0  0  0  0  0  0
   -1.7830    9.7970   -6.6650 C   0  0  0  0  0  0  0  0  0  0  0  0
    0.7810   11.9220   -5.3120 O   0  0  0  0  0  0  0  0  0  0  0  0
   -0.4020    7.2950   -9.0070 C   0  0  0  0  0  0  0  0  0  0  0  0
   -1.6090    7.7990   -8.9070 N   0  0  0  0  0  0  0  0  0  0  0  0
   -2.7930    9.8170   -5.7140 C   0  0  0  0  0  0  0  0  0  0  0  0
   -1.4310   11.3080   -4.3980 C   0  0  0  0  0  0  0  0  0  0  0  0
    1.0380   12.8930   -4.3270 C   0  0  2  0  0  0  0  0  0  0  0  0
   -2.6170   10.5790   -4.5770 C   0  0  0  0  0  0  0  0  0  0  0  0
    2.4750   13.3500   -4.4800 C   0  0  0  0  0  0  0  0  0  0  0  0
    0.8810   12.2900   -2.9300 C   0  0  0  0  0  0  0  0  0  0  0  0
    1.0700   12.8760   -1.8850 O   0  0  0  0  0  0  0  0  0  0  0  0
    0.5040   10.9870   -2.8920 O   0  0  0  0  0  0  0  0  0  0  0  0
  2  1  1  6
  2  3  1  0
  2  4  1  0
  3  5  1  0
  3  6  2  0
  4  7  2  0
  4  8  1  0
  7  9  1  0
  5 10  1  0
  6 11  1  0
 10 11  2  0
  8 12  2  0
  7 13  1  0
  9 14  1  0
 12 15  1  0
 13 15  2  0
 14 16  1  6
 14 17  1  0
 17 18  2  0
 17 19  1  0
M  END
