diamond-x0628_0_A-mac-x0451
     RDKit          3D

 24 26  0  0  0  0  0  0  0  0999 V2000
   -0.9880    9.0050   -7.1460 C   0  0  0  0  0  0  0  0  0  0  0  0
   -0.9010   10.2560   -6.3600 C   0  0  0  0  0  0  0  0  0  0  0  0
   -1.8890   10.6690   -5.5070 N   0  0  0  0  0  0  0  0  0  0  0  0
    0.1550   11.0750   -6.4300 N   0  0  0  0  0  0  0  0  0  0  0  0
   -0.1960   12.0540   -5.5640 N   0  0  0  0  0  0  0  0  0  0  0  0
   -1.4320   11.8110   -5.0070 C   0  0  0  0  0  0  0  0  0  0  0  0
   -2.1490   12.6770   -4.0110 C   0  0  0  0  0  0  0  0  0  0  0  0
    0.7410   13.1510   -5.3720 C   0  0  0  0  0  0  0  0  0  0  0  0
    1.7500   12.9580   -4.2340 C   0  0  0  0  0  0  0  0  0  0  0  0
   -1.2600   13.6950   -3.2630 C   0  0  0  0  0  0  0  0  0  0  0  0
    1.1340   12.2840   -3.0290 C   0  0  0  0  0  0  0  0  0  0  0  0
   -1.9200   14.9330   -2.9510 O   0  0  0  0  0  0  0  0  0  0  0  0
    0.5810   11.1910   -3.0890 O   0  0  0  0  0  0  0  0  0  0  0  0
    1.2560   12.9900   -1.8900 O   0  0  0  0  0  0  0  0  0  0  0  0
   -2.9200   14.9400   -2.0300 C   0  0  0  0  0  0  0  0  0  0  0  0
   -4.1780   15.0790   -2.6010 C   0  0  0  0  0  0  0  0  0  0  0  0
   -2.7740   14.8210   -0.6440 C   0  0  0  0  0  0  0  0  0  0  0  0
   -3.9360   14.8400    0.1340 C   0  0  0  0  0  0  0  0  0  0  0  0
   -5.3290   15.0970   -1.8170 C   0  0  0  0  0  0  0  0  0  0  0  0
   -5.2040   14.9700   -0.4290 C   0  0  0  0  0  0  0  0  0  0  0  0
   -4.1020   14.7190    1.8370 S   0  0  0  0  0  0  0  0  0  0  0  0
   -5.8110   14.8360    1.6740 C   0  0  0  0  0  0  0  0  0  0  0  0
   -6.2580   14.9600    0.4610 N   0  0  0  0  0  0  0  0  0  0  0  0
   -6.6450   14.8100    2.7210 N   0  0  0  0  0  0  0  0  0  0  0  0
  1  2  1  0
  2  3  1  0
  2  4  2  0
  4  5  1  0
  3  6  2  0
  5  6  1  0
  6  7  1  0
  5  8  1  0
  8  9  1  0
  7 10  1  0
  9 11  1  0
 10 12  1  0
 11 13  2  0
 11 14  1  0
 12 15  1  0
 15 16  2  0
 15 17  1  0
 17 18  2  0
 16 19  1  0
 18 20  1  0
 19 20  2  0
 18 21  1  0
 21 22  1  0
 20 23  1  0
 22 23  2  0
 22 24  1  0
M  END
