diamond-x0592_0_A-diamond-x0628_0_A
     RDKit          3D

 25 26  0  0  0  0  0  0  0  0999 V2000
   -2.7200   14.8700    0.7670 N   0  0  0  0  0  0  0  0  0  0  0  0
   -3.3770   14.6460   -0.4160 C   0  0  0  0  0  0  0  0  0  0  0  0
   -2.7820   14.3390   -1.5160 N   0  0  0  0  0  0  0  0  0  0  0  0
   -4.8090   14.7580   -0.3320 C   0  0  0  0  0  0  0  0  0  0  0  0
   -1.3600   14.1560   -1.7500 C   0  0  0  0  0  0  0  0  0  0  0  0
   -5.6930   15.2410   -1.3280 C   0  0  0  0  0  0  0  0  0  0  0  0
   -5.6470   14.4210    0.7050 C   0  0  0  0  0  0  0  0  0  0  0  0
   -1.2130   13.7910   -3.2440 C   0  0  0  0  0  0  0  0  0  0  0  0
   -6.9730   15.2050   -0.9510 N   0  0  0  0  0  0  0  0  0  0  0  0
   -6.9130   14.7010    0.2900 N   0  0  0  0  0  0  0  0  0  0  0  0
   -8.1150   14.5020    1.0630 C   0  0  0  0  0  0  0  0  0  0  0  0
   -1.9780   12.5130   -3.6740 C   0  0  0  0  0  0  0  0  0  0  0  0
   -7.8590   14.8130    2.5280 C   0  0  0  0  0  0  0  0  0  0  0  0
   -1.3580   11.7350   -4.8130 C   0  0  0  0  0  0  0  0  0  0  0  0
   -7.5650   13.6590    3.2840 O   0  0  0  0  0  0  0  0  0  0  0  0
   -1.8200   10.5970   -5.3180 N   0  0  0  0  0  0  0  0  0  0  0  0
   -0.2200   12.0740   -5.5070 N   0  0  0  0  0  0  0  0  0  0  0  0
    0.6660   13.2090   -5.3650 C   0  0  0  0  0  0  0  0  0  0  0  0
   -0.9250   10.2860   -6.3140 C   0  0  0  0  0  0  0  0  0  0  0  0
    0.0640   11.1650   -6.4610 N   0  0  0  0  0  0  0  0  0  0  0  0
   -1.0430    9.0780   -7.1510 C   0  0  0  0  0  0  0  0  0  0  0  0
    1.7590   12.9850   -4.3230 C   0  0  0  0  0  0  0  0  0  0  0  0
    1.2420   12.3000   -3.0830 C   0  0  0  0  0  0  0  0  0  0  0  0
    0.5200   11.3120   -3.0460 O   0  0  0  0  0  0  0  0  0  0  0  0
    1.6640   12.9200   -1.9610 O   0  0  0  0  0  0  0  0  0  0  0  0
  1  2  1  0
  2  3  2  3
  2  4  1  0
  3  5  1  0
  4  6  1  0
  4  7  2  0
  5  8  1  0
  6  9  2  0
  7 10  1  0
  9 10  1  0
 10 11  1  0
  8 12  1  0
 11 13  1  0
 12 14  1  0
 13 15  1  0
 14 16  2  0
 14 17  1  0
 17 18  1  0
 16 19  1  0
 17 20  1  0
 19 20  2  0
 19 21  1  0
 18 22  1  0
 22 23  1  0
 23 24  2  0
 23 25  1  0
M  END
