diamond-x0282_0_A-mac-x0345
     RDKit          3D

 15 16  0  0  0  0  0  0  0  0999 V2000
   -7.7330   14.4660    0.8060 C   0  0  0  0  0  0  0  0  0  0  0  0
   -8.5390   14.6010   -0.3490 O   0  0  0  0  0  0  0  0  0  0  0  0
   -6.2370   14.3430    0.4560 C   0  0  2  0  0  0  0  0  0  0  0  0
   -5.4310   14.6680    1.7070 C   0  0  0  0  0  0  0  0  0  0  0  0
   -5.6610   15.1610   -0.7390 C   0  0  2  0  0  0  0  0  0  0  0  0
   -6.3410   14.9830   -2.0550 N   0  0  0  0  0  0  0  0  0  0  0  0
   -4.0370   14.1060    1.6000 C   0  0  0  0  0  0  0  0  0  0  0  0
   -4.2010   14.6740   -0.9260 C   0  0  0  0  0  0  0  0  0  0  0  0
   -3.4610   14.4940    0.3320 N   0  0  0  0  0  0  0  0  0  0  0  0
   -2.1190   14.5640    0.2500 C   0  0  0  0  0  0  0  0  0  0  0  0
   -1.6280   14.6000   -0.9940 N   0  0  0  0  0  0  0  0  0  0  0  0
   -1.3750   14.5950    1.3690 N   0  0  0  0  0  0  0  0  0  0  0  0
   -0.3170   14.6830   -1.1380 C   0  0  0  0  0  0  0  0  0  0  0  0
   -0.0600   14.6760    1.1600 C   0  0  0  0  0  0  0  0  0  0  0  0
    0.5270   14.7280   -0.0890 C   0  0  0  0  0  0  0  0  0  0  0  0
  1  2  1  0
  3  1  1  1
  3  4  1  0
  3  5  1  0
  5  6  1  6
  4  7  1  0
  5  8  1  0
  7  9  1  0
  8  9  1  0
  9 10  1  0
 10 11  2  0
 10 12  1  0
 11 13  1  0
 12 14  2  0
 13 15  2  0
 14 15  1  0
M  END
