diamond-x0962_1_A-mac-x0231
     RDKit          3D

 24 26  0  0  0  0  0  0  0  0999 V2000
   -3.6980   15.6300   -1.4660 N   0  0  0  0  0  0  0  0  0  0  0  0
   -4.4470   14.3960   -1.4500 C   0  0  2  0  0  0  0  0  0  0  0  0
   -4.9970   14.0300   -2.8630 C   0  0  0  0  0  0  0  0  0  0  0  0
   -5.5180   14.4870   -0.4040 C   0  0  0  0  0  0  0  0  0  0  0  0
   -4.3550   14.7950   -4.0470 C   0  0  0  0  0  0  0  0  0  0  0  0
   -5.2520   14.5780    0.9430 N   0  0  0  0  0  0  0  0  0  0  0  0
   -6.8980   14.4980   -0.4740 C   0  0  0  0  0  0  0  0  0  0  0  0
   -6.4480   14.6310    1.6080 C   0  0  0  0  0  0  0  0  0  0  0  0
   -7.4620   14.5840    0.7710 N   0  0  0  0  0  0  0  0  0  0  0  0
   -2.9060   14.5600   -4.2460 C   0  0  0  0  0  0  0  0  0  0  0  0
   -2.0390   15.6570   -4.3580 C   0  0  0  0  0  0  0  0  0  0  0  0
   -2.4110   13.2630   -4.2940 C   0  0  0  0  0  0  0  0  0  0  0  0
   -0.6690   15.4440   -4.4730 C   0  0  0  0  0  0  0  0  0  0  0  0
   -1.0510   13.0560   -4.4090 C   0  0  0  0  0  0  0  0  0  0  0  0
   -0.1880   14.1460   -4.4750 C   0  0  0  0  0  0  0  0  0  0  0  0
    0.2890   16.5610   -4.5710 C   0  0  0  0  0  0  0  0  0  0  0  0
   -0.0730   17.7250   -4.7080 O   0  0  0  0  0  0  0  0  0  0  0  0
    1.2560   13.9680   -4.5190 C   0  0  0  0  0  0  0  0  0  0  0  0
    1.6070   16.2050   -4.4980 N   0  0  0  0  0  0  0  0  0  0  0  0
    1.7660   12.5700   -4.4750 C   0  0  0  0  0  0  0  0  0  0  0  0
    2.0920   14.9410   -4.5110 N   0  0  0  0  0  0  0  0  0  0  0  0
    1.2850   11.9700   -3.1840 C   0  0  0  0  0  0  0  0  0  0  0  0
    0.5910   10.8260   -3.3460 O   0  0  0  0  0  0  0  0  0  0  0  0
    1.4570   12.4210   -2.0690 O   0  0  0  0  0  0  0  0  0  0  0  0
  2  1  1  6
  2  3  1  0
  2  4  1  0
  3  5  1  0
  4  6  1  0
  4  7  2  0
  6  8  1  0
  7  9  1  0
  8  9  2  0
  5 10  1  0
 10 11  2  0
 10 12  1  0
 11 13  1  0
 12 14  2  0
 13 15  2  0
 14 15  1  0
 13 16  1  0
 16 17  2  0
 15 18  1  0
 16 19  1  0
 18 20  1  0
 18 21  2  0
 19 21  1  0
 20 22  1  0
 22 23  1  0
 22 24  2  0
M  END
