diamond-x0844_0_A-mac-x0587
     RDKit          3D

 23 24  0  0  0  0  0  0  0  0999 V2000
   -7.8980   14.8680   -0.2730 O   0  0  0  0  0  0  0  0  0  0  0  0
   -6.7530   14.4320   -0.1870 C   0  0  0  0  0  0  0  0  0  0  0  0
   -6.1490   14.2670    1.0420 N   0  0  0  0  0  0  0  0  0  0  0  0
   -5.9220   14.0410   -1.4050 C   0  0  0  0  0  0  0  0  0  0  0  0
   -5.0260   13.5020    1.2580 C   0  0  0  0  0  0  0  0  0  0  0  0
   -4.4590   14.0280   -0.9930 C   0  0  1  0  0  0  0  0  0  0  0  0
   -4.1560   13.3460    0.2750 C   0  0  0  0  0  0  0  0  0  0  0  0
   -3.3070   14.5450   -1.8610 C   0  0  1  0  0  0  0  0  0  0  0  0
   -3.8880   15.8380   -1.3400 C   0  0  0  0  0  0  0  0  0  0  0  0
   -2.0250   14.6940   -1.0300 C   0  0  0  0  0  0  0  0  0  0  0  0
   -3.2480   14.8140   -3.4200 C   0  0  2  0  0  0  0  0  0  0  0  0
   -0.8580   14.6030   -1.3530 O   0  0  0  0  0  0  0  0  0  0  0  0
   -3.6640   15.7470    0.1790 C   0  0  0  0  0  0  0  0  0  0  0  0
   -2.4480   14.9830    0.2470 N   0  0  0  0  0  0  0  0  0  0  0  0
   -3.8410   13.7660   -4.1560 O   0  0  0  0  0  0  0  0  0  0  0  0
   -2.0210   15.3500   -4.2170 C   0  0  0  0  0  0  0  0  0  0  0  0
   -0.5540   14.9460   -3.9310 C   0  0  2  0  0  0  0  0  0  0  0  0
    0.4840   16.0410   -4.2050 C   0  0  0  0  0  0  0  0  0  0  0  0
   -0.0920   13.5560   -5.0700 S   0  0  0  0  0  0  0  0  0  0  0  0
   -0.6190   12.1030   -4.0940 C   0  0  0  0  0  0  0  0  0  0  0  0
    0.4390   11.5810   -3.1440 C   0  0  0  0  0  0  0  0  0  0  0  0
    0.5680   10.4310   -2.7630 O   0  0  0  0  0  0  0  0  0  0  0  0
    1.2890   12.5450   -2.6930 O   0  0  0  0  0  0  0  0  0  0  0  0
  1  2  2  0
  2  3  1  0
  2  4  1  0
  3  5  1  0
  6  4  1  6
  5  7  2  0
  6  7  1  0
  6  8  1  0
  8  9  1  1
  8 10  1  0
  8 11  1  0
 10 12  2  0
  9 13  1  0
 10 14  1  0
 13 14  1  0
 11 15  1  6
 11 16  1  0
 16 17  1  0
 17 18  1  6
 17 19  1  0
 19 20  1  0
 20 21  1  0
 21 22  2  0
 21 23  1  0
M  END
