diamond-x0681_0_A-diamond-x0905_0_A
     RDKit          3D

 13 14  0  0  0  0  0  0  0  0999 V2000
   -4.4790   15.4670   -2.3680 N   0  0  0  0  0  0  0  0  0  0  0  0
   -3.3720   14.8610   -1.8580 C   0  0  0  0  0  0  0  0  0  0  0  0
   -2.3490   14.7390   -2.5250 O   0  0  0  0  0  0  0  0  0  0  0  0
   -3.5120   14.3630   -0.4310 C   0  0  2  0  0  0  0  0  0  0  0  0
   -4.5600   13.2820   -0.4640 C   0  0  0  0  0  0  0  0  0  0  0  0
   -3.8700   15.5020    0.5270 C   0  0  0  0  0  0  0  0  0  0  0  0
   -5.6330   13.2510    0.3920 N   0  0  0  0  0  0  0  0  0  0  0  0
   -4.6440   15.0420    1.7500 C   0  0  0  0  0  0  0  0  0  0  0  0
   -4.6120   12.2540   -1.2810 N   0  0  0  0  0  0  0  0  0  0  0  0
   -5.8950   14.2290    1.3970 C   0  0  1  0  0  0  0  0  0  0  0  0
   -6.3910   12.1620    0.1140 C   0  0  0  0  0  0  0  0  0  0  0  0
   -5.7440   11.5560   -0.9300 C   0  0  0  0  0  0  0  0  0  0  0  0
   -6.9250   15.0020    0.7730 O   0  0  0  0  0  0  0  0  0  0  0  0
  1  2  1  0
  2  3  2  0
  4  2  1  6
  4  5  1  0
  4  6  1  0
  5  7  1  0
  6  8  1  0
  5  9  2  0
  7 10  1  0
  8 10  1  0
  7 11  1  0
  9 12  1  0
 11 12  2  0
 10 13  1  6
M  END
