diamond-x0471_0_A-mac-x0231
     RDKit          3D

 33 36  0  0  0  0  0  0  0  0999 V2000
   -8.3610   14.3630    3.2640 N   0  0  0  0  0  0  0  0  0  0  0  0
   -8.9600   15.3060    4.0590 C   0  0  0  0  0  0  0  0  0  0  0  0
   -9.2680   16.4140    3.6330 O   0  0  0  0  0  0  0  0  0  0  0  0
   -8.6440   14.3890    1.8620 C   0  0  0  0  0  0  0  0  0  0  0  0
   -9.2250   14.8640    5.4900 C   0  0  0  0  0  0  0  0  0  0  0  0
   -7.4040   14.5600    1.0620 C   0  0  0  0  0  0  0  0  0  0  0  0
   -9.7670   13.4420    5.5280 C   0  0  0  0  0  0  0  0  0  0  0  0
   -7.9700   15.0190    6.3390 C   0  0  0  0  0  0  0  0  0  0  0  0
   -7.5220   14.4040   -0.2630 N   0  0  0  0  0  0  0  0  0  0  0  0
   -6.1430   14.8520    1.4000 N   0  0  0  0  0  0  0  0  0  0  0  0
   -5.4420   14.8720    0.1970 C   0  0  0  0  0  0  0  0  0  0  0  0
   -6.3210   14.5860   -0.8180 C   0  0  0  0  0  0  0  0  0  0  0  0
   -6.0120   14.5040   -2.1200 C   0  0  0  0  0  0  0  0  0  0  0  0
   -4.0840   15.1130   -0.1640 C   0  0  0  0  0  0  0  0  0  0  0  0
   -4.7350   14.7040   -2.5350 C   0  0  0  0  0  0  0  0  0  0  0  0
   -3.7250   15.0250   -1.5610 C   0  0  0  0  0  0  0  0  0  0  0  0
   -4.7740   14.4740   -4.0690 C   0  0  0  0  0  0  0  0  0  0  0  0
   -3.9640   15.2130   -5.1310 C   0  0  0  0  0  0  0  0  0  0  0  0
   -2.5950   14.8300   -4.9890 C   0  0  0  0  0  0  0  0  0  0  0  0
   -1.6850   15.8440   -4.8370 C   0  0  0  0  0  0  0  0  0  0  0  0
   -2.2450   13.4940   -4.9930 C   0  0  0  0  0  0  0  0  0  0  0  0
   -0.3840   15.5150   -4.6600 C   0  0  0  0  0  0  0  0  0  0  0  0
   -0.9280   13.1620   -4.8100 C   0  0  0  0  0  0  0  0  0  0  0  0
    0.0000   14.1860   -4.6320 C   0  0  0  0  0  0  0  0  0  0  0  0
    0.5980   16.5660   -4.4910 C   0  0  0  0  0  0  0  0  0  0  0  0
    0.3020   17.7540   -4.5810 O   0  0  0  0  0  0  0  0  0  0  0  0
    1.4050   13.9210   -4.3890 C   0  0  0  0  0  0  0  0  0  0  0  0
    1.8530   16.1270   -4.2320 N   0  0  0  0  0  0  0  0  0  0  0  0
    1.8400   12.5070   -4.2890 C   0  0  0  0  0  0  0  0  0  0  0  0
    2.2760   14.8410   -4.1920 N   0  0  0  0  0  0  0  0  0  0  0  0
    1.2600   11.9410   -3.0230 C   0  0  0  0  0  0  0  0  0  0  0  0
    0.6230   10.7590   -3.1670 O   0  0  0  0  0  0  0  0  0  0  0  0
    1.3380   12.4860   -1.9440 O   0  0  0  0  0  0  0  0  0  0  0  0
  1  2  1  0
  2  3  2  0
  1  4  1  0
  2  5  1  0
  4  6  1  0
  5  7  1  0
  5  8  1  0
  6  9  1  0
  6 10  2  0
 10 11  1  0
  9 12  1  0
 11 12  2  0
 12 13  1  0
 11 14  1  0
 13 15  2  0
 14 16  2  0
 15 16  1  0
 15 17  1  0
 17 18  1  0
 18 19  1  0
 19 20  2  0
 19 21  1  0
 20 22  1  0
 21 23  2  0
 22 24  2  0
 23 24  1  0
 22 25  1  0
 25 26  2  0
 24 27  1  0
 25 28  1  0
 27 29  1  0
 27 30  2  0
 28 30  1  0
 29 31  1  0
 31 32  1  0
 31 33  2  0
M  END
