diamond-x0849_0_A-mac-x0284
     RDKit          3D

 21 23  0  0  0  0  0  0  0  0999 V2000
   -2.0020   13.6890   -2.7990 Br  0  0  0  0  0  0  0  0  0  0  0  0
   -2.7240   14.4540   -1.1960 C   0  0  0  0  0  0  0  0  0  0  0  0
   -1.9820   14.3360   -0.1310 C   0  0  0  0  0  0  0  0  0  0  0  0
   -3.9120   15.0620   -1.2150 C   0  0  0  0  0  0  0  0  0  0  0  0
   -2.4430   14.8450    1.0560 C   0  0  0  0  0  0  0  0  0  0  0  0
   -4.3950   15.5700   -0.0240 C   0  0  0  0  0  0  0  0  0  0  0  0
   -0.7780   13.7130   -0.2590 C   0  0  0  0  0  0  0  0  0  0  0  0
   -4.2520   14.9720   -2.5700 C   0  0  0  0  0  0  0  0  0  0  0  0
   -3.6500   15.4580    1.1280 N   0  0  0  0  0  0  0  0  0  0  0  0
   -1.6640   14.7120    2.1070 N   0  0  0  0  0  0  0  0  0  0  0  0
   -0.0190   13.5940    0.8000 C   0  0  0  0  0  0  0  0  0  0  0  0
   -3.0370   15.2280   -3.1600 C   0  0  0  0  0  0  0  0  0  0  0  0
   -5.3720   14.6950   -3.3340 C   0  0  0  0  0  0  0  0  0  0  0  0
   -0.4660   14.0870    1.9530 C   0  0  0  0  0  0  0  0  0  0  0  0
   -2.8210   15.2220   -4.4860 C   0  0  0  0  0  0  0  0  0  0  0  0
   -5.1820   14.6820   -4.7410 C   0  0  0  0  0  0  0  0  0  0  0  0
   -1.4360   15.5030   -4.9240 C   0  0  0  0  0  0  0  0  0  0  0  0
   -3.9040   14.9450   -5.3090 C   0  0  0  0  0  0  0  0  0  0  0  0
   -3.7980   14.9110   -6.6640 O   0  0  0  0  0  0  0  0  0  0  0  0
   -0.5450   14.6860   -4.7470 O   0  0  0  0  0  0  0  0  0  0  0  0
   -1.2390   16.7070   -5.4850 O   0  0  0  0  0  0  0  0  0  0  0  0
  1  2  1  0
  2  3  2  0
  2  4  1  0
  3  5  1  0
  4  6  2  0
  3  7  1  0
  4  8  1  0
  5  9  2  0
  6  9  1  0
  5 10  1  0
  7 11  2  0
  8 12  2  0
  8 13  1  0
 10 14  2  0
 11 14  1  0
 12 15  1  0
 13 16  2  0
 15 17  1  0
 15 18  2  0
 16 18  1  0
 18 19  1  0
 17 20  2  0
 17 21  1  0
M  END
