diamond-x0685_1_A-mac-x0375
     RDKit          3D

 14 15  0  0  0  0  0  0  0  0999 V2000
   -1.7850   10.7010   -4.8810 N   0  0  0  0  0  0  0  0  0  0  0  0
   -1.6010   12.1100   -4.5070 C   0  0  0  0  0  0  0  0  0  0  0  0
   -0.0970   12.2690   -4.6060 C   0  0  2  0  0  0  0  0  0  0  0  0
   -0.8720   10.5740   -6.0170 C   0  0  0  0  0  0  0  0  0  0  0  0
    0.3210   11.2960   -5.6110 O   0  0  0  0  0  0  0  0  0  0  0  0
   -0.6010    9.0630   -6.2450 C   0  0  0  0  0  0  0  0  0  0  0  0
   -1.4830   11.2350   -7.2740 C   0  0  0  0  0  0  0  0  0  0  0  0
    0.6850   12.0100   -2.9760 S   0  0  0  0  0  0  0  0  0  0  0  0
    0.0770    8.7120   -7.5790 C   0  0  0  0  0  0  0  0  0  0  0  0
   -0.8580   10.7940   -8.6080 C   0  0  0  0  0  0  0  0  0  0  0  0
    2.2580   12.2540   -3.1690 O   0  0  0  0  0  0  0  0  0  0  0  0
    0.3520   10.4970   -2.5180 O   0  0  0  0  0  0  0  0  0  0  0  0
    0.0890   13.0690   -1.9290 O   0  0  0  0  0  0  0  0  0  0  0  0
   -0.6830    9.2850   -8.7610 C   0  0  0  0  0  0  0  0  0  0  0  0
  1  2  1  0
  2  3  1  0
  1  4  1  0
  3  5  1  0
  4  5  1  0
  4  6  1  0
  4  7  1  0
  3  8  1  1
  6  9  1  0
  7 10  1  0
  8 11  1  0
  8 12  1  0
  8 13  1  0
  9 14  1  0
 10 14  1  0
M  END
