diamond-x0421_0_A-diamond-x0895_1_A
     RDKit          3D

 13 14  0  0  0  0  0  0  0  0999 V2000
   -3.7630   15.1380   -2.6930 N   0  0  0  0  0  0  0  0  0  0  0  0
   -2.9250   14.9110   -1.6450 C   0  0  0  0  0  0  0  0  0  0  0  0
   -1.7230   14.7550   -1.7680 O   0  0  0  0  0  0  0  0  0  0  0  0
   -3.5240   14.8630   -0.3060 C   0  0  0  0  0  0  0  0  0  0  0  0
   -2.9660   14.8550    1.0860 C   0  0  0  0  0  0  0  0  0  0  0  0
   -4.8080   14.7970   -0.0960 N   0  0  0  0  0  0  0  0  0  0  0  0
   -1.7760   14.8830    1.3630 O   0  0  0  0  0  0  0  0  0  0  0  0
   -5.7700   14.7660   -0.8970 O   0  0  0  0  0  0  0  0  0  0  0  0
   -3.9620   14.7940    2.0220 N   0  0  0  0  0  0  0  0  0  0  0  0
   -5.0370   14.7460    1.3330 C   0  0  0  0  0  0  0  0  0  0  0  0
   -6.3700   14.6400    1.9350 C   0  0  0  0  0  0  0  0  0  0  0  0
   -7.6190   14.6710    1.0790 C   0  0  0  0  0  0  0  0  0  0  0  0
   -7.1950   13.3910    1.7370 C   0  0  0  0  0  0  0  0  0  0  0  0
  1  2  1  0
  2  3  2  0
  2  4  1  0
  4  5  1  0
  4  6  2  0
  5  7  2  0
  6  8  1  0
  5  9  1  0
  6 10  1  0
  9 10  2  0
 10 11  1  0
 11 12  1  0
 11 13  1  0
 12 13  1  0
M  CHG  2   6   1   8  -1
M  END
