diamond-x0950_0_A-mac-x0496
     RDKit          3D

 27 28  0  0  0  0  0  0  0  0999 V2000
    2.8250   12.9220   -3.9510 C   0  0  0  0  0  0  0  0  0  0  0  0
    1.3180   12.7340   -4.0300 C   0  0  1  0  0  0  0  0  0  0  0  0
    1.0000   12.1370   -5.2950 O   0  0  0  0  0  0  0  0  0  0  0  0
    0.7630   11.8740   -2.8750 C   0  0  0  0  0  0  0  0  0  0  0  0
    0.2800   10.7680   -3.0700 O   0  0  0  0  0  0  0  0  0  0  0  0
    0.8680   12.4540   -1.6330 O   0  0  0  0  0  0  0  0  0  0  0  0
    0.9080   13.8970   -1.6210 C   0  0  0  0  0  0  0  0  0  0  0  0
   -0.4770   14.4130   -1.2470 C   0  0  0  0  0  0  0  0  0  0  0  0
   -1.2860   14.7090   -2.4420 N   0  0  0  0  0  0  0  0  0  0  0  0
   -2.5500   14.9410   -2.3840 C   0  0  0  0  0  0  0  0  0  0  0  0
   -3.3290   15.2250   -3.4460 O   0  0  0  0  0  0  0  0  0  0  0  0
   -3.3260   14.9330   -1.1130 C   0  0  0  0  0  0  0  0  0  0  0  0
   -2.6410   15.0810    0.1110 C   0  0  0  0  0  0  0  0  0  0  0  0
   -4.7180   14.7810   -1.1060 C   0  0  0  0  0  0  0  0  0  0  0  0
   -3.3280   15.0900    1.3120 C   0  0  0  0  0  0  0  0  0  0  0  0
   -5.3930   14.7840    0.1170 C   0  0  0  0  0  0  0  0  0  0  0  0
   -6.8480   14.6110    0.2220 C   0  0  0  0  0  0  0  0  0  0  0  0
   -4.7050   14.9470    1.3080 C   0  0  0  0  0  0  0  0  0  0  0  0
   -7.3700   14.0060    1.3370 N   0  0  0  0  0  0  0  0  0  0  0  0
   -7.5770   14.9880   -0.6830 O   0  0  0  0  0  0  0  0  0  0  0  0
   -8.7580   13.8110    1.7180 C   0  0  0  0  0  0  0  0  0  0  0  0
   -9.2280   15.0580    2.3360 C   0  0  0  0  0  0  0  0  0  0  0  0
  -10.0890   15.8160    1.5960 O   0  0  0  0  0  0  0  0  0  0  0  0
   -8.9350   15.5670    3.5170 N   0  0  0  0  0  0  0  0  0  0  0  0
   -9.6530   16.7220    3.5090 C   0  0  0  0  0  0  0  0  0  0  0  0
  -10.3600   16.9230    2.3760 N   0  0  0  0  0  0  0  0  0  0  0  0
   -9.6270   17.6530    4.6660 C   0  0  0  0  0  0  0  0  0  0  0  0
  2  1  1  1
  2  3  1  0
  2  4  1  0
  4  5  2  0
  4  6  1  0
  6  7  1  0
  7  8  1  0
  8  9  1  0
  9 10  2  3
 10 11  1  0
 10 12  1  0
 12 13  2  0
 12 14  1  0
 13 15  1  0
 14 16  2  0
 16 17  1  0
 15 18  2  0
 16 18  1  0
 17 19  1  0
 17 20  2  0
 19 21  1  0
 21 22  1  0
 22 23  1  0
 22 24  2  0
 24 25  1  0
 23 26  1  0
 25 26  2  0
 25 27  1  0
M  END
