diamond-x0895_1_A-diamond-x0711_0_A
     RDKit          3D

 14 14  0  0  0  0  0  0  0  0999 V2000
   -1.4350   14.7000    1.4870 O   0  0  0  0  0  0  0  0  0  0  0  0
   -2.4560   14.5610    0.8230 C   0  0  0  0  0  0  0  0  0  0  0  0
   -2.6520   14.2550   -0.7020 C   0  0  2  0  0  0  0  0  0  0  0  0
   -3.7160   14.6530    1.3550 N   0  0  0  0  0  0  0  0  0  0  0  0
   -1.8100   14.9230   -1.7190 N   0  0  0  0  0  0  0  0  0  0  0  0
   -3.9920   14.8100   -0.8300 N   0  0  0  0  0  0  0  0  0  0  0  0
   -4.6300   14.7540    0.3740 C   0  0  0  0  0  0  0  0  0  0  0  0
   -5.8600   14.7770    0.7090 N   0  0  0  0  0  0  0  0  0  0  0  0
   -0.7310   14.0180   -2.6720 S   0  0  0  0  0  0  0  0  0  0  0  0
   -1.8220   12.9990   -3.6380 C   0  0  0  0  0  0  0  0  0  0  0  0
   -0.0730   14.9140   -3.5960 O   0  0  0  0  0  0  0  0  0  0  0  0
    0.0050   13.1640   -1.7770 O   0  0  0  0  0  0  0  0  0  0  0  0
   -6.7860   14.8850   -0.2820 C   0  0  0  0  0  0  0  0  0  0  0  0
   -7.9250   14.4360   -0.2570 O   0  0  0  0  0  0  0  0  0  0  0  0
  1  2  2  0
  2  3  1  0
  2  4  1  0
  3  5  1  6
  3  6  1  0
  4  7  1  0
  6  7  1  0
  7  8  2  3
  9  5  1  0
  9 10  1  0
  9 11  2  0
  9 12  2  0
  8 13  1  0
 13 14  2  0
M  END
