diamond-x0724_0_A-mac-x0142
     RDKit          3D

 26 30  0  0  0  0  0  0  0  0999 V2000
   -8.4360   13.7160    4.3460 N   0  0  0  0  0  0  0  0  0  0  0  0
   -8.5330   13.9200    5.7850 C   0  0  0  0  0  0  0  0  0  0  0  0
   -8.1970   14.9870    3.6700 C   0  0  0  0  0  0  0  0  0  0  0  0
   -7.5410   14.7480    2.3510 C   0  0  0  0  0  0  0  0  0  0  0  0
   -6.2190   14.9490    2.0110 C   0  0  0  0  0  0  0  0  0  0  0  0
   -8.1140   14.2760    1.1510 C   0  0  0  0  0  0  0  0  0  0  0  0
   -7.2240   14.1940    0.1530 N   0  0  0  0  0  0  0  0  0  0  0  0
   -6.0610   14.6170    0.7040 N   0  0  0  0  0  0  0  0  0  0  0  0
   -4.8450   14.6900   -0.1250 C   0  0  1  0  0  0  0  0  0  0  0  0
   -3.4210   14.2050    0.2900 C   0  0  0  0  0  0  0  0  0  0  0  0
   -5.0240   14.4530   -1.5980 C   0  0  0  0  0  0  0  0  0  0  0  0
   -2.3110   15.0380   -0.4460 C   0  0  1  0  0  0  0  0  0  0  0  0
   -4.1300   15.4530   -2.2080 C   0  0  0  0  0  0  0  0  0  0  0  0
   -2.9220   15.7340   -1.6740 C   0  0  0  0  0  0  0  0  0  0  0  0
   -1.6130   15.8120    0.6010 N   0  0  0  0  0  0  0  0  0  0  0  0
   -0.9480   14.6850   -1.1840 C   0  0  2  0  0  0  0  0  0  0  0  0
   -0.7280   14.0230   -2.4820 N   0  0  0  0  0  0  0  0  0  0  0  0
   -0.2560   14.0060   -0.0990 N   0  0  0  0  0  0  0  0  0  0  0  0
   -0.4360   14.9930    0.9500 C   0  0  0  0  0  0  0  0  0  0  0  0
   -1.8680   14.0790   -3.4300 C   0  0  0  0  0  0  0  0  0  0  0  0
    0.4200   14.5980   -3.1950 C   0  0  0  0  0  0  0  0  0  0  0  0
    0.8290   13.5940   -4.2310 C   0  0  0  0  0  0  0  0  0  0  0  0
   -1.5900   13.2170   -4.6840 C   0  0  0  0  0  0  0  0  0  0  0  0
    2.2770   13.2600   -4.5100 C   0  0  0  0  0  0  0  0  0  0  0  0
    1.4510   12.3530   -3.6510 C   0  0  0  0  0  0  0  0  0  0  0  0
   -0.2010   13.4170   -5.3070 C   0  0  0  0  0  0  0  0  0  0  0  0
  1  2  1  0
  1  3  1  0
  3  4  1  0
  4  5  2  0
  4  6  1  0
  6  7  2  0
  5  8  1  0
  7  8  1  0
  9  8  1  1
  9 10  1  0
  9 11  1  0
 12 10  1  1
 11 13  1  0
 12 14  1  0
 13 14  2  0
 12 15  1  0
 12 16  1  0
 16 17  1  6
 16 18  1  0
 15 19  1  0
 18 19  1  0
 17 20  1  0
 17 21  1  0
 22 21  1  0
 20 23  1  0
 22 24  1  0
 22 25  1  0
 24 25  1  0
 22 26  1  0
 23 26  1  0
M  END
