diamond-x0895_0_A-mac-x0224
     RDKit          3D

 18 19  0  0  0  0  0  0  0  0999 V2000
   -2.0050   14.3210    2.1160 O   0  0  0  0  0  0  0  0  0  0  0  0
   -2.8650   14.3670    1.2460 C   0  0  0  0  0  0  0  0  0  0  0  0
   -3.4960   15.5290    0.5620 C   0  0  2  0  0  0  0  0  0  0  0  0
   -3.5010   13.3520    0.5890 N   0  0  0  0  0  0  0  0  0  0  0  0
   -4.8210   15.0490    0.5050 N   0  0  0  0  0  0  0  0  0  0  0  0
   -4.4630   13.9500   -0.1960 C   0  0  0  0  0  0  0  0  0  0  0  0
   -3.0100   15.3010   -0.8280 C   0  0  0  0  0  0  0  0  0  0  0  0
   -4.8730   13.6020   -1.2860 O   0  0  0  0  0  0  0  0  0  0  0  0
   -1.7020   14.8160   -1.0070 C   0  0  0  0  0  0  0  0  0  0  0  0
   -3.8160   15.5390   -1.9440 C   0  0  0  0  0  0  0  0  0  0  0  0
   -5.6840   14.8870    1.6290 C   0  0  0  0  0  0  0  0  0  0  0  0
   -1.2010   14.5800   -2.2860 C   0  0  0  0  0  0  0  0  0  0  0  0
   -3.3240   15.3000   -3.2230 C   0  0  0  0  0  0  0  0  0  0  0  0
    0.1750   14.0830   -2.4670 C   0  0  0  0  0  0  0  0  0  0  0  0
   -2.0250   14.8250   -3.3970 C   0  0  0  0  0  0  0  0  0  0  0  0
   -1.6270   14.6260   -4.6910 O   0  0  0  0  0  0  0  0  0  0  0  0
    0.9420   13.8570   -1.5480 O   0  0  0  0  0  0  0  0  0  0  0  0
    0.5210   13.8900   -3.7420 O   0  0  0  0  0  0  0  0  0  0  0  0
  1  2  2  0
  2  3  1  0
  2  4  1  0
  3  5  1  0
  4  6  1  0
  5  6  1  0
  3  7  1  6
  6  8  2  0
  7  9  2  0
  7 10  1  0
  5 11  1  0
  9 12  1  0
 10 13  2  0
 12 14  1  0
 12 15  2  0
 13 15  1  0
 15 16  1  0
 14 17  2  0
 14 18  1  0
M  END
