diamond-x0895_1_A-diamond-x0950_0_A
     RDKit          3D

 16 16  0  0  0  0  0  0  0  0999 V2000
   -1.5970   14.8580    1.7550 O   0  0  0  0  0  0  0  0  0  0  0  0
   -2.6510   14.9900    1.1490 C   0  0  0  0  0  0  0  0  0  0  0  0
   -2.8000   15.2280   -0.3490 C   0  0  1  0  0  0  0  0  0  0  0  0
   -3.8870   14.9420    1.6970 N   0  0  0  0  0  0  0  0  0  0  0  0
   -1.8020   14.3990   -1.1500 C   0  0  0  0  0  0  0  0  0  0  0  0
   -4.1750   14.7920   -0.4910 N   0  0  0  0  0  0  0  0  0  0  0  0
   -4.8260   14.8200    0.7250 C   0  0  0  0  0  0  0  0  0  0  0  0
   -6.0320   14.7450    0.8780 O   0  0  0  0  0  0  0  0  0  0  0  0
   -0.4030   14.3040   -0.5050 C   0  0  0  0  0  0  0  0  0  0  0  0
    0.7320   13.9000   -1.4480 C   0  0  0  0  0  0  0  0  0  0  0  0
    0.7710   12.4680   -1.5930 O   0  0  0  0  0  0  0  0  0  0  0  0
    0.7350   11.9060   -2.8530 C   0  0  0  0  0  0  0  0  0  0  0  0
    1.3060   12.8210   -3.9610 C   0  0  1  0  0  0  0  0  0  0  0  0
    0.2950   10.7880   -3.0650 O   0  0  0  0  0  0  0  0  0  0  0  0
    2.8160   12.9460   -3.8200 C   0  0  0  0  0  0  0  0  0  0  0  0
    1.0010   12.3600   -5.2800 O   0  0  0  0  0  0  0  0  0  0  0  0
  1  2  2  0
  2  3  1  0
  2  4  1  0
  3  5  1  6
  3  6  1  0
  4  7  1  0
  6  7  1  0
  7  8  2  0
  5  9  1  0
  9 10  1  0
 10 11  1  0
 11 12  1  0
 12 13  1  0
 12 14  2  0
 13 15  1  6
 13 16  1  0
M  END
