diamond-x0104_0_A-mac-x0437
     RDKit          3D

 34 37  0  0  0  0  0  0  0  0999 V2000
   -6.7530   14.6590    2.6030 N   0  0  0  0  0  0  0  0  0  0  0  0
   -8.0040   15.0620    3.0740 C   0  0  0  0  0  0  0  0  0  0  0  0
   -8.0020   14.9400    4.4490 N   0  0  0  0  0  0  0  0  0  0  0  0
   -6.2680   14.7210    1.2810 C   0  0  0  0  0  0  0  0  0  0  0  0
   -8.9280   15.4480    2.3560 O   0  0  0  0  0  0  0  0  0  0  0  0
   -4.8880   14.7590    1.0490 C   0  0  0  0  0  0  0  0  0  0  0  0
   -7.1080   14.7540    0.1730 C   0  0  0  0  0  0  0  0  0  0  0  0
   -4.3290   14.8270   -0.1860 N   0  0  0  0  0  0  0  0  0  0  0  0
   -6.5630   14.8280   -1.1010 C   0  0  0  0  0  0  0  0  0  0  0  0
   -9.1290   15.0010    5.2680 C   0  0  0  0  0  0  0  0  0  0  0  0
   -5.1880   14.8620   -1.2330 C   0  0  0  0  0  0  0  0  0  0  0  0
   -9.1320   15.1150    6.6480 C   0  0  0  0  0  0  0  0  0  0  0  0
  -10.7200   14.9400    4.6400 S   0  0  0  0  0  0  0  0  0  0  0  0
   -4.7330   14.9360   -2.5350 O   0  0  0  0  0  0  0  0  0  0  0  0
  -11.4250   15.0610    6.1990 C   0  0  0  0  0  0  0  0  0  0  0  0
  -10.4650   15.1490    7.1850 C   0  0  0  0  0  0  0  0  0  0  0  0
   -3.3060   14.9430   -2.7210 C   0  0  0  0  0  0  0  0  0  0  0  0
   -2.8890   15.4440   -4.1300 C   0  0  0  0  0  0  0  0  0  0  0  0
   -2.1540   14.3950   -4.9820 C   0  0  0  0  0  0  0  0  0  0  0  0
   -0.6090   14.4550   -4.9070 C   0  0  0  0  0  0  0  0  0  0  0  0
    0.2470   13.2310   -5.3690 C   0  0  1  0  0  0  0  0  0  0  0  0
    1.5080   12.9210   -4.5270 C   0  0  0  0  0  0  0  0  0  0  0  0
   -0.5530   12.0130   -5.5890 N   0  0  0  0  0  0  0  0  0  0  0  0
    1.1790   12.2380   -3.2130 C   0  0  0  0  0  0  0  0  0  0  0  0
   -1.6830   11.6290   -4.9100 C   0  0  0  0  0  0  0  0  0  0  0  0
   -0.2920   11.0350   -6.5290 C   0  0  0  0  0  0  0  0  0  0  0  0
    1.6290   12.9230   -2.1370 O   0  0  0  0  0  0  0  0  0  0  0  0
    0.5650   11.1870   -3.0930 O   0  0  0  0  0  0  0  0  0  0  0  0
   -2.1610   10.4850   -5.3420 N   0  0  0  0  0  0  0  0  0  0  0  0
   -1.3080   10.1010   -6.3460 C   0  0  0  0  0  0  0  0  0  0  0  0
    0.7090   10.8730   -7.5010 C   0  0  0  0  0  0  0  0  0  0  0  0
   -1.3440    8.9530   -7.1510 C   0  0  0  0  0  0  0  0  0  0  0  0
    0.6580    9.7210   -8.2950 C   0  0  0  0  0  0  0  0  0  0  0  0
   -0.3510    8.7730   -8.1240 C   0  0  0  0  0  0  0  0  0  0  0  0
  1  2  1  0
  2  3  1  0
  1  4  1  0
  2  5  2  0
  4  6  2  0
  4  7  1  0
  6  8  1  0
  7  9  2  0
  3 10  1  0
  8 11  2  0
  9 11  1  0
 10 12  2  0
 10 13  1  0
 11 14  1  0
 13 15  1  0
 12 16  1  0
 15 16  2  0
 14 17  1  0
 17 18  1  0
 18 19  1  0
 19 20  1  0
 21 20  1  1
 21 22  1  0
 21 23  1  0
 22 24  1  0
 23 25  1  0
 23 26  1  0
 24 27  1  0
 24 28  2  0
 25 29  2  0
 26 30  2  0
 29 30  1  0
 26 31  1  0
 30 32  1  0
 31 33  2  0
 32 34  2  0
 33 34  1  0
M  END
