diamond-x0844_0_A-mac-x0284
     RDKit          3D

 18 19  0  0  0  0  0  0  0  0999 V2000
   -8.1180   14.2050   -0.4580 O   0  0  0  0  0  0  0  0  0  0  0  0
   -6.8940   14.2060   -0.4500 C   0  0  0  0  0  0  0  0  0  0  0  0
   -6.2100   14.2070    0.7190 N   0  0  0  0  0  0  0  0  0  0  0  0
   -6.0350   14.2390   -1.6970 C   0  0  0  0  0  0  0  0  0  0  0  0
   -5.3380   15.1890    0.9270 C   0  0  0  0  0  0  0  0  0  0  0  0
   -5.0330   15.3770   -1.6100 C   0  0  1  0  0  0  0  0  0  0  0  0
   -4.7840   15.7780   -0.1330 C   0  0  0  0  0  0  0  0  0  0  0  0
   -3.6070   15.0600   -1.7560 C   0  0  0  0  0  0  0  0  0  0  0  0
   -2.5680   14.8640   -2.7070 C   0  0  0  0  0  0  0  0  0  0  0  0
   -3.3690   14.9740   -0.4440 C   0  0  0  0  0  0  0  0  0  0  0  0
   -2.7930   14.9500   -4.0650 O   0  0  0  0  0  0  0  0  0  0  0  0
   -2.2060   14.7190    0.0950 C   0  0  0  0  0  0  0  0  0  0  0  0
   -1.2880   14.5900   -2.1270 C   0  0  0  0  0  0  0  0  0  0  0  0
   -2.1740   14.6750    1.5640 C   0  0  0  0  0  0  0  0  0  0  0  0
    0.0020   14.3580   -2.7890 C   0  0  0  0  0  0  0  0  0  0  0  0
   -1.1370   14.5230   -0.7340 C   0  0  0  0  0  0  0  0  0  0  0  0
    1.0500   14.1990   -2.1920 O   0  0  0  0  0  0  0  0  0  0  0  0
   -0.0420   14.3360   -4.1260 O   0  0  0  0  0  0  0  0  0  0  0  0
  1  2  2  0
  2  3  1  0
  2  4  1  0
  3  5  1  0
  4  6  1  0
  5  7  2  0
  6  7  1  0
  6  8  1  1
  8  9  2  0
  8 10  1  0
  9 11  1  0
 10 12  2  0
  9 13  1  0
 12 14  1  0
 13 15  1  0
 12 16  1  0
 13 16  2  0
 15 17  2  0
 15 18  1  0
M  END
