diamond-x0722_0_A-mac-x0283
     RDKit          3D

 22 24  0  0  0  0  0  0  0  0999 V2000
   -4.2210   15.9410    1.5920 C   0  0  0  0  0  0  0  0  0  0  0  0
   -3.1460   15.4150    0.7380 C   0  0  0  0  0  0  0  0  0  0  0  0
   -1.9650   15.1990    1.2810 N   0  0  0  0  0  0  0  0  0  0  0  0
   -3.2010   15.0840   -0.6620 C   0  0  0  0  0  0  0  0  0  0  0  0
   -4.4860   15.2450   -1.4410 C   0  0  1  0  0  0  0  0  0  0  0  0
   -1.9150   14.6440   -0.9330 C   0  0  0  0  0  0  0  0  0  0  0  0
   -1.2410   14.7400    0.2700 N   0  0  0  0  0  0  0  0  0  0  0  0
    0.1140   14.4130    0.5660 C   0  0  0  0  0  0  0  0  0  0  0  0
   -1.2760   14.1530   -2.1680 C   0  0  0  0  0  0  0  0  0  0  0  0
   -4.9460   14.4080   -2.6030 C   0  0  0  0  0  0  0  0  0  0  0  0
   -5.0800   14.6680   -0.2730 C   0  0  0  0  0  0  0  0  0  0  0  0
   -5.2050   14.8080   -3.7190 O   0  0  0  0  0  0  0  0  0  0  0  0
   -5.1090   13.0760   -2.3060 N   0  0  0  0  0  0  0  0  0  0  0  0
   -6.3540   14.7310    0.2210 C   0  0  0  0  0  0  0  0  0  0  0  0
   -4.1480   13.9210    0.4640 C   0  0  0  0  0  0  0  0  0  0  0  0
   -7.4370   15.3660   -0.3010 O   0  0  0  0  0  0  0  0  0  0  0  0
   -6.7050   14.1180    1.3880 C   0  0  0  0  0  0  0  0  0  0  0  0
   -4.4720   13.2930    1.6260 C   0  0  0  0  0  0  0  0  0  0  0  0
   -8.0510   14.4370    1.5470 C   0  0  0  0  0  0  0  0  0  0  0  0
   -8.5170   15.1770    0.5420 N   0  0  0  0  0  0  0  0  0  0  0  0
   -5.7590   13.3870    2.1060 C   0  0  0  0  0  0  0  0  0  0  0  0
   -8.7590   14.0260    2.6070 N   0  0  0  0  0  0  0  0  0  0  0  0
  1  2  1  0
  2  3  2  0
  2  4  1  0
  4  5  1  0
  4  6  2  0
  3  7  1  0
  6  7  1  0
  7  8  1  0
  6  9  1  0
  5 10  1  6
  5 11  1  0
 10 12  2  0
 10 13  1  0
 11 14  1  0
 11 15  2  0
 14 16  1  0
 14 17  2  0
 15 18  1  0
 17 19  1  0
 16 20  1  0
 19 20  2  0
 17 21  1  0
 18 21  2  0
 19 22  1  0
M  END
