diamond-x0837_0_A-mac-x0453
     RDKit          3D

 10 10  0  0  0  0  0  0  0  0999 V2000
   -7.5220   14.8540   -0.1080 O   0  0  0  0  0  0  0  0  0  0  0  0
   -6.3000   14.8210    0.0040 C   0  0  0  0  0  0  0  0  0  0  0  0
   -5.6140   14.8300    1.2080 N   0  0  0  0  0  0  0  0  0  0  0  0
   -5.4630   14.7500   -1.2150 C   0  0  0  0  0  0  0  0  0  0  0  0
   -4.2550   15.0860    1.2560 C   0  0  0  0  0  0  0  0  0  0  0  0
   -4.1350   14.8840   -1.1320 C   0  0  0  0  0  0  0  0  0  0  0  0
   -6.1690   14.0360    2.2740 C   0  0  0  0  0  0  0  0  0  0  0  0
   -2.9870   14.7410   -2.8440 I   0  0  0  0  0  0  0  0  0  0  0  0
   -3.5140   15.1150    0.1510 C   0  0  0  0  0  0  0  0  0  0  0  0
   -7.4950   13.5860    1.9180 N   0  0  0  0  0  0  0  0  0  0  0  0
  1  2  2  0
  2  3  1  0
  2  4  1  0
  3  5  1  0
  4  6  2  0
  3  7  1  0
  6  8  1  0
  5  9  2  0
  6  9  1  0
  7 10  1  0
M  END
