diamond-x1012_0_A-mac-x0255
     RDKit          3D

 17 18  0  0  0  0  0  0  0  0999 V2000
   -0.0260   18.1010   -3.6630 N   0  0  0  0  0  0  0  0  0  0  0  0
   -1.2040   17.6570   -4.1760 C   0  0  0  0  0  0  0  0  0  0  0  0
   -2.0940   18.4380   -4.4310 O   0  0  0  0  0  0  0  0  0  0  0  0
   -1.3470   16.1990   -4.5590 C   0  0  2  0  0  0  0  0  0  0  0  0
   -2.1400   15.2870   -3.6620 C   0  0  0  0  0  0  0  0  0  0  0  0
    0.1530   15.8850   -4.7000 C   0  0  1  0  0  0  0  0  0  0  0  0
   -2.1720   16.8160   -5.6380 C   0  0  0  0  0  0  0  0  0  0  0  0
   -1.5740   14.2510   -3.0420 C   0  0  0  0  0  0  0  0  0  0  0  0
    0.4560   14.3370   -4.5850 C   0  0  1  0  0  0  0  0  0  0  0  0
    0.6990   16.9540   -5.6500 C   0  0  0  0  0  0  0  0  0  0  0  0
   -1.5460   17.6170   -6.4860 C   0  0  0  0  0  0  0  0  0  0  0  0
    1.9160   13.8790   -4.6270 C   0  0  0  0  0  0  0  0  0  0  0  0
   -0.1070   13.9370   -3.1930 C   0  0  2  0  0  0  0  0  0  0  0  0
   -0.0980   17.7590   -6.4220 C   0  0  0  0  0  0  0  0  0  0  0  0
    0.3640   12.6100   -2.5800 C   0  0  0  0  0  0  0  0  0  0  0  0
    0.4110   11.5200   -3.3710 O   0  0  0  0  0  0  0  0  0  0  0  0
    0.6660   12.5640   -1.3900 O   0  0  0  0  0  0  0  0  0  0  0  0
  1  2  1  0
  2  3  2  0
  4  2  1  1
  4  5  1  0
  4  6  1  0
  4  7  1  0
  5  8  2  0
  6  9  1  0
  6 10  1  6
  7 11  2  0
  9 12  1  1
  8 13  1  0
  9 13  1  0
 10 14  2  0
 11 14  1  0
 13 15  1  6
 15 16  1  0
 15 17  2  0
M  END
