diamond-x0950_0_A-diamond-x0465_0_A
     RDKit          3D

 13 13  0  0  0  0  0  0  0  0999 V2000
    2.5590   12.9810   -4.5870 C   0  0  0  0  0  0  0  0  0  0  0  0
    1.0710   12.6510   -4.5530 C   0  0  1  0  0  0  0  0  0  0  0  0
    0.7580   11.6760   -5.5800 O   0  0  0  0  0  0  0  0  0  0  0  0
    0.7660   12.0570   -3.1740 C   0  0  0  0  0  0  0  0  0  0  0  0
    0.2730   10.9600   -2.9680 O   0  0  0  0  0  0  0  0  0  0  0  0
    1.0960   12.8930   -2.1540 O   0  0  0  0  0  0  0  0  0  0  0  0
   -0.4580   11.0120   -5.6370 C   0  0  0  0  0  0  0  0  0  0  0  0
   -0.5480    9.9570   -6.5750 C   0  0  0  0  0  0  0  0  0  0  0  0
   -1.5910   11.2860   -4.8610 C   0  0  0  0  0  0  0  0  0  0  0  0
    0.4960    9.6450   -7.3540 F   0  0  0  0  0  0  0  0  0  0  0  0
   -1.7110    9.2040   -6.7310 C   0  0  0  0  0  0  0  0  0  0  0  0
   -2.7640   10.5260   -5.0230 C   0  0  0  0  0  0  0  0  0  0  0  0
   -2.8240    9.4900   -5.9510 C   0  0  0  0  0  0  0  0  0  0  0  0
  2  1  1  1
  2  3  1  0
  2  4  1  0
  4  5  2  0
  4  6  1  0
  3  7  1  0
  7  8  2  0
  7  9  1  0
  8 10  1  0
  8 11  1  0
  9 12  2  0
 11 13  2  0
 12 13  1  0
M  END
