diamond-x0855_0_A-mac-x0453
     RDKit          3D

 21 22  0  0  0  0  0  0  0  0999 V2000
    1.7310   12.4410   -2.3480 O   0  0  0  0  0  0  0  0  0  0  0  0
    0.5680   11.8550   -2.9090 C   0  0  0  0  0  0  0  0  0  0  0  0
    0.4930   12.2700   -4.3980 C   0  0  0  0  0  0  0  0  0  0  0  0
    0.6740   10.4440   -2.7090 O   0  0  0  0  0  0  0  0  0  0  0  0
   -0.6350   12.2440   -2.0720 C   0  0  0  0  0  0  0  0  0  0  0  0
   -0.3550   13.3890   -1.1180 C   0  0  0  0  0  0  0  0  0  0  0  0
   -0.5320   11.5140   -5.0630 N   0  0  0  0  0  0  0  0  0  0  0  0
   -1.0170   14.6430   -1.6510 C   0  0  0  0  0  0  0  0  0  0  0  0
   -0.3930   10.6360   -6.0910 C   0  0  0  0  0  0  0  0  0  0  0  0
   -1.8060   11.6590   -4.6360 N   0  0  0  0  0  0  0  0  0  0  0  0
   -1.6530   10.1690   -6.3330 C   0  0  0  0  0  0  0  0  0  0  0  0
   -2.4920   10.8250   -5.4230 C   0  0  0  0  0  0  0  0  0  0  0  0
   -2.3680   14.7750   -1.1470 N   0  0  0  0  0  0  0  0  0  0  0  0
   -2.1880    8.9150   -7.6020 Br  0  0  0  0  0  0  0  0  0  0  0  0
   -2.7310   14.5940    0.1420 C   0  0  0  0  0  0  0  0  0  0  0  0
   -3.4970   15.0990   -1.8640 C   0  0  0  0  0  0  0  0  0  0  0  0
   -4.0810   14.8140    0.1820 C   0  0  0  0  0  0  0  0  0  0  0  0
   -4.5550   15.1300   -1.0800 N   0  0  0  0  0  0  0  0  0  0  0  0
   -4.9890   14.7480    1.3490 C   0  0  0  0  0  0  0  0  0  0  0  0
   -6.1990   13.8190    1.2550 C   0  0  0  0  0  0  0  0  0  0  0  0
   -7.1150   13.9540    2.3830 N   0  0  0  0  0  0  0  0  0  0  0  0
  2  1  1  0
  2  3  1  0
  2  4  1  0
  2  5  1  0
  5  6  1  0
  3  7  1  0
  6  8  1  0
  7  9  1  0
  7 10  1  0
  9 11  2  0
 10 12  2  0
 11 12  1  0
  8 13  1  0
 11 14  1  0
 13 15  1  0
 13 16  1  0
 15 17  2  0
 16 18  2  0
 17 18  1  0
 17 19  1  0
 19 20  1  0
 20 21  1  0
M  END
