diamond-x0724_0_A-mac-x0231
     RDKit          3D

 30 33  0  0  0  0  0  0  0  0999 V2000
   -8.4540   13.6940    4.4630 N   0  0  0  0  0  0  0  0  0  0  0  0
   -8.8190   13.7760    5.8690 C   0  0  0  0  0  0  0  0  0  0  0  0
   -7.7840   14.9210    4.0610 C   0  0  0  0  0  0  0  0  0  0  0  0
   -7.3850   14.8100    2.6340 C   0  0  0  0  0  0  0  0  0  0  0  0
   -6.1170   14.9180    2.0520 C   0  0  0  0  0  0  0  0  0  0  0  0
   -8.2400   14.5790    1.5500 C   0  0  0  0  0  0  0  0  0  0  0  0
   -7.6040   14.5560    0.3980 N   0  0  0  0  0  0  0  0  0  0  0  0
   -6.2950   14.7770    0.6890 N   0  0  0  0  0  0  0  0  0  0  0  0
   -5.4530   14.8360   -0.4490 C   0  0  0  0  0  0  0  0  0  0  0  0
   -4.0620   15.0860   -0.5470 C   0  0  0  0  0  0  0  0  0  0  0  0
   -6.1750   14.6330   -1.5980 C   0  0  0  0  0  0  0  0  0  0  0  0
   -3.4780   15.1350   -1.8570 C   0  0  0  0  0  0  0  0  0  0  0  0
   -5.6180   14.6790   -2.8320 C   0  0  0  0  0  0  0  0  0  0  0  0
   -4.3050   14.9300   -3.0350 C   0  0  0  0  0  0  0  0  0  0  0  0
   -3.9640   14.9450   -4.5490 C   0  0  0  0  0  0  0  0  0  0  0  0
   -2.5800   14.6280   -4.6960 C   0  0  0  0  0  0  0  0  0  0  0  0
   -1.7120   15.6660   -4.5090 C   0  0  0  0  0  0  0  0  0  0  0  0
   -2.1660   13.3400   -4.9720 C   0  0  0  0  0  0  0  0  0  0  0  0
   -0.3850   15.4040   -4.5330 C   0  0  0  0  0  0  0  0  0  0  0  0
   -0.8210   13.0670   -4.9800 C   0  0  0  0  0  0  0  0  0  0  0  0
    0.0600   14.1100   -4.7240 C   0  0  0  0  0  0  0  0  0  0  0  0
    0.5570   16.4930   -4.3350 C   0  0  0  0  0  0  0  0  0  0  0  0
    0.2000   17.6640   -4.2550 O   0  0  0  0  0  0  0  0  0  0  0  0
    1.4860   13.8910   -4.6020 C   0  0  0  0  0  0  0  0  0  0  0  0
    1.8490   16.1050   -4.2820 N   0  0  0  0  0  0  0  0  0  0  0  0
    1.9890   12.4830   -4.5830 C   0  0  0  0  0  0  0  0  0  0  0  0
    2.3180   14.8390   -4.3720 N   0  0  0  0  0  0  0  0  0  0  0  0
    1.5630   11.9500   -3.2340 C   0  0  0  0  0  0  0  0  0  0  0  0
    1.0350   10.7190   -3.2460 O   0  0  0  0  0  0  0  0  0  0  0  0
    1.6640   12.5750   -2.1900 O   0  0  0  0  0  0  0  0  0  0  0  0
  1  2  1  0
  1  3  1  0
  3  4  1  0
  4  5  2  0
  4  6  1  0
  6  7  2  0
  5  8  1  0
  7  8  1  0
  8  9  1  0
  9 10  2  0
  9 11  1  0
 10 12  1  0
 11 13  2  0
 12 14  2  0
 13 14  1  0
 14 15  1  0
 15 16  1  0
 16 17  2  0
 16 18  1  0
 17 19  1  0
 18 20  2  0
 19 21  2  0
 20 21  1  0
 19 22  1  0
 22 23  2  0
 21 24  1  0
 22 25  1  0
 24 26  1  0
 24 27  2  0
 25 27  1  0
 26 28  1  0
 28 29  1  0
 28 30  2  0
M  END
