diamond-x0727_0_A-mac-x0527
     RDKit          3D

 30 32  0  0  0  0  0  0  0  0999 V2000
    0.4870   11.7810   -5.4430 N   0  0  0  0  0  0  0  0  0  0  0  0
    1.3960   12.5380   -4.5880 C   0  0  1  0  0  0  0  0  0  0  0  0
    1.2770   14.0600   -4.7710 C   0  0  0  0  0  0  0  0  0  0  0  0
    0.6520   11.1310   -6.6270 C   0  0  0  0  0  0  0  0  0  0  0  0
    1.6080   11.3910   -7.3240 O   0  0  0  0  0  0  0  0  0  0  0  0
    1.1140   12.1190   -3.1310 C   0  0  0  0  0  0  0  0  0  0  0  0
   -0.4080   10.1040   -6.9700 C   0  0  0  0  0  0  0  0  0  0  0  0
    0.4240   11.1500   -2.8170 O   0  0  0  0  0  0  0  0  0  0  0  0
    1.7050   12.9060   -2.2040 O   0  0  0  0  0  0  0  0  0  0  0  0
    0.5000   14.8400   -3.6980 C   0  0  0  0  0  0  0  0  0  0  0  0
   -0.9340   10.0960   -8.3920 C   0  0  0  0  0  0  0  0  0  0  0  0
   -0.0410    8.6450   -6.7870 C   0  0  0  0  0  0  0  0  0  0  0  0
   -0.7680   14.1360   -3.1860 C   0  0  1  0  0  0  0  0  0  0  0  0
   -1.8800    8.8960   -8.3480 C   0  0  0  0  0  0  0  0  0  0  0  0
   -1.3420    7.9930   -7.2280 C   0  0  0  0  0  0  0  0  0  0  0  0
   -1.7650   15.0700   -2.6840 N   0  0  0  0  0  0  0  0  0  0  0  0
   -1.2570   13.1470   -4.2260 C   0  0  0  0  0  0  0  0  0  0  0  0
   -3.1350   15.0080   -2.7430 C   0  0  0  0  0  0  0  0  0  0  0  0
   -1.9950   12.0280   -3.8170 C   0  0  0  0  0  0  0  0  0  0  0  0
   -0.9800   13.3060   -5.5930 C   0  0  0  0  0  0  0  0  0  0  0  0
   -3.7720   14.9750   -3.7900 O   0  0  0  0  0  0  0  0  0  0  0  0
   -2.4410   11.0920   -4.7410 C   0  0  0  0  0  0  0  0  0  0  0  0
   -1.4290   12.3640   -6.5150 C   0  0  0  0  0  0  0  0  0  0  0  0
   -3.8010   15.0140   -1.4010 C   0  0  0  0  0  0  0  0  0  0  0  0
   -2.1580   11.2590   -6.0880 C   0  0  0  0  0  0  0  0  0  0  0  0
   -5.1790   15.1150   -1.3070 C   0  0  0  0  0  0  0  0  0  0  0  0
   -2.9940   14.9170   -0.3000 N   0  0  0  0  0  0  0  0  0  0  0  0
   -5.8150   15.1210   -0.1100 N   0  0  0  0  0  0  0  0  0  0  0  0
   -3.6410   14.9250    0.8890 C   0  0  0  0  0  0  0  0  0  0  0  0
   -5.0190   15.0230    0.9830 C   0  0  0  0  0  0  0  0  0  0  0  0
  1  2  1  0
  2  3  1  1
  1  4  1  0
  4  5  2  0
  2  6  1  0
  4  7  1  0
  6  8  2  0
  6  9  1  0
  3 10  1  0
  7 11  1  0
  7 12  1  0
 13 10  1  6
 11 14  1  0
 12 15  1  0
 14 15  1  0
 13 16  1  0
 13 17  1  0
 16 18  1  0
 17 19  2  0
 17 20  1  0
 18 21  2  0
 19 22  1  0
 20 23  2  0
 18 24  1  0
 22 25  2  0
 23 25  1  0
 24 26  2  0
 24 27  1  0
 26 28  1  0
 27 29  2  0
 28 30  2  0
 29 30  1  0
M  END
