diamond-x0926_0_A-mac-x0302
     RDKit          3D

 14 14  0  0  0  0  0  0  0  0999 V2000
   -6.9220   15.0360   -0.3710 O   0  0  0  0  0  0  0  0  0  0  0  0
   -5.7000   15.1320   -0.2450 C   0  0  0  0  0  0  0  0  0  0  0  0
   -5.0070   14.9220    1.0960 C   0  0  0  0  0  0  0  0  0  0  0  0
   -4.9310   15.4190   -1.3320 N   0  0  0  0  0  0  0  0  0  0  0  0
   -3.5600   15.1470   -1.3370 N   0  0  0  0  0  0  0  0  0  0  0  0
   -3.5230   14.9560    1.0200 C   0  0  0  0  0  0  0  0  0  0  0  0
   -2.9240   14.9990   -2.5690 C   0  0  0  0  0  0  0  0  0  0  0  0
   -2.8870   15.0550   -0.1430 C   0  0  0  0  0  0  0  0  0  0  0  0
   -1.7020   14.3680   -2.4420 N   0  0  0  0  0  0  0  0  0  0  0  0
   -3.3810   15.3680   -3.6470 O   0  0  0  0  0  0  0  0  0  0  0  0
   -0.6690   14.6070   -3.4300 C   0  0  0  0  0  0  0  0  0  0  0  0
    0.6460   14.0950   -2.8790 C   0  0  0  0  0  0  0  0  0  0  0  0
    1.6820   14.2860   -3.7090 O   0  0  0  0  0  0  0  0  0  0  0  0
    0.8020   13.5520   -1.7960 O   0  0  0  0  0  0  0  0  0  0  0  0
  1  2  2  0
  2  3  1  0
  2  4  1  0
  4  5  1  0
  3  6  1  0
  5  7  1  0
  5  8  1  0
  6  8  2  0
  7  9  1  0
  7 10  2  0
  9 11  1  0
 11 12  1  0
 12 13  1  0
 12 14  2  0
M  END
