diamond-x0855_0_A-mac-x0116
     RDKit          3D

 28 31  0  0  0  0  0  0  0  0999 V2000
    2.1540   12.7300   -2.7070 O   0  0  0  0  0  0  0  0  0  0  0  0
    0.8730   12.3620   -3.1690 C   0  0  0  0  0  0  0  0  0  0  0  0
    0.7050   12.5480   -4.6950 C   0  0  0  0  0  0  0  0  0  0  0  0
    0.6230   11.0300   -2.7580 O   0  0  0  0  0  0  0  0  0  0  0  0
   -0.1350   13.2810   -2.4620 C   0  0  0  0  0  0  0  0  0  0  0  0
    0.4130   14.1160   -1.2910 C   0  0  0  0  0  0  0  0  0  0  0  0
   -0.3560   11.6910   -5.1920 N   0  0  0  0  0  0  0  0  0  0  0  0
   -0.2670   10.7400   -6.1630 C   0  0  0  0  0  0  0  0  0  0  0  0
   -1.5970   11.8020   -4.6560 N   0  0  0  0  0  0  0  0  0  0  0  0
   -0.6120   14.3350   -0.3000 N   0  0  0  0  0  0  0  0  0  0  0  0
   -1.5200   10.1960   -6.2530 C   0  0  0  0  0  0  0  0  0  0  0  0
   -2.3060   10.8760   -5.3170 C   0  0  0  0  0  0  0  0  0  0  0  0
   -1.9050   14.6390   -0.5920 C   0  0  0  0  0  0  0  0  0  0  0  0
   -0.5000   14.2780    1.0670 C   0  0  0  0  0  0  0  0  0  0  0  0
   -2.1050    8.8270   -7.3770 Br  0  0  0  0  0  0  0  0  0  0  0  0
   -2.4530   14.7980   -1.8130 N   0  0  0  0  0  0  0  0  0  0  0  0
   -2.5290   14.7480    0.6340 C   0  0  0  0  0  0  0  0  0  0  0  0
   -1.6430   14.5190    1.6670 N   0  0  0  0  0  0  0  0  0  0  0  0
   -3.7610   15.0960   -1.7050 C   0  0  0  0  0  0  0  0  0  0  0  0
   -3.8950   15.0560    0.6240 C   0  0  0  0  0  0  0  0  0  0  0  0
   -4.6430   15.1870    1.7970 N   0  0  0  0  0  0  0  0  0  0  0  0
   -4.4950   15.2300   -0.5860 N   0  0  0  0  0  0  0  0  0  0  0  0
   -6.0280   14.7470    1.7120 C   0  0  0  0  0  0  0  0  0  0  0  0
   -6.3740   13.2960    1.7310 C   0  0  0  0  0  0  0  0  0  0  0  0
   -6.2710   12.6280    0.5400 O   0  0  0  0  0  0  0  0  0  0  0  0
   -6.8070   12.4370    2.7170 C   0  0  0  0  0  0  0  0  0  0  0  0
   -6.9830   11.1900    2.1000 C   0  0  0  0  0  0  0  0  0  0  0  0
   -6.6440   11.3510    0.7790 C   0  0  0  0  0  0  0  0  0  0  0  0
  2  1  1  0
  2  3  1  0
  2  4  1  0
  2  5  1  0
  5  6  1  0
  3  7  1  0
  7  8  1  0
  7  9  1  0
  6 10  1  0
  8 11  2  0
  9 12  2  0
 11 12  1  0
 10 13  1  0
 10 14  1  0
 11 15  1  0
 13 16  2  0
 13 17  1  0
 14 18  2  0
 17 18  1  0
 16 19  1  0
 17 20  2  0
 20 21  1  0
 19 22  2  0
 20 22  1  0
 21 23  1  0
 23 24  1  0
 24 25  1  0
 24 26  2  0
 26 27  1  0
 25 28  1  0
 27 28  2  0
M  END
