diamond-x0282_0_A-mac-x0402
     RDKit          3D

 19 21  0  0  0  0  0  0  0  0999 V2000
   -7.4450   13.6470    0.5780 C   0  0  0  0  0  0  0  0  0  0  0  0
   -8.5300   14.4940    0.2010 O   0  0  0  0  0  0  0  0  0  0  0  0
   -6.1430   14.4570    0.5580 C   0  0  1  0  0  0  0  0  0  0  0  0
   -5.6620   14.7470    1.9820 C   0  0  1  0  0  0  0  0  0  0  0  0
   -4.9350   13.7220   -0.0890 C   0  0  2  0  0  0  0  0  0  0  0  0
   -6.0470   13.6810    2.8910 N   0  0  0  0  0  0  0  0  0  0  0  0
   -4.1420   14.9220    1.8400 C   0  0  0  0  0  0  0  0  0  0  0  0
   -3.7750   14.6640    0.3580 C   0  0  1  0  0  0  0  0  0  0  0  0
   -5.1870   13.6010   -1.5730 C   0  0  0  0  0  0  0  0  0  0  0  0
   -2.2900   14.3700    0.3250 C   0  0  0  0  0  0  0  0  0  0  0  0
   -4.6440   14.3820   -2.4950 C   0  0  0  0  0  0  0  0  0  0  0  0
   -3.7430   15.8320   -0.6320 C   0  0  0  0  0  0  0  0  0  0  0  0
   -1.8240   14.1750   -0.9050 N   0  0  0  0  0  0  0  0  0  0  0  0
   -1.5430   14.3600    1.4590 N   0  0  0  0  0  0  0  0  0  0  0  0
   -3.7260   15.4760   -2.1460 C   0  0  1  0  0  0  0  0  0  0  0  0
   -2.1060   15.1960   -2.8720 Cl  0  0  0  0  0  0  0  0  0  0  0  0
   -0.5300   13.9670   -1.0480 C   0  0  0  0  0  0  0  0  0  0  0  0
   -0.2350   14.1440    1.2520 C   0  0  0  0  0  0  0  0  0  0  0  0
    0.3180   13.9440   -0.0060 C   0  0  0  0  0  0  0  0  0  0  0  0
  1  2  1  0
  3  1  1  1
  3  4  1  0
  3  5  1  0
  4  6  1  1
  4  7  1  0
  5  8  1  0
  7  8  1  0
  5  9  1  6
  8 10  1  1
  9 11  2  0
  8 12  1  0
 10 13  2  0
 10 14  1  0
 11 15  1  0
 12 15  1  0
 15 16  1  1
 13 17  1  0
 14 18  2  0
 17 19  2  0
 18 19  1  0
M  END
