diamond-x0895_0_A-mac-x0451
     RDKit          3D

 13 14  0  0  0  0  0  0  0  0999 V2000
   -1.8570   14.5840    1.7690 O   0  0  0  0  0  0  0  0  0  0  0  0
   -2.8410   14.9500    1.1140 C   0  0  0  0  0  0  0  0  0  0  0  0
   -4.0690   15.7810    1.5350 C   0  0  2  0  0  0  0  0  0  0  0  0
   -3.1610   14.7490   -0.2190 N   0  0  0  0  0  0  0  0  0  0  0  0
   -4.5930   15.7310    2.8750 N   0  0  0  0  0  0  0  0  0  0  0  0
   -5.1390   15.1440    0.8400 N   0  0  0  0  0  0  0  0  0  0  0  0
   -4.5510   14.7560   -0.3700 C   0  0  2  0  0  0  0  0  0  0  0  0
   -2.4180   14.2120   -1.3280 C   0  0  2  0  0  0  0  0  0  0  0  0
   -4.9210   13.4600   -0.6920 O   0  0  0  0  0  0  0  0  0  0  0  0
   -1.3370   14.9790   -1.6330 F   0  0  0  0  0  0  0  0  0  0  0  0
   -3.2690   14.1830   -2.6120 C   0  0  0  0  0  0  0  0  0  0  0  0
   -4.9350   15.5530   -1.5120 C   0  0  0  0  0  0  0  0  0  0  0  0
   -4.3010   15.2690   -2.6400 C   0  0  0  0  0  0  0  0  0  0  0  0
  1  2  2  0
  2  3  1  0
  2  4  1  0
  3  5  1  1
  3  6  1  0
  4  7  1  0
  6  7  1  0
  4  8  1  0
  7  9  1  6
  8 10  1  6
  8 11  1  0
  7 12  1  0
 11 13  1  0
 12 13  2  0
M  END
