diamond-x0844_0_A-diamond-x0849_0_A
     RDKit          3D

 13 14  0  0  0  0  0  0  0  0999 V2000
   -7.2590   14.5900    0.2940 O   0  0  0  0  0  0  0  0  0  0  0  0
   -6.0780   14.9180    0.1620 C   0  0  0  0  0  0  0  0  0  0  0  0
   -5.2400   15.1500    1.2090 N   0  0  0  0  0  0  0  0  0  0  0  0
   -5.4230   15.1210   -1.1680 C   0  0  0  0  0  0  0  0  0  0  0  0
   -3.9220   15.7330    1.0090 C   0  0  0  0  0  0  0  0  0  0  0  0
   -4.0220   14.5250   -1.1860 C   0  0  1  0  0  0  0  0  0  0  0  0
   -3.2700   14.8880   -2.9610 Br  0  0  0  0  0  0  0  0  0  0  0  0
   -3.0640   14.9570   -0.0290 C   0  0  1  0  0  0  0  0  0  0  0  0
   -1.7430   15.6510   -0.5660 C   0  0  0  0  0  0  0  0  0  0  0  0
   -2.6070   13.7750    0.7950 C   0  0  0  0  0  0  0  0  0  0  0  0
   -1.5790   14.1810    1.7340 N   0  0  0  0  0  0  0  0  0  0  0  0
   -0.4250   15.2720    0.0870 C   0  0  0  0  0  0  0  0  0  0  0  0
   -0.4190   14.5700    1.2000 C   0  0  0  0  0  0  0  0  0  0  0  0
  1  2  2  0
  2  3  1  0
  2  4  1  0
  3  5  1  0
  4  6  1  0
  6  7  1  6
  8  5  1  1
  6  8  1  0
  8  9  1  0
  8 10  1  0
 10 11  1  0
  9 12  1  0
 11 13  1  0
 12 13  2  0
M  END
