diamond-x0724_0_A-mac-x1494
     RDKit          3D

 20 22  0  0  0  0  0  0  0  0999 V2000
   -8.9540   14.1440    4.2710 N   0  0  0  0  0  0  0  0  0  0  0  0
   -8.5880   14.2340    5.6800 C   0  0  0  0  0  0  0  0  0  0  0  0
   -8.5730   15.3460    3.5270 C   0  0  0  0  0  0  0  0  0  0  0  0
   -7.8190   14.8910    2.3310 C   0  0  0  0  0  0  0  0  0  0  0  0
   -6.5160   14.4810    2.3010 C   0  0  0  0  0  0  0  0  0  0  0  0
   -8.2380   14.7680    0.9830 C   0  0  0  0  0  0  0  0  0  0  0  0
   -7.2630   14.3090    0.1790 N   0  0  0  0  0  0  0  0  0  0  0  0
   -6.2200   14.1370    1.0260 N   0  0  0  0  0  0  0  0  0  0  0  0
   -4.9060   13.6170    0.6330 C   0  0  2  0  0  0  0  0  0  0  0  0
   -3.7900   14.6540    0.7090 C   0  0  0  0  0  0  0  0  0  0  0  0
   -4.9010   12.8090   -0.6470 C   0  0  0  0  0  0  0  0  0  0  0  0
   -3.7320   15.4850    1.6180 O   0  0  0  0  0  0  0  0  0  0  0  0
   -2.7700   14.5770   -0.4110 C   0  0  0  0  0  0  0  0  0  0  0  0
   -4.2740   13.2000   -1.7450 C   0  0  0  0  0  0  0  0  0  0  0  0
   -3.5820   14.5010   -1.7180 C   0  0  2  0  0  0  0  0  0  0  0  0
   -3.0760   15.0190   -3.1060 C   0  0  1  0  0  0  0  0  0  0  0  0
   -4.7650   15.4590   -1.5320 C   0  0  0  0  0  0  0  0  0  0  0  0
   -1.9640   14.0120   -4.0760 Cl  0  0  0  0  0  0  0  0  0  0  0  0
   -5.3890   15.2110   -2.8580 C   0  0  0  0  0  0  0  0  0  0  0  0
   -4.4210   14.9600   -3.7630 C   0  0  0  0  0  0  0  0  0  0  0  0
  1  2  1  0
  1  3  1  0
  3  4  1  0
  4  5  2  0
  4  6  1  0
  6  7  2  0
  5  8  1  0
  7  8  1  0
  9  8  1  6
  9 10  1  0
  9 11  1  0
 10 12  2  0
 10 13  1  0
 11 14  2  0
 15 13  1  1
 15 14  1  0
 15 16  1  0
 15 17  1  0
 16 18  1  6
 17 19  1  0
 16 20  1  0
 19 20  2  0
M  END
