diamond-x0722_0_A-mac-x0123
     RDKit          3D

 24 27  0  0  0  0  0  0  0  0999 V2000
   -4.6630   15.0010    1.5460 C   0  0  0  0  0  0  0  0  0  0  0  0
   -3.3440   14.8320    0.9100 C   0  0  0  0  0  0  0  0  0  0  0  0
   -2.3400   14.5160    1.7050 N   0  0  0  0  0  0  0  0  0  0  0  0
   -5.7200   14.2160    0.8380 C   0  0  0  0  0  0  0  0  0  0  0  0
   -2.9390   14.9480   -0.4610 C   0  0  0  0  0  0  0  0  0  0  0  0
   -5.3650   13.4770   -0.3140 N   0  0  0  0  0  0  0  0  0  0  0  0
   -6.9960   14.1690    1.2290 C   0  0  0  0  0  0  0  0  0  0  0  0
   -3.7470   15.2910   -1.6870 C   0  0  0  0  0  0  0  0  0  0  0  0
   -1.5880   14.6600   -0.4150 C   0  0  0  0  0  0  0  0  0  0  0  0
   -1.3090   14.4170    0.8960 N   0  0  0  0  0  0  0  0  0  0  0  0
   -6.3230   12.7490   -1.0500 C   0  0  0  0  0  0  0  0  0  0  0  0
   -7.9260   13.3730    0.3850 C   0  0  0  0  0  0  0  0  0  0  0  0
   -7.7920   14.7430    2.3510 C   0  0  0  0  0  0  0  0  0  0  0  0
   -4.1590   13.3090   -0.9090 N   0  0  0  0  0  0  0  0  0  0  0  0
   -0.0580   14.0790    1.4510 C   0  0  0  0  0  0  0  0  0  0  0  0
   -0.5420   14.5930   -1.4620 C   0  0  0  0  0  0  0  0  0  0  0  0
   -5.1800   15.6150   -1.3570 C   0  0  0  0  0  0  0  0  0  0  0  0
   -7.6420   12.7100   -0.6850 N   0  0  0  0  0  0  0  0  0  0  0  0
   -9.3020   13.4480    0.9650 C   0  0  0  0  0  0  0  0  0  0  0  0
   -8.9650   13.7690    2.4210 C   0  0  0  0  0  0  0  0  0  0  0  0
   -5.7360   12.1600   -2.0750 N   0  0  0  0  0  0  0  0  0  0  0  0
   -4.4380   12.5290   -1.9430 C   0  0  0  0  0  0  0  0  0  0  0  0
   -5.5070   16.2510   -0.3850 O   0  0  0  0  0  0  0  0  0  0  0  0
   -6.1230   15.1550   -2.2280 N   0  0  0  0  0  0  0  0  0  0  0  0
  1  2  1  0
  2  3  2  0
  1  4  1  0
  2  5  1  0
  4  6  1  0
  4  7  2  0
  5  8  1  0
  5  9  2  0
  3 10  1  0
  9 10  1  0
  6 11  1  0
  7 12  1  0
  7 13  1  0
  6 14  1  0
 10 15  1  0
  9 16  1  0
  8 17  1  0
 11 18  1  0
 12 18  2  0
 12 19  1  0
 13 20  1  0
 19 20  1  0
 11 21  2  0
 14 22  2  0
 21 22  1  0
 17 23  2  0
 17 24  1  0
M  END
