diamond-x0282_0_A-mac-x0565
     RDKit          3D

 25 28  0  0  0  0  0  0  0  0999 V2000
   -7.5410   13.5170    0.2900 C   0  0  0  0  0  0  0  0  0  0  0  0
   -7.7910   14.9010   -0.0570 N   0  0  0  0  0  0  0  0  0  0  0  0
   -7.0990   15.5910   -0.9290 C   0  0  0  0  0  0  0  0  0  0  0  0
   -6.0740   13.3470    0.5890 C   0  0  0  0  0  0  0  0  0  0  0  0
   -5.4810   14.4550    1.4640 C   0  0  0  0  0  0  0  0  0  0  0  0
   -5.3330   13.2150   -0.7350 C   0  0  0  0  0  0  0  0  0  0  0  0
   -7.4860   16.8470   -1.1100 O   0  0  0  0  0  0  0  0  0  0  0  0
   -4.0130   14.1630    1.6930 C   0  0  0  0  0  0  0  0  0  0  0  0
   -3.8520   13.0480   -0.5380 C   0  0  0  0  0  0  0  0  0  0  0  0
   -5.9280   15.2660   -1.8170 C   0  0  0  0  0  0  0  0  0  0  0  0
   -3.3540   14.0140    0.4220 N   0  0  0  0  0  0  0  0  0  0  0  0
   -4.5790   15.4510   -1.4070 C   0  0  0  0  0  0  0  0  0  0  0  0
   -6.1890   14.7770   -3.1170 C   0  0  0  0  0  0  0  0  0  0  0  0
   -2.0390   14.3020    0.3490 C   0  0  0  0  0  0  0  0  0  0  0  0
   -3.5760   15.1370   -2.3340 C   0  0  0  0  0  0  0  0  0  0  0  0
   -5.1530   14.4790   -4.0070 C   0  0  0  0  0  0  0  0  0  0  0  0
   -1.5440   14.4370   -0.8790 N   0  0  0  0  0  0  0  0  0  0  0  0
   -1.3120   14.4300    1.4690 N   0  0  0  0  0  0  0  0  0  0  0  0
   -3.8620   14.6720   -3.5930 C   0  0  0  0  0  0  0  0  0  0  0  0
   -2.2330   15.2380   -2.1550 O   0  0  0  0  0  0  0  0  0  0  0  0
   -0.2650   14.7240   -1.0240 C   0  0  0  0  0  0  0  0  0  0  0  0
   -0.0260   14.7110    1.2600 C   0  0  0  0  0  0  0  0  0  0  0  0
   -2.7520   14.4360   -4.3500 O   0  0  0  0  0  0  0  0  0  0  0  0
   -1.7150   14.8030   -3.4280 C   0  0  0  0  0  0  0  0  0  0  0  0
    0.5510   14.8770    0.0240 C   0  0  0  0  0  0  0  0  0  0  0  0
  1  2  1  0
  2  3  2  3
  1  4  1  0
  4  5  1  0
  4  6  1  0
  3  7  1  0
  5  8  1  0
  6  9  1  0
  3 10  1  0
  8 11  1  0
  9 11  1  0
 10 12  2  0
 10 13  1  0
 11 14  1  0
 12 15  1  0
 13 16  2  0
 14 17  2  0
 14 18  1  0
 15 19  2  0
 16 19  1  0
 15 20  1  0
 17 21  1  0
 18 22  2  0
 19 23  1  0
 20 24  1  0
 23 24  1  0
 21 25  2  0
 22 25  1  0
M  END
