diamond-x0926_0_A-mac-x0455
     RDKit          3D

 19 20  0  0  0  0  0  0  0  0999 V2000
   -6.5500   15.0730   -0.7000 O   0  0  0  0  0  0  0  0  0  0  0  0
   -5.3260   15.1370   -0.5510 C   0  0  0  0  0  0  0  0  0  0  0  0
   -4.6800   15.0130    0.8210 C   0  0  0  0  0  0  0  0  0  0  0  0
   -4.4890   15.3160   -1.6470 N   0  0  0  0  0  0  0  0  0  0  0  0
   -3.0780   15.1630   -1.5490 N   0  0  0  0  0  0  0  0  0  0  0  0
   -3.2400   15.3820    0.8310 C   0  0  0  0  0  0  0  0  0  0  0  0
   -2.5380   15.4420   -0.3070 C   0  0  0  0  0  0  0  0  0  0  0  0
   -2.5420   14.0070   -2.3490 C   0  0  0  0  0  0  0  0  0  0  0  0
   -1.2340   14.1530   -3.2210 C   0  0  1  0  0  0  0  0  0  0  0  0
   -1.3300   15.3860   -3.9910 O   0  0  0  0  0  0  0  0  0  0  0  0
    0.0230   14.2690   -2.3280 C   0  0  0  0  0  0  0  0  0  0  0  0
   -1.1130   13.0100   -4.2410 C   0  0  0  0  0  0  0  0  0  0  0  0
    0.5040   15.3440   -1.9970 O   0  0  0  0  0  0  0  0  0  0  0  0
    0.5850   13.1020   -1.9360 O   0  0  0  0  0  0  0  0  0  0  0  0
   -2.0920   12.0050   -4.3570 C   0  0  0  0  0  0  0  0  0  0  0  0
    0.0080   12.9250   -5.1060 C   0  0  0  0  0  0  0  0  0  0  0  0
   -1.9630   10.9670   -5.2860 C   0  0  0  0  0  0  0  0  0  0  0  0
    0.1330   11.8840   -6.0340 C   0  0  0  0  0  0  0  0  0  0  0  0
   -0.8520   10.9060   -6.1230 C   0  0  0  0  0  0  0  0  0  0  0  0
  1  2  2  0
  2  3  1  0
  2  4  1  0
  4  5  1  0
  3  6  1  0
  5  7  1  0
  6  7  2  0
  5  8  1  0
  8  9  1  0
  9 10  1  6
  9 11  1  0
  9 12  1  0
 11 13  2  0
 11 14  1  0
 12 15  2  0
 12 16  1  0
 15 17  1  0
 16 18  2  0
 17 19  2  0
 18 19  1  0
M  END
