diamond-x0685_0_A-diamond-x0900_0_A
     RDKit          3D

 12 12  0  0  0  0  0  0  0  0999 V2000
   -6.1500   14.9400    2.6610 N   0  0  0  0  0  0  0  0  0  0  0  0
   -7.5950   14.7580    2.5460 C   0  0  0  0  0  0  0  0  0  0  0  0
   -8.0850   13.3750    2.9470 C   0  0  0  0  0  0  0  0  0  0  0  0
   -5.3190   15.0640    1.4890 C   0  0  1  0  0  0  0  0  0  0  0  0
   -4.0060   14.4000    1.3390 C   0  0  0  0  0  0  0  0  0  0  0  0
   -6.1260   14.8050    0.3610 N   0  0  0  0  0  0  0  0  0  0  0  0
   -3.4020   14.4930    0.1480 C   0  0  0  0  0  0  0  0  0  0  0  0
   -5.6300   15.0290   -0.8720 C   0  0  0  0  0  0  0  0  0  0  0  0
   -6.4030   15.0390   -1.8200 O   0  0  0  0  0  0  0  0  0  0  0  0
   -4.1140   15.2650   -0.9490 C   0  0  2  0  0  0  0  0  0  0  0  0
   -3.5900   15.0010   -2.2930 C   0  0  0  0  0  0  0  0  0  0  0  0
   -3.1730   14.8690   -3.3710 N   0  0  0  0  0  0  0  0  0  0  0  0
  1  2  1  0
  2  3  1  0
  4  1  1  1
  4  5  1  0
  4  6  1  0
  5  7  2  0
  6  8  1  0
  8  9  2  0
  7 10  1  0
  8 10  1  0
 10 11  1  6
 11 12  3  0
M  END
