diamond-x0727_0_A-mac-x0282
     RDKit          3D

 23 25  0  0  0  0  0  0  0  0999 V2000
    0.2060   11.4350   -5.4840 N   0  0  0  0  0  0  0  0  0  0  0  0
    0.9750   12.4070   -4.6990 C   0  0  1  0  0  0  0  0  0  0  0  0
    0.6620   13.8120   -5.1790 C   0  0  0  0  0  0  0  0  0  0  0  0
    0.7140   11.1100   -6.7180 C   0  0  0  0  0  0  0  0  0  0  0  0
    1.6450   11.7270   -7.1750 O   0  0  0  0  0  0  0  0  0  0  0  0
    0.6410   12.3130   -3.2050 C   0  0  0  0  0  0  0  0  0  0  0  0
    0.1030    9.9380   -7.4740 C   0  0  0  0  0  0  0  0  0  0  0  0
    0.5040   11.2630   -2.5730 O   0  0  0  0  0  0  0  0  0  0  0  0
    0.5140   13.5990   -2.7430 O   0  0  0  0  0  0  0  0  0  0  0  0
   -1.1940   10.3170   -8.1950 C   0  0  0  0  0  0  0  0  0  0  0  0
   -0.2310    8.7300   -6.5800 C   0  0  0  0  0  0  0  0  0  0  0  0
    0.9330   14.0130   -1.4250 C   0  0  0  0  0  0  0  0  0  0  0  0
   -2.1160    9.1200   -8.0120 C   0  0  0  0  0  0  0  0  0  0  0  0
   -1.7370    8.5500   -6.6560 C   0  0  0  0  0  0  0  0  0  0  0  0
   -0.2950   14.3160   -0.6140 C   0  0  0  0  0  0  0  0  0  0  0  0
   -1.4500   14.6340   -1.3090 C   0  0  0  0  0  0  0  0  0  0  0  0
   -0.3610   14.2980    0.7960 C   0  0  0  0  0  0  0  0  0  0  0  0
   -2.6000   14.9120   -0.5830 C   0  0  0  0  0  0  0  0  0  0  0  0
   -1.4510   14.5600    1.5600 N   0  0  0  0  0  0  0  0  0  0  0  0
   -3.9240   15.2660   -0.9220 C   0  0  0  0  0  0  0  0  0  0  0  0
   -2.5230   14.8550    0.8050 C   0  0  0  0  0  0  0  0  0  0  0  0
   -4.6170   15.4090    0.2480 C   0  0  0  0  0  0  0  0  0  0  0  0
   -3.7620   15.1580    1.2880 N   0  0  0  0  0  0  0  0  0  0  0  0
  1  2  1  0
  2  3  1  6
  1  4  1  0
  4  5  2  0
  2  6  1  0
  4  7  1  0
  6  8  2  0
  6  9  1  0
  7 10  1  0
  7 11  1  0
  9 12  1  0
 10 13  1  0
 11 14  1  0
 13 14  1  0
 12 15  1  0
 15 16  2  0
 15 17  1  0
 16 18  1  0
 17 19  2  0
 18 20  1  0
 18 21  2  0
 19 21  1  0
 20 22  2  0
 21 23  1  0
 22 23  1  0
M  END
