diamond-x0895_0_A-diamond-x1015_0_A
     RDKit          3D

 24 26  0  0  0  0  0  0  0  0999 V2000
   -1.4900   14.5630    1.8240 O   0  0  0  0  0  0  0  0  0  0  0  0
   -2.5290   14.6950    1.1930 C   0  0  0  0  0  0  0  0  0  0  0  0
   -3.9320   14.8730    1.7530 C   0  0  0  0  0  0  0  0  0  0  0  0
   -2.6590   14.7130   -0.1760 N   0  0  0  0  0  0  0  0  0  0  0  0
   -4.6590   15.2760    0.5740 N   0  0  0  0  0  0  0  0  0  0  0  0
   -3.9050   15.1090   -0.5380 C   0  0  0  0  0  0  0  0  0  0  0  0
   -4.3780   15.3100   -1.7100 N   0  0  0  0  0  0  0  0  0  0  0  0
   -3.6420   15.1540   -2.9660 C   0  0  0  0  0  0  0  0  0  0  0  0
   -2.2950   14.4750   -2.7600 C   0  0  0  0  0  0  0  0  0  0  0  0
   -1.4280   14.3740   -4.0280 C   0  0  0  0  0  0  0  0  0  0  0  0
   -0.0700   13.6600   -3.9180 C   0  0  2  0  0  0  0  0  0  0  0  0
   -0.0780   12.2050   -3.9360 N   0  0  0  0  0  0  0  0  0  0  0  0
    0.5620   13.9110   -2.5510 C   0  0  0  0  0  0  0  0  0  0  0  0
    0.7540   14.9940   -2.0270 O   0  0  0  0  0  0  0  0  0  0  0  0
    0.3430   11.6930   -2.7000 C   0  0  0  0  0  0  0  0  0  0  0  0
    0.8820   12.7180   -1.9970 N   0  0  0  0  0  0  0  0  0  0  0  0
   -0.4830   11.4210   -5.0450 C   0  0  0  0  0  0  0  0  0  0  0  0
    0.2640   10.5380   -2.2750 O   0  0  0  0  0  0  0  0  0  0  0  0
    0.0760   11.6220   -6.3130 C   0  0  0  0  0  0  0  0  0  0  0  0
   -1.4540   10.4210   -4.9050 C   0  0  0  0  0  0  0  0  0  0  0  0
   -0.3200   10.8480   -7.4090 C   0  0  0  0  0  0  0  0  0  0  0  0
   -1.8530    9.6450   -5.9950 C   0  0  0  0  0  0  0  0  0  0  0  0
   -1.2880    9.8590   -7.2410 C   0  0  0  0  0  0  0  0  0  0  0  0
   -1.7820    8.9030   -8.5810 Cl  0  0  0  0  0  0  0  0  0  0  0  0
  1  2  2  0
  2  3  1  0
  2  4  1  0
  3  5  1  0
  4  6  1  0
  5  6  1  0
  6  7  2  3
  7  8  1  0
  8  9  1  0
  9 10  1  0
 11 10  1  1
 11 12  1  0
 11 13  1  0
 13 14  2  0
 12 15  1  0
 13 16  1  0
 15 16  1  0
 12 17  1  0
 15 18  2  0
 17 19  2  0
 17 20  1  0
 19 21  1  0
 20 22  2  0
 21 23  2  0
 22 23  1  0
 23 24  1  0
M  END
