diamond-x0926_0_A-diamond-x0844_0_A
     RDKit          3D

  8  8  0  0  0  0  0  0  0  0999 V2000
   -6.8080   14.9940   -0.4290 O   0  0  0  0  0  0  0  0  0  0  0  0
   -5.5860   15.1190   -0.3250 C   0  0  0  0  0  0  0  0  0  0  0  0
   -4.8690   14.9140    1.0090 C   0  0  0  0  0  0  0  0  0  0  0  0
   -4.8350   15.4340   -1.4230 N   0  0  0  0  0  0  0  0  0  0  0  0
   -3.4600   15.5190   -1.3520 N   0  0  0  0  0  0  0  0  0  0  0  0
   -3.4260   15.3010    1.0110 C   0  0  0  0  0  0  0  0  0  0  0  0
   -2.5450   15.0150   -2.8690 Br  0  0  0  0  0  0  0  0  0  0  0  0
   -2.8150   15.5780   -0.1450 C   0  0  0  0  0  0  0  0  0  0  0  0
  1  2  2  0
  2  3  1  0
  2  4  1  0
  4  5  1  0
  3  6  1  0
  5  7  1  0
  5  8  1  0
  6  8  2  0
M  END
