diamond-x0299_0_A-diamond-x0814_0_B
     RDKit          3D

 31 33  0  0  0  0  0  0  0  0999 V2000
   14.4700    7.7260   12.7130 N   0  0  0  0  0  0  0  0  0  0  0  0
   15.1860    8.4580   13.6010 C   0  0  0  0  0  0  0  0  0  0  0  0
   16.2900    8.9290   13.3580 O   0  0  0  0  0  0  0  0  0  0  0  0
   14.2180    8.0740   11.3380 C   0  0  1  0  0  0  0  0  0  0  0  0
   14.4540    8.5970   14.9130 C   0  0  0  0  0  0  0  0  0  0  0  0
   14.8460    9.3550   10.7630 C   0  0  0  0  0  0  0  0  0  0  0  0
   14.5260    6.8310   10.5560 C   0  0  0  0  0  0  0  0  0  0  0  0
   15.0490    7.7130   16.0030 C   0  0  0  0  0  0  0  0  0  0  0  0
   14.2890    5.6140   11.1370 N   0  0  0  0  0  0  0  0  0  0  0  0
   15.0220    6.6930    9.3300 N   0  0  0  0  0  0  0  0  0  0  0  0
   14.6940   10.6870   11.5480 C   0  0  2  0  0  0  0  0  0  0  0  0
   16.0340    8.4810   16.8700 C   0  0  0  0  0  0  0  0  0  0  0  0
   15.1060    5.3130    9.1550 C   0  0  0  0  0  0  0  0  0  0  0  0
   14.6460    4.6350   10.2740 C   0  0  0  0  0  0  0  0  0  0  0  0
   13.2360   10.8360   11.9050 C   0  0  0  0  0  0  0  0  0  0  0  0
   15.1270   12.0030   10.8610 C   0  0  0  0  0  0  0  0  0  0  0  0
   14.6040    3.2430   10.3880 C   0  0  0  0  0  0  0  0  0  0  0  0
   15.5660    4.5510    8.0670 C   0  0  0  0  0  0  0  0  0  0  0  0
   13.1560   11.9000   12.8820 N   0  0  0  0  0  0  0  0  0  0  0  0
   14.7760   13.2550   11.6690 C   0  0  2  0  0  0  0  0  0  0  0  0
   15.8670   14.3370   11.7390 C   0  0  0  0  0  0  0  0  0  0  0  0
   11.6500   12.4460   13.2580 S   0  0  0  0  0  0  0  0  0  0  0  0
   15.0610    2.5130    9.2910 C   0  0  0  0  0  0  0  0  0  0  0  0
   15.5350    3.1540    8.1490 C   0  0  0  0  0  0  0  0  0  0  0  0
   14.3410   12.7810   13.0470 C   0  0  1  0  0  0  0  0  0  0  0  0
   14.1390   13.9330   14.0170 C   0  0  0  0  0  0  0  0  0  0  0  0
   11.6970   13.8790   13.0640 O   0  0  0  0  0  0  0  0  0  0  0  0
   17.1530   13.9110   11.5400 N   0  0  0  0  0  0  0  0  0  0  0  0
   10.6450   11.5910   12.6290 O   0  0  0  0  0  0  0  0  0  0  0  0
   15.6710   15.5270   11.9620 O   0  0  0  0  0  0  0  0  0  0  0  0
   11.6680   12.0720   15.0040 C   0  0  0  0  0  0  0  0  0  0  0  0
  1  2  1  0
  2  3  2  0
  1  4  1  0
  2  5  1  0
  4  6  1  6
  4  7  1  0
  5  8  1  0
  7  9  1  0
  7 10  2  0
 11  6  1  6
  8 12  1  0
 10 13  1  0
  9 14  1  0
 13 14  2  0
 11 15  1  0
 11 16  1  0
 14 17  1  0
 13 18  1  0
 15 19  1  0
 16 20  1  0
 20 21  1  1
 19 22  1  0
 17 23  2  0
 18 24  2  0
 23 24  1  0
 19 25  1  0
 20 25  1  0
 25 26  1  1
 22 27  2  0
 21 28  1  0
 22 29  2  0
 21 30  2  0
 22 31  1  0
M  END
