diamond-x0910_1_A-mac-x0415
     RDKit          3D

 23 25  0  0  0  0  0  0  0  0999 V2000
   -7.5340   14.0990    1.4080 N   0  0  0  0  0  0  0  0  0  0  0  0
   -6.5760   14.5620    0.6100 C   0  0  0  0  0  0  0  0  0  0  0  0
   -6.6240   14.6300   -0.7130 N   0  0  0  0  0  0  0  0  0  0  0  0
   -5.4220   15.0170    1.1700 N   0  0  0  0  0  0  0  0  0  0  0  0
   -5.4200   15.1610   -0.9930 N   0  0  0  0  0  0  0  0  0  0  0  0
   -4.7090   15.3910    0.1380 C   0  0  0  0  0  0  0  0  0  0  0  0
   -5.0250   15.4230   -2.3510 C   0  0  0  0  0  0  0  0  0  0  0  0
   -4.4560   14.2590   -3.1590 C   0  0  0  0  0  0  0  0  0  0  0  0
   -4.6880   14.4430   -4.6700 C   0  0  0  0  0  0  0  0  0  0  0  0
   -3.9510   15.5260   -5.2720 O   0  0  0  0  0  0  0  0  0  0  0  0
   -2.5900   15.6140   -5.1240 C   0  0  0  0  0  0  0  0  0  0  0  0
   -2.0290   16.8860   -5.6200 C   0  0  0  0  0  0  0  0  0  0  0  0
   -1.7790   14.6680   -4.5930 C   0  0  0  0  0  0  0  0  0  0  0  0
   -0.3760   14.9460   -4.5140 C   0  0  0  0  0  0  0  0  0  0  0  0
   -0.7740   17.2700   -5.2970 C   0  0  0  0  0  0  0  0  0  0  0  0
    0.6810   14.1420   -4.4900 C   0  0  0  0  0  0  0  0  0  0  0  0
    0.0090   16.3730   -4.4030 C   0  0  2  0  0  0  0  0  0  0  0  0
    0.8860   12.6860   -4.5190 C   0  0  0  0  0  0  0  0  0  0  0  0
    1.7540   15.1230   -4.4370 C   0  0  0  0  0  0  0  0  0  0  0  0
    1.4460   16.3800   -4.4360 N   0  0  0  0  0  0  0  0  0  0  0  0
    0.7240   12.1560   -3.1130 C   0  0  0  0  0  0  0  0  0  0  0  0
   -0.0500   11.0570   -3.0420 O   0  0  0  0  0  0  0  0  0  0  0  0
    1.2120   12.6340   -2.1030 O   0  0  0  0  0  0  0  0  0  0  0  0
  1  2  1  0
  2  3  2  0
  2  4  1  0
  3  5  1  0
  4  6  2  0
  5  6  1  0
  5  7  1  0
  7  8  1  0
  8  9  1  0
  9 10  1  0
 10 11  1  0
 11 12  1  0
 11 13  2  0
 13 14  1  0
 12 15  2  0
 14 16  2  0
 14 17  1  0
 17 15  1  6
 16 18  1  0
 16 19  1  0
 17 20  1  0
 19 20  2  0
 18 21  1  0
 21 22  1  0
 21 23  2  0
M  END
