diamond-x0910_0_A-mac-x0142
     RDKit          3D

 16 19  0  0  0  0  0  0  0  0999 V2000
   -3.1210   13.2500   -1.4970 N   0  0  0  0  0  0  0  0  0  0  0  0
   -2.3320   14.3850   -1.0980 C   0  0  1  0  0  0  0  0  0  0  0  0
   -2.2480   14.3330    0.4080 N   0  0  0  0  0  0  0  0  0  0  0  0
   -0.8410   14.2260   -1.6120 C   0  0  1  0  0  0  0  0  0  0  0  0
   -3.3460   15.4600   -1.3630 C   0  0  0  0  0  0  0  0  0  0  0  0
   -0.9710   14.9200    0.7590 N   0  0  0  0  0  0  0  0  0  0  0  0
   -0.0470   14.3550   -0.2590 C   0  0  0  0  0  0  0  0  0  0  0  0
   -0.8500   12.7660   -2.2230 C   0  0  0  0  0  0  0  0  0  0  0  0
   -0.1670   15.0240   -2.7850 C   0  0  0  0  0  0  0  0  0  0  0  0
   -3.3360   15.1180    0.8730 N   0  0  0  0  0  0  0  0  0  0  0  0
   -3.8960   15.7970   -0.1830 C   0  0  0  0  0  0  0  0  0  0  0  0
    0.5790   14.0430   -3.7350 C   0  0  0  0  0  0  0  0  0  0  0  0
   -1.3620   12.6650   -3.6890 C   0  0  0  0  0  0  0  0  0  0  0  0
    2.0030   14.2350   -4.2200 C   0  0  0  0  0  0  0  0  0  0  0  0
    1.7410   13.2680   -3.1130 C   0  0  0  0  0  0  0  0  0  0  0  0
   -0.3390   13.2570   -4.6230 C   0  0  0  0  0  0  0  0  0  0  0  0
  2  1  1  6
  2  3  1  0
  2  4  1  0
  2  5  1  0
  3  6  1  0
  4  7  1  1
  6  7  1  0
  4  8  1  0
  4  9  1  0
  3 10  1  0
  5 11  2  0
 10 11  1  0
 12  9  1  0
  8 13  1  0
 12 14  1  0
 12 15  1  0
 14 15  1  0
 12 16  1  0
 13 16  1  0
M  END
