diamond-x0465_0_A-mac-x0159
     RDKit          3D

 31 34  0  0  0  0  0  0  0  0999 V2000
    2.3910   12.9270   -4.7960 C   0  0  0  0  0  0  0  0  0  0  0  0
    0.9650   12.3800   -4.7630 C   0  0  1  0  0  0  0  0  0  0  0  0
    0.6750   11.5370   -5.8670 O   0  0  0  0  0  0  0  0  0  0  0  0
    0.4130   11.9630   -3.3970 C   0  0  0  0  0  0  0  0  0  0  0  0
   -0.5170   12.6370   -2.9000 N   0  0  0  0  0  0  0  0  0  0  0  0
    0.9470   10.8860   -2.8160 O   0  0  0  0  0  0  0  0  0  0  0  0
   -0.4460   10.7600   -5.9600 C   0  0  0  0  0  0  0  0  0  0  0  0
   -1.0400   13.7680   -3.6710 C   0  0  0  0  0  0  0  0  0  0  0  0
   -0.5990    9.5990   -6.7060 C   0  0  0  0  0  0  0  0  0  0  0  0
   -1.5460   11.2050   -5.2100 C   0  0  0  0  0  0  0  0  0  0  0  0
    0.3970    9.1070   -7.4480 F   0  0  0  0  0  0  0  0  0  0  0  0
   -0.6980   15.0840   -2.9550 C   0  0  2  0  0  0  0  0  0  0  0  0
   -1.8010    8.8920   -6.7140 C   0  0  0  0  0  0  0  0  0  0  0  0
   -2.7580   10.5040   -5.2120 C   0  0  0  0  0  0  0  0  0  0  0  0
   -2.8850    9.3430   -5.9660 C   0  0  0  0  0  0  0  0  0  0  0  0
   -1.6510   15.4870   -1.9080 N   0  0  0  0  0  0  0  0  0  0  0  0
   -0.3590   16.1870   -3.9460 C   0  0  0  0  0  0  0  0  0  0  0  0
   -3.0540   15.2320   -2.2500 C   0  0  0  0  0  0  0  0  0  0  0  0
   -1.3110   14.8120   -0.7020 C   0  0  2  0  0  0  0  0  0  0  0  0
    0.9160   16.6420   -4.2200 C   0  0  0  0  0  0  0  0  0  0  0  0
   -1.3670   16.8240   -4.6670 N   0  0  0  0  0  0  0  0  0  0  0  0
   -3.9760   15.4910   -1.1220 N   0  0  0  0  0  0  0  0  0  0  0  0
   -2.1550   15.2240    0.4550 C   0  0  1  0  0  0  0  0  0  0  0  0
    0.0190   15.0200   -0.1630 N   0  0  0  0  0  0  0  0  0  0  0  0
   -0.8330   17.7420   -5.4510 C   0  0  0  0  0  0  0  0  0  0  0  0
    0.8690   17.8890   -5.3850 S   0  0  0  0  0  0  0  0  0  0  0  0
   -1.6010   18.6270   -6.3630 C   0  0  0  0  0  0  0  0  0  0  0  0
   -3.6000   14.8480    0.1250 C   0  0  1  0  0  0  0  0  0  0  0  0
   -1.5370   14.4830    1.5530 N   0  0  0  0  0  0  0  0  0  0  0  0
   -0.1360   14.3840    1.1440 C   0  0  0  0  0  0  0  0  0  0  0  0
   -4.5440   15.3480    1.1090 N   0  0  0  0  0  0  0  0  0  0  0  0
  2  1  1  1
  2  3  1  0
  2  4  1  0
  4  5  2  3
  4  6  1  0
  3  7  1  0
  5  8  1  0
  7  9  2  0
  7 10  1  0
  9 11  1  0
 12  8  1  6
  9 13  1  0
 10 14  2  0
 13 15  2  0
 14 15  1  0
 12 16  1  0
 12 17  1  0
 16 18  1  0
 16 19  1  0
 17 20  2  0
 17 21  1  0
 18 22  1  0
 19 23  1  0
 19 24  1  1
 21 25  2  0
 20 26  1  0
 25 26  1  0
 25 27  1  0
 22 28  1  0
 23 28  1  0
 23 29  1  1
 24 30  1  0
 29 30  1  0
 28 31  1  1
M  END
