diamond-x0471_0_A-mac-x0302
     RDKit          3D

 24 25  0  0  0  0  0  0  0  0999 V2000
   -9.0200   14.0250    2.9320 N   0  0  0  0  0  0  0  0  0  0  0  0
   -9.0060   14.9830    3.9110 C   0  0  0  0  0  0  0  0  0  0  0  0
   -9.2410   16.1670    3.6670 O   0  0  0  0  0  0  0  0  0  0  0  0
   -9.0500   14.4060    1.5470 C   0  0  0  0  0  0  0  0  0  0  0  0
   -8.6920   14.4350    5.2930 C   0  0  0  0  0  0  0  0  0  0  0  0
   -7.6600   14.5840    1.0710 C   0  0  0  0  0  0  0  0  0  0  0  0
   -9.8880   13.6460    5.8300 C   0  0  0  0  0  0  0  0  0  0  0  0
   -8.3070   15.5700    6.2350 C   0  0  0  0  0  0  0  0  0  0  0  0
   -7.4070   14.7120   -0.2560 N   0  0  0  0  0  0  0  0  0  0  0  0
   -6.5450   14.6400    1.7720 N   0  0  0  0  0  0  0  0  0  0  0  0
   -5.5340   14.8070    0.8570 C   0  0  0  0  0  0  0  0  0  0  0  0
   -6.0670   14.8520   -0.4160 C   0  0  0  0  0  0  0  0  0  0  0  0
   -5.3220   15.0010   -1.5430 C   0  0  0  0  0  0  0  0  0  0  0  0
   -4.1460   14.9280    1.0260 C   0  0  0  0  0  0  0  0  0  0  0  0
   -5.9980   15.0240   -2.7200 O   0  0  0  0  0  0  0  0  0  0  0  0
   -3.9270   15.1070   -1.4080 C   0  0  0  0  0  0  0  0  0  0  0  0
   -3.3520   15.0740   -0.1180 C   0  0  0  0  0  0  0  0  0  0  0  0
   -2.9860   15.2450   -2.5580 C   0  0  0  0  0  0  0  0  0  0  0  0
   -1.7210   14.7500   -2.3590 N   0  0  0  0  0  0  0  0  0  0  0  0
   -3.3420   15.7490   -3.6130 O   0  0  0  0  0  0  0  0  0  0  0  0
   -0.7530   14.6500   -3.4300 C   0  0  0  0  0  0  0  0  0  0  0  0
    0.5560   14.1070   -2.8820 C   0  0  0  0  0  0  0  0  0  0  0  0
    1.6000   14.3050   -3.7100 O   0  0  0  0  0  0  0  0  0  0  0  0
    0.7240   13.5420   -1.8130 O   0  0  0  0  0  0  0  0  0  0  0  0
  1  2  1  0
  2  3  2  0
  1  4  1  0
  2  5  1  0
  4  6  1  0
  5  7  1  0
  5  8  1  0
  6  9  1  0
  6 10  2  0
 10 11  1  0
  9 12  1  0
 11 12  2  0
 12 13  1  0
 11 14  1  0
 13 15  1  0
 13 16  2  0
 14 17  2  0
 16 17  1  0
 16 18  1  0
 18 19  1  0
 18 20  2  0
 19 21  1  0
 21 22  1  0
 22 23  1  0
 22 24  2  0
M  END
