diamond-x0600_0_A-diamond-x1092_0_B
     RDKit          3D

 34 38  0  0  0  0  0  0  0  0999 V2000
  -12.5630   25.5890   16.7960 C   0  0  0  0  0  0  0  0  0  0  0  0
  -11.3370   26.3080   16.2990 C   0  0  0  0  0  0  0  0  0  0  0  0
  -10.4330   26.6300   17.0680 O   0  0  0  0  0  0  0  0  0  0  0  0
  -11.2290   26.6320   14.8480 C   0  0  0  0  0  0  0  0  0  0  0  0
  -12.1200   26.1320   13.8880 C   0  0  0  0  0  0  0  0  0  0  0  0
  -10.1890   27.4720   14.4430 C   0  0  0  0  0  0  0  0  0  0  0  0
  -11.9600   26.4760   12.5420 C   0  0  0  0  0  0  0  0  0  0  0  0
  -10.0360   27.8120   13.1020 C   0  0  0  0  0  0  0  0  0  0  0  0
  -10.9170   27.3160   12.1480 C   0  0  0  0  0  0  0  0  0  0  0  0
  -10.8520   27.5840   10.8220 O   0  0  0  0  0  0  0  0  0  0  0  0
   -9.7150   28.3400   10.4350 C   0  0  0  0  0  0  0  0  0  0  0  0
  -10.0790   29.7930   10.5890 C   0  0  0  0  0  0  0  0  0  0  0  0
   -9.2370   30.7450   10.5480 N   0  0  0  0  0  0  0  0  0  0  0  0
  -11.3960   29.9920   10.7660 O   0  0  0  0  0  0  0  0  0  0  0  0
   -9.7080   32.1160   10.6790 C   0  0  0  0  0  0  0  0  0  0  0  0
   -8.9240   32.8450   11.7730 C   0  0  0  0  0  0  0  0  0  0  0  0
   -8.5610   34.1850   11.4340 O   0  0  0  0  0  0  0  0  0  0  0  0
   -7.1640   34.3360   11.1470 C   0  0  2  0  0  0  0  0  0  0  0  0
   -6.6510   35.6640   11.7470 C   0  0  0  0  0  0  0  0  0  0  0  0
   -6.9850   34.5550    9.6460 C   0  0  1  0  0  0  0  0  0  0  0  0
   -5.6950   36.1910   10.7600 N   0  0  0  0  0  0  0  0  0  0  0  0
   -8.3330   34.4680    8.9120 C   0  0  0  0  0  0  0  0  0  0  0  0
   -6.5070   36.0050    9.5750 C   0  0  1  0  0  0  0  0  0  0  0  0
   -8.3510   35.4540    7.7950 C   0  0  0  0  0  0  0  0  0  0  0  0
   -6.0480   36.3800    8.1800 C   0  0  0  0  0  0  0  0  0  0  0  0
   -9.3880   35.6480    6.9490 N   0  0  0  0  0  0  0  0  0  0  0  0
   -7.3330   36.3430    7.4490 C   0  0  0  0  0  0  0  0  0  0  0  0
  -10.6300   34.9040    6.9510 C   0  0  0  0  0  0  0  0  0  0  0  0
   -7.7950   37.1200    6.3800 C   0  0  0  0  0  0  0  0  0  0  0  0
   -9.0830   36.6740    6.0950 C   0  0  0  0  0  0  0  0  0  0  0  0
   -7.2510   38.1640    5.6330 C   0  0  0  0  0  0  0  0  0  0  0  0
   -9.8430   37.2500    5.0990 C   0  0  0  0  0  0  0  0  0  0  0  0
   -8.0160   38.7380    4.6320 C   0  0  0  0  0  0  0  0  0  0  0  0
   -9.3010   38.2870    4.3650 C   0  0  0  0  0  0  0  0  0  0  0  0
  1  2  1  0
  2  3  2  0
  2  4  1  0
  4  5  2  0
  4  6  1  0
  5  7  1  0
  6  8  2  0
  7  9  2  0
  8  9  1  0
  9 10  1  0
 10 11  1  0
 11 12  1  0
 12 13  2  3
 12 14  1  0
 13 15  1  0
 15 16  1  0
 16 17  1  0
 18 17  1  6
 18 19  1  0
 18 20  1  0
 19 21  1  0
 20 22  1  6
 20 23  1  0
 21 23  1  0
 22 24  1  0
 23 25  1  6
 24 26  1  0
 24 27  2  0
 25 27  1  0
 26 28  1  0
 27 29  1  0
 26 30  1  0
 29 30  2  0
 29 31  1  0
 30 32  1  0
 31 33  2  0
 32 34  2  0
 33 34  1  0
M  END
