diamond-x0128_0_A-mac-x0584
     RDKit          3D

 33 38  0  0  0  0  0  0  0  0999 V2000
   -6.5180   14.7490    2.3290 N   0  0  0  0  0  0  0  0  0  0  0  0
   -7.7560   15.1150    2.8840 C   0  0  0  0  0  0  0  0  0  0  0  0
   -8.7420   15.3460    2.1940 O   0  0  0  0  0  0  0  0  0  0  0  0
   -6.3850   14.0280    1.0460 C   0  0  1  0  0  0  0  0  0  0  0  0
   -7.7150   15.1890    4.2740 N   0  0  0  0  0  0  0  0  0  0  0  0
   -7.1170   14.8000   -0.0090 C   0  0  0  0  0  0  0  0  0  0  0  0
   -4.9210   13.7040    0.5760 C   0  0  0  0  0  0  0  0  0  0  0  0
   -6.5210   15.4280   -1.0350 C   0  0  0  0  0  0  0  0  0  0  0  0
   -4.2120   14.9100   -0.0750 C   0  0  2  0  0  0  0  0  0  0  0  0
   -8.4960   16.0300    5.1250 C   0  0  0  0  0  0  0  0  0  0  0  0
   -5.0320   15.4440   -1.2580 C   0  0  0  0  0  0  0  0  0  0  0  0
   -9.1760   17.1860    4.7390 C   0  0  0  0  0  0  0  0  0  0  0  0
   -8.5990   15.6740    6.4780 C   0  0  0  0  0  0  0  0  0  0  0  0
   -2.6870   14.8480   -0.2260 C   0  0  0  0  0  0  0  0  0  0  0  0
   -4.1430   15.8540    1.1360 C   0  0  0  0  0  0  0  0  0  0  0  0
   -9.9130   17.9630    5.5750 N   0  0  0  0  0  0  0  0  0  0  0  0
   -9.3510   16.4590    7.3590 C   0  0  0  0  0  0  0  0  0  0  0  0
   -2.2100   14.9830    1.0700 C   0  0  0  0  0  0  0  0  0  0  0  0
   -1.7070   14.7080   -1.2380 C   0  0  0  0  0  0  0  0  0  0  0  0
   -3.2340   15.1500    2.0310 N   0  0  0  0  0  0  0  0  0  0  0  0
   -9.9850   17.5850    6.8630 C   0  0  0  0  0  0  0  0  0  0  0  0
   -1.9640   14.5560   -2.6170 N   0  0  0  0  0  0  0  0  0  0  0  0
   -0.4160   14.7270   -0.8650 N   0  0  0  0  0  0  0  0  0  0  0  0
   -0.9690   14.9820    1.4450 N   0  0  0  0  0  0  0  0  0  0  0  0
   -0.9640   13.9780   -3.5660 C   0  0  2  0  0  0  0  0  0  0  0  0
   -2.6360   15.6660   -3.2990 C   0  0  0  0  0  0  0  0  0  0  0  0
   -0.1220   14.8640    0.4350 C   0  0  0  0  0  0  0  0  0  0  0  0
    0.2620   13.2540   -3.0020 C   0  0  0  0  0  0  0  0  0  0  0  0
   -0.6000   15.1810   -4.4480 C   0  0  0  0  0  0  0  0  0  0  0  0
   -1.9700   15.7810   -4.6800 C   0  0  0  0  0  0  0  0  0  0  0  0
    1.1950   12.5570   -4.0460 C   0  0  0  0  0  0  0  0  0  0  0  0
   -0.0280   11.7990   -2.5410 C   0  0  0  0  0  0  0  0  0  0  0  0
    0.1430   11.4260   -4.0160 C   0  0  0  0  0  0  0  0  0  0  0  0
  1  2  1  0
  2  3  2  0
  4  1  1  1
  2  5  1  0
  4  6  1  0
  4  7  1  0
  6  8  2  0
  9  7  1  1
  5 10  1  0
  8 11  1  0
  9 11  1  0
 10 12  2  0
 10 13  1  0
  9 14  1  0
  9 15  1  0
 12 16  1  0
 13 17  2  0
 14 18  2  0
 14 19  1  0
 15 20  1  0
 18 20  1  0
 16 21  2  0
 17 21  1  0
 19 22  1  0
 19 23  2  0
 18 24  1  0
 22 25  1  0
 22 26  1  0
 23 27  1  0
 24 27  2  0
 25 28  1  1
 25 29  1  0
 26 30  1  0
 29 30  1  0
 28 31  1  0
 28 32  1  0
 31 33  1  0
 32 33  1  0
M  END
