diamond-x0727_0_A-mac-x0138
     RDKit          3D

 26 28  0  0  0  0  0  0  0  0999 V2000
    0.1330   11.5250   -5.5570 N   0  0  0  0  0  0  0  0  0  0  0  0
    0.9500   12.3400   -4.6500 C   0  0  1  0  0  0  0  0  0  0  0  0
    0.5360   13.8110   -4.6460 C   0  0  0  0  0  0  0  0  0  0  0  0
    0.6940   11.1460   -6.7480 C   0  0  0  0  0  0  0  0  0  0  0  0
    1.6610   11.7240   -7.1770 O   0  0  0  0  0  0  0  0  0  0  0  0
    0.8160   11.7890   -3.2380 C   0  0  0  0  0  0  0  0  0  0  0  0
    0.0910    9.9630   -7.4940 C   0  0  0  0  0  0  0  0  0  0  0  0
    0.1090   10.8560   -2.8790 O   0  0  0  0  0  0  0  0  0  0  0  0
    1.5970   12.4450   -2.3560 O   0  0  0  0  0  0  0  0  0  0  0  0
   -0.0500   14.2560   -3.2890 C   0  0  0  0  0  0  0  0  0  0  0  0
   -1.2090   10.3190   -8.2240 C   0  0  0  0  0  0  0  0  0  0  0  0
   -0.2320    8.7610   -6.5880 C   0  0  0  0  0  0  0  0  0  0  0  0
   -1.4550   14.7750   -3.5180 C   0  0  0  0  0  0  0  0  0  0  0  0
   -2.1220    9.1150   -8.0360 C   0  0  0  0  0  0  0  0  0  0  0  0
   -1.7350    8.5620   -6.6750 C   0  0  0  0  0  0  0  0  0  0  0  0
   -2.3040   14.9290   -2.3470 N   0  0  0  0  0  0  0  0  0  0  0  0
   -3.6120   15.2940   -2.4660 C   0  0  0  0  0  0  0  0  0  0  0  0
   -2.0280   14.7730   -0.9930 C   0  0  0  0  0  0  0  0  0  0  0  0
   -4.2080   15.3960   -1.3090 N   0  0  0  0  0  0  0  0  0  0  0  0
   -3.2370   15.0820   -0.3870 C   0  0  0  0  0  0  0  0  0  0  0  0
   -0.8820   14.4170   -0.3500 N   0  0  0  0  0  0  0  0  0  0  0  0
   -3.2810   15.0340    1.0040 C   0  0  0  0  0  0  0  0  0  0  0  0
   -1.0480   14.3950    1.0030 C   0  0  0  0  0  0  0  0  0  0  0  0
   -4.4290   15.3420    1.7100 N   0  0  0  0  0  0  0  0  0  0  0  0
    0.0130   14.0520    1.8320 N   0  0  0  0  0  0  0  0  0  0  0  0
   -2.1610   14.6800    1.6790 N   0  0  0  0  0  0  0  0  0  0  0  0
  1  2  1  0
  2  3  1  1
  1  4  1  0
  4  5  2  0
  2  6  1  0
  4  7  1  0
  6  8  2  0
  6  9  1  0
  3 10  1  0
  7 11  1  0
  7 12  1  0
 10 13  1  0
 11 14  1  0
 12 15  1  0
 14 15  1  0
 13 16  1  0
 16 17  1  0
 16 18  1  0
 17 19  2  0
 18 20  2  0
 19 20  1  0
 18 21  1  0
 20 22  1  0
 21 23  2  0
 22 24  1  0
 23 25  1  0
 22 26  2  0
 23 26  1  0
M  END
