diamond-x0253_0_A-mac-x0380
     RDKit          3D

 30 32  0  0  0  0  0  0  0  0999 V2000
    0.5110   11.8520   -5.4060 N   0  0  0  0  0  0  0  0  0  0  0  0
    1.1160   11.6300   -6.6000 C   0  0  0  0  0  0  0  0  0  0  0  0
    2.1830   12.1430   -6.7900 O   0  0  0  0  0  0  0  0  0  0  0  0
    1.3900   12.5970   -4.5260 C   0  0  0  0  0  0  0  0  0  0  0  0
    0.9150   12.6310   -3.1090 C   0  0  0  0  0  0  0  0  0  0  0  0
    0.4860   10.7340   -7.6110 C   0  0  0  0  0  0  0  0  0  0  0  0
    0.9860   13.6500   -2.3570 N   0  0  0  0  0  0  0  0  0  0  0  0
    0.3730   11.4870   -2.6380 O   0  0  0  0  0  0  0  0  0  0  0  0
   -0.4880    9.8350   -7.1700 C   0  0  0  0  0  0  0  0  0  0  0  0
    0.8380   10.7600   -8.9680 C   0  0  0  0  0  0  0  0  0  0  0  0
    0.5110   13.7440   -1.0040 C   0  0  0  0  0  0  0  0  0  0  0  0
   -1.1130    8.9660   -8.0710 C   0  0  0  0  0  0  0  0  0  0  0  0
    0.2200    9.8970   -9.8680 C   0  0  0  0  0  0  0  0  0  0  0  0
   -2.1600    8.0070   -7.5880 C   0  0  0  0  0  0  0  0  0  0  0  0
   -0.8050   14.4940   -1.0400 C   0  0  0  0  0  0  0  0  0  0  0  0
   -0.7510    9.0060   -9.4220 C   0  0  0  0  0  0  0  0  0  0  0  0
   -1.3520   14.4610   -2.3830 O   0  0  0  0  0  0  0  0  0  0  0  0
   -2.5940   14.9710   -2.6400 C   0  0  0  0  0  0  0  0  0  0  0  0
   -2.9730   15.3860   -3.7260 O   0  0  0  0  0  0  0  0  0  0  0  0
   -3.4810   14.9730   -1.4420 C   0  0  0  0  0  0  0  0  0  0  0  0
   -4.8730   14.9900   -1.5770 C   0  0  0  0  0  0  0  0  0  0  0  0
   -2.9180   14.9560   -0.1600 C   0  0  0  0  0  0  0  0  0  0  0  0
   -5.6830   14.9880   -0.4430 C   0  0  0  0  0  0  0  0  0  0  0  0
   -3.7230   14.9550    0.9710 C   0  0  0  0  0  0  0  0  0  0  0  0
   -5.1100   14.9700    0.8310 C   0  0  0  0  0  0  0  0  0  0  0  0
   -7.4480   15.0020   -0.6560 S   0  0  0  0  0  0  0  0  0  0  0  0
   -5.8940   14.9650    1.9900 N   0  0  0  0  0  0  0  0  0  0  0  0
   -7.8610   14.0480    0.8200 C   0  0  0  0  0  0  0  0  0  0  0  0
   -7.2080   14.5870    2.0670 C   0  0  0  0  0  0  0  0  0  0  0  0
   -7.8360   14.7030    3.1220 O   0  0  0  0  0  0  0  0  0  0  0  0
  1  2  1  0
  2  3  2  0
  1  4  1  0
  4  5  1  0
  2  6  1  0
  5  7  2  3
  5  8  1  0
  6  9  2  0
  6 10  1  0
  7 11  1  0
  9 12  1  0
 10 13  2  0
 12 14  1  0
 11 15  1  0
 12 16  2  0
 13 16  1  0
 15 17  1  0
 17 18  1  0
 18 19  2  0
 18 20  1  0
 20 21  2  0
 20 22  1  0
 21 23  1  0
 22 24  2  0
 23 25  2  0
 24 25  1  0
 23 26  1  0
 25 27  1  0
 26 28  1  0
 27 29  1  0
 28 29  1  0
 29 30  2  0
M  END
