diamond-x0950_1_A-diamond-x0681_0_A
     RDKit          3D

 20 21  0  0  0  0  0  0  0  0999 V2000
    1.0510   13.9730   -4.7400 C   0  0  0  0  0  0  0  0  0  0  0  0
    1.3300   12.5120   -4.4290 C   0  0  2  0  0  0  0  0  0  0  0  0
    0.7290   11.7300   -5.4590 O   0  0  0  0  0  0  0  0  0  0  0  0
    0.8560   12.1440   -3.0080 C   0  0  0  0  0  0  0  0  0  0  0  0
    0.2260   11.1270   -2.7330 O   0  0  0  0  0  0  0  0  0  0  0  0
    1.2430   13.0820   -2.0960 O   0  0  0  0  0  0  0  0  0  0  0  0
    0.3560   14.2110   -1.8910 C   0  0  0  0  0  0  0  0  0  0  0  0
   -1.0700   13.7220   -1.6090 C   0  0  0  0  0  0  0  0  0  0  0  0
   -2.0790   14.5140   -2.3460 N   0  0  0  0  0  0  0  0  0  0  0  0
   -3.2130   14.8400   -1.8070 C   0  0  0  0  0  0  0  0  0  0  0  0
   -4.2100   15.5700   -2.4070 N   0  0  0  0  0  0  0  0  0  0  0  0
   -3.5020   14.3890   -0.3600 C   0  0  2  0  0  0  0  0  0  0  0  0
   -4.6240   13.3780   -0.3770 C   0  0  0  0  0  0  0  0  0  0  0  0
   -3.8250   15.5730    0.5690 C   0  0  0  0  0  0  0  0  0  0  0  0
   -5.6370   13.4080    0.5360 N   0  0  0  0  0  0  0  0  0  0  0  0
   -4.4080   15.0590    1.8640 C   0  0  0  0  0  0  0  0  0  0  0  0
   -4.8000   12.3740   -1.2180 N   0  0  0  0  0  0  0  0  0  0  0  0
   -5.7490   14.3820    1.5890 C   0  0  0  0  0  0  0  0  0  0  0  0
   -6.4940   12.3850    0.2800 C   0  0  0  0  0  0  0  0  0  0  0  0
   -5.9570   11.7530   -0.8160 C   0  0  0  0  0  0  0  0  0  0  0  0
  2  1  1  6
  2  3  1  0
  2  4  1  0
  4  5  2  0
  4  6  1  0
  6  7  1  0
  7  8  1  0
  8  9  1  0
  9 10  2  3
 10 11  1  0
 12 10  1  6
 12 13  1  0
 12 14  1  0
 13 15  1  0
 14 16  1  0
 13 17  2  0
 15 18  1  0
 16 18  1  0
 15 19  1  0
 17 20  1  0
 19 20  2  0
M  END
