diamond-x0895_1_A-mac-x0338
     RDKit          3D

  9  9  0  0  0  0  0  0  0  0999 V2000
   -1.5340   15.0620    1.5430 O   0  0  0  0  0  0  0  0  0  0  0  0
   -2.4590   14.8190    0.7820 C   0  0  0  0  0  0  0  0  0  0  0  0
   -2.7040   15.3500   -0.6060 C   0  0  0  0  0  0  0  0  0  0  0  0
   -3.4970   13.9750    1.0310 N   0  0  0  0  0  0  0  0  0  0  0  0
   -4.1680   15.2600   -0.7500 N   0  0  0  0  0  0  0  0  0  0  0  0
   -4.5650   14.1810    0.1270 C   0  0  2  0  0  0  0  0  0  0  0  0
   -5.7230   14.4320    0.8910 N   0  0  0  0  0  0  0  0  0  0  0  0
   -5.5000   14.8550    2.0500 C   0  0  0  0  0  0  0  0  0  0  0  0
   -6.3290   15.1590    3.0530 N   0  0  0  0  0  0  0  0  0  0  0  0
  1  2  2  0
  2  3  1  0
  2  4  1  0
  3  5  1  0
  4  6  1  0
  5  6  1  0
  6  7  1  1
  7  8  2  3
  8  9  1  0
M  END
