diamond-x0905_1_B-diamond-x0918_4_B
     RDKit          3D

  8  8  0  0  0  0  0  0  0  0999 V2000
   14.0470   19.5880   11.5690 O   0  0  0  0  0  0  0  0  0  0  0  0
   13.4200   20.2880   12.5450 C   0  0  0  0  0  0  0  0  0  0  0  0
   12.5080   19.6000   13.2490 N   0  0  0  0  0  0  0  0  0  0  0  0
   13.7560   21.6090   12.7380 C   0  0  0  0  0  0  0  0  0  0  0  0
   11.8880   20.3020   14.2200 C   0  0  0  0  0  0  0  0  0  0  0  0
   13.1060   22.3040   13.7410 C   0  0  0  0  0  0  0  0  0  0  0  0
   13.4160   23.6480   13.9690 N   0  0  0  0  0  0  0  0  0  0  0  0
   12.1480   21.6380   14.5030 C   0  0  0  0  0  0  0  0  0  0  0  0
  1  2  1  0
  2  3  2  0
  2  4  1  0
  3  5  1  0
  4  6  2  0
  6  7  1  0
  5  8  2  0
  6  8  1  0
M  END
