diamond-x0524_0_A-mac-x0326
     RDKit          3D

 34 37  0  0  0  0  0  0  0  0999 V2000
   -0.5300    8.6110   -8.1290 N   0  0  0  0  0  0  0  0  0  0  0  0
   -0.8080    9.5310   -7.1340 C   0  0  0  0  0  0  0  0  0  0  0  0
   -1.9590    9.2410   -6.1940 C   0  0  0  0  0  0  0  0  0  0  0  0
    0.5440    8.6250   -9.0630 C   0  0  0  0  0  0  0  0  0  0  0  0
   -0.0790   10.5970   -7.0430 N   0  0  0  0  0  0  0  0  0  0  0  0
    1.6560    7.7860   -8.9320 C   0  0  0  0  0  0  0  0  0  0  0  0
    0.4910    9.4930  -10.1600 C   0  0  0  0  0  0  0  0  0  0  0  0
   -0.3250   11.5880   -6.0060 C   0  0  0  0  0  0  0  0  0  0  0  0
    2.6900    7.8100   -9.8790 C   0  0  0  0  0  0  0  0  0  0  0  0
    1.5260    9.5140  -11.1060 C   0  0  0  0  0  0  0  0  0  0  0  0
    0.9270   12.4750   -5.9030 C   0  0  0  0  0  0  0  0  0  0  0  0
    2.6400    8.6700  -10.9810 C   0  0  0  0  0  0  0  0  0  0  0  0
    3.6550    8.7130  -11.9530 N   0  0  0  0  0  0  0  0  0  0  0  0
    1.3340   13.1000   -4.5280 C   0  0  2  0  0  0  0  0  0  0  0  0
    1.1070   12.2170   -3.3080 C   0  0  0  0  0  0  0  0  0  0  0  0
    0.8300   14.5370   -4.2160 C   0  0  0  0  0  0  0  0  0  0  0  0
    3.9210    9.5800  -13.0280 C   0  0  0  0  0  0  0  0  0  0  0  0
    0.3880   11.1050   -3.5370 O   0  0  0  0  0  0  0  0  0  0  0  0
    1.5220   12.4350   -2.1820 O   0  0  0  0  0  0  0  0  0  0  0  0
    3.1860   10.7410  -13.2950 C   0  0  0  0  0  0  0  0  0  0  0  0
    4.9860    9.2660  -13.8810 C   0  0  0  0  0  0  0  0  0  0  0  0
   -0.3400   14.6720   -3.2680 C   0  0  0  0  0  0  0  0  0  0  0  0
    3.5030   11.5610  -14.3770 C   0  0  0  0  0  0  0  0  0  0  0  0
    5.3060   10.0830  -14.9650 C   0  0  0  0  0  0  0  0  0  0  0  0
   -1.5950   14.8510   -3.6580 N   0  0  0  0  0  0  0  0  0  0  0  0
   -0.1130   14.6040   -1.5620 S   0  0  0  0  0  0  0  0  0  0  0  0
    4.5630   11.2340  -15.2150 C   0  0  0  0  0  0  0  0  0  0  0  0
   -2.4360   14.9390   -2.5620 C   0  0  0  0  0  0  0  0  0  0  0  0
   -1.8110   14.8250   -1.3210 C   0  0  0  0  0  0  0  0  0  0  0  0
   -3.8330   15.1310   -2.6100 C   0  0  0  0  0  0  0  0  0  0  0  0
   -2.5320   14.8920   -0.1080 C   0  0  0  0  0  0  0  0  0  0  0  0
   -4.5490   15.2010   -1.4150 C   0  0  0  0  0  0  0  0  0  0  0  0
   -3.9160   15.0850   -0.1840 C   0  0  0  0  0  0  0  0  0  0  0  0
   -6.2560   15.4310   -1.4620 Cl  0  0  0  0  0  0  0  0  0  0  0  0
  1  2  1  0
  2  3  1  0
  1  4  1  0
  2  5  2  3
  4  6  2  0
  4  7  1  0
  5  8  1  0
  6  9  1  0
  7 10  2  0
  8 11  1  0
  9 12  2  0
 10 12  1  0
 12 13  1  0
 14 11  1  6
 14 15  1  0
 14 16  1  0
 13 17  1  0
 15 18  1  0
 15 19  2  0
 17 20  2  0
 17 21  1  0
 16 22  1  0
 20 23  1  0
 21 24  2  0
 22 25  2  0
 22 26  1  0
 23 27  2  0
 24 27  1  0
 25 28  1  0
 26 29  1  0
 28 29  2  0
 28 30  1  0
 29 31  1  0
 30 32  2  0
 31 33  2  0
 32 33  1  0
 32 34  1  0
M  END
