diamond-x0837_0_A-diamond-x1012_0_A
     RDKit          3D

 20 21  0  0  0  0  0  0  0  0999 V2000
   -7.4940   14.5650    0.1440 O   0  0  0  0  0  0  0  0  0  0  0  0
   -6.2680   14.7530    0.1460 C   0  0  0  0  0  0  0  0  0  0  0  0
   -5.5360   14.7660    1.3780 N   0  0  0  0  0  0  0  0  0  0  0  0
   -5.5050   14.9900   -1.1030 C   0  0  0  0  0  0  0  0  0  0  0  0
   -4.1460   15.0910    1.2790 C   0  0  0  0  0  0  0  0  0  0  0  0
   -4.1120   14.4000   -1.0260 C   0  0  1  0  0  0  0  0  0  0  0  0
   -3.1340   15.0380   -2.8390 I   0  0  0  0  0  0  0  0  0  0  0  0
   -3.4570   14.9310    0.1800 C   0  0  0  0  0  0  0  0  0  0  0  0
   -1.5780   13.8780   -3.7440 C   0  0  1  0  0  0  0  0  0  0  0  0
   -1.4050   14.5220   -5.0870 C   0  0  0  0  0  0  0  0  0  0  0  0
   -0.2540   13.9180   -2.9550 C   0  0  1  0  0  0  0  0  0  0  0  0
    0.0590   12.6940   -2.2310 C   0  0  0  0  0  0  0  0  0  0  0  0
    0.8740   14.3540   -3.8570 C   0  0  0  0  0  0  0  0  0  0  0  0
   -0.6860   15.8000   -4.9690 N   0  0  0  0  0  0  0  0  0  0  0  0
   -1.2930   17.0760   -4.8420 C   0  0  0  0  0  0  0  0  0  0  0  0
   -0.0290   11.4450   -2.8140 O   0  0  0  0  0  0  0  0  0  0  0  0
    0.4180   12.7660   -1.0450 O   0  0  0  0  0  0  0  0  0  0  0  0
    0.6820   15.6520   -4.5690 C   0  0  0  0  0  0  0  0  0  0  0  0
   -0.5370   18.2620   -4.9180 N   0  0  0  0  0  0  0  0  0  0  0  0
   -2.5260   17.1820   -4.6470 O   0  0  0  0  0  0  0  0  0  0  0  0
  1  2  2  0
  2  3  1  0
  2  4  1  0
  3  5  1  0
  4  6  1  0
  6  7  1  6
  5  8  2  0
  6  8  1  0
  9  7  1  1
  9 10  1  0
  9 11  1  0
 11 12  1  6
 11 13  1  0
 10 14  1  0
 14 15  1  0
 12 16  1  0
 12 17  2  0
 13 18  1  0
 14 18  1  0
 15 19  1  0
 15 20  2  0
M  END
