diamond-x0158_0_B-diamond-x0299_0_A
     RDKit          3D

 33 35  0  0  0  0  0  0  0  0999 V2000
   17.2460   17.8560   11.2610 C   0  0  0  0  0  0  0  0  0  0  0  0
   16.0770   17.4290   12.1310 C   0  0  0  0  0  0  0  0  0  0  0  0
   15.8210   16.0330   11.9100 O   0  0  0  0  0  0  0  0  0  0  0  0
   15.8650   15.2430   13.0250 C   0  0  0  0  0  0  0  0  0  0  0  0
   15.9350   15.6690   14.1710 O   0  0  0  0  0  0  0  0  0  0  0  0
   15.8260   13.7490   12.6990 C   0  0  0  0  0  0  0  0  0  0  0  0
   14.6050   13.0210   13.1620 N   0  0  0  0  0  0  0  0  0  0  0  0
   14.2060   11.8740   12.3190 C   0  0  0  0  0  0  0  0  0  0  0  0
   13.4610   13.9230   13.2720 C   0  0  0  0  0  0  0  0  0  0  0  0
   13.2270   10.9530   13.0530 C   0  0  0  0  0  0  0  0  0  0  0  0
   12.5100   13.3330   14.2740 C   0  0  0  0  0  0  0  0  0  0  0  0
   11.8020   11.8040   13.6950 S   0  0  0  0  0  0  0  0  0  0  0  0
   11.3190   11.0410   14.9610 N   0  0  0  0  0  0  0  0  0  0  0  0
   10.9360   12.0750   12.5610 O   0  0  0  0  0  0  0  0  0  0  0  0
   10.9640    9.6160   14.8520 C   0  0  0  0  0  0  0  0  0  0  0  0
   11.9540    8.7810   15.6580 C   0  0  0  0  0  0  0  0  0  0  0  0
   12.8470    7.9560   14.7360 C   0  0  0  0  0  0  0  0  0  0  0  0
   14.3240    8.3850   14.7890 C   0  0  1  0  0  0  0  0  0  0  0  0
   15.1860    7.5760   15.7740 C   0  0  0  0  0  0  0  0  0  0  0  0
   14.9540    8.3850   13.3950 C   0  0  0  0  0  0  0  0  0  0  0  0
   14.0610    8.2650   12.3510 N   0  0  0  0  0  0  0  0  0  0  0  0
   15.9850    8.4350   16.7450 C   0  0  0  0  0  0  0  0  0  0  0  0
   16.1630    8.4890   13.2230 O   0  0  0  0  0  0  0  0  0  0  0  0
   14.5410    8.3270   10.9840 C   0  0  0  0  0  0  0  0  0  0  0  0
   14.7570    6.9610   10.4410 C   0  0  0  0  0  0  0  0  0  0  0  0
   14.3890    5.8190   11.1150 N   0  0  0  0  0  0  0  0  0  0  0  0
   15.3130    6.6660    9.2870 N   0  0  0  0  0  0  0  0  0  0  0  0
   15.3140    5.2810    9.2300 C   0  0  0  0  0  0  0  0  0  0  0  0
   14.7330    4.7330   10.3620 C   0  0  0  0  0  0  0  0  0  0  0  0
   14.5920    3.3600   10.5660 C   0  0  0  0  0  0  0  0  0  0  0  0
   15.7960    4.4130    8.2320 C   0  0  0  0  0  0  0  0  0  0  0  0
   15.0740    2.5180    9.5560 C   0  0  0  0  0  0  0  0  0  0  0  0
   15.6680    3.0330    8.4060 C   0  0  0  0  0  0  0  0  0  0  0  0
  1  2  1  0
  2  3  1  0
  3  4  1  0
  4  5  2  0
  4  6  1  0
  6  7  1  0
  7  8  1  0
  7  9  1  0
  8 10  1  0
  9 11  1  0
 12 10  1  0
 11 12  1  0
 12 13  2  0
 12 14  2  0
 13 15  1  0
 15 16  1  0
 16 17  1  0
 18 17  1  6
 18 19  1  0
 18 20  1  0
 20 21  1  0
 19 22  1  0
 20 23  2  0
 21 24  1  0
 24 25  1  0
 25 26  1  0
 25 27  2  0
 27 28  1  0
 26 29  1  0
 28 29  2  0
 29 30  1  0
 28 31  1  0
 30 32  2  0
 31 33  2  0
 32 33  1  0
M  END
