diamond-x0091_0_B-diamond-x0729_0_A
     RDKit          3D

 30 32  0  0  0  0  0  0  0  0999 V2000
   12.7930   21.0820   13.6150 N   0  0  0  0  0  0  0  0  0  0  0  0
   12.1970   21.9280   14.6440 C   0  0  0  0  0  0  0  0  0  0  0  0
   12.2930   19.7000   13.5170 C   0  0  0  0  0  0  0  0  0  0  0  0
   13.7980   21.4680   12.7310 C   0  0  0  0  0  0  0  0  0  0  0  0
   13.9710   20.9040   11.6580 O   0  0  0  0  0  0  0  0  0  0  0  0
   14.5970   22.5160   13.1390 N   0  0  0  0  0  0  0  0  0  0  0  0
   13.1970   18.7410   14.2390 C   0  0  0  0  0  0  0  0  0  0  0  0
   12.6940   17.7430   14.9890 N   0  0  0  0  0  0  0  0  0  0  0  0
   14.6160   18.7100   14.2580 C   0  0  0  0  0  0  0  0  0  0  0  0
   15.1790   23.4960   12.2490 C   0  0  2  0  0  0  0  0  0  0  0  0
   13.7830   17.0560   15.5010 O   0  0  0  0  0  0  0  0  0  0  0  0
   14.9290   17.6390   15.0610 C   0  0  0  0  0  0  0  0  0  0  0  0
   16.6780   23.5750   11.9900 C   0  0  2  0  0  0  0  0  0  0  0  0
   16.0140   24.5840   12.8790 C   0  0  0  0  0  0  0  0  0  0  0  0
   16.1890   17.0220   15.5170 C   0  0  0  0  0  0  0  0  0  0  0  0
   17.2420   24.0480   10.6560 C   0  0  0  0  0  0  0  0  0  0  0  0
   18.0630   25.3540   10.8110 C   0  0  0  0  0  0  0  0  0  0  0  0
   19.1600   25.6260    9.7610 C   0  0  0  0  0  0  0  0  0  0  0  0
   18.9960   27.1440    8.7980 S   0  0  0  0  0  0  0  0  0  0  0  0
   17.7220   27.0760    8.1250 O   0  0  0  0  0  0  0  0  0  0  0  0
   19.2940   28.2470    9.6860 O   0  0  0  0  0  0  0  0  0  0  0  0
   20.1970   27.1560    7.6000 N   0  0  0  0  0  0  0  0  0  0  0  0
   21.6230   27.3950    7.9400 C   0  0  0  0  0  0  0  0  0  0  0  0
   19.7820   27.0840    6.1620 C   0  0  2  0  0  0  0  0  0  0  0  0
   19.9670   25.6400    5.6830 C   0  0  0  0  0  0  0  0  0  0  0  0
   22.2380   28.4750    7.0480 C   0  0  0  0  0  0  0  0  0  0  0  0
   20.4770   28.1250    5.2710 C   0  0  2  0  0  0  0  0  0  0  0  0
   20.2060   27.8780    3.8450 C   0  0  0  0  0  0  0  0  0  0  0  0
   21.9700   28.2360    5.5610 C   0  0  0  0  0  0  0  0  0  0  0  0
   19.9710   27.6730    2.7290 N   0  0  0  0  0  0  0  0  0  0  0  0
  1  2  1  0
  1  3  1  0
  1  4  1  0
  4  5  2  0
  4  6  1  0
  3  7  1  0
  7  8  2  0
  7  9  1  0
 10  6  1  1
  8 11  1  0
  9 12  2  0
 11 12  1  0
 10 13  1  0
 10 14  1  0
 13 14  1  0
 12 15  1  0
 13 16  1  6
 16 17  1  0
 17 18  1  0
 19 18  1  0
 19 20  2  0
 19 21  2  0
 19 22  1  0
 22 23  1  0
 22 24  1  0
 24 25  1  6
 23 26  1  0
 24 27  1  0
 27 28  1  6
 26 29  1  0
 27 29  1  0
 28 30  3  0
M  END
