diamond-x0837_0_A-mac-x0137
     RDKit          3D

 20 22  0  0  0  0  0  0  0  0999 V2000
   -7.2950   14.6540    0.8240 O   0  0  0  0  0  0  0  0  0  0  0  0
   -6.0750   14.6740    0.6270 C   0  0  0  0  0  0  0  0  0  0  0  0
   -5.1770   15.1760    1.5460 N   0  0  0  0  0  0  0  0  0  0  0  0
   -5.4870   14.1410   -0.6340 C   0  0  0  0  0  0  0  0  0  0  0  0
   -3.8470   15.7480    1.2280 C   0  0  0  0  0  0  0  0  0  0  0  0
   -4.3550   15.0330   -1.0520 C   0  0  2  0  0  0  0  0  0  0  0  0
   -3.7960   14.5010   -3.1720 I   0  0  0  0  0  0  0  0  0  0  0  0
   -3.1830   15.1160   -0.0270 C   0  0  2  0  0  0  0  0  0  0  0  0
   -2.4900   13.9300    0.5820 N   0  0  0  0  0  0  0  0  0  0  0  0
   -1.9580   15.7280   -0.7280 C   0  0  0  0  0  0  0  0  0  0  0  0
   -1.1090   14.2390    1.0040 C   0  0  0  0  0  0  0  0  0  0  0  0
   -1.1100   14.5470   -1.3030 C   0  0  1  0  0  0  0  0  0  0  0  0
   -0.3000   14.6590   -2.5430 N   0  0  0  0  0  0  0  0  0  0  0  0
   -0.2920   14.1640   -0.1810 N   0  0  0  0  0  0  0  0  0  0  0  0
   -1.0710   14.7240   -3.8230 C   0  0  0  0  0  0  0  0  0  0  0  0
    0.7670   13.6190   -2.6310 C   0  0  0  0  0  0  0  0  0  0  0  0
   -1.4790   13.3750   -4.4790 C   0  0  2  0  0  0  0  0  0  0  0  0
    0.2520   12.2600   -3.1230 C   0  0  0  0  0  0  0  0  0  0  0  0
   -2.5020   12.7900   -3.7970 F   0  0  0  0  0  0  0  0  0  0  0  0
   -0.3420   12.3750   -4.5120 C   0  0  0  0  0  0  0  0  0  0  0  0
  1  2  2  0
  2  3  1  0
  2  4  1  0
  3  5  1  0
  4  6  1  0
  6  7  1  6
  8  5  1  1
  6  8  1  0
  8  9  1  0
  8 10  1  0
  9 11  1  0
 10 12  1  0
 12 13  1  6
 11 14  1  0
 12 14  1  0
 13 15  1  0
 13 16  1  0
 15 17  1  0
 16 18  1  0
 17 19  1  1
 17 20  1  0
 18 20  1  0
M  END
