diamond-x0681_0_A-mac-x0223
     RDKit          3D

 25 27  0  0  0  0  0  0  0  0999 V2000
   -3.4380   15.7580   -2.3060 N   0  0  0  0  0  0  0  0  0  0  0  0
   -3.0050   14.5190   -1.9340 C   0  0  0  0  0  0  0  0  0  0  0  0
   -2.0940   13.9540   -2.7340 N   0  0  0  0  0  0  0  0  0  0  0  0
   -3.6800   14.1410   -0.6200 C   0  0  2  0  0  0  0  0  0  0  0  0
   -4.8050   13.1780   -0.6290 C   0  0  0  0  0  0  0  0  0  0  0  0
   -4.0010   15.4090    0.1850 C   0  0  0  0  0  0  0  0  0  0  0  0
   -1.5260   14.7990   -3.7100 C   0  0  0  0  0  0  0  0  0  0  0  0
   -5.8070   13.2900    0.3010 N   0  0  0  0  0  0  0  0  0  0  0  0
   -4.5300   15.0150    1.5210 C   0  0  0  0  0  0  0  0  0  0  0  0
   -5.0140   12.1610   -1.4270 N   0  0  0  0  0  0  0  0  0  0  0  0
   -2.2140   15.9590   -3.9950 C   0  0  0  0  0  0  0  0  0  0  0  0
   -0.2660   14.5660   -4.3570 C   0  0  0  0  0  0  0  0  0  0  0  0
    0.6000   13.3300   -4.1780 C   0  0  0  0  0  0  0  0  0  0  0  0
   -5.8780   14.3110    1.3260 C   0  0  0  0  0  0  0  0  0  0  0  0
   -6.6960   12.2930    0.0900 C   0  0  0  0  0  0  0  0  0  0  0  0
   -6.1910   11.6040   -0.9860 C   0  0  0  0  0  0  0  0  0  0  0  0
   -1.6850   16.9060   -4.8310 C   0  0  0  0  0  0  0  0  0  0  0  0
    0.2380   15.5620   -5.2190 C   0  0  0  0  0  0  0  0  0  0  0  0
    0.4240   12.5640   -2.8960 C   0  0  0  0  0  0  0  0  0  0  0  0
   -2.3850   18.0520   -5.0260 O   0  0  0  0  0  0  0  0  0  0  0  0
   -0.4720   16.7360   -5.4370 C   0  0  0  0  0  0  0  0  0  0  0  0
   -0.1020   17.7940   -6.2080 O   0  0  0  0  0  0  0  0  0  0  0  0
   -0.0030   11.4300   -2.7600 O   0  0  0  0  0  0  0  0  0  0  0  0
    0.8170   13.2810   -1.8250 O   0  0  0  0  0  0  0  0  0  0  0  0
    1.1450   18.3410   -5.8380 C   0  0  0  0  0  0  0  0  0  0  0  0
  1  2  1  0
  2  3  2  3
  4  2  1  6
  4  5  1  0
  4  6  1  0
  3  7  1  0
  5  8  1  0
  6  9  1  0
  5 10  2  0
  7 11  2  0
  7 12  1  0
 12 13  1  0
  8 14  1  0
  9 14  1  0
  8 15  1  0
 10 16  1  0
 15 16  2  0
 11 17  1  0
 12 18  2  0
 13 19  1  0
 17 20  1  0
 17 21  2  0
 18 21  1  0
 21 22  1  0
 19 23  2  0
 19 24  1  0
 22 25  1  0
M  END
