diamond-x0766_0_A-diamond-x1012_0_A
     RDKit          3D

 16 17  0  0  0  0  0  0  0  0999 V2000
    0.5030   12.4920   -2.7690 C   0  0  0  0  0  0  0  0  0  0  0  0
    0.0920   11.2040   -2.7350 O   0  0  0  0  0  0  0  0  0  0  0  0
    1.1620   12.9650   -1.8630 O   0  0  0  0  0  0  0  0  0  0  0  0
    0.0680   13.2460   -4.0200 C   0  0  2  0  0  0  0  0  0  0  0  0
    1.2930   13.7480   -4.8200 C   0  0  0  0  0  0  0  0  0  0  0  0
   -0.8030   14.5090   -3.8090 C   0  0  2  0  0  0  0  0  0  0  0  0
    1.3460   15.2760   -4.6950 C   0  0  0  0  0  0  0  0  0  0  0  0
    0.0950   15.7420   -3.9430 C   0  0  1  0  0  0  0  0  0  0  0  0
   -1.7170   14.5770   -2.6130 C   0  0  0  0  0  0  0  0  0  0  0  0
   -0.6880   16.9110   -4.5820 C   0  0  0  0  0  0  0  0  0  0  0  0
   -3.0950   14.7030   -2.6590 C   0  0  0  0  0  0  0  0  0  0  0  0
   -1.2700   14.5340   -1.2430 C   0  0  0  0  0  0  0  0  0  0  0  0
   -0.0180   18.0800   -4.7670 N   0  0  0  0  0  0  0  0  0  0  0  0
   -1.8850   16.8540   -4.9060 O   0  0  0  0  0  0  0  0  0  0  0  0
   -2.3060   14.6280   -0.3400 C   0  0  0  0  0  0  0  0  0  0  0  0
   -3.8190   14.7710   -1.1140 S   0  0  0  0  0  0  0  0  0  0  0  0
  1  2  1  0
  1  3  2  0
  4  1  1  1
  4  5  1  0
  4  6  1  0
  5  7  1  0
  6  8  1  0
  7  8  1  0
  6  9  1  1
  8 10  1  6
  9 11  2  0
  9 12  1  0
 10 13  1  0
 10 14  2  0
 12 15  2  0
 11 16  1  0
 15 16  1  0
M  END
