diamond-x0685_0_A-mac-x0159
     RDKit          3D

 27 30  0  0  0  0  0  0  0  0999 V2000
   -5.8220   15.0900    2.3970 N   0  0  0  0  0  0  0  0  0  0  0  0
   -7.1250   14.7540    2.9880 C   0  0  0  0  0  0  0  0  0  0  0  0
   -7.4490   13.2750    2.8490 C   0  0  0  0  0  0  0  0  0  0  0  0
   -5.6170   14.9060    1.0080 C   0  0  0  0  0  0  0  0  0  0  0  0
   -4.3830   15.1610    0.3790 C   0  0  0  0  0  0  0  0  0  0  0  0
   -6.6520   14.4840    0.2330 N   0  0  0  0  0  0  0  0  0  0  0  0
   -4.2440   14.9910   -0.9420 C   0  0  0  0  0  0  0  0  0  0  0  0
   -6.4450   14.3370   -1.1110 C   0  0  0  0  0  0  0  0  0  0  0  0
   -3.1140   15.6250    0.8990 C   0  0  2  0  0  0  0  0  0  0  0  0
   -5.2360   14.5900   -1.7170 C   0  0  0  0  0  0  0  0  0  0  0  0
   -3.1090   16.2340   -0.4910 N   0  0  0  0  0  0  0  0  0  0  0  0
   -1.6280   15.3090    0.7640 C   0  0  2  0  0  0  0  0  0  0  0  0
   -4.8980   14.4770   -3.0900 C   0  0  0  0  0  0  0  0  0  0  0  0
   -2.8220   15.4770   -1.7250 C   0  0  0  0  0  0  0  0  0  0  0  0
   -1.1880   14.5870   -0.5270 C   0  0  1  0  0  0  0  0  0  0  0  0
   -1.2520   14.3010    1.6930 N   0  0  0  0  0  0  0  0  0  0  0  0
   -4.5260   14.4290   -4.1840 N   0  0  0  0  0  0  0  0  0  0  0  0
   -1.4140   15.3180   -1.7260 N   0  0  0  0  0  0  0  0  0  0  0  0
    0.1460   14.1970   -0.1990 N   0  0  0  0  0  0  0  0  0  0  0  0
    0.0840   14.1510    1.2580 C   0  0  0  0  0  0  0  0  0  0  0  0
   -0.8260   14.9180   -3.0170 C   0  0  0  0  0  0  0  0  0  0  0  0
   -0.4310   16.0450   -3.9550 C   0  0  0  0  0  0  0  0  0  0  0  0
    0.8760   16.4760   -4.1670 C   0  0  0  0  0  0  0  0  0  0  0  0
   -1.3700   16.7600   -4.6970 N   0  0  0  0  0  0  0  0  0  0  0  0
   -0.7890   17.6880   -5.4250 C   0  0  0  0  0  0  0  0  0  0  0  0
    0.9100   17.7750   -5.2840 S   0  0  0  0  0  0  0  0  0  0  0  0
   -1.5010   18.6290   -6.3310 C   0  0  0  0  0  0  0  0  0  0  0  0
  1  2  1  0
  2  3  1  0
  1  4  1  0
  4  5  2  0
  4  6  1  0
  5  7  1  0
  6  8  2  0
  9  5  1  6
  7 10  2  0
  8 10  1  0
  9 11  1  0
  9 12  1  0
 10 13  1  0
 11 14  1  0
 12 15  1  0
 12 16  1  1
 13 17  3  0
 14 18  1  0
 15 18  1  0
 15 19  1  1
 16 20  1  0
 19 20  1  0
 18 21  1  0
 21 22  1  0
 22 23  2  0
 22 24  1  0
 24 25  2  0
 23 26  1  0
 25 26  1  0
 25 27  1  0
M  END
