diamond-x0253_0_A-mac-x0451
     RDKit          3D

 27 29  0  0  0  0  0  0  0  0999 V2000
    0.5010   11.8120   -5.3830 N   0  0  0  0  0  0  0  0  0  0  0  0
    1.0280   11.7100   -6.6290 C   0  0  0  0  0  0  0  0  0  0  0  0
    2.0940   12.2330   -6.8240 O   0  0  0  0  0  0  0  0  0  0  0  0
    1.4750   12.0110   -4.3260 C   0  0  0  0  0  0  0  0  0  0  0  0
    0.7700   12.1730   -3.0170 C   0  0  0  0  0  0  0  0  0  0  0  0
    0.3250   10.8880   -7.6750 C   0  0  0  0  0  0  0  0  0  0  0  0
    0.9070   13.2630   -2.3870 N   0  0  0  0  0  0  0  0  0  0  0  0
    0.0260   11.1140   -2.6500 O   0  0  0  0  0  0  0  0  0  0  0  0
   -0.8460   10.1780   -7.3770 C   0  0  0  0  0  0  0  0  0  0  0  0
    0.8420   10.7990   -8.9740 C   0  0  0  0  0  0  0  0  0  0  0  0
    0.2310   13.5660   -1.1450 C   0  0  0  0  0  0  0  0  0  0  0  0
   -1.4670    9.3780   -8.3340 C   0  0  0  0  0  0  0  0  0  0  0  0
    0.2240   10.0140   -9.9390 C   0  0  0  0  0  0  0  0  0  0  0  0
   -2.7000    8.6030   -7.9780 C   0  0  0  0  0  0  0  0  0  0  0  0
   -0.4150   14.9290   -1.3280 C   0  0  0  0  0  0  0  0  0  0  0  0
   -0.9270    9.2990   -9.6190 C   0  0  0  0  0  0  0  0  0  0  0  0
   -1.4340   14.8560   -2.3730 O   0  0  0  0  0  0  0  0  0  0  0  0
   -2.6750   14.9040   -1.7950 C   0  0  0  0  0  0  0  0  0  0  0  0
   -3.8490   15.1110   -2.5280 C   0  0  0  0  0  0  0  0  0  0  0  0
   -2.6900   14.7380   -0.4300 C   0  0  0  0  0  0  0  0  0  0  0  0
   -3.9100   14.7780    0.2040 C   0  0  0  0  0  0  0  0  0  0  0  0
   -5.0840   15.1450   -1.8580 C   0  0  0  0  0  0  0  0  0  0  0  0
   -5.1120   14.9700   -0.4620 C   0  0  0  0  0  0  0  0  0  0  0  0
   -4.1970   14.6070    1.8590 S   0  0  0  0  0  0  0  0  0  0  0  0
   -5.8740   14.7840    1.5900 C   0  0  0  0  0  0  0  0  0  0  0  0
   -6.2320   14.9660    0.3460 N   0  0  0  0  0  0  0  0  0  0  0  0
   -6.7490   14.7390    2.6090 N   0  0  0  0  0  0  0  0  0  0  0  0
  1  2  1  0
  2  3  2  0
  1  4  1  0
  4  5  1  0
  2  6  1  0
  5  7  2  3
  5  8  1  0
  6  9  2  0
  6 10  1  0
  7 11  1  0
  9 12  1  0
 10 13  2  0
 12 14  1  0
 11 15  1  0
 12 16  2  0
 13 16  1  0
 15 17  1  0
 17 18  1  0
 18 19  2  0
 18 20  1  0
 20 21  2  0
 19 22  1  0
 21 23  1  0
 22 23  2  0
 21 24  1  0
 24 25  1  0
 23 26  1  0
 25 26  2  0
 25 27  1  0
M  END
