diamond-x0766_0_A-diamond-x0837_0_A
     RDKit          3D

 20 22  0  0  0  0  0  0  0  0999 V2000
    0.3780   12.1970   -2.9150 C   0  0  0  0  0  0  0  0  0  0  0  0
   -0.2890   11.0290   -2.9850 O   0  0  0  0  0  0  0  0  0  0  0  0
    1.3110   12.3510   -2.1480 O   0  0  0  0  0  0  0  0  0  0  0  0
   -0.1750   13.2440   -3.8490 C   0  0  2  0  0  0  0  0  0  0  0  0
    0.8470   13.6620   -4.9340 C   0  0  0  0  0  0  0  0  0  0  0  0
   -0.3630   14.5250   -3.0330 C   0  0  1  0  0  0  0  0  0  0  0  0
    0.9730   15.1910   -4.8190 C   0  0  0  0  0  0  0  0  0  0  0  0
   -0.2780   15.6410   -4.0550 C   0  0  0  0  0  0  0  0  0  0  0  0
   -1.2180   14.4890   -1.7410 C   0  0  0  0  0  0  0  0  0  0  0  0
   -2.5170   14.8120   -1.1510 C   0  0  0  0  0  0  0  0  0  0  0  0
   -0.4170   13.9400   -0.6850 C   0  0  0  0  0  0  0  0  0  0  0  0
   -1.0030   13.8460    0.5290 C   0  0  0  0  0  0  0  0  0  0  0  0
   -2.5620   14.3970    0.5100 S   0  0  0  0  0  0  0  0  0  0  0  0
   -3.9330   15.3760   -1.2230 C   0  0  2  0  0  0  0  0  0  0  0  0
   -4.0110   15.9030    0.2190 C   0  0  0  0  0  0  0  0  0  0  0  0
   -5.1410   14.4530   -1.5180 C   0  0  0  0  0  0  0  0  0  0  0  0
   -4.8280   15.4540    1.1620 C   0  0  0  0  0  0  0  0  0  0  0  0
   -6.1860   14.4220   -0.4010 C   0  0  0  0  0  0  0  0  0  0  0  0
   -7.4030   14.3540   -0.5900 O   0  0  0  0  0  0  0  0  0  0  0  0
   -5.7010   14.4920    0.8590 N   0  0  0  0  0  0  0  0  0  0  0  0
  1  2  1  0
  1  3  2  0
  4  1  1  1
  4  5  1  0
  4  6  1  0
  5  7  1  0
  6  8  1  0
  7  8  1  0
  6  9  1  6
  9 10  2  0
  9 11  1  0
 11 12  2  0
 10 13  1  0
 12 13  1  0
 14 10  1  1
 14 15  1  0
 14 16  1  0
 15 17  2  0
 16 18  1  0
 18 19  2  0
 17 20  1  0
 18 20  1  0
M  END
