diamond-x0962_3_A-diamond-x0805_0_A
     RDKit          3D

 26 28  0  0  0  0  0  0  0  0999 V2000
    0.9380   11.4510   -8.8110 N   0  0  0  0  0  0  0  0  0  0  0  0
    0.8880   10.9120   -7.4760 C   0  0  1  0  0  0  0  0  0  0  0  0
    0.5080   11.9280   -6.3560 C   0  0  0  0  0  0  0  0  0  0  0  0
   -0.0310    9.7740   -7.5340 C   0  0  0  0  0  0  0  0  0  0  0  0
    1.5750   12.9050   -5.8450 C   0  0  0  0  0  0  0  0  0  0  0  0
    0.2130    8.6130   -8.2240 N   0  0  0  0  0  0  0  0  0  0  0  0
   -1.2650    9.5940   -6.9700 C   0  0  0  0  0  0  0  0  0  0  0  0
   -0.8700    7.8020   -8.0430 C   0  0  0  0  0  0  0  0  0  0  0  0
   -1.7810    8.3720   -7.2880 N   0  0  0  0  0  0  0  0  0  0  0  0
    1.8960   13.0590   -4.3440 C   0  0  1  0  0  0  0  0  0  0  0  0
    2.4700   14.3730   -4.2540 O   0  0  0  0  0  0  0  0  0  0  0  0
    0.7660   13.2380   -3.3440 C   0  0  2  0  0  0  0  0  0  0  0  0
    0.4130   12.1080   -2.4280 C   0  0  0  0  0  0  0  0  0  0  0  0
   -0.4290   13.9320   -3.9910 C   0  0  1  0  0  0  0  0  0  0  0  0
    1.5790   15.5100   -4.4460 C   0  0  0  0  0  0  0  0  0  0  0  0
    0.2090   10.9050   -3.0070 O   0  0  0  0  0  0  0  0  0  0  0  0
    0.3240   12.2820   -1.2270 O   0  0  0  0  0  0  0  0  0  0  0  0
   -1.7330   13.8770   -3.1910 C   0  0  0  0  0  0  0  0  0  0  0  0
    0.0570   15.3450   -4.2970 C   0  0  0  0  0  0  0  0  0  0  0  0
   -2.8160   13.0850   -3.5910 C   0  0  0  0  0  0  0  0  0  0  0  0
   -1.8780   14.6350   -2.0150 C   0  0  0  0  0  0  0  0  0  0  0  0
   -3.0610   14.6130   -1.2590 C   0  0  0  0  0  0  0  0  0  0  0  0
   -3.9960   13.0550   -2.8430 C   0  0  0  0  0  0  0  0  0  0  0  0
   -3.0400   15.4080   -0.1450 O   0  0  0  0  0  0  0  0  0  0  0  0
   -4.1200   13.8180   -1.6800 C   0  0  0  0  0  0  0  0  0  0  0  0
   -4.2350   15.5380    0.6180 C   0  0  0  0  0  0  0  0  0  0  0  0
  2  1  1  6
  2  3  1  0
  2  4  1  0
  3  5  1  0
  4  6  1  0
  4  7  2  0
  6  8  1  0
  7  9  1  0
  8  9  2  0
 10  5  1  6
 10 11  1  0
 10 12  1  0
 12 13  1  6
 12 14  1  0
 11 15  1  0
 13 16  1  0
 13 17  2  0
 14 18  1  1
 14 19  1  0
 15 19  1  0
 18 20  2  0
 18 21  1  0
 21 22  2  0
 20 23  1  0
 22 24  1  0
 22 25  1  0
 23 25  2  0
 24 26  1  0
M  END
