diamond-x0967_0_A-diamond-x0849_0_A
     RDKit          3D

 16 18  0  0  0  0  0  0  0  0999 V2000
   -2.6840   14.6970   -3.2420 Br  0  0  0  0  0  0  0  0  0  0  0  0
   -3.5120   15.3420   -1.6080 C   0  0  1  0  0  0  0  0  0  0  0  0
   -4.9050   14.9550   -1.6230 N   0  0  0  0  0  0  0  0  0  0  0  0
   -2.7310   15.1350   -0.2770 C   0  0  2  0  0  0  0  0  0  0  0  0
   -5.5940   14.8350   -0.4440 C   0  0  0  0  0  0  0  0  0  0  0  0
   -3.5990   15.7160    0.8580 C   0  0  0  0  0  0  0  0  0  0  0  0
   -1.2540   15.7130   -0.4920 C   0  0  0  0  0  0  0  0  0  0  0  0
   -2.4950   13.7370    0.2590 C   0  0  0  0  0  0  0  0  0  0  0  0
   -6.8540   14.3670   -0.5650 N   0  0  0  0  0  0  0  0  0  0  0  0
   -5.0170   15.1740    0.7770 C   0  0  0  0  0  0  0  0  0  0  0  0
   -1.7020   13.9240    1.4750 N   0  0  0  0  0  0  0  0  0  0  0  0
   -0.1400   15.1550    0.3690 C   0  0  0  0  0  0  0  0  0  0  0  0
   -5.7880   14.9990    1.9260 C   0  0  0  0  0  0  0  0  0  0  0  0
   -7.5730   14.2190    0.5630 C   0  0  0  0  0  0  0  0  0  0  0  0
   -0.4200   14.2950    1.3170 C   0  0  0  0  0  0  0  0  0  0  0  0
   -7.0900   14.5140    1.8210 C   0  0  0  0  0  0  0  0  0  0  0  0
  2  1  1  6
  2  3  1  0
  2  4  1  0
  3  5  1  0
  4  6  1  1
  4  7  1  0
  4  8  1  0
  5  9  1  0
  5 10  2  0
  6 10  1  0
  8 11  1  0
  7 12  1  0
 10 13  1  0
  9 14  2  0
 11 15  1  0
 12 15  2  0
 13 16  2  0
 14 16  1  0
M  END
