diamond-x0962_0_A-diamond-x0685_1_A
     RDKit          3D

 22 23  0  0  0  0  0  0  0  0999 V2000
   -2.4700   15.1160   -2.3680 N   0  0  0  0  0  0  0  0  0  0  0  0
   -2.8210   14.0800   -1.4220 C   0  0  1  0  0  0  0  0  0  0  0  0
   -1.6080   13.2830   -0.8910 C   0  0  0  0  0  0  0  0  0  0  0  0
   -3.7210   14.5830   -0.3530 C   0  0  0  0  0  0  0  0  0  0  0  0
   -0.2150   13.9090   -0.8460 C   0  0  0  0  0  0  0  0  0  0  0  0
   -3.2990   14.9580    0.8900 N   0  0  0  0  0  0  0  0  0  0  0  0
   -5.0860   14.7730   -0.3300 C   0  0  0  0  0  0  0  0  0  0  0  0
    0.4930   13.7330   -2.0650 O   0  0  0  0  0  0  0  0  0  0  0  0
   -4.3920   15.3480    1.6050 C   0  0  0  0  0  0  0  0  0  0  0  0
   -5.4850   15.2370    0.8860 N   0  0  0  0  0  0  0  0  0  0  0  0
    0.7870   12.3230   -2.8020 S   0  0  0  0  0  0  0  0  0  0  0  0
    0.0380   12.4840   -4.4210 C   0  0  0  0  0  0  0  0  0  0  0  0
    2.3570   12.2300   -3.0860 O   0  0  0  0  0  0  0  0  0  0  0  0
    0.2210   10.9860   -2.0880 O   0  0  0  0  0  0  0  0  0  0  0  0
   -1.3780   11.9300   -4.4570 C   0  0  0  0  0  0  0  0  0  0  0  0
   -1.4750   10.5560   -4.9560 N   0  0  0  0  0  0  0  0  0  0  0  0
   -0.7930   10.3070   -6.2320 C   0  0  0  0  0  0  0  0  0  0  0  0
   -0.5850    8.8070   -6.5060 C   0  0  0  0  0  0  0  0  0  0  0  0
   -1.6100   10.9400   -7.3680 C   0  0  0  0  0  0  0  0  0  0  0  0
    0.0880    8.5470   -7.8580 C   0  0  0  0  0  0  0  0  0  0  0  0
   -0.9930   10.6570   -8.7470 C   0  0  0  0  0  0  0  0  0  0  0  0
   -0.6970    9.1750   -9.0000 C   0  0  0  0  0  0  0  0  0  0  0  0
  2  1  1  1
  2  3  1  0
  2  4  1  0
  3  5  1  0
  4  6  1  0
  4  7  2  0
  5  8  1  0
  6  9  1  0
  7 10  1  0
  9 10  2  0
 11  8  1  0
 11 12  1  0
 11 13  1  0
 11 14  1  0
 12 15  1  0
 15 16  1  0
 16 17  1  0
 17 18  1  0
 17 19  1  0
 18 20  1  0
 19 21  1  0
 20 22  1  0
 21 22  1  0
M  END
