diamond-x0685_1_A-mac-x0510
     RDKit          3D

 25 27  0  0  0  0  0  0  0  0999 V2000
   -1.0760   10.5930   -4.8230 N   0  0  0  0  0  0  0  0  0  0  0  0
   -1.4110   11.9650   -4.4580 C   0  0  0  0  0  0  0  0  0  0  0  0
   -0.1740   12.7790   -4.1010 C   0  0  0  0  0  0  0  0  0  0  0  0
   -1.2900   10.1260   -6.2010 C   0  0  0  0  0  0  0  0  0  0  0  0
   -0.6370    8.7620   -6.4860 C   0  0  0  0  0  0  0  0  0  0  0  0
   -1.0610   11.1370   -7.3390 C   0  0  0  0  0  0  0  0  0  0  0  0
    0.6830   12.1060   -2.6740 S   0  0  0  0  0  0  0  0  0  0  0  0
    0.1490    8.7080   -7.7880 C   0  0  0  0  0  0  0  0  0  0  0  0
   -1.2280   10.6110   -8.7660 C   0  0  0  0  0  0  0  0  0  0  0  0
    2.2420   12.3180   -2.9810 O   0  0  0  0  0  0  0  0  0  0  0  0
    0.3260   10.5350   -2.5590 O   0  0  0  0  0  0  0  0  0  0  0  0
    0.2260   12.9020   -1.3520 O   0  0  0  0  0  0  0  0  0  0  0  0
   -0.7040    9.1870   -8.9550 C   0  0  0  0  0  0  0  0  0  0  0  0
   -0.1260   14.2890   -1.4270 C   0  0  0  0  0  0  0  0  0  0  0  0
   -1.0220   14.4910   -0.3180 N   0  0  0  0  0  0  0  0  0  0  0  0
   -2.3620   14.8120   -0.3350 C   0  0  0  0  0  0  0  0  0  0  0  0
   -0.6580   14.3820    0.9930 C   0  0  0  0  0  0  0  0  0  0  0  0
   -2.7050   14.8480    0.9850 C   0  0  0  0  0  0  0  0  0  0  0  0
   -3.3080   15.0710   -1.3730 C   0  0  0  0  0  0  0  0  0  0  0  0
   -1.6660   14.5940    1.8030 N   0  0  0  0  0  0  0  0  0  0  0  0
   -3.0610   15.1890   -2.5700 O   0  0  0  0  0  0  0  0  0  0  0  0
   -3.9810   15.1120    1.3810 N   0  0  0  0  0  0  0  0  0  0  0  0
   -4.5900   15.1870   -0.8840 N   0  0  0  0  0  0  0  0  0  0  0  0
   -4.9650   15.0990    0.4330 C   0  0  0  0  0  0  0  0  0  0  0  0
   -6.1510   14.9970    0.7310 O   0  0  0  0  0  0  0  0  0  0  0  0
  1  2  1  0
  2  3  1  0
  1  4  1  0
  4  5  1  0
  4  6  1  0
  3  7  1  0
  5  8  1  0
  6  9  1  0
  7 10  1  0
  7 11  1  0
  7 12  1  0
  8 13  1  0
  9 13  1  0
 12 14  1  0
 14 15  1  0
 15 16  1  0
 15 17  1  0
 16 18  2  0
 16 19  1  0
 17 20  2  0
 18 20  1  0
 19 21  2  0
 18 22  1  0
 19 23  1  0
 22 24  1  0
 23 24  1  0
 24 25  2  0
M  END
