diamond-x1015_0_A-diamond-x0724_0_A
     RDKit          3D

 31 34  0  0  0  0  0  0  0  0999 V2000
   -0.6870   14.1720   -4.8480 C   0  0  0  0  0  0  0  0  0  0  0  0
    0.4320   13.3530   -4.1930 C   0  0  2  0  0  0  0  0  0  0  0  0
    0.1380   11.9350   -4.1170 N   0  0  0  0  0  0  0  0  0  0  0  0
    0.3920   13.6400   -2.7250 C   0  0  0  0  0  0  0  0  0  0  0  0
    0.2950   14.7900   -2.2800 N   0  0  0  0  0  0  0  0  0  0  0  0
    0.2480   11.4560   -2.8020 C   0  0  0  0  0  0  0  0  0  0  0  0
    0.4430   12.5180   -1.9950 N   0  0  0  0  0  0  0  0  0  0  0  0
   -0.3770   11.2110   -5.2040 C   0  0  0  0  0  0  0  0  0  0  0  0
    0.1960   10.3120   -2.3740 O   0  0  0  0  0  0  0  0  0  0  0  0
    0.1690   14.8740   -0.8580 C   0  0  0  0  0  0  0  0  0  0  0  0
    0.1090   11.4380   -6.4970 C   0  0  0  0  0  0  0  0  0  0  0  0
   -1.3800   10.2520   -5.0280 C   0  0  0  0  0  0  0  0  0  0  0  0
   -0.8800   15.9440   -0.7640 C   0  0  0  0  0  0  0  0  0  0  0  0
   -0.3910   10.7230   -7.5850 C   0  0  0  0  0  0  0  0  0  0  0  0
   -1.8850    9.5330   -6.1120 C   0  0  0  0  0  0  0  0  0  0  0  0
   -1.3860    9.7720   -7.3860 C   0  0  0  0  0  0  0  0  0  0  0  0
   -2.3260   15.5480   -0.5360 C   0  0  0  0  0  0  0  0  0  0  0  0
   -2.0000    8.8830   -8.7190 Cl  0  0  0  0  0  0  0  0  0  0  0  0
   -2.6790   15.4310    0.7860 C   0  0  0  0  0  0  0  0  0  0  0  0
   -3.3160   15.3220   -1.5330 C   0  0  0  0  0  0  0  0  0  0  0  0
   -3.9630   15.1370    1.1620 C   0  0  0  0  0  0  0  0  0  0  0  0
   -4.6440   15.0150   -1.1530 C   0  0  0  0  0  0  0  0  0  0  0  0
   -4.9590   14.9400    0.2150 C   0  0  0  0  0  0  0  0  0  0  0  0
   -6.2500   14.7060    0.7550 N   0  0  0  0  0  0  0  0  0  0  0  0
   -7.3470   14.3540    0.0390 N   0  0  0  0  0  0  0  0  0  0  0  0
   -6.5500   14.8460    2.0930 C   0  0  0  0  0  0  0  0  0  0  0  0
   -7.8860   14.6070    2.2600 C   0  0  0  0  0  0  0  0  0  0  0  0
   -8.3270   14.2990    0.9550 C   0  0  0  0  0  0  0  0  0  0  0  0
   -8.6670   14.6730    3.5260 C   0  0  0  0  0  0  0  0  0  0  0  0
   -8.2540   13.5960    4.4130 N   0  0  0  0  0  0  0  0  0  0  0  0
   -8.6260   13.8890    5.7880 C   0  0  0  0  0  0  0  0  0  0  0  0
  2  1  1  6
  2  3  1  0
  2  4  1  0
  4  5  2  3
  3  6  1  0
  4  7  1  0
  6  7  1  0
  3  8  1  0
  6  9  2  0
  5 10  1  0
  8 11  2  0
  8 12  1  0
 10 13  1  0
 11 14  1  0
 12 15  2  0
 14 16  2  0
 15 16  1  0
 13 17  1  0
 16 18  1  0
 17 19  2  0
 17 20  1  0
 19 21  1  0
 20 22  2  0
 21 23  2  0
 22 23  1  0
 23 24  1  0
 24 25  1  0
 24 26  1  0
 26 27  2  0
 25 28  2  0
 27 28  1  0
 27 29  1  0
 29 30  1  0
 30 31  1  0
M  END
