diamond-x0371_0_A-mac-x0178
     RDKit          3D

 33 36  0  0  0  0  0  0  0  0999 V2000
   -8.1290   14.5900    2.8960 N   0  0  0  0  0  0  0  0  0  0  0  0
   -8.8290   15.5580    3.5850 C   0  0  0  0  0  0  0  0  0  0  0  0
   -9.5420   16.3600    2.9870 O   0  0  0  0  0  0  0  0  0  0  0  0
   -8.3490   14.4120    1.4840 C   0  0  0  0  0  0  0  0  0  0  0  0
   -7.0520   14.5630    0.7700 C   0  0  0  0  0  0  0  0  0  0  0  0
   -8.6630   15.5450    5.0220 C   0  0  0  0  0  0  0  0  0  0  0  0
   -5.8460   14.5840    1.4300 N   0  0  0  0  0  0  0  0  0  0  0  0
   -6.8710   14.6900   -0.5360 N   0  0  0  0  0  0  0  0  0  0  0  0
   -8.0570   14.4570    5.5880 O   0  0  0  0  0  0  0  0  0  0  0  0
   -9.0020   16.4390    6.0280 C   0  0  0  0  0  0  0  0  0  0  0  0
   -5.5060   14.7880   -0.7100 C   0  0  0  0  0  0  0  0  0  0  0  0
   -4.8500   14.7280    0.5080 C   0  0  0  0  0  0  0  0  0  0  0  0
   -8.5770   15.8600    7.2520 C   0  0  0  0  0  0  0  0  0  0  0  0
   -8.0070   14.6570    6.9290 C   0  0  0  0  0  0  0  0  0  0  0  0
   -3.4670   14.8020    0.6520 C   0  0  0  0  0  0  0  0  0  0  0  0
   -4.7450   14.9240   -1.8830 C   0  0  0  0  0  0  0  0  0  0  0  0
   -2.7270   14.9300   -0.5230 C   0  0  0  0  0  0  0  0  0  0  0  0
   -3.3340   14.9880   -1.7800 C   0  0  0  0  0  0  0  0  0  0  0  0
   -2.4810   15.1080   -3.0250 C   0  0  0  0  0  0  0  0  0  0  0  0
   -3.1990   15.9280   -4.0750 C   0  0  0  0  0  0  0  0  0  0  0  0
   -2.5150   17.2110   -4.4670 N   0  0  0  0  0  0  0  0  0  0  0  0
   -1.7660   17.0830   -5.7050 S   0  0  2  0  0  0  0  0  0  0  0  0
   -0.7910   18.4350   -5.7880 N   0  0  0  0  0  0  0  0  0  0  0  0
   -2.4850   16.9850   -6.9360 O   0  0  0  0  0  0  0  0  0  0  0  0
   -0.9470   15.7220   -4.9730 C   0  0  0  0  0  0  0  0  0  0  0  0
    0.1190   16.0120   -4.1210 C   0  0  0  0  0  0  0  0  0  0  0  0
   -1.3790   14.4180   -5.1950 C   0  0  0  0  0  0  0  0  0  0  0  0
    0.7540   14.9740   -3.4510 C   0  0  0  0  0  0  0  0  0  0  0  0
   -0.7390   13.3800   -4.5240 C   0  0  0  0  0  0  0  0  0  0  0  0
    0.3170   13.6600   -3.6440 C   0  0  0  0  0  0  0  0  0  0  0  0
    0.9490   12.5440   -2.9210 C   0  0  0  0  0  0  0  0  0  0  0  0
    1.8330   12.6600   -2.1020 O   0  0  0  0  0  0  0  0  0  0  0  0
    0.4280   11.3510   -3.2310 O   0  0  0  0  0  0  0  0  0  0  0  0
  1  2  1  0
  2  3  2  0
  1  4  1  0
  4  5  1  0
  2  6  1  0
  5  7  1  0
  5  8  2  0
  6  9  1  0
  6 10  2  0
  8 11  1  0
  7 12  1  0
 11 12  2  0
 10 13  1  0
  9 14  1  0
 13 14  2  0
 12 15  1  0
 11 16  1  0
 15 17  2  0
 16 18  2  0
 17 18  1  0
 18 19  1  0
 19 20  1  0
 20 21  1  0
 21 22  2  0
 22 23  1  6
 22 24  2  0
 22 25  1  0
 25 26  2  0
 25 27  1  0
 26 28  1  0
 27 29  2  0
 28 30  2  0
 29 30  1  0
 30 31  1  0
 31 32  2  0
 31 33  1  0
M  END
