diamond-x0371_0_A-mac-x0116
     RDKit          3D

 29 33  0  0  0  0  0  0  0  0999 V2000
   -9.4560   13.6810    2.2630 N   0  0  0  0  0  0  0  0  0  0  0  0
   -9.4560   14.9880    2.7410 C   0  0  0  0  0  0  0  0  0  0  0  0
   -9.8020   15.9530    2.0550 O   0  0  0  0  0  0  0  0  0  0  0  0
   -9.5730   13.3010    0.8620 C   0  0  0  0  0  0  0  0  0  0  0  0
   -8.3400   13.7040    0.1300 C   0  0  0  0  0  0  0  0  0  0  0  0
   -9.0230   15.1020    4.1210 C   0  0  0  0  0  0  0  0  0  0  0  0
   -7.1180   13.0750    0.3630 N   0  0  0  0  0  0  0  0  0  0  0  0
   -8.2400   14.6650   -0.7790 N   0  0  0  0  0  0  0  0  0  0  0  0
   -9.0070   13.9740    4.9040 O   0  0  0  0  0  0  0  0  0  0  0  0
   -8.5950   16.1850    4.8740 C   0  0  0  0  0  0  0  0  0  0  0  0
   -6.9330   14.6540   -1.1050 C   0  0  0  0  0  0  0  0  0  0  0  0
   -6.2070   13.6980   -0.4240 C   0  0  0  0  0  0  0  0  0  0  0  0
   -8.3060   15.6850    6.1690 C   0  0  0  0  0  0  0  0  0  0  0  0
   -8.5690   14.3410    6.1340 C   0  0  0  0  0  0  0  0  0  0  0  0
   -4.7360   13.6240   -0.6870 C   0  0  2  0  0  0  0  0  0  0  0  0
   -6.2300   15.4870   -2.0220 C   0  0  0  0  0  0  0  0  0  0  0  0
   -4.6170   15.1460   -0.3620 C   0  0  2  0  0  0  0  0  0  0  0  0
   -4.9680   15.7720   -1.6560 C   0  0  0  0  0  0  0  0  0  0  0  0
   -4.2040   13.2830   -2.0880 C   0  0  0  0  0  0  0  0  0  0  0  0
   -3.8030   12.8730    0.1360 N   0  0  0  0  0  0  0  0  0  0  0  0
   -3.4390   15.5350    0.3680 N   0  0  0  0  0  0  0  0  0  0  0  0
   -2.7370   13.1170   -1.8780 N   0  0  0  0  0  0  0  0  0  0  0  0
   -2.5680   13.3790   -0.4510 C   0  0  0  0  0  0  0  0  0  0  0  0
   -3.6990   15.2700    1.7810 C   0  0  0  0  0  0  0  0  0  0  0  0
   -4.7960   14.2790    2.0260 C   0  0  0  0  0  0  0  0  0  0  0  0
   -4.5010   12.9510    1.8940 O   0  0  0  0  0  0  0  0  0  0  0  0
   -6.1240   14.4140    2.3920 C   0  0  0  0  0  0  0  0  0  0  0  0
   -6.6560   13.1150    2.4920 C   0  0  0  0  0  0  0  0  0  0  0  0
   -5.6380   12.2650    2.1780 C   0  0  0  0  0  0  0  0  0  0  0  0
  1  2  1  0
  2  3  2  0
  1  4  1  0
  4  5  1  0
  2  6  1  0
  5  7  1  0
  5  8  2  0
  6  9  1  0
  6 10  2  0
  8 11  1  0
  7 12  1  0
 11 12  2  0
 10 13  1  0
  9 14  1  0
 13 14  2  0
 12 15  1  0
 11 16  1  0
 15 17  1  0
 16 18  2  0
 17 18  1  0
 15 19  1  6
 15 20  1  0
 17 21  1  6
 19 22  1  0
 20 23  1  0
 22 23  1  0
 21 24  1  0
 24 25  1  0
 25 26  1  0
 25 27  2  0
 27 28  1  0
 26 29  1  0
 28 29  2  0
M  END
