diamond-x0926_0_A-diamond-x0849_0_A
     RDKit          3D

 13 14  0  0  0  0  0  0  0  0999 V2000
   -6.5560   14.7800   -0.2530 O   0  0  0  0  0  0  0  0  0  0  0  0
   -5.3890   15.1540   -0.3670 C   0  0  0  0  0  0  0  0  0  0  0  0
   -4.6050   15.6800    0.7670 C   0  0  0  0  0  0  0  0  0  0  0  0
   -4.7080   15.1350   -1.5590 N   0  0  0  0  0  0  0  0  0  0  0  0
   -3.3280   14.8440   -1.6540 N   0  0  0  0  0  0  0  0  0  0  0  0
   -3.2870   15.6380    0.7360 C   0  0  0  0  0  0  0  0  0  0  0  0
   -2.6670   15.5510   -3.2450 Br  0  0  0  0  0  0  0  0  0  0  0  0
   -2.5250   15.0050   -0.3880 C   0  0  2  0  0  0  0  0  0  0  0  0
   -1.0690   15.5850   -0.6650 C   0  0  0  0  0  0  0  0  0  0  0  0
   -2.2390   13.6900    0.3330 C   0  0  0  0  0  0  0  0  0  0  0  0
   -1.5270   14.0360    1.5550 N   0  0  0  0  0  0  0  0  0  0  0  0
    0.0320   15.1340    0.2880 C   0  0  0  0  0  0  0  0  0  0  0  0
   -0.2610   14.3960    1.3500 C   0  0  0  0  0  0  0  0  0  0  0  0
  1  2  2  0
  2  3  1  0
  2  4  1  0
  4  5  1  0
  3  6  2  0
  5  7  1  0
  5  8  1  0
  8  6  1  1
  8  9  1  0
  8 10  1  0
 10 11  1  0
  9 12  1  0
 11 13  1  0
 12 13  2  0
M  END
