diamond-x0591_0_A-mac-x0546
     RDKit          3D

 28 30  0  0  0  0  0  0  0  0999 V2000
   -6.3570   14.5500    1.2720 N   0  0  0  0  0  0  0  0  0  0  0  0
   -7.1630   14.5920    2.4660 C   0  0  0  0  0  0  0  0  0  0  0  0
   -6.9240   14.7810    0.0370 C   0  0  0  0  0  0  0  0  0  0  0  0
   -8.1190   14.9900   -0.1230 O   0  0  0  0  0  0  0  0  0  0  0  0
   -6.0070   14.7550   -1.1260 C   0  0  0  0  0  0  0  0  0  0  0  0
   -4.6270   14.7930   -0.8900 C   0  0  0  0  0  0  0  0  0  0  0  0
   -6.4930   14.6920   -2.4390 C   0  0  0  0  0  0  0  0  0  0  0  0
   -3.7360   14.7590   -1.9560 C   0  0  0  0  0  0  0  0  0  0  0  0
   -5.6050   14.6560   -3.5060 C   0  0  0  0  0  0  0  0  0  0  0  0
   -4.2410   14.6880   -3.2540 C   0  0  0  0  0  0  0  0  0  0  0  0
   -3.1080   14.6290   -4.5840 S   0  0  1  0  0  0  0  0  0  0  0  0
   -1.6170   14.9120   -3.8650 N   0  0  0  0  0  0  0  0  0  0  0  0
   -2.9580   13.2650   -5.0200 O   0  0  0  0  0  0  0  0  0  0  0  0
   -3.2840   15.8720   -5.4590 N   0  0  0  0  0  0  0  0  0  0  0  0
   -2.5430   17.0490   -5.1110 O   0  0  0  0  0  0  0  0  0  0  0  0
   -1.2030   16.6960   -5.0200 C   0  0  0  0  0  0  0  0  0  0  0  0
   -0.7820   15.4300   -5.2320 C   0  0  0  0  0  0  0  0  0  0  0  0
   -0.2470   17.7420   -4.6850 C   0  0  0  0  0  0  0  0  0  0  0  0
    0.6570   15.1020   -5.1360 C   0  0  1  0  0  0  0  0  0  0  0  0
    0.9980   17.4700   -4.2570 C   0  0  0  0  0  0  0  0  0  0  0  0
    1.3270   16.0250   -4.1540 C   0  0  0  0  0  0  0  0  0  0  0  0
    1.1860   13.8310   -4.5620 C   0  0  0  0  0  0  0  0  0  0  0  0
    0.8240   12.4740   -5.0260 C   0  0  0  0  0  0  0  0  0  0  0  0
    2.1530   15.4390   -3.3120 N   0  0  0  0  0  0  0  0  0  0  0  0
    2.0340   14.1140   -3.5750 C   0  0  0  0  0  0  0  0  0  0  0  0
    0.4650   11.5930   -3.8400 C   0  0  0  0  0  0  0  0  0  0  0  0
    0.7810   11.7430   -2.6710 O   0  0  0  0  0  0  0  0  0  0  0  0
   -0.2940   10.5380   -4.2000 O   0  0  0  0  0  0  0  0  0  0  0  0
  1  2  1  0
  1  3  1  0
  3  4  2  0
  3  5  1  0
  5  6  2  0
  5  7  1  0
  6  8  1  0
  7  9  2  0
  8 10  2  0
  9 10  1  0
 10 11  1  0
 11 12  1  1
 11 13  2  0
 11 14  2  0
 14 15  1  0
 15 16  1  0
 16 17  2  0
 16 18  1  0
 19 17  1  1
 18 20  2  0
 19 21  1  0
 20 21  1  0
 19 22  1  0
 22 23  1  0
 21 24  2  0
 22 25  2  0
 24 25  1  0
 23 26  1  0
 26 27  2  0
 26 28  1  0
M  END
