diamond-x0465_0_A-mac-x0161
     RDKit          3D

 30 33  0  0  0  0  0  0  0  0999 V2000
    2.7030   12.7170   -4.9490 C   0  0  0  0  0  0  0  0  0  0  0  0
    1.3110   12.2000   -4.5620 C   0  0  1  0  0  0  0  0  0  0  0  0
    0.3020   11.4900   -5.5840 C   0  0  1  0  0  0  0  0  0  0  0  0
    1.1770   11.8030   -3.0930 C   0  0  0  0  0  0  0  0  0  0  0  0
    1.4900   12.5210   -2.1600 O   0  0  0  0  0  0  0  0  0  0  0  0
    0.6650   10.5710   -2.8900 O   0  0  0  0  0  0  0  0  0  0  0  0
    0.2100   12.0630   -6.9810 C   0  0  0  0  0  0  0  0  0  0  0  0
   -0.8210   10.4450   -5.6160 C   0  0  0  0  0  0  0  0  0  0  0  0
   -0.4300   12.3590   -4.6950 C   0  0  0  0  0  0  0  0  0  0  0  0
   -0.7750    9.3320   -6.4700 C   0  0  0  0  0  0  0  0  0  0  0  0
   -1.9730   10.5800   -4.8160 C   0  0  0  0  0  0  0  0  0  0  0  0
   -0.8690   13.6330   -4.9360 C   0  0  0  0  0  0  0  0  0  0  0  0
   -0.6930   11.9320   -3.4580 N   0  0  0  0  0  0  0  0  0  0  0  0
    0.2690    9.1140   -7.2860 F   0  0  0  0  0  0  0  0  0  0  0  0
   -1.8070    8.4070   -6.5230 C   0  0  0  0  0  0  0  0  0  0  0  0
   -3.0090    9.6580   -4.8680 C   0  0  0  0  0  0  0  0  0  0  0  0
   -1.3860   13.9750   -3.7590 C   0  0  0  0  0  0  0  0  0  0  0  0
   -1.3000   12.9680   -2.8620 O   0  0  0  0  0  0  0  0  0  0  0  0
   -1.9740   15.1750   -3.3020 C   0  0  0  0  0  0  0  0  0  0  0  0
   -2.9290    8.5690   -5.7200 C   0  0  0  0  0  0  0  0  0  0  0  0
   -2.4110   15.1430   -1.9300 N   0  0  0  0  0  0  0  0  0  0  0  0
   -3.8270   15.1620   -1.8090 C   0  0  0  0  0  0  0  0  0  0  0  0
   -1.6990   14.4580   -0.8560 C   0  0  2  0  0  0  0  0  0  0  0  0
   -4.2380   15.7170   -0.5620 N   0  0  0  0  0  0  0  0  0  0  0  0
   -2.3370   14.4780    0.5520 C   0  0  2  0  0  0  0  0  0  0  0  0
   -0.3180   14.9060   -0.6280 N   0  0  0  0  0  0  0  0  0  0  0  0
   -3.8330   14.8980    0.5380 C   0  0  1  0  0  0  0  0  0  0  0  0
   -1.4300   15.3170    1.3400 N   0  0  0  0  0  0  0  0  0  0  0  0
   -0.1430   14.9170    0.8090 C   0  0  0  0  0  0  0  0  0  0  0  0
   -4.2590   15.6370    1.7040 N   0  0  0  0  0  0  0  0  0  0  0  0
  2  1  1  6
  2  3  1  0
  2  4  1  0
  4  5  2  0
  4  6  1  0
  3  7  1  1
  3  8  1  0
  3  9  1  0
  8 10  2  0
  8 11  1  0
  9 12  1  0
  9 13  2  0
 10 14  1  0
 10 15  1  0
 11 16  2  0
 12 17  2  0
 13 18  1  0
 17 18  1  0
 17 19  1  0
 15 20  2  0
 16 20  1  0
 19 21  1  0
 21 22  1  0
 21 23  1  0
 22 24  1  0
 23 25  1  0
 23 26  1  1
 24 27  1  0
 25 27  1  0
 25 28  1  1
 26 29  1  0
 28 29  1  0
 27 30  1  1
M  END
