diamond-x0471_0_A-mac-x0137
     RDKit          3D

 28 31  0  0  0  0  0  0  0  0999 V2000
   -8.5930   14.1360    2.8300 N   0  0  0  0  0  0  0  0  0  0  0  0
   -9.0750   15.1320    3.6470 C   0  0  0  0  0  0  0  0  0  0  0  0
   -9.4180   16.2220    3.2050 O   0  0  0  0  0  0  0  0  0  0  0  0
   -8.6930   14.2660    1.3850 C   0  0  0  0  0  0  0  0  0  0  0  0
   -9.2100   14.8280    5.1380 C   0  0  0  0  0  0  0  0  0  0  0  0
   -7.3170   14.3810    0.8130 C   0  0  0  0  0  0  0  0  0  0  0  0
   -9.5910   13.3750    5.3980 C   0  0  0  0  0  0  0  0  0  0  0  0
   -7.9880   15.2640    5.9250 C   0  0  0  0  0  0  0  0  0  0  0  0
   -7.0590   15.0730   -0.3550 N   0  0  0  0  0  0  0  0  0  0  0  0
   -6.1960   13.8700    1.3020 N   0  0  0  0  0  0  0  0  0  0  0  0
   -5.1960   14.2420    0.4320 C   0  0  0  0  0  0  0  0  0  0  0  0
   -5.7160   14.9840   -0.5810 C   0  0  0  0  0  0  0  0  0  0  0  0
   -5.0290   15.5510   -1.6460 C   0  0  0  0  0  0  0  0  0  0  0  0
   -3.7370   13.9150    0.5180 C   0  0  0  0  0  0  0  0  0  0  0  0
   -3.6790   15.4810   -1.6050 C   0  0  0  0  0  0  0  0  0  0  0  0
   -2.8370   14.7920   -0.4760 C   0  0  1  0  0  0  0  0  0  0  0  0
   -2.2370   15.8420    0.4500 C   0  0  0  0  0  0  0  0  0  0  0  0
   -1.4760   14.0590   -0.9570 C   0  0  1  0  0  0  0  0  0  0  0  0
   -0.9630   14.1040   -2.3470 N   0  0  0  0  0  0  0  0  0  0  0  0
   -0.2920   14.4880   -0.2070 N   0  0  0  0  0  0  0  0  0  0  0  0
   -1.6320   15.1400    1.5880 N   0  0  0  0  0  0  0  0  0  0  0  0
   -1.8310   14.4270   -3.4850 C   0  0  0  0  0  0  0  0  0  0  0  0
    0.2610   13.3600   -2.6580 C   0  0  0  0  0  0  0  0  0  0  0  0
   -0.4510   14.4040    1.2150 C   0  0  0  0  0  0  0  0  0  0  0  0
   -1.9760   13.2620   -4.4880 C   0  0  2  0  0  0  0  0  0  0  0  0
    0.0120   12.0930   -3.4790 C   0  0  0  0  0  0  0  0  0  0  0  0
   -2.9250   12.4100   -4.0200 F   0  0  0  0  0  0  0  0  0  0  0  0
   -0.7020   12.4530   -4.7690 C   0  0  0  0  0  0  0  0  0  0  0  0
  1  2  1  0
  2  3  2  0
  1  4  1  0
  2  5  1  0
  4  6  1  0
  5  7  1  0
  5  8  1  0
  6  9  1  0
  6 10  2  0
 10 11  1  0
  9 12  1  0
 11 12  2  0
 12 13  1  0
 11 14  1  0
 13 15  2  0
 16 14  1  1
 16 15  1  0
 16 17  1  0
 16 18  1  0
 18 19  1  6
 18 20  1  0
 17 21  1  0
 19 22  1  0
 19 23  1  0
 20 24  1  0
 21 24  1  0
 22 25  1  0
 23 26  1  0
 25 27  1  1
 25 28  1  0
 26 28  1  0
M  END
