diamond-x0844_0_A-diamond-x0724_0_A
     RDKit          3D

 15 16  0  0  0  0  0  0  0  0999 V2000
   -7.6570   15.7940   -0.5470 O   0  0  0  0  0  0  0  0  0  0  0  0
   -6.8020   14.7120   -0.2220 C   0  0  2  0  0  0  0  0  0  0  0  0
   -5.7420   14.5990   -1.3350 C   0  0  0  0  0  0  0  0  0  0  0  0
   -7.7170   13.5710   -0.1330 N   0  0  0  0  0  0  0  0  0  0  0  0
   -6.3120   14.7860    1.2320 C   0  0  2  0  0  0  0  0  0  0  0  0
   -5.3000   13.8130    1.4950 N   0  0  0  0  0  0  0  0  0  0  0  0
   -4.3670   15.2330   -1.0790 C   0  0  2  0  0  0  0  0  0  0  0  0
   -7.6820   14.7770    1.9410 C   0  0  1  0  0  0  0  0  0  0  0  0
   -8.2600   13.5540    1.2550 C   0  0  0  0  0  0  0  0  0  0  0  0
   -3.2660   14.8540   -2.6800 Br  0  0  0  0  0  0  0  0  0  0  0  0
   -7.7180   14.8320    3.4820 C   0  0  0  0  0  0  0  0  0  0  0  0
   -4.0070   14.1040    1.1590 C   0  0  0  0  0  0  0  0  0  0  0  0
   -3.5500   14.7160    0.0690 C   0  0  0  0  0  0  0  0  0  0  0  0
   -8.5070   13.7830    4.1450 N   0  0  0  0  0  0  0  0  0  0  0  0
   -8.4990   13.9400    5.5970 C   0  0  0  0  0  0  0  0  0  0  0  0
  2  1  1  6
  2  3  1  0
  2  4  1  0
  2  5  1  0
  5  6  1  1
  3  7  1  0
  5  8  1  0
  4  9  1  0
  8  9  1  0
  7 10  1  6
  8 11  1  1
  6 12  1  0
  7 13  1  0
 12 13  2  0
 11 14  1  0
 14 15  1  0
M  END
