diamond-x0805_0_A-mac-x0576
     RDKit          3D

 30 33  0  0  0  0  0  0  0  0999 V2000
   -5.7680   15.4430   -2.1480 C   0  0  0  0  0  0  0  0  0  0  0  0
   -4.3560   15.6120   -1.8850 N   0  0  0  0  0  0  0  0  0  0  0  0
   -3.6820   14.5270   -2.4010 C   0  0  0  0  0  0  0  0  0  0  0  0
   -4.2620   15.7060   -0.5300 N   0  0  0  0  0  0  0  0  0  0  0  0
   -4.2050   13.2510   -2.2990 C   0  0  0  0  0  0  0  0  0  0  0  0
   -2.4620   14.7340   -3.0300 C   0  0  0  0  0  0  0  0  0  0  0  0
   -2.9240   15.8110    0.0480 C   0  0  2  0  0  0  0  0  0  0  0  0
   -5.1060   14.6640    0.0110 C   0  0  0  0  0  0  0  0  0  0  0  0
   -3.5070   12.1850   -2.8310 C   0  0  0  0  0  0  0  0  0  0  0  0
   -1.7410   13.6790   -3.5680 C   0  0  0  0  0  0  0  0  0  0  0  0
   -1.6850   15.6410   -0.8140 C   0  0  0  0  0  0  0  0  0  0  0  0
   -2.6950   15.0180    1.3010 C   0  0  2  0  0  0  0  0  0  0  0  0
   -5.1500   14.8160    1.4700 C   0  0  0  0  0  0  0  0  0  0  0  0
   -6.2020   14.9570    2.0790 O   0  0  0  0  0  0  0  0  0  0  0  0
   -1.5420   15.8910   -2.0010 O   0  0  0  0  0  0  0  0  0  0  0  0
   -2.2820   12.3950   -3.4620 C   0  0  0  0  0  0  0  0  0  0  0  0
   -0.4180   14.0030   -4.2250 C   0  0  2  0  0  0  0  0  0  0  0  0
   -0.6100   15.1470   -0.1070 N   0  0  0  0  0  0  0  0  0  0  0  0
   -2.1070   13.7740    1.0060 N   0  0  0  0  0  0  0  0  0  0  0  0
   -3.9030   14.7980    2.0470 N   0  0  0  0  0  0  0  0  0  0  0  0
    0.4570   12.7410   -4.3690 C   0  0  2  0  0  0  0  0  0  0  0  0
    0.3580   15.1880   -3.6160 C   0  0  0  0  0  0  0  0  0  0  0  0
   -0.7490   13.9490    0.6150 C   0  0  2  0  0  0  0  0  0  0  0  0
    0.7310   12.0590   -3.0370 C   0  0  0  0  0  0  0  0  0  0  0  0
   -0.0310   14.1590    1.8290 N   0  0  0  0  0  0  0  0  0  0  0  0
    1.7930   13.1310   -4.9920 C   0  0  0  0  0  0  0  0  0  0  0  0
    1.7470   15.3390   -4.2120 C   0  0  0  0  0  0  0  0  0  0  0  0
    0.2260   10.8110   -2.9080 O   0  0  0  0  0  0  0  0  0  0  0  0
    1.3540   12.5740   -2.1240 O   0  0  0  0  0  0  0  0  0  0  0  0
    2.4660   14.1080   -4.2040 O   0  0  0  0  0  0  0  0  0  0  0  0
  1  2  1  0
  2  3  1  0
  2  4  1  0
  3  5  2  0
  3  6  1  0
  4  7  1  0
  4  8  1  0
  5  9  1  0
  6 10  2  0
  7 11  1  6
  7 12  1  0
  8 13  1  0
 13 14  2  0
 11 15  2  0
  9 16  2  0
 10 16  1  0
 17 10  1  1
 11 18  1  0
 12 19  1  6
 12 20  1  0
 13 20  1  0
 17 21  1  0
 17 22  1  0
 18 23  1  0
 19 23  1  0
 21 24  1  1
 23 25  1  1
 21 26  1  0
 22 27  1  0
 24 28  1  0
 24 29  2  0
 26 30  1  0
 27 30  1  0
M  END
