diamond-x0524_0_A-mac-x0546
     RDKit          3D

 34 37  0  0  0  0  0  0  0  0999 V2000
   -0.3150    8.5170   -7.9690 N   0  0  0  0  0  0  0  0  0  0  0  0
   -0.8200    9.6190   -7.3130 C   0  0  0  0  0  0  0  0  0  0  0  0
   -2.1460    9.4440   -6.5910 C   0  0  0  0  0  0  0  0  0  0  0  0
    0.6470    8.6040   -9.0040 C   0  0  0  0  0  0  0  0  0  0  0  0
   -0.2720   10.7860   -7.2440 N   0  0  0  0  0  0  0  0  0  0  0  0
    1.7460    7.7450   -8.9610 C   0  0  0  0  0  0  0  0  0  0  0  0
    0.5570    9.5030  -10.0700 C   0  0  0  0  0  0  0  0  0  0  0  0
   -0.8520   11.9390   -6.5470 C   0  0  0  0  0  0  0  0  0  0  0  0
    2.7320    7.7820   -9.9520 C   0  0  0  0  0  0  0  0  0  0  0  0
    1.5420    9.5390  -11.0640 C   0  0  0  0  0  0  0  0  0  0  0  0
   -0.8520   11.7740   -5.0210 C   0  0  0  0  0  0  0  0  0  0  0  0
    2.6430    8.6810  -11.0220 C   0  0  0  0  0  0  0  0  0  0  0  0
    3.6530    8.6830  -11.9940 N   0  0  0  0  0  0  0  0  0  0  0  0
    0.3550   12.4480   -4.3340 C   0  0  2  0  0  0  0  0  0  0  0  0
    0.3850   12.0660   -2.8640 C   0  0  0  0  0  0  0  0  0  0  0  0
    3.9390    9.5630  -13.0500 C   0  0  0  0  0  0  0  0  0  0  0  0
    0.5260   13.9400   -4.4430 C   0  0  0  0  0  0  0  0  0  0  0  0
    0.7190   12.7640   -1.9230 O   0  0  0  0  0  0  0  0  0  0  0  0
   -0.0040   10.7960   -2.6420 O   0  0  0  0  0  0  0  0  0  0  0  0
    3.2060   10.7320  -13.2920 C   0  0  0  0  0  0  0  0  0  0  0  0
    5.0040    9.2610  -13.9020 C   0  0  0  0  0  0  0  0  0  0  0  0
   -0.5610   14.9670   -4.2510 C   0  0  2  0  0  0  0  0  0  0  0  0
    1.6530   14.5850   -4.6890 C   0  0  0  0  0  0  0  0  0  0  0  0
    3.5300   11.5740  -14.3550 C   0  0  0  0  0  0  0  0  0  0  0  0
    5.3310   10.1010  -14.9670 C   0  0  0  0  0  0  0  0  0  0  0  0
   -1.8200   15.0360   -5.0410 C   0  0  0  0  0  0  0  0  0  0  0  0
    0.2910   16.1780   -4.5780 C   0  0  0  0  0  0  0  0  0  0  0  0
    1.5320   15.9410   -4.7800 N   0  0  0  0  0  0  0  0  0  0  0  0
    4.5910   11.2580  -15.1930 C   0  0  0  0  0  0  0  0  0  0  0  0
   -2.3190   16.2430   -5.3930 C   0  0  0  0  0  0  0  0  0  0  0  0
   -0.3420   17.5030   -4.6290 C   0  0  0  0  0  0  0  0  0  0  0  0
   -3.4700   16.4590   -6.0880 O   0  0  0  0  0  0  0  0  0  0  0  0
   -1.6210   17.4790   -5.0380 C   0  0  0  0  0  0  0  0  0  0  0  0
   -4.3980   15.3770   -6.1200 C   0  0  0  0  0  0  0  0  0  0  0  0
  1  2  1  0
  2  3  1  0
  1  4  1  0
  2  5  2  3
  4  6  2  0
  4  7  1  0
  5  8  1  0
  6  9  1  0
  7 10  2  0
  8 11  1  0
  9 12  2  0
 10 12  1  0
 12 13  1  0
 14 11  1  1
 14 15  1  0
 13 16  1  0
 14 17  1  0
 15 18  2  0
 15 19  1  0
 16 20  2  0
 16 21  1  0
 17 22  1  0
 17 23  2  0
 20 24  1  0
 21 25  2  0
 22 26  1  6
 22 27  1  0
 23 28  1  0
 27 28  2  0
 24 29  2  0
 25 29  1  0
 26 30  2  0
 27 31  1  0
 30 32  1  0
 30 33  1  0
 31 33  2  0
 32 34  1  0
M  END
