diamond-x0895_1_A-mac-x0451
     RDKit          3D

 13 14  0  0  0  0  0  0  0  0999 V2000
   -1.9860   14.6870    1.4920 O   0  0  0  0  0  0  0  0  0  0  0  0
   -3.1280   14.8220    1.0410 C   0  0  0  0  0  0  0  0  0  0  0  0
   -3.5320   14.8780   -0.3850 C   0  0  0  0  0  0  0  0  0  0  0  0
   -4.3250   14.9720    1.7340 N   0  0  0  0  0  0  0  0  0  0  0  0
   -4.5160   14.7250    3.0940 N   0  0  0  0  0  0  0  0  0  0  0  0
   -5.4150   14.8640    0.9320 C   0  0  0  0  0  0  0  0  0  0  0  0
   -2.8900   14.9040   -1.6080 C   0  0  0  0  0  0  0  0  0  0  0  0
   -4.9080   14.9140   -0.4180 C   0  0  0  0  0  0  0  0  0  0  0  0
   -6.5740   14.7440    1.2550 O   0  0  0  0  0  0  0  0  0  0  0  0
   -1.5630   14.8700   -1.7450 F   0  0  0  0  0  0  0  0  0  0  0  0
   -5.7000   14.9790   -1.4860 N   0  0  0  0  0  0  0  0  0  0  0  0
   -3.6660   14.9720   -2.7600 C   0  0  0  0  0  0  0  0  0  0  0  0
   -5.0490   15.0060   -2.6470 C   0  0  0  0  0  0  0  0  0  0  0  0
  1  2  2  0
  2  3  1  0
  2  4  1  0
  4  5  1  0
  4  6  1  0
  3  7  2  0
  3  8  1  0
  6  8  1  0
  6  9  2  0
  7 10  1  0
  8 11  2  0
  7 12  1  0
 11 13  1  0
 12 13  2  0
M  END
