diamond-x0592_0_A-diamond-x0685_0_A
     RDKit          3D

 13 14  0  0  0  0  0  0  0  0999 V2000
   -2.9040   14.3640    1.0360 N   0  0  0  0  0  0  0  0  0  0  0  0
   -3.5190   15.2050    0.0010 C   0  0  1  0  0  0  0  0  0  0  0  0
   -2.9830   14.9990   -1.3740 C   0  0  0  0  0  0  0  0  0  0  0  0
   -4.9780   14.9560   -0.0570 C   0  0  0  0  0  0  0  0  0  0  0  0
   -2.6550   14.8750   -2.4920 N   0  0  0  0  0  0  0  0  0  0  0  0
   -5.6820   14.8030   -1.2800 C   0  0  0  0  0  0  0  0  0  0  0  0
   -5.9640   14.8280    0.9160 C   0  0  0  0  0  0  0  0  0  0  0  0
   -6.0540   14.8730    2.2850 N   0  0  0  0  0  0  0  0  0  0  0  0
   -6.9820   14.5940   -1.1180 N   0  0  0  0  0  0  0  0  0  0  0  0
   -7.1240   14.6140    0.2120 N   0  0  0  0  0  0  0  0  0  0  0  0
   -7.3250   15.1920    2.8210 O   0  0  0  0  0  0  0  0  0  0  0  0
   -8.4160   14.4230    0.8390 C   0  0  0  0  0  0  0  0  0  0  0  0
   -8.2180   14.1910    2.3240 C   0  0  0  0  0  0  0  0  0  0  0  0
  2  1  1  1
  2  3  1  0
  2  4  1  0
  3  5  3  0
  4  6  1  0
  4  7  2  0
  7  8  1  0
  6  9  2  0
  7 10  1  0
  9 10  1  0
  8 11  1  0
 10 12  1  0
 11 13  1  0
 12 13  1  0
M  END
