diamond-x0592_0_A-diamond-x0933_0_A
     RDKit          3D

 11 11  0  0  0  0  0  0  0  0999 V2000
   -2.7120   14.9140    1.0760 N   0  0  0  0  0  0  0  0  0  0  0  0
   -3.2620   14.9120   -0.1700 C   0  0  0  0  0  0  0  0  0  0  0  0
   -2.5490   14.9170   -1.1650 O   0  0  0  0  0  0  0  0  0  0  0  0
   -4.7030   14.8970   -0.2300 C   0  0  0  0  0  0  0  0  0  0  0  0
   -5.5210   15.1980   -1.3480 C   0  0  0  0  0  0  0  0  0  0  0  0
   -5.6100   14.5900    0.7640 C   0  0  0  0  0  0  0  0  0  0  0  0
   -6.8280   15.0880   -1.0770 N   0  0  0  0  0  0  0  0  0  0  0  0
   -6.8520   14.7170    0.2170 N   0  0  0  0  0  0  0  0  0  0  0  0
   -8.1150   14.4960    0.8980 C   0  0  0  0  0  0  0  0  0  0  0  0
   -7.8950   14.0740    2.3510 C   0  0  0  0  0  0  0  0  0  0  0  0
   -7.1920   15.0650    3.0960 O   0  0  0  0  0  0  0  0  0  0  0  0
  1  2  1  0
  2  3  2  0
  2  4  1  0
  4  5  1  0
  4  6  2  0
  5  7  2  0
  6  8  1  0
  7  8  1  0
  8  9  1  0
  9 10  1  0
 10 11  1  0
M  END
