diamond-x0689_0_A-diamond-x0895_1_A
     RDKit          3D

 11 12  0  0  0  0  0  0  0  0999 V2000
   -2.3000   14.5350    0.8030 C   0  0  0  0  0  0  0  0  0  0  0  0
   -1.3720   14.4860    1.7350 N   0  0  0  0  0  0  0  0  0  0  0  0
   -0.1220   14.4400    1.3020 C   0  0  0  0  0  0  0  0  0  0  0  0
   -2.0630   14.5310   -0.5150 N   0  0  0  0  0  0  0  0  0  0  0  0
   -3.5580   14.6080    1.1890 N   0  0  0  0  0  0  0  0  0  0  0  0
   -0.7920   14.4820   -0.9070 C   0  0  0  0  0  0  0  0  0  0  0  0
   -4.1070   15.8710    0.9420 C   0  0  0  0  0  0  0  0  0  0  0  0
   -4.5190   13.7470    0.5890 C   0  0  0  0  0  0  0  0  0  0  0  0
    0.2420   14.4370   -0.0270 C   0  0  0  0  0  0  0  0  0  0  0  0
   -4.8590   14.3130   -0.7280 N   0  0  0  0  0  0  0  0  0  0  0  0
   -4.4100   15.7120   -0.5630 C   0  0  0  0  0  0  0  0  0  0  0  0
  1  2  2  0
  2  3  1  0
  1  4  1  0
  1  5  1  0
  4  6  2  0
  5  7  1  0
  5  8  1  0
  3  9  2  0
  6  9  1  0
  8 10  1  0
  7 11  1  0
 10 11  1  0
M  END
