diamond-x0742_0_A-diamond-x0421_0_A
     RDKit          3D

 21 24  0  0  0  0  0  0  0  0999 V2000
   -5.0400   12.3340    0.1860 C   0  0  0  0  0  0  0  0  0  0  0  0
   -6.0270   11.7590    1.1610 C   0  0  0  0  0  0  0  0  0  0  0  0
   -5.0190   11.6010   -0.9290 O   0  0  0  0  0  0  0  0  0  0  0  0
   -4.1030   13.6810    0.1000 C   0  0  1  0  0  0  0  0  0  0  0  0
   -5.3480   14.3350    0.7620 S   0  0  0  0  0  0  0  0  0  0  0  0
   -4.1680   14.6820   -0.9950 C   0  0  2  0  0  0  0  0  0  0  0  0
   -3.5800   12.8110   -1.0250 C   0  0  0  0  0  0  0  0  0  0  0  0
   -3.4190   14.7770   -2.2320 C   0  0  0  0  0  0  0  0  0  0  0  0
   -4.6940   16.0920    0.3510 C   0  0  0  0  0  0  0  0  0  0  0  0
   -2.3140   13.3540   -0.5040 C   0  0  0  0  0  0  0  0  0  0  0  0
   -3.9800   13.3970    1.1450 C   0  0  0  0  0  0  0  0  0  0  0  0
   -7.1000   14.4210    1.4490 C   0  0  0  0  0  0  0  0  0  0  0  0
   -7.1380   13.8060    0.2190 C   0  0  0  0  0  0  0  0  0  0  0  0
   -3.5850   15.7950   -0.2450 C   0  0  0  0  0  0  0  0  0  0  0  0
   -3.7720   14.7850   -3.6040 N   0  0  0  0  0  0  0  0  0  0  0  0
   -2.1350   14.9150   -2.1710 O   0  0  0  0  0  0  0  0  0  0  0  0
   -1.0760   13.5720   -0.9590 C   0  0  0  0  0  0  0  0  0  0  0  0
   -2.5590   13.7000    0.8210 C   0  0  0  0  0  0  0  0  0  0  0  0
   -1.6460   14.2340    1.7040 N   0  0  0  0  0  0  0  0  0  0  0  0
   -0.1400   14.1000   -0.1360 C   0  0  0  0  0  0  0  0  0  0  0  0
   -0.4700   14.4020    1.1530 C   0  0  0  0  0  0  0  0  0  0  0  0
  1  2  1  0
  1  3  2  0
  4  1  1  6
  4  5  1  0
  4  6  1  0
  4  7  1  0
  6  8  1  6
  5  9  1  0
  7 10  1  0
  5 11  1  0
  5 12  1  0
  5 13  1  0
 12 13  1  0
  6 14  1  0
  9 14  1  0
  8 15  1  0
  8 16  2  0
 10 17  2  0
 10 18  1  0
 11 18  1  0
 18 19  2  0
 17 20  1  0
 19 21  1  0
 20 21  2  0
M  END
