diamond-x0685_1_A-diamond-x0864_0_A
     RDKit          3D

 15 15  0  0  0  0  0  0  0  0999 V2000
   -0.8580   10.5660   -4.7630 N   0  0  0  0  0  0  0  0  0  0  0  0
   -1.3260   11.9290   -4.5220 C   0  0  0  0  0  0  0  0  0  0  0  0
   -0.2340   12.8340   -3.9570 C   0  0  0  0  0  0  0  0  0  0  0  0
   -1.1640   10.0600   -6.1060 C   0  0  2  0  0  0  0  0  0  0  0  0
   -0.6060    8.6420   -6.2790 C   0  0  0  0  0  0  0  0  0  0  0  0
   -0.5150   10.9450   -7.1760 C   0  0  0  0  0  0  0  0  0  0  0  0
    0.6450   12.0690   -2.5960 S   0  0  0  0  0  0  0  0  0  0  0  0
    0.2950   11.8440   -6.9050 O   0  0  0  0  0  0  0  0  0  0  0  0
    0.0970    8.5130   -7.6330 C   0  0  0  0  0  0  0  0  0  0  0  0
   -0.8970   10.6040   -8.5910 C   0  0  0  0  0  0  0  0  0  0  0  0
    2.1970   12.3460   -2.8610 O   0  0  0  0  0  0  0  0  0  0  0  0
    0.3170   10.4980   -2.5370 O   0  0  0  0  0  0  0  0  0  0  0  0
    0.1690   12.7710   -1.2420 O   0  0  0  0  0  0  0  0  0  0  0  0
   -0.8210    9.0890   -8.7040 C   0  0  2  0  0  0  0  0  0  0  0  0
   -2.5840    8.3180   -8.3730 Br  0  0  0  0  0  0  0  0  0  0  0  0
  1  2  1  0
  2  3  1  0
  4  1  1  1
  4  5  1  0
  4  6  1  0
  3  7  1  0
  6  8  2  0
  5  9  1  0
  6 10  1  0
  7 11  1  0
  7 12  1  0
  7 13  1  0
  9 14  1  0
 10 14  1  0
 14 15  1  1
M  END
