diamond-x0628_0_A-diamond-x0849_0_A
     RDKit          3D

 25 27  0  0  0  0  0  0  0  0999 V2000
   -0.9290    9.0440   -7.3350 C   0  0  0  0  0  0  0  0  0  0  0  0
   -0.9050   10.2310   -6.4600 C   0  0  0  0  0  0  0  0  0  0  0  0
   -1.8720   10.4810   -5.5240 N   0  0  0  0  0  0  0  0  0  0  0  0
    0.0640   11.1470   -6.5160 N   0  0  0  0  0  0  0  0  0  0  0  0
   -0.3150   12.0170   -5.5600 N   0  0  0  0  0  0  0  0  0  0  0  0
   -1.4890   11.6110   -4.9580 C   0  0  0  0  0  0  0  0  0  0  0  0
   -2.2060   12.3220   -3.8500 C   0  0  0  0  0  0  0  0  0  0  0  0
    0.4860   13.1920   -5.2840 C   0  0  0  0  0  0  0  0  0  0  0  0
    1.6450   12.9640   -4.3150 C   0  0  0  0  0  0  0  0  0  0  0  0
   -2.5430   13.7930   -4.1450 C   0  0  0  0  0  0  0  0  0  0  0  0
    1.1770   12.2120   -3.0990 C   0  0  0  0  0  0  0  0  0  0  0  0
   -3.7200   14.3190   -3.3110 C   0  0  0  0  0  0  0  0  0  0  0  0
    0.4910   11.2020   -3.0980 O   0  0  0  0  0  0  0  0  0  0  0  0
    1.5980   12.7830   -1.9560 O   0  0  0  0  0  0  0  0  0  0  0  0
   -3.2480   15.3640   -2.4550 O   0  0  0  0  0  0  0  0  0  0  0  0
   -3.4280   15.2480   -1.0890 C   0  0  0  0  0  0  0  0  0  0  0  0
   -2.2880   14.9110   -0.3090 C   0  0  0  0  0  0  0  0  0  0  0  0
   -4.6360   15.4490   -0.4450 C   0  0  0  0  0  0  0  0  0  0  0  0
   -2.4420   14.8000    1.0800 C   0  0  0  0  0  0  0  0  0  0  0  0
   -4.6630   15.3070    0.9220 C   0  0  0  0  0  0  0  0  0  0  0  0
   -1.0010   14.6860   -0.8390 C   0  0  0  0  0  0  0  0  0  0  0  0
   -3.6020   14.9940    1.6660 N   0  0  0  0  0  0  0  0  0  0  0  0
   -1.4390   14.4980    1.8760 N   0  0  0  0  0  0  0  0  0  0  0  0
    0.0500   14.3720    0.0080 C   0  0  0  0  0  0  0  0  0  0  0  0
   -0.2330   14.2930    1.3550 C   0  0  0  0  0  0  0  0  0  0  0  0
  1  2  1  0
  2  3  1  0
  2  4  2  0
  4  5  1  0
  3  6  2  0
  5  6  1  0
  6  7  1  0
  5  8  1  0
  8  9  1  0
  7 10  1  0
  9 11  1  0
 10 12  1  0
 11 13  2  0
 11 14  1  0
 12 15  1  0
 15 16  1  0
 16 17  1  0
 16 18  2  0
 17 19  2  0
 18 20  1  0
 17 21  1  0
 19 22  1  0
 20 22  2  0
 19 23  1  0
 21 24  2  0
 23 25  2  0
 24 25  1  0
M  END
