diamond-x0962_2_B-mac-x0132
     RDKit          3D

 19 21  0  0  0  0  0  0  0  0999 V2000
  -10.9620   15.8570    1.5030 N   0  0  0  0  0  0  0  0  0  0  0  0
   -9.5180   15.6690    1.5760 C   0  0  2  0  0  0  0  0  0  0  0  0
   -8.9510   14.5540    0.6730 C   0  0  0  0  0  0  0  0  0  0  0  0
   -9.0100   15.4690    2.9540 C   0  0  0  0  0  0  0  0  0  0  0  0
   -9.0430   16.3770    3.9860 N   0  0  0  0  0  0  0  0  0  0  0  0
   -8.4050   14.3580    3.4900 C   0  0  0  0  0  0  0  0  0  0  0  0
   -7.5000   14.7110    0.2870 C   0  0  0  0  0  0  0  0  0  0  0  0
   -8.4600   15.7790    5.0660 C   0  0  0  0  0  0  0  0  0  0  0  0
   -8.0720   14.5560    4.7970 N   0  0  0  0  0  0  0  0  0  0  0  0
   -7.1960   14.7000   -1.0180 N   0  0  0  0  0  0  0  0  0  0  0  0
   -6.5890   14.8720    1.2760 N   0  0  0  0  0  0  0  0  0  0  0  0
   -5.3090   15.0480    0.8880 C   0  0  0  0  0  0  0  0  0  0  0  0
   -5.9190   14.8640   -1.3540 C   0  0  0  0  0  0  0  0  0  0  0  0
   -4.3370   15.2580    1.8560 N   0  0  0  0  0  0  0  0  0  0  0  0
   -4.9120   15.0450   -0.4210 C   0  0  0  0  0  0  0  0  0  0  0  0
   -5.5720   14.8620   -2.6900 C   0  0  0  0  0  0  0  0  0  0  0  0
   -4.2460   15.0290   -3.1040 C   0  0  0  0  0  0  0  0  0  0  0  0
   -3.5740   15.2150   -0.8200 C   0  0  0  0  0  0  0  0  0  0  0  0
   -3.2470   15.2040   -2.1620 C   0  0  0  0  0  0  0  0  0  0  0  0
  2  1  1  1
  2  3  1  0
  2  4  1  0
  4  5  1  0
  4  6  2  0
  3  7  1  0
  5  8  1  0
  6  9  1  0
  8  9  2  0
  7 10  2  0
  7 11  1  0
 11 12  2  0
 10 13  1  0
 12 14  1  0
 12 15  1  0
 13 15  2  0
 13 16  1  0
 16 17  2  0
 15 18  1  0
 17 19  1  0
 18 19  2  0
M  END
