diamond-x0805_0_A-mac-x0321
     RDKit          3D

 25 27  0  0  0  0  0  0  0  0999 V2000
   -4.2720   13.6520   -1.2130 O   0  0  0  0  0  0  0  0  0  0  0  0
   -3.4530   12.9960   -2.1040 C   0  0  0  0  0  0  0  0  0  0  0  0
   -2.3120   13.5760   -2.7170 C   0  0  0  0  0  0  0  0  0  0  0  0
   -3.8500   11.7120   -2.3440 C   0  0  0  0  0  0  0  0  0  0  0  0
   -3.1080   10.9520   -3.2170 C   0  0  0  0  0  0  0  0  0  0  0  0
   -1.5320   12.8280   -3.5960 C   0  0  0  0  0  0  0  0  0  0  0  0
   -2.0760   14.9630   -2.3470 C   0  0  0  0  0  0  0  0  0  0  0  0
   -1.9710   11.4970   -3.8290 C   0  0  0  0  0  0  0  0  0  0  0  0
   -0.2390   13.2610   -4.3280 C   0  0  2  0  0  0  0  0  0  0  0  0
   -0.9150   15.1070   -1.5620 O   0  0  0  0  0  0  0  0  0  0  0  0
   -1.9100   15.7020   -3.5620 O   0  0  0  0  0  0  0  0  0  0  0  0
   -3.4020   15.2530   -1.7180 C   0  0  0  0  0  0  0  0  0  0  0  0
    0.9010   12.9740   -3.3920 C   0  0  1  0  0  0  0  0  0  0  0  0
    0.0240   14.6240   -4.9660 C   0  0  0  0  0  0  0  0  0  0  0  0
   -3.5910   15.4330   -0.3420 C   0  0  0  0  0  0  0  0  0  0  0  0
   -4.5080   15.3000   -2.5750 C   0  0  0  0  0  0  0  0  0  0  0  0
    0.6290   11.7480   -2.5910 C   0  0  0  0  0  0  0  0  0  0  0  0
    2.2420   13.0510   -4.0580 C   0  0  0  0  0  0  0  0  0  0  0  0
    1.3100   15.2710   -4.4350 C   0  0  0  0  0  0  0  0  0  0  0  0
   -4.8680   15.6440    0.1450 C   0  0  0  0  0  0  0  0  0  0  0  0
   -5.7770   15.5100   -2.0840 C   0  0  0  0  0  0  0  0  0  0  0  0
    0.3470   10.6390   -3.2960 O   0  0  0  0  0  0  0  0  0  0  0  0
    0.6290   11.7570   -1.3790 O   0  0  0  0  0  0  0  0  0  0  0  0
    2.4680   14.3960   -4.4700 O   0  0  0  0  0  0  0  0  0  0  0  0
   -5.9590   15.6770   -0.7300 C   0  0  0  0  0  0  0  0  0  0  0  0
  1  2  1  0
  2  3  2  0
  2  4  1  0
  4  5  2  0
  3  6  1  0
  3  7  1  0
  5  8  1  0
  6  8  2  0
  9  6  1  1
  7 10  1  0
  7 11  1  0
  7 12  1  0
  9 13  1  0
  9 14  1  0
 12 15  2  0
 12 16  1  0
 13 17  1  6
 13 18  1  0
 14 19  1  0
 15 20  1  0
 16 21  2  0
 17 22  1  0
 17 23  2  0
 18 24  1  0
 19 24  1  0
 20 25  2  0
 21 25  1  0
M  END
