diamond-x0950_1_A-diamond-x0689_0_A
     RDKit          3D

 15 15  0  0  0  0  0  0  0  0999 V2000
    1.1120   13.9920   -4.9980 C   0  0  0  0  0  0  0  0  0  0  0  0
    1.3100   12.5470   -4.5730 C   0  0  2  0  0  0  0  0  0  0  0  0
    0.7000   11.7130   -5.5510 O   0  0  0  0  0  0  0  0  0  0  0  0
    0.7490   12.3330   -3.1670 C   0  0  0  0  0  0  0  0  0  0  0  0
    0.4660   11.2480   -2.6570 O   0  0  0  0  0  0  0  0  0  0  0  0
    0.6020   13.5550   -2.5690 O   0  0  0  0  0  0  0  0  0  0  0  0
    0.8140   13.5580   -1.1660 C   0  0  0  0  0  0  0  0  0  0  0  0
   -0.3500   14.0670   -0.3920 C   0  0  0  0  0  0  0  0  0  0  0  0
   -1.4980   14.4940   -0.9980 C   0  0  0  0  0  0  0  0  0  0  0  0
   -0.3720   14.1350    0.9880 C   0  0  0  0  0  0  0  0  0  0  0  0
   -2.5660   14.9430   -0.3210 N   0  0  0  0  0  0  0  0  0  0  0  0
   -1.4110   14.5790    1.7090 N   0  0  0  0  0  0  0  0  0  0  0  0
   -2.4800   14.9730    1.0140 C   0  0  0  0  0  0  0  0  0  0  0  0
   -3.5920   15.4510    1.6650 N   0  0  0  0  0  0  0  0  0  0  0  0
   -4.8400   14.9830    1.1220 C   0  0  0  0  0  0  0  0  0  0  0  0
  2  1  1  6
  2  3  1  0
  2  4  1  0
  4  5  2  0
  4  6  1  0
  6  7  1  0
  7  8  1  0
  8  9  2  0
  8 10  1  0
  9 11  1  0
 10 12  2  0
 11 13  2  0
 12 13  1  0
 13 14  1  0
 14 15  1  0
M  END
