diamond-x0282_0_A-diamond-x0933_0_A
     RDKit          3D

 14 15  0  0  0  0  0  0  0  0999 V2000
   -7.0700   13.3510    0.5710 C   0  0  0  0  0  0  0  0  0  0  0  0
   -8.4450   13.6080    0.2990 O   0  0  0  0  0  0  0  0  0  0  0  0
   -6.3490   14.6860    0.6090 C   0  0  0  0  0  0  0  0  0  0  0  0
   -5.4100   14.8320    1.8100 C   0  0  0  0  0  0  0  0  0  0  0  0
   -5.6300   15.0590   -0.6970 C   0  0  0  0  0  0  0  0  0  0  0  0
   -4.1370   14.0180    1.6260 C   0  0  0  0  0  0  0  0  0  0  0  0
   -4.3180   14.2990   -0.8810 C   0  0  0  0  0  0  0  0  0  0  0  0
   -3.5410   14.3340    0.3490 N   0  0  0  0  0  0  0  0  0  0  0  0
   -2.1900   14.4680    0.2690 C   0  0  0  0  0  0  0  0  0  0  0  0
   -1.6840   14.5480   -0.9720 N   0  0  0  0  0  0  0  0  0  0  0  0
   -1.4350   14.5130    1.3890 N   0  0  0  0  0  0  0  0  0  0  0  0
   -0.3710   14.6850   -1.1060 C   0  0  0  0  0  0  0  0  0  0  0  0
   -0.1190   14.6480    1.1920 C   0  0  0  0  0  0  0  0  0  0  0  0
    0.4690   14.7450   -0.0530 C   0  0  0  0  0  0  0  0  0  0  0  0
  1  2  1  0
  1  3  1  0
  3  4  1  0
  3  5  1  0
  4  6  1  0
  5  7  1  0
  6  8  1  0
  7  8  1  0
  8  9  1  0
  9 10  2  0
  9 11  1  0
 10 12  1  0
 11 13  2  0
 12 14  2  0
 13 14  1  0
M  END
