diamond-x0905_0_A-mac-x0328
     RDKit          3D

 10 10  0  0  0  0  0  0  0  0999 V2000
   -6.9630   15.1860   -1.0040 O   0  0  0  0  0  0  0  0  0  0  0  0
   -5.6280   15.1130   -0.7270 C   0  0  0  0  0  0  0  0  0  0  0  0
   -5.3420   15.1320    0.5850 N   0  0  0  0  0  0  0  0  0  0  0  0
   -4.6720   15.0230   -1.7330 C   0  0  0  0  0  0  0  0  0  0  0  0
   -4.0470   15.0700    0.9370 C   0  0  0  0  0  0  0  0  0  0  0  0
   -3.3300   14.9450   -1.3330 C   0  0  0  0  0  0  0  0  0  0  0  0
   -2.1750   14.8250   -2.2730 C   0  0  0  0  0  0  0  0  0  0  0  0
   -3.0160   14.9750    0.0290 C   0  0  0  0  0  0  0  0  0  0  0  0
   -2.4880   14.9270   -3.5770 O   0  0  0  0  0  0  0  0  0  0  0  0
   -1.0220   14.6480   -1.9280 O   0  0  0  0  0  0  0  0  0  0  0  0
  1  2  1  0
  2  3  2  0
  2  4  1  0
  3  5  1  0
  4  6  2  0
  6  7  1  0
  5  8  2  0
  6  8  1  0
  7  9  1  0
  7 10  2  0
M  END
