diamond-x0104_0_A-mac-x0398
     RDKit          3D

 19 20  0  0  0  0  0  0  0  0999 V2000
   -6.7310   14.8470    2.6690 N   0  0  0  0  0  0  0  0  0  0  0  0
   -8.1280   15.1360    2.9730 C   0  0  0  0  0  0  0  0  0  0  0  0
   -8.6350   15.1140    4.1690 N   0  0  0  0  0  0  0  0  0  0  0  0
   -6.2540   14.7730    1.3570 C   0  0  0  0  0  0  0  0  0  0  0  0
   -8.7780   15.4110    1.9160 O   0  0  0  0  0  0  0  0  0  0  0  0
   -4.8650   14.8770    1.1070 C   0  0  0  0  0  0  0  0  0  0  0  0
   -7.0500   14.6090    0.2430 C   0  0  0  0  0  0  0  0  0  0  0  0
   -4.3680   14.8140   -0.1250 N   0  0  0  0  0  0  0  0  0  0  0  0
   -6.4930   14.5560   -0.9910 C   0  0  0  0  0  0  0  0  0  0  0  0
   -9.3520   15.0770    5.3270 C   0  0  0  0  0  0  0  0  0  0  0  0
   -5.1180   14.6550   -1.2230 C   0  0  0  0  0  0  0  0  0  0  0  0
   -9.2610   15.1330    6.6660 C   0  0  0  0  0  0  0  0  0  0  0  0
  -11.1030   14.8840    5.1120 S   0  0  0  0  0  0  0  0  0  0  0  0
   -4.6570   14.5790   -2.5160 O   0  0  0  0  0  0  0  0  0  0  0  0
  -11.5740   14.8940    6.7270 C   0  0  0  0  0  0  0  0  0  0  0  0
  -10.3910   15.0410    7.3840 C   0  0  0  0  0  0  0  0  0  0  0  0
   -3.4320   15.0790   -2.9570 C   0  0  0  0  0  0  0  0  0  0  0  0
   -3.5330   15.6410   -4.0930 O   0  0  0  0  0  0  0  0  0  0  0  0
   -2.2370   14.9860   -2.2810 O   0  0  0  0  0  0  0  0  0  0  0  0
  1  2  1  0
  2  3  1  0
  1  4  1  0
  2  5  2  0
  4  6  2  0
  4  7  1  0
  6  8  1  0
  7  9  2  0
  3 10  1  0
  8 11  2  0
  9 11  1  0
 10 12  2  0
 10 13  1  0
 11 14  1  0
 13 15  1  0
 12 16  1  0
 15 16  2  0
 14 17  1  0
 17 18  2  0
 17 19  1  0
M  END
