diamond-x0724_0_A-mac-x0567
     RDKit          3D

 18 20  0  0  0  0  0  0  0  0999 V2000
   -8.2540   13.7780    4.4480 N   0  0  0  0  0  0  0  0  0  0  0  0
   -8.7060   13.9870    5.8190 C   0  0  0  0  0  0  0  0  0  0  0  0
   -8.3710   14.9870    3.6430 C   0  0  0  0  0  0  0  0  0  0  0  0
   -7.6480   14.8380    2.3520 C   0  0  0  0  0  0  0  0  0  0  0  0
   -6.2820   14.8680    2.1230 C   0  0  0  0  0  0  0  0  0  0  0  0
   -8.1930   14.6400    1.0700 C   0  0  0  0  0  0  0  0  0  0  0  0
   -7.2610   14.5570    0.1190 N   0  0  0  0  0  0  0  0  0  0  0  0
   -6.0680   14.7040    0.7730 N   0  0  0  0  0  0  0  0  0  0  0  0
   -4.8510   14.6770    0.0470 C   0  0  0  0  0  0  0  0  0  0  0  0
   -3.5210   14.6300    0.5730 C   0  0  0  0  0  0  0  0  0  0  0  0
   -4.9040   14.7020   -1.3740 C   0  0  0  0  0  0  0  0  0  0  0  0
   -2.3900   14.6060   -0.3440 C   0  0  0  0  0  0  0  0  0  0  0  0
   -3.7580   14.6820   -2.2130 C   0  0  0  0  0  0  0  0  0  0  0  0
   -3.0120   14.5980    1.8200 N   0  0  0  0  0  0  0  0  0  0  0  0
   -2.4410   14.6310   -1.7340 C   0  0  0  0  0  0  0  0  0  0  0  0
   -1.2260   14.5460    0.3960 C   0  0  0  0  0  0  0  0  0  0  0  0
   -1.6650   14.5480    1.6780 N   0  0  0  0  0  0  0  0  0  0  0  0
    0.0940   14.4920    0.0640 N   0  0  0  0  0  0  0  0  0  0  0  0
  1  2  1  0
  1  3  1  0
  3  4  1  0
  4  5  2  0
  4  6  1  0
  6  7  2  0
  5  8  1  0
  7  8  1  0
  8  9  1  0
  9 10  1  0
  9 11  2  0
 10 12  1  0
 11 13  1  0
 10 14  2  0
 12 15  1  0
 13 15  2  0
 12 16  2  0
 14 17  1  0
 16 17  1  0
 16 18  1  0
M  END
