diamond-x0855_0_A-mac-x0546
     RDKit          3D

 21 23  0  0  0  0  0  0  0  0999 V2000
    1.4370   12.8600   -2.2260 O   0  0  0  0  0  0  0  0  0  0  0  0
    0.8380   11.9540   -3.0260 C   0  0  0  0  0  0  0  0  0  0  0  0
    0.5550   12.4740   -4.4170 C   0  0  1  0  0  0  0  0  0  0  0  0
    0.5860   10.8430   -2.5920 O   0  0  0  0  0  0  0  0  0  0  0  0
   -0.5480   11.7230   -5.0110 N   0  0  0  0  0  0  0  0  0  0  0  0
    0.5370   13.9730   -4.4960 C   0  0  0  0  0  0  0  0  0  0  0  0
   -0.4100   10.7840   -6.0000 C   0  0  0  0  0  0  0  0  0  0  0  0
   -1.8290   11.8870   -4.6140 N   0  0  0  0  0  0  0  0  0  0  0  0
   -0.5820   14.9710   -4.3090 C   0  0  2  0  0  0  0  0  0  0  0  0
    1.6480   14.6360   -4.7210 C   0  0  0  0  0  0  0  0  0  0  0  0
   -1.6670   10.3140   -6.2340 C   0  0  0  0  0  0  0  0  0  0  0  0
   -2.5060   11.0190   -5.3680 C   0  0  0  0  0  0  0  0  0  0  0  0
   -1.8530   15.0380   -5.0680 C   0  0  0  0  0  0  0  0  0  0  0  0
    0.2600   16.1960   -4.6440 C   0  0  0  0  0  0  0  0  0  0  0  0
    1.5080   15.9850   -4.8230 N   0  0  0  0  0  0  0  0  0  0  0  0
   -2.1900    9.0010   -7.4480 Br  0  0  0  0  0  0  0  0  0  0  0  0
   -2.3610   16.2370   -5.4360 C   0  0  0  0  0  0  0  0  0  0  0  0
   -0.3780   17.5180   -4.7340 C   0  0  0  0  0  0  0  0  0  0  0  0
   -3.5290   16.4380   -6.1070 O   0  0  0  0  0  0  0  0  0  0  0  0
   -1.6600   17.4800   -5.1280 C   0  0  0  0  0  0  0  0  0  0  0  0
   -4.4420   15.3450   -6.1290 C   0  0  0  0  0  0  0  0  0  0  0  0
  1  2  1  0
  3  2  1  1
  2  4  2  0
  3  5  1  0
  3  6  1  0
  5  7  1  0
  5  8  1  0
  6  9  1  0
  6 10  2  0
  7 11  2  0
  8 12  2  0
 11 12  1  0
  9 13  1  6
  9 14  1  0
 10 15  1  0
 14 15  2  0
 11 16  1  0
 13 17  2  0
 14 18  1  0
 17 19  1  0
 17 20  1  0
 18 20  2  0
 19 21  1  0
M  END
