diamond-x0282_0_A-diamond-x0967_0_A
     RDKit          3D

 18 20  0  0  0  0  0  0  0  0999 V2000
   -7.4420   12.6790    0.9400 C   0  0  0  0  0  0  0  0  0  0  0  0
   -8.5240   13.3580    0.3000 O   0  0  0  0  0  0  0  0  0  0  0  0
   -6.1470   12.9360    0.1660 C   0  0  0  0  0  0  0  0  0  0  0  0
   -5.7340   14.3980   -0.0240 C   0  0  1  0  0  0  0  0  0  0  0  0
   -4.3590   14.5550   -0.7260 C   0  0  0  0  0  0  0  0  0  0  0  0
   -6.8730   15.1060   -0.6660 N   0  0  0  0  0  0  0  0  0  0  0  0
   -5.3710   15.0260    1.3140 C   0  0  1  0  0  0  0  0  0  0  0  0
   -6.5610   14.9110    2.2220 C   0  0  0  0  0  0  0  0  0  0  0  0
   -4.1110   14.2340    1.6620 C   0  0  0  0  0  0  0  0  0  0  0  0
   -3.4640   14.1790    0.3670 N   0  0  0  0  0  0  0  0  0  0  0  0
   -8.0660   15.0850    0.1950 C   0  0  0  0  0  0  0  0  0  0  0  0
   -2.1370   14.3870    0.2710 C   0  0  0  0  0  0  0  0  0  0  0  0
   -7.7970   14.9330    1.6820 C   0  0  0  0  0  0  0  0  0  0  0  0
   -1.6490   14.5030   -0.9700 N   0  0  0  0  0  0  0  0  0  0  0  0
   -1.3930   14.4610    1.3940 N   0  0  0  0  0  0  0  0  0  0  0  0
   -0.3460   14.7080   -1.1000 C   0  0  0  0  0  0  0  0  0  0  0  0
   -0.0900   14.6640    1.1980 C   0  0  0  0  0  0  0  0  0  0  0  0
    0.4920   14.8010   -0.0450 C   0  0  0  0  0  0  0  0  0  0  0  0
  1  2  1  0
  1  3  1  0
  4  3  1  1
  4  5  1  0
  4  6  1  0
  4  7  1  0
  7  8  1  1
  7  9  1  0
  5 10  1  0
  9 10  1  0
  6 11  1  0
 10 12  1  0
  8 13  2  0
 11 13  1  0
 12 14  2  0
 12 15  1  0
 14 16  1  0
 15 17  2  0
 16 18  2  0
 17 18  1  0
M  END
