diamond-x1012_0_A-diamond-x0724_0_A
     RDKit          3D

 27 29  0  0  0  0  0  0  0  0999 V2000
   -0.4550   18.2590   -4.4860 N   0  0  0  0  0  0  0  0  0  0  0  0
   -1.2930   17.2260   -4.6960 C   0  0  0  0  0  0  0  0  0  0  0  0
   -2.4930   17.4320   -4.6750 O   0  0  0  0  0  0  0  0  0  0  0  0
   -0.7280   15.9910   -4.9190 N   0  0  0  0  0  0  0  0  0  0  0  0
   -1.6250   14.8580   -4.6730 C   0  0  0  0  0  0  0  0  0  0  0  0
    0.7220   15.7450   -4.8660 C   0  0  0  0  0  0  0  0  0  0  0  0
   -1.2350   14.0570   -3.4260 C   0  0  2  0  0  0  0  0  0  0  0  0
    1.1570   14.6990   -3.8330 C   0  0  0  0  0  0  0  0  0  0  0  0
   -1.3530   14.9670   -2.1740 C   0  0  0  0  0  0  0  0  0  0  0  0
    0.1750   13.5290   -3.7070 C   0  0  1  0  0  0  0  0  0  0  0  0
    0.5750   12.4470   -2.7480 C   0  0  0  0  0  0  0  0  0  0  0  0
   -2.6430   14.8940   -1.4080 C   0  0  0  0  0  0  0  0  0  0  0  0
    0.2070   11.2110   -3.1100 O   0  0  0  0  0  0  0  0  0  0  0  0
    1.1810   12.6330   -1.7130 O   0  0  0  0  0  0  0  0  0  0  0  0
   -2.6400   15.0810   -0.0200 C   0  0  0  0  0  0  0  0  0  0  0  0
   -3.8560   14.6400   -2.0590 C   0  0  0  0  0  0  0  0  0  0  0  0
   -3.8260   15.0180    0.7070 C   0  0  0  0  0  0  0  0  0  0  0  0
   -5.0460   14.5760   -1.3380 C   0  0  0  0  0  0  0  0  0  0  0  0
   -5.0370   14.7660    0.0510 C   0  0  0  0  0  0  0  0  0  0  0  0
   -6.2470   14.7150    0.7850 N   0  0  0  0  0  0  0  0  0  0  0  0
   -7.4540   14.4870    0.2000 N   0  0  0  0  0  0  0  0  0  0  0  0
   -6.3810   14.8990    2.1390 C   0  0  0  0  0  0  0  0  0  0  0  0
   -7.7170   14.8090    2.4520 C   0  0  0  0  0  0  0  0  0  0  0  0
   -8.3290   14.5440    1.2100 C   0  0  0  0  0  0  0  0  0  0  0  0
   -8.3340   14.9690    3.7970 C   0  0  0  0  0  0  0  0  0  0  0  0
   -8.7680   13.6740    4.3060 N   0  0  0  0  0  0  0  0  0  0  0  0
   -8.6930   13.6620    5.7610 C   0  0  0  0  0  0  0  0  0  0  0  0
  1  2  1  0
  2  3  2  0
  2  4  1  0
  4  5  1  0
  4  6  1  0
  5  7  1  0
  6  8  1  0
  7  9  1  1
  7 10  1  0
  8 10  1  0
 10 11  1  1
  9 12  1  0
 11 13  1  0
 11 14  2  0
 12 15  2  0
 12 16  1  0
 15 17  1  0
 16 18  2  0
 17 19  2  0
 18 19  1  0
 19 20  1  0
 20 21  1  0
 20 22  1  0
 22 23  2  0
 21 24  2  0
 23 24  1  0
 23 25  1  0
 25 26  1  0
 26 27  1  0
M  END
