diamond-x0910_1_A-diamond-x0628_0_A
     RDKit          3D

 21 22  0  0  0  0  0  0  0  0999 V2000
   -7.5870   14.3790    1.1450 N   0  0  0  0  0  0  0  0  0  0  0  0
   -6.4990   14.6250    0.4180 C   0  0  0  0  0  0  0  0  0  0  0  0
   -6.3620   14.4280   -0.8930 N   0  0  0  0  0  0  0  0  0  0  0  0
   -5.4010   15.1220    1.0390 N   0  0  0  0  0  0  0  0  0  0  0  0
   -5.0830   14.8250   -1.0890 N   0  0  0  0  0  0  0  0  0  0  0  0
   -4.5250   15.2460    0.0710 C   0  0  0  0  0  0  0  0  0  0  0  0
   -4.4670   14.7640   -2.4080 C   0  0  0  0  0  0  0  0  0  0  0  0
   -4.6770   13.4030   -3.1140 C   0  0  0  0  0  0  0  0  0  0  0  0
   -3.4270   12.4820   -3.2220 C   0  0  0  0  0  0  0  0  0  0  0  0
   -2.3150   12.9820   -4.1690 C   0  0  0  0  0  0  0  0  0  0  0  0
   -1.6130   11.9640   -5.0390 C   0  0  0  0  0  0  0  0  0  0  0  0
   -2.0880   10.8040   -5.4810 N   0  0  0  0  0  0  0  0  0  0  0  0
   -0.3290   12.1070   -5.5240 N   0  0  0  0  0  0  0  0  0  0  0  0
    0.6180   13.1940   -5.3320 C   0  0  0  0  0  0  0  0  0  0  0  0
   -1.0530   10.2890   -6.2300 C   0  0  0  0  0  0  0  0  0  0  0  0
    0.0320   11.0570   -6.2780 N   0  0  0  0  0  0  0  0  0  0  0  0
   -1.1230    8.9920   -6.9300 C   0  0  0  0  0  0  0  0  0  0  0  0
    1.6650   12.9390   -4.2510 C   0  0  0  0  0  0  0  0  0  0  0  0
    1.0720   12.2960   -3.0260 C   0  0  0  0  0  0  0  0  0  0  0  0
    0.6250   11.1630   -2.9250 O   0  0  0  0  0  0  0  0  0  0  0  0
    1.0740   13.1230   -1.9690 O   0  0  0  0  0  0  0  0  0  0  0  0
  1  2  1  0
  2  3  2  0
  2  4  1  0
  3  5  1  0
  4  6  2  0
  5  6  1  0
  5  7  1  0
  7  8  1  0
  8  9  1  0
  9 10  1  0
 10 11  1  0
 11 12  2  0
 11 13  1  0
 13 14  1  0
 12 15  1  0
 13 16  1  0
 15 16  2  0
 15 17  1  0
 14 18  1  0
 18 19  1  0
 19 20  2  0
 19 21  1  0
M  END
