diamond-x0905_0_A-mac-x0402
     RDKit          3D

 12 13  0  0  0  0  0  0  0  0999 V2000
   -7.1500   14.6860   -1.3250 O   0  0  0  0  0  0  0  0  0  0  0  0
   -6.1650   15.0750   -0.4140 C   0  0  2  0  0  0  0  0  0  0  0  0
   -4.8630   14.5700   -0.6950 N   0  0  0  0  0  0  0  0  0  0  0  0
   -6.6430   14.7210    0.9040 N   0  0  0  0  0  0  0  0  0  0  0  0
   -3.9220   14.9740    0.3420 C   0  0  2  0  0  0  0  0  0  0  0  0
   -4.3250   15.1570   -1.9270 C   0  0  0  0  0  0  0  0  0  0  0  0
   -5.7630   14.7410    2.0630 C   0  0  1  0  0  0  0  0  0  0  0  0
   -6.5510   13.9860    2.9890 N   0  0  0  0  0  0  0  0  0  0  0  0
   -2.5420   14.9480   -0.2860 C   0  0  0  0  0  0  0  0  0  0  0  0
   -2.8440   15.4420   -1.6990 C   0  0  1  0  0  0  0  0  0  0  0  0
   -4.1510   14.0170    1.8230 S   0  0  0  0  0  0  0  0  0  0  0  0
   -1.8450   14.6870   -2.9660 Cl  0  0  0  0  0  0  0  0  0  0  0  0
  2  1  1  6
  2  3  1  0
  2  4  1  0
  3  5  1  0
  3  6  1  0
  4  7  1  0
  7  8  1  1
  5  9  1  6
  6 10  1  0
  9 10  1  0
  5 11  1  0
  7 11  1  0
 10 12  1  6
M  END
