diamond-x0681_0_A-mac-x0588
     RDKit          3D

 27 31  0  0  0  0  0  0  0  0999 V2000
   -6.0850   14.8950   -3.0510 N   0  0  0  0  0  0  0  0  0  0  0  0
   -5.1130   15.1510   -1.9760 C   0  0  0  0  0  0  0  0  0  0  0  0
   -5.6630   14.8750   -0.5630 C   0  0  1  0  0  0  0  0  0  0  0  0
   -6.0110   13.4290   -0.4250 C   0  0  0  0  0  0  0  0  0  0  0  0
   -4.7730   15.3130    0.6510 C   0  0  1  0  0  0  0  0  0  0  0  0
   -6.4000   12.9810    0.7830 N   0  0  0  0  0  0  0  0  0  0  0  0
   -5.2400   14.7200    1.9940 C   0  0  0  0  0  0  0  0  0  0  0  0
   -6.0090   12.4610   -1.3170 N   0  0  0  0  0  0  0  0  0  0  0  0
   -3.4290   14.9120    0.3950 N   0  0  0  0  0  0  0  0  0  0  0  0
   -6.4750   13.8410    1.9300 C   0  0  0  0  0  0  0  0  0  0  0  0
   -6.6750   11.6590    0.6920 C   0  0  0  0  0  0  0  0  0  0  0  0
   -6.4240   11.3520   -0.6260 C   0  0  0  0  0  0  0  0  0  0  0  0
   -2.8920   15.4730   -0.7990 C   0  0  2  0  0  0  0  0  0  0  0  0
   -3.1690   14.5500   -1.8670 N   0  0  0  0  0  0  0  0  0  0  0  0
   -1.4330   15.6700   -0.5600 C   0  0  2  0  0  0  0  0  0  0  0  0
   -2.2360   14.6600   -2.9770 C   0  0  0  0  0  0  0  0  0  0  0  0
   -0.7790   14.4480   -1.1370 C   0  0  1  0  0  0  0  0  0  0  0  0
   -0.9910   15.6920    0.8260 N   0  0  0  0  0  0  0  0  0  0  0  0
   -0.8560   14.3850   -2.5860 N   0  0  0  0  0  0  0  0  0  0  0  0
    0.5460   14.6680   -0.6180 N   0  0  0  0  0  0  0  0  0  0  0  0
    0.2800   15.0230    0.7760 C   0  0  0  0  0  0  0  0  0  0  0  0
    0.1390   15.1020   -3.4060 C   0  0  0  0  0  0  0  0  0  0  0  0
   -0.1230   16.6130   -3.6820 C   0  0  2  0  0  0  0  0  0  0  0  0
   -1.3840   16.8550   -4.3630 O   0  0  0  0  0  0  0  0  0  0  0  0
    0.9440   17.1550   -4.6160 C   0  0  0  0  0  0  0  0  0  0  0  0
    0.2330   17.9700   -5.6690 C   0  0  0  0  0  0  0  0  0  0  0  0
   -1.2030   17.9890   -5.2140 C   0  0  0  0  0  0  0  0  0  0  0  0
  1  2  1  0
  3  2  1  6
  3  4  1  0
  3  5  1  0
  4  6  1  0
  5  7  1  0
  4  8  2  0
  5  9  1  6
  6 10  1  0
  7 10  1  0
  6 11  1  0
  8 12  1  0
 11 12  2  0
 13  9  1  1
 13 14  1  0
 13 15  1  0
 14 16  1  0
 15 17  1  0
 15 18  1  1
 16 19  1  0
 17 19  1  0
 17 20  1  6
 18 21  1  0
 20 21  1  0
 19 22  1  0
 23 22  1  6
 23 24  1  0
 23 25  1  0
 25 26  1  0
 24 27  1  0
 26 27  1  0
M  END
