diamond-x0895_1_A-mac-x0131
     RDKit          3D

 24 27  0  0  0  0  0  0  0  0999 V2000
   -2.4630   14.8090    2.6060 O   0  0  0  0  0  0  0  0  0  0  0  0
   -3.2550   15.0200    1.7540 C   0  0  0  0  0  0  0  0  0  0  0  0
   -3.9150   16.3090    1.3880 C   0  0  0  0  0  0  0  0  0  0  0  0
   -3.6510   14.1880    0.8830 N   0  0  0  0  0  0  0  0  0  0  0  0
   -4.7500   15.8830    0.3100 N   0  0  0  0  0  0  0  0  0  0  0  0
   -4.9080   14.5720    0.5640 C   0  0  0  0  0  0  0  0  0  0  0  0
   -2.5920   14.3460    0.0890 C   0  0  0  0  0  0  0  0  0  0  0  0
   -5.9830   14.0020    0.5090 O   0  0  0  0  0  0  0  0  0  0  0  0
   -2.6610   14.6050   -1.2480 C   0  0  0  0  0  0  0  0  0  0  0  0
   -1.3920   14.2440    0.7200 N   0  0  0  0  0  0  0  0  0  0  0  0
   -3.6680   14.8150   -2.2400 C   0  0  0  0  0  0  0  0  0  0  0  0
   -1.4350   14.6950   -1.8530 C   0  0  0  0  0  0  0  0  0  0  0  0
   -0.2840   14.3760    0.0170 C   0  0  0  0  0  0  0  0  0  0  0  0
   -5.1510   14.8370   -2.0790 C   0  0  0  0  0  0  0  0  0  0  0  0
   -2.9980   14.9940   -3.4360 C   0  0  0  0  0  0  0  0  0  0  0  0
   -1.6510   14.9050   -3.1680 N   0  0  0  0  0  0  0  0  0  0  0  0
   -0.2120   14.5920   -1.2900 N   0  0  0  0  0  0  0  0  0  0  0  0
   -3.5340   15.2310   -4.8000 C   0  0  0  0  0  0  0  0  0  0  0  0
   -0.5500   14.9850   -4.0800 C   0  0  0  0  0  0  0  0  0  0  0  0
   -0.0770   13.5780   -4.0610 C   0  0  0  0  0  0  0  0  0  0  0  0
    1.0550   12.9440   -3.6040 C   0  0  0  0  0  0  0  0  0  0  0  0
   -0.9380   12.6610   -4.5970 O   0  0  0  0  0  0  0  0  0  0  0  0
   -0.3500   11.4470   -4.4760 C   0  0  0  0  0  0  0  0  0  0  0  0
    0.8750   11.5700   -3.8680 C   0  0  0  0  0  0  0  0  0  0  0  0
  1  2  2  0
  2  3  1  0
  2  4  1  0
  3  5  1  0
  4  6  1  0
  5  6  1  0
  4  7  1  0
  6  8  2  0
  7  9  1  0
  7 10  2  0
  9 11  1  0
  9 12  2  0
 10 13  1  0
 11 14  1  0
 11 15  2  0
 12 16  1  0
 15 16  1  0
 12 17  1  0
 13 17  2  0
 15 18  1  0
 16 19  1  0
 19 20  1  0
 20 21  2  0
 20 22  1  0
 22 23  1  0
 21 24  1  0
 23 24  2  0
M  END
