diamond-x0722_0_A-diamond-x0685_1_A
     RDKit          3D

 26 27  0  0  0  0  0  0  0  0999 V2000
   -4.4530   15.8060    2.3240 C   0  0  0  0  0  0  0  0  0  0  0  0
   -3.4810   15.3210    1.3660 C   0  0  0  0  0  0  0  0  0  0  0  0
   -2.3060   14.9590    1.8380 N   0  0  0  0  0  0  0  0  0  0  0  0
   -3.5840   15.1820   -0.0300 C   0  0  0  0  0  0  0  0  0  0  0  0
   -4.7600   15.4940   -0.9060 C   0  0  0  0  0  0  0  0  0  0  0  0
   -2.3320   14.6990   -0.3830 C   0  0  0  0  0  0  0  0  0  0  0  0
   -1.6150   14.5940    0.7890 N   0  0  0  0  0  0  0  0  0  0  0  0
   -0.2560   14.1590    1.0250 C   0  0  0  0  0  0  0  0  0  0  0  0
   -1.7640   14.3370   -1.6990 C   0  0  0  0  0  0  0  0  0  0  0  0
   -6.0020   14.6950   -0.5640 C   0  0  0  0  0  0  0  0  0  0  0  0
   -7.1440   15.1140   -0.7360 O   0  0  0  0  0  0  0  0  0  0  0  0
   -5.7950   13.4470   -0.0430 N   0  0  0  0  0  0  0  0  0  0  0  0
   -1.1330   12.9690   -1.5750 C   0  0  0  0  0  0  0  0  0  0  0  0
    0.2550   13.0660   -1.8070 O   0  0  0  0  0  0  0  0  0  0  0  0
    0.8350   12.0620   -2.8970 S   0  0  0  0  0  0  0  0  0  0  0  0
    0.1340   12.5740   -4.4590 C   0  0  0  0  0  0  0  0  0  0  0  0
    2.4190   12.2390   -3.1030 O   0  0  0  0  0  0  0  0  0  0  0  0
    0.4090   10.5220   -2.6280 O   0  0  0  0  0  0  0  0  0  0  0  0
   -1.2570   12.0110   -4.7410 C   0  0  0  0  0  0  0  0  0  0  0  0
   -1.2210   10.5430   -4.8800 N   0  0  0  0  0  0  0  0  0  0  0  0
   -1.4110   10.0430   -6.2620 C   0  0  0  0  0  0  0  0  0  0  0  0
   -0.6570    8.7120   -6.4770 C   0  0  0  0  0  0  0  0  0  0  0  0
   -1.0410   11.1340   -7.2910 C   0  0  0  0  0  0  0  0  0  0  0  0
    0.1430    8.7090   -7.7750 C   0  0  0  0  0  0  0  0  0  0  0  0
   -1.1950   10.6640   -8.7390 C   0  0  0  0  0  0  0  0  0  0  0  0
   -0.7150    9.2220   -8.9310 C   0  0  0  0  0  0  0  0  0  0  0  0
  1  2  1  0
  2  3  2  0
  2  4  1  0
  4  5  1  0
  4  6  2  0
  3  7  1  0
  6  7  1  0
  7  8  1  0
  6  9  1  0
  5 10  1  0
 10 11  2  0
 10 12  1  0
  9 13  1  0
 13 14  1  0
 15 14  1  0
 15 16  1  0
 15 17  1  0
 15 18  1  0
 16 19  1  0
 19 20  1  0
 20 21  1  0
 21 22  1  0
 21 23  1  0
 22 24  1  0
 23 25  1  0
 24 26  1  0
 25 26  1  0
M  END
