diamond-x0742_0_A-diamond-x0711_0_A
     RDKit          3D

 24 26  0  0  0  0  0  0  0  0999 V2000
   -5.3750   11.9020   -0.6830 C   0  0  0  0  0  0  0  0  0  0  0  0
   -6.5600   11.5030    0.1620 C   0  0  0  0  0  0  0  0  0  0  0  0
   -5.0050   11.1730   -1.6060 O   0  0  0  0  0  0  0  0  0  0  0  0
   -4.6830   13.2370   -0.3690 C   0  0  2  0  0  0  0  0  0  0  0  0
   -4.6030   13.3790    1.1690 C   0  0  0  0  0  0  0  0  0  0  0  0
   -5.6000   14.2770   -1.0430 C   0  0  1  0  0  0  0  0  0  0  0  0
   -3.3330   13.3630   -1.1340 C   0  0  1  0  0  0  0  0  0  0  0  0
   -6.6740   14.8660   -0.1230 C   0  0  0  0  0  0  0  0  0  0  0  0
   -3.5550   14.3850   -2.2770 C   0  0  1  0  0  0  0  0  0  0  0  0
   -2.1780   13.7620   -0.2710 C   0  0  0  0  0  0  0  0  0  0  0  0
   -3.6910   14.5140    1.5730 C   0  0  0  0  0  0  0  0  0  0  0  0
   -4.6140   15.3120   -1.6240 C   0  0  0  0  0  0  0  0  0  0  0  0
   -2.2450   15.0530   -2.5920 N   0  0  0  0  0  0  0  0  0  0  0  0
   -6.4590   14.7510    1.2230 N   0  0  0  0  0  0  0  0  0  0  0  0
   -7.6940   15.3860   -0.5330 O   0  0  0  0  0  0  0  0  0  0  0  0
   -0.8850   13.6060   -0.7230 C   0  0  0  0  0  0  0  0  0  0  0  0
   -2.3470   14.3020    0.9990 C   0  0  0  0  0  0  0  0  0  0  0  0
   -0.9540   14.2880   -3.4130 S   0  0  0  0  0  0  0  0  0  0  0  0
   -1.3340   14.6650    1.7870 N   0  0  0  0  0  0  0  0  0  0  0  0
    0.1700   13.9780    0.0620 C   0  0  0  0  0  0  0  0  0  0  0  0
   -1.7470   12.9410   -4.2550 C   0  0  0  0  0  0  0  0  0  0  0  0
   -0.3980   15.1910   -4.3920 O   0  0  0  0  0  0  0  0  0  0  0  0
   -0.0850   13.7100   -2.4130 O   0  0  0  0  0  0  0  0  0  0  0  0
   -0.1060   14.4970    1.3050 C   0  0  0  0  0  0  0  0  0  0  0  0
  1  2  1  0
  1  3  2  0
  4  1  1  1
  4  5  1  0
  4  6  1  0
  4  7  1  0
  6  8  1  1
  7  9  1  0
  7 10  1  1
  5 11  1  0
  6 12  1  0
  9 12  1  0
  9 13  1  1
  8 14  1  0
  8 15  2  0
 10 16  1  0
 10 17  2  0
 11 17  1  0
 18 13  1  0
 17 19  1  0
 16 20  2  0
 18 21  1  0
 18 22  2  0
 18 23  2  0
 19 24  2  0
 20 24  1  0
M  END
