diamond-x0852_0_B-mac-x0412
     RDKit          3D

 23 25  0  0  0  0  0  0  0  0999 V2000
   -9.6380   17.7310    7.2060 N   0  0  0  0  0  0  0  0  0  0  0  0
   -9.4130   17.2190    6.1840 C   0  0  0  0  0  0  0  0  0  0  0  0
   -9.2270   16.5410    4.9320 C   0  0  0  0  0  0  0  0  0  0  0  0
   -8.3600   15.4440    4.8090 C   0  0  0  0  0  0  0  0  0  0  0  0
   -9.9430   16.9970    3.8030 C   0  0  0  0  0  0  0  0  0  0  0  0
   -7.6340   14.9620    5.8600 O   0  0  0  0  0  0  0  0  0  0  0  0
   -8.2220   14.8090    3.5870 C   0  0  0  0  0  0  0  0  0  0  0  0
   -9.7940   16.3540    2.5670 C   0  0  0  0  0  0  0  0  0  0  0  0
  -10.4040   16.6640    1.3690 O   0  0  0  0  0  0  0  0  0  0  0  0
   -8.9360   15.2640    2.4860 C   0  0  0  0  0  0  0  0  0  0  0  0
   -9.7090   16.3820    0.1340 C   0  0  0  0  0  0  0  0  0  0  0  0
   -9.3360   14.8970    0.0240 C   0  0  0  0  0  0  0  0  0  0  0  0
   -8.0240   14.7300   -0.5930 N   0  0  0  0  0  0  0  0  0  0  0  0
   -6.8960   14.6540    0.0450 C   0  0  0  0  0  0  0  0  0  0  0  0
   -5.5090   14.4580   -0.5970 C   0  0  2  0  0  0  0  0  0  0  0  0
   -6.9860   14.7570    1.4030 N   0  0  0  0  0  0  0  0  0  0  0  0
   -4.3570   14.8030    0.3310 C   0  0  0  0  0  0  0  0  0  0  0  0
   -5.9200   14.9410    2.1050 C   0  0  0  0  0  0  0  0  0  0  0  0
   -5.3310   15.0770   -1.9650 C   0  0  0  0  0  0  0  0  0  0  0  0
   -4.5340   15.0440    1.6260 C   0  0  0  0  0  0  0  0  0  0  0  0
   -3.0450   14.8300   -0.2910 C   0  0  0  0  0  0  0  0  0  0  0  0
   -4.1020   15.3540   -2.4200 C   0  0  0  0  0  0  0  0  0  0  0  0
   -2.9390   15.0820   -1.6070 C   0  0  0  0  0  0  0  0  0  0  0  0
  1  2  3  0
  2  3  1  0
  3  4  2  0
  3  5  1  0
  4  6  1  0
  4  7  1  0
  5  8  2  0
  8  9  1  0
  7 10  2  0
  8 10  1  0
  9 11  1  0
 11 12  1  0
 12 13  1  0
 13 14  2  3
 14 15  1  0
 14 16  1  0
 15 17  1  0
 16 18  2  0
 15 19  1  6
 17 20  2  0
 18 20  1  0
 17 21  1  0
 19 22  2  0
 21 23  2  0
 22 23  1  0
M  END
