diamond-x0737_0_B-diamond-x0158_0_B
     RDKit          3D

 18 18  0  0  0  0  0  0  0  0999 V2000
   15.8430   15.9020   12.2830 N   0  0  0  0  0  0  0  0  0  0  0  0
   16.3930   17.2340   11.9860 C   0  0  0  0  0  0  0  0  0  0  0  0
   17.8260   17.2390   11.4680 C   0  0  0  0  0  0  0  0  0  0  0  0
   16.1230   14.6680   11.7120 C   0  0  0  0  0  0  0  0  0  0  0  0
   15.3990   15.8170   13.5790 C   0  0  0  0  0  0  0  0  0  0  0  0
   17.2460   14.3700   11.3010 O   0  0  0  0  0  0  0  0  0  0  0  0
   16.1090   15.5810   14.5460 O   0  0  0  0  0  0  0  0  0  0  0  0
   14.9760   13.6360   11.6400 C   0  0  2  0  0  0  0  0  0  0  0  0
   14.4330   13.3570   13.0550 C   0  0  2  0  0  0  0  0  0  0  0  0
   15.2910   12.3080   10.9640 C   0  0  0  0  0  0  0  0  0  0  0  0
   15.4720   13.0720   14.1400 C   0  0  0  0  0  0  0  0  0  0  0  0
   13.4810   12.2010   13.0890 N   0  0  0  0  0  0  0  0  0  0  0  0
   14.0370   11.4550   10.8290 C   0  0  0  0  0  0  0  0  0  0  0  0
   11.9800   12.5860   13.6630 S   0  0  0  0  0  0  0  0  0  0  0  0
   13.6100   11.0200   12.2070 C   0  0  0  0  0  0  0  0  0  0  0  0
   11.7910   13.9660   13.2670 O   0  0  0  0  0  0  0  0  0  0  0  0
   11.8790   12.1090   15.0230 O   0  0  0  0  0  0  0  0  0  0  0  0
   10.9600   11.5580   12.6750 C   0  0  0  0  0  0  0  0  0  0  0  0
  1  2  1  0
  2  3  1  0
  1  4  1  0
  1  5  1  0
  4  6  2  0
  5  7  2  0
  8  4  1  1
  8  9  1  0
  8 10  1  0
  9 11  1  1
  9 12  1  0
 10 13  1  0
 12 14  1  0
 12 15  1  0
 13 15  1  0
 14 16  2  0
 14 17  2  0
 14 18  1  0
M  END
