diamond-x0259_0_A-diamond-x0933_4_B
     RDKit          3D

 16 17  0  0  0  0  0  0  0  0999 V2000
   19.8420   28.4990    6.9750 N   0  0  0  0  0  0  0  0  0  0  0  0
   20.7190   27.9440    8.0100 C   0  0  0  0  0  0  0  0  0  0  0  0
   18.3980   28.4120    7.2790 C   0  0  0  0  0  0  0  0  0  0  0  0
   20.2220   28.0680    5.6720 C   0  0  0  0  0  0  0  0  0  0  0  0
   17.7420   29.7790    7.0530 C   0  0  2  0  0  0  0  0  0  0  0  0
   19.2570   27.6520    4.8250 N   0  0  0  0  0  0  0  0  0  0  0  0
   21.5650   28.0790    5.2780 C   0  0  0  0  0  0  0  0  0  0  0  0
   22.8650   28.5910    6.2830 Cl  0  0  0  0  0  0  0  0  0  0  0  0
   17.7500   30.6330    8.3050 C   0  0  0  0  0  0  0  0  0  0  0  0
   16.2440   29.7060    6.8210 C   0  0  0  0  0  0  0  0  0  0  0  0
   19.6320   27.2550    3.6000 C   0  0  0  0  0  0  0  0  0  0  0  0
   21.8320   27.6480    3.9960 C   0  0  0  0  0  0  0  0  0  0  0  0
   15.7960   31.0530    7.0500 O   0  0  0  0  0  0  0  0  0  0  0  0
   16.6900   31.6730    7.9820 C   0  0  2  0  0  0  0  0  0  0  0  0
   20.8870   27.2320    3.1350 N   0  0  0  0  0  0  0  0  0  0  0  0
   17.2620   32.8900    7.4420 N   0  0  0  0  0  0  0  0  0  0  0  0
  1  2  1  0
  1  3  1  0
  1  4  1  0
  5  3  1  1
  4  6  2  0
  4  7  1  0
  7  8  1  0
  5  9  1  0
  5 10  1  0
  6 11  1  0
  7 12  2  0
 10 13  1  0
  9 14  1  0
 13 14  1  0
 11 15  2  0
 12 15  1  0
 14 16  1  6
M  END
