diamond-x0591_0_A-diamond-x0950_1_A
     RDKit          3D

 21 21  0  0  0  0  0  0  0  0999 V2000
   -5.7660   14.6040    0.9090 N   0  0  0  0  0  0  0  0  0  0  0  0
   -6.7110   14.5290    1.9950 C   0  0  0  0  0  0  0  0  0  0  0  0
   -6.2360   14.7860   -0.3670 C   0  0  0  0  0  0  0  0  0  0  0  0
   -7.4190   14.9880   -0.6080 O   0  0  0  0  0  0  0  0  0  0  0  0
   -5.2630   14.7250   -1.4920 C   0  0  0  0  0  0  0  0  0  0  0  0
   -3.8960   14.5050   -1.2500 C   0  0  0  0  0  0  0  0  0  0  0  0
   -5.7080   14.8830   -2.8020 C   0  0  0  0  0  0  0  0  0  0  0  0
   -2.9880   14.4440   -2.3200 C   0  0  0  0  0  0  0  0  0  0  0  0
   -4.8110   14.8190   -3.8600 C   0  0  0  0  0  0  0  0  0  0  0  0
   -3.4640   14.6030   -3.6280 C   0  0  0  0  0  0  0  0  0  0  0  0
   -2.3980   14.5310   -5.0460 S   0  0  0  0  0  0  0  0  0  0  0  0
   -0.9400   15.2130   -4.5810 N   0  0  0  0  0  0  0  0  0  0  0  0
   -2.1160   13.1370   -5.2850 O   0  0  0  0  0  0  0  0  0  0  0  0
   -2.9870   15.3680   -6.0680 O   0  0  0  0  0  0  0  0  0  0  0  0
    0.2780   14.7920   -5.2760 C   0  0  0  0  0  0  0  0  0  0  0  0
    1.3010   14.1980   -4.3180 C   0  0  0  0  0  0  0  0  0  0  0  0
    1.4630   12.6710   -4.3470 C   0  0  2  0  0  0  0  0  0  0  0  0
    0.6590   12.0900   -5.3870 O   0  0  0  0  0  0  0  0  0  0  0  0
    1.0630   12.0540   -3.0130 C   0  0  0  0  0  0  0  0  0  0  0  0
    0.4080   11.0350   -2.8620 O   0  0  0  0  0  0  0  0  0  0  0  0
    1.5100   12.7480   -1.9500 O   0  0  0  0  0  0  0  0  0  0  0  0
  1  2  1  0
  1  3  1  0
  3  4  2  0
  3  5  1  0
  5  6  2  0
  5  7  1  0
  6  8  1  0
  7  9  2  0
  8 10  2  0
  9 10  1  0
 10 11  1  0
 11 12  1  0
 11 13  2  0
 11 14  2  0
 12 15  1  0
 15 16  1  0
 16 17  1  0
 17 18  1  6
 17 19  1  0
 19 20  2  0
 19 21  1  0
M  END
