diamond-x0371_0_A-mac-x0412
     RDKit          3D

 18 20  0  0  0  0  0  0  0  0999 V2000
   -8.1470   14.5520    2.9640 N   0  0  0  0  0  0  0  0  0  0  0  0
   -8.8270   15.5480    3.6180 C   0  0  0  0  0  0  0  0  0  0  0  0
   -9.5150   16.3700    3.0160 O   0  0  0  0  0  0  0  0  0  0  0  0
   -8.3780   14.2710    1.5750 C   0  0  0  0  0  0  0  0  0  0  0  0
   -7.1360   14.5250    0.8030 C   0  0  0  0  0  0  0  0  0  0  0  0
   -8.6640   15.5300    5.0520 C   0  0  0  0  0  0  0  0  0  0  0  0
   -5.8880   14.4740    1.3900 N   0  0  0  0  0  0  0  0  0  0  0  0
   -7.0410   14.8180   -0.4770 N   0  0  0  0  0  0  0  0  0  0  0  0
   -8.0600   14.4490    5.6350 O   0  0  0  0  0  0  0  0  0  0  0  0
   -9.0150   16.4390    6.0240 C   0  0  0  0  0  0  0  0  0  0  0  0
   -5.6970   14.9510   -0.7220 C   0  0  0  0  0  0  0  0  0  0  0  0
   -4.9590   14.7390    0.4340 C   0  0  0  0  0  0  0  0  0  0  0  0
   -8.6040   15.8860    7.2630 C   0  0  0  0  0  0  0  0  0  0  0  0
   -8.0270   14.6750    6.9690 C   0  0  0  0  0  0  0  0  0  0  0  0
   -3.5730   14.8040    0.4920 C   0  0  0  0  0  0  0  0  0  0  0  0
   -5.0290   15.2510   -1.9100 C   0  0  0  0  0  0  0  0  0  0  0  0
   -2.9260   15.0960   -0.7050 C   0  0  0  0  0  0  0  0  0  0  0  0
   -3.6340   15.3200   -1.8890 C   0  0  0  0  0  0  0  0  0  0  0  0
  1  2  1  0
  2  3  2  0
  1  4  1  0
  4  5  1  0
  2  6  1  0
  5  7  1  0
  5  8  2  0
  6  9  1  0
  6 10  2  0
  8 11  1  0
  7 12  1  0
 11 12  2  0
 10 13  1  0
  9 14  1  0
 13 14  2  0
 12 15  1  0
 11 16  1  0
 15 17  2  0
 16 18  2  0
 17 18  1  0
M  END
