diamond-x0962_0_A-mac-x0137
     RDKit          3D

 19 21  0  0  0  0  0  0  0  0999 V2000
   -3.0400   12.3290   -1.6990 N   0  0  0  0  0  0  0  0  0  0  0  0
   -3.4340   13.0360   -0.8890 C   0  0  0  0  0  0  0  0  0  0  0  0
   -3.8490   14.0350   -0.0360 C   0  0  0  0  0  0  0  0  0  0  0  0
   -2.8520   14.9860    0.4360 C   0  0  1  0  0  0  0  0  0  0  0  0
   -5.0880   14.2810    0.3410 C   0  0  0  0  0  0  0  0  0  0  0  0
   -3.9460   15.8700    1.0560 C   0  0  0  0  0  0  0  0  0  0  0  0
   -5.1750   15.4170    1.0530 N   0  0  0  0  0  0  0  0  0  0  0  0
   -1.9050   14.5850    1.5230 N   0  0  0  0  0  0  0  0  0  0  0  0
   -2.2870   15.0640   -0.9520 C   0  0  0  0  0  0  0  0  0  0  0  0
   -0.7310   14.2340    1.1160 C   0  0  0  0  0  0  0  0  0  0  0  0
   -1.0300   14.6320   -1.2390 C   0  0  0  0  0  0  0  0  0  0  0  0
   -0.4780   14.6020   -2.5210 N   0  0  0  0  0  0  0  0  0  0  0  0
   -0.2880   14.1860   -0.1700 N   0  0  0  0  0  0  0  0  0  0  0  0
   -1.2830   14.8340   -3.7440 C   0  0  0  0  0  0  0  0  0  0  0  0
    0.6550   13.6800   -2.7660 C   0  0  0  0  0  0  0  0  0  0  0  0
   -1.6780   13.5380   -4.4880 C   0  0  2  0  0  0  0  0  0  0  0  0
    0.1770   12.3150   -3.2730 C   0  0  0  0  0  0  0  0  0  0  0  0
   -2.7680   12.9760   -3.8920 F   0  0  0  0  0  0  0  0  0  0  0  0
   -0.5760   12.4750   -4.5870 C   0  0  0  0  0  0  0  0  0  0  0  0
  1  2  3  0
  2  3  1  0
  3  4  1  0
  3  5  2  0
  4  6  1  1
  5  7  1  0
  6  7  2  0
  4  8  1  0
  4  9  1  0
  8 10  2  0
  9 11  2  0
 11 12  1  0
 10 13  1  0
 11 13  1  0
 12 14  1  0
 12 15  1  0
 14 16  1  0
 15 17  1  0
 16 18  1  1
 16 19  1  0
 17 19  1  0
M  END
