diamond-x0689_0_A-mac-x0394
     RDKit          3D

 21 22  0  0  0  0  0  0  0  0999 V2000
   -3.6450   15.4670    1.6300 N   0  0  0  0  0  0  0  0  0  0  0  0
   -4.8790   14.9730    1.0870 C   0  0  0  0  0  0  0  0  0  0  0  0
   -2.5230   14.9640    1.0090 C   0  0  0  0  0  0  0  0  0  0  0  0
   -2.5870   14.9240   -0.3240 N   0  0  0  0  0  0  0  0  0  0  0  0
   -1.4740   14.5580    1.7260 N   0  0  0  0  0  0  0  0  0  0  0  0
   -1.5100   14.4430   -0.9690 C   0  0  0  0  0  0  0  0  0  0  0  0
   -0.4270   14.0870    1.0420 C   0  0  0  0  0  0  0  0  0  0  0  0
   -0.3890   14.0020   -0.3290 C   0  0  0  0  0  0  0  0  0  0  0  0
    0.7830   13.4550   -1.0510 C   0  0  0  0  0  0  0  0  0  0  0  0
    0.9020   13.7550   -2.4370 N   0  0  0  0  0  0  0  0  0  0  0  0
    0.8890   12.7670   -3.2470 C   0  0  0  0  0  0  0  0  0  0  0  0
    0.7430   11.4670   -2.9020 O   0  0  0  0  0  0  0  0  0  0  0  0
    1.0340   13.0960   -4.6900 C   0  0  0  0  0  0  0  0  0  0  0  0
    0.2920   14.3830   -4.8690 C   0  0  0  0  0  0  0  0  0  0  0  0
   -1.0900   14.3550   -5.0330 C   0  0  0  0  0  0  0  0  0  0  0  0
    0.9520   15.6190   -4.8680 C   0  0  0  0  0  0  0  0  0  0  0  0
   -1.8040   15.5380   -5.1950 C   0  0  0  0  0  0  0  0  0  0  0  0
    0.2170   16.7910   -5.0330 C   0  0  0  0  0  0  0  0  0  0  0  0
    1.0010   18.3030   -5.0440 Cl  0  0  0  0  0  0  0  0  0  0  0  0
   -3.4990   15.4540   -5.4060 Cl  0  0  0  0  0  0  0  0  0  0  0  0
   -1.1550   16.7630   -5.1960 C   0  0  0  0  0  0  0  0  0  0  0  0
  1  2  1  0
  1  3  1  0
  3  4  2  0
  3  5  1  0
  4  6  1  0
  5  7  2  0
  6  8  2  0
  7  8  1  0
  8  9  1  0
  9 10  1  0
 10 11  2  3
 11 12  1  0
 11 13  1  0
 13 14  1  0
 14 15  2  0
 14 16  1  0
 15 17  1  0
 16 18  2  0
 18 19  1  0
 17 20  1  0
 17 21  2  0
 18 21  1  0
M  END
