diamond-x0962_0_A-diamond-x0626_0_A
     RDKit          3D

 17 18  0  0  0  0  0  0  0  0999 V2000
   -3.2820   15.6360   -3.8920 N   0  0  0  0  0  0  0  0  0  0  0  0
   -3.9360   15.5020   -2.9540 C   0  0  0  0  0  0  0  0  0  0  0  0
   -4.5700   15.2610   -1.7230 C   0  0  0  0  0  0  0  0  0  0  0  0
   -3.7340   14.9940   -0.8360 N   0  0  0  0  0  0  0  0  0  0  0  0
   -5.8240   15.2200   -1.2100 C   0  0  0  0  0  0  0  0  0  0  0  0
   -4.2950   14.7580    0.2490 C   0  0  0  0  0  0  0  0  0  0  0  0
   -5.6810   14.8600    0.1520 N   0  0  0  0  0  0  0  0  0  0  0  0
   -3.0790   14.5470    0.7720 C   0  0  0  0  0  0  0  0  0  0  0  0
   -6.8590   14.7340    0.8300 C   0  0  0  0  0  0  0  0  0  0  0  0
   -2.3650   14.3910    1.8400 N   0  0  0  0  0  0  0  0  0  0  0  0
   -2.3150   14.5080   -0.7680 S   0  0  0  0  0  0  0  0  0  0  0  0
   -7.8170   14.9550    0.1080 O   0  0  0  0  0  0  0  0  0  0  0  0
   -7.0330   14.3530    2.2430 C   0  0  0  0  0  0  0  0  0  0  0  0
   -0.8810   14.2510   -0.0420 C   0  0  0  0  0  0  0  0  0  0  0  0
   -1.0800   14.2100    1.2910 C   0  0  0  0  0  0  0  0  0  0  0  0
   -8.5290   14.2220    2.4310 C   0  0  0  0  0  0  0  0  0  0  0  0
    0.0610   13.9680    2.0770 C   0  0  0  0  0  0  0  0  0  0  0  0
  1  2  3  0
  2  3  1  0
  3  4  1  0
  3  5  2  0
  4  6  2  0
  5  7  1  0
  6  7  1  0
  6  8  1  0
  7  9  1  0
  8 10  2  0
  8 11  1  0
  9 12  2  0
  9 13  1  0
 11 14  1  0
 10 15  1  0
 14 15  2  0
 13 16  1  0
 15 17  1  0
M  END
