diamond-x0837_0_A-mac-x0124
     RDKit          3D

 18 20  0  0  0  0  0  0  0  0999 V2000
   -7.8820   15.5170   -0.3520 O   0  0  0  0  0  0  0  0  0  0  0  0
   -6.6740   15.3380   -0.4500 C   0  0  0  0  0  0  0  0  0  0  0  0
   -5.9740   14.8000    0.5710 N   0  0  0  0  0  0  0  0  0  0  0  0
   -5.8500   15.6320   -1.6820 C   0  0  0  0  0  0  0  0  0  0  0  0
   -5.6140   13.5720    0.2600 C   0  0  0  0  0  0  0  0  0  0  0  0
   -4.9330   14.4670   -2.0460 C   0  0  2  0  0  0  0  0  0  0  0  0
   -5.1530   13.3690   -0.9880 C   0  0  0  0  0  0  0  0  0  0  0  0
   -3.5360   14.6740   -1.6670 C   0  0  0  0  0  0  0  0  0  0  0  0
   -2.2050   14.8720   -2.1330 N   0  0  0  0  0  0  0  0  0  0  0  0
   -3.5220   14.6440   -0.3680 C   0  0  0  0  0  0  0  0  0  0  0  0
   -1.6470   14.9970   -3.4720 C   0  0  0  0  0  0  0  0  0  0  0  0
   -2.3100   14.7860    0.0730 C   0  0  0  0  0  0  0  0  0  0  0  0
   -1.4410   14.9300   -0.9700 C   0  0  0  0  0  0  0  0  0  0  0  0
   -1.9400   14.7930    1.3300 C   0  0  0  0  0  0  0  0  0  0  0  0
   -0.1340   15.0960   -0.7990 N   0  0  0  0  0  0  0  0  0  0  0  0
   -2.9060   14.6410    2.2970 N   0  0  0  0  0  0  0  0  0  0  0  0
   -0.6850   14.9460    1.5970 N   0  0  0  0  0  0  0  0  0  0  0  0
    0.1350   15.1010    0.5250 C   0  0  0  0  0  0  0  0  0  0  0  0
  1  2  2  0
  2  3  1  0
  2  4  1  0
  3  5  1  0
  4  6  1  0
  5  7  2  0
  6  7  1  0
  6  8  1  1
  8  9  1  0
  8 10  2  0
  9 11  1  0
 10 12  1  0
  9 13  1  0
 12 13  2  0
 12 14  1  0
 13 15  1  0
 14 16  1  0
 14 17  2  0
 15 18  2  0
 17 18  1  0
M  END
