diamond-x0727_0_A-diamond-x0837_0_A
     RDKit          3D

 24 25  0  0  0  0  0  0  0  0999 V2000
    0.1090   12.0630   -5.5170 N   0  0  0  0  0  0  0  0  0  0  0  0
    1.1010   12.6070   -4.6790 C   0  0  1  0  0  0  0  0  0  0  0  0
    1.2540   14.0290   -4.4610 C   0  0  0  0  0  0  0  0  0  0  0  0
    0.3770   11.1740   -6.5710 C   0  0  0  0  0  0  0  0  0  0  0  0
    1.4780   11.3010   -7.2060 O   0  0  0  0  0  0  0  0  0  0  0  0
    0.9140   11.9830   -3.2830 C   0  0  0  0  0  0  0  0  0  0  0  0
   -0.5340   10.1200   -6.9500 C   0  0  0  0  0  0  0  0  0  0  0  0
    0.3110   10.9070   -3.1500 O   0  0  0  0  0  0  0  0  0  0  0  0
    1.4180   12.6200   -2.1740 O   0  0  0  0  0  0  0  0  0  0  0  0
    0.7500   14.7450   -3.3090 C   0  0  0  0  0  0  0  0  0  0  0  0
   -0.9020   10.1100   -8.4350 C   0  0  0  0  0  0  0  0  0  0  0  0
   -0.1760    8.6970   -6.7690 C   0  0  0  0  0  0  0  0  0  0  0  0
   -0.6250   14.7040   -2.8280 C   0  0  0  0  0  0  0  0  0  0  0  0
   -1.9890    9.0220   -8.3280 C   0  0  0  0  0  0  0  0  0  0  0  0
   -1.4780    8.0740   -7.2690 C   0  0  0  0  0  0  0  0  0  0  0  0
   -1.6740   15.2250   -3.7110 C   0  0  0  0  0  0  0  0  0  0  0  0
   -3.6860   14.8030   -3.1390 I   0  0  0  0  0  0  0  0  0  0  0  0
   -4.2720   14.4740   -1.1100 C   0  0  1  0  0  0  0  0  0  0  0  0
   -3.4250   14.9510   -0.0270 C   0  0  0  0  0  0  0  0  0  0  0  0
   -5.6240   15.1080   -0.9780 C   0  0  0  0  0  0  0  0  0  0  0  0
   -3.9580   15.0930    1.1730 C   0  0  0  0  0  0  0  0  0  0  0  0
   -6.2460   14.7980    0.3310 C   0  0  0  0  0  0  0  0  0  0  0  0
   -7.4530   14.5590    0.4960 O   0  0  0  0  0  0  0  0  0  0  0  0
   -5.3250   14.8040    1.4590 N   0  0  0  0  0  0  0  0  0  0  0  0
  1  2  1  0
  2  3  1  1
  1  4  1  0
  4  5  2  0
  2  6  1  0
  4  7  1  0
  6  8  2  0
  6  9  1  0
  3 10  1  0
  7 11  1  0
  7 12  1  0
 10 13  1  0
 11 14  1  0
 12 15  1  0
 14 15  1  0
 13 16  1  0
 16 17  1  0
 18 17  1  6
 18 19  1  0
 18 20  1  0
 19 21  2  0
 20 22  1  0
 22 23  2  0
 21 24  1  0
 22 24  1  0
M  END
