diamond-x0950_1_A-diamond-x0895_1_A
     RDKit          3D

 16 16  0  0  0  0  0  0  0  0999 V2000
    1.0770   13.9590   -5.0250 C   0  0  0  0  0  0  0  0  0  0  0  0
    1.3130   12.5270   -4.5990 C   0  0  2  0  0  0  0  0  0  0  0  0
    0.6290   11.6510   -5.4990 O   0  0  0  0  0  0  0  0  0  0  0  0
    0.8310   12.3370   -3.1670 C   0  0  0  0  0  0  0  0  0  0  0  0
    0.5010   11.2590   -2.6730 O   0  0  0  0  0  0  0  0  0  0  0  0
    0.8280   13.5500   -2.5570 O   0  0  0  0  0  0  0  0  0  0  0  0
    0.7520   13.5570   -1.1430 C   0  0  0  0  0  0  0  0  0  0  0  0
   -0.4890   14.2210   -0.5430 C   0  0  0  0  0  0  0  0  0  0  0  0
   -0.3820   14.5320    0.9520 C   0  0  0  0  0  0  0  0  0  0  0  0
   -1.7060   14.6140    1.5700 N   0  0  0  0  0  0  0  0  0  0  0  0
   -2.7810   14.6860    0.8550 C   0  0  0  0  0  0  0  0  0  0  0  0
   -3.0230   14.6850   -0.6480 C   0  0  0  0  0  0  0  0  0  0  0  0
   -3.9840   14.7710    1.4690 N   0  0  0  0  0  0  0  0  0  0  0  0
   -4.3760   15.1440   -0.6670 N   0  0  0  0  0  0  0  0  0  0  0  0
   -4.9660   14.8960    0.5480 C   0  0  0  0  0  0  0  0  0  0  0  0
   -6.1650   14.8040    0.7310 O   0  0  0  0  0  0  0  0  0  0  0  0
  2  1  1  6
  2  3  1  0
  2  4  1  0
  4  5  2  0
  4  6  1  0
  6  7  1  0
  7  8  1  0
  8  9  1  0
  9 10  1  0
 10 11  2  3
 11 12  1  0
 11 13  1  0
 12 14  1  0
 13 15  1  0
 14 15  1  0
 15 16  2  0
M  END
