diamond-x0574_0_A-mac-x0302
     RDKit          3D

 19 20  0  0  0  0  0  0  0  0999 V2000
    0.1430   14.0160    2.1770 N   0  0  0  0  0  0  0  0  0  0  0  0
   -0.9330   14.2610    1.4580 C   0  0  0  0  0  0  0  0  0  0  0  0
   -2.0800   14.3350    2.0200 N   0  0  0  0  0  0  0  0  0  0  0  0
   -0.9090   14.4880   -0.2270 S   0  0  0  0  0  0  0  0  0  0  0  0
   -3.0590   14.5630    1.1080 C   0  0  0  0  0  0  0  0  0  0  0  0
   -2.6290   14.6840   -0.1990 C   0  0  0  0  0  0  0  0  0  0  0  0
   -4.4170   14.6710    1.4030 C   0  0  0  0  0  0  0  0  0  0  0  0
   -3.5460   14.9210   -1.2260 C   0  0  0  0  0  0  0  0  0  0  0  0
   -3.0280   15.0340   -2.6020 C   0  0  0  0  0  0  0  0  0  0  0  0
   -5.3510   14.8960    0.4040 C   0  0  0  0  0  0  0  0  0  0  0  0
   -4.9220   15.0290   -0.9130 C   0  0  0  0  0  0  0  0  0  0  0  0
   -6.6390   14.9560    0.8680 O   0  0  0  0  0  0  0  0  0  0  0  0
   -1.9080   14.2660   -2.8200 N   0  0  0  0  0  0  0  0  0  0  0  0
   -3.5570   15.7350   -3.4500 O   0  0  0  0  0  0  0  0  0  0  0  0
   -6.8600   14.5630    2.2270 C   0  0  0  0  0  0  0  0  0  0  0  0
   -0.7700   14.7440   -3.5860 C   0  0  0  0  0  0  0  0  0  0  0  0
    0.5120   14.1690   -3.0100 C   0  0  0  0  0  0  0  0  0  0  0  0
    1.5880   14.3840   -3.7890 O   0  0  0  0  0  0  0  0  0  0  0  0
    0.6240   13.5590   -1.9600 O   0  0  0  0  0  0  0  0  0  0  0  0
  1  2  1  0
  2  3  2  0
  2  4  1  0
  3  5  1  0
  4  6  1  0
  5  6  2  0
  5  7  1  0
  6  8  1  0
  8  9  1  0
  7 10  2  0
  8 11  2  0
 10 11  1  0
 10 12  1  0
  9 13  1  0
  9 14  2  0
 12 15  1  0
 13 16  1  0
 16 17  1  0
 17 18  1  0
 17 19  2  0
M  END
