diamond-x0681_0_A-mac-x0555
     RDKit          3D

 18 20  0  0  0  0  0  0  0  0999 V2000
   -4.4130   13.7190   -2.8080 N   0  0  0  0  0  0  0  0  0  0  0  0
   -3.2300   13.5600   -2.1580 C   0  0  0  0  0  0  0  0  0  0  0  0
   -2.1980   13.4630   -2.8070 O   0  0  0  0  0  0  0  0  0  0  0  0
   -3.2850   13.5530   -0.6300 C   0  0  2  0  0  0  0  0  0  0  0  0
   -4.5350   12.8070   -0.1280 C   0  0  1  0  0  0  0  0  0  0  0  0
   -3.1290   15.0570   -0.3640 C   0  0  2  0  0  0  0  0  0  0  0  0
   -5.8930   13.4730    0.2100 C   0  0  2  0  0  0  0  0  0  0  0  0
   -4.2450   15.7140    0.4600 C   0  0  2  0  0  0  0  0  0  0  0  0
   -5.0570   11.8590   -1.1650 N   0  0  0  0  0  0  0  0  0  0  0  0
   -3.0540   15.6650   -1.7740 C   0  0  0  0  0  0  0  0  0  0  0  0
   -6.0120   14.3140    1.4930 C   0  0  2  0  0  0  0  0  0  0  0  0
   -4.6770   15.0220    1.7620 C   0  0  0  0  0  0  0  0  0  0  0  0
   -6.7870   12.2540    0.1950 C   0  0  0  0  0  0  0  0  0  0  0  0
   -6.2370   11.3740   -0.6350 C   0  0  0  0  0  0  0  0  0  0  0  0
   -4.3350   15.4700   -2.4950 C   0  0  0  0  0  0  0  0  0  0  0  0
   -5.4850   15.9590   -0.4260 C   0  0  0  0  0  0  0  0  0  0  0  0
   -6.6800   13.6920    2.6580 N   0  0  0  0  0  0  0  0  0  0  0  0
   -5.4730   15.5930   -1.8450 C   0  0  0  0  0  0  0  0  0  0  0  0
  1  2  1  0
  2  3  2  0
  4  2  1  6
  4  5  1  0
  4  6  1  0
  5  7  1  0
  6  8  1  0
  5  9  1  6
  6 10  1  6
  7 11  1  0
  8 12  1  1
 11 12  1  0
  7 13  1  1
  9 14  1  0
 13 14  2  0
 10 15  1  0
  8 16  1  0
 11 17  1  1
 15 18  2  0
 16 18  1  0
M  END
