diamond-x0290_0_A-mac-x0338
     RDKit          3D

 19 20  0  0  0  0  0  0  0  0999 V2000
   -7.5960   13.9310    0.8150 N   0  0  0  0  0  0  0  0  0  0  0  0
   -8.6050   14.9740    0.7110 C   0  0  0  0  0  0  0  0  0  0  0  0
   -6.4310   14.3590    1.6490 C   0  0  0  0  0  0  0  0  0  0  0  0
   -5.0590   14.1490    0.9020 C   0  0  2  0  0  0  0  0  0  0  0  0
   -5.0490   12.7400    0.7640 O   0  0  0  0  0  0  0  0  0  0  0  0
   -3.8680   14.3740    1.7250 N   0  0  0  0  0  0  0  0  0  0  0  0
   -4.8850   14.5880   -0.5340 C   0  0  0  0  0  0  0  0  0  0  0  0
   -2.6230   14.4030    1.0980 C   0  0  0  0  0  0  0  0  0  0  0  0
   -3.6220   14.9270   -0.9040 N   0  0  0  0  0  0  0  0  0  0  0  0
   -5.9200   14.6210   -1.4490 C   0  0  0  0  0  0  0  0  0  0  0  0
   -1.5820   14.4880    1.9230 N   0  0  0  0  0  0  0  0  0  0  0  0
   -2.4390   14.3440   -0.2810 C   0  0  0  0  0  0  0  0  0  0  0  0
   -3.4350   15.2610   -2.1830 C   0  0  0  0  0  0  0  0  0  0  0  0
   -5.7230   14.9660   -2.7430 N   0  0  0  0  0  0  0  0  0  0  0  0
   -0.3470   14.5220    1.3870 C   0  0  0  0  0  0  0  0  0  0  0  0
   -1.1540   14.3840   -0.8290 C   0  0  0  0  0  0  0  0  0  0  0  0
   -4.4560   15.2740   -3.0800 C   0  0  0  0  0  0  0  0  0  0  0  0
   -0.9400   14.3240   -2.3160 C   0  0  0  0  0  0  0  0  0  0  0  0
   -0.0800   14.4770    0.0350 C   0  0  0  0  0  0  0  0  0  0  0  0
  1  2  1  0
  1  3  1  0
  3  4  1  0
  4  5  1  6
  4  6  1  0
  4  7  1  0
  6  8  1  0
  7  9  2  0
  7 10  1  0
  8 11  2  0
  8 12  1  0
  9 13  1  0
 10 14  2  0
 11 15  1  0
 12 16  2  0
 13 17  2  0
 14 17  1  0
 16 18  1  0
 15 19  2  0
 16 19  1  0
M  END
