diamond-x0724_0_A-diamond-x0967_0_A
     RDKit          3D

 14 15  0  0  0  0  0  0  0  0999 V2000
   -8.2500   13.7890    4.4430 N   0  0  0  0  0  0  0  0  0  0  0  0
   -8.7080   13.9650    5.8120 C   0  0  0  0  0  0  0  0  0  0  0  0
   -8.4290   15.0140    3.6800 C   0  0  0  0  0  0  0  0  0  0  0  0
   -7.7360   14.8650    2.3730 C   0  0  0  0  0  0  0  0  0  0  0  0
   -6.3790   14.8870    2.1110 C   0  0  0  0  0  0  0  0  0  0  0  0
   -8.3130   14.6740    1.1030 C   0  0  0  0  0  0  0  0  0  0  0  0
   -7.4110   14.5920    0.1260 N   0  0  0  0  0  0  0  0  0  0  0  0
   -6.2100   14.7290    0.7530 N   0  0  0  0  0  0  0  0  0  0  0  0
   -4.9910   14.7120    0.0240 C   0  0  0  0  0  0  0  0  0  0  0  0
   -3.7750   14.8430    0.7130 C   0  0  0  0  0  0  0  0  0  0  0  0
   -4.9850   14.5730   -1.3690 C   0  0  0  0  0  0  0  0  0  0  0  0
   -2.5710   14.8370    0.0100 C   0  0  0  0  0  0  0  0  0  0  0  0
   -3.7770   14.5670   -2.0650 C   0  0  0  0  0  0  0  0  0  0  0  0
   -2.5730   14.6980   -1.3780 C   0  0  0  0  0  0  0  0  0  0  0  0
  1  2  1  0
  1  3  1  0
  3  4  1  0
  4  5  2  0
  4  6  1  0
  6  7  2  0
  5  8  1  0
  7  8  1  0
  8  9  1  0
  9 10  2  0
  9 11  1  0
 10 12  1  0
 11 13  2  0
 12 14  2  0
 13 14  1  0
M  END
