diamond-x0685_1_A-mac-x0255
     RDKit          3D

 22 24  0  0  0  0  0  0  0  0999 V2000
   -1.5000   10.6550   -5.0890 N   0  0  0  0  0  0  0  0  0  0  0  0
   -0.3640   11.5840   -5.0280 C   0  0  0  0  0  0  0  0  0  0  0  0
   -0.4450   12.5330   -3.8430 C   0  0  1  0  0  0  0  0  0  0  0  0
   -1.5700    9.9620   -6.3780 C   0  0  0  0  0  0  0  0  0  0  0  0
   -0.2710    9.2360   -6.7120 C   0  0  0  0  0  0  0  0  0  0  0  0
   -1.8530   10.9810   -7.5020 C   0  0  0  0  0  0  0  0  0  0  0  0
    0.7330   12.0770   -2.5480 S   0  0  0  0  0  0  0  0  0  0  0  0
   -0.3250    8.4360   -8.0050 C   0  0  0  0  0  0  0  0  0  0  0  0
   -1.1070   10.7040   -8.8160 C   0  0  0  0  0  0  0  0  0  0  0  0
   -0.4040   13.9700   -4.2730 C   0  0  0  0  0  0  0  0  0  0  0  0
    2.2190   12.4160   -3.0390 O   0  0  0  0  0  0  0  0  0  0  0  0
    0.5510   10.4890   -2.3690 O   0  0  0  0  0  0  0  0  0  0  0  0
    0.3620   12.8150   -1.1780 O   0  0  0  0  0  0  0  0  0  0  0  0
   -0.9760    9.2180   -9.1430 C   0  0  0  0  0  0  0  0  0  0  0  0
    0.5510   14.9810   -4.4190 C   0  0  0  0  0  0  0  0  0  0  0  0
   -1.9510   14.4870   -4.7050 S   0  0  0  0  0  0  0  0  0  0  0  0
   -0.0530   16.2060   -4.9070 C   0  0  0  0  0  0  0  0  0  0  0  0
   -1.4260   16.0390   -5.0960 C   0  0  0  0  0  0  0  0  0  0  0  0
    0.4730   17.4800   -5.2140 C   0  0  0  0  0  0  0  0  0  0  0  0
   -2.2650   17.0430   -5.5610 C   0  0  0  0  0  0  0  0  0  0  0  0
   -0.3720   18.4920   -5.6850 C   0  0  0  0  0  0  0  0  0  0  0  0
   -1.7250   18.2780   -5.8550 C   0  0  0  0  0  0  0  0  0  0  0  0
  1  2  1  0
  3  2  1  6
  1  4  1  0
  4  5  1  0
  4  6  1  0
  3  7  1  0
  5  8  1  0
  6  9  1  0
  3 10  1  0
  7 11  1  0
  7 12  1  0
  7 13  1  0
  8 14  1  0
  9 14  1  0
 10 15  2  0
 10 16  1  0
 15 17  1  0
 16 18  1  0
 17 18  2  0
 17 19  1  0
 18 20  1  0
 19 21  2  0
 20 22  2  0
 21 22  1  0
M  END
