diamond-x0421_0_A-diamond-x0574_0_A
     RDKit          3D

 17 19  0  0  0  0  0  0  0  0999 V2000
   -4.1240   15.0080   -3.2890 N   0  0  0  0  0  0  0  0  0  0  0  0
   -3.1390   14.7590   -2.3750 C   0  0  0  0  0  0  0  0  0  0  0  0
   -1.9630   14.8960   -2.7040 O   0  0  0  0  0  0  0  0  0  0  0  0
   -3.6160   14.3240   -0.9970 C   0  0  1  0  0  0  0  0  0  0  0  0
   -2.6350   14.6370    0.1350 C   0  0  1  0  0  0  0  0  0  0  0  0
   -4.8550   15.0710   -0.5950 N   0  0  0  0  0  0  0  0  0  0  0  0
   -6.0360   14.2390   -0.7860 O   0  0  0  0  0  0  0  0  0  0  0  0
   -3.2800   15.5450    1.0460 N   0  0  0  0  0  0  0  0  0  0  0  0
   -4.6860   15.2150    0.8430 C   0  0  2  0  0  0  0  0  0  0  0  0
   -2.1030   13.6770    1.0360 N   0  0  0  0  0  0  0  0  0  0  0  0
   -0.9000   14.8400   -0.3290 S   0  0  0  0  0  0  0  0  0  0  0  0
   -7.1780   14.9210   -0.2560 C   0  0  0  0  0  0  0  0  0  0  0  0
   -5.1350   14.0370    1.6810 C   0  0  0  0  0  0  0  0  0  0  0  0
   -1.0160   14.5310    1.4040 C   0  0  2  0  0  0  0  0  0  0  0  0
    0.1200   13.8210    1.9050 N   0  0  0  0  0  0  0  0  0  0  0  0
   -6.1530   13.0280    1.1830 C   0  0  0  0  0  0  0  0  0  0  0  0
   -6.5490   14.0020    2.2390 C   0  0  0  0  0  0  0  0  0  0  0  0
  1  2  1  0
  2  3  2  0
  4  2  1  6
  4  5  1  0
  4  6  1  0
  6  7  1  0
  5  8  1  1
  6  9  1  0
  8  9  1  0
  5 10  1  0
  5 11  1  0
  7 12  1  0
  9 13  1  1
 10 14  1  0
 11 14  1  0
 14 15  1  6
 13 16  1  0
 13 17  1  0
 16 17  1  0
M  END
