diamond-x0282_0_A-mac-x0180
     RDKit          3D

 25 27  0  0  0  0  0  0  0  0999 V2000
   -7.5610   14.2800    0.7750 C   0  0  0  0  0  0  0  0  0  0  0  0
   -7.9270   14.7750   -0.5970 C   0  0  0  0  0  0  0  0  0  0  0  0
   -8.9080   14.3800   -1.2080 O   0  0  0  0  0  0  0  0  0  0  0  0
   -6.0500   14.1800    0.7820 C   0  0  0  0  0  0  0  0  0  0  0  0
   -6.9820   15.7050   -1.0090 N   0  0  0  0  0  0  0  0  0  0  0  0
   -5.4070   13.9560    2.1230 C   0  0  0  0  0  0  0  0  0  0  0  0
   -5.6320   13.0610   -0.1730 C   0  0  0  0  0  0  0  0  0  0  0  0
   -3.8940   13.8440    1.9530 C   0  0  0  0  0  0  0  0  0  0  0  0
   -4.1350   13.0300   -0.4230 C   0  0  0  0  0  0  0  0  0  0  0  0
   -5.6830   15.5320   -1.5720 C   0  0  0  0  0  0  0  0  0  0  0  0
   -3.4810   13.8730    0.5640 N   0  0  0  0  0  0  0  0  0  0  0  0
   -4.5460   15.9050   -0.8200 C   0  0  0  0  0  0  0  0  0  0  0  0
   -5.4740   15.0240   -2.8500 C   0  0  0  0  0  0  0  0  0  0  0  0
   -2.1440   14.1270    0.3900 C   0  0  0  0  0  0  0  0  0  0  0  0
   -3.2480   15.7850   -1.3550 C   0  0  0  0  0  0  0  0  0  0  0  0
   -4.1860   14.9020   -3.3890 C   0  0  0  0  0  0  0  0  0  0  0  0
   -1.6730   14.0910   -0.8620 N   0  0  0  0  0  0  0  0  0  0  0  0
   -1.3760   14.3970    1.4680 N   0  0  0  0  0  0  0  0  0  0  0  0
   -3.0650   15.2870   -2.6510 C   0  0  0  0  0  0  0  0  0  0  0  0
   -1.6980   15.1760   -3.2370 C   0  0  0  0  0  0  0  0  0  0  0  0
   -0.3870   14.3470   -1.0600 C   0  0  0  0  0  0  0  0  0  0  0  0
   -0.0880   14.6380    1.2010 C   0  0  0  0  0  0  0  0  0  0  0  0
   -1.4480   14.4800   -4.2080 O   0  0  0  0  0  0  0  0  0  0  0  0
   -0.7650   15.9290   -2.6120 O   0  0  0  0  0  0  0  0  0  0  0  0
    0.4640   14.6340   -0.0560 C   0  0  0  0  0  0  0  0  0  0  0  0
  1  2  1  0
  2  3  2  0
  1  4  1  0
  2  5  1  0
  4  6  1  0
  4  7  1  0
  6  8  1  0
  7  9  1  0
  5 10  1  0
  8 11  1  0
  9 11  1  0
 10 12  2  0
 10 13  1  0
 11 14  1  0
 12 15  1  0
 13 16  2  0
 14 17  2  0
 14 18  1  0
 15 19  2  0
 16 19  1  0
 19 20  1  0
 17 21  1  0
 18 22  2  0
 20 23  2  0
 20 24  1  0
 21 25  2  0
 22 25  1  0
M  END
