diamond-x0933_4_B-diamond-x0216_0_A
     RDKit          3D

 21 22  0  0  0  0  0  0  0  0999 V2000
   17.6380   31.4740    6.4940 N   0  0  0  0  0  0  0  0  0  0  0  0
   17.5490   30.1000    6.0000 C   0  0  1  0  0  0  0  0  0  0  0  0
   18.8290   29.5370    6.2850 N   0  0  0  0  0  0  0  0  0  0  0  0
   17.4910   31.7680    7.8720 C   0  0  0  0  0  0  0  0  0  0  0  0
   16.3840   29.2220    6.4790 C   0  0  0  0  0  0  0  0  0  0  0  0
   17.7480   30.5700    8.6420 N   0  0  0  0  0  0  0  0  0  0  0  0
   16.1180   32.1400    7.9280 N   0  0  0  0  0  0  0  0  0  0  0  0
   19.0080   28.2190    6.5800 C   0  0  0  0  0  0  0  0  0  0  0  0
   16.5700   29.9030    9.2190 C   0  0  0  0  0  0  0  0  0  0  0  0
   15.2380   31.0910    7.4480 C   0  0  0  0  0  0  0  0  0  0  0  0
   18.6230   27.7290    7.6390 O   0  0  0  0  0  0  0  0  0  0  0  0
   19.6710   27.4680    5.6130 N   0  0  0  0  0  0  0  0  0  0  0  0
   15.3880   29.8080    8.2660 C   0  0  0  0  0  0  0  0  0  0  0  0
   19.2540   27.6550    4.2160 C   0  0  0  0  0  0  0  0  0  0  0  0
   20.8470   26.6370    5.9580 C   0  0  2  0  0  0  0  0  0  0  0  0
   22.1400   27.4700    6.0840 C   0  0  0  0  0  0  0  0  0  0  0  0
   21.1450   25.4420    5.0530 C   0  0  0  0  0  0  0  0  0  0  0  0
   22.7720   27.5330    4.7060 C   0  0  0  0  0  0  0  0  0  0  0  0
   22.5650   25.8860    4.0670 S   0  0  0  0  0  0  0  0  0  0  0  0
   22.1720   25.9720    2.6760 O   0  0  0  0  0  0  0  0  0  0  0  0
   23.6920   25.0840    4.5010 O   0  0  0  0  0  0  0  0  0  0  0  0
  1  2  1  0
  2  3  1  0
  1  4  1  0
  2  5  1  1
  4  6  1  0
  4  7  1  0
  3  8  1  0
  6  9  1  0
  7 10  1  0
  8 11  2  0
  8 12  1  0
  9 13  1  0
 10 13  1  0
 12 14  1  0
 15 12  1  6
 15 16  1  0
 15 17  1  0
 16 18  1  0
 19 17  1  0
 18 19  1  0
 19 20  2  0
 19 21  2  0
M  END
