diamond-x0574_0_A-mac-x0345
     RDKit          3D

 13 14  0  0  0  0  0  0  0  0999 V2000
    0.1490   14.0370    2.1410 N   0  0  0  0  0  0  0  0  0  0  0  0
   -0.9120   14.2910    1.4020 C   0  0  0  0  0  0  0  0  0  0  0  0
   -2.0640   14.3090    1.9510 N   0  0  0  0  0  0  0  0  0  0  0  0
   -0.8700   14.6040   -0.2780 S   0  0  0  0  0  0  0  0  0  0  0  0
   -3.0330   14.5620    1.0310 C   0  0  0  0  0  0  0  0  0  0  0  0
   -2.5930   14.7590   -0.2630 C   0  0  0  0  0  0  0  0  0  0  0  0
   -4.3890   14.6220    1.3260 C   0  0  0  0  0  0  0  0  0  0  0  0
   -3.4940   15.0320   -1.3020 C   0  0  0  0  0  0  0  0  0  0  0  0
   -5.3100   14.8790    0.3260 C   0  0  0  0  0  0  0  0  0  0  0  0
   -4.8650   15.0930   -1.0100 C   0  0  0  0  0  0  0  0  0  0  0  0
   -6.6560   14.9280    0.5970 O   0  0  0  0  0  0  0  0  0  0  0  0
   -5.7500   15.3700   -2.0910 N   0  0  0  0  0  0  0  0  0  0  0  0
   -7.0120   14.5640    1.9400 C   0  0  0  0  0  0  0  0  0  0  0  0
  1  2  1  0
  2  3  2  0
  2  4  1  0
  3  5  1  0
  4  6  1  0
  5  6  2  0
  5  7  1  0
  6  8  1  0
  7  9  2  0
  8 10  2  0
  9 10  1  0
  9 11  1  0
 10 12  1  0
 11 13  1  0
M  END
