diamond-x0905_0_A-diamond-x0849_0_A
     RDKit          3D

 13 14  0  0  0  0  0  0  0  0999 V2000
   -6.9870   14.9410   -0.4430 O   0  0  0  0  0  0  0  0  0  0  0  0
   -5.6710   15.4400   -0.4940 C   0  0  1  0  0  0  0  0  0  0  0  0
   -5.0190   15.2870    0.8000 N   0  0  0  0  0  0  0  0  0  0  0  0
   -4.8840   14.8140   -1.6180 C   0  0  0  0  0  0  0  0  0  0  0  0
   -3.6150   15.7810    0.8450 C   0  0  0  0  0  0  0  0  0  0  0  0
   -3.4570   15.3280   -1.6030 C   0  0  2  0  0  0  0  0  0  0  0  0
   -2.5420   14.7090   -3.2220 Br  0  0  0  0  0  0  0  0  0  0  0  0
   -2.7080   15.1560   -0.2470 C   0  0  1  0  0  0  0  0  0  0  0  0
   -1.2190   15.7140   -0.4530 C   0  0  0  0  0  0  0  0  0  0  0  0
   -2.4820   13.7680    0.3440 C   0  0  0  0  0  0  0  0  0  0  0  0
   -1.6900   13.9790    1.5470 N   0  0  0  0  0  0  0  0  0  0  0  0
   -0.1040   15.1320    0.3940 C   0  0  0  0  0  0  0  0  0  0  0  0
   -0.4000   14.2960    1.3660 C   0  0  0  0  0  0  0  0  0  0  0  0
  2  1  1  1
  2  3  1  0
  2  4  1  0
  3  5  1  0
  4  6  1  0
  6  7  1  6
  8  5  1  1
  6  8  1  0
  8  9  1  0
  8 10  1  0
 10 11  1  0
  9 12  1  0
 11 13  1  0
 12 13  2  0
M  END
