diamond-x0628_0_A-diamond-x0685_0_A
     RDKit          3D

 24 25  0  0  0  0  0  0  0  0999 V2000
   -0.8120    9.0600   -7.3130 C   0  0  0  0  0  0  0  0  0  0  0  0
   -0.8140   10.2890   -6.4970 C   0  0  0  0  0  0  0  0  0  0  0  0
   -1.8670   10.6390   -5.7020 N   0  0  0  0  0  0  0  0  0  0  0  0
    0.2100   11.1450   -6.4750 N   0  0  0  0  0  0  0  0  0  0  0  0
   -0.2220   12.0840   -5.6110 N   0  0  0  0  0  0  0  0  0  0  0  0
   -1.4770   11.7750   -5.1480 C   0  0  0  0  0  0  0  0  0  0  0  0
   -2.2910   12.5660   -4.1790 C   0  0  0  0  0  0  0  0  0  0  0  0
    0.6410   13.2160   -5.3120 C   0  0  0  0  0  0  0  0  0  0  0  0
    1.6760   12.9410   -4.2240 C   0  0  0  0  0  0  0  0  0  0  0  0
   -2.3580   14.0830   -4.4380 C   0  0  0  0  0  0  0  0  0  0  0  0
    1.0780   12.2510   -3.0260 C   0  0  0  0  0  0  0  0  0  0  0  0
   -3.0060   14.6860   -3.2700 C   0  0  0  0  0  0  0  0  0  0  0  0
    0.5370   11.1580   -3.0050 O   0  0  0  0  0  0  0  0  0  0  0  0
    1.1990   12.9720   -1.9010 O   0  0  0  0  0  0  0  0  0  0  0  0
   -3.5460   14.9550   -2.2420 C   0  0  0  0  0  0  0  0  0  0  0  0
   -4.1950   15.0020   -0.9860 C   0  0  0  0  0  0  0  0  0  0  0  0
   -3.4840   15.1690    0.1920 C   0  0  0  0  0  0  0  0  0  0  0  0
   -5.5670   14.8630   -0.9100 C   0  0  0  0  0  0  0  0  0  0  0  0
   -4.1800   15.1870    1.3920 C   0  0  0  0  0  0  0  0  0  0  0  0
   -6.2620   14.8740    0.2430 N   0  0  0  0  0  0  0  0  0  0  0  0
   -5.5650   15.0340    1.3780 C   0  0  0  0  0  0  0  0  0  0  0  0
   -6.3300   15.0390    2.5400 N   0  0  0  0  0  0  0  0  0  0  0  0
   -7.7610   14.8070    2.5330 C   0  0  0  0  0  0  0  0  0  0  0  0
   -8.0790   13.4060    3.0270 C   0  0  0  0  0  0  0  0  0  0  0  0
  1  2  1  0
  2  3  1  0
  2  4  2  0
  4  5  1  0
  3  6  2  0
  5  6  1  0
  6  7  1  0
  5  8  1  0
  8  9  1  0
  7 10  1  0
  9 11  1  0
 10 12  1  0
 11 13  2  0
 11 14  1  0
 12 15  3  0
 15 16  1  0
 16 17  2  0
 16 18  1  0
 17 19  1  0
 18 20  2  0
 19 21  2  0
 20 21  1  0
 21 22  1  0
 22 23  1  0
 23 24  1  0
M  END
