diamond-x0689_0_A-diamond-x0969_0_A
     RDKit          3D

 17 19  0  0  0  0  0  0  0  0999 V2000
   -3.1500   15.0190    2.0770 N   0  0  0  0  0  0  0  0  0  0  0  0
   -2.0020   15.0810    1.2110 C   0  0  1  0  0  0  0  0  0  0  0  0
   -1.1430   14.1090    1.7160 N   0  0  0  0  0  0  0  0  0  0  0  0
   -2.2530   15.0060   -0.2040 N   0  0  0  0  0  0  0  0  0  0  0  0
   -1.1610   14.7550   -1.0150 C   0  0  0  0  0  0  0  0  0  0  0  0
    0.0700   14.1600    0.9990 C   0  0  0  0  0  0  0  0  0  0  0  0
   -3.5600   14.9720   -0.5090 C   0  0  0  0  0  0  0  0  0  0  0  0
   -0.0210   14.3520   -0.4770 C   0  0  0  0  0  0  0  0  0  0  0  0
   -4.0350   15.0610   -1.8770 C   0  0  0  0  0  0  0  0  0  0  0  0
   -4.4670   14.8570    0.4720 C   0  0  0  0  0  0  0  0  0  0  0  0
   -5.7960   14.8150    0.1890 N   0  0  0  0  0  0  0  0  0  0  0  0
   -5.3410   15.0180   -2.1550 C   0  0  0  0  0  0  0  0  0  0  0  0
   -6.9020   14.7030    1.0080 C   0  0  0  0  0  0  0  0  0  0  0  0
   -6.2780   14.8880   -1.0970 C   0  0  0  0  0  0  0  0  0  0  0  0
   -6.8620   14.6160    2.3610 N   0  0  0  0  0  0  0  0  0  0  0  0
   -7.9740   14.7040    0.2550 N   0  0  0  0  0  0  0  0  0  0  0  0
   -7.5850   14.8190   -1.0640 N   0  0  0  0  0  0  0  0  0  0  0  0
  2  1  1  1
  2  3  1  0
  2  4  1  0
  4  5  1  0
  3  6  1  0
  4  7  1  0
  5  8  2  0
  6  8  1  0
  7  9  1  0
  7 10  2  0
 10 11  1  0
  9 12  2  0
 11 13  1  0
 11 14  1  0
 12 14  1  0
 13 15  1  0
 13 16  2  0
 14 17  2  0
 16 17  1  0
M  END
