diamond-x0574_0_A-mac-x0437
     RDKit          3D

 28 31  0  0  0  0  0  0  0  0999 V2000
    0.4330   14.6290    1.3240 N   0  0  0  0  0  0  0  0  0  0  0  0
   -0.7560   15.1770    0.8330 C   0  0  2  0  0  0  0  0  0  0  0  0
   -1.6750   14.2280    1.1520 N   0  0  0  0  0  0  0  0  0  0  0  0
   -1.0090   14.9440   -0.9330 S   0  0  0  0  0  0  0  0  0  0  0  0
   -1.2920   13.3080    0.0450 C   0  0  0  0  0  0  0  0  0  0  0  0
   -2.9050   14.8930    0.8340 C   0  0  1  0  0  0  0  0  0  0  0  0
   -2.8020   14.6330   -0.6580 C   0  0  1  0  0  0  0  0  0  0  0  0
   -0.4910   13.6160   -1.2820 C   0  0  0  0  0  0  0  0  0  0  0  0
   -4.2460   14.3980    1.3860 C   0  0  0  0  0  0  0  0  0  0  0  0
   -3.8210   15.4460   -1.3460 C   0  0  0  0  0  0  0  0  0  0  0  0
    0.5540   12.6150   -1.4940 O   0  0  0  0  0  0  0  0  0  0  0  0
   -5.3770   14.4570    0.3290 C   0  0  2  0  0  0  0  0  0  0  0  0
   -5.0630   15.3600   -0.8540 C   0  0  0  0  0  0  0  0  0  0  0  0
   -6.5990   14.9270    0.9070 O   0  0  0  0  0  0  0  0  0  0  0  0
    0.7070   12.0400   -2.7560 C   0  0  0  0  0  0  0  0  0  0  0  0
   -6.7980   14.5250    2.2560 C   0  0  0  0  0  0  0  0  0  0  0  0
    0.4260   10.8750   -2.9880 O   0  0  0  0  0  0  0  0  0  0  0  0
    1.2860   12.9910   -3.8000 C   0  0  0  0  0  0  0  0  0  0  0  0
    0.4470   13.1240   -5.0910 C   0  0  0  0  0  0  0  0  0  0  0  0
   -0.4010   11.9780   -5.4070 N   0  0  0  0  0  0  0  0  0  0  0  0
   -1.5540   11.6480   -4.7540 C   0  0  0  0  0  0  0  0  0  0  0  0
   -0.2020   11.0460   -6.4050 C   0  0  0  0  0  0  0  0  0  0  0  0
   -2.1110   10.5680   -5.2550 N   0  0  0  0  0  0  0  0  0  0  0  0
   -1.2850   10.1790   -6.2790 C   0  0  0  0  0  0  0  0  0  0  0  0
    0.7860   10.8750   -7.3790 C   0  0  0  0  0  0  0  0  0  0  0  0
   -1.4020    9.0850   -7.1480 C   0  0  0  0  0  0  0  0  0  0  0  0
    0.6540    9.7780   -8.2400 C   0  0  0  0  0  0  0  0  0  0  0  0
   -0.4200    8.8930   -8.1290 C   0  0  0  0  0  0  0  0  0  0  0  0
  2  1  1  6
  2  3  1  0
  2  4  1  0
  3  5  1  0
  3  6  1  0
  4  7  1  0
  6  7  1  0
  5  8  1  0
  6  9  1  1
  7 10  1  6
  8 11  1  0
  9 12  1  0
 10 13  2  0
 12 13  1  0
 12 14  1  1
 11 15  1  0
 14 16  1  0
 15 17  2  0
 15 18  1  0
 18 19  1  0
 19 20  1  0
 20 21  1  0
 20 22  1  0
 21 23  2  0
 22 24  2  0
 23 24  1  0
 22 25  1  0
 24 26  1  0
 25 27  2  0
 26 28  2  0
 27 28  1  0
M  END
