diamond-x0933_0_A-diamond-x0849_0_A
     RDKit          3D

 13 14  0  0  0  0  0  0  0  0999 V2000
   -6.2510   14.5380    1.6510 N   0  0  0  0  0  0  0  0  0  0  0  0
   -5.3130   14.9740    0.6760 C   0  0  1  0  0  0  0  0  0  0  0  0
   -4.1670   15.4910    1.3240 N   0  0  0  0  0  0  0  0  0  0  0  0
   -4.9970   13.9490   -0.2610 N   0  0  0  0  0  0  0  0  0  0  0  0
   -3.7460   14.0480   -1.0280 C   0  0  1  0  0  0  0  0  0  0  0  0
   -3.1390   15.8690    0.3860 C   0  0  0  0  0  0  0  0  0  0  0  0
   -4.1010   15.0410   -2.6730 Br  0  0  0  0  0  0  0  0  0  0  0  0
   -2.5540   14.6560   -0.2730 C   0  0  2  0  0  0  0  0  0  0  0  0
   -1.3620   15.0160   -1.2100 C   0  0  0  0  0  0  0  0  0  0  0  0
   -1.9800   13.8660    0.8730 C   0  0  0  0  0  0  0  0  0  0  0  0
   -1.0420   14.7050    1.5760 N   0  0  0  0  0  0  0  0  0  0  0  0
   -0.0810   15.2930   -0.4780 C   0  0  0  0  0  0  0  0  0  0  0  0
    0.0040   15.1400    0.8390 C   0  0  0  0  0  0  0  0  0  0  0  0
  2  1  1  1
  2  3  1  0
  2  4  1  0
  4  5  1  0
  3  6  1  0
  5  7  1  6
  5  8  1  0
  8  6  1  1
  8  9  1  0
  8 10  1  0
 10 11  1  0
  9 12  1  0
 11 13  1  0
 12 13  2  0
M  END
