diamond-x0689_0_A-diamond-x0685_1_A
     RDKit          3D

 21 22  0  0  0  0  0  0  0  0999 V2000
   -3.6220   15.1880    1.6590 N   0  0  0  0  0  0  0  0  0  0  0  0
   -4.7530   15.3480    0.7890 C   0  0  0  0  0  0  0  0  0  0  0  0
   -2.4850   14.7820    0.9830 C   0  0  0  0  0  0  0  0  0  0  0  0
   -2.6080   14.7820   -0.3510 N   0  0  0  0  0  0  0  0  0  0  0  0
   -1.3740   14.4280    1.6210 N   0  0  0  0  0  0  0  0  0  0  0  0
   -1.5390   14.4000   -1.0780 C   0  0  0  0  0  0  0  0  0  0  0  0
   -0.3300   14.0470    0.8440 C   0  0  0  0  0  0  0  0  0  0  0  0
   -0.3450   14.0110   -0.5480 C   0  0  0  0  0  0  0  0  0  0  0  0
    0.6440   13.6480   -1.4410 O   0  0  0  0  0  0  0  0  0  0  0  0
    0.6800   12.4000   -2.4920 S   0  0  0  0  0  0  0  0  0  0  0  0
   -0.1790   12.8140   -4.0310 C   0  0  0  0  0  0  0  0  0  0  0  0
    2.1970   12.1940   -2.9820 O   0  0  0  0  0  0  0  0  0  0  0  0
    0.0900   11.0250   -1.8810 O   0  0  0  0  0  0  0  0  0  0  0  0
   -1.4620   12.0210   -4.3170 C   0  0  0  0  0  0  0  0  0  0  0  0
   -1.2000   10.6110   -4.7170 N   0  0  0  0  0  0  0  0  0  0  0  0
   -0.6780   10.4280   -6.0990 C   0  0  0  0  0  0  0  0  0  0  0  0
   -0.5690    8.9190   -6.3720 C   0  0  0  0  0  0  0  0  0  0  0  0
   -1.5570   11.0640   -7.1960 C   0  0  0  0  0  0  0  0  0  0  0  0
    0.0110    8.6360   -7.7580 C   0  0  0  0  0  0  0  0  0  0  0  0
   -1.0870   10.7630   -8.6290 C   0  0  0  0  0  0  0  0  0  0  0  0
   -0.8130    9.2820   -8.8750 C   0  0  0  0  0  0  0  0  0  0  0  0
  1  2  1  0
  1  3  1  0
  3  4  2  0
  3  5  1  0
  4  6  1  0
  5  7  2  0
  6  8  2  0
  7  8  1  0
  8  9  1  0
 10  9  1  0
 10 11  1  0
 10 12  1  0
 10 13  1  0
 11 14  1  0
 14 15  1  0
 15 16  1  0
 16 17  1  0
 16 18  1  0
 17 19  1  0
 18 20  1  0
 19 21  1  0
 20 21  1  0
M  END
