diamond-x0895_0_A-diamond-x1012_0_A
     RDKit          3D

 21 22  0  0  0  0  0  0  0  0999 V2000
   -1.6480   14.5690    1.9550 O   0  0  0  0  0  0  0  0  0  0  0  0
   -2.5700   14.8890    1.2230 C   0  0  0  0  0  0  0  0  0  0  0  0
   -3.8270   15.7070    1.5380 C   0  0  0  0  0  0  0  0  0  0  0  0
   -2.6740   14.5780   -0.1040 N   0  0  0  0  0  0  0  0  0  0  0  0
   -4.6750   15.2470    0.4630 N   0  0  0  0  0  0  0  0  0  0  0  0
   -3.8550   15.0090   -0.5880 C   0  0  0  0  0  0  0  0  0  0  0  0
   -4.1520   15.1710   -1.8170 N   0  0  0  0  0  0  0  0  0  0  0  0
   -3.1150   14.8770   -2.8220 C   0  0  0  0  0  0  0  0  0  0  0  0
   -3.3680   15.4500   -4.2300 C   0  0  0  0  0  0  0  0  0  0  0  0
   -2.7380   16.7720   -4.4340 N   0  0  0  0  0  0  0  0  0  0  0  0
   -1.5050   16.8800   -4.7640 C   0  0  0  0  0  0  0  0  0  0  0  0
   -0.8420   18.0550   -4.9650 N   0  0  0  0  0  0  0  0  0  0  0  0
   -0.7000   15.7780   -4.9410 N   0  0  0  0  0  0  0  0  0  0  0  0
   -1.1960   14.4280   -5.2350 C   0  0  0  0  0  0  0  0  0  0  0  0
    0.7280   15.8730   -4.5970 C   0  0  0  0  0  0  0  0  0  0  0  0
   -1.0790   13.5300   -4.0120 C   0  0  0  0  0  0  0  0  0  0  0  0
    1.2430   14.6050   -3.9100 C   0  0  0  0  0  0  0  0  0  0  0  0
    0.1570   13.8210   -3.1580 C   0  0  0  0  0  0  0  0  0  0  0  0
    0.7680   12.5650   -2.5830 C   0  0  0  0  0  0  0  0  0  0  0  0
    0.0590   11.4350   -2.8020 O   0  0  0  0  0  0  0  0  0  0  0  0
    1.7990   12.5160   -1.9710 O   0  0  0  0  0  0  0  0  0  0  0  0
  1  2  2  0
  2  3  1  0
  2  4  1  0
  3  5  1  0
  4  6  1  0
  5  6  1  0
  6  7  2  3
  7  8  1  0
  8  9  1  0
  9 10  1  0
 10 11  2  3
 11 12  1  0
 11 13  1  0
 13 14  1  0
 13 15  1  0
 14 16  1  0
 15 17  1  0
 16 18  1  0
 17 18  1  0
 18 19  1  0
 19 20  1  0
 19 21  2  0
M  END
