diamond-x0104_0_A-diamond-x1012_0_A
     RDKit          3D

 31 33  0  0  0  0  0  0  0  0999 V2000
   -6.8170   14.5940    2.6920 N   0  0  0  0  0  0  0  0  0  0  0  0
   -8.0250   15.0560    3.1970 C   0  0  0  0  0  0  0  0  0  0  0  0
   -7.9960   15.0940    4.5820 N   0  0  0  0  0  0  0  0  0  0  0  0
   -6.3050   14.7440    1.3900 C   0  0  0  0  0  0  0  0  0  0  0  0
   -8.9860   15.3830    2.5100 O   0  0  0  0  0  0  0  0  0  0  0  0
   -4.9610   14.9570    1.0710 C   0  0  0  0  0  0  0  0  0  0  0  0
   -7.2150   14.6760    0.3400 C   0  0  0  0  0  0  0  0  0  0  0  0
   -4.4900   15.1060   -0.2020 N   0  0  0  0  0  0  0  0  0  0  0  0
   -6.7630   14.8280   -0.9620 C   0  0  0  0  0  0  0  0  0  0  0  0
   -9.1140   15.0980    5.3890 C   0  0  0  0  0  0  0  0  0  0  0  0
   -5.4190   15.0380   -1.1830 C   0  0  0  0  0  0  0  0  0  0  0  0
   -9.2770   15.2140    6.7500 C   0  0  0  0  0  0  0  0  0  0  0  0
  -10.5990   14.9240    4.5660 S   0  0  0  0  0  0  0  0  0  0  0  0
   -5.1040   15.1780   -2.5180 O   0  0  0  0  0  0  0  0  0  0  0  0
  -11.4860   15.0010    6.0330 C   0  0  0  0  0  0  0  0  0  0  0  0
  -10.6550   15.1580    7.1240 C   0  0  0  0  0  0  0  0  0  0  0  0
   -3.7190   15.1890   -2.8860 C   0  0  0  0  0  0  0  0  0  0  0  0
   -3.7010   14.7640   -4.3550 C   0  0  0  0  0  0  0  0  0  0  0  0
   -3.3690   15.8540   -5.3940 C   0  0  0  0  0  0  0  0  0  0  0  0
   -2.5660   16.9900   -4.9210 N   0  0  0  0  0  0  0  0  0  0  0  0
   -1.2970   16.9720   -4.7760 C   0  0  0  0  0  0  0  0  0  0  0  0
   -0.5140   18.0110   -4.4010 N   0  0  0  0  0  0  0  0  0  0  0  0
   -0.5560   15.8100   -5.0180 N   0  0  0  0  0  0  0  0  0  0  0  0
   -1.2850   14.5210   -5.0880 C   0  0  0  0  0  0  0  0  0  0  0  0
    0.8530   15.7470   -4.4940 C   0  0  0  0  0  0  0  0  0  0  0  0
   -1.1610   13.7610   -3.7830 C   0  0  0  0  0  0  0  0  0  0  0  0
    1.1030   14.7240   -3.3620 C   0  0  0  0  0  0  0  0  0  0  0  0
    0.2970   13.4290   -3.5360 C   0  0  0  0  0  0  0  0  0  0  0  0
    0.4360   12.4520   -2.3800 C   0  0  0  0  0  0  0  0  0  0  0  0
    0.4360   11.1610   -2.7550 O   0  0  0  0  0  0  0  0  0  0  0  0
    0.5240   12.8010   -1.2150 O   0  0  0  0  0  0  0  0  0  0  0  0
  1  2  1  0
  2  3  1  0
  1  4  1  0
  2  5  2  0
  4  6  2  0
  4  7  1  0
  6  8  1  0
  7  9  2  0
  3 10  1  0
  8 11  2  0
  9 11  1  0
 10 12  2  0
 10 13  1  0
 11 14  1  0
 13 15  1  0
 12 16  1  0
 15 16  2  0
 14 17  1  0
 17 18  1  0
 18 19  1  0
 19 20  1  0
 20 21  2  3
 21 22  1  0
 21 23  1  0
 23 24  1  0
 23 25  1  0
 24 26  1  0
 25 27  1  0
 26 28  1  0
 27 28  1  0
 28 29  1  0
 29 30  1  0
 29 31  2  0
M  END
