diamond-x0905_0_A-diamond-x0128_0_A
     RDKit          3D

 17 18  0  0  0  0  0  0  0  0999 V2000
   -7.0240   13.9760   -0.7120 O   0  0  0  0  0  0  0  0  0  0  0  0
   -6.2330   15.0950   -0.3800 C   0  0  1  0  0  0  0  0  0  0  0  0
   -5.7300   15.0160    1.0340 N   0  0  0  0  0  0  0  0  0  0  0  0
   -5.1180   15.1930   -1.3970 C   0  0  0  0  0  0  0  0  0  0  0  0
   -6.5650   14.5200    2.1420 N   0  0  0  0  0  0  0  0  0  0  0  0
   -4.3630   15.1370    1.2740 C   0  0  0  0  0  0  0  0  0  0  0  0
   -3.8200   15.2650   -1.0750 C   0  0  0  0  0  0  0  0  0  0  0  0
   -7.7070   15.1620    2.7100 C   0  0  0  0  0  0  0  0  0  0  0  0
   -3.4260   15.2530    0.3140 C   0  0  0  0  0  0  0  0  0  0  0  0
   -8.6750   15.5470    2.0640 O   0  0  0  0  0  0  0  0  0  0  0  0
   -7.5550   15.2710    4.0960 N   0  0  0  0  0  0  0  0  0  0  0  0
   -8.3500   15.9750    5.0700 C   0  0  0  0  0  0  0  0  0  0  0  0
   -9.0590   17.1240    4.7000 C   0  0  0  0  0  0  0  0  0  0  0  0
   -8.4770   15.5910    6.4100 C   0  0  0  0  0  0  0  0  0  0  0  0
   -9.8390   17.8720    5.5260 N   0  0  0  0  0  0  0  0  0  0  0  0
   -9.2760   16.3430    7.2870 C   0  0  0  0  0  0  0  0  0  0  0  0
   -9.9270   17.4620    6.8020 C   0  0  0  0  0  0  0  0  0  0  0  0
  2  1  1  6
  2  3  1  0
  2  4  1  0
  3  5  1  0
  3  6  1  0
  4  7  2  0
  5  8  1  0
  6  9  2  0
  7  9  1  0
  8 10  2  0
  8 11  1  0
 11 12  1  0
 12 13  2  0
 12 14  1  0
 13 15  1  0
 14 16  2  0
 15 17  2  0
 16 17  1  0
M  END
