diamond-x0969_0_A-mac-x0142
     RDKit          3D

 23 27  0  0  0  0  0  0  0  0999 V2000
   -6.7960   14.3630    2.3860 N   0  0  0  0  0  0  0  0  0  0  0  0
   -6.4400   14.6620    1.1340 C   0  0  0  0  0  0  0  0  0  0  0  0
   -7.3730   14.7400    0.1400 N   0  0  0  0  0  0  0  0  0  0  0  0
   -5.2200   14.9480    0.5430 C   0  0  0  0  0  0  0  0  0  0  0  0
   -6.8600   15.0680   -1.0560 N   0  0  0  0  0  0  0  0  0  0  0  0
   -5.5560   15.2040   -0.8040 C   0  0  0  0  0  0  0  0  0  0  0  0
   -3.8090   15.0200    1.0630 C   0  0  0  0  0  0  0  0  0  0  0  0
   -4.5540   15.5790   -1.7280 C   0  0  0  0  0  0  0  0  0  0  0  0
   -2.6920   15.1210   -0.0640 C   0  0  1  0  0  0  0  0  0  0  0  0
   -3.2480   15.5790   -1.4160 C   0  0  0  0  0  0  0  0  0  0  0  0
   -1.5630   15.9420    0.4260 N   0  0  0  0  0  0  0  0  0  0  0  0
   -2.0650   13.8010   -0.5130 C   0  0  0  0  0  0  0  0  0  0  0  0
   -0.3130   15.2250    0.6320 C   0  0  0  0  0  0  0  0  0  0  0  0
   -0.8070   14.0630   -1.3820 C   0  0  1  0  0  0  0  0  0  0  0  0
   -0.9020   14.6840   -2.7240 N   0  0  0  0  0  0  0  0  0  0  0  0
    0.1720   14.8330   -0.6600 N   0  0  0  0  0  0  0  0  0  0  0  0
   -1.9630   14.2390   -3.6490 C   0  0  0  0  0  0  0  0  0  0  0  0
    0.4060   14.8910   -3.3860 C   0  0  0  0  0  0  0  0  0  0  0  0
    0.7980   13.6300   -4.1200 C   0  0  0  0  0  0  0  0  0  0  0  0
   -1.5570   13.0240   -4.4970 C   0  0  0  0  0  0  0  0  0  0  0  0
    2.2510   13.3300   -4.3950 C   0  0  0  0  0  0  0  0  0  0  0  0
    1.5180   12.5560   -3.3350 C   0  0  0  0  0  0  0  0  0  0  0  0
   -0.2030   13.2200   -5.1650 C   0  0  0  0  0  0  0  0  0  0  0  0
  1  2  1  0
  2  3  1  0
  2  4  2  0
  3  5  1  0
  4  6  1  0
  5  6  2  0
  4  7  1  0
  6  8  1  0
  9  7  1  1
  8 10  2  0
  9 10  1  0
  9 11  1  0
  9 12  1  0
 11 13  1  0
 12 14  1  0
 14 15  1  6
 13 16  1  0
 14 16  1  0
 15 17  1  0
 15 18  1  0
 19 18  1  0
 17 20  1  0
 19 21  1  0
 19 22  1  0
 21 22  1  0
 19 23  1  0
 20 23  1  0
M  END
