diamond-x0722_0_A-mac-x0527
     RDKit          3D

 21 22  0  0  0  0  0  0  0  0999 V2000
   -4.3330   15.6440    2.2460 C   0  0  0  0  0  0  0  0  0  0  0  0
   -3.3820   15.2310    1.2180 C   0  0  0  0  0  0  0  0  0  0  0  0
   -2.1720   14.8520    1.5790 N   0  0  0  0  0  0  0  0  0  0  0  0
   -3.5690   15.1880   -0.1750 C   0  0  0  0  0  0  0  0  0  0  0  0
   -4.8320   15.5630   -0.8960 C   0  0  0  0  0  0  0  0  0  0  0  0
   -2.3420   14.7460   -0.6930 C   0  0  0  0  0  0  0  0  0  0  0  0
   -1.5380   14.5600    0.4380 N   0  0  0  0  0  0  0  0  0  0  0  0
   -0.1730   14.1300    0.6230 C   0  0  0  0  0  0  0  0  0  0  0  0
   -2.0380   14.5570   -2.1910 C   0  0  2  0  0  0  0  0  0  0  0  0
   -6.0540   14.7160   -0.5760 C   0  0  0  0  0  0  0  0  0  0  0  0
   -7.1950   15.1270   -0.7770 O   0  0  0  0  0  0  0  0  0  0  0  0
   -5.8770   13.4720   -0.0420 N   0  0  0  0  0  0  0  0  0  0  0  0
   -3.2960   14.3100   -2.9820 C   0  0  0  0  0  0  0  0  0  0  0  0
   -0.7560   13.8520   -2.6930 C   0  0  0  0  0  0  0  0  0  0  0  0
   -3.6760   15.0070   -3.9200 O   0  0  0  0  0  0  0  0  0  0  0  0
   -0.8250   12.9110   -3.8900 C   0  0  0  0  0  0  0  0  0  0  0  0
   -1.8150   11.9190   -3.9470 C   0  0  0  0  0  0  0  0  0  0  0  0
    0.0950   12.9960   -4.9590 C   0  0  0  0  0  0  0  0  0  0  0  0
   -1.8890   11.0390   -5.0240 C   0  0  0  0  0  0  0  0  0  0  0  0
    0.0180   12.1120   -6.0370 C   0  0  0  0  0  0  0  0  0  0  0  0
   -0.9720   11.1330   -6.0690 C   0  0  0  0  0  0  0  0  0  0  0  0
  1  2  1  0
  2  3  2  0
  2  4  1  0
  4  5  1  0
  4  6  2  0
  3  7  1  0
  6  7  1  0
  7  8  1  0
  6  9  1  0
  5 10  1  0
 10 11  2  0
 10 12  1  0
  9 13  1  1
  9 14  1  0
 13 15  2  0
 14 16  1  0
 16 17  2  0
 16 18  1  0
 17 19  1  0
 18 20  2  0
 19 21  2  0
 20 21  1  0
M  END
