diamond-x0852_0_B-mac-x0345
     RDKit          3D

 21 22  0  0  0  0  0  0  0  0999 V2000
   -9.7360   17.9030    7.1200 N   0  0  0  0  0  0  0  0  0  0  0  0
   -9.4960   17.3520    6.1240 C   0  0  0  0  0  0  0  0  0  0  0  0
   -9.2420   16.5870    4.9470 C   0  0  0  0  0  0  0  0  0  0  0  0
   -8.3630   15.5000    4.9820 C   0  0  0  0  0  0  0  0  0  0  0  0
   -9.8800   16.9150    3.7340 C   0  0  0  0  0  0  0  0  0  0  0  0
   -7.6820   15.0850    6.0890 O   0  0  0  0  0  0  0  0  0  0  0  0
   -8.1310   14.7530    3.8430 C   0  0  0  0  0  0  0  0  0  0  0  0
   -9.6370   16.1530    2.5810 C   0  0  0  0  0  0  0  0  0  0  0  0
  -10.2760   16.5070    1.4280 O   0  0  0  0  0  0  0  0  0  0  0  0
   -8.7660   15.0760    2.6560 C   0  0  0  0  0  0  0  0  0  0  0  0
  -10.1500   15.5180    0.3990 C   0  0  0  0  0  0  0  0  0  0  0  0
   -8.7680   15.5900   -0.2600 C   0  0  0  0  0  0  0  0  0  0  0  0
   -7.6410   14.7920    0.4540 C   0  0  0  0  0  0  0  0  0  0  0  0
   -6.3600   14.9610   -0.3290 C   0  0  0  0  0  0  0  0  0  0  0  0
   -5.0620   15.2070    0.1580 C   0  0  0  0  0  0  0  0  0  0  0  0
   -6.5880   14.8520   -1.6470 N   0  0  0  0  0  0  0  0  0  0  0  0
   -4.5260   15.3810    1.9380 Br  0  0  0  0  0  0  0  0  0  0  0  0
   -4.0270   15.3410   -0.7450 C   0  0  0  0  0  0  0  0  0  0  0  0
   -5.5810   14.9800   -2.5000 C   0  0  0  0  0  0  0  0  0  0  0  0
   -5.9090   14.8470   -3.8420 N   0  0  0  0  0  0  0  0  0  0  0  0
   -4.2820   15.2290   -2.0940 C   0  0  0  0  0  0  0  0  0  0  0  0
  1  2  3  0
  2  3  1  0
  3  4  2  0
  3  5  1  0
  4  6  1  0
  4  7  1  0
  5  8  2  0
  8  9  1  0
  7 10  2  0
  8 10  1  0
  9 11  1  0
 11 12  1  0
 12 13  1  0
 13 14  1  0
 14 15  2  0
 14 16  1  0
 15 17  1  0
 15 18  1  0
 16 19  2  0
 19 20  1  0
 18 21  2  0
 19 21  1  0
M  END
