diamond-x0950_0_A-mac-x0565
     RDKit          3D

 19 20  0  0  0  0  0  0  0  0999 V2000
    2.8690   12.9390   -4.0610 C   0  0  0  0  0  0  0  0  0  0  0  0
    1.3670   12.7940   -4.2140 C   0  0  1  0  0  0  0  0  0  0  0  0
    1.0930   12.0580   -5.4020 O   0  0  0  0  0  0  0  0  0  0  0  0
    0.7560   12.1640   -2.9460 C   0  0  0  0  0  0  0  0  0  0  0  0
    0.3980   10.9990   -2.8370 O   0  0  0  0  0  0  0  0  0  0  0  0
    0.6820   13.1080   -1.9570 O   0  0  0  0  0  0  0  0  0  0  0  0
   -0.6190   13.4050   -1.4060 C   0  0  0  0  0  0  0  0  0  0  0  0
   -1.2210   14.5950   -1.9920 N   0  0  0  0  0  0  0  0  0  0  0  0
   -2.6130   14.7430   -2.0450 C   0  0  0  0  0  0  0  0  0  0  0  0
   -0.8350   14.9510   -3.3550 C   0  0  0  0  0  0  0  0  0  0  0  0
   -3.5610   14.7740   -1.0280 C   0  0  0  0  0  0  0  0  0  0  0  0
   -3.0240   14.8700   -3.3650 C   0  0  0  0  0  0  0  0  0  0  0  0
   -1.9780   14.8340   -4.2410 O   0  0  0  0  0  0  0  0  0  0  0  0
   -4.9210   14.9290   -1.3820 C   0  0  0  0  0  0  0  0  0  0  0  0
   -4.3400   15.0180   -3.7350 C   0  0  0  0  0  0  0  0  0  0  0  0
   -5.9440   14.9620   -0.3050 C   0  0  0  0  0  0  0  0  0  0  0  0
   -5.3020   15.0480   -2.7270 C   0  0  0  0  0  0  0  0  0  0  0  0
   -5.4100   15.0670    0.9270 O   0  0  0  0  0  0  0  0  0  0  0  0
   -7.1440   14.8960   -0.5240 O   0  0  0  0  0  0  0  0  0  0  0  0
  2  1  1  1
  2  3  1  0
  2  4  1  0
  4  5  2  0
  4  6  1  0
  6  7  1  0
  7  8  1  0
  8  9  1  0
  8 10  1  0
  9 11  2  0
  9 12  1  0
 10 13  1  0
 12 13  1  0
 11 14  1  0
 12 15  2  0
 14 16  1  0
 14 17  2  0
 15 17  1  0
 16 18  1  0
 16 19  2  0
M  END
