diamond-x0587_0_A-mac-x0360
     RDKit          3D

 23 24  0  0  0  0  0  0  0  0999 V2000
   -7.8410   14.8250    4.1290 N   0  0  0  0  0  0  0  0  0  0  0  0
   -8.3790   14.8760    2.8780 C   0  0  0  0  0  0  0  0  0  0  0  0
   -9.5920   14.9560    2.7050 O   0  0  0  0  0  0  0  0  0  0  0  0
   -7.4600   14.8600    1.7370 C   0  0  0  0  0  0  0  0  0  0  0  0
   -7.8440   14.7720    0.4160 C   0  0  0  0  0  0  0  0  0  0  0  0
   -6.1010   14.9550    1.9520 C   0  0  0  0  0  0  0  0  0  0  0  0
   -6.9750   14.7810   -0.6240 N   0  0  0  0  0  0  0  0  0  0  0  0
   -5.1900   14.9720    0.9570 N   0  0  0  0  0  0  0  0  0  0  0  0
   -5.6580   14.8830   -0.3080 C   0  0  0  0  0  0  0  0  0  0  0  0
   -4.6170   14.8720   -1.4120 C   0  0  0  0  0  0  0  0  0  0  0  0
   -3.5190   13.9590   -0.7950 C   0  0  1  0  0  0  0  0  0  0  0  0
   -5.0470   14.1890   -2.5240 F   0  0  0  0  0  0  0  0  0  0  0  0
   -4.1320   16.0400   -1.8630 F   0  0  0  0  0  0  0  0  0  0  0  0
   -2.2930   13.8180   -1.6010 N   0  0  0  0  0  0  0  0  0  0  0  0
   -3.0900   14.4000    0.4970 O   0  0  0  0  0  0  0  0  0  0  0  0
   -4.4430   12.7400   -0.6700 C   0  0  0  0  0  0  0  0  0  0  0  0
   -4.4120   11.7250   -1.6220 C   0  0  0  0  0  0  0  0  0  0  0  0
   -5.3840   12.6240    0.3890 C   0  0  0  0  0  0  0  0  0  0  0  0
   -5.2870   10.6490   -1.5390 C   0  0  0  0  0  0  0  0  0  0  0  0
   -6.2630   11.5390    0.4570 C   0  0  0  0  0  0  0  0  0  0  0  0
   -7.4150   11.4090    1.7320 Cl  0  0  0  0  0  0  0  0  0  0  0  0
   -5.2110    9.4230   -2.7380 Cl  0  0  0  0  0  0  0  0  0  0  0  0
   -6.2150   10.5530   -0.5120 C   0  0  0  0  0  0  0  0  0  0  0  0
  1  2  1  0
  2  3  2  0
  2  4  1  0
  4  5  2  0
  4  6  1  0
  5  7  1  0
  6  8  2  0
  7  9  2  0
  8  9  1  0
  9 10  1  0
 10 11  1  0
 10 12  1  0
 10 13  1  0
 11 14  1  6
 11 15  1  0
 11 16  1  0
 16 17  2  0
 16 18  1  0
 17 19  1  0
 18 20  2  0
 20 21  1  0
 19 22  1  0
 19 23  2  0
 20 23  1  0
M  END
