diamond-x1012_0_A-diamond-x0864_0_A
     RDKit          3D

 21 22  0  0  0  0  0  0  0  0999 V2000
   -0.2960   18.3550   -4.7690 N   0  0  0  0  0  0  0  0  0  0  0  0
   -1.2530   17.4070   -4.8270 C   0  0  0  0  0  0  0  0  0  0  0  0
   -2.4140   17.7530   -4.8450 O   0  0  0  0  0  0  0  0  0  0  0  0
   -0.8220   16.1160   -4.8410 N   0  0  0  0  0  0  0  0  0  0  0  0
   -1.8510   15.0810   -4.5840 C   0  0  0  0  0  0  0  0  0  0  0  0
    0.6030   15.7850   -4.7030 C   0  0  0  0  0  0  0  0  0  0  0  0
   -1.5180   14.2510   -3.3510 C   0  0  0  0  0  0  0  0  0  0  0  0
    0.8820   14.9680   -3.4580 C   0  0  0  0  0  0  0  0  0  0  0  0
   -0.0780   13.7810   -3.5020 C   0  0  0  0  0  0  0  0  0  0  0  0
    0.3700   12.5400   -2.7210 C   0  0  0  0  0  0  0  0  0  0  0  0
   -0.5560   12.0610   -1.7570 O   0  0  0  0  0  0  0  0  0  0  0  0
    1.5570   12.8330   -2.0110 O   0  0  0  0  0  0  0  0  0  0  0  0
    0.6590   11.5460   -3.8430 C   0  0  0  0  0  0  0  0  0  0  0  0
   -0.2250   11.5710   -5.0260 N   0  0  0  0  0  0  0  0  0  0  0  0
   -1.5260   11.1480   -4.8450 C   0  0  0  0  0  0  0  0  0  0  0  0
    0.3990   11.3700   -6.2550 C   0  0  0  0  0  0  0  0  0  0  0  0
    1.3330   12.0490   -6.6660 O   0  0  0  0  0  0  0  0  0  0  0  0
   -2.0750   10.2460   -5.6680 C   0  0  0  0  0  0  0  0  0  0  0  0
   -0.1120   10.2400   -7.0650 C   0  0  0  0  0  0  0  0  0  0  0  0
   -1.3010    9.7100   -6.7630 C   0  0  0  0  0  0  0  0  0  0  0  0
   -2.0210    8.2790   -7.7190 Br  0  0  0  0  0  0  0  0  0  0  0  0
  1  2  1  0
  2  3  2  0
  2  4  1  0
  4  5  1  0
  4  6  1  0
  5  7  1  0
  6  8  1  0
  7  9  1  0
  8  9  1  0
  9 10  1  0
 10 11  1  0
 10 12  1  0
 10 13  1  0
 13 14  1  0
 14 15  1  0
 14 16  1  0
 16 17  2  0
 15 18  2  0
 16 19  1  0
 18 20  1  0
 19 20  2  0
 20 21  1  0
M  END
