diamond-x0742_0_A-mac-x0277
     RDKit          3D

 29 32  0  0  0  0  0  0  0  0999 V2000
   -5.3750   12.6540   -0.5780 C   0  0  0  0  0  0  0  0  0  0  0  0
   -6.2900   11.8970    0.3590 C   0  0  0  0  0  0  0  0  0  0  0  0
   -4.8710   12.0640   -1.5400 O   0  0  0  0  0  0  0  0  0  0  0  0
   -5.1570   14.1710   -0.2740 C   0  0  2  0  0  0  0  0  0  0  0  0
   -5.0960   14.4120    1.2530 C   0  0  0  0  0  0  0  0  0  0  0  0
   -6.2620   14.9220   -1.0210 C   0  0  0  0  0  0  0  0  0  0  0  0
   -3.9650   14.8690   -0.9760 C   0  0  2  0  0  0  0  0  0  0  0  0
   -4.2910   14.7500   -2.4650 C   0  0  0  0  0  0  0  0  0  0  0  0
   -2.6490   14.5250   -0.3720 C   0  0  0  0  0  0  0  0  0  0  0  0
   -3.7950   15.0940    1.7220 C   0  0  0  0  0  0  0  0  0  0  0  0
   -5.8320   14.7270   -2.4820 C   0  0  0  0  0  0  0  0  0  0  0  0
   -1.5390   14.1110   -1.0720 C   0  0  0  0  0  0  0  0  0  0  0  0
   -2.5700   14.6430    1.0030 C   0  0  0  0  0  0  0  0  0  0  0  0
   -1.4670   14.3770    1.7270 N   0  0  0  0  0  0  0  0  0  0  0  0
   -0.3870   13.8240   -0.3700 C   0  0  0  0  0  0  0  0  0  0  0  0
    0.8270   13.3540   -1.0760 C   0  0  0  0  0  0  0  0  0  0  0  0
   -0.4010   13.9730    1.0200 C   0  0  0  0  0  0  0  0  0  0  0  0
    0.9770   13.6760   -2.4510 N   0  0  0  0  0  0  0  0  0  0  0  0
    0.9540   12.6880   -3.2570 C   0  0  0  0  0  0  0  0  0  0  0  0
    0.7710   11.3960   -2.9100 O   0  0  0  0  0  0  0  0  0  0  0  0
    1.1270   13.0200   -4.6920 C   0  0  0  0  0  0  0  0  0  0  0  0
    0.5330   14.3880   -4.8070 C   0  0  0  0  0  0  0  0  0  0  0  0
   -0.8290   14.5100   -5.0430 C   0  0  0  0  0  0  0  0  0  0  0  0
    1.3190   15.5430   -4.6670 C   0  0  0  0  0  0  0  0  0  0  0  0
   -1.4200   15.7640   -5.1480 C   0  0  0  0  0  0  0  0  0  0  0  0
    0.7300   16.8040   -4.7740 C   0  0  0  0  0  0  0  0  0  0  0  0
   -3.1180   15.8060   -5.4470 Cl  0  0  0  0  0  0  0  0  0  0  0  0
   -0.6380   16.9140   -5.0170 C   0  0  0  0  0  0  0  0  0  0  0  0
   -1.3200   18.4890   -5.1530 Cl  0  0  0  0  0  0  0  0  0  0  0  0
  1  2  1  0
  1  3  2  0
  4  1  1  1
  4  5  1  0
  4  6  1  0
  4  7  1  0
  7  8  1  6
  7  9  1  0
  5 10  1  0
  6 11  1  0
  8 11  1  0
  9 12  1  0
  9 13  2  0
 10 13  1  0
 13 14  1  0
 12 15  2  0
 15 16  1  0
 14 17  2  0
 15 17  1  0
 16 18  1  0
 18 19  2  3
 19 20  1  0
 19 21  1  0
 21 22  1  0
 22 23  2  0
 22 24  1  0
 23 25  1  0
 24 26  2  0
 25 27  1  0
 25 28  2  0
 26 28  1  0
 28 29  1  0
M  END
