diamond-x0855_0_A-mac-x0379
     RDKit          3D

 20 21  0  0  0  0  0  0  0  0999 V2000
    1.7730   13.0190   -2.5920 O   0  0  0  0  0  0  0  0  0  0  0  0
    1.0670   12.1660   -3.3650 C   0  0  0  0  0  0  0  0  0  0  0  0
    0.7240   12.6040   -4.7820 C   0  0  2  0  0  0  0  0  0  0  0  0
    0.7200   11.0800   -2.9160 O   0  0  0  0  0  0  0  0  0  0  0  0
    0.3560   14.1020   -4.8280 C   0  0  0  0  0  0  0  0  0  0  0  0
   -0.3560   11.7460   -5.2540 N   0  0  0  0  0  0  0  0  0  0  0  0
   -0.9830   14.2570   -4.2610 N   0  0  0  0  0  0  0  0  0  0  0  0
   -0.2830   10.7750   -6.2100 C   0  0  0  0  0  0  0  0  0  0  0  0
   -1.6020   11.8680   -4.7150 N   0  0  0  0  0  0  0  0  0  0  0  0
   -1.2160   14.7370   -3.0970 C   0  0  0  0  0  0  0  0  0  0  0  0
   -1.5350   10.2350   -6.2850 C   0  0  0  0  0  0  0  0  0  0  0  0
   -2.3170   10.9330   -5.3570 C   0  0  0  0  0  0  0  0  0  0  0  0
   -2.1280    8.8500   -7.3800 Br  0  0  0  0  0  0  0  0  0  0  0  0
   -0.1600   15.1470   -2.3580 O   0  0  0  0  0  0  0  0  0  0  0  0
   -2.4840   14.9000   -2.4360 C   0  0  0  0  0  0  0  0  0  0  0  0
   -3.7160   15.1870   -2.9720 C   0  0  0  0  0  0  0  0  0  0  0  0
   -2.6450   14.7390   -0.7280 S   0  0  0  0  0  0  0  0  0  0  0  0
   -4.3220   15.0620   -0.8610 C   0  0  0  0  0  0  0  0  0  0  0  0
   -4.7590   15.2780   -2.0780 N   0  0  0  0  0  0  0  0  0  0  0  0
   -5.1760   15.0810    0.3520 C   0  0  0  0  0  0  0  0  0  0  0  0
  1  2  1  0
  2  3  1  0
  2  4  2  0
  3  5  1  1
  3  6  1  0
  5  7  1  0
  6  8  1  0
  6  9  1  0
  7 10  2  3
  8 11  2  0
  9 12  2  0
 11 12  1  0
 11 13  1  0
 10 14  1  0
 10 15  1  0
 15 16  2  0
 15 17  1  0
 17 18  1  0
 16 19  1  0
 18 19  2  0
 18 20  1  0
M  END
