diamond-x0722_0_A-diamond-x0805_0_A
     RDKit          3D

 28 30  0  0  0  0  0  0  0  0999 V2000
   -4.4180   15.9090    2.4480 C   0  0  0  0  0  0  0  0  0  0  0  0
   -3.4300   15.3420    1.5540 C   0  0  0  0  0  0  0  0  0  0  0  0
   -2.3150   14.8850    2.0400 N   0  0  0  0  0  0  0  0  0  0  0  0
   -3.4920   15.2310    0.1850 C   0  0  0  0  0  0  0  0  0  0  0  0
   -4.6630   15.6890   -0.6180 C   0  0  2  0  0  0  0  0  0  0  0  0
   -2.2590   14.6570   -0.1510 C   0  0  0  0  0  0  0  0  0  0  0  0
   -1.6110   14.4890    1.0260 N   0  0  0  0  0  0  0  0  0  0  0  0
   -0.2990   13.9600    1.2590 C   0  0  0  0  0  0  0  0  0  0  0  0
   -1.5940   14.2570   -1.3980 C   0  0  0  0  0  0  0  0  0  0  0  0
   -5.9100   14.7580   -0.5060 C   0  0  0  0  0  0  0  0  0  0  0  0
   -4.2580   15.8270   -1.9430 O   0  0  0  0  0  0  0  0  0  0  0  0
   -7.0470   15.0750   -0.8620 O   0  0  0  0  0  0  0  0  0  0  0  0
   -5.7300   13.5100    0.0390 N   0  0  0  0  0  0  0  0  0  0  0  0
   -3.5970   14.7930   -2.4860 C   0  0  0  0  0  0  0  0  0  0  0  0
   -4.2860   13.5920   -2.4210 C   0  0  0  0  0  0  0  0  0  0  0  0
   -2.3460   14.8370   -3.0760 C   0  0  0  0  0  0  0  0  0  0  0  0
   -3.7240   12.4380   -2.9460 C   0  0  0  0  0  0  0  0  0  0  0  0
   -1.7560   13.6980   -3.6070 C   0  0  0  0  0  0  0  0  0  0  0  0
   -2.4630   12.4920   -3.5380 C   0  0  0  0  0  0  0  0  0  0  0  0
   -0.3770   13.7430   -4.2460 C   0  0  2  0  0  0  0  0  0  0  0  0
    0.7610   13.1550   -3.4310 C   0  0  1  0  0  0  0  0  0  0  0  0
    0.0910   15.1690   -4.5230 C   0  0  0  0  0  0  0  0  0  0  0  0
    0.4830   12.0200   -2.4950 C   0  0  0  0  0  0  0  0  0  0  0  0
    1.9420   12.9160   -4.3220 C   0  0  0  0  0  0  0  0  0  0  0  0
    1.6140   15.3510   -4.4110 C   0  0  0  0  0  0  0  0  0  0  0  0
    0.3640   10.7850   -3.0110 O   0  0  0  0  0  0  0  0  0  0  0  0
    0.3780   12.2430   -1.3020 O   0  0  0  0  0  0  0  0  0  0  0  0
    2.4930   14.2000   -4.5400 O   0  0  0  0  0  0  0  0  0  0  0  0
  1  2  1  0
  2  3  2  0
  2  4  1  0
  4  5  1  0
  4  6  2  0
  3  7  1  0
  6  7  1  0
  7  8  1  0
  6  9  1  0
  5 10  1  0
  5 11  1  6
 10 12  2  0
 10 13  1  0
 11 14  1  0
 14 15  2  0
 14 16  1  0
 15 17  1  0
 16 18  2  0
 17 19  2  0
 18 19  1  0
 20 18  1  1
 20 21  1  0
 20 22  1  0
 21 23  1  6
 21 24  1  0
 22 25  1  0
 23 26  1  0
 23 27  2  0
 24 28  1  0
 25 28  1  0
M  END
