diamond-x0591_0_A-mac-x0138
     RDKit          3D

 20 22  0  0  0  0  0  0  0  0999 V2000
   -4.9580   14.6660    0.6930 N   0  0  0  0  0  0  0  0  0  0  0  0
   -5.6700   14.2530    1.8730 C   0  0  0  0  0  0  0  0  0  0  0  0
   -5.7320   14.9260   -0.4080 C   0  0  0  0  0  0  0  0  0  0  0  0
   -3.6100   14.1860    0.2990 C   0  0  1  0  0  0  0  0  0  0  0  0
   -6.9460   14.7790   -0.5240 O   0  0  0  0  0  0  0  0  0  0  0  0
   -4.7900   15.4380   -1.4510 C   0  0  1  0  0  0  0  0  0  0  0  0
   -3.4550   14.6840   -1.1800 C   0  0  2  0  0  0  0  0  0  0  0  0
   -2.6250   14.6880    1.2860 N   0  0  0  0  0  0  0  0  0  0  0  0
   -3.1020   13.6310   -2.2810 C   0  0  0  0  0  0  0  0  0  0  0  0
   -5.4820   15.2350   -2.7520 C   0  0  0  0  0  0  0  0  0  0  0  0
   -1.2590   14.9310    0.8760 C   0  0  1  0  0  0  0  0  0  0  0  0
   -2.2630   15.6470   -1.1390 C   0  0  0  0  0  0  0  0  0  0  0  0
   -0.3940   13.8970    1.3530 N   0  0  0  0  0  0  0  0  0  0  0  0
   -3.6720   13.8190   -3.7110 C   0  0  1  0  0  0  0  0  0  0  0  0
   -4.9900   14.5320   -3.7640 C   0  0  0  0  0  0  0  0  0  0  0  0
   -1.1070   15.0160   -0.5230 N   0  0  0  0  0  0  0  0  0  0  0  0
   -2.5130   14.4870   -4.9820 S   0  0  0  0  0  0  0  0  0  0  0  0
   -1.5380   15.6130   -4.2130 N   0  0  0  0  0  0  0  0  0  0  0  0
   -1.6030   13.4290   -5.3540 O   0  0  0  0  0  0  0  0  0  0  0  0
   -3.2230   15.2420   -5.9920 O   0  0  0  0  0  0  0  0  0  0  0  0
  1  2  1  0
  1  3  1  0
  1  4  1  0
  3  5  2  0
  3  6  1  0
  4  7  1  0
  6  7  1  0
  4  8  1  1
  7  9  1  6
  6 10  1  6
  8 11  1  0
  7 12  1  0
 11 13  1  6
  9 14  1  0
 10 15  2  0
 14 15  1  0
 11 16  1  0
 12 16  1  0
 14 17  1  6
 17 18  1  0
 17 19  2  0
 17 20  2  0
M  END
