diamond-x0967_0_A-mac-x0411
     RDKit          3D

 25 27  0  0  0  0  0  0  0  0999 V2000
    0.5850    8.9620   -7.7040 Cl  0  0  0  0  0  0  0  0  0  0  0  0
   -0.6890    9.6460   -6.7500 C   0  0  0  0  0  0  0  0  0  0  0  0
   -0.5640   10.8890   -6.0740 C   0  0  0  0  0  0  0  0  0  0  0  0
   -1.8660    8.9140   -6.6740 C   0  0  0  0  0  0  0  0  0  0  0  0
    0.6400   11.5660   -6.1840 O   0  0  0  0  0  0  0  0  0  0  0  0
   -1.6610   11.4030   -5.3180 C   0  0  0  0  0  0  0  0  0  0  0  0
   -2.9370    9.3990   -5.9380 C   0  0  0  0  0  0  0  0  0  0  0  0
   -1.6490   12.7400   -4.5600 C   0  0  0  0  0  0  0  0  0  0  0  0
    0.9490   12.5290   -5.1620 C   0  0  0  0  0  0  0  0  0  0  0  0
   -2.8360   10.6250   -5.2730 C   0  0  0  0  0  0  0  0  0  0  0  0
    0.8630   11.9280   -3.7640 C   0  0  0  0  0  0  0  0  0  0  0  0
   -2.9270   13.1330   -3.7660 C   0  0  0  0  0  0  0  0  0  0  0  0
    1.3650   12.7530   -2.8150 O   0  0  0  0  0  0  0  0  0  0  0  0
    0.4140   10.8430   -3.4340 O   0  0  0  0  0  0  0  0  0  0  0  0
   -2.9100   14.5400   -3.1000 C   0  0  0  0  0  0  0  0  0  0  0  0
   -3.6820   14.6610   -1.7910 C   0  0  0  0  0  0  0  0  0  0  0  0
   -5.0270   14.4980   -1.8530 N   0  0  0  0  0  0  0  0  0  0  0  0
   -3.0250   14.9220   -0.5890 C   0  0  0  0  0  0  0  0  0  0  0  0
   -5.7640   14.5760   -0.7420 C   0  0  0  0  0  0  0  0  0  0  0  0
   -3.7790   15.0110    0.5750 C   0  0  0  0  0  0  0  0  0  0  0  0
   -7.0850   14.4000   -0.8450 N   0  0  0  0  0  0  0  0  0  0  0  0
   -5.1650   14.8330    0.5040 C   0  0  0  0  0  0  0  0  0  0  0  0
   -5.9830   14.9010    1.6390 C   0  0  0  0  0  0  0  0  0  0  0  0
   -7.8500   14.4640    0.2680 C   0  0  0  0  0  0  0  0  0  0  0  0
   -7.3490   14.7090    1.5260 C   0  0  0  0  0  0  0  0  0  0  0  0
  1  2  1  0
  2  3  2  0
  2  4  1  0
  3  5  1  0
  3  6  1  0
  4  7  2  0
  6  8  1  0
  5  9  1  0
  6 10  2  0
  7 10  1  0
  9 11  1  0
  8 12  1  0
 11 13  1  0
 11 14  2  0
 12 15  1  0
 15 16  1  0
 16 17  2  0
 16 18  1  0
 17 19  1  0
 18 20  2  0
 19 21  2  0
 19 22  1  0
 20 22  1  0
 22 23  2  0
 21 24  1  0
 23 25  1  0
 24 25  2  0
M  END
