diamond-x0290_0_A-mac-x0180
     RDKit          3D

 20 21  0  0  0  0  0  0  0  0999 V2000
   -7.2630   14.1750   -0.3520 N   0  0  0  0  0  0  0  0  0  0  0  0
   -8.4250   14.5910    0.4230 C   0  0  0  0  0  0  0  0  0  0  0  0
   -6.1570   15.1290   -0.1290 C   0  0  0  0  0  0  0  0  0  0  0  0
   -4.7060   14.5930   -0.3440 C   0  0  2  0  0  0  0  0  0  0  0  0
   -4.8250   13.3690   -1.0460 O   0  0  0  0  0  0  0  0  0  0  0  0
   -4.2840   14.4890    1.0190 N   0  0  0  0  0  0  0  0  0  0  0  0
   -3.5740   15.6080   -0.8620 C   0  0  1  0  0  0  0  0  0  0  0  0
   -3.1400   13.7200    1.1860 C   0  0  2  0  0  0  0  0  0  0  0  0
   -2.8790   16.0430    0.4160 C   0  0  0  0  0  0  0  0  0  0  0  0
   -2.2460   15.4140   -1.7870 C   0  0  2  0  0  0  0  0  0  0  0  0
   -1.6130   14.1940   -2.4590 C   0  0  0  0  0  0  0  0  0  0  0  0
   -1.8810   14.3280    1.6210 N   0  0  0  0  0  0  0  0  0  0  0  0
   -2.8630   13.1880   -0.2150 C   0  0  0  0  0  0  0  0  0  0  0  0
   -1.0230   15.8700   -0.9900 C   0  0  0  0  0  0  0  0  0  0  0  0
   -1.5510   16.1450    0.3360 C   0  0  0  0  0  0  0  0  0  0  0  0
   -2.5120   13.5830   -3.3780 O   0  0  0  0  0  0  0  0  0  0  0  0
   -0.5850   14.6630   -3.3040 O   0  0  0  0  0  0  0  0  0  0  0  0
   -0.6500   14.1490    0.9980 C   0  0  0  0  0  0  0  0  0  0  0  0
   -1.1070   13.1680   -1.3960 C   0  0  0  0  0  0  0  0  0  0  0  0
   -0.2700   13.6860   -0.2210 C   0  0  0  0  0  0  0  0  0  0  0  0
  1  2  1  0
  1  3  1  0
  3  4  1  0
  4  5  1  6
  4  6  1  0
  4  7  1  0
  6  8  1  0
  7  9  1  1
  7 10  1  0
 10 11  1  0
  8 12  1  0
  8 13  1  6
 10 14  1  1
  9 15  2  0
 14 15  1  0
 11 16  1  0
 11 17  1  0
 12 18  1  0
 11 19  1  0
 18 20  2  0
 19 20  1  0
M  END
