diamond-x0592_0_A-diamond-x0727_0_A
     RDKit          3D

 27 28  0  0  0  0  0  0  0  0999 V2000
   -2.9060   14.7170    1.4520 N   0  0  0  0  0  0  0  0  0  0  0  0
   -3.2660   14.7410    0.1260 C   0  0  0  0  0  0  0  0  0  0  0  0
   -2.3640   14.6910   -0.7820 N   0  0  0  0  0  0  0  0  0  0  0  0
   -4.6900   14.8130   -0.0760 C   0  0  0  0  0  0  0  0  0  0  0  0
   -0.9610   14.6030   -0.3960 C   0  0  0  0  0  0  0  0  0  0  0  0
   -5.4340   15.1870   -1.2270 C   0  0  0  0  0  0  0  0  0  0  0  0
   -5.6530   14.5160    0.8510 C   0  0  0  0  0  0  0  0  0  0  0  0
   -0.0940   14.4830   -1.6490 C   0  0  0  0  0  0  0  0  0  0  0  0
   -6.7560   15.1230   -1.0240 N   0  0  0  0  0  0  0  0  0  0  0  0
   -6.8580   14.7100    0.2580 N   0  0  0  0  0  0  0  0  0  0  0  0
   -8.1480   14.5160    0.8830 C   0  0  0  0  0  0  0  0  0  0  0  0
    1.0660   13.5430   -1.3730 C   0  0  0  0  0  0  0  0  0  0  0  0
   -8.0460   14.1320    2.3610 C   0  0  0  0  0  0  0  0  0  0  0  0
    1.6760   13.0400   -2.5640 O   0  0  0  0  0  0  0  0  0  0  0  0
   -7.2470   15.0650    3.0890 O   0  0  0  0  0  0  0  0  0  0  0  0
    0.9750   12.1450   -3.3150 C   0  0  0  0  0  0  0  0  0  0  0  0
    1.1040   12.5500   -4.7920 C   0  0  1  0  0  0  0  0  0  0  0  0
    0.3570   11.1720   -2.8820 O   0  0  0  0  0  0  0  0  0  0  0  0
    0.1450   11.8370   -5.6030 N   0  0  0  0  0  0  0  0  0  0  0  0
    0.8830   14.0490   -4.9260 C   0  0  0  0  0  0  0  0  0  0  0  0
    0.4760   11.1320   -6.7120 C   0  0  0  0  0  0  0  0  0  0  0  0
    1.4980   11.3010   -7.3510 O   0  0  0  0  0  0  0  0  0  0  0  0
   -0.5740   10.0990   -7.0300 C   0  0  0  0  0  0  0  0  0  0  0  0
   -1.0610   10.0410   -8.4620 C   0  0  0  0  0  0  0  0  0  0  0  0
   -0.2290    8.6530   -6.7390 C   0  0  0  0  0  0  0  0  0  0  0  0
   -2.0120    8.8440   -8.3900 C   0  0  0  0  0  0  0  0  0  0  0  0
   -1.4830    7.9610   -7.2480 C   0  0  0  0  0  0  0  0  0  0  0  0
  1  2  1  0
  2  3  2  3
  2  4  1  0
  3  5  1  0
  4  6  1  0
  4  7  2  0
  5  8  1  0
  6  9  2  0
  7 10  1  0
  9 10  1  0
 10 11  1  0
  8 12  1  0
 11 13  1  0
 12 14  1  0
 13 15  1  0
 14 16  1  0
 16 17  1  0
 16 18  2  0
 17 19  1  0
 17 20  1  1
 19 21  1  0
 21 22  2  0
 21 23  1  0
 23 24  1  0
 23 25  1  0
 24 26  1  0
 25 27  1  0
 26 27  1  0
M  END
