diamond-x0628_0_A-mac-x0180
     RDKit          3D

 26 27  0  0  0  0  0  0  0  0999 V2000
   -0.8980    8.9220   -7.3390 C   0  0  0  0  0  0  0  0  0  0  0  0
   -0.8710   10.1260   -6.4970 C   0  0  0  0  0  0  0  0  0  0  0  0
   -1.8640   10.4260   -5.6010 N   0  0  0  0  0  0  0  0  0  0  0  0
    0.1240   11.0100   -6.5440 N   0  0  0  0  0  0  0  0  0  0  0  0
   -0.2570   11.9090   -5.6280 N   0  0  0  0  0  0  0  0  0  0  0  0
   -1.4590   11.5570   -5.0600 C   0  0  0  0  0  0  0  0  0  0  0  0
   -2.1710   12.3270   -4.0130 C   0  0  0  0  0  0  0  0  0  0  0  0
    0.5930   13.0560   -5.3750 C   0  0  0  0  0  0  0  0  0  0  0  0
    1.5920   12.8630   -4.2380 C   0  0  0  0  0  0  0  0  0  0  0  0
    1.0280   12.1910   -2.9970 C   0  0  0  0  0  0  0  0  0  0  0  0
    0.5750   11.0510   -2.9850 O   0  0  0  0  0  0  0  0  0  0  0  0
    1.0800   12.9820   -1.8980 O   0  0  0  0  0  0  0  0  0  0  0  0
    1.3380   14.3760   -2.1330 C   0  0  0  0  0  0  0  0  0  0  0  0
    0.1920   15.1780   -1.8410 O   0  0  0  0  0  0  0  0  0  0  0  0
   -0.9100   14.9700   -2.6040 C   0  0  0  0  0  0  0  0  0  0  0  0
   -0.9540   14.8800   -3.8200 O   0  0  0  0  0  0  0  0  0  0  0  0
   -2.1070   14.9110   -1.7220 C   0  0  0  0  0  0  0  0  0  0  0  0
   -2.0010   14.6570   -0.3490 C   0  0  0  0  0  0  0  0  0  0  0  0
   -3.3690   15.1300   -2.2800 C   0  0  0  0  0  0  0  0  0  0  0  0
   -3.1500   14.6240    0.4490 C   0  0  0  0  0  0  0  0  0  0  0  0
   -4.5140   15.0960   -1.4770 C   0  0  0  0  0  0  0  0  0  0  0  0
   -4.4200   14.8430   -0.1080 C   0  0  0  0  0  0  0  0  0  0  0  0
   -5.5080   14.7820    0.7750 N   0  0  0  0  0  0  0  0  0  0  0  0
   -6.8460   14.6730    0.5260 C   0  0  0  0  0  0  0  0  0  0  0  0
   -7.8590   14.4920    1.6100 C   0  0  0  0  0  0  0  0  0  0  0  0
   -7.2070   14.7370   -0.6530 O   0  0  0  0  0  0  0  0  0  0  0  0
  1  2  1  0
  2  3  1  0
  2  4  2  0
  4  5  1  0
  3  6  2  0
  5  6  1  0
  6  7  1  0
  5  8  1  0
  8  9  1  0
  9 10  1  0
 10 11  2  0
 10 12  1  0
 12 13  1  0
 13 14  1  0
 14 15  1  0
 15 16  2  0
 15 17  1  0
 17 18  2  0
 17 19  1  0
 18 20  1  0
 19 21  2  0
 20 22  2  0
 21 22  1  0
 22 23  1  0
 23 24  1  0
 24 25  1  0
 24 26  2  0
M  END
