diamond-x0685_0_A-mac-x0178
     RDKit          3D

 24 25  0  0  0  0  0  0  0  0999 V2000
   -6.0180   14.6550    2.6010 N   0  0  0  0  0  0  0  0  0  0  0  0
   -7.4220   14.8590    2.9450 C   0  0  0  0  0  0  0  0  0  0  0  0
   -8.0910   13.5170    3.1830 C   0  0  0  0  0  0  0  0  0  0  0  0
   -5.5270   14.8190    1.3110 C   0  0  0  0  0  0  0  0  0  0  0  0
   -4.1530   14.9620    1.2020 C   0  0  0  0  0  0  0  0  0  0  0  0
   -6.3400   14.8320    0.2330 N   0  0  0  0  0  0  0  0  0  0  0  0
   -3.5930   15.1200   -0.0500 C   0  0  0  0  0  0  0  0  0  0  0  0
   -5.7740   14.9910   -0.9880 C   0  0  0  0  0  0  0  0  0  0  0  0
   -4.4170   15.1340   -1.1730 C   0  0  0  0  0  0  0  0  0  0  0  0
   -3.7910   15.2860   -2.4310 C   0  0  0  0  0  0  0  0  0  0  0  0
   -2.9730   15.3190   -3.2860 C   0  0  0  0  0  0  0  0  0  0  0  0
   -1.6810   15.2370   -3.8490 C   0  0  0  0  0  0  0  0  0  0  0  0
   -1.0180   16.0490   -4.7890 C   0  0  0  0  0  0  0  0  0  0  0  0
   -1.0360   14.1510   -3.2790 C   0  0  0  0  0  0  0  0  0  0  0  0
   -1.7160   17.4670   -5.6190 S   0  0  0  0  0  0  0  0  0  0  0  0
    0.3140   15.7270   -5.0990 C   0  0  0  0  0  0  0  0  0  0  0  0
    0.2580   13.8430   -3.5920 C   0  0  0  0  0  0  0  0  0  0  0  0
   -0.3770   18.1670   -6.3520 N   0  0  0  0  0  0  0  0  0  0  0  0
   -2.6150   17.0360   -6.6600 O   0  0  0  0  0  0  0  0  0  0  0  0
   -2.1100   18.4530   -4.6510 O   0  0  0  0  0  0  0  0  0  0  0  0
    0.9000   12.6840   -2.9540 C   0  0  0  0  0  0  0  0  0  0  0  0
    0.9480   14.6300   -4.5000 C   0  0  0  0  0  0  0  0  0  0  0  0
    1.6560   12.7910   -2.0130 O   0  0  0  0  0  0  0  0  0  0  0  0
    0.5390   11.5210   -3.5220 O   0  0  0  0  0  0  0  0  0  0  0  0
  1  2  1  0
  2  3  1  0
  1  4  1  0
  4  5  2  0
  4  6  1  0
  5  7  1  0
  6  8  2  0
  7  9  2  0
  8  9  1  0
  9 10  1  0
 10 11  3  0
 11 12  1  0
 12 13  2  0
 12 14  1  0
 13 15  1  0
 13 16  1  0
 14 17  2  0
 15 18  1  0
 15 19  2  0
 15 20  2  0
 17 21  1  0
 16 22  2  0
 17 22  1  0
 21 23  2  0
 21 24  1  0
M  END
