diamond-x0722_0_A-mac-x1493
     RDKit          3D

 24 26  0  0  0  0  0  0  0  0999 V2000
   -4.5790   15.5760    1.9950 C   0  0  0  0  0  0  0  0  0  0  0  0
   -3.4270   15.1930    1.1950 C   0  0  0  0  0  0  0  0  0  0  0  0
   -2.2990   14.8480    1.7880 N   0  0  0  0  0  0  0  0  0  0  0  0
   -3.3450   15.1340   -0.2130 C   0  0  0  0  0  0  0  0  0  0  0  0
   -4.4190   15.4630   -1.2190 C   0  0  0  0  0  0  0  0  0  0  0  0
   -2.0340   14.6920   -0.4400 C   0  0  0  0  0  0  0  0  0  0  0  0
   -1.4660   14.5510    0.7990 N   0  0  0  0  0  0  0  0  0  0  0  0
   -0.1400   14.1350    1.1460 C   0  0  0  0  0  0  0  0  0  0  0  0
   -1.3090   14.3990   -1.7190 C   0  0  0  0  0  0  0  0  0  0  0  0
   -5.8730   15.4110   -0.7430 C   0  0  0  0  0  0  0  0  0  0  0  0
   -6.8120   15.7800   -1.4410 O   0  0  0  0  0  0  0  0  0  0  0  0
   -6.1230   14.9140    0.5000 N   0  0  0  0  0  0  0  0  0  0  0  0
   -2.2960   13.6470   -2.5790 C   0  0  0  0  0  0  0  0  0  0  0  0
   -2.0380   13.2830   -3.7280 O   0  0  0  0  0  0  0  0  0  0  0  0
   -3.6210   13.3820   -1.9690 C   0  0  0  0  0  0  0  0  0  0  0  0
   -3.6680   13.2080   -0.5780 C   0  0  0  0  0  0  0  0  0  0  0  0
   -4.8210   13.3080   -2.6580 C   0  0  0  0  0  0  0  0  0  0  0  0
   -4.8810   12.9920    0.0740 C   0  0  0  0  0  0  0  0  0  0  0  0
   -6.0230   13.0880   -2.0560 N   0  0  0  0  0  0  0  0  0  0  0  0
   -6.0510   12.9400   -0.7120 C   0  0  0  0  0  0  0  0  0  0  0  0
   -4.9500   12.8380    1.4730 C   0  0  0  0  0  0  0  0  0  0  0  0
   -7.2580   12.7350   -0.0620 C   0  0  0  0  0  0  0  0  0  0  0  0
   -6.1730   12.6360    2.0940 C   0  0  0  0  0  0  0  0  0  0  0  0
   -7.3330   12.5840    1.3280 C   0  0  0  0  0  0  0  0  0  0  0  0
  1  2  1  0
  2  3  2  0
  2  4  1  0
  4  5  1  0
  4  6  2  0
  3  7  1  0
  6  7  1  0
  7  8  1  0
  6  9  1  0
  5 10  1  0
 10 11  2  0
 10 12  1  0
  9 13  1  0
 13 14  2  0
 13 15  1  0
 15 16  2  0
 15 17  1  0
 16 18  1  0
 17 19  2  0
 18 20  2  0
 19 20  1  0
 18 21  1  0
 20 22  1  0
 21 23  2  0
 22 24  2  0
 23 24  1  0
M  END
