diamond-x1012_0_A-mac-x0231
     RDKit          3D

 23 25  0  0  0  0  0  0  0  0999 V2000
    0.0250   17.4960   -4.3810 N   0  0  0  0  0  0  0  0  0  0  0  0
   -1.2850   17.5170   -4.1790 C   0  0  0  0  0  0  0  0  0  0  0  0
   -2.0870   18.2840   -4.6840 O   0  0  0  0  0  0  0  0  0  0  0  0
    0.3150   16.3360   -4.8090 C   0  0  0  0  0  0  0  0  0  0  0  0
   -1.6130   16.4960   -3.2770 N   0  0  0  0  0  0  0  0  0  0  0  0
   -0.6780   15.2720   -5.1140 C   0  0  0  0  0  0  0  0  0  0  0  0
    1.6150   15.9870   -4.9920 N   0  0  0  0  0  0  0  0  0  0  0  0
   -2.6050   15.4480   -3.5110 C   0  0  0  0  0  0  0  0  0  0  0  0
   -0.5720   16.1690   -2.3080 C   0  0  0  0  0  0  0  0  0  0  0  0
   -0.2080   13.9730   -5.0210 C   0  0  0  0  0  0  0  0  0  0  0  0
    2.0760   14.7740   -4.5770 N   0  0  0  0  0  0  0  0  0  0  0  0
   -2.0210   15.5020   -5.4800 C   0  0  0  0  0  0  0  0  0  0  0  0
   -2.3810   14.2260   -2.6200 C   0  0  0  0  0  0  0  0  0  0  0  0
    0.0790   14.8110   -2.4850 C   0  0  0  0  0  0  0  0  0  0  0  0
    1.2080   13.8080   -4.6000 C   0  0  0  0  0  0  0  0  0  0  0  0
   -2.8730   14.4300   -5.7600 C   0  0  0  0  0  0  0  0  0  0  0  0
   -1.0640   12.8960   -5.3050 C   0  0  0  0  0  0  0  0  0  0  0  0
    1.6600   12.4650   -4.1400 C   0  0  0  0  0  0  0  0  0  0  0  0
   -0.9490   13.6900   -2.6240 C   0  0  0  0  0  0  0  0  0  0  0  0
   -2.3910   13.1280   -5.6740 C   0  0  0  0  0  0  0  0  0  0  0  0
    1.0630   12.1000   -2.8100 C   0  0  0  0  0  0  0  0  0  0  0  0
    0.2610   11.0170   -2.8790 O   0  0  0  0  0  0  0  0  0  0  0  0
    1.2260   12.6640   -1.7470 O   0  0  0  0  0  0  0  0  0  0  0  0
  1  2  1  0
  2  3  2  0
  1  4  2  3
  2  5  1  0
  4  6  1  0
  4  7  1  0
  5  8  1  0
  5  9  1  0
  6 10  2  0
  7 11  1  0
  6 12  1  0
  8 13  1  0
  9 14  1  0
 10 15  1  0
 11 15  2  0
 12 16  2  0
 10 17  1  0
 15 18  1  0
 13 19  1  0
 14 19  1  0
 16 20  1  0
 17 20  2  0
 18 21  1  0
 21 22  1  0
 21 23  2  0
M  END
