diamond-x0685_0_A-diamond-x1012_0_A
     RDKit          3D

 24 25  0  0  0  0  0  0  0  0999 V2000
   -5.9470   14.5910    2.6210 N   0  0  0  0  0  0  0  0  0  0  0  0
   -7.3630   14.8190    2.8930 C   0  0  0  0  0  0  0  0  0  0  0  0
   -8.0570   13.4980    3.1810 C   0  0  0  0  0  0  0  0  0  0  0  0
   -5.4100   14.7770    1.3550 C   0  0  0  0  0  0  0  0  0  0  0  0
   -4.0210   14.9110    1.2580 C   0  0  0  0  0  0  0  0  0  0  0  0
   -6.2120   14.8230    0.2870 N   0  0  0  0  0  0  0  0  0  0  0  0
   -3.4450   15.0950    0.0070 C   0  0  0  0  0  0  0  0  0  0  0  0
   -5.6330   15.0060   -0.9120 C   0  0  0  0  0  0  0  0  0  0  0  0
   -4.2740   15.1430   -1.1010 C   0  0  0  0  0  0  0  0  0  0  0  0
   -3.7950   15.3290   -2.4210 C   0  0  0  0  0  0  0  0  0  0  0  0
   -3.4850   15.5400   -3.5520 C   0  0  0  0  0  0  0  0  0  0  0  0
   -3.1790   15.8810   -4.9410 C   0  0  0  0  0  0  0  0  0  0  0  0
   -2.4610   17.1420   -4.8500 N   0  0  0  0  0  0  0  0  0  0  0  0
   -1.2070   17.0060   -4.8500 C   0  0  0  0  0  0  0  0  0  0  0  0
   -0.4800   18.1440   -4.7840 N   0  0  0  0  0  0  0  0  0  0  0  0
   -0.4980   15.8380   -4.9100 N   0  0  0  0  0  0  0  0  0  0  0  0
   -1.1820   14.5530   -5.1210 C   0  0  0  0  0  0  0  0  0  0  0  0
    0.8920   15.7480   -4.4680 C   0  0  0  0  0  0  0  0  0  0  0  0
   -1.1500   13.7220   -3.8550 C   0  0  0  0  0  0  0  0  0  0  0  0
    1.0720   14.7310   -3.3240 C   0  0  0  0  0  0  0  0  0  0  0  0
    0.2970   13.4050   -3.5270 C   0  0  0  0  0  0  0  0  0  0  0  0
    0.3800   12.4610   -2.3430 C   0  0  0  0  0  0  0  0  0  0  0  0
    0.1380   11.1770   -2.6690 O   0  0  0  0  0  0  0  0  0  0  0  0
    0.6140   12.7550   -1.1850 O   0  0  0  0  0  0  0  0  0  0  0  0
  1  2  1  0
  2  3  1  0
  1  4  1  0
  4  5  2  0
  4  6  1  0
  5  7  1  0
  6  8  2  0
  7  9  2  0
  8  9  1  0
  9 10  1  0
 10 11  3  0
 11 12  1  0
 12 13  1  0
 13 14  2  3
 14 15  1  0
 14 16  1  0
 16 17  1  0
 16 18  1  0
 17 19  1  0
 18 20  1  0
 19 21  1  0
 20 21  1  0
 21 22  1  0
 22 23  1  0
 22 24  2  0
M  END
