diamond-x0159_0_B-mac-x0193
     RDKit          3D

 33 36  0  0  0  0  0  0  0  0999 V2000
    1.6980    9.5410  -10.5640 N   0  0  0  0  0  0  0  0  0  0  0  0
    2.4080    9.7290  -11.6640 C   0  0  0  0  0  0  0  0  0  0  0  0
    2.2790   10.8370  -12.3090 N   0  0  0  0  0  0  0  0  0  0  0  0
    3.2810    8.6960  -12.0660 N   0  0  0  0  0  0  0  0  0  0  0  0
    3.7220    9.4700  -13.1790 C   0  0  0  0  0  0  0  0  0  0  0  0
    3.1150   10.7020  -13.2820 C   0  0  0  0  0  0  0  0  0  0  0  0
    2.7100    8.0630  -10.8890 C   0  0  0  0  0  0  0  0  0  0  0  0
    3.4150   11.6030  -14.3020 C   0  0  0  0  0  0  0  0  0  0  0  0
    4.6810    9.1060  -14.1350 C   0  0  0  0  0  0  0  0  0  0  0  0
    1.1400    8.1080  -10.6190 C   0  0  1  0  0  0  0  0  0  0  0  0
    4.3660   11.2450  -15.2480 C   0  0  0  0  0  0  0  0  0  0  0  0
    4.9890   10.0090  -15.1590 C   0  0  0  0  0  0  0  0  0  0  0  0
    0.9730    8.5900   -9.0990 C   0  0  0  0  0  0  0  0  0  0  0  0
    0.3650    9.0010  -11.6490 C   0  0  0  0  0  0  0  0  0  0  0  0
    0.6250    6.6470  -10.7590 C   0  0  0  0  0  0  0  0  0  0  0  0
    0.4660   10.0320   -8.8120 C   0  0  2  0  0  0  0  0  0  0  0  0
   -0.2000   10.3620  -11.2110 C   0  0  0  0  0  0  0  0  0  0  0  0
   -0.1420    6.0120   -9.6030 C   0  0  0  0  0  0  0  0  0  0  0  0
    0.0590   10.3150   -7.4390 N   0  0  0  0  0  0  0  0  0  0  0  0
   -0.6680   10.3760   -9.7630 C   0  0  0  0  0  0  0  0  0  0  0  0
    0.7460    5.2140   -8.6980 C   0  0  0  0  0  0  0  0  0  0  0  0
    0.6940   11.2870   -6.7010 C   0  0  0  0  0  0  0  0  0  0  0  0
    1.8530    4.5160   -9.2060 C   0  0  0  0  0  0  0  0  0  0  0  0
    0.4740    5.1600   -7.3400 C   0  0  0  0  0  0  0  0  0  0  0  0
   -0.0350   11.7030   -5.6280 N   0  0  0  0  0  0  0  0  0  0  0  0
    1.7910   11.7360   -6.9420 O   0  0  0  0  0  0  0  0  0  0  0  0
    2.6680    3.7740   -8.3640 C   0  0  0  0  0  0  0  0  0  0  0  0
    1.2850    4.4220   -6.5080 C   0  0  0  0  0  0  0  0  0  0  0  0
    0.5580   12.7320   -4.7880 C   0  0  0  0  0  0  0  0  0  0  0  0
    2.3830    3.7270   -7.0080 C   0  0  0  0  0  0  0  0  0  0  0  0
    0.6250   12.2610   -3.3480 C   0  0  0  0  0  0  0  0  0  0  0  0
    0.1930   11.0030   -3.1700 O   0  0  0  0  0  0  0  0  0  0  0  0
    1.0220   12.9180   -2.3980 O   0  0  0  0  0  0  0  0  0  0  0  0
  1  2  1  0
  2  3  2  0
  2  4  1  0
  4  5  1  0
  3  6  1  0
  5  6  2  0
  4  7  1  0
  6  8  1  0
  5  9  1  0
 10  7  1  6
  8 11  2  0
  9 12  2  0
 11 12  1  0
 10 13  1  0
 10 14  1  0
 10 15  1  0
 13 16  1  0
 14 17  1  0
 15 18  1  0
 16 19  1  1
 16 20  1  0
 17 20  1  0
 18 21  1  0
 19 22  1  0
 21 23  2  0
 21 24  1  0
 22 25  1  0
 22 26  2  0
 23 27  1  0
 24 28  2  0
 25 29  1  0
 27 30  2  0
 28 30  1  0
 29 31  1  0
 31 32  1  0
 31 33  2  0
M  END
