diamond-x0950_1_A-diamond-x0844_0_A
     RDKit          3D

 17 17  0  0  0  0  0  0  0  0999 V2000
    1.0680   13.9740   -4.6470 C   0  0  0  0  0  0  0  0  0  0  0  0
    1.2950   12.4840   -4.4440 C   0  0  2  0  0  0  0  0  0  0  0  0
    0.6900   11.7530   -5.5020 O   0  0  0  0  0  0  0  0  0  0  0  0
    0.8870   12.0400   -3.0250 C   0  0  0  0  0  0  0  0  0  0  0  0
    0.1950   11.0530   -2.7890 O   0  0  0  0  0  0  0  0  0  0  0  0
    1.3980   12.8580   -2.0690 O   0  0  0  0  0  0  0  0  0  0  0  0
    0.4420   13.5870   -1.2780 C   0  0  0  0  0  0  0  0  0  0  0  0
   -1.0230   13.3830   -1.6960 C   0  0  0  0  0  0  0  0  0  0  0  0
   -1.7210   14.7280   -1.7290 C   0  0  0  0  0  0  0  0  0  0  0  0
   -3.1010   14.6690   -2.1150 O   0  0  0  0  0  0  0  0  0  0  0  0
   -4.0260   14.4450   -1.0310 C   0  0  1  0  0  0  0  0  0  0  0  0
   -3.5040   15.0210    0.2470 C   0  0  0  0  0  0  0  0  0  0  0  0
   -5.3990   15.0340   -1.3340 C   0  0  0  0  0  0  0  0  0  0  0  0
   -4.3480   15.2060    1.2590 C   0  0  0  0  0  0  0  0  0  0  0  0
   -6.3000   14.9040   -0.1260 C   0  0  0  0  0  0  0  0  0  0  0  0
   -7.5280   14.8300   -0.2070 O   0  0  0  0  0  0  0  0  0  0  0  0
   -5.6630   14.8650    1.0940 N   0  0  0  0  0  0  0  0  0  0  0  0
  2  1  1  6
  2  3  1  0
  2  4  1  0
  4  5  2  0
  4  6  1  0
  6  7  1  0
  7  8  1  0
  8  9  1  0
  9 10  1  0
 11 10  1  6
 11 12  1  0
 11 13  1  0
 12 14  2  0
 13 15  1  0
 15 16  2  0
 14 17  1  0
 15 17  1  0
M  END
