diamond-x0950_1_A-mac-x0412
     RDKit          3D

 20 21  0  0  0  0  0  0  0  0999 V2000
    1.0520   14.0080   -4.7090 C   0  0  0  0  0  0  0  0  0  0  0  0
    1.3500   12.5370   -4.4790 C   0  0  2  0  0  0  0  0  0  0  0  0
    0.6400   11.7630   -5.4480 O   0  0  0  0  0  0  0  0  0  0  0  0
    0.9800   12.0920   -3.0570 C   0  0  0  0  0  0  0  0  0  0  0  0
    0.2310   11.1490   -2.8140 O   0  0  0  0  0  0  0  0  0  0  0  0
    1.6010   12.8650   -2.1280 O   0  0  0  0  0  0  0  0  0  0  0  0
    0.8580   13.9620   -1.5740 C   0  0  0  0  0  0  0  0  0  0  0  0
   -0.6170   13.5810   -1.4450 C   0  0  0  0  0  0  0  0  0  0  0  0
   -1.5660   14.4780   -2.2590 C   0  0  0  0  0  0  0  0  0  0  0  0
   -2.9230   14.7040   -1.6290 C   0  0  0  0  0  0  0  0  0  0  0  0
   -3.0760   14.7690   -0.2980 C   0  0  0  0  0  0  0  0  0  0  0  0
   -4.0870   14.8230   -2.5050 C   0  0  0  0  0  0  0  0  0  0  0  0
   -4.3800   14.9220    0.3110 C   0  0  0  0  0  0  0  0  0  0  0  0
   -5.2970   15.1490   -2.0180 C   0  0  0  0  0  0  0  0  0  0  0  0
   -5.5260   15.4190   -0.5520 C   0  0  1  0  0  0  0  0  0  0  0  0
   -4.5620   14.6030    1.5860 C   0  0  0  0  0  0  0  0  0  0  0  0
   -6.8700   14.8670    0.0170 C   0  0  0  0  0  0  0  0  0  0  0  0
   -5.9330   14.7380    2.1070 C   0  0  0  0  0  0  0  0  0  0  0  0
   -7.7880   14.4890   -0.7070 O   0  0  0  0  0  0  0  0  0  0  0  0
   -7.0050   14.8410    1.4000 N   0  0  0  0  0  0  0  0  0  0  0  0
  2  1  1  1
  2  3  1  0
  2  4  1  0
  4  5  2  0
  4  6  1  0
  6  7  1  0
  7  8  1  0
  8  9  1  0
  9 10  1  0
 10 11  2  0
 10 12  1  0
 11 13  1  0
 12 14  2  0
 13 15  1  0
 15 14  1  6
 13 16  2  0
 15 17  1  0
 16 18  1  0
 17 19  2  0
 17 20  1  0
 18 20  2  0
M  END
