diamond-x1018_0_A-mac-x0180
     RDKit          3D

 15 16  0  0  0  0  0  0  0  0999 V2000
   -6.7960   14.2520   -0.1730 N   0  0  0  0  0  0  0  0  0  0  0  0
   -6.3850   15.3830   -0.7000 C   0  0  0  0  0  0  0  0  0  0  0  0
   -7.1450   16.0110   -1.4120 O   0  0  0  0  0  0  0  0  0  0  0  0
   -5.8220   13.3600    0.3530 C   0  0  1  0  0  0  0  0  0  0  0  0
   -5.1080   15.8160   -0.4070 N   0  0  0  0  0  0  0  0  0  0  0  0
   -4.5290   13.5220   -0.4250 N   0  0  0  0  0  0  0  0  0  0  0  0
   -5.4090   13.8490    1.7720 C   0  0  0  0  0  0  0  0  0  0  0  0
   -3.9610   15.9250   -1.2530 N   0  0  0  0  0  0  0  0  0  0  0  0
   -4.3850   13.6920   -1.8250 N   0  0  0  0  0  0  0  0  0  0  0  0
   -3.6260   14.2300    0.3300 C   0  0  0  0  0  0  0  0  0  0  0  0
   -4.0520   14.4630    1.5590 C   0  0  0  0  0  0  0  0  0  0  0  0
   -3.5880   14.8280   -2.0390 N   0  0  0  0  0  0  0  0  0  0  0  0
   -2.2750   14.8080   -2.6470 C   0  0  0  0  0  0  0  0  0  0  0  0
   -2.0500   14.8750   -3.8570 O   0  0  0  0  0  0  0  0  0  0  0  0
   -1.2500   14.7280   -1.7530 O   0  0  0  0  0  0  0  0  0  0  0  0
  1  2  1  0
  2  3  2  0
  1  4  1  0
  2  5  1  0
  4  6  1  0
  4  7  1  1
  5  8  1  0
  6  9  1  0
  6 10  1  0
  7 11  1  0
 10 11  2  0
  8 12  1  0
  9 12  1  0
 12 13  1  0
 13 14  2  0
 13 15  1  0
M  END
