diamond-x0950_1_A-mac-x0326
     RDKit          3D

 16 17  0  0  0  0  0  0  0  0999 V2000
    0.7820   14.1700   -4.3400 C   0  0  0  0  0  0  0  0  0  0  0  0
    1.2520   12.7080   -4.3770 C   0  0  2  0  0  0  0  0  0  0  0  0
    0.5740   11.9940   -5.4250 O   0  0  0  0  0  0  0  0  0  0  0  0
   -0.3540   14.4120   -3.3580 C   0  0  0  0  0  0  0  0  0  0  0  0
    0.9710   12.0180   -3.0490 C   0  0  0  0  0  0  0  0  0  0  0  0
   -1.6040   14.6250   -3.7210 N   0  0  0  0  0  0  0  0  0  0  0  0
   -0.0910   14.4220   -1.6510 S   0  0  0  0  0  0  0  0  0  0  0  0
    0.3680   10.9800   -2.8460 O   0  0  0  0  0  0  0  0  0  0  0  0
    1.5070   12.7210   -2.0230 O   0  0  0  0  0  0  0  0  0  0  0  0
   -2.4190   14.7970   -2.6090 C   0  0  0  0  0  0  0  0  0  0  0  0
   -1.7700   14.7160   -1.3740 C   0  0  0  0  0  0  0  0  0  0  0  0
   -3.8070   15.0370   -2.6340 C   0  0  0  0  0  0  0  0  0  0  0  0
   -2.4640   14.8650   -0.1550 C   0  0  0  0  0  0  0  0  0  0  0  0
   -4.4970   15.1860   -1.4300 C   0  0  0  0  0  0  0  0  0  0  0  0
   -3.8400   15.1030   -0.2060 C   0  0  0  0  0  0  0  0  0  0  0  0
   -6.1930   15.4720   -1.4540 Cl  0  0  0  0  0  0  0  0  0  0  0  0
  1  2  1  0
  2  3  1  6
  1  4  1  0
  2  5  1  0
  4  6  2  0
  4  7  1  0
  5  8  2  0
  5  9  1  0
  6 10  1  0
  7 11  1  0
 10 11  2  0
 10 12  1  0
 11 13  1  0
 12 14  2  0
 13 15  2  0
 14 15  1  0
 14 16  1  0
M  END
