diamond-x0662_0_A-diamond-x0689_0_A
     RDKit          3D

 29 31  0  0  0  0  0  0  0  0999 V2000
    5.2690    9.5510  -14.9560 C   0  0  0  0  0  0  0  0  0  0  0  0
    4.2240   10.0200  -14.0770 N   0  0  0  0  0  0  0  0  0  0  0  0
    3.5560   11.2070  -14.1440 C   0  0  0  0  0  0  0  0  0  0  0  0
    3.8290    9.2390  -13.0580 N   0  0  0  0  0  0  0  0  0  0  0  0
    2.6660   11.2030  -13.0950 C   0  0  0  0  0  0  0  0  0  0  0  0
    2.8630    9.9570  -12.4360 C   0  0  0  0  0  0  0  0  0  0  0  0
    2.1760    9.4230  -11.2260 C   0  0  0  0  0  0  0  0  0  0  0  0
    2.2590    8.2340  -10.9580 O   0  0  0  0  0  0  0  0  0  0  0  0
    1.4990   10.3890  -10.4870 N   0  0  0  0  0  0  0  0  0  0  0  0
    0.7090   10.2080   -9.3180 C   0  0  0  0  0  0  0  0  0  0  0  0
   -0.2920    9.2330   -9.4030 C   0  0  0  0  0  0  0  0  0  0  0  0
    0.8520   10.9180   -8.1070 C   0  0  0  0  0  0  0  0  0  0  0  0
   -1.1310    8.9670   -8.3170 C   0  0  0  0  0  0  0  0  0  0  0  0
    0.0080   10.6550   -7.0110 C   0  0  0  0  0  0  0  0  0  0  0  0
    0.1490   11.4030   -5.7020 C   0  0  0  0  0  0  0  0  0  0  0  0
   -0.9850    9.6730   -7.1240 C   0  0  0  0  0  0  0  0  0  0  0  0
   -0.6410   11.2280   -4.6860 N   0  0  0  0  0  0  0  0  0  0  0  0
    1.1380   12.1510   -5.8010 O   0  0  0  0  0  0  0  0  0  0  0  0
   -0.5580   11.8610   -3.3570 C   0  0  0  0  0  0  0  0  0  0  0  0
   -0.2930   13.3790   -3.3770 C   0  0  0  0  0  0  0  0  0  0  0  0
   -1.2520   14.2560   -2.5170 C   0  0  0  0  0  0  0  0  0  0  0  0
   -1.2250   14.3230   -0.9860 C   0  0  0  0  0  0  0  0  0  0  0  0
   -2.4050   14.6950   -0.3990 N   0  0  0  0  0  0  0  0  0  0  0  0
   -0.1290   14.0410   -0.2000 C   0  0  0  0  0  0  0  0  0  0  0  0
   -2.4610   14.7710    0.9480 C   0  0  0  0  0  0  0  0  0  0  0  0
   -0.3070   14.1450    1.1620 C   0  0  0  0  0  0  0  0  0  0  0  0
   -3.6820   15.1740    1.5000 N   0  0  0  0  0  0  0  0  0  0  0  0
   -1.4460   14.4970    1.7540 N   0  0  0  0  0  0  0  0  0  0  0  0
   -4.7350   15.2540    0.5190 C   0  0  0  0  0  0  0  0  0  0  0  0
  1  2  1  0
  2  3  1  0
  2  4  1  0
  3  5  2  0
  4  6  2  0
  5  6  1  0
  6  7  1  0
  7  8  2  0
  7  9  1  0
  9 10  1  0
 10 11  2  0
 10 12  1  0
 11 13  1  0
 12 14  2  0
 14 15  1  0
 13 16  2  0
 14 16  1  0
 15 17  2  3
 15 18  1  0
 17 19  1  0
 19 20  1  0
 20 21  1  0
 21 22  1  0
 22 23  2  0
 22 24  1  0
 23 25  1  0
 24 26  2  0
 25 27  1  0
 25 28  2  0
 26 28  1  0
 27 29  1  0
M  CHG  1  18  -1
M  END
