diamond-x0844_0_A-diamond-x0805_0_A
     RDKit          3D

 24 26  0  0  0  0  0  0  0  0999 V2000
   -7.9310   14.5320    0.4820 O   0  0  0  0  0  0  0  0  0  0  0  0
   -6.7490   14.8100    0.3340 C   0  0  0  0  0  0  0  0  0  0  0  0
   -5.9290   14.9770    1.4490 N   0  0  0  0  0  0  0  0  0  0  0  0
   -6.1830   15.0010   -1.0580 C   0  0  0  0  0  0  0  0  0  0  0  0
   -4.5340   15.3830    1.3670 C   0  0  0  0  0  0  0  0  0  0  0  0
   -4.7610   15.4530   -0.9910 C   0  0  2  0  0  0  0  0  0  0  0  0
   -3.8910   15.2390   -2.7370 Br  0  0  0  0  0  0  0  0  0  0  0  0
   -4.0540   14.7230    0.1400 C   0  0  1  0  0  0  0  0  0  0  0  0
   -2.7000   14.7750   -0.1280 O   0  0  0  0  0  0  0  0  0  0  0  0
   -2.6720   14.0980   -1.2710 C   0  0  0  0  0  0  0  0  0  0  0  0
   -3.6780   13.2070   -1.6590 C   0  0  0  0  0  0  0  0  0  0  0  0
   -1.5920   14.3300   -2.0750 C   0  0  0  0  0  0  0  0  0  0  0  0
   -3.5940   12.5480   -2.8730 C   0  0  0  0  0  0  0  0  0  0  0  0
   -1.4910   13.6770   -3.2930 C   0  0  0  0  0  0  0  0  0  0  0  0
   -2.4980   12.7860   -3.6900 C   0  0  0  0  0  0  0  0  0  0  0  0
   -0.3160   13.9110   -4.1770 C   0  0  2  0  0  0  0  0  0  0  0  0
    0.6920   12.7520   -4.1010 C   0  0  2  0  0  0  0  0  0  0  0  0
    0.2750   15.2810   -3.8270 C   0  0  0  0  0  0  0  0  0  0  0  0
    0.6320   12.0490   -2.7530 C   0  0  0  0  0  0  0  0  0  0  0  0
    2.1050   13.1330   -4.5080 C   0  0  0  0  0  0  0  0  0  0  0  0
    1.7030   15.4610   -4.2380 C   0  0  0  0  0  0  0  0  0  0  0  0
    0.4560   10.7190   -2.8710 O   0  0  0  0  0  0  0  0  0  0  0  0
    0.7170   12.5470   -1.6310 O   0  0  0  0  0  0  0  0  0  0  0  0
    2.5030   14.3410   -3.8720 O   0  0  0  0  0  0  0  0  0  0  0  0
  1  2  2  0
  2  3  1  0
  2  4  1  0
  3  5  1  0
  4  6  1  0
  6  7  1  6
  5  8  1  0
  6  8  1  0
  8  9  1  6
  9 10  1  0
 10 11  2  0
 10 12  1  0
 11 13  1  0
 12 14  2  0
 13 15  2  0
 14 15  1  0
 16 14  1  1
 16 17  1  0
 16 18  1  0
 17 19  1  1
 17 20  1  0
 18 21  1  0
 19 22  1  0
 19 23  2  0
 20 24  1  0
 21 24  1  0
M  END
