diamond-x0724_0_A-diamond-x0574_0_A
     RDKit          3D

 20 23  0  0  0  0  0  0  0  0999 V2000
   -7.2350   14.8670    3.7000 N   0  0  0  0  0  0  0  0  0  0  0  0
   -8.4170   14.3180    4.3710 C   0  0  0  0  0  0  0  0  0  0  0  0
   -6.8700   14.1720    2.4370 C   0  0  2  0  0  0  0  0  0  0  0  0
   -5.4650   14.3070    1.9460 O   0  0  0  0  0  0  0  0  0  0  0  0
   -7.8920   14.2660    1.2710 C   0  0  2  0  0  0  0  0  0  0  0  0
   -7.3650   14.1240   -0.1410 N   0  0  0  0  0  0  0  0  0  0  0  0
   -8.8070   15.4480    1.1980 C   0  0  0  0  0  0  0  0  0  0  0  0
   -5.0910   14.9620    0.6580 C   0  0  1  0  0  0  0  0  0  0  0  0
   -8.4510   14.6970   -0.8860 N   0  0  0  0  0  0  0  0  0  0  0  0
   -3.5580   14.9280    0.1690 C   0  0  2  0  0  0  0  0  0  0  0  0
   -6.1460   14.9050   -0.4810 C   0  0  1  0  0  0  0  0  0  0  0  0
   -9.0820   15.6280   -0.0930 C   0  0  0  0  0  0  0  0  0  0  0  0
   -3.3190   15.2210   -1.2830 C   0  0  0  0  0  0  0  0  0  0  0  0
   -5.5680   14.4630   -1.8410 C   0  0  0  0  0  0  0  0  0  0  0  0
   -2.6050   13.3990    0.2100 S   0  0  0  0  0  0  0  0  0  0  0  0
   -2.7370   15.6760    1.1940 C   0  0  0  0  0  0  0  0  0  0  0  0
   -4.2370   15.0080   -2.2000 C   0  0  0  0  0  0  0  0  0  0  0  0
   -1.2800   15.4300    1.1050 N   0  0  0  0  0  0  0  0  0  0  0  0
   -1.1280   14.0290    1.0260 C   0  0  2  0  0  0  0  0  0  0  0  0
    0.0420   13.8390    0.2310 N   0  0  0  0  0  0  0  0  0  0  0  0
  1  2  1  0
  3  1  1  1
  3  4  1  0
  3  5  1  0
  5  6  1  0
  5  7  1  6
  8  4  1  1
  6  9  1  0
  8 10  1  0
  6 11  1  0
  8 11  1  0
  7 12  2  0
  9 12  1  0
 10 13  1  6
 11 14  1  6
 10 15  1  0
 10 16  1  0
 13 17  2  0
 14 17  1  0
 16 18  1  0
 15 19  1  0
 18 19  1  0
 19 20  1  6
M  END
