diamond-x0465_0_A-diamond-x0253_0_A
     RDKit          3D

 22 23  0  0  0  0  0  0  0  0999 V2000
    1.8780   13.4180   -4.8650 C   0  0  0  0  0  0  0  0  0  0  0  0
    0.6580   12.5570   -4.5430 C   0  0  1  0  0  0  0  0  0  0  0  0
    0.3410   11.5020   -5.5450 N   0  0  0  0  0  0  0  0  0  0  0  0
    0.7370   12.1130   -3.0710 C   0  0  0  0  0  0  0  0  0  0  0  0
    1.0200   12.8450   -2.1350 O   0  0  0  0  0  0  0  0  0  0  0  0
    0.4700   10.8190   -2.8310 O   0  0  0  0  0  0  0  0  0  0  0  0
    1.0680   11.5210   -6.7310 C   0  0  0  0  0  0  0  0  0  0  0  0
   -0.8630   10.7370   -5.5010 C   0  0  0  0  0  0  0  0  0  0  0  0
    2.1240   12.1120   -6.8150 O   0  0  0  0  0  0  0  0  0  0  0  0
   -0.9320    9.4290   -6.0390 C   0  0  0  0  0  0  0  0  0  0  0  0
   -2.0140   11.2680   -4.9280 C   0  0  0  0  0  0  0  0  0  0  0  0
    0.4950   10.7310   -7.8810 C   0  0  0  0  0  0  0  0  0  0  0  0
    0.1190    8.8310   -6.6230 F   0  0  0  0  0  0  0  0  0  0  0  0
   -2.1060    8.6930   -5.9930 C   0  0  0  0  0  0  0  0  0  0  0  0
   -3.1970   10.5230   -4.8900 C   0  0  0  0  0  0  0  0  0  0  0  0
   -0.5580    9.8490   -7.6230 C   0  0  0  0  0  0  0  0  0  0  0  0
    0.9650   10.8350   -9.1940 C   0  0  0  0  0  0  0  0  0  0  0  0
   -3.2400    9.2390   -5.4220 C   0  0  0  0  0  0  0  0  0  0  0  0
   -1.1370    9.0780   -8.6390 C   0  0  0  0  0  0  0  0  0  0  0  0
    0.3960   10.0730  -10.2100 C   0  0  0  0  0  0  0  0  0  0  0  0
   -2.2680    8.1340   -8.3440 C   0  0  0  0  0  0  0  0  0  0  0  0
   -0.6500    9.1980   -9.9330 C   0  0  0  0  0  0  0  0  0  0  0  0
  2  1  1  6
  2  3  1  0
  2  4  1  0
  4  5  2  0
  4  6  1  0
  3  7  1  0
  3  8  1  0
  7  9  2  0
  8 10  2  0
  8 11  1  0
  7 12  1  0
 10 13  1  0
 10 14  1  0
 11 15  2  0
 12 16  2  0
 12 17  1  0
 14 18  2  0
 15 18  1  0
 16 19  1  0
 17 20  2  0
 19 21  1  0
 19 22  2  0
 20 22  1  0
M  END
