diamond-x0962_0_A-diamond-x0864_0_A
     RDKit          3D

 22 23  0  0  0  0  0  0  0  0999 V2000
   -2.7920   15.0330   -2.3320 N   0  0  0  0  0  0  0  0  0  0  0  0
   -2.5540   14.4260   -1.0330 C   0  0  1  0  0  0  0  0  0  0  0  0
   -1.2200   14.8750   -0.3980 C   0  0  0  0  0  0  0  0  0  0  0  0
   -3.6950   14.6960   -0.1250 C   0  0  0  0  0  0  0  0  0  0  0  0
   -0.2560   13.7710   -0.0840 C   0  0  0  0  0  0  0  0  0  0  0  0
   -3.5450   15.0140    1.1990 N   0  0  0  0  0  0  0  0  0  0  0  0
   -5.0600   14.7010   -0.3290 C   0  0  0  0  0  0  0  0  0  0  0  0
    0.6600   13.5460   -1.2760 C   0  0  0  0  0  0  0  0  0  0  0  0
   -4.7860   15.1860    1.7280 C   0  0  0  0  0  0  0  0  0  0  0  0
   -5.7220   15.0000    0.8250 N   0  0  0  0  0  0  0  0  0  0  0  0
    0.5270   12.1400   -1.5590 N   0  0  0  0  0  0  0  0  0  0  0  0
    0.5220   11.6760   -2.7470 C   0  0  0  0  0  0  0  0  0  0  0  0
    0.6370   12.3670   -4.1100 C   0  0  0  0  0  0  0  0  0  0  0  0
    0.3870   10.3350   -2.7490 O   0  0  0  0  0  0  0  0  0  0  0  0
   -0.1440   11.6790   -5.1440 N   0  0  0  0  0  0  0  0  0  0  0  0
   -1.3720   11.1300   -4.8150 C   0  0  0  0  0  0  0  0  0  0  0  0
    0.4930   11.3830   -6.3450 C   0  0  0  0  0  0  0  0  0  0  0  0
    1.4840   11.9620   -6.7660 O   0  0  0  0  0  0  0  0  0  0  0  0
   -1.9210   10.1710   -5.5710 C   0  0  0  0  0  0  0  0  0  0  0  0
   -0.0800   10.2640   -7.1330 C   0  0  0  0  0  0  0  0  0  0  0  0
   -1.2310    9.6970   -6.7460 C   0  0  0  0  0  0  0  0  0  0  0  0
   -1.9990    8.2800   -7.6850 Br  0  0  0  0  0  0  0  0  0  0  0  0
  2  1  1  6
  2  3  1  0
  2  4  1  0
  3  5  1  0
  4  6  1  0
  4  7  2  0
  5  8  1  0
  6  9  1  0
  7 10  1  0
  9 10  2  0
  8 11  1  0
 11 12  2  3
 12 13  1  0
 12 14  1  0
 13 15  1  0
 15 16  1  0
 15 17  1  0
 17 18  2  0
 16 19  2  0
 17 20  1  0
 19 21  1  0
 20 21  2  0
 21 22  1  0
M  END
