diamond-x0967_0_A-diamond-x0290_0_A
     RDKit          3D

 23 25  0  0  0  0  0  0  0  0999 V2000
   -7.2040   12.7380    0.3890 N   0  0  0  0  0  0  0  0  0  0  0  0
   -8.5080   12.4950    0.9960 C   0  0  0  0  0  0  0  0  0  0  0  0
   -6.1180   12.7500    1.4020 C   0  0  0  0  0  0  0  0  0  0  0  0
   -4.7950   13.3330    0.8400 C   0  0  0  0  0  0  0  0  0  0  0  0
   -4.6750   13.8200   -0.3580 N   0  0  0  0  0  0  0  0  0  0  0  0
   -3.6540   13.4130    1.5870 N   0  0  0  0  0  0  0  0  0  0  0  0
   -5.6380   14.0120   -1.3060 N   0  0  0  0  0  0  0  0  0  0  0  0
   -2.4400   13.9080    1.0370 C   0  0  0  0  0  0  0  0  0  0  0  0
   -6.4200   15.0000   -0.5630 C   0  0  1  0  0  0  0  0  0  0  0  0
   -4.8720   14.7400   -2.1720 C   0  0  0  0  0  0  0  0  0  0  0  0
   -1.4030   14.2760    1.8100 N   0  0  0  0  0  0  0  0  0  0  0  0
   -2.3430   13.9890   -0.3600 C   0  0  0  0  0  0  0  0  0  0  0  0
   -7.7380   14.6600    0.0080 N   0  0  0  0  0  0  0  0  0  0  0  0
   -5.2980   15.3280    0.4240 C   0  0  0  0  0  0  0  0  0  0  0  0
   -4.0470   15.6220   -1.5840 C   0  0  0  0  0  0  0  0  0  0  0  0
   -0.2820   14.7080    1.1980 C   0  0  0  0  0  0  0  0  0  0  0  0
   -1.1770   14.4480   -0.9710 C   0  0  0  0  0  0  0  0  0  0  0  0
   -1.0700   14.5390   -2.4630 C   0  0  0  0  0  0  0  0  0  0  0  0
   -5.5620   15.2310    1.8450 C   0  0  0  0  0  0  0  0  0  0  0  0
   -7.8380   14.6470    1.2900 C   0  0  0  0  0  0  0  0  0  0  0  0
   -4.1060   15.6600   -0.1210 C   0  0  0  0  0  0  0  0  0  0  0  0
   -0.1190   14.8140   -0.1630 C   0  0  0  0  0  0  0  0  0  0  0  0
   -6.7850   14.9000    2.2940 C   0  0  0  0  0  0  0  0  0  0  0  0
  1  2  1  0
  1  3  1  0
  3  4  1  0
  4  5  2  3
  4  6  1  0
  5  7  1  0
  6  8  1  0
  7  9  1  0
  7 10  1  0
  8 11  2  0
  8 12  1  0
  9 13  1  1
  9 14  1  0
 10 15  2  0
 11 16  1  0
 12 17  2  0
 17 18  1  0
 14 19  1  0
 13 20  2  0
 14 21  2  0
 15 21  1  0
 16 22  2  0
 17 22  1  0
 19 23  2  0
 20 23  1  0
M  END
