diamond-x0438_0_A-diamond-x0104_0_A
     RDKit          3D

 23 26  0  0  0  0  0  0  0  0999 V2000
   -7.7830   14.7600    3.3270 C   0  0  1  0  0  0  0  0  0  0  0  0
   -9.1850   15.0660    2.1030 S   0  0  0  0  0  0  0  0  0  0  0  0
  -10.4010   14.3970    2.5360 O   0  0  0  0  0  0  0  0  0  0  0  0
   -6.4670   15.1060    2.7340 N   0  0  0  0  0  0  0  0  0  0  0  0
   -8.0090   15.2060    4.7230 N   0  0  0  0  0  0  0  0  0  0  0  0
   -8.5960   14.1900    0.6710 C   0  0  0  0  0  0  0  0  0  0  0  0
   -9.2990   16.4690    1.7580 O   0  0  0  0  0  0  0  0  0  0  0  0
   -6.0640   14.4200    1.5060 N   0  0  0  0  0  0  0  0  0  0  0  0
   -9.1940   15.1290    5.4040 C   0  0  0  0  0  0  0  0  0  0  0  0
   -7.0610   14.1120    0.4400 C   0  0  2  0  0  0  0  0  0  0  0  0
   -4.9890   15.2320    0.8710 C   0  0  2  0  0  0  0  0  0  0  0  0
   -9.2830   15.1740    6.7850 C   0  0  0  0  0  0  0  0  0  0  0  0
  -10.7680   14.9700    4.7300 S   0  0  0  0  0  0  0  0  0  0  0  0
   -6.5920   14.7020   -0.8730 N   0  0  0  0  0  0  0  0  0  0  0  0
   -5.4860   15.6110   -0.5460 C   0  0  2  0  0  0  0  0  0  0  0  0
   -3.6530   14.5430    0.9220 C   0  0  0  0  0  0  0  0  0  0  0  0
  -11.5310   14.9630    6.2550 C   0  0  0  0  0  0  0  0  0  0  0  0
  -10.6200   15.0780    7.2750 C   0  0  0  0  0  0  0  0  0  0  0  0
   -5.8400   13.6980   -1.6670 O   0  0  0  0  0  0  0  0  0  0  0  0
   -4.4230   15.5900   -1.6000 C   0  0  0  0  0  0  0  0  0  0  0  0
   -2.8410   14.4890   -0.1360 C   0  0  0  0  0  0  0  0  0  0  0  0
   -5.0920   14.3350   -2.7210 C   0  0  0  0  0  0  0  0  0  0  0  0
   -3.2080   15.0750   -1.3950 C   0  0  0  0  0  0  0  0  0  0  0  0
  1  2  1  0
  2  3  2  0
  1  4  1  0
  1  5  1  1
  2  6  1  0
  2  7  2  0
  4  8  1  0
  5  9  1  0
 10  6  1  1
  8 10  1  0
  8 11  1  0
  9 12  2  0
  9 13  1  0
 10 14  1  0
 11 15  1  0
 14 15  1  0
 11 16  1  6
 13 17  1  0
 12 18  1  0
 17 18  2  0
 14 19  1  0
 15 20  1  6
 16 21  2  0
 19 22  1  0
 20 23  2  0
 21 23  1  0
M  END
