diamond-x0228_0_B-diamond-x0766_1_B
     RDKit          3D

 28 31  0  0  0  0  0  0  0  0999 V2000
   -6.1510   25.1860  -14.1280 N   0  0  0  0  0  0  0  0  0  0  0  0
   -7.3850   25.7200  -13.6700 C   0  0  1  0  0  0  0  0  0  0  0  0
   -8.2530   26.3550  -14.6510 N   0  0  0  0  0  0  0  0  0  0  0  0
   -5.1020   25.0600  -13.2380 C   0  0  0  0  0  0  0  0  0  0  0  0
   -8.0850   24.6010  -13.1580 O   0  0  0  0  0  0  0  0  0  0  0  0
   -3.8990   25.7290  -13.5410 C   0  0  0  0  0  0  0  0  0  0  0  0
   -5.2120   24.3050  -12.0670 C   0  0  0  0  0  0  0  0  0  0  0  0
   -7.0250   26.6240  -12.4070 C   0  0  2  0  0  0  0  0  0  0  0  0
   -3.8780   26.4430  -14.7150 O   0  0  0  0  0  0  0  0  0  0  0  0
   -2.8370   25.6360  -12.6730 C   0  0  0  0  0  0  0  0  0  0  0  0
   -4.1410   24.2060  -11.1930 C   0  0  0  0  0  0  0  0  0  0  0  0
   -9.4950   25.7260  -14.9320 N   0  0  0  0  0  0  0  0  0  0  0  0
   -7.8890   26.3190  -11.1560 C   0  0  0  0  0  0  0  0  0  0  0  0
   -7.2090   28.1660  -12.5850 C   0  0  1  0  0  0  0  0  0  0  0  0
   -2.6000   26.8420  -15.2070 C   0  0  0  0  0  0  0  0  0  0  0  0
   -4.2250   23.4000   -9.9240 C   0  0  0  0  0  0  0  0  0  0  0  0
   -2.9850   24.8810  -11.5300 C   0  0  0  0  0  0  0  0  0  0  0  0
   -9.7430   24.5950  -15.6590 C   0  0  0  0  0  0  0  0  0  0  0  0
  -10.7170   26.1610  -14.5160 C   0  0  0  0  0  0  0  0  0  0  0  0
   -8.6640   27.5950  -10.9000 C   0  0  0  0  0  0  0  0  0  0  0  0
   -7.6200   28.6550  -11.2060 C   0  0  0  0  0  0  0  0  0  0  0  0
   -6.0820   28.9270  -13.2420 C   0  0  0  0  0  0  0  0  0  0  0  0
  -11.0390   24.3600  -15.6840 N   0  0  0  0  0  0  0  0  0  0  0  0
  -11.6560   25.3550  -14.9570 N   0  0  0  0  0  0  0  0  0  0  0  0
   -4.7210   28.8770  -12.9820 C   0  0  0  0  0  0  0  0  0  0  0  0
   -6.3550   29.8480  -14.3020 C   0  0  0  0  0  0  0  0  0  0  0  0
   -5.2320   30.4460  -14.8050 C   0  0  0  0  0  0  0  0  0  0  0  0
   -3.8270   29.9130  -14.0120 S   0  0  0  0  0  0  0  0  0  0  0  0
  1  2  1  0
  2  3  1  0
  1  4  1  0
  2  5  1  1
  4  6  2  0
  4  7  1  0
  2  8  1  0
  6  9  1  0
  6 10  1  0
  7 11  2  0
  3 12  1  0
  8 13  1  1
  8 14  1  0
  9 15  1  0
 11 16  1  0
 10 17  2  0
 11 17  1  0
 12 18  1  0
 12 19  1  0
 13 20  1  0
 14 21  1  0
 20 21  1  0
 14 22  1  1
 18 23  2  0
 19 24  2  0
 23 24  1  0
 22 25  2  0
 22 26  1  0
 26 27  2  0
 25 28  1  0
 27 28  1  0
M  END
