diamond-x0926_0_A-mac-x0385
     RDKit          3D

  9  9  0  0  0  0  0  0  0  0999 V2000
   -6.5610   15.0770   -0.9360 O   0  0  0  0  0  0  0  0  0  0  0  0
   -5.3530   15.2350   -0.7340 C   0  0  0  0  0  0  0  0  0  0  0  0
   -4.7850   15.5040    0.6110 C   0  0  0  0  0  0  0  0  0  0  0  0
   -4.4100   15.1580   -1.7140 N   0  0  0  0  0  0  0  0  0  0  0  0
   -3.0280   15.2340   -1.4160 N   0  0  0  0  0  0  0  0  0  0  0  0
   -3.6400   14.5670    0.9150 C   0  0  2  0  0  0  0  0  0  0  0  0
   -3.0580   14.9790    2.1560 N   0  0  0  0  0  0  0  0  0  0  0  0
   -2.5960   14.4520   -0.2260 C   0  0  2  0  0  0  0  0  0  0  0  0
   -1.1560   14.8320    0.2440 C   0  0  0  0  0  0  0  0  0  0  0  0
  1  2  2  0
  2  3  1  0
  2  4  1  0
  4  5  1  0
  3  6  1  0
  6  7  1  1
  5  8  1  0
  6  8  1  0
  8  9  1  1
M  END
