diamond-x0128_0_A-mac-x0572
     RDKit          3D

 22 24  0  0  0  0  0  0  0  0999 V2000
   -7.0390   14.8600    2.4640 N   0  0  0  0  0  0  0  0  0  0  0  0
   -7.8870   14.9830    3.4510 C   0  0  0  0  0  0  0  0  0  0  0  0
   -9.1200   14.7780    3.3650 O   0  0  0  0  0  0  0  0  0  0  0  0
   -6.3120   14.8480    1.3490 C   0  0  0  0  0  0  0  0  0  0  0  0
   -7.5020   15.4510    4.7610 N   0  0  0  0  0  0  0  0  0  0  0  0
   -7.0750   14.6120    0.2410 C   0  0  0  0  0  0  0  0  0  0  0  0
   -4.9600   15.1060    0.8640 C   0  0  0  0  0  0  0  0  0  0  0  0
   -8.4610   14.3560    0.2580 O   0  0  0  0  0  0  0  0  0  0  0  0
   -6.3070   14.6840   -0.9300 C   0  0  0  0  0  0  0  0  0  0  0  0
   -8.3820   16.1500    5.5770 C   0  0  0  0  0  0  0  0  0  0  0  0
   -3.7650   15.4080    1.4740 C   0  0  0  0  0  0  0  0  0  0  0  0
   -4.9470   15.0250   -0.5150 C   0  0  0  0  0  0  0  0  0  0  0  0
   -6.6830   14.5020   -2.1170 O   0  0  0  0  0  0  0  0  0  0  0  0
   -3.8010   15.2500   -1.2070 C   0  0  0  0  0  0  0  0  0  0  0  0
   -9.0340   17.2580    5.0060 C   0  0  0  0  0  0  0  0  0  0  0  0
   -8.6320   15.8140    6.8700 C   0  0  0  0  0  0  0  0  0  0  0  0
   -2.5930   15.6320    0.7790 C   0  0  0  0  0  0  0  0  0  0  0  0
   -3.8980   15.1480   -2.6740 C   0  0  0  0  0  0  0  0  0  0  0  0
   -9.8950   17.9710    5.7430 N   0  0  0  0  0  0  0  0  0  0  0  0
   -9.5430   16.5820    7.6280 C   0  0  0  0  0  0  0  0  0  0  0  0
   -2.6390   15.5480   -0.6000 C   0  0  0  0  0  0  0  0  0  0  0  0
  -10.1350   17.6370    7.0130 C   0  0  0  0  0  0  0  0  0  0  0  0
  1  2  1  0
  2  3  2  0
  1  4  1  0
  2  5  1  0
  4  6  2  0
  4  7  1  0
  6  8  1  0
  6  9  1  0
  5 10  1  0
  7 11  2  0
  7 12  1  0
  9 12  1  0
  9 13  2  0
 12 14  2  0
 10 15  2  0
 10 16  1  0
 11 17  1  0
 14 18  1  0
 15 19  1  0
 16 20  2  0
 14 21  1  0
 17 21  2  0
 19 22  2  0
 20 22  1  0
M  END
