diamond-x0128_0_A-mac-x0436
     RDKit          3D

 35 38  0  0  0  0  0  0  0  0999 V2000
   -6.6750   14.6540    2.5340 N   0  0  0  0  0  0  0  0  0  0  0  0
   -7.7970   15.2550    3.0700 C   0  0  0  0  0  0  0  0  0  0  0  0
   -8.8070   15.5600    2.4480 O   0  0  0  0  0  0  0  0  0  0  0  0
   -6.0510   14.7670    1.2740 C   0  0  0  0  0  0  0  0  0  0  0  0
   -7.5860   15.4650    4.4340 N   0  0  0  0  0  0  0  0  0  0  0  0
   -6.8080   14.5800    0.1120 C   0  0  0  0  0  0  0  0  0  0  0  0
   -4.6880   15.0540    1.1600 C   0  0  0  0  0  0  0  0  0  0  0  0
   -6.1970   14.6670   -1.1450 C   0  0  0  0  0  0  0  0  0  0  0  0
   -4.0830   15.1400   -0.0870 C   0  0  0  0  0  0  0  0  0  0  0  0
   -8.4300   16.1440    5.3380 C   0  0  0  0  0  0  0  0  0  0  0  0
   -4.8230   14.9420   -1.2520 C   0  0  0  0  0  0  0  0  0  0  0  0
   -9.1130   17.2780    4.9000 C   0  0  0  0  0  0  0  0  0  0  0  0
   -8.6390   15.7600    6.6580 C   0  0  0  0  0  0  0  0  0  0  0  0
   -4.1310   15.0150   -2.5860 C   0  0  0  0  0  0  0  0  0  0  0  0
   -9.9520   18.0200    5.6580 N   0  0  0  0  0  0  0  0  0  0  0  0
   -9.4980   16.5060    7.4690 C   0  0  0  0  0  0  0  0  0  0  0  0
   -4.4550   13.8410   -3.5290 C   0  0  0  0  0  0  0  0  0  0  0  0
  -10.1240   17.6170    6.9280 C   0  0  0  0  0  0  0  0  0  0  0  0
   -3.6030   12.5750   -3.3380 C   0  0  0  0  0  0  0  0  0  0  0  0
   -2.3410   12.6310   -4.0480 N   0  0  0  0  0  0  0  0  0  0  0  0
   -1.7540   11.8030   -4.8510 C   0  0  0  0  0  0  0  0  0  0  0  0
   -0.3930   12.0530   -5.5340 C   0  0  0  0  0  0  0  0  0  0  0  0
   -2.3850   10.6000   -5.1360 N   0  0  0  0  0  0  0  0  0  0  0  0
    0.4250   13.2820   -5.2020 C   0  0  0  0  0  0  0  0  0  0  0  0
   -1.8650    9.7650   -6.1560 C   0  0  0  0  0  0  0  0  0  0  0  0
    0.0910   11.2370   -6.4300 N   0  0  0  0  0  0  0  0  0  0  0  0
    1.6100   12.9470   -4.3040 C   0  0  0  0  0  0  0  0  0  0  0  0
   -0.6450   10.0950   -6.7830 C   0  0  0  0  0  0  0  0  0  0  0  0
   -2.5520    8.6110   -6.5530 C   0  0  0  0  0  0  0  0  0  0  0  0
    1.2200   12.4380   -2.9390 C   0  0  0  0  0  0  0  0  0  0  0  0
   -0.1370    9.2690   -7.7910 C   0  0  0  0  0  0  0  0  0  0  0  0
   -2.0350    7.7930   -7.5630 C   0  0  0  0  0  0  0  0  0  0  0  0
    0.7170   11.1920   -2.9240 O   0  0  0  0  0  0  0  0  0  0  0  0
    1.3210   13.0550   -1.8980 O   0  0  0  0  0  0  0  0  0  0  0  0
   -0.8280    8.1210   -8.1820 C   0  0  0  0  0  0  0  0  0  0  0  0
  1  2  1  0
  2  3  2  0
  1  4  1  0
  2  5  1  0
  4  6  2  0
  4  7  1  0
  6  8  1  0
  7  9  2  0
  5 10  1  0
  8 11  2  0
  9 11  1  0
 10 12  2  0
 10 13  1  0
 11 14  1  0
 12 15  1  0
 13 16  2  0
 14 17  1  0
 15 18  2  0
 16 18  1  0
 17 19  1  0
 19 20  1  0
 20 21  2  3
 21 22  1  0
 21 23  1  0
 22 24  1  0
 23 25  1  0
 22 26  2  0
 24 27  1  0
 25 28  2  0
 26 28  1  0
 25 29  1  0
 27 30  1  0
 28 31  1  0
 29 32  2  0
 30 33  1  0
 30 34  2  0
 31 35  2  0
 32 35  1  0
M  END
