diamond-x0631_0_A-diamond-x0962_3_A
     RDKit          3D

 22 24  0  0  0  0  0  0  0  0999 V2000
   -1.8760    6.9640   -6.8080 C   0  0  0  0  0  0  0  0  0  0  0  0
   -0.5320    7.1680   -7.4860 C   0  0  0  0  0  0  0  0  0  0  0  0
    0.1700    8.3810   -6.8840 C   0  0  0  0  0  0  0  0  0  0  0  0
    1.3180    8.8830   -7.6880 N   0  0  0  0  0  0  0  0  0  0  0  0
    1.2500   10.3280   -7.7020 N   0  0  0  0  0  0  0  0  0  0  0  0
    1.3220    8.4360   -9.0720 N   0  0  0  0  0  0  0  0  0  0  0  0
    0.2590   10.4910   -8.7190 C   0  0  1  0  0  0  0  0  0  0  0  0
    0.7790    9.5650   -9.8610 C   0  0  1  0  0  0  0  0  0  0  0  0
    1.8030   10.1340  -10.7300 N   0  0  0  0  0  0  0  0  0  0  0  0
   -1.0270   10.0260   -8.1870 C   0  0  0  0  0  0  0  0  0  0  0  0
    0.2180   11.8470   -9.0910 N   0  0  0  0  0  0  0  0  0  0  0  0
    2.2860    9.2570  -11.7710 C   0  0  2  0  0  0  0  0  0  0  0  0
   -1.6780    9.0070   -8.8180 N   0  0  0  0  0  0  0  0  0  0  0  0
   -1.8290   10.3630   -7.1260 C   0  0  0  0  0  0  0  0  0  0  0  0
    3.3200    8.4410  -11.2520 O   0  0  0  0  0  0  0  0  0  0  0  0
    2.7120    9.8910  -13.1240 C   0  0  2  0  0  0  0  0  0  0  0  0
   -2.8240    8.7710   -8.1360 C   0  0  0  0  0  0  0  0  0  0  0  0
   -2.9470    9.5740   -7.1040 N   0  0  0  0  0  0  0  0  0  0  0  0
    4.0750    9.6060  -13.4410 O   0  0  0  0  0  0  0  0  0  0  0  0
    2.5690   11.3950  -13.3010 C   0  0  0  0  0  0  0  0  0  0  0  0
    3.5100   11.6730  -14.4600 C   0  0  0  0  0  0  0  0  0  0  0  0
    4.3870   10.4360  -14.5550 C   0  0  0  0  0  0  0  0  0  0  0  0
  1  2  1  0
  2  3  1  0
  3  4  1  0
  4  5  1  0
  4  6  1  0
  5  7  1  0
  6  8  1  0
  7  8  1  0
  8  9  1  1
  7 10  1  0
  7 11  1  6
  9 12  1  0
 10 13  1  0
 10 14  2  0
 12 15  1  1
 12 16  1  0
 13 17  1  0
 14 18  1  0
 17 18  2  0
 16 19  1  0
 16 20  1  1
 20 21  1  0
 19 22  1  0
 21 22  1  0
M  END
