diamond-x0253_0_A-mac-x0163
     RDKit          3D

 31 34  0  0  0  0  0  0  0  0999 V2000
    0.5580   11.6810   -5.2830 N   0  0  0  0  0  0  0  0  0  0  0  0
    1.1100   11.6480   -6.5330 C   0  0  0  0  0  0  0  0  0  0  0  0
    2.1210   12.2720   -6.7480 O   0  0  0  0  0  0  0  0  0  0  0  0
    1.4550   11.6850   -4.1310 C   0  0  0  0  0  0  0  0  0  0  0  0
    0.9650   12.4290   -2.8960 C   0  0  0  0  0  0  0  0  0  0  0  0
    0.4530   10.7720   -7.5560 C   0  0  0  0  0  0  0  0  0  0  0  0
    1.9660   12.6450   -1.9540 O   0  0  0  0  0  0  0  0  0  0  0  0
   -0.0150   11.5680   -2.3210 O   0  0  0  0  0  0  0  0  0  0  0  0
   -0.5500    9.8830   -7.1610 C   0  0  0  0  0  0  0  0  0  0  0  0
    0.8310   10.8180   -8.9070 C   0  0  0  0  0  0  0  0  0  0  0  0
    0.3980   13.7340   -3.3510 C   0  0  1  0  0  0  0  0  0  0  0  0
   -1.1700    9.0460   -8.0960 C   0  0  0  0  0  0  0  0  0  0  0  0
    0.2160    9.9890   -9.8420 C   0  0  0  0  0  0  0  0  0  0  0  0
   -1.1010   14.1760   -3.3700 C   0  0  0  0  0  0  0  0  0  0  0  0
    0.6270   15.0070   -2.5440 C   0  0  0  0  0  0  0  0  0  0  0  0
   -2.2400    8.0950   -7.6580 C   0  0  0  0  0  0  0  0  0  0  0  0
   -0.7800    9.1060   -9.4370 C   0  0  0  0  0  0  0  0  0  0  0  0
   -2.2310   13.1290   -3.2980 C   0  0  0  0  0  0  0  0  0  0  0  0
   -0.7310   14.8650   -2.1420 N   0  0  0  0  0  0  0  0  0  0  0  0
   -1.1080   14.9570   -4.6480 C   0  0  0  0  0  0  0  0  0  0  0  0
   -1.2020   14.7740   -0.8400 C   0  0  0  0  0  0  0  0  0  0  0  0
   -2.7660   12.7690   -4.7020 C   0  0  0  0  0  0  0  0  0  0  0  0
   -0.6030   13.8580   -5.5360 C   0  0  0  0  0  0  0  0  0  0  0  0
   -2.5180   14.9470   -0.4180 C   0  0  0  0  0  0  0  0  0  0  0  0
   -0.2220   14.5130    0.0400 N   0  0  0  0  0  0  0  0  0  0  0  0
   -1.7710   12.9430   -5.8760 C   0  0  0  0  0  0  0  0  0  0  0  0
   -3.8740   15.2800   -1.4460 Cl  0  0  0  0  0  0  0  0  0  0  0  0
   -2.7280   14.8590    0.9540 C   0  0  0  0  0  0  0  0  0  0  0  0
   -0.5330   14.4350    1.3240 C   0  0  0  0  0  0  0  0  0  0  0  0
   -3.9960   15.0500    1.5030 N   0  0  0  0  0  0  0  0  0  0  0  0
   -1.7460   14.6020    1.8330 N   0  0  0  0  0  0  0  0  0  0  0  0
  1  2  1  0
  2  3  2  0
  1  4  1  0
  4  5  1  0
  2  6  1  0
  5  7  1  0
  5  8  1  0
  6  9  2  0
  6 10  1  0
 11  5  1  1
  9 12  1  0
 10 13  2  0
 11 14  1  0
 11 15  1  0
 12 16  1  0
 12 17  2  0
 13 17  1  0
 14 18  1  0
 14 19  1  0
 15 19  1  0
 14 20  1  0
 19 21  1  0
 18 22  1  0
 20 23  1  0
 21 24  2  0
 21 25  1  0
 22 26  1  0
 23 26  1  0
 24 27  1  0
 24 28  1  0
 25 29  2  0
 28 30  1  0
 28 31  2  0
 29 31  1  0
M  END
