diamond-x0253_0_A-mac-x0319
     RDKit          3D

 21 22  0  0  0  0  0  0  0  0999 V2000
    0.1200   11.6800   -5.4700 N   0  0  0  0  0  0  0  0  0  0  0  0
    1.0440   11.6200   -6.4930 C   0  0  0  0  0  0  0  0  0  0  0  0
    2.1410   12.1610   -6.5160 O   0  0  0  0  0  0  0  0  0  0  0  0
    0.1130   12.4700   -4.2330 C   0  0  1  0  0  0  0  0  0  0  0  0
    1.0190   12.0230   -3.1080 C   0  0  0  0  0  0  0  0  0  0  0  0
    0.5240   10.7530   -7.6010 C   0  0  0  0  0  0  0  0  0  0  0  0
   -0.0950   13.9430   -4.3990 C   0  0  0  0  0  0  0  0  0  0  0  0
    2.0630   12.5380   -2.7470 O   0  0  0  0  0  0  0  0  0  0  0  0
    0.5000   10.9540   -2.4700 O   0  0  0  0  0  0  0  0  0  0  0  0
   -0.4420    9.8160   -7.2130 C   0  0  0  0  0  0  0  0  0  0  0  0
    0.9060   10.8030   -8.9510 C   0  0  0  0  0  0  0  0  0  0  0  0
    0.8890   14.9210   -4.1450 C   0  0  0  0  0  0  0  0  0  0  0  0
   -1.3640   14.3370   -4.8160 C   0  0  0  0  0  0  0  0  0  0  0  0
   -1.0260    8.9450   -8.1400 C   0  0  0  0  0  0  0  0  0  0  0  0
    0.3290    9.9350   -9.8790 C   0  0  0  0  0  0  0  0  0  0  0  0
    0.5430   16.2670   -4.3190 C   0  0  0  0  0  0  0  0  0  0  0  0
   -1.6800   15.6710   -4.9840 C   0  0  0  0  0  0  0  0  0  0  0  0
   -2.0620    7.9550   -7.6930 C   0  0  0  0  0  0  0  0  0  0  0  0
    1.3940   17.2930   -4.0930 O   0  0  0  0  0  0  0  0  0  0  0  0
   -0.6310    9.0120   -9.4790 C   0  0  0  0  0  0  0  0  0  0  0  0
   -0.7220   16.6360   -4.7350 C   0  0  0  0  0  0  0  0  0  0  0  0
  1  2  1  0
  2  3  2  0
  4  1  1  6
  4  5  1  0
  2  6  1  0
  4  7  1  0
  5  8  2  0
  5  9  1  0
  6 10  2  0
  6 11  1  0
  7 12  2  0
  7 13  1  0
 10 14  1  0
 11 15  2  0
 12 16  1  0
 13 17  2  0
 14 18  1  0
 16 19  1  0
 14 20  2  0
 15 20  1  0
 16 21  2  0
 17 21  1  0
M  END
