diamond-x0159_0_B-mac-x0436
     RDKit          3D

 35 39  0  0  0  0  0  0  0  0999 V2000
    1.7470    8.9440  -10.2520 N   0  0  0  0  0  0  0  0  0  0  0  0
    2.1000    7.6170   -9.7810 C   0  0  0  0  0  0  0  0  0  0  0  0
    1.0260    7.1150   -8.8420 C   0  0  1  0  0  0  0  0  0  0  0  0
    2.4230    9.3060  -11.3240 C   0  0  0  0  0  0  0  0  0  0  0  0
    2.1300   10.4640  -11.9780 N   0  0  0  0  0  0  0  0  0  0  0  0
    3.4100    8.6620  -11.8820 N   0  0  0  0  0  0  0  0  0  0  0  0
   -0.3920    7.4350   -9.3050 C   0  0  0  0  0  0  0  0  0  0  0  0
    3.7850    9.4330  -12.9370 C   0  0  0  0  0  0  0  0  0  0  0  0
    2.9980   10.5770  -13.0250 C   0  0  0  0  0  0  0  0  0  0  0  0
    1.1170    5.7070   -8.3760 C   0  0  0  0  0  0  0  0  0  0  0  0
    1.4070    4.6250   -9.1930 C   0  0  0  0  0  0  0  0  0  0  0  0
    0.8770    5.5080   -7.0340 C   0  0  0  0  0  0  0  0  0  0  0  0
    3.1600   11.5470  -14.0020 C   0  0  0  0  0  0  0  0  0  0  0  0
    4.7990    9.2220  -13.8700 C   0  0  0  0  0  0  0  0  0  0  0  0
   -0.9950    8.2360   -8.2130 C   0  0  0  0  0  0  0  0  0  0  0  0
    1.4450    3.3560   -8.6470 C   0  0  0  0  0  0  0  0  0  0  0  0
    0.9240    4.2550   -6.4970 C   0  0  0  0  0  0  0  0  0  0  0  0
    4.1810   11.3250  -14.9290 C   0  0  0  0  0  0  0  0  0  0  0  0
    4.9880   10.1840  -14.8670 C   0  0  0  0  0  0  0  0  0  0  0  0
   -0.3020    9.3740   -7.8090 C   0  0  0  0  0  0  0  0  0  0  0  0
   -2.1930    7.8790   -7.5910 C   0  0  0  0  0  0  0  0  0  0  0  0
    1.2080    3.1640   -7.3040 C   0  0  0  0  0  0  0  0  0  0  0  0
   -0.7840   10.1650   -6.7910 C   0  0  0  0  0  0  0  0  0  0  0  0
   -2.6920    8.6680   -6.5620 C   0  0  0  0  0  0  0  0  0  0  0  0
   -1.9860    9.8050   -6.1680 C   0  0  0  0  0  0  0  0  0  0  0  0
   -0.0380   11.2930   -6.4340 N   0  0  0  0  0  0  0  0  0  0  0  0
   -0.4870   12.0400   -5.4770 C   0  0  0  0  0  0  0  0  0  0  0  0
   -2.4690   10.6100   -5.1410 N   0  0  0  0  0  0  0  0  0  0  0  0
    0.2870   13.2720   -5.0510 C   0  0  0  0  0  0  0  0  0  0  0  0
   -1.7900   11.7280   -4.7270 C   0  0  0  0  0  0  0  0  0  0  0  0
    1.5610   12.9460   -4.2790 C   0  0  0  0  0  0  0  0  0  0  0  0
   -2.1860   12.4440   -3.8220 O   0  0  0  0  0  0  0  0  0  0  0  0
    1.2510   12.4300   -2.8940 C   0  0  0  0  0  0  0  0  0  0  0  0
    0.7900   11.1650   -2.8800 O   0  0  0  0  0  0  0  0  0  0  0  0
    1.3740   13.0330   -1.8490 O   0  0  0  0  0  0  0  0  0  0  0  0
  1  2  1  0
  3  2  1  6
  1  4  1  0
  4  5  1  0
  4  6  2  0
  3  7  1  0
  6  8  1  0
  5  9  1  0
  8  9  2  0
  3 10  1  0
 10 11  2  0
 10 12  1  0
  9 13  1  0
  8 14  1  0
  7 15  1  0
 11 16  1  0
 12 17  2  0
 13 18  2  0
 14 19  2  0
 18 19  1  0
 15 20  2  0
 15 21  1  0
 16 22  2  0
 17 22  1  0
 20 23  1  0
 21 24  2  0
 23 25  2  0
 24 25  1  0
 23 26  1  0
 26 27  2  0
 25 28  1  0
 27 29  1  0
 27 30  1  0
 28 30  1  0
 29 31  1  0
 30 32  2  0
 31 33  1  0
 33 34  1  0
 33 35  2  0
M  END
