diamond-x0962_3_A-diamond-x0676_0_B
     RDKit          3D

 22 24  0  0  0  0  0  0  0  0999 V2000
    1.3370   11.4480   -7.6370 N   0  0  0  0  0  0  0  0  0  0  0  0
    0.3720   11.0360   -8.6560 C   0  0  1  0  0  0  0  0  0  0  0  0
    1.0120   10.9270  -10.0820 C   0  0  0  0  0  0  0  0  0  0  0  0
   -0.2820    9.8430   -8.1010 C   0  0  0  0  0  0  0  0  0  0  0  0
    0.8310    9.6180  -10.8860 C   0  0  0  0  0  0  0  0  0  0  0  0
    0.0220    8.5530   -8.4350 N   0  0  0  0  0  0  0  0  0  0  0  0
   -1.2860    9.7510   -7.1730 C   0  0  0  0  0  0  0  0  0  0  0  0
    1.5630    8.5160  -10.2590 N   0  0  0  0  0  0  0  0  0  0  0  0
   -0.8050    7.7490   -7.7070 C   0  0  0  0  0  0  0  0  0  0  0  0
   -1.6060    8.4500   -6.9370 N   0  0  0  0  0  0  0  0  0  0  0  0
    2.6990    8.0000  -10.6370 C   0  0  0  0  0  0  0  0  0  0  0  0
    3.2980    6.8540   -9.8530 C   0  0  0  0  0  0  0  0  0  0  0  0
    3.6520    8.2060  -11.6670 N   0  0  0  0  0  0  0  0  0  0  0  0
    4.9180    7.7830  -11.2410 N   0  0  0  0  0  0  0  0  0  0  0  0
    4.7350    7.0510  -10.1950 C   0  0  0  0  0  0  0  0  0  0  0  0
    3.7440    9.2370  -12.6670 C   0  0  0  0  0  0  0  0  0  0  0  0
    5.8410    6.4560   -9.3950 C   0  0  0  0  0  0  0  0  0  0  0  0
    2.8550   10.3310  -12.7250 C   0  0  0  0  0  0  0  0  0  0  0  0
    4.7510    9.2050  -13.6480 C   0  0  0  0  0  0  0  0  0  0  0  0
    2.9670   11.3330  -13.6990 C   0  0  0  0  0  0  0  0  0  0  0  0
    4.8680   10.2020  -14.6280 C   0  0  0  0  0  0  0  0  0  0  0  0
    3.9760   11.2660  -14.6510 C   0  0  0  0  0  0  0  0  0  0  0  0
  2  1  1  1
  2  3  1  0
  2  4  1  0
  3  5  1  0
  4  6  1  0
  4  7  2  0
  5  8  1  0
  6  9  1  0
  7 10  1  0
  9 10  2  0
  8 11  2  3
 11 12  1  0
 11 13  1  0
 13 14  1  0
 12 15  1  0
 14 15  2  0
 13 16  1  0
 15 17  1  0
 16 18  2  0
 16 19  1  0
 18 20  1  0
 19 21  2  0
 20 22  2  0
 21 22  1  0
M  END
