diamond-x0689_0_A-mac-x0326
     RDKit          3D

 25 27  0  0  0  0  0  0  0  0999 V2000
   -3.6720   14.9440    1.7870 N   0  0  0  0  0  0  0  0  0  0  0  0
   -4.9020   15.1500    1.0560 C   0  0  0  0  0  0  0  0  0  0  0  0
   -5.4170   13.9300    0.2730 C   0  0  0  0  0  0  0  0  0  0  0  0
   -2.5180   14.5420    1.1590 C   0  0  0  0  0  0  0  0  0  0  0  0
   -2.5050   14.0110   -0.0660 N   0  0  0  0  0  0  0  0  0  0  0  0
   -1.4350   14.7440    1.8890 N   0  0  0  0  0  0  0  0  0  0  0  0
   -6.5040   14.3110   -0.7360 C   0  0  0  0  0  0  0  0  0  0  0  0
   -1.2960   13.6840   -0.5640 C   0  0  0  0  0  0  0  0  0  0  0  0
   -0.2630   14.4050    1.3600 C   0  0  0  0  0  0  0  0  0  0  0  0
   -6.0390   15.4040   -1.7000 C   0  0  0  0  0  0  0  0  0  0  0  0
   -0.1200   13.8660    0.1160 C   0  0  0  0  0  0  0  0  0  0  0  0
   -4.5280   15.4400   -1.7150 C   0  0  0  0  0  0  0  0  0  0  0  0
   -3.7890   15.0460   -2.8430 C   0  0  0  0  0  0  0  0  0  0  0  0
   -3.8460   15.8710   -0.5840 C   0  0  0  0  0  0  0  0  0  0  0  0
   -2.3800   15.0830   -2.8240 C   0  0  0  0  0  0  0  0  0  0  0  0
   -2.4530   15.9200   -0.5400 C   0  0  0  0  0  0  0  0  0  0  0  0
   -1.5380   14.7150   -3.8630 N   0  0  0  0  0  0  0  0  0  0  0  0
   -1.7400   15.5210   -1.6690 C   0  0  0  0  0  0  0  0  0  0  0  0
   -0.2820   14.8670   -3.4980 C   0  0  0  0  0  0  0  0  0  0  0  0
   -0.0390   15.4650   -1.9130 S   0  0  0  0  0  0  0  0  0  0  0  0
    0.8940   14.5500   -4.3780 C   0  0  0  0  0  0  0  0  0  0  0  0
    1.0160   13.0440   -4.6300 C   0  0  0  0  0  0  0  0  0  0  0  0
    1.0850   12.2350   -3.3580 C   0  0  0  0  0  0  0  0  0  0  0  0
    0.2140   11.2030   -3.3320 O   0  0  0  0  0  0  0  0  0  0  0  0
    1.8280   12.4320   -2.4140 O   0  0  0  0  0  0  0  0  0  0  0  0
  1  2  1  0
  2  3  1  0
  1  4  1  0
  4  5  2  0
  4  6  1  0
  3  7  1  0
  5  8  1  0
  6  9  2  0
  7 10  1  0
  8 11  2  0
  9 11  1  0
 10 12  1  0
 12 13  2  0
 12 14  1  0
 13 15  1  0
 14 16  2  0
 15 17  1  0
 15 18  2  0
 16 18  1  0
 17 19  2  0
 18 20  1  0
 19 20  1  0
 19 21  1  0
 21 22  1  0
 22 23  1  0
 23 24  1  0
 23 25  2  0
M  END
