diamond-x0591_0_A-diamond-x0689_0_A
     RDKit          3D

 21 22  0  0  0  0  0  0  0  0999 V2000
   -5.3920   14.3940    0.8320 N   0  0  0  0  0  0  0  0  0  0  0  0
   -6.3940   14.0130    1.8170 C   0  0  0  0  0  0  0  0  0  0  0  0
   -5.8460   14.7680   -0.4190 C   0  0  0  0  0  0  0  0  0  0  0  0
   -4.2100   15.0330    1.4400 N   0  0  0  0  0  0  0  0  0  0  0  0
   -6.9920   15.1880   -0.6070 O   0  0  0  0  0  0  0  0  0  0  0  0
   -4.9880   14.6370   -1.5840 C   0  0  0  0  0  0  0  0  0  0  0  0
   -2.8330   14.7980    1.0000 C   0  0  0  0  0  0  0  0  0  0  0  0
   -3.7250   14.0710   -1.4420 C   0  0  0  0  0  0  0  0  0  0  0  0
   -5.4400   15.0740   -2.8140 C   0  0  0  0  0  0  0  0  0  0  0  0
   -2.5650   14.8770   -0.3120 N   0  0  0  0  0  0  0  0  0  0  0  0
   -1.8280   14.5220    1.8840 N   0  0  0  0  0  0  0  0  0  0  0  0
   -2.8940   13.9620   -2.5560 C   0  0  0  0  0  0  0  0  0  0  0  0
   -4.6090   14.9560   -3.9220 C   0  0  0  0  0  0  0  0  0  0  0  0
   -1.2870   14.6770   -0.7310 C   0  0  0  0  0  0  0  0  0  0  0  0
   -0.5740   14.3270    1.4170 C   0  0  0  0  0  0  0  0  0  0  0  0
   -3.3470   14.4160   -3.7870 C   0  0  0  0  0  0  0  0  0  0  0  0
   -0.2380   14.3950    0.1000 C   0  0  0  0  0  0  0  0  0  0  0  0
   -2.3340   14.3250   -5.2200 S   0  0  0  0  0  0  0  0  0  0  0  0
   -1.0940   15.3950   -4.8390 N   0  0  0  0  0  0  0  0  0  0  0  0
   -1.7370   13.0160   -5.2900 O   0  0  0  0  0  0  0  0  0  0  0  0
   -3.0540   14.9290   -6.3170 O   0  0  0  0  0  0  0  0  0  0  0  0
  1  2  1  0
  1  3  1  0
  1  4  1  0
  3  5  2  0
  3  6  1  0
  4  7  1  0
  6  8  2  0
  6  9  1  0
  7 10  2  0
  7 11  1  0
  8 12  1  0
  9 13  2  0
 10 14  1  0
 11 15  2  0
 12 16  2  0
 13 16  1  0
 14 17  2  0
 15 17  1  0
 16 18  1  0
 18 19  1  0
 18 20  2  0
 18 21  2  0
M  END
