diamond-x0438_0_A-mac-x0373
     RDKit          3D

 24 26  0  0  0  0  0  0  0  0999 V2000
   -8.0050   15.3470    3.6880 C   0  0  0  0  0  0  0  0  0  0  0  0
   -9.2670   15.3160    2.4240 S   0  0  0  0  0  0  0  0  0  0  0  0
  -10.4380   14.6630    2.9910 O   0  0  0  0  0  0  0  0  0  0  0  0
   -8.6810   14.2960    1.0700 C   0  0  0  0  0  0  0  0  0  0  0  0
   -9.4380   16.6410    1.8880 O   0  0  0  0  0  0  0  0  0  0  0  0
   -7.2380   14.4530    0.6960 C   0  0  0  0  0  0  0  0  0  0  0  0
   -6.8010   14.3450   -0.6130 N   0  0  0  0  0  0  0  0  0  0  0  0
   -6.2170   14.6850    1.4890 N   0  0  0  0  0  0  0  0  0  0  0  0
   -5.0930   14.7040    0.6860 C   0  0  0  0  0  0  0  0  0  0  0  0
   -5.4240   14.4890   -0.6410 C   0  0  0  0  0  0  0  0  0  0  0  0
   -4.4630   14.4390   -1.6820 C   0  0  0  0  0  0  0  0  0  0  0  0
   -3.7440   14.8920    1.0220 C   0  0  0  0  0  0  0  0  0  0  0  0
   -3.0780   14.6010   -1.3380 C   0  0  0  0  0  0  0  0  0  0  0  0
   -2.7640   14.8340    0.0170 C   0  0  0  0  0  0  0  0  0  0  0  0
   -1.9360   14.4980   -2.4210 C   0  0  1  0  0  0  0  0  0  0  0  0
   -0.4920   14.5180   -1.8760 C   0  0  0  0  0  0  0  0  0  0  0  0
   -2.0600   13.2650   -3.3360 C   0  0  0  0  0  0  0  0  0  0  0  0
   -0.1360   13.4610   -1.1070 O   0  0  0  0  0  0  0  0  0  0  0  0
    0.3490   15.3810   -2.0820 O   0  0  0  0  0  0  0  0  0  0  0  0
   -1.3140   13.1810   -4.5340 C   0  0  0  0  0  0  0  0  0  0  0  0
   -2.9010   12.1920   -3.0050 C   0  0  0  0  0  0  0  0  0  0  0  0
   -1.4150   12.0570   -5.3670 C   0  0  0  0  0  0  0  0  0  0  0  0
   -3.0000   11.0720   -3.8380 C   0  0  0  0  0  0  0  0  0  0  0  0
   -2.2590   11.0050   -5.0150 C   0  0  0  0  0  0  0  0  0  0  0  0
  2  1  1  0
  2  3  2  0
  2  4  1  0
  2  5  2  0
  4  6  1  0
  6  7  1  0
  6  8  2  0
  8  9  1  0
  7 10  1  0
  9 10  2  0
 10 11  1  0
  9 12  1  0
 11 13  2  0
 12 14  2  0
 13 14  1  0
 13 15  1  0
 15 16  1  1
 15 17  1  0
 16 18  1  0
 16 19  2  0
 17 20  2  0
 17 21  1  0
 20 22  1  0
 21 23  2  0
 22 24  2  0
 23 24  1  0
M  END
