diamond-x0895_1_A-mac-x0584
     RDKit          3D

 20 23  0  0  0  0  0  0  0  0999 V2000
   -2.3360   13.7530    1.9830 O   0  0  0  0  0  0  0  0  0  0  0  0
   -2.6840   14.6330    0.9990 C   0  0  1  0  0  0  0  0  0  0  0  0
   -2.9590   14.0310   -0.4060 C   0  0  1  0  0  0  0  0  0  0  0  0
   -3.9350   15.0800    1.4760 N   0  0  0  0  0  0  0  0  0  0  0  0
   -1.6470   15.5700    1.1270 N   0  0  0  0  0  0  0  0  0  0  0  0
   -4.3060   14.5270   -0.6700 N   0  0  0  0  0  0  0  0  0  0  0  0
   -4.9090   14.7670    0.5500 C   0  0  0  0  0  0  0  0  0  0  0  0
   -0.4330   14.9630    0.6280 C   0  0  0  0  0  0  0  0  0  0  0  0
   -1.9220   14.7140   -1.3320 C   0  0  2  0  0  0  0  0  0  0  0  0
   -6.1090   14.7080    0.7610 O   0  0  0  0  0  0  0  0  0  0  0  0
   -1.7770   14.4330   -2.7600 N   0  0  0  0  0  0  0  0  0  0  0  0
   -0.5630   14.8220   -0.8000 N   0  0  0  0  0  0  0  0  0  0  0  0
   -0.4070   14.5480   -3.2610 C   0  0  1  0  0  0  0  0  0  0  0  0
   -2.7020   15.0990   -3.6720 C   0  0  0  0  0  0  0  0  0  0  0  0
    0.1830   13.1500   -3.1470 C   0  0  0  0  0  0  0  0  0  0  0  0
   -0.5250   14.9970   -4.7310 C   0  0  0  0  0  0  0  0  0  0  0  0
   -2.0170   15.0890   -5.0300 C   0  0  0  0  0  0  0  0  0  0  0  0
    1.1090   12.4820   -4.1920 C   0  0  0  0  0  0  0  0  0  0  0  0
   -0.8220   12.0070   -3.4160 C   0  0  0  0  0  0  0  0  0  0  0  0
    0.3520   11.1740   -3.8570 C   0  0  0  0  0  0  0  0  0  0  0  0
  2  1  1  1
  2  3  1  0
  2  4  1  0
  2  5  1  0
  3  6  1  6
  4  7  1  0
  6  7  1  0
  5  8  1  0
  3  9  1  0
  7 10  2  0
  9 11  1  6
  8 12  1  0
  9 12  1  0
 11 13  1  0
 11 14  1  0
 13 15  1  6
 13 16  1  0
 14 17  1  0
 16 17  1  0
 15 18  1  0
 15 19  1  0
 18 20  1  0
 19 20  1  0
M  END
