diamond-x0371_0_A-mac-x0255
     RDKit          3D

 34 38  0  0  0  0  0  0  0  0999 V2000
   -8.1160   14.5190    2.8700 N   0  0  0  0  0  0  0  0  0  0  0  0
   -8.7630   15.4740    3.6160 C   0  0  0  0  0  0  0  0  0  0  0  0
   -9.4640   16.2880    3.0100 O   0  0  0  0  0  0  0  0  0  0  0  0
   -8.2770   14.2270    1.4670 C   0  0  0  0  0  0  0  0  0  0  0  0
   -7.0100   14.5600    0.7620 C   0  0  0  0  0  0  0  0  0  0  0  0
   -8.6190   15.4970    5.0540 C   0  0  0  0  0  0  0  0  0  0  0  0
   -5.7870   14.5860    1.3980 N   0  0  0  0  0  0  0  0  0  0  0  0
   -6.8740   14.8660   -0.5140 N   0  0  0  0  0  0  0  0  0  0  0  0
   -8.0300   14.4580    5.7130 O   0  0  0  0  0  0  0  0  0  0  0  0
   -8.9980   16.4570    5.9740 C   0  0  0  0  0  0  0  0  0  0  0  0
   -5.5320   15.0950   -0.7000 C   0  0  0  0  0  0  0  0  0  0  0  0
   -4.8310   14.9300    0.4850 C   0  0  0  0  0  0  0  0  0  0  0  0
   -8.6170   15.9700    7.2500 C   0  0  0  0  0  0  0  0  0  0  0  0
   -8.0300   14.7490    7.0330 C   0  0  0  0  0  0  0  0  0  0  0  0
   -3.4500   15.0950    0.5990 C   0  0  0  0  0  0  0  0  0  0  0  0
   -4.8310   15.4510   -1.8550 C   0  0  0  0  0  0  0  0  0  0  0  0
   -2.7440   15.4540   -0.5660 C   0  0  0  0  0  0  0  0  0  0  0  0
   -3.4390   15.6260   -1.7780 C   0  0  0  0  0  0  0  0  0  0  0  0
   -1.2380   15.6460   -0.5050 C   0  0  0  0  0  0  0  0  0  0  0  0
   -0.4240   14.8170   -1.5100 C   0  0  0  0  0  0  0  0  0  0  0  0
    0.0970   13.4950   -0.9470 C   0  0  0  0  0  0  0  0  0  0  0  0
    1.1710   13.0060   -1.7630 O   0  0  0  0  0  0  0  0  0  0  0  0
    0.8220   12.1990   -2.7980 C   0  0  0  0  0  0  0  0  0  0  0  0
    0.2100   11.1440   -2.6730 O   0  0  0  0  0  0  0  0  0  0  0  0
    1.2950   12.7590   -4.1230 C   0  0  0  0  0  0  0  0  0  0  0  0
    0.6200   14.0540   -4.4650 C   0  0  0  0  0  0  0  0  0  0  0  0
    1.1930   15.2970   -4.6250 C   0  0  0  0  0  0  0  0  0  0  0  0
   -1.0700   14.1170   -4.7140 S   0  0  0  0  0  0  0  0  0  0  0  0
    0.2460   16.3180   -4.9620 C   0  0  0  0  0  0  0  0  0  0  0  0
   -1.0520   15.8060   -5.0420 C   0  0  0  0  0  0  0  0  0  0  0  0
    0.4380   17.6950   -5.2090 C   0  0  0  0  0  0  0  0  0  0  0  0
   -2.1530   16.6270   -5.3640 C   0  0  0  0  0  0  0  0  0  0  0  0
   -0.6500   18.5080   -5.5300 C   0  0  0  0  0  0  0  0  0  0  0  0
   -1.9250   17.9830   -5.6070 C   0  0  0  0  0  0  0  0  0  0  0  0
  1  2  1  0
  2  3  2  0
  1  4  1  0
  4  5  1  0
  2  6  1  0
  5  7  1  0
  5  8  2  0
  6  9  1  0
  6 10  2  0
  8 11  1  0
  7 12  1  0
 11 12  2  0
 10 13  1  0
  9 14  1  0
 13 14  2  0
 12 15  1  0
 11 16  1  0
 15 17  2  0
 16 18  2  0
 17 18  1  0
 17 19  1  0
 19 20  1  0
 20 21  1  0
 21 22  1  0
 22 23  1  0
 23 24  2  0
 23 25  1  0
 25 26  1  0
 26 27  2  0
 26 28  1  0
 27 29  1  0
 28 30  1  0
 29 30  2  0
 29 31  1  0
 30 32  1  0
 31 33  2  0
 32 34  2  0
 33 34  1  0
M  END
