diamond-x0910_0_A-mac-x0441
     RDKit          3D

 24 26  0  0  0  0  0  0  0  0999 V2000
   -2.3600   14.4900   -1.9740 N   0  0  0  0  0  0  0  0  0  0  0  0
   -1.7990   14.5240   -0.7490 C   0  0  0  0  0  0  0  0  0  0  0  0
   -2.3310   15.0400    0.3370 N   0  0  0  0  0  0  0  0  0  0  0  0
   -0.5600   14.0150   -0.4340 N   0  0  0  0  0  0  0  0  0  0  0  0
    0.4420   13.3330   -1.2480 C   0  0  0  0  0  0  0  0  0  0  0  0
   -1.4480   14.8840    1.3700 N   0  0  0  0  0  0  0  0  0  0  0  0
   -0.4010   14.2730    0.9000 C   0  0  0  0  0  0  0  0  0  0  0  0
    0.4800   13.5520   -2.6790 N   0  0  0  0  0  0  0  0  0  0  0  0
    0.5950   12.6110   -3.5610 C   0  0  0  0  0  0  0  0  0  0  0  0
    0.6730   11.3240   -3.1310 O   0  0  0  0  0  0  0  0  0  0  0  0
    0.6640   12.8780   -5.0490 C   0  0  0  0  0  0  0  0  0  0  0  0
    0.2900   11.8320   -5.9920 N   0  0  0  0  0  0  0  0  0  0  0  0
    1.0190   11.7980   -7.1330 N   0  0  0  0  0  0  0  0  0  0  0  0
   -0.6750   10.8650   -5.9650 C   0  0  0  0  0  0  0  0  0  0  0  0
    0.4990   10.7890   -7.8580 C   0  0  0  0  0  0  0  0  0  0  0  0
   -0.5570   10.1780   -7.1570 C   0  0  0  0  0  0  0  0  0  0  0  0
   -1.6810   10.5590   -4.9170 C   0  0  0  0  0  0  0  0  0  0  0  0
    0.9600   10.3590   -9.2310 C   0  0  0  0  0  0  0  0  0  0  0  0
   -1.4170    9.0320   -7.5580 C   0  0  0  0  0  0  0  0  0  0  0  0
   -2.8450    9.7860   -5.5730 C   0  0  0  0  0  0  0  0  0  0  0  0
    1.6540    9.1910   -9.1930 F   0  0  0  0  0  0  0  0  0  0  0  0
   -0.1010   10.1300  -10.0400 F   0  0  0  0  0  0  0  0  0  0  0  0
    1.6980   11.2560   -9.9130 F   0  0  0  0  0  0  0  0  0  0  0  0
   -2.3460    8.5930   -6.4120 C   0  0  0  0  0  0  0  0  0  0  0  0
  1  2  1  0
  2  3  2  0
  2  4  1  0
  4  5  1  0
  3  6  1  0
  4  7  1  0
  6  7  2  0
  5  8  1  0
  8  9  2  3
  9 10  1  0
  9 11  1  0
 11 12  1  0
 12 13  1  0
 12 14  1  0
 13 15  2  0
 14 16  2  0
 15 16  1  0
 14 17  1  0
 15 18  1  0
 16 19  1  0
 17 20  1  0
 18 21  1  0
 18 22  1  0
 18 23  1  0
 19 24  1  0
 20 24  1  0
M  END
