diamond-x0524_0_A-diamond-x0766_0_A
     RDKit          3D

 33 36  0  0  0  0  0  0  0  0999 V2000
   -0.5950    8.5090   -8.4440 N   0  0  0  0  0  0  0  0  0  0  0  0
   -0.8760    9.5100   -7.5680 C   0  0  0  0  0  0  0  0  0  0  0  0
   -1.6780    9.0970   -6.3340 C   0  0  0  0  0  0  0  0  0  0  0  0
    0.5330    8.4910   -9.2730 C   0  0  0  0  0  0  0  0  0  0  0  0
   -0.4540   10.7100   -7.7820 N   0  0  0  0  0  0  0  0  0  0  0  0
    1.7100    7.7880   -9.0080 C   0  0  0  0  0  0  0  0  0  0  0  0
    0.4710    9.2420  -10.4470 C   0  0  0  0  0  0  0  0  0  0  0  0
   -0.6900   11.7320   -6.8010 C   0  0  0  0  0  0  0  0  0  0  0  0
    2.7890    7.8330   -9.9030 C   0  0  0  0  0  0  0  0  0  0  0  0
    1.5440    9.2890  -11.3380 C   0  0  0  0  0  0  0  0  0  0  0  0
    0.1240   11.1910   -5.6580 C   0  0  0  0  0  0  0  0  0  0  0  0
    2.7190    8.5830  -11.0790 C   0  0  0  0  0  0  0  0  0  0  0  0
    3.7680    8.6570  -12.0030 N   0  0  0  0  0  0  0  0  0  0  0  0
   -0.6230   11.1020   -4.3670 C   0  0  0  0  0  0  0  0  0  0  0  0
    0.2200   11.0490   -3.2090 O   0  0  0  0  0  0  0  0  0  0  0  0
    4.0350    9.5240  -13.0740 C   0  0  0  0  0  0  0  0  0  0  0  0
    0.6850   12.2460   -2.8220 C   0  0  0  0  0  0  0  0  0  0  0  0
    3.2540   10.6800  -13.2600 C   0  0  0  0  0  0  0  0  0  0  0  0
    5.0680    9.2770  -13.9750 C   0  0  0  0  0  0  0  0  0  0  0  0
    1.3460   12.4630   -1.8270 O   0  0  0  0  0  0  0  0  0  0  0  0
    3.5080   11.5550  -14.3170 C   0  0  0  0  0  0  0  0  0  0  0  0
    5.3240   10.1490  -15.0350 C   0  0  0  0  0  0  0  0  0  0  0  0
    0.2930   13.3490   -3.7660 C   0  0  2  0  0  0  0  0  0  0  0  0
    4.5420   11.2880  -15.2040 C   0  0  0  0  0  0  0  0  0  0  0  0
    1.3360   13.7700   -4.8200 C   0  0  0  0  0  0  0  0  0  0  0  0
   -0.0210   14.6050   -2.9520 C   0  0  1  0  0  0  0  0  0  0  0  0
    1.5040   15.2750   -4.6400 C   0  0  0  0  0  0  0  0  0  0  0  0
    0.2550   15.7370   -3.9200 C   0  0  0  0  0  0  0  0  0  0  0  0
   -1.3650   14.6630   -2.2470 C   0  0  0  0  0  0  0  0  0  0  0  0
   -2.6450   14.7080   -2.7790 C   0  0  0  0  0  0  0  0  0  0  0  0
   -1.4270   14.6830   -0.8130 C   0  0  0  0  0  0  0  0  0  0  0  0
   -2.7090   14.7450   -0.3210 C   0  0  0  0  0  0  0  0  0  0  0  0
   -3.8630   14.7780   -1.5750 S   0  0  0  0  0  0  0  0  0  0  0  0
  1  2  1  0
  2  3  1  0
  1  4  1  0
  2  5  2  3
  4  6  2  0
  4  7  1  0
  5  8  1  0
  6  9  1  0
  7 10  2  0
  8 11  1  0
  9 12  2  0
 10 12  1  0
 12 13  1  0
 11 14  1  0
 14 15  1  0
 13 16  1  0
 15 17  1  0
 16 18  2  0
 16 19  1  0
 17 20  2  0
 18 21  1  0
 19 22  2  0
 23 17  1  1
 21 24  2  0
 22 24  1  0
 23 25  1  0
 23 26  1  0
 25 27  1  0
 26 28  1  0
 27 28  1  0
 26 29  1  6
 29 30  2  0
 29 31  1  0
 31 32  2  0
 30 33  1  0
 32 33  1  0
M  END
