diamond-x0967_0_A-mac-x0277
     RDKit          3D

 24 26  0  0  0  0  0  0  0  0999 V2000
   -1.2680   18.3540   -5.2220 Cl  0  0  0  0  0  0  0  0  0  0  0  0
   -0.5490   16.8090   -4.9390 C   0  0  0  0  0  0  0  0  0  0  0  0
   -1.2840   15.6240   -4.9980 C   0  0  0  0  0  0  0  0  0  0  0  0
    0.8120   16.7750   -4.6450 C   0  0  0  0  0  0  0  0  0  0  0  0
   -2.7520   15.5540   -5.2960 C   0  0  0  0  0  0  0  0  0  0  0  0
   -0.6250   14.4080   -4.7620 C   0  0  0  0  0  0  0  0  0  0  0  0
    1.4510   15.5520   -4.4090 C   0  0  0  0  0  0  0  0  0  0  0  0
   -3.5660   15.3460   -4.0150 C   0  0  0  0  0  0  0  0  0  0  0  0
    0.7350   14.3580   -4.4680 C   0  0  0  0  0  0  0  0  0  0  0  0
    1.4060   13.0320   -4.2160 C   0  0  0  0  0  0  0  0  0  0  0  0
   -2.8640   14.6520   -2.8490 C   0  0  0  0  0  0  0  0  0  0  0  0
    0.9910   12.4010   -2.9010 C   0  0  0  0  0  0  0  0  0  0  0  0
   -3.6750   14.7340   -1.5800 C   0  0  0  0  0  0  0  0  0  0  0  0
    0.3790   11.1990   -3.0580 O   0  0  0  0  0  0  0  0  0  0  0  0
    1.1600   12.8820   -1.7980 O   0  0  0  0  0  0  0  0  0  0  0  0
   -5.0100   14.5670   -1.7070 N   0  0  0  0  0  0  0  0  0  0  0  0
   -3.0670   14.9680   -0.3560 C   0  0  0  0  0  0  0  0  0  0  0  0
   -5.7940   14.6160   -0.6360 C   0  0  0  0  0  0  0  0  0  0  0  0
   -3.8710   15.0260    0.7730 C   0  0  0  0  0  0  0  0  0  0  0  0
   -7.1060   14.4360   -0.8060 N   0  0  0  0  0  0  0  0  0  0  0  0
   -5.2540   14.8460    0.6370 C   0  0  0  0  0  0  0  0  0  0  0  0
   -6.1260   14.8850    1.7310 C   0  0  0  0  0  0  0  0  0  0  0  0
   -7.9210   14.4720    0.2690 C   0  0  0  0  0  0  0  0  0  0  0  0
   -7.4800   14.6910    1.5530 C   0  0  0  0  0  0  0  0  0  0  0  0
  1  2  1  0
  2  3  2  0
  2  4  1  0
  3  5  1  0
  3  6  1  0
  4  7  2  0
  5  8  1  0
  6  9  2  0
  7  9  1  0
  9 10  1  0
  8 11  1  0
 10 12  1  0
 11 13  1  0
 12 14  1  0
 12 15  2  0
 13 16  2  0
 13 17  1  0
 16 18  1  0
 17 19  2  0
 18 20  2  0
 18 21  1  0
 19 21  1  0
 21 22  2  0
 20 23  1  0
 22 24  1  0
 23 24  2  0
M  END
