diamond-x0465_0_A-mac-x0379
     RDKit          3D

 23 24  0  0  0  0  0  0  0  0999 V2000
    1.9950   13.2520   -4.9920 C   0  0  0  0  0  0  0  0  0  0  0  0
    0.7010   12.5080   -4.6990 C   0  0  1  0  0  0  0  0  0  0  0  0
    0.6470   11.3470   -5.5320 O   0  0  0  0  0  0  0  0  0  0  0  0
    0.7030   12.0660   -3.2280 C   0  0  0  0  0  0  0  0  0  0  0  0
    0.8660   12.7800   -2.1710 N   0  0  0  0  0  0  0  0  0  0  0  0
    0.5080   10.7560   -2.9850 O   0  0  0  0  0  0  0  0  0  0  0  0
   -0.5080   10.7000   -5.8690 C   0  0  0  0  0  0  0  0  0  0  0  0
    1.0730   14.2190   -2.2760 C   0  0  0  0  0  0  0  0  0  0  0  0
   -0.6450    9.5470   -6.6450 C   0  0  0  0  0  0  0  0  0  0  0  0
   -1.6650   11.2840   -5.3650 C   0  0  0  0  0  0  0  0  0  0  0  0
    0.4060    8.9220   -7.1860 F   0  0  0  0  0  0  0  0  0  0  0  0
   -0.0690   15.0770   -2.1580 O   0  0  0  0  0  0  0  0  0  0  0  0
   -1.8950    8.9860   -6.8950 C   0  0  0  0  0  0  0  0  0  0  0  0
   -2.9250   10.7290   -5.6160 C   0  0  0  0  0  0  0  0  0  0  0  0
   -1.0930   14.8760   -3.0400 C   0  0  0  0  0  0  0  0  0  0  0  0
   -3.0390    9.5770   -6.3770 C   0  0  0  0  0  0  0  0  0  0  0  0
   -0.9570   14.7160   -4.2460 O   0  0  0  0  0  0  0  0  0  0  0  0
   -2.3810   14.9060   -2.3790 C   0  0  0  0  0  0  0  0  0  0  0  0
   -3.6070   15.0640   -2.9870 C   0  0  0  0  0  0  0  0  0  0  0  0
   -2.6210   14.7580   -0.6830 S   0  0  0  0  0  0  0  0  0  0  0  0
   -4.3110   14.9320   -0.9080 C   0  0  0  0  0  0  0  0  0  0  0  0
   -4.7040   15.0780   -2.1510 N   0  0  0  0  0  0  0  0  0  0  0  0
   -5.2250   14.9100    0.2640 C   0  0  0  0  0  0  0  0  0  0  0  0
  2  1  1  6
  2  3  1  0
  2  4  1  0
  4  5  2  3
  4  6  1  0
  3  7  1  0
  5  8  1  0
  7  9  2  0
  7 10  1  0
  9 11  1  0
  8 12  1  0
  9 13  1  0
 10 14  2  0
 12 15  1  0
 13 16  2  0
 14 16  1  0
 15 17  2  0
 15 18  1  0
 18 19  2  0
 18 20  1  0
 20 21  1  0
 19 22  1  0
 21 22  2  0
 21 23  1  0
M  END
