diamond-x0158_0_B-diamond-x0918_4_B
     RDKit          3D

 23 24  0  0  0  0  0  0  0  0999 V2000
   17.3540   17.8690   11.2460 C   0  0  0  0  0  0  0  0  0  0  0  0
   16.7050   17.2020   12.4510 C   0  0  2  0  0  0  0  0  0  0  0  0
   16.4040   15.8620   12.0770 O   0  0  0  0  0  0  0  0  0  0  0  0
   15.4360   17.9090   12.9160 C   0  0  0  0  0  0  0  0  0  0  0  0
   15.8890   15.0570   13.0420 C   0  0  0  0  0  0  0  0  0  0  0  0
   14.9980   19.0690   12.0320 C   0  0  0  0  0  0  0  0  0  0  0  0
   15.9240   15.2760   14.2450 O   0  0  0  0  0  0  0  0  0  0  0  0
   15.2750   13.8640   12.3290 C   0  0  0  0  0  0  0  0  0  0  0  0
   13.9660   19.9400   12.6640 C   0  0  0  0  0  0  0  0  0  0  0  0
   14.3860   13.0080   13.1300 N   0  0  0  0  0  0  0  0  0  0  0  0
   12.8370   19.3480   13.1000 N   0  0  0  0  0  0  0  0  0  0  0  0
   14.2070   21.3010   12.7910 C   0  0  0  0  0  0  0  0  0  0  0  0
   14.0480   11.7860   12.3730 C   0  0  0  0  0  0  0  0  0  0  0  0
   13.2070   13.7760   13.5490 C   0  0  0  0  0  0  0  0  0  0  0  0
   13.2490   22.0950   13.3980 C   0  0  0  0  0  0  0  0  0  0  0  0
   11.9200   20.1370   13.6820 C   0  0  0  0  0  0  0  0  0  0  0  0
   13.4560   23.4700   13.5550 N   0  0  0  0  0  0  0  0  0  0  0  0
   13.1780   10.7770   13.1080 C   0  0  0  0  0  0  0  0  0  0  0  0
   12.4220   12.9930   14.5660 C   0  0  0  0  0  0  0  0  0  0  0  0
   12.0860   21.5020   13.8520 C   0  0  0  0  0  0  0  0  0  0  0  0
   11.7230   11.5790   13.7400 S   0  0  0  0  0  0  0  0  0  0  0  0
   11.1370   10.7230   14.7570 O   0  0  0  0  0  0  0  0  0  0  0  0
   10.9460   12.0090   12.5900 O   0  0  0  0  0  0  0  0  0  0  0  0
  2  1  1  6
  2  3  1  0
  2  4  1  0
  3  5  1  0
  4  6  1  0
  5  7  2  0
  5  8  1  0
  6  9  1  0
  8 10  1  0
  9 11  2  0
  9 12  1  0
 10 13  1  0
 10 14  1  0
 12 15  2  0
 11 16  1  0
 15 17  1  0
 13 18  1  0
 14 19  1  0
 15 20  1  0
 16 20  2  0
 21 18  1  0
 19 21  1  0
 21 22  2  0
 21 23  2  0
M  END
