diamond-x0587_0_A-mac-x0337
     RDKit          3D

 21 22  0  0  0  0  0  0  0  0999 V2000
   -7.8530   14.7710    4.1490 N   0  0  0  0  0  0  0  0  0  0  0  0
   -8.3520   14.8290    2.8850 C   0  0  0  0  0  0  0  0  0  0  0  0
   -9.5580   14.9030    2.6730 O   0  0  0  0  0  0  0  0  0  0  0  0
   -7.3890   14.8250    1.7850 C   0  0  0  0  0  0  0  0  0  0  0  0
   -7.8040   14.7480    0.4730 C   0  0  0  0  0  0  0  0  0  0  0  0
   -6.0280   14.9110    1.9630 C   0  0  0  0  0  0  0  0  0  0  0  0
   -6.9530   14.7640   -0.5790 N   0  0  0  0  0  0  0  0  0  0  0  0
   -5.1370   14.9310    0.9570 N   0  0  0  0  0  0  0  0  0  0  0  0
   -5.6330   14.8600   -0.2950 C   0  0  0  0  0  0  0  0  0  0  0  0
   -4.6260   14.8760   -1.4320 C   0  0  0  0  0  0  0  0  0  0  0  0
   -3.5550   13.9620   -0.9650 C   0  0  0  0  0  0  0  0  0  0  0  0
   -5.1540   14.2990   -2.5580 F   0  0  0  0  0  0  0  0  0  0  0  0
   -4.1620   16.0600   -1.8590 F   0  0  0  0  0  0  0  0  0  0  0  0
   -2.4910   14.2440   -0.3950 O   0  0  0  0  0  0  0  0  0  0  0  0
   -4.0080   12.6080   -1.3000 C   0  0  0  0  0  0  0  0  0  0  0  0
   -3.3490   11.7310   -2.1450 C   0  0  0  0  0  0  0  0  0  0  0  0
   -5.2280   12.2400   -0.7130 C   0  0  0  0  0  0  0  0  0  0  0  0
   -3.9160   10.4880   -2.4100 C   0  0  0  0  0  0  0  0  0  0  0  0
   -5.7930   11.0060   -0.9760 C   0  0  0  0  0  0  0  0  0  0  0  0
   -5.1410   10.1230   -1.8290 C   0  0  0  0  0  0  0  0  0  0  0  0
   -5.7470    8.7870   -2.1200 C   0  0  0  0  0  0  0  0  0  0  0  0
  1  2  1  0
  2  3  2  0
  2  4  1  0
  4  5  2  0
  4  6  1  0
  5  7  1  0
  6  8  2  0
  7  9  2  0
  8  9  1  0
  9 10  1  0
 10 11  1  0
 10 12  1  0
 10 13  1  0
 11 14  2  0
 11 15  1  0
 15 16  2  0
 15 17  1  0
 16 18  1  0
 17 19  2  0
 18 20  2  0
 19 20  1  0
 20 21  1  0
M  END
