diamond-x1012_0_A-mac-x0148
     RDKit          3D

 24 27  0  0  0  0  0  0  0  0999 V2000
   -0.1070   18.2810   -4.6460 N   0  0  0  0  0  0  0  0  0  0  0  0
   -1.0750   17.3450   -4.5920 C   0  0  0  0  0  0  0  0  0  0  0  0
   -2.2360   17.7170   -4.7140 O   0  0  0  0  0  0  0  0  0  0  0  0
   -0.6370   16.0440   -4.4080 N   0  0  0  0  0  0  0  0  0  0  0  0
   -1.5430   15.0060   -3.8670 C   0  0  1  0  0  0  0  0  0  0  0  0
    0.7830   15.6680   -4.2570 C   0  0  0  0  0  0  0  0  0  0  0  0
   -1.0880   14.6500   -2.2980 C   0  0  1  0  0  0  0  0  0  0  0  0
    0.9880   14.1750   -3.8510 C   0  0  0  0  0  0  0  0  0  0  0  0
   -3.0630   15.2460   -4.0850 C   0  0  0  0  0  0  0  0  0  0  0  0
   -1.3720   13.8240   -4.8880 C   0  0  0  0  0  0  0  0  0  0  0  0
    0.1800   13.7080   -2.5960 C   0  0  2  0  0  0  0  0  0  0  0  0
   -2.6530   13.6820   -5.6750 C   0  0  0  0  0  0  0  0  0  0  0  0
   -3.3740   14.8690   -5.4350 O   0  0  0  0  0  0  0  0  0  0  0  0
   -0.2780   15.5920   -1.4840 N   0  0  0  0  0  0  0  0  0  0  0  0
   -2.3870   14.5850   -1.3430 C   0  0  2  0  0  0  0  0  0  0  0  0
    0.1460   12.2270   -2.3890 C   0  0  0  0  0  0  0  0  0  0  0  0
    0.0670   15.0390   -0.1680 C   0  0  0  0  0  0  0  0  0  0  0  0
   -2.2550   15.4420   -0.0030 C   0  0  2  0  0  0  0  0  0  0  0  0
   -3.2130   13.4320   -0.8290 C   0  0  0  0  0  0  0  0  0  0  0  0
    0.1390   11.4540   -3.4830 O   0  0  0  0  0  0  0  0  0  0  0  0
    0.1370   11.7010   -1.3170 O   0  0  0  0  0  0  0  0  0  0  0  0
   -1.0210   15.3220    0.7180 N   0  0  0  0  0  0  0  0  0  0  0  0
   -3.4690   15.0540    0.7040 N   0  0  0  0  0  0  0  0  0  0  0  0
   -3.8030   13.7880    0.3310 C   0  0  0  0  0  0  0  0  0  0  0  0
  1  2  1  0
  2  3  2  0
  2  4  1  0
  5  4  1  0
  4  6  1  0
  5  7  1  0
  6  8  1  0
  5  9  1  1
  5 10  1  0
  7 11  1  0
  8 11  1  0
 10 12  1  0
  9 13  1  0
 12 13  1  0
  7 14  1  1
  7 15  1  0
 11 16  1  6
 14 17  1  0
 15 18  1  0
 15 19  1  1
 16 20  1  0
 16 21  2  0
 17 22  1  0
 18 22  1  1
 18 23  1  0
 19 24  2  0
 23 24  1  0
M  END
