diamond-x0910_1_A-diamond-x0689_0_A
     RDKit          3D

 14 15  0  0  0  0  0  0  0  0999 V2000
   -8.3310   13.8090    0.7810 N   0  0  0  0  0  0  0  0  0  0  0  0
   -7.2570   14.4740    0.3400 C   0  0  0  0  0  0  0  0  0  0  0  0
   -7.1530   15.0110   -0.9160 N   0  0  0  0  0  0  0  0  0  0  0  0
   -6.1820   14.7150    1.0000 N   0  0  0  0  0  0  0  0  0  0  0  0
   -5.9680   15.6290   -1.0910 N   0  0  0  0  0  0  0  0  0  0  0  0
   -5.4270   15.4160    0.1090 C   0  0  0  0  0  0  0  0  0  0  0  0
   -4.1010   15.8760    0.5180 C   0  0  0  0  0  0  0  0  0  0  0  0
   -3.4840   14.9320    1.3980 N   0  0  0  0  0  0  0  0  0  0  0  0
   -2.2440   14.6770    0.9520 C   0  0  0  0  0  0  0  0  0  0  0  0
   -2.0830   14.7110   -0.3770 N   0  0  0  0  0  0  0  0  0  0  0  0
   -1.3170   14.4280    1.8310 N   0  0  0  0  0  0  0  0  0  0  0  0
   -0.8540   14.4750   -0.8300 C   0  0  0  0  0  0  0  0  0  0  0  0
   -0.1220   14.1980    1.3460 C   0  0  0  0  0  0  0  0  0  0  0  0
    0.1920   14.2070    0.0000 C   0  0  0  0  0  0  0  0  0  0  0  0
  1  2  1  0
  2  3  1  0
  2  4  2  0
  3  5  1  0
  4  6  1  0
  5  6  2  0
  6  7  1  0
  7  8  1  0
  8  9  1  0
  9 10  2  0
  9 11  1  0
 10 12  1  0
 11 13  2  0
 12 14  2  0
 13 14  1  0
M  END
