diamond-x0465_0_A-diamond-x0591_0_A
     RDKit          3D

 28 29  0  0  0  0  0  0  0  0999 V2000
    2.3160   12.9900   -4.8490 C   0  0  0  0  0  0  0  0  0  0  0  0
    0.8640   12.5420   -4.6090 C   0  0  1  0  0  0  0  0  0  0  0  0
    0.6720   11.5120   -5.6240 O   0  0  0  0  0  0  0  0  0  0  0  0
    0.7820   12.1310   -3.1200 C   0  0  0  0  0  0  0  0  0  0  0  0
   -0.0290   13.7810   -4.8920 C   0  0  0  0  0  0  0  0  0  0  0  0
    1.0130   12.8390   -2.1530 O   0  0  0  0  0  0  0  0  0  0  0  0
    0.4290   10.8420   -2.9080 O   0  0  0  0  0  0  0  0  0  0  0  0
   -1.4870   13.5180   -4.9930 N   0  0  0  0  0  0  0  0  0  0  0  0
   -0.5020   10.8020   -5.7070 C   0  0  0  0  0  0  0  0  0  0  0  0
   -2.3930   14.7410   -5.0340 S   0  0  1  0  0  0  0  0  0  0  0  0
   -0.6430    9.7710   -6.6400 C   0  0  0  0  0  0  0  0  0  0  0  0
   -1.5720   11.1010   -4.8570 C   0  0  0  0  0  0  0  0  0  0  0  0
    0.3680    9.4600   -7.4660 F   0  0  0  0  0  0  0  0  0  0  0  0
   -1.2380   15.9370   -4.8220 N   0  0  0  0  0  0  0  0  0  0  0  0
   -3.1330   15.2340   -6.1720 O   0  0  0  0  0  0  0  0  0  0  0  0
   -1.8240    9.0470   -6.7370 C   0  0  0  0  0  0  0  0  0  0  0  0
   -2.7620   10.3760   -4.9520 C   0  0  0  0  0  0  0  0  0  0  0  0
   -3.4650   14.7210   -3.6380 C   0  0  0  0  0  0  0  0  0  0  0  0
   -2.8890    9.3480   -5.8910 C   0  0  0  0  0  0  0  0  0  0  0  0
   -2.9880   14.5800   -2.3290 C   0  0  0  0  0  0  0  0  0  0  0  0
   -4.8210   14.8560   -3.8790 C   0  0  0  0  0  0  0  0  0  0  0  0
   -3.8990   14.5870   -1.2640 C   0  0  0  0  0  0  0  0  0  0  0  0
   -5.7280   14.8670   -2.8250 C   0  0  0  0  0  0  0  0  0  0  0  0
   -5.2730   14.7330   -1.5120 C   0  0  0  0  0  0  0  0  0  0  0  0
   -6.2320   14.7440   -0.3800 C   0  0  0  0  0  0  0  0  0  0  0  0
   -5.7000   14.5690    0.8760 N   0  0  0  0  0  0  0  0  0  0  0  0
   -7.4320   14.8980   -0.5900 O   0  0  0  0  0  0  0  0  0  0  0  0
   -6.5810   14.4940    2.0120 C   0  0  0  0  0  0  0  0  0  0  0  0
  2  1  1  1
  2  3  1  0
  2  4  1  0
  2  5  1  0
  4  6  2  0
  4  7  1  0
  5  8  1  0
  3  9  1  0
  8 10  2  0
  9 11  2  0
  9 12  1  0
 11 13  1  0
 10 14  1  1
 10 15  2  0
 11 16  1  0
 12 17  2  0
 10 18  1  0
 16 19  2  0
 17 19  1  0
 18 20  2  0
 18 21  1  0
 20 22  1  0
 21 23  2  0
 22 24  2  0
 23 24  1  0
 24 25  1  0
 25 26  1  0
 25 27  2  0
 26 28  1  0
M  END
