diamond-x0849_0_A-mac-x0527
     RDKit          3D

 20 22  0  0  0  0  0  0  0  0999 V2000
   -3.1130   15.1450   -2.5830 C   0  0  0  0  0  0  0  0  0  0  0  0
   -1.8740   14.6730   -2.9480 N   0  0  0  0  0  0  0  0  0  0  0  0
   -1.3390   14.7640   -4.2800 C   0  0  0  0  0  0  0  0  0  0  0  0
   -3.9810   15.5370   -3.3440 O   0  0  0  0  0  0  0  0  0  0  0  0
   -3.2910   15.1190   -1.1160 C   0  0  0  0  0  0  0  0  0  0  0  0
   -2.1860   14.8280   -0.2930 C   0  0  0  0  0  0  0  0  0  0  0  0
   -4.5390   15.3790   -0.5660 C   0  0  0  0  0  0  0  0  0  0  0  0
   -2.4040   14.8040    1.0810 C   0  0  0  0  0  0  0  0  0  0  0  0
   -4.6240   15.3270    0.8020 C   0  0  0  0  0  0  0  0  0  0  0  0
   -0.8830   14.5630   -0.7630 C   0  0  0  0  0  0  0  0  0  0  0  0
   -1.1000   13.3750   -4.8000 C   0  0  0  0  0  0  0  0  0  0  0  0
   -3.5910   15.0480    1.6050 N   0  0  0  0  0  0  0  0  0  0  0  0
   -1.4280   14.5340    1.9220 N   0  0  0  0  0  0  0  0  0  0  0  0
    0.1250   14.2910    0.1230 C   0  0  0  0  0  0  0  0  0  0  0  0
   -1.9580   12.3270   -4.4340 C   0  0  0  0  0  0  0  0  0  0  0  0
   -0.0200   13.1030   -5.6570 C   0  0  0  0  0  0  0  0  0  0  0  0
   -0.2030   14.2880    1.4570 C   0  0  0  0  0  0  0  0  0  0  0  0
   -1.7450   11.0370   -4.9140 C   0  0  0  0  0  0  0  0  0  0  0  0
    0.1910   11.8130   -6.1370 C   0  0  0  0  0  0  0  0  0  0  0  0
   -0.6720   10.7790   -5.7670 C   0  0  0  0  0  0  0  0  0  0  0  0
  1  2  1  0
  2  3  1  0
  1  4  2  0
  1  5  1  0
  5  6  1  0
  5  7  2  0
  6  8  2  0
  7  9  1  0
  6 10  1  0
  3 11  1  0
  8 12  1  0
  9 12  2  0
  8 13  1  0
 10 14  2  0
 11 15  2  0
 11 16  1  0
 13 17  2  0
 14 17  1  0
 15 18  1  0
 16 19  2  0
 18 20  2  0
 19 20  1  0
M  END
