diamond-x0900_0_A-mac-x0347
     RDKit          3D

 14 15  0  0  0  0  0  0  0  0999 V2000
   -6.7140   14.7070   -0.6460 O   0  0  0  0  0  0  0  0  0  0  0  0
   -5.5420   14.5160   -0.3450 C   0  0  0  0  0  0  0  0  0  0  0  0
   -4.5670   13.9390   -1.1270 N   0  0  0  0  0  0  0  0  0  0  0  0
   -4.8270   14.8490    0.9190 C   0  0  0  0  0  0  0  0  0  0  0  0
   -3.5100   15.3970    0.3420 C   0  0  0  0  0  0  0  0  0  0  0  0
   -3.3660   14.7490   -1.0750 C   0  0  1  0  0  0  0  0  0  0  0  0
   -2.0230   13.9740   -1.2520 C   0  0  0  0  0  0  0  0  0  0  0  0
   -3.4450   15.7090   -2.2710 C   0  0  0  0  0  0  0  0  0  0  0  0
   -1.0580   14.7360   -2.2100 C   0  0  1  0  0  0  0  0  0  0  0  0
   -3.0910   15.0870   -3.5620 N   0  0  0  0  0  0  0  0  0  0  0  0
    0.3170   14.0930   -2.3100 C   0  0  0  0  0  0  0  0  0  0  0  0
   -1.6520   14.8450   -3.6220 C   0  0  0  0  0  0  0  0  0  0  0  0
    1.0330   14.5410   -3.3700 O   0  0  0  0  0  0  0  0  0  0  0  0
    0.7770   13.2670   -1.5490 O   0  0  0  0  0  0  0  0  0  0  0  0
  1  2  2  0
  2  3  1  0
  2  4  1  0
  4  5  1  0
  6  3  1  0
  6  5  1  1
  6  7  1  0
  6  8  1  0
  7  9  1  0
  8 10  1  0
  9 11  1  6
  9 12  1  0
 10 12  1  0
 11 13  1  0
 11 14  2  0
M  END
