diamond-x0926_0_A-mac-x0567
     RDKit          3D

 11 12  0  0  0  0  0  0  0  0999 V2000
   -6.4630   15.1450   -0.6910 O   0  0  0  0  0  0  0  0  0  0  0  0
   -5.2430   15.1750   -0.5280 C   0  0  0  0  0  0  0  0  0  0  0  0
   -4.7300   15.1250    0.8550 C   0  0  0  0  0  0  0  0  0  0  0  0
   -4.3160   15.2380   -1.5650 N   0  0  0  0  0  0  0  0  0  0  0  0
   -3.0710   15.0580   -1.3900 N   0  0  0  0  0  0  0  0  0  0  0  0
   -3.4240   14.9540    0.9670 C   0  0  0  0  0  0  0  0  0  0  0  0
   -2.5630   14.8330   -0.1460 C   0  0  0  0  0  0  0  0  0  0  0  0
   -2.6490   14.8550    2.0660 N   0  0  0  0  0  0  0  0  0  0  0  0
   -1.3390   14.4920    0.3820 C   0  0  0  0  0  0  0  0  0  0  0  0
   -1.5020   14.4150    1.7430 N   0  0  0  0  0  0  0  0  0  0  0  0
   -0.1320   14.2530   -0.2680 N   0  0  0  0  0  0  0  0  0  0  0  0
  1  2  2  0
  2  3  1  0
  2  4  1  0
  4  5  2  0
  3  6  2  0
  5  7  1  0
  6  7  1  0
  6  8  1  0
  7  9  2  0
  8 10  2  0
  9 10  1  0
  9 11  1  0
M  END
