diamond-x0950_1_A-mac-x0124
     RDKit          3D

 18 19  0  0  0  0  0  0  0  0999 V2000
    1.0820   13.8960   -5.0930 C   0  0  0  0  0  0  0  0  0  0  0  0
    1.3730   12.4920   -4.6100 C   0  0  2  0  0  0  0  0  0  0  0  0
    0.7260   11.6100   -5.5320 O   0  0  0  0  0  0  0  0  0  0  0  0
    0.9350   12.1590   -3.1690 C   0  0  0  0  0  0  0  0  0  0  0  0
    0.2050   11.2060   -2.8920 O   0  0  0  0  0  0  0  0  0  0  0  0
    1.4510   13.0090   -2.2440 O   0  0  0  0  0  0  0  0  0  0  0  0
    1.1810   14.4170   -2.4000 C   0  0  0  0  0  0  0  0  0  0  0  0
   -0.1550   14.6500   -3.1230 C   0  0  0  0  0  0  0  0  0  0  0  0
   -1.3060   14.7920   -2.2460 N   0  0  0  0  0  0  0  0  0  0  0  0
   -2.6020   14.9970   -2.6750 C   0  0  0  0  0  0  0  0  0  0  0  0
   -1.2720   14.7430   -0.8820 C   0  0  0  0  0  0  0  0  0  0  0  0
   -3.4050   15.0840   -1.5560 C   0  0  0  0  0  0  0  0  0  0  0  0
   -2.5660   14.9210   -0.4170 C   0  0  0  0  0  0  0  0  0  0  0  0
   -0.1750   14.5590   -0.1380 N   0  0  0  0  0  0  0  0  0  0  0  0
   -2.7390   14.9070    0.9680 C   0  0  0  0  0  0  0  0  0  0  0  0
   -0.4650   14.5540    1.1720 C   0  0  0  0  0  0  0  0  0  0  0  0
   -3.9720   15.0930    1.5650 N   0  0  0  0  0  0  0  0  0  0  0  0
   -1.6670   14.7080    1.7590 N   0  0  0  0  0  0  0  0  0  0  0  0
  2  1  1  6
  2  3  1  0
  2  4  1  0
  4  5  2  0
  4  6  1  0
  6  7  1  0
  7  8  1  0
  8  9  1  0
  9 10  1  0
  9 11  1  0
 10 12  2  0
 11 13  2  0
 12 13  1  0
 11 14  1  0
 13 15  1  0
 14 16  2  0
 15 17  1  0
 15 18  2  0
 16 18  1  0
M  END
