diamond-x0290_0_A-mac-x0357
     RDKit          3D

 23 24  0  0  0  0  0  0  0  0999 V2000
   -7.7010   13.8450    0.8420 N   0  0  0  0  0  0  0  0  0  0  0  0
   -8.6220   14.9680    0.7490 C   0  0  0  0  0  0  0  0  0  0  0  0
   -6.5290   14.1420    1.6940 C   0  0  0  0  0  0  0  0  0  0  0  0
   -5.2940   14.5280    0.8730 C   0  0  0  0  0  0  0  0  0  0  0  0
   -5.3510   14.5620   -0.3630 O   0  0  0  0  0  0  0  0  0  0  0  0
   -4.1060   14.8350    1.4750 N   0  0  0  0  0  0  0  0  0  0  0  0
   -2.8040   14.6700    0.9970 C   0  0  0  0  0  0  0  0  0  0  0  0
   -1.7240   14.8140    1.7850 N   0  0  0  0  0  0  0  0  0  0  0  0
   -2.6660   14.3380   -0.3330 C   0  0  0  0  0  0  0  0  0  0  0  0
   -0.4970   14.6330    1.2540 C   0  0  0  0  0  0  0  0  0  0  0  0
   -1.3920   14.1470   -0.8600 C   0  0  0  0  0  0  0  0  0  0  0  0
   -1.2100   13.7490   -2.2390 C   0  0  0  0  0  0  0  0  0  0  0  0
   -0.2810   14.3030   -0.0540 C   0  0  0  0  0  0  0  0  0  0  0  0
   -0.1900   12.9950   -2.6610 C   0  0  0  0  0  0  0  0  0  0  0  0
    0.8220   12.5800   -1.8120 O   0  0  0  0  0  0  0  0  0  0  0  0
   -0.0590   12.4900   -4.0220 C   0  0  0  0  0  0  0  0  0  0  0  0
    1.0820   12.5320   -4.8280 C   0  0  0  0  0  0  0  0  0  0  0  0
   -1.2440   11.9010   -4.5000 C   0  0  0  0  0  0  0  0  0  0  0  0
    2.3960   13.1390   -4.4040 C   0  0  0  0  0  0  0  0  0  0  0  0
   -1.3160   11.3490   -5.7700 C   0  0  0  0  0  0  0  0  0  0  0  0
    0.9700   11.9630   -6.0950 C   0  0  0  0  0  0  0  0  0  0  0  0
    2.0610   11.9870   -6.8670 O   0  0  0  0  0  0  0  0  0  0  0  0
   -0.1970   11.3790   -6.5770 C   0  0  0  0  0  0  0  0  0  0  0  0
  1  2  1  0
  1  3  1  0
  3  4  1  0
  4  5  2  0
  4  6  1  0
  6  7  1  0
  7  8  2  0
  7  9  1  0
  8 10  1  0
  9 11  2  0
 11 12  1  0
 10 13  2  0
 11 13  1  0
 12 14  2  3
 14 15  1  0
 14 16  1  0
 16 17  2  0
 16 18  1  0
 17 19  1  0
 18 20  2  0
 17 21  1  0
 21 22  1  0
 20 23  1  0
 21 23  2  0
M  END
