diamond-x0962_2_B-diamond-x0900_0_A
     RDKit          3D

 15 16  0  0  0  0  0  0  0  0999 V2000
  -11.2620   15.6550    1.5160 N   0  0  0  0  0  0  0  0  0  0  0  0
   -9.8990   16.1660    1.5500 C   0  0  2  0  0  0  0  0  0  0  0  0
   -9.1690   15.8140    0.2320 C   0  0  0  0  0  0  0  0  0  0  0  0
   -9.1930   15.6250    2.7600 C   0  0  0  0  0  0  0  0  0  0  0  0
   -8.0480   14.7750    0.3480 C   0  0  0  0  0  0  0  0  0  0  0  0
   -8.9510   16.3640    3.9000 N   0  0  0  0  0  0  0  0  0  0  0  0
   -8.6530   14.3870    3.0420 C   0  0  0  0  0  0  0  0  0  0  0  0
   -7.0350   14.9790   -0.6850 N   0  0  0  0  0  0  0  0  0  0  0  0
   -8.2890   15.5630    4.7870 C   0  0  0  0  0  0  0  0  0  0  0  0
   -8.1020   14.3600    4.2950 N   0  0  0  0  0  0  0  0  0  0  0  0
   -5.7980   14.9630   -0.3500 C   0  0  0  0  0  0  0  0  0  0  0  0
   -4.6670   15.1280   -1.1070 N   0  0  0  0  0  0  0  0  0  0  0  0
   -5.3870   14.7320    1.0950 C   0  0  0  0  0  0  0  0  0  0  0  0
   -3.9640   15.2840    1.0710 C   0  0  0  0  0  0  0  0  0  0  0  0
   -3.4940   14.8430   -0.3070 C   0  0  0  0  0  0  0  0  0  0  0  0
  2  1  1  6
  2  3  1  0
  2  4  1  0
  3  5  1  0
  4  6  1  0
  4  7  2  0
  5  8  1  0
  6  9  1  0
  7 10  1  0
  9 10  2  0
  8 11  2  3
 11 12  1  0
 11 13  1  0
 13 14  1  0
 12 15  1  0
 14 15  1  0
M  END
