diamond-x0967_0_A-mac-x0439
     RDKit          3D

 25 28  0  0  0  0  0  0  0  0999 V2000
   -3.0640   15.6490   -5.3500 C   0  0  0  0  0  0  0  0  0  0  0  0
   -3.6090   14.8430   -4.1470 C   0  0  0  0  0  0  0  0  0  0  0  0
   -2.7730   14.7590   -2.8710 C   0  0  0  0  0  0  0  0  0  0  0  0
   -1.7780   16.4730   -5.3660 C   0  0  0  0  0  0  0  0  0  0  0  0
   -0.4580   15.7870   -5.1000 C   0  0  2  0  0  0  0  0  0  0  0  0
   -1.7200   17.7930   -5.6660 C   0  0  0  0  0  0  0  0  0  0  0  0
   -3.6060   14.7970   -1.6130 C   0  0  0  0  0  0  0  0  0  0  0  0
   -0.1770   14.6840   -4.1530 C   0  0  0  0  0  0  0  0  0  0  0  0
    0.6220   16.7300   -4.6500 C   0  0  0  0  0  0  0  0  0  0  0  0
   -0.4690   18.5330   -5.7280 C   0  0  0  0  0  0  0  0  0  0  0  0
   -4.9420   14.6410   -1.7720 N   0  0  0  0  0  0  0  0  0  0  0  0
   -3.0200   14.9780   -0.3690 C   0  0  0  0  0  0  0  0  0  0  0  0
    0.9300   14.9950   -3.4760 C   0  0  0  0  0  0  0  0  0  0  0  0
    1.4160   16.2440   -3.7700 N   0  0  0  0  0  0  0  0  0  0  0  0
    0.6970   18.0670   -5.2540 C   0  0  0  0  0  0  0  0  0  0  0  0
    1.5890   14.0960   -2.4920 C   0  0  0  0  0  0  0  0  0  0  0  0
   -5.7460   14.6550   -0.7070 C   0  0  0  0  0  0  0  0  0  0  0  0
   -3.8420   15.0010    0.7450 C   0  0  0  0  0  0  0  0  0  0  0  0
    2.9420   14.2450   -2.4710 O   0  0  0  0  0  0  0  0  0  0  0  0
    0.9960   13.2920   -1.7940 O   0  0  0  0  0  0  0  0  0  0  0  0
   -7.0580   14.4910   -0.8980 N   0  0  0  0  0  0  0  0  0  0  0  0
   -5.2220   14.8360    0.5810 C   0  0  0  0  0  0  0  0  0  0  0  0
   -6.1120   14.8440    1.6660 C   0  0  0  0  0  0  0  0  0  0  0  0
   -7.8890   14.4950    0.1670 C   0  0  0  0  0  0  0  0  0  0  0  0
   -7.4660   14.6660    1.4630 C   0  0  0  0  0  0  0  0  0  0  0  0
  1  2  1  0
  2  3  1  0
  1  4  1  0
  4  5  1  0
  4  6  2  0
  3  7  1  0
  5  8  1  1
  5  9  1  0
  6 10  1  0
  7 11  2  0
  7 12  1  0
  8 13  2  0
  9 14  2  0
 13 14  1  0
  9 15  1  0
 10 15  2  0
 13 16  1  0
 11 17  1  0
 12 18  2  0
 16 19  1  0
 16 20  2  0
 17 21  2  0
 17 22  1  0
 18 22  1  0
 22 23  2  0
 21 24  1  0
 23 25  1  0
 24 25  2  0
M  END
