diamond-x0524_0_A-mac-x0137
     RDKit          3D

 35 39  0  0  0  0  0  0  0  0999 V2000
   -0.2590    8.3930   -8.0230 N   0  0  0  0  0  0  0  0  0  0  0  0
   -0.8660    9.4270   -7.3620 C   0  0  0  0  0  0  0  0  0  0  0  0
   -1.9830    9.0400   -6.4030 C   0  0  0  0  0  0  0  0  0  0  0  0
    0.6860    8.5000   -9.0490 C   0  0  0  0  0  0  0  0  0  0  0  0
   -0.5110   10.6470   -7.5490 N   0  0  0  0  0  0  0  0  0  0  0  0
    1.8310    7.7000   -8.9930 C   0  0  0  0  0  0  0  0  0  0  0  0
    0.5560    9.3680  -10.1350 C   0  0  0  0  0  0  0  0  0  0  0  0
   -1.1540   11.7350   -6.8550 C   0  0  0  0  0  0  0  0  0  0  0  0
    2.8130    7.7650   -9.9850 C   0  0  0  0  0  0  0  0  0  0  0  0
    1.5340    9.4330  -11.1290 C   0  0  0  0  0  0  0  0  0  0  0  0
    2.6750    8.6350  -11.0700 C   0  0  0  0  0  0  0  0  0  0  0  0
   -0.1990   12.2430   -5.7770 C   0  0  0  0  0  0  0  0  0  0  0  0
    3.6700    8.6760  -12.0480 N   0  0  0  0  0  0  0  0  0  0  0  0
   -0.8780   12.2180   -4.4070 C   0  0  2  0  0  0  0  0  0  0  0  0
    3.8950    9.5690  -13.1100 C   0  0  0  0  0  0  0  0  0  0  0  0
   -1.9210   13.3550   -4.2870 C   0  0  1  0  0  0  0  0  0  0  0  0
    0.1330   12.1550   -3.2470 C   0  0  0  0  0  0  0  0  0  0  0  0
    3.2000   10.7730  -13.2680 C   0  0  0  0  0  0  0  0  0  0  0  0
    4.8670    9.2360  -14.0530 C   0  0  0  0  0  0  0  0  0  0  0  0
   -2.9850   12.8790   -3.5790 F   0  0  0  0  0  0  0  0  0  0  0  0
   -1.4500   14.6510   -3.6010 C   0  0  0  0  0  0  0  0  0  0  0  0
    0.5670   13.5370   -2.7510 C   0  0  0  0  0  0  0  0  0  0  0  0
    3.4730   11.6190  -14.3420 C   0  0  0  0  0  0  0  0  0  0  0  0
    5.1450   10.0800  -15.1290 C   0  0  0  0  0  0  0  0  0  0  0  0
   -0.6040   14.3670   -2.4370 N   0  0  0  0  0  0  0  0  0  0  0  0
    4.4450   11.2740  -15.2710 C   0  0  0  0  0  0  0  0  0  0  0  0
   -1.0370   14.5030   -1.1140 C   0  0  0  0  0  0  0  0  0  0  0  0
   -0.1070   14.2880   -0.1230 N   0  0  0  0  0  0  0  0  0  0  0  0
   -2.2720   14.8460   -0.6880 C   0  0  0  0  0  0  0  0  0  0  0  0
   -0.4410   14.3140    1.2030 C   0  0  0  0  0  0  0  0  0  0  0  0
   -2.5310   14.9440    0.7660 C   0  0  0  0  0  0  0  0  0  0  0  0
   -3.5330   15.1990   -1.2660 C   0  0  0  0  0  0  0  0  0  0  0  0
   -1.5890   14.6170    1.6940 N   0  0  0  0  0  0  0  0  0  0  0  0
   -3.7360   15.3620    1.0280 N   0  0  0  0  0  0  0  0  0  0  0  0
   -4.3210   15.5030   -0.2220 C   0  0  0  0  0  0  0  0  0  0  0  0
  1  2  1  0
  2  3  1  0
  1  4  1  0
  2  5  2  3
  4  6  2  0
  4  7  1  0
  5  8  1  0
  6  9  1  0
  7 10  2  0
  9 11  2  0
 10 11  1  0
  8 12  1  0
 11 13  1  0
 14 12  1  6
 13 15  1  0
 14 16  1  0
 14 17  1  0
 15 18  2  0
 15 19  1  0
 16 20  1  1
 16 21  1  0
 17 22  1  0
 18 23  1  0
 19 24  2  0
 21 25  1  0
 22 25  1  0
 23 26  2  0
 24 26  1  0
 25 27  1  0
 27 28  1  0
 27 29  2  0
 28 30  1  0
 29 31  1  0
 29 32  1  0
 30 33  2  0
 31 33  1  0
 31 34  2  0
 32 35  2  0
 34 35  1  0
M  END
