diamond-x0128_0_A-mac-x0284
     RDKit          3D

 26 28  0  0  0  0  0  0  0  0999 V2000
   -6.4900   14.9200    2.7210 N   0  0  0  0  0  0  0  0  0  0  0  0
   -7.7030   15.2570    3.2890 C   0  0  0  0  0  0  0  0  0  0  0  0
   -8.7600   15.3820    2.6800 O   0  0  0  0  0  0  0  0  0  0  0  0
   -6.1950   14.8810    1.3680 C   0  0  0  0  0  0  0  0  0  0  0  0
   -7.5370   15.4520    4.6430 N   0  0  0  0  0  0  0  0  0  0  0  0
   -7.3260   14.7850    0.5570 C   0  0  0  0  0  0  0  0  0  0  0  0
   -4.9070   14.9380    0.8020 C   0  0  0  0  0  0  0  0  0  0  0  0
   -7.2120   14.7490   -0.8050 C   0  0  0  0  0  0  0  0  0  0  0  0
   -4.8090   14.8950   -0.5930 C   0  0  0  0  0  0  0  0  0  0  0  0
   -8.4040   16.1650    5.4900 C   0  0  0  0  0  0  0  0  0  0  0  0
   -5.9670   14.8020   -1.3580 C   0  0  0  0  0  0  0  0  0  0  0  0
   -9.0770   17.2820    4.9900 C   0  0  0  0  0  0  0  0  0  0  0  0
   -8.6450   15.8280    6.8150 C   0  0  0  0  0  0  0  0  0  0  0  0
   -3.6700   14.9130   -1.4610 C   0  0  0  0  0  0  0  0  0  0  0  0
   -9.9350   18.0490    5.7010 N   0  0  0  0  0  0  0  0  0  0  0  0
   -9.5230   16.5990    7.5750 C   0  0  0  0  0  0  0  0  0  0  0  0
   -2.3150   14.6590   -1.1920 C   0  0  0  0  0  0  0  0  0  0  0  0
   -4.0730   15.2150   -2.7520 C   0  0  0  0  0  0  0  0  0  0  0  0
  -10.1380   17.6880    6.9800 C   0  0  0  0  0  0  0  0  0  0  0  0
   -1.4080   14.7090   -2.2750 C   0  0  0  0  0  0  0  0  0  0  0  0
   -3.2010   15.2660   -3.7940 C   0  0  0  0  0  0  0  0  0  0  0  0
    0.0350   14.4530   -2.1520 C   0  0  0  0  0  0  0  0  0  0  0  0
   -1.8780   15.0090   -3.5620 C   0  0  0  0  0  0  0  0  0  0  0  0
   -1.0890   15.0730   -4.6740 O   0  0  0  0  0  0  0  0  0  0  0  0
    0.6990   14.5810   -1.1450 O   0  0  0  0  0  0  0  0  0  0  0  0
    0.5790   14.0480   -3.3090 O   0  0  0  0  0  0  0  0  0  0  0  0
  1  2  1  0
  2  3  2  0
  1  4  1  0
  2  5  1  0
  4  6  2  0
  4  7  1  0
  6  8  1  0
  7  9  2  0
  5 10  1  0
  8 11  2  0
  9 11  1  0
 10 12  2  0
 10 13  1  0
  9 14  1  0
 12 15  1  0
 13 16  2  0
 14 17  2  0
 14 18  1  0
 15 19  2  0
 16 19  1  0
 17 20  1  0
 18 21  2  0
 20 22  1  0
 20 23  2  0
 21 23  1  0
 23 24  1  0
 22 25  2  0
 22 26  1  0
M  END
