diamond-x0662_0_A-mac-x0564
     RDKit          3D

 35 39  0  0  0  0  0  0  0  0999 V2000
    5.2450    9.5320  -15.0150 C   0  0  0  0  0  0  0  0  0  0  0  0
    4.2150   10.0190  -14.1370 N   0  0  0  0  0  0  0  0  0  0  0  0
    3.5820   11.2210  -14.1980 C   0  0  0  0  0  0  0  0  0  0  0  0
    3.7960    9.2430  -13.1280 N   0  0  0  0  0  0  0  0  0  0  0  0
    2.6870   11.2280  -13.1510 C   0  0  0  0  0  0  0  0  0  0  0  0
    2.8500    9.9680  -12.4970 C   0  0  0  0  0  0  0  0  0  0  0  0
    2.1570    9.4240  -11.2980 C   0  0  0  0  0  0  0  0  0  0  0  0
    2.3090    8.2490  -10.9880 O   0  0  0  0  0  0  0  0  0  0  0  0
    1.3780   10.3480  -10.6080 N   0  0  0  0  0  0  0  0  0  0  0  0
    0.6670   10.1760   -9.3880 C   0  0  0  0  0  0  0  0  0  0  0  0
   -0.3430    9.2010   -9.3840 C   0  0  0  0  0  0  0  0  0  0  0  0
    0.8890   10.8880   -8.2070 C   0  0  0  0  0  0  0  0  0  0  0  0
   -1.1000    8.9540   -8.2330 C   0  0  0  0  0  0  0  0  0  0  0  0
    0.1450   10.6580   -7.0510 C   0  0  0  0  0  0  0  0  0  0  0  0
    0.4550   11.4630   -5.8100 C   0  0  0  0  0  0  0  0  0  0  0  0
   -0.8600    9.6810   -7.0650 C   0  0  0  0  0  0  0  0  0  0  0  0
   -0.0450   11.0920   -4.6780 N   0  0  0  0  0  0  0  0  0  0  0  0
    1.2200   12.3860   -6.1370 O   0  0  0  0  0  0  0  0  0  0  0  0
    0.3310   11.8690   -3.4580 C   0  0  0  0  0  0  0  0  0  0  0  0
    1.6780   12.6620   -3.5400 C   0  0  0  0  0  0  0  0  0  0  0  0
    2.0070   13.5510   -2.3180 C   0  0  0  0  0  0  0  0  0  0  0  0
    0.7820   13.7130   -1.5400 N   0  0  0  0  0  0  0  0  0  0  0  0
   -0.0720   14.2800   -2.2970 C   0  0  0  0  0  0  0  0  0  0  0  0
   -1.4430   14.5620   -1.9830 C   0  0  0  0  0  0  0  0  0  0  0  0
    0.2890   14.6500   -3.5770 N   0  0  0  0  0  0  0  0  0  0  0  0
   -2.3670   14.6790   -2.9830 C   0  0  0  0  0  0  0  0  0  0  0  0
   -0.6480   14.7520   -4.4500 C   0  0  0  0  0  0  0  0  0  0  0  0
   -2.0240   14.7390   -0.7590 O   0  0  0  0  0  0  0  0  0  0  0  0
   -1.9910   14.5420   -4.2690 N   0  0  0  0  0  0  0  0  0  0  0  0
   -3.3560   14.9630   -1.0300 C   0  0  0  0  0  0  0  0  0  0  0  0
   -3.6040   14.9300   -2.4030 C   0  0  0  0  0  0  0  0  0  0  0  0
   -4.8980   15.1310   -2.8770 C   0  0  0  0  0  0  0  0  0  0  0  0
   -4.3580   15.1910   -0.0890 C   0  0  0  0  0  0  0  0  0  0  0  0
   -5.9200   15.3610   -1.9590 C   0  0  0  0  0  0  0  0  0  0  0  0
   -5.6500   15.3860   -0.5910 C   0  0  0  0  0  0  0  0  0  0  0  0
  1  2  1  0
  2  3  1  0
  2  4  1  0
  3  5  2  0
  4  6  2  0
  5  6  1  0
  6  7  1  0
  7  8  2  0
  7  9  1  0
  9 10  1  0
 10 11  2  0
 10 12  1  0
 11 13  1  0
 12 14  2  0
 14 15  1  0
 13 16  2  0
 14 16  1  0
 15 17  2  3
 15 18  1  0
 17 19  1  0
 19 20  1  0
 20 21  1  0
 21 22  1  0
 22 23  2  3
 23 24  1  0
 23 25  1  0
 24 26  2  0
 25 27  2  0
 24 28  1  0
 26 29  1  0
 27 29  1  0
 28 30  1  0
 26 31  1  0
 30 31  2  0
 31 32  1  0
 30 33  1  0
 32 34  2  0
 33 35  2  0
 34 35  1  0
M  CHG  1  18  -1
M  END
