diamond-x0689_0_A-mac-x0567
     RDKit          3D

 13 14  0  0  0  0  0  0  0  0999 V2000
   -3.5380   14.7610    1.9860 N   0  0  0  0  0  0  0  0  0  0  0  0
   -4.8670   15.0430    1.4840 C   0  0  0  0  0  0  0  0  0  0  0  0
   -2.5750   14.1490    1.0810 C   0  0  1  0  0  0  0  0  0  0  0  0
   -2.5940   14.5540   -0.4230 C   0  0  1  0  0  0  0  0  0  0  0  0
   -1.3210   14.2040    1.7980 N   0  0  0  0  0  0  0  0  0  0  0  0
   -1.2310   14.8950   -1.0060 C   0  0  0  0  0  0  0  0  0  0  0  0
   -0.0790   14.3170    1.0950 C   0  0  0  0  0  0  0  0  0  0  0  0
   -3.2190   13.4700   -1.3290 C   0  0  0  0  0  0  0  0  0  0  0  0
   -3.5760   15.7000   -0.2300 C   0  0  0  0  0  0  0  0  0  0  0  0
   -0.1080   14.7790   -0.3060 C   0  0  0  0  0  0  0  0  0  0  0  0
   -4.6320   15.9230   -0.9930 C   0  0  0  0  0  0  0  0  0  0  0  0
   -4.2570   13.9630   -2.3000 C   0  0  0  0  0  0  0  0  0  0  0  0
   -4.9090   15.1050   -2.1150 C   0  0  0  0  0  0  0  0  0  0  0  0
  1  2  1  0
  3  1  1  1
  3  4  1  0
  3  5  1  0
  4  6  1  6
  5  7  1  0
  4  8  1  0
  4  9  1  0
  6 10  2  0
  7 10  1  0
  9 11  2  0
  8 12  1  0
 11 13  1  0
 12 13  2  0
M  END
