diamond-x0837_0_A-mac-x0398
     RDKit          3D

 12 12  0  0  0  0  0  0  0  0999 V2000
   -7.5100   14.8760   -0.0630 O   0  0  0  0  0  0  0  0  0  0  0  0
   -6.2480   14.8640    0.0410 C   0  0  0  0  0  0  0  0  0  0  0  0
   -5.6650   14.8810    1.2560 N   0  0  0  0  0  0  0  0  0  0  0  0
   -5.5190   14.8180   -1.1150 C   0  0  0  0  0  0  0  0  0  0  0  0
   -6.4560   14.8370    2.3920 N   0  0  0  0  0  0  0  0  0  0  0  0
   -6.1530   14.7620   -2.3760 O   0  0  0  0  0  0  0  0  0  0  0  0
   -4.3030   14.9250    1.3090 C   0  0  0  0  0  0  0  0  0  0  0  0
   -4.1450   14.8140   -1.0470 C   0  0  0  0  0  0  0  0  0  0  0  0
   -3.1000   14.6760   -2.8400 I   0  0  0  0  0  0  0  0  0  0  0  0
   -3.5340   14.8880    0.1720 C   0  0  0  0  0  0  0  0  0  0  0  0
   -3.7080   15.8490   -4.0240 O   0  0  0  0  0  0  0  0  0  0  0  0
   -1.1720   14.9680   -2.5160 O   0  0  0  0  0  0  0  0  0  0  0  0
  1  2  2  0
  2  3  1  0
  2  4  1  0
  3  5  1  0
  4  6  1  0
  3  7  1  0
  4  8  2  0
  8  9  1  0
  7 10  2  0
  8 10  1  0
  9 11  2  0
  9 12  1  0
M  END
