diamond-x0371_0_A-mac-x0132
     RDKit          3D

 19 21  0  0  0  0  0  0  0  0999 V2000
   -7.8830   14.6170    2.9320 N   0  0  0  0  0  0  0  0  0  0  0  0
   -8.7010   15.5210    3.5820 C   0  0  0  0  0  0  0  0  0  0  0  0
   -9.4630   16.2730    2.9700 O   0  0  0  0  0  0  0  0  0  0  0  0
   -8.1330   14.2110    1.5610 C   0  0  0  0  0  0  0  0  0  0  0  0
   -6.9490   14.5480    0.7160 C   0  0  0  0  0  0  0  0  0  0  0  0
   -8.5960   15.5100    5.0260 C   0  0  0  0  0  0  0  0  0  0  0  0
   -5.7460   14.9590    1.2220 N   0  0  0  0  0  0  0  0  0  0  0  0
   -6.8740   14.5100   -0.6110 N   0  0  0  0  0  0  0  0  0  0  0  0
   -8.0760   14.4170    5.6740 O   0  0  0  0  0  0  0  0  0  0  0  0
   -8.9470   16.4640    5.9620 C   0  0  0  0  0  0  0  0  0  0  0  0
   -5.3760   15.1600    2.5430 N   0  0  0  0  0  0  0  0  0  0  0  0
   -5.5860   14.9040   -0.9160 C   0  0  0  0  0  0  0  0  0  0  0  0
   -4.8690   15.1820    0.2340 C   0  0  0  0  0  0  0  0  0  0  0  0
   -8.6230   15.9210    7.2330 C   0  0  0  0  0  0  0  0  0  0  0  0
   -8.0940   14.6760    7.0030 C   0  0  0  0  0  0  0  0  0  0  0  0
   -3.5370   15.5980    0.2530 C   0  0  0  0  0  0  0  0  0  0  0  0
   -4.9430   15.0520   -2.1470 C   0  0  0  0  0  0  0  0  0  0  0  0
   -2.9130   15.7340   -0.9820 C   0  0  0  0  0  0  0  0  0  0  0  0
   -3.6010   15.4680   -2.1670 C   0  0  0  0  0  0  0  0  0  0  0  0
  1  2  1  0
  2  3  2  0
  1  4  1  0
  4  5  1  0
  2  6  1  0
  5  7  1  0
  5  8  2  0
  6  9  1  0
  6 10  2  0
  7 11  1  0
  8 12  1  0
  7 13  1  0
 12 13  2  0
 10 14  1  0
  9 15  1  0
 14 15  2  0
 13 16  1  0
 12 17  1  0
 16 18  2  0
 17 19  2  0
 18 19  1  0
M  END
