diamond-x0926_0_A-mac-x0433
     RDKit          3D

  9  9  0  0  0  0  0  0  0  0999 V2000
   -7.0310   14.8890   -0.9250 O   0  0  0  0  0  0  0  0  0  0  0  0
   -5.8400   14.9930   -0.6480 C   0  0  0  0  0  0  0  0  0  0  0  0
   -5.4050   14.8730    0.7600 C   0  0  0  0  0  0  0  0  0  0  0  0
   -4.8410   15.2260   -1.5880 N   0  0  0  0  0  0  0  0  0  0  0  0
   -6.5290   14.6220    1.7270 C   0  0  0  0  0  0  0  0  0  0  0  0
   -5.1850   15.1750   -2.9320 N   0  0  0  0  0  0  0  0  0  0  0  0
   -3.5150   15.3130   -1.3230 N   0  0  0  0  0  0  0  0  0  0  0  0
   -4.0990   14.9870    1.0520 C   0  0  0  0  0  0  0  0  0  0  0  0
   -3.1820   15.2030   -0.0750 C   0  0  0  0  0  0  0  0  0  0  0  0
  1  2  2  0
  2  3  1  0
  2  4  1  0
  3  5  1  0
  4  6  1  0
  4  7  1  0
  3  8  2  0
  7  9  2  0
  8  9  1  0
M  END
