diamond-x0438_0_A-mac-x0301
     RDKit          3D

 24 27  0  0  0  0  0  0  0  0999 V2000
   -8.2030   15.5440    3.8600 C   0  0  0  0  0  0  0  0  0  0  0  0
   -9.5210   15.4590    2.6570 S   0  0  0  0  0  0  0  0  0  0  0  0
  -10.6930   14.9050    3.3120 O   0  0  0  0  0  0  0  0  0  0  0  0
   -9.0350   14.2820    1.4180 C   0  0  0  0  0  0  0  0  0  0  0  0
   -9.6380   16.7240    1.9760 O   0  0  0  0  0  0  0  0  0  0  0  0
   -7.6390   14.4460    0.9560 C   0  0  0  0  0  0  0  0  0  0  0  0
   -7.3180   14.5570   -0.3750 N   0  0  0  0  0  0  0  0  0  0  0  0
   -6.5650   14.4900    1.7020 N   0  0  0  0  0  0  0  0  0  0  0  0
   -5.5110   14.5980    0.8360 C   0  0  0  0  0  0  0  0  0  0  0  0
   -5.9610   14.6410   -0.4720 C   0  0  0  0  0  0  0  0  0  0  0  0
   -5.1220   14.7360   -1.5690 C   0  0  0  0  0  0  0  0  0  0  0  0
   -4.1490   14.6530    1.1080 C   0  0  0  0  0  0  0  0  0  0  0  0
   -3.7550   14.7530   -1.3030 C   0  0  0  0  0  0  0  0  0  0  0  0
   -3.2710   14.7150    0.0270 C   0  0  0  0  0  0  0  0  0  0  0  0
   -1.9090   14.7240    0.2240 C   0  0  0  0  0  0  0  0  0  0  0  0
   -2.8620   14.7870   -2.3710 C   0  0  0  0  0  0  0  0  0  0  0  0
   -1.4850   14.7670   -2.1640 C   0  0  0  0  0  0  0  0  0  0  0  0
   -1.0310   14.7400   -0.8470 C   0  0  0  0  0  0  0  0  0  0  0  0
   -1.2800   14.7060    1.4430 O   0  0  0  0  0  0  0  0  0  0  0  0
   -0.5850   14.7680   -3.3370 C   0  0  0  0  0  0  0  0  0  0  0  0
    0.2460   14.7180   -0.4190 O   0  0  0  0  0  0  0  0  0  0  0  0
    0.0620   14.5370    0.9940 C   0  0  0  0  0  0  0  0  0  0  0  0
    0.7180   14.7600   -3.0070 O   0  0  0  0  0  0  0  0  0  0  0  0
   -0.9200   14.7570   -4.5060 O   0  0  0  0  0  0  0  0  0  0  0  0
  2  1  1  0
  2  3  2  0
  2  4  1  0
  2  5  2  0
  4  6  1  0
  6  7  1  0
  6  8  2  0
  8  9  1  0
  7 10  1  0
  9 10  2  0
 10 11  1  0
  9 12  1  0
 11 13  2  0
 12 14  2  0
 13 14  1  0
 14 15  1  0
 13 16  1  0
 16 17  2  0
 15 18  2  0
 17 18  1  0
 15 19  1  0
 17 20  1  0
 18 21  1  0
 19 22  1  0
 21 22  1  0
 20 23  1  0
 20 24  2  0
M  END
