diamond-x0282_0_A-mac-x0346
     RDKit          3D

 17 19  0  0  0  0  0  0  0  0999 V2000
   -6.9410   13.3880    0.7960 C   0  0  0  0  0  0  0  0  0  0  0  0
   -7.7400   13.6090   -0.3650 O   0  0  0  0  0  0  0  0  0  0  0  0
   -7.0060   14.4280   -1.1950 C   0  0  0  0  0  0  0  0  0  0  0  0
   -6.3650   14.7610    0.9600 C   0  0  1  0  0  0  0  0  0  0  0  0
   -5.2860   14.9720    1.9820 C   0  0  0  0  0  0  0  0  0  0  0  0
   -5.8830   15.0530   -0.4350 C   0  0  1  0  0  0  0  0  0  0  0  0
   -7.2500   14.6070   -2.3690 O   0  0  0  0  0  0  0  0  0  0  0  0
   -4.0950   14.0850    1.6850 C   0  0  0  0  0  0  0  0  0  0  0  0
   -4.5320   14.4030   -0.7760 C   0  0  1  0  0  0  0  0  0  0  0  0
   -3.9540   15.1710   -1.8350 O   0  0  0  0  0  0  0  0  0  0  0  0
   -3.6030   14.4330    0.3690 N   0  0  0  0  0  0  0  0  0  0  0  0
   -2.2350   14.5130    0.2270 C   0  0  0  0  0  0  0  0  0  0  0  0
   -1.7320   14.5490   -1.0080 N   0  0  0  0  0  0  0  0  0  0  0  0
   -1.4650   14.5530    1.3440 N   0  0  0  0  0  0  0  0  0  0  0  0
   -0.4090   14.6330   -1.1470 C   0  0  0  0  0  0  0  0  0  0  0  0
   -0.1420   14.6340    1.1470 C   0  0  0  0  0  0  0  0  0  0  0  0
    0.4440   14.6820   -0.0980 C   0  0  0  0  0  0  0  0  0  0  0  0
  1  2  1  0
  2  3  1  0
  4  1  1  6
  4  5  1  0
  6  3  1  6
  4  6  1  0
  3  7  2  0
  5  8  1  0
  6  9  1  0
  9 10  1  6
  8 11  1  0
  9 11  1  0
 11 12  1  0
 12 13  2  0
 12 14  1  0
 13 15  1  0
 14 16  2  0
 15 17  2  0
 16 17  1  0
M  END
