diamond-x0591_0_A-mac-x0326
     RDKit          3D

 23 24  0  0  0  0  0  0  0  0999 V2000
   -5.7480   14.3590    0.8890 N   0  0  0  0  0  0  0  0  0  0  0  0
   -6.7290   14.4720    1.9470 C   0  0  0  0  0  0  0  0  0  0  0  0
   -6.1640   14.4120   -0.4260 C   0  0  0  0  0  0  0  0  0  0  0  0
   -7.3490   14.2910   -0.7340 O   0  0  0  0  0  0  0  0  0  0  0  0
   -5.0400   14.6590   -1.4570 C   0  0  1  0  0  0  0  0  0  0  0  0
   -3.8880   13.6060   -1.5660 C   0  0  0  0  0  0  0  0  0  0  0  0
   -5.5730   14.7820   -2.8260 C   0  0  0  0  0  0  0  0  0  0  0  0
   -2.6950   14.2580   -2.3480 C   0  0  2  0  0  0  0  0  0  0  0  0
   -4.7070   15.0210   -3.7800 C   0  0  0  0  0  0  0  0  0  0  0  0
   -3.2460   15.2100   -3.4660 C   0  0  2  0  0  0  0  0  0  0  0  0
   -1.5850   13.4930   -3.0570 N   0  0  0  0  0  0  0  0  0  0  0  0
   -1.9120   14.8600   -1.1720 C   0  0  0  0  0  0  0  0  0  0  0  0
   -2.4600   14.9680   -5.1000 S   0  0  0  0  0  0  0  0  0  0  0  0
   -0.4320   14.4380   -3.2740 C   0  0  1  0  0  0  0  0  0  0  0  0
   -0.2230   15.0060   -1.6310 S   0  0  0  0  0  0  0  0  0  0  0  0
   -1.1740   16.0590   -5.0570 N   0  0  0  0  0  0  0  0  0  0  0  0
   -1.8670   13.6550   -5.2290 O   0  0  0  0  0  0  0  0  0  0  0  0
   -3.3050   15.5000   -6.1460 O   0  0  0  0  0  0  0  0  0  0  0  0
    0.7860   14.0580   -4.1360 C   0  0  0  0  0  0  0  0  0  0  0  0
    0.9450   12.5740   -4.3860 C   0  0  0  0  0  0  0  0  0  0  0  0
    0.9520   11.8540   -3.0720 C   0  0  0  0  0  0  0  0  0  0  0  0
    0.2280   10.7080   -3.1040 O   0  0  0  0  0  0  0  0  0  0  0  0
    1.5450   12.2430   -2.0840 O   0  0  0  0  0  0  0  0  0  0  0  0
  1  2  1  0
  1  3  1  0
  3  4  2  0
  5  3  1  1
  5  6  1  0
  5  7  1  0
  8  6  1  1
  7  9  2  0
  8 10  1  0
  9 10  1  0
  8 11  1  0
  8 12  1  0
 10 13  1  6
 11 14  1  0
 12 15  2  0
 14 15  1  0
 13 16  1  0
 13 17  2  0
 13 18  2  0
 14 19  1  1
 19 20  1  0
 20 21  1  0
 21 22  1  0
 21 23  2  0
M  END
