diamond-x0969_0_A-mac-x0131
     RDKit          3D

 27 31  0  0  0  0  0  0  0  0999 V2000
   -8.1690   14.6350    1.9320 N   0  0  0  0  0  0  0  0  0  0  0  0
   -7.5230   14.5710    0.7490 C   0  0  0  0  0  0  0  0  0  0  0  0
   -7.9490   14.2790   -0.4520 N   0  0  0  0  0  0  0  0  0  0  0  0
   -6.2220   14.8360    0.6940 N   0  0  0  0  0  0  0  0  0  0  0  0
   -6.8700   14.3560   -1.3330 N   0  0  0  0  0  0  0  0  0  0  0  0
   -5.8200   14.6940   -0.6170 C   0  0  0  0  0  0  0  0  0  0  0  0
   -5.4500   15.1920    1.7530 C   0  0  0  0  0  0  0  0  0  0  0  0
   -4.4280   14.9490   -0.7760 C   0  0  0  0  0  0  0  0  0  0  0  0
   -4.2160   15.4500    1.5760 C   0  0  0  0  0  0  0  0  0  0  0  0
   -3.7200   15.3080    0.2790 C   0  0  0  0  0  0  0  0  0  0  0  0
   -3.4080   14.8740   -1.6640 C   0  0  0  0  0  0  0  0  0  0  0  0
   -3.1350   14.8400   -3.0110 C   0  0  0  0  0  0  0  0  0  0  0  0
   -2.2420   14.8170   -0.8960 C   0  0  0  0  0  0  0  0  0  0  0  0
   -3.9830   14.8640   -4.2300 C   0  0  0  0  0  0  0  0  0  0  0  0
   -1.2240   14.7680   -1.7650 C   0  0  0  0  0  0  0  0  0  0  0  0
   -1.7400   14.7650   -3.0320 N   0  0  0  0  0  0  0  0  0  0  0  0
   -1.9360   14.8010    0.4970 C   0  0  0  0  0  0  0  0  0  0  0  0
   -2.8390   14.8150    1.5510 N   0  0  0  0  0  0  0  0  0  0  0  0
   -0.8510   14.6710   -4.1560 C   0  0  0  0  0  0  0  0  0  0  0  0
   -0.6630   14.7720    0.8590 N   0  0  0  0  0  0  0  0  0  0  0  0
    0.0600   14.7300   -1.4450 N   0  0  0  0  0  0  0  0  0  0  0  0
    0.2350   14.7480   -0.1270 C   0  0  0  0  0  0  0  0  0  0  0  0
   -0.5500   13.2300   -4.0890 C   0  0  0  0  0  0  0  0  0  0  0  0
    0.3880   12.4710   -3.4190 C   0  0  0  0  0  0  0  0  0  0  0  0
   -1.3680   12.4220   -4.8140 O   0  0  0  0  0  0  0  0  0  0  0  0
   -0.9590   11.1510   -4.6070 C   0  0  0  0  0  0  0  0  0  0  0  0
    0.1060   11.1290   -3.7540 C   0  0  0  0  0  0  0  0  0  0  0  0
  1  2  1  0
  2  3  2  0
  2  4  1  0
  3  5  1  0
  4  6  1  0
  5  6  2  0
  4  7  1  0
  6  8  1  0
  7  9  2  0
  8 10  2  0
  9 10  1  0
  8 11  1  0
 11 12  2  0
 11 13  1  0
 12 14  1  0
 13 15  2  0
 12 16  1  0
 15 16  1  0
 13 17  1  0
 17 18  1  0
 16 19  1  0
 17 20  2  0
 15 21  1  0
 20 22  1  0
 21 22  2  0
 19 23  1  0
 23 24  2  0
 23 25  1  0
 25 26  1  0
 24 27  1  0
 26 27  2  0
M  END
