diamond-x0417_0_B-diamond-x0228_0_B
     RDKit          3D

 33 36  0  0  0  0  0  0  0  0999 V2000
   -2.6070   31.2700  -17.1050 N   0  0  0  0  0  0  0  0  0  0  0  0
   -1.3500   31.7980  -17.6100 C   0  0  0  0  0  0  0  0  0  0  0  0
   -2.5170   30.8630  -15.6910 C   0  0  2  0  0  0  0  0  0  0  0  0
   -1.9470   29.4620  -15.4710 C   0  0  0  0  0  0  0  0  0  0  0  0
   -3.9400   30.7390  -15.1640 C   0  0  0  0  0  0  0  0  0  0  0  0
   -4.8020   31.5770  -15.3690 O   0  0  0  0  0  0  0  0  0  0  0  0
   -2.9030   28.6890  -14.5500 C   0  0  1  0  0  0  0  0  0  0  0  0
   -4.1110   29.5530  -14.4400 N   0  0  0  0  0  0  0  0  0  0  0  0
   -3.0660   27.2860  -15.2220 C   0  0  0  0  0  0  0  0  0  0  0  0
   -5.2540   29.3850  -13.5780 C   0  0  0  0  0  0  0  0  0  0  0  0
   -4.3650   26.7430  -14.9940 O   0  0  0  0  0  0  0  0  0  0  0  0
   -6.5470   29.3650  -14.1180 C   0  0  0  0  0  0  0  0  0  0  0  0
   -5.1780   29.2460  -12.1760 C   0  0  0  0  0  0  0  0  0  0  0  0
   -4.0190   29.2570  -11.5550 F   0  0  0  0  0  0  0  0  0  0  0  0
   -7.6800   29.2150  -13.3030 C   0  0  0  0  0  0  0  0  0  0  0  0
   -6.2980   29.0980  -11.3610 C   0  0  0  0  0  0  0  0  0  0  0  0
   -4.4270   26.0720  -13.8140 C   0  0  0  0  0  0  0  0  0  0  0  0
   -7.5550   29.0810  -11.9250 C   0  0  0  0  0  0  0  0  0  0  0  0
   -3.3790   26.1790  -12.9750 C   0  0  0  0  0  0  0  0  0  0  0  0
   -5.5290   25.2920  -13.4630 C   0  0  0  0  0  0  0  0  0  0  0  0
   -6.5560   25.2280  -14.3700 N   0  0  0  0  0  0  0  0  0  0  0  0
   -3.4500   25.5110  -11.8060 C   0  0  0  0  0  0  0  0  0  0  0  0
   -5.5770   24.6160  -12.2550 C   0  0  0  0  0  0  0  0  0  0  0  0
   -7.8580   25.1010  -14.0380 C   0  0  0  0  0  0  0  0  0  0  0  0
   -4.5280   24.7100  -11.3900 C   0  0  0  0  0  0  0  0  0  0  0  0
   -8.5990   25.9220  -14.8330 N   0  0  0  0  0  0  0  0  0  0  0  0
   -8.3100   24.3720  -13.1630 O   0  0  0  0  0  0  0  0  0  0  0  0
   -4.5720   23.9570  -10.0710 C   0  0  0  0  0  0  0  0  0  0  0  0
   -9.8300   25.5030  -15.1050 N   0  0  0  0  0  0  0  0  0  0  0  0
  -10.1860   24.4400  -15.8530 C   0  0  0  0  0  0  0  0  0  0  0  0
  -10.9490   26.0980  -14.6570 C   0  0  0  0  0  0  0  0  0  0  0  0
  -11.4990   24.3790  -15.8690 N   0  0  0  0  0  0  0  0  0  0  0  0
  -11.9830   25.4300  -15.1100 N   0  0  0  0  0  0  0  0  0  0  0  0
  1  2  1  0
  3  1  1  6
  3  4  1  0
  3  5  1  0
  5  6  2  0
  4  7  1  0
  5  8  1  0
  7  8  1  0
  7  9  1  6
  8 10  1  0
  9 11  1  0
 10 12  2  0
 10 13  1  0
 13 14  1  0
 12 15  1  0
 13 16  2  0
 11 17  1  0
 15 18  2  0
 16 18  1  0
 17 19  2  0
 17 20  1  0
 20 21  1  0
 19 22  1  0
 20 23  2  0
 21 24  1  0
 22 25  2  0
 23 25  1  0
 24 26  1  0
 24 27  2  0
 25 28  1  0
 26 29  1  0
 29 30  1  0
 29 31  1  0
 30 32  2  0
 31 33  2  0
 32 33  1  0
M  END
