diamond-x0933_3_B-mac-x0343
     RDKit          3D

 17 19  0  0  0  0  0  0  0  0999 V2000
   -0.2140   33.6460   10.6510 N   0  0  0  0  0  0  0  0  0  0  0  0
    0.3900   34.7780   10.0420 C   0  0  2  0  0  0  0  0  0  0  0  0
   -0.6030   35.7530    9.7240 N   0  0  0  0  0  0  0  0  0  0  0  0
    1.1280   34.4330    8.9000 N   0  0  0  0  0  0  0  0  0  0  0  0
    1.6880   35.6480    8.4280 C   0  0  2  0  0  0  0  0  0  0  0  0
   -0.6400   36.3320    8.3570 C   0  0  0  0  0  0  0  0  0  0  0  0
    0.6820   36.3390    7.5590 C   0  0  1  0  0  0  0  0  0  0  0  0
    2.8970   35.3090    7.7540 N   0  0  0  0  0  0  0  0  0  0  0  0
    3.4950   36.4240    7.0420 C   0  0  0  0  0  0  0  0  0  0  0  0
    1.2750   37.7320    7.2720 C   0  0  2  0  0  0  0  0  0  0  0  0
    0.8450   38.5040    6.0980 N   0  0  0  0  0  0  0  0  0  0  0  0
    2.8280   37.7520    7.3620 C   0  0  0  0  0  0  0  0  0  0  0  0
    1.2920   39.8820    6.1400 C   0  0  0  0  0  0  0  0  0  0  0  0
    0.9430   37.9040    4.7650 C   0  0  0  0  0  0  0  0  0  0  0  0
    0.3770   40.7170    5.2650 C   0  0  0  0  0  0  0  0  0  0  0  0
    0.1670   38.7270    3.7260 C   0  0  0  0  0  0  0  0  0  0  0  0
    0.4510   40.2290    3.8250 C   0  0  0  0  0  0  0  0  0  0  0  0
  2  1  1  6
  2  3  1  0
  2  4  1  0
  5  4  1  6
  3  6  1  0
  5  7  1  0
  7  6  1  1
  5  8  1  0
  8  9  1  0
  7 10  1  0
 10 11  1  6
  9 12  1  0
 10 12  1  0
 11 13  1  0
 11 14  1  0
 13 15  1  0
 14 16  1  0
 15 17  1  0
 16 17  1  0
M  END
