diamond-x0933_0_A-diamond-x0962_0_A
     RDKit          3D

  8  8  0  0  0  0  0  0  0  0999 V2000
   -6.0510   14.8140    1.7240 N   0  0  0  0  0  0  0  0  0  0  0  0
   -5.0680   15.2250    0.7820 C   0  0  1  0  0  0  0  0  0  0  0  0
   -3.8110   15.0720    1.4400 N   0  0  0  0  0  0  0  0  0  0  0  0
   -5.2250   14.3030   -0.2660 N   0  0  0  0  0  0  0  0  0  0  0  0
   -4.2900   14.6640   -1.3050 C   0  0  0  0  0  0  0  0  0  0  0  0
   -2.6350   14.6650    0.6200 C   0  0  0  0  0  0  0  0  0  0  0  0
   -2.8750   14.2700   -0.8730 C   0  0  2  0  0  0  0  0  0  0  0  0
   -1.8670   14.7690   -1.8050 N   0  0  0  0  0  0  0  0  0  0  0  0
  2  1  1  1
  2  3  1  0
  2  4  1  0
  4  5  1  0
  3  6  1  0
  5  7  1  0
  6  7  1  0
  7  8  1  6
M  END
