diamond-x0864_0_A-diamond-x0844_0_A
     RDKit          3D

 23 24  0  0  0  0  0  0  0  0999 V2000
    1.3190   12.0760   -6.4460 O   0  0  0  0  0  0  0  0  0  0  0  0
    0.2890   11.4390   -6.2340 C   0  0  0  0  0  0  0  0  0  0  0  0
   -0.6410   11.7040   -5.2090 N   0  0  0  0  0  0  0  0  0  0  0  0
   -0.0260   10.2780   -7.1100 C   0  0  0  0  0  0  0  0  0  0  0  0
   -0.3430   12.6410   -4.1170 C   0  0  1  0  0  0  0  0  0  0  0  0
   -1.7890   10.9600   -5.0740 C   0  0  0  0  0  0  0  0  0  0  0  0
   -1.1530    9.5780   -6.9140 C   0  0  0  0  0  0  0  0  0  0  0  0
    0.7620   12.2970   -3.1040 C   0  0  0  0  0  0  0  0  0  0  0  0
   -1.6240    8.1110   -7.9580 Br  0  0  0  0  0  0  0  0  0  0  0  0
   -0.5530   14.1210   -4.4680 C   0  0  0  0  0  0  0  0  0  0  0  0
   -2.0660    9.9380   -5.8690 C   0  0  0  0  0  0  0  0  0  0  0  0
    0.7020   10.9950   -2.7380 O   0  0  0  0  0  0  0  0  0  0  0  0
    1.5960   13.0530   -2.6340 O   0  0  0  0  0  0  0  0  0  0  0  0
   -2.0520   14.4820   -4.4590 C   0  0  0  0  0  0  0  0  0  0  0  0
   -2.4540   15.1960   -3.1700 C   0  0  0  0  0  0  0  0  0  0  0  0
   -3.3980   14.4460   -2.4020 O   0  0  0  0  0  0  0  0  0  0  0  0
   -4.1140   15.2470   -1.4340 C   0  0  2  0  0  0  0  0  0  0  0  0
   -3.4760   15.0490   -0.0920 C   0  0  0  0  0  0  0  0  0  0  0  0
   -5.6210   14.9800   -1.4720 C   0  0  0  0  0  0  0  0  0  0  0  0
   -4.1830   14.8640    1.0210 C   0  0  0  0  0  0  0  0  0  0  0  0
   -6.3140   14.8670   -0.1310 C   0  0  0  0  0  0  0  0  0  0  0  0
   -7.5420   14.8070   -0.0480 O   0  0  0  0  0  0  0  0  0  0  0  0
   -5.5430   14.8340    1.0010 N   0  0  0  0  0  0  0  0  0  0  0  0
  1  2  2  0
  2  3  1  0
  2  4  1  0
  3  5  1  0
  3  6  1  0
  4  7  2  0
  5  8  1  0
  7  9  1  0
  5 10  1  6
  6 11  2  0
  7 11  1  0
  8 12  1  0
  8 13  2  0
 10 14  1  0
 14 15  1  0
 15 16  1  0
 17 16  1  6
 17 18  1  0
 17 19  1  0
 18 20  2  0
 19 21  1  0
 21 22  2  0
 20 23  1  0
 21 23  1  0
M  END
