diamond-x0895_1_A-mac-x0328
     RDKit          3D

 10 10  0  0  0  0  0  0  0  0999 V2000
   -1.6320   14.9220    1.4330 O   0  0  0  0  0  0  0  0  0  0  0  0
   -2.7020   14.9440    0.8110 C   0  0  0  0  0  0  0  0  0  0  0  0
   -2.9010   15.3670   -0.6540 C   0  0  1  0  0  0  0  0  0  0  0  0
   -3.9140   14.6060    1.3230 N   0  0  0  0  0  0  0  0  0  0  0  0
   -1.9120   14.8210   -1.6980 C   0  0  0  0  0  0  0  0  0  0  0  0
   -4.2660   14.9100   -0.8220 N   0  0  0  0  0  0  0  0  0  0  0  0
   -4.8810   14.7780    0.4000 C   0  0  0  0  0  0  0  0  0  0  0  0
   -6.0810   14.8090    0.6080 O   0  0  0  0  0  0  0  0  0  0  0  0
   -2.2810   14.8930   -3.0080 O   0  0  0  0  0  0  0  0  0  0  0  0
   -0.8300   14.3520   -1.3880 O   0  0  0  0  0  0  0  0  0  0  0  0
  1  2  2  0
  2  3  1  0
  2  4  1  0
  3  5  1  6
  3  6  1  0
  4  7  1  0
  6  7  1  0
  7  8  2  0
  5  9  1  0
  5 10  2  0
M  END
