diamond-x0855_0_A-mac-x0496
     RDKit          3D

 31 33  0  0  0  0  0  0  0  0999 V2000
    1.6850   13.0680   -2.5340 O   0  0  0  0  0  0  0  0  0  0  0  0
    0.9830   12.1910   -3.2830 C   0  0  0  0  0  0  0  0  0  0  0  0
    0.5930   12.7190   -4.6480 C   0  0  2  0  0  0  0  0  0  0  0  0
    0.7380   11.0900   -2.8170 O   0  0  0  0  0  0  0  0  0  0  0  0
    0.2660   14.2410   -4.6240 C   0  0  0  0  0  0  0  0  0  0  0  0
   -0.4520   11.8270   -5.1500 N   0  0  0  0  0  0  0  0  0  0  0  0
   -1.1890   14.6360   -4.3150 C   0  0  0  0  0  0  0  0  0  0  0  0
   -0.3030   10.8650   -6.1140 C   0  0  0  0  0  0  0  0  0  0  0  0
   -1.7130   11.8860   -4.6580 N   0  0  0  0  0  0  0  0  0  0  0  0
   -1.5590   14.5260   -2.9000 N   0  0  0  0  0  0  0  0  0  0  0  0
   -1.5290   10.2730   -6.2370 C   0  0  0  0  0  0  0  0  0  0  0  0
   -2.3650   10.9290   -5.3310 C   0  0  0  0  0  0  0  0  0  0  0  0
   -2.0270    8.8750   -7.3640 Br  0  0  0  0  0  0  0  0  0  0  0  0
   -2.7120   14.9130   -2.4790 C   0  0  0  0  0  0  0  0  0  0  0  0
   -3.5680   15.4440   -3.3720 O   0  0  0  0  0  0  0  0  0  0  0  0
   -3.2920   14.8680   -1.1210 C   0  0  0  0  0  0  0  0  0  0  0  0
   -2.4600   14.8920    0.0030 C   0  0  0  0  0  0  0  0  0  0  0  0
   -4.6800   14.7940   -0.9730 C   0  0  0  0  0  0  0  0  0  0  0  0
   -3.0200   14.8440    1.2750 C   0  0  0  0  0  0  0  0  0  0  0  0
   -5.2350   14.7400    0.3110 C   0  0  0  0  0  0  0  0  0  0  0  0
   -6.7130   14.6480    0.4490 C   0  0  0  0  0  0  0  0  0  0  0  0
   -4.4010   14.7700    1.4270 C   0  0  0  0  0  0  0  0  0  0  0  0
   -7.2260   14.3490    1.7000 N   0  0  0  0  0  0  0  0  0  0  0  0
   -7.4240   14.8310   -0.5310 O   0  0  0  0  0  0  0  0  0  0  0  0
   -8.6460   14.0670    1.8240 C   0  0  0  0  0  0  0  0  0  0  0  0
   -9.3360   15.1970    2.4950 C   0  0  0  0  0  0  0  0  0  0  0  0
  -10.5590   15.5690    2.0090 O   0  0  0  0  0  0  0  0  0  0  0  0
   -8.9440   15.9190    3.5210 N   0  0  0  0  0  0  0  0  0  0  0  0
   -9.9840   16.7900    3.6840 C   0  0  0  0  0  0  0  0  0  0  0  0
  -10.9890   16.6260    2.8140 N   0  0  0  0  0  0  0  0  0  0  0  0
   -9.9910   17.8190    4.7410 C   0  0  0  0  0  0  0  0  0  0  0  0
  1  2  1  0
  2  3  1  0
  2  4  2  0
  3  5  1  1
  3  6  1  0
  5  7  1  0
  6  8  1  0
  6  9  1  0
  7 10  1  0
  8 11  2  0
  9 12  2  0
 11 12  1  0
 11 13  1  0
 10 14  2  3
 14 15  1  0
 14 16  1  0
 16 17  2  0
 16 18  1  0
 17 19  1  0
 18 20  2  0
 20 21  1  0
 19 22  2  0
 20 22  1  0
 21 23  1  0
 21 24  2  0
 23 25  1  0
 25 26  1  0
 26 27  1  0
 26 28  2  0
 28 29  1  0
 27 30  1  0
 29 30  2  0
 29 31  1  0
M  END
