diamond-x0724_0_A-mac-x0131
     RDKit          3D

 27 30  0  0  0  0  0  0  0  0999 V2000
   -8.8150   13.9000    4.2820 N   0  0  0  0  0  0  0  0  0  0  0  0
   -8.6780   13.9180    5.7330 C   0  0  0  0  0  0  0  0  0  0  0  0
   -8.3260   15.1460    3.6980 C   0  0  0  0  0  0  0  0  0  0  0  0
   -7.7180   14.8630    2.3690 C   0  0  0  0  0  0  0  0  0  0  0  0
   -6.3830   14.7420    2.0630 C   0  0  0  0  0  0  0  0  0  0  0  0
   -8.3460   14.6590    1.1280 C   0  0  0  0  0  0  0  0  0  0  0  0
   -7.4840   14.4330    0.1320 N   0  0  0  0  0  0  0  0  0  0  0  0
   -6.2340   14.4830    0.7070 N   0  0  0  0  0  0  0  0  0  0  0  0
   -4.9740   14.3060    0.0550 C   0  0  0  0  0  0  0  0  0  0  0  0
   -3.8950   14.0510    0.8270 C   0  0  0  0  0  0  0  0  0  0  0  0
   -4.8630   14.4100   -1.3940 C   0  0  0  0  0  0  0  0  0  0  0  0
   -2.4980   13.8430    0.4900 C   0  0  0  0  0  0  0  0  0  0  0  0
   -3.7810   14.7290   -2.1310 C   0  0  0  0  0  0  0  0  0  0  0  0
   -3.9700   14.7710   -3.6360 C   0  0  0  0  0  0  0  0  0  0  0  0
   -2.3610   15.0730   -1.5880 C   0  0  1  0  0  0  0  0  0  0  0  0
   -1.7830   14.2280   -0.5560 C   0  0  0  0  0  0  0  0  0  0  0  0
   -1.1410   15.1320   -2.6210 C   0  0  0  0  0  0  0  0  0  0  0  0
   -2.2900   15.8170   -0.1730 C   0  0  0  0  0  0  0  0  0  0  0  0
   -0.4570   14.0110   -0.5410 N   0  0  0  0  0  0  0  0  0  0  0  0
   -3.3670   16.4170    0.4310 N   0  0  0  0  0  0  0  0  0  0  0  0
   -0.6990   13.8100   -3.2650 C   0  0  0  0  0  0  0  0  0  0  0  0
   -1.2060   15.7800    0.6120 N   0  0  0  0  0  0  0  0  0  0  0  0
   -0.1520   15.0240    0.1710 C   0  0  0  0  0  0  0  0  0  0  0  0
    0.5330   13.3060   -3.6770 C   0  0  0  0  0  0  0  0  0  0  0  0
   -1.6560   12.8630   -3.5260 O   0  0  0  0  0  0  0  0  0  0  0  0
   -1.0480   11.7840   -4.0880 C   0  0  0  0  0  0  0  0  0  0  0  0
    0.2980   12.0100   -4.2030 C   0  0  0  0  0  0  0  0  0  0  0  0
  1  2  1  0
  1  3  1  0
  3  4  1  0
  4  5  2  0
  4  6  1  0
  6  7  2  0
  5  8  1  0
  7  8  1  0
  8  9  1  0
  9 10  2  0
  9 11  1  0
 10 12  1  0
 11 13  2  0
 13 14  1  0
 13 15  1  0
 12 16  2  0
 15 16  1  0
 15 17  1  6
 15 18  1  0
 16 19  1  0
 18 20  1  0
 17 21  1  0
 18 22  2  0
 19 23  2  0
 22 23  1  0
 21 24  2  0
 21 25  1  0
 25 26  1  0
 24 27  1  0
 26 27  2  0
M  END
