diamond-x0905_0_A-mac-x0358
     RDKit          3D

 20 21  0  0  0  0  0  0  0  0999 V2000
   -7.1940   15.0540    0.1510 O   0  0  0  0  0  0  0  0  0  0  0  0
   -5.9680   15.0640   -0.4120 C   0  0  0  0  0  0  0  0  0  0  0  0
   -4.9400   15.2280    0.4320 N   0  0  0  0  0  0  0  0  0  0  0  0
   -5.8820   14.9040   -1.7540 C   0  0  0  0  0  0  0  0  0  0  0  0
   -3.7240   15.2380   -0.1550 C   0  0  0  0  0  0  0  0  0  0  0  0
   -4.6540   14.8960   -2.3690 C   0  0  0  0  0  0  0  0  0  0  0  0
   -4.7530   14.6680   -3.8910 C   0  0  0  0  0  0  0  0  0  0  0  0
   -3.5160   15.0770   -1.5380 C   0  0  0  0  0  0  0  0  0  0  0  0
   -3.8240   15.3750   -4.8880 C   0  0  0  0  0  0  0  0  0  0  0  0
   -2.5540   14.6600   -4.9000 C   0  0  0  0  0  0  0  0  0  0  0  0
   -2.5230   13.2800   -5.0610 C   0  0  0  0  0  0  0  0  0  0  0  0
   -1.4030   15.3980   -4.7220 C   0  0  0  0  0  0  0  0  0  0  0  0
   -1.3030   12.6370   -5.0080 C   0  0  0  0  0  0  0  0  0  0  0  0
   -0.1880   14.7520   -4.6710 C   0  0  0  0  0  0  0  0  0  0  0  0
   -1.3080   11.2760   -5.1510 O   0  0  0  0  0  0  0  0  0  0  0  0
   -0.1350   13.3680   -4.8000 C   0  0  0  0  0  0  0  0  0  0  0  0
    1.1860   12.7050   -4.6810 C   0  0  0  0  0  0  0  0  0  0  0  0
    1.2180   12.1250   -3.2870 C   0  0  0  0  0  0  0  0  0  0  0  0
    1.9140   12.8620   -2.4050 O   0  0  0  0  0  0  0  0  0  0  0  0
    0.6630   11.0980   -2.9210 O   0  0  0  0  0  0  0  0  0  0  0  0
  1  2  1  0
  2  3  2  0
  2  4  1  0
  3  5  1  0
  4  6  2  0
  6  7  1  0
  5  8  2  0
  6  8  1  0
  7  9  1  0
  9 10  1  0
 10 11  2  0
 10 12  1  0
 11 13  1  0
 12 14  2  0
 13 15  1  0
 13 16  2  0
 14 16  1  0
 16 17  1  0
 17 18  1  0
 18 19  1  0
 18 20  2  0
M  END
