diamond-x0849_0_A-mac-x0576
     RDKit          3D

 12 13  0  0  0  0  0  0  0  0999 V2000
   -3.3320   15.1430   -3.0410 Br  0  0  0  0  0  0  0  0  0  0  0  0
   -3.4580   15.0350   -1.1790 C   0  0  0  0  0  0  0  0  0  0  0  0
   -2.2730   14.8050   -0.3440 C   0  0  0  0  0  0  0  0  0  0  0  0
   -4.6520   15.1630   -0.6060 C   0  0  0  0  0  0  0  0  0  0  0  0
   -2.4420   14.7380    1.0380 C   0  0  0  0  0  0  0  0  0  0  0  0
   -4.8220   15.0590    0.8460 C   0  0  0  0  0  0  0  0  0  0  0  0
   -0.9710   14.6520   -0.8280 C   0  0  0  0  0  0  0  0  0  0  0  0
   -5.9470   15.0940    1.3240 O   0  0  0  0  0  0  0  0  0  0  0  0
   -3.7100   14.8910    1.5880 N   0  0  0  0  0  0  0  0  0  0  0  0
   -1.4550   14.5320    1.9090 N   0  0  0  0  0  0  0  0  0  0  0  0
    0.0720   14.4440    0.0630 C   0  0  0  0  0  0  0  0  0  0  0  0
   -0.2240   14.3900    1.4110 C   0  0  0  0  0  0  0  0  0  0  0  0
  1  2  1  0
  2  3  1  0
  2  4  2  0
  3  5  2  0
  4  6  1  0
  3  7  1  0
  6  8  2  0
  5  9  1  0
  6  9  1  0
  5 10  1  0
  7 11  2  0
 10 12  2  0
 11 12  1  0
M  END
