diamond-x0574_0_A-diamond-x0844_0_A
     RDKit          3D

 13 14  0  0  0  0  0  0  0  0999 V2000
    0.1600   14.0940    2.1280 N   0  0  0  0  0  0  0  0  0  0  0  0
   -0.9170   14.3180    1.4040 C   0  0  0  0  0  0  0  0  0  0  0  0
   -2.0470   14.3820    1.9890 N   0  0  0  0  0  0  0  0  0  0  0  0
   -0.9270   14.5230   -0.2910 S   0  0  0  0  0  0  0  0  0  0  0  0
   -3.0430   14.5730    1.0930 C   0  0  0  0  0  0  0  0  0  0  0  0
   -2.6560   14.6780   -0.2310 C   0  0  0  0  0  0  0  0  0  0  0  0
   -4.3860   14.6570    1.4420 C   0  0  0  0  0  0  0  0  0  0  0  0
   -3.6230   14.8680   -1.2270 C   0  0  0  0  0  0  0  0  0  0  0  0
   -3.1640   15.0040   -3.0510 Br  0  0  0  0  0  0  0  0  0  0  0  0
   -5.3520   14.8370    0.4850 C   0  0  0  0  0  0  0  0  0  0  0  0
   -4.9730   14.9480   -0.8520 C   0  0  0  0  0  0  0  0  0  0  0  0
   -6.6830   14.9110    0.7780 O   0  0  0  0  0  0  0  0  0  0  0  0
   -7.0200   14.5810    2.1290 C   0  0  0  0  0  0  0  0  0  0  0  0
  1  2  1  0
  2  3  2  0
  2  4  1  0
  3  5  1  0
  4  6  1  0
  5  6  2  0
  5  7  1  0
  6  8  1  0
  8  9  1  0
  7 10  2  0
  8 11  2  0
 10 11  1  0
 10 12  1  0
 12 13  1  0
M  END
