diamond-x0591_0_A-diamond-x0855_0_A
     RDKit          3D

 25 26  0  0  0  0  0  0  0  0999 V2000
   -5.8090   14.5180    0.8490 N   0  0  0  0  0  0  0  0  0  0  0  0
   -6.7150   14.5000    1.9750 C   0  0  0  0  0  0  0  0  0  0  0  0
   -6.1850   14.6380   -0.4620 C   0  0  0  0  0  0  0  0  0  0  0  0
   -7.3780   14.7000   -0.7440 O   0  0  0  0  0  0  0  0  0  0  0  0
   -5.1770   14.7040   -1.5450 C   0  0  0  0  0  0  0  0  0  0  0  0
   -3.7950   14.6470   -1.3130 C   0  0  0  0  0  0  0  0  0  0  0  0
   -5.6520   14.8330   -2.8470 C   0  0  0  0  0  0  0  0  0  0  0  0
   -2.8940   14.7360   -2.3950 C   0  0  0  0  0  0  0  0  0  0  0  0
   -4.7620   14.9150   -3.9120 C   0  0  0  0  0  0  0  0  0  0  0  0
   -3.3900   14.8800   -3.7020 C   0  0  0  0  0  0  0  0  0  0  0  0
   -2.3590   15.0480   -5.1470 S   0  0  1  0  0  0  0  0  0  0  0  0
   -1.1800   16.1750   -4.7880 N   0  0  0  0  0  0  0  0  0  0  0  0
   -1.4420   13.8690   -5.4510 N   0  0  0  0  0  0  0  0  0  0  0  0
   -3.1360   15.7240   -6.1570 O   0  0  0  0  0  0  0  0  0  0  0  0
   -0.1190   13.7730   -4.7640 C   0  0  0  0  0  0  0  0  0  0  0  0
   -0.3370   12.5560   -3.9170 C   0  0  2  0  0  0  0  0  0  0  0  0
    0.8220   11.9930   -3.1750 C   0  0  0  0  0  0  0  0  0  0  0  0
   -0.9780   11.5390   -4.7080 N   0  0  0  0  0  0  0  0  0  0  0  0
    1.8380   12.8520   -2.9750 O   0  0  0  0  0  0  0  0  0  0  0  0
    0.8750   10.8620   -2.7430 O   0  0  0  0  0  0  0  0  0  0  0  0
   -0.4620   10.7960   -5.7440 C   0  0  0  0  0  0  0  0  0  0  0  0
   -2.2590   11.2480   -4.4350 N   0  0  0  0  0  0  0  0  0  0  0  0
   -1.4940    9.9830   -6.1370 C   0  0  0  0  0  0  0  0  0  0  0  0
   -2.5710   10.2990   -5.3080 C   0  0  0  0  0  0  0  0  0  0  0  0
   -1.5320    8.7000   -7.4820 Br  0  0  0  0  0  0  0  0  0  0  0  0
  1  2  1  0
  1  3  1  0
  3  4  2  0
  3  5  1  0
  5  6  2  0
  5  7  1  0
  6  8  1  0
  7  9  2  0
  8 10  2  0
  9 10  1  0
 10 11  1  0
 11 12  1  1
 11 13  2  0
 11 14  2  0
 13 15  1  0
 16 15  1  6
 16 17  1  0
 16 18  1  0
 17 19  1  0
 17 20  2  0
 18 21  1  0
 18 22  1  0
 21 23  2  0
 22 24  2  0
 23 24  1  0
 23 25  1  0
M  END
