diamond-x0967_0_A-mac-x0283
     RDKit          3D

 11 12  0  0  0  0  0  0  0  0999 V2000
   -6.4360   15.0570    2.9210 N   0  0  0  0  0  0  0  0  0  0  0  0
   -6.5320   14.8350    1.5590 C   0  0  0  0  0  0  0  0  0  0  0  0
   -5.4590   14.8660    0.6250 C   0  0  0  0  0  0  0  0  0  0  0  0
   -7.8160   14.5870    1.1310 C   0  0  0  0  0  0  0  0  0  0  0  0
   -5.7830   14.6490   -0.7270 C   0  0  0  0  0  0  0  0  0  0  0  0
   -8.0180   14.3840   -0.1980 C   0  0  0  0  0  0  0  0  0  0  0  0
   -4.1010   15.1000    0.9440 C   0  0  0  0  0  0  0  0  0  0  0  0
   -7.0360   14.4160   -1.1120 N   0  0  0  0  0  0  0  0  0  0  0  0
   -4.8560   14.6670   -1.6870 N   0  0  0  0  0  0  0  0  0  0  0  0
   -3.1470   15.1110   -0.0590 C   0  0  0  0  0  0  0  0  0  0  0  0
   -3.5720   14.8930   -1.3500 C   0  0  0  0  0  0  0  0  0  0  0  0
  1  2  1  0
  2  3  2  0
  2  4  1  0
  3  5  1  0
  4  6  2  0
  3  7  1  0
  5  8  2  0
  6  8  1  0
  5  9  1  0
  7 10  2  0
  9 11  2  0
 10 11  1  0
M  END
