diamond-x0689_0_A-mac-x0182
     RDKit          3D

 22 24  0  0  0  0  0  0  0  0999 V2000
   -3.7430   15.1860    1.5490 N   0  0  0  0  0  0  0  0  0  0  0  0
   -4.7890   15.2780    0.5670 C   0  0  0  0  0  0  0  0  0  0  0  0
   -2.5140   14.8250    1.0290 C   0  0  0  0  0  0  0  0  0  0  0  0
   -2.4690   14.5890   -0.2900 N   0  0  0  0  0  0  0  0  0  0  0  0
   -1.4570   14.7340    1.8190 N   0  0  0  0  0  0  0  0  0  0  0  0
   -1.2770   14.2420   -0.8260 C   0  0  0  0  0  0  0  0  0  0  0  0
   -0.2940   14.3940    1.2710 C   0  0  0  0  0  0  0  0  0  0  0  0
   -1.2740   13.9700   -2.3090 C   0  0  0  0  0  0  0  0  0  0  0  0
   -0.1310   14.1330   -0.0650 C   0  0  0  0  0  0  0  0  0  0  0  0
   -2.0060   12.6530   -2.6020 C   0  0  0  0  0  0  0  0  0  0  0  0
   -1.7720   12.2130   -3.9970 N   0  0  0  0  0  0  0  0  0  0  0  0
   -0.6790   11.1830   -4.2540 S   0  0  2  0  0  0  0  0  0  0  0  0
    0.0330   10.3830   -3.2880 O   0  0  0  0  0  0  0  0  0  0  0  0
    0.4870   12.0830   -5.0580 N   0  0  0  0  0  0  0  0  0  0  0  0
   -1.0980   10.2100   -5.6280 C   0  0  0  0  0  0  0  0  0  0  0  0
    0.7610   11.5530   -6.2870 C   0  0  0  0  0  0  0  0  0  0  0  0
   -0.2280   10.5170   -6.6710 C   0  0  0  0  0  0  0  0  0  0  0  0
   -2.1030    9.2720   -5.7410 C   0  0  0  0  0  0  0  0  0  0  0  0
    1.7020   11.8540   -6.9770 O   0  0  0  0  0  0  0  0  0  0  0  0
   -2.2310    8.6190   -6.9690 C   0  0  0  0  0  0  0  0  0  0  0  0
   -0.3450    9.8750   -7.8910 C   0  0  0  0  0  0  0  0  0  0  0  0
   -1.3580    8.9180   -8.0390 C   0  0  0  0  0  0  0  0  0  0  0  0
  1  2  1  0
  1  3  1  0
  3  4  2  0
  3  5  1  0
  4  6  1  0
  5  7  2  0
  6  8  1  0
  6  9  2  0
  7  9  1  0
  8 10  1  0
 10 11  1  0
 11 12  2  0
 12 13  2  0
 12 14  1  6
 12 15  1  0
 14 16  1  0
 15 17  2  0
 16 17  1  0
 15 18  1  0
 16 19  2  0
 18 20  2  0
 17 21  1  0
 20 22  1  0
 21 22  2  0
M  END
