diamond-x0128_0_A-diamond-x0905_0_A
     RDKit          3D

 16 17  0  0  0  0  0  0  0  0999 V2000
   -6.5750   14.8510    2.5240 N   0  0  0  0  0  0  0  0  0  0  0  0
   -7.8850   15.1000    2.8210 C   0  0  0  0  0  0  0  0  0  0  0  0
   -8.8420   14.8940    2.0900 O   0  0  0  0  0  0  0  0  0  0  0  0
   -5.9560   14.9680    1.2660 C   0  0  0  0  0  0  0  0  0  0  0  0
   -8.1780   15.6530    3.9920 N   0  0  0  0  0  0  0  0  0  0  0  0
   -6.7740   14.8120    0.1360 C   0  0  0  0  0  0  0  0  0  0  0  0
   -4.5980   15.2370    1.0880 C   0  0  0  0  0  0  0  0  0  0  0  0
   -6.2440   14.9320   -1.1490 C   0  0  0  0  0  0  0  0  0  0  0  0
   -4.0700   15.3540   -0.2010 C   0  0  0  0  0  0  0  0  0  0  0  0
   -8.6790   16.2340    5.1280 C   0  0  0  0  0  0  0  0  0  0  0  0
   -4.8900   15.2030   -1.3160 C   0  0  0  0  0  0  0  0  0  0  0  0
   -9.3250   17.4510    4.9590 C   0  0  0  0  0  0  0  0  0  0  0  0
   -8.6090   15.7130    6.4220 C   0  0  0  0  0  0  0  0  0  0  0  0
   -9.8970   18.1620    5.9500 N   0  0  0  0  0  0  0  0  0  0  0  0
   -9.1960   16.4300    7.4700 C   0  0  0  0  0  0  0  0  0  0  0  0
   -9.8220   17.6370    7.1830 C   0  0  0  0  0  0  0  0  0  0  0  0
  1  2  1  0
  2  3  2  0
  1  4  1  0
  2  5  1  0
  4  6  2  0
  4  7  1  0
  6  8  1  0
  7  9  2  0
  5 10  1  0
  8 11  2  0
  9 11  1  0
 10 12  2  0
 10 13  1  0
 12 14  1  0
 13 15  2  0
 14 16  2  0
 15 16  1  0
M  END
