diamond-x0910_1_A-mac-x0180
     RDKit          3D

 18 19  0  0  0  0  0  0  0  0999 V2000
   -7.1520   13.8480    0.6160 N   0  0  0  0  0  0  0  0  0  0  0  0
   -6.5900   12.6430    0.8090 C   0  0  0  0  0  0  0  0  0  0  0  0
   -7.2740   11.6360    0.7490 O   0  0  0  0  0  0  0  0  0  0  0  0
   -6.2770   14.7560    0.1840 C   0  0  0  0  0  0  0  0  0  0  0  0
   -5.2160   12.7510    1.0400 N   0  0  0  0  0  0  0  0  0  0  0  0
   -6.2590   15.3900   -1.0160 N   0  0  0  0  0  0  0  0  0  0  0  0
   -5.2650   15.1410    0.9120 N   0  0  0  0  0  0  0  0  0  0  0  0
   -5.2050   16.1990   -1.0850 N   0  0  0  0  0  0  0  0  0  0  0  0
   -4.6300   16.0140    0.1050 C   0  0  0  0  0  0  0  0  0  0  0  0
   -4.2570   13.2610    0.1040 C   0  0  0  0  0  0  0  0  0  0  0  0
   -3.0620   13.8240    0.6040 C   0  0  0  0  0  0  0  0  0  0  0  0
   -4.4430   13.2350   -1.2830 C   0  0  0  0  0  0  0  0  0  0  0  0
   -2.0820   14.3380   -0.2700 C   0  0  0  0  0  0  0  0  0  0  0  0
   -3.4680   13.7470   -2.1550 C   0  0  0  0  0  0  0  0  0  0  0  0
   -2.2840   14.2960   -1.6600 C   0  0  0  0  0  0  0  0  0  0  0  0
   -1.2920   14.8110   -2.6450 C   0  0  0  0  0  0  0  0  0  0  0  0
   -1.5290   15.1770   -3.7830 O   0  0  0  0  0  0  0  0  0  0  0  0
   -0.0420   14.8440   -2.1560 O   0  0  0  0  0  0  0  0  0  0  0  0
  1  2  1  0
  2  3  2  0
  1  4  1  0
  2  5  1  0
  4  6  1  0
  4  7  2  0
  6  8  1  0
  7  9  1  0
  8  9  2  0
  5 10  1  0
 10 11  2  0
 10 12  1  0
 11 13  1  0
 12 14  2  0
 13 15  2  0
 14 15  1  0
 15 16  1  0
 16 17  2  0
 16 18  1  0
M  END
