diamond-x1015_0_A-mac-x0305
     RDKit          3D

 24 26  0  0  0  0  0  0  0  0999 V2000
   -0.6040   14.2490   -4.9760 C   0  0  0  0  0  0  0  0  0  0  0  0
    0.5720   13.5110   -4.3180 C   0  0  2  0  0  0  0  0  0  0  0  0
    0.4800   12.0400   -4.2700 N   0  0  0  0  0  0  0  0  0  0  0  0
    0.4010   13.5650   -2.8460 C   0  0  1  0  0  0  0  0  0  0  0  0
   -0.5420   14.3560   -2.2540 N   0  0  0  0  0  0  0  0  0  0  0  0
    0.7180   11.5780   -2.9200 C   0  0  0  0  0  0  0  0  0  0  0  0
    1.2560   12.6730   -2.2410 N   0  0  0  0  0  0  0  0  0  0  0  0
   -0.1620   11.2850   -5.2660 C   0  0  0  0  0  0  0  0  0  0  0  0
    0.4990   10.4810   -2.3930 O   0  0  0  0  0  0  0  0  0  0  0  0
   -0.8420   14.0590   -1.0930 C   0  0  0  0  0  0  0  0  0  0  0  0
    0.2170   11.4440   -6.5980 C   0  0  0  0  0  0  0  0  0  0  0  0
   -1.1790   10.3630   -4.9650 C   0  0  0  0  0  0  0  0  0  0  0  0
   -0.2210   13.1410   -0.3090 O   0  0  0  0  0  0  0  0  0  0  0  0
   -0.3880   10.7090   -7.6100 C   0  0  0  0  0  0  0  0  0  0  0  0
   -1.7910    9.6200   -5.9780 C   0  0  0  0  0  0  0  0  0  0  0  0
   -2.0220   14.6690   -0.5460 C   0  0  0  0  0  0  0  0  0  0  0  0
   -1.3890    9.7970   -7.2990 C   0  0  0  0  0  0  0  0  0  0  0  0
   -2.2640   14.9280    0.7860 C   0  0  0  0  0  0  0  0  0  0  0  0
   -2.8840   14.9360   -1.5660 N   0  0  0  0  0  0  0  0  0  0  0  0
   -2.1270    8.8870   -8.5530 Cl  0  0  0  0  0  0  0  0  0  0  0  0
   -1.3750   14.6460    1.7800 O   0  0  0  0  0  0  0  0  0  0  0  0
   -3.4980   15.5020    1.0760 C   0  0  0  0  0  0  0  0  0  0  0  0
   -4.0470   15.4840   -1.2500 C   0  0  0  0  0  0  0  0  0  0  0  0
   -4.3900   15.7780    0.0450 C   0  0  0  0  0  0  0  0  0  0  0  0
  2  1  1  6
  2  3  1  0
  2  4  1  0
  4  5  1  6
  3  6  1  0
  4  7  1  0
  6  7  1  0
  3  8  1  0
  6  9  2  0
  5 10  2  3
  8 11  2  0
  8 12  1  0
 10 13  1  0
 11 14  1  0
 12 15  2  0
 10 16  1  0
 14 17  2  0
 15 17  1  0
 16 18  2  0
 16 19  1  0
 17 20  1  0
 18 21  1  0
 18 22  1  0
 19 23  2  0
 22 24  2  0
 23 24  1  0
M  END
