diamond-x0742_0_A-mac-x0204
     RDKit          3D

 27 30  0  0  0  0  0  0  0  0999 V2000
   -5.3950   12.6370   -0.3840 C   0  0  0  0  0  0  0  0  0  0  0  0
   -6.2360   12.0110    0.6930 C   0  0  0  0  0  0  0  0  0  0  0  0
   -4.9290   11.9130   -1.2790 O   0  0  0  0  0  0  0  0  0  0  0  0
   -5.1340   14.1720   -0.3990 C   0  0  2  0  0  0  0  0  0  0  0  0
   -5.1660   14.7400    1.0350 C   0  0  0  0  0  0  0  0  0  0  0  0
   -6.1790   14.7800   -1.3360 C   0  0  0  0  0  0  0  0  0  0  0  0
   -3.8920   14.7710   -1.0660 C   0  0  2  0  0  0  0  0  0  0  0  0
   -4.0760   14.5340   -2.5630 C   0  0  0  0  0  0  0  0  0  0  0  0
   -2.6120   14.5420   -0.3360 C   0  0  0  0  0  0  0  0  0  0  0  0
   -3.8890   14.4330    1.8330 C   0  0  0  0  0  0  0  0  0  0  0  0
   -5.6040   14.4670   -2.7240 C   0  0  0  0  0  0  0  0  0  0  0  0
   -1.4100   14.4760   -0.9910 C   0  0  0  0  0  0  0  0  0  0  0  0
   -2.6130   14.3980    1.0510 C   0  0  0  0  0  0  0  0  0  0  0  0
   -1.4890   14.2200    1.7690 N   0  0  0  0  0  0  0  0  0  0  0  0
   -0.2390   14.2790   -0.2860 C   0  0  0  0  0  0  0  0  0  0  0  0
    1.0180   14.2100   -1.0680 C   0  0  0  0  0  0  0  0  0  0  0  0
   -0.3340   14.1610    1.0970 C   0  0  0  0  0  0  0  0  0  0  0  0
    0.6810   13.5370   -2.2760 O   0  0  0  0  0  0  0  0  0  0  0  0
    0.4720   14.4840   -3.1950 C   0  0  0  0  0  0  0  0  0  0  0  0
    1.1970   15.4450   -3.3360 O   0  0  0  0  0  0  0  0  0  0  0  0
   -0.7460   14.2640   -4.0030 C   0  0  0  0  0  0  0  0  0  0  0  0
   -1.3160   15.3820   -4.6020 C   0  0  0  0  0  0  0  0  0  0  0  0
   -1.3540   13.0280   -4.2070 C   0  0  0  0  0  0  0  0  0  0  0  0
   -2.4540   15.2370   -5.3740 C   0  0  0  0  0  0  0  0  0  0  0  0
   -2.4750   12.8560   -4.9620 N   0  0  0  0  0  0  0  0  0  0  0  0
   -2.9690   16.3640   -5.9440 O   0  0  0  0  0  0  0  0  0  0  0  0
   -3.0000   13.9700   -5.5300 C   0  0  0  0  0  0  0  0  0  0  0  0
  1  2  1  0
  1  3  2  0
  4  1  1  1
  4  5  1  0
  4  6  1  0
  4  7  1  0
  7  8  1  6
  7  9  1  0
  5 10  1  0
  6 11  1  0
  8 11  1  0
  9 12  1  0
  9 13  2  0
 10 13  1  0
 13 14  1  0
 12 15  2  0
 15 16  1  0
 14 17  2  0
 15 17  1  0
 16 18  1  0
 18 19  1  0
 19 20  2  0
 19 21  1  0
 21 22  2  0
 21 23  1  0
 22 24  1  0
 23 25  2  0
 24 26  1  0
 24 27  2  0
 25 27  1  0
M  END
