diamond-x0591_0_A-mac-x0124
     RDKit          3D

 26 28  0  0  0  0  0  0  0  0999 V2000
   -5.9280   14.3440    0.8130 N   0  0  0  0  0  0  0  0  0  0  0  0
   -6.8040   14.4720    1.9450 C   0  0  0  0  0  0  0  0  0  0  0  0
   -6.3600   14.5900   -0.4650 C   0  0  0  0  0  0  0  0  0  0  0  0
   -7.5180   14.9080   -0.7250 O   0  0  0  0  0  0  0  0  0  0  0  0
   -5.3740   14.4590   -1.5800 C   0  0  0  0  0  0  0  0  0  0  0  0
   -4.0870   13.9070   -1.4170 C   0  0  0  0  0  0  0  0  0  0  0  0
   -5.7600   14.9080   -2.8390 C   0  0  0  0  0  0  0  0  0  0  0  0
   -3.2110   13.8250   -2.5190 C   0  0  0  0  0  0  0  0  0  0  0  0
   -4.8900   14.8200   -3.9300 C   0  0  0  0  0  0  0  0  0  0  0  0
   -3.6210   14.2900   -3.7750 C   0  0  0  0  0  0  0  0  0  0  0  0
   -2.5580   14.2280   -5.2140 S   0  0  0  0  0  0  0  0  0  0  0  0
   -1.3540   15.3660   -4.8760 N   0  0  0  0  0  0  0  0  0  0  0  0
   -1.9230   12.9310   -5.2240 O   0  0  0  0  0  0  0  0  0  0  0  0
   -3.3020   14.7320   -6.3440 O   0  0  0  0  0  0  0  0  0  0  0  0
   -0.0840   14.8470   -4.3420 C   0  0  0  0  0  0  0  0  0  0  0  0
    0.1820   15.4060   -2.9570 C   0  0  0  0  0  0  0  0  0  0  0  0
   -1.0170   15.5080   -2.1340 N   0  0  0  0  0  0  0  0  0  0  0  0
   -2.2700   15.9010   -2.5410 C   0  0  0  0  0  0  0  0  0  0  0  0
   -1.0530   15.2190   -0.7970 C   0  0  0  0  0  0  0  0  0  0  0  0
   -3.1040   15.8620   -1.4430 C   0  0  0  0  0  0  0  0  0  0  0  0
   -2.3390   15.4320   -0.3320 C   0  0  0  0  0  0  0  0  0  0  0  0
    0.0020   14.8040   -0.0890 N   0  0  0  0  0  0  0  0  0  0  0  0
   -2.5700   15.1930    1.0240 C   0  0  0  0  0  0  0  0  0  0  0  0
   -0.3470   14.6050    1.1950 C   0  0  0  0  0  0  0  0  0  0  0  0
   -3.8060   15.3730    1.6400 N   0  0  0  0  0  0  0  0  0  0  0  0
   -1.5440   14.7720    1.7800 N   0  0  0  0  0  0  0  0  0  0  0  0
  1  2  1  0
  1  3  1  0
  3  4  2  0
  3  5  1  0
  5  6  2  0
  5  7  1  0
  6  8  1  0
  7  9  2  0
  8 10  2  0
  9 10  1  0
 10 11  1  0
 11 12  1  0
 11 13  2  0
 11 14  2  0
 12 15  1  0
 15 16  1  0
 16 17  1  0
 17 18  1  0
 17 19  1  0
 18 20  2  0
 19 21  2  0
 20 21  1  0
 19 22  1  0
 21 23  1  0
 22 24  2  0
 23 25  1  0
 23 26  2  0
 24 26  1  0
M  END
