diamond-x0438_0_A-diamond-x0371_0_A
     RDKit          3D

 20 22  0  0  0  0  0  0  0  0999 V2000
   -8.3700   16.0620    3.8910 C   0  0  0  0  0  0  0  0  0  0  0  0
   -9.4750   15.4040    2.6590 S   0  0  0  0  0  0  0  0  0  0  0  0
  -10.6960   14.9260    3.2850 O   0  0  0  0  0  0  0  0  0  0  0  0
   -8.5780   15.7510    5.3060 C   0  0  0  0  0  0  0  0  0  0  0  0
   -8.5680   13.9750    1.9370 C   0  0  2  0  0  0  0  0  0  0  0  0
   -9.5840   16.4390    1.6370 O   0  0  0  0  0  0  0  0  0  0  0  0
   -7.9700   14.6310    5.7740 O   0  0  0  0  0  0  0  0  0  0  0  0
   -9.2640   16.3740    6.3170 C   0  0  0  0  0  0  0  0  0  0  0  0
   -8.1610   12.9820    2.9570 N   0  0  0  0  0  0  0  0  0  0  0  0
   -7.3070   14.3430    1.1660 C   0  0  0  0  0  0  0  0  0  0  0  0
   -9.0560   15.5870    7.4750 C   0  0  0  0  0  0  0  0  0  0  0  0
   -8.2610   14.5370    7.0900 C   0  0  0  0  0  0  0  0  0  0  0  0
   -7.2130   14.7430   -0.1570 N   0  0  0  0  0  0  0  0  0  0  0  0
   -6.1080   14.3020    1.7030 N   0  0  0  0  0  0  0  0  0  0  0  0
   -5.2210   14.6660    0.7380 C   0  0  0  0  0  0  0  0  0  0  0  0
   -5.8790   14.9520   -0.4470 C   0  0  0  0  0  0  0  0  0  0  0  0
   -5.2090   15.3510   -1.6020 C   0  0  0  0  0  0  0  0  0  0  0  0
   -3.8310   14.7650    0.8170 C   0  0  0  0  0  0  0  0  0  0  0  0
   -3.8160   15.4440   -1.5150 C   0  0  0  0  0  0  0  0  0  0  0  0
   -3.1380   15.1540   -0.3260 C   0  0  0  0  0  0  0  0  0  0  0  0
  2  1  1  0
  2  3  2  0
  1  4  1  0
  2  5  1  0
  2  6  2  0
  4  7  1  0
  4  8  2  0
  5  9  1  1
  5 10  1  0
  8 11  1  0
  7 12  1  0
 11 12  2  0
 10 13  1  0
 10 14  2  0
 14 15  1  0
 13 16  1  0
 15 16  2  0
 16 17  1  0
 15 18  1  0
 17 19  2  0
 18 20  2  0
 19 20  1  0
M  END
