diamond-x0895_0_A-mac-x0373
     RDKit          3D

 17 18  0  0  0  0  0  0  0  0999 V2000
   -1.3130   14.5020    1.6270 O   0  0  0  0  0  0  0  0  0  0  0  0
   -2.2780   14.5930    0.8690 C   0  0  0  0  0  0  0  0  0  0  0  0
   -3.6970   14.7590    1.3780 C   0  0  0  0  0  0  0  0  0  0  0  0
   -2.3180   14.5640   -0.5340 N   0  0  0  0  0  0  0  0  0  0  0  0
   -1.3660   13.7690   -1.3970 C   0  0  2  0  0  0  0  0  0  0  0  0
   -4.2710   15.3750    0.2330 N   0  0  0  0  0  0  0  0  0  0  0  0
   -3.5700   15.0110   -0.9000 C   0  0  0  0  0  0  0  0  0  0  0  0
   -4.0490   15.0880   -2.0130 O   0  0  0  0  0  0  0  0  0  0  0  0
    0.0710   14.3060   -1.4890 C   0  0  0  0  0  0  0  0  0  0  0  0
   -1.8130   12.9760   -2.6610 C   0  0  0  0  0  0  0  0  0  0  0  0
    0.9940   13.3610   -1.1710 O   0  0  0  0  0  0  0  0  0  0  0  0
    0.4540   15.4160   -1.8140 O   0  0  0  0  0  0  0  0  0  0  0  0
   -1.1080   13.1160   -3.8940 C   0  0  0  0  0  0  0  0  0  0  0  0
   -2.8970   12.0840   -2.6480 C   0  0  0  0  0  0  0  0  0  0  0  0
   -1.4750   12.3840   -5.0380 C   0  0  0  0  0  0  0  0  0  0  0  0
   -3.2580   11.3560   -3.7910 C   0  0  0  0  0  0  0  0  0  0  0  0
   -2.5520   11.5040   -4.9830 C   0  0  0  0  0  0  0  0  0  0  0  0
  1  2  2  0
  2  3  1  0
  2  4  1  0
  4  5  1  0
  3  6  1  0
  4  7  1  0
  6  7  1  0
  7  8  2  0
  5  9  1  6
  5 10  1  0
  9 11  1  0
  9 12  2  0
 10 13  2  0
 10 14  1  0
 13 15  1  0
 14 16  2  0
 15 17  2  0
 16 17  1  0
M  END
