diamond-x0969_0_A-mac-x0337
     RDKit          3D

 21 23  0  0  0  0  0  0  0  0999 V2000
   -7.0260   14.6320    2.8970 N   0  0  0  0  0  0  0  0  0  0  0  0
   -6.8040   14.7600    1.5870 C   0  0  0  0  0  0  0  0  0  0  0  0
   -7.6490   14.5690    0.5920 N   0  0  0  0  0  0  0  0  0  0  0  0
   -5.5760   15.1420    1.0990 N   0  0  0  0  0  0  0  0  0  0  0  0
   -6.9840   14.8210   -0.5870 N   0  0  0  0  0  0  0  0  0  0  0  0
   -5.7540   15.1530   -0.2530 C   0  0  0  0  0  0  0  0  0  0  0  0
   -4.3580   15.4720    1.7240 C   0  0  0  0  0  0  0  0  0  0  0  0
   -4.6160   15.5010   -0.9520 C   0  0  0  0  0  0  0  0  0  0  0  0
   -3.2990   15.7980    0.9860 C   0  0  0  0  0  0  0  0  0  0  0  0
   -4.5340   15.4850   -2.2640 N   0  0  0  0  0  0  0  0  0  0  0  0
   -3.4530   15.8090   -0.4130 C   0  0  0  0  0  0  0  0  0  0  0  0
   -3.2330   14.4340   -2.2660 S   0  0  0  0  0  0  0  0  0  0  0  0
   -2.6520   14.5810   -3.5630 O   0  0  0  0  0  0  0  0  0  0  0  0
   -2.4460   14.6110   -1.0490 O   0  0  0  0  0  0  0  0  0  0  0  0
   -4.0530   12.8690   -2.1040 C   0  0  0  0  0  0  0  0  0  0  0  0
   -3.5760   11.8130   -2.8530 C   0  0  0  0  0  0  0  0  0  0  0  0
   -5.1560   12.7080   -1.2480 C   0  0  0  0  0  0  0  0  0  0  0  0
   -4.2050   10.5820   -2.7710 C   0  0  0  0  0  0  0  0  0  0  0  0
   -5.7860   11.4670   -1.1700 C   0  0  0  0  0  0  0  0  0  0  0  0
   -5.3150   10.3970   -1.9410 C   0  0  0  0  0  0  0  0  0  0  0  0
   -5.9850    9.0610   -1.8890 C   0  0  0  0  0  0  0  0  0  0  0  0
  1  2  1  0
  2  3  2  0
  2  4  1  0
  3  5  1  0
  4  6  1  0
  5  6  2  0
  4  7  1  0
  6  8  1  0
  7  9  2  0
  8 10  1  0
  8 11  2  0
  9 11  1  0
 12 10  1  0
 12 13  2  0
 12 14  2  0
 12 15  1  0
 15 16  2  0
 15 17  1  0
 16 18  1  0
 17 19  2  0
 18 20  2  0
 19 20  1  0
 20 21  1  0
M  END
