diamond-x0438_0_A-mac-x0345
     RDKit          3D

 16 17  0  0  0  0  0  0  0  0999 V2000
   -8.1570   15.4940    3.8020 C   0  0  0  0  0  0  0  0  0  0  0  0
   -9.3910   15.3050    2.5220 S   0  0  0  0  0  0  0  0  0  0  0  0
  -10.6260   14.8620    3.1540 O   0  0  0  0  0  0  0  0  0  0  0  0
   -8.8250   13.9730    1.4790 C   0  0  0  0  0  0  0  0  0  0  0  0
   -9.4150   16.5030    1.7100 O   0  0  0  0  0  0  0  0  0  0  0  0
   -7.5460   14.2860    0.7950 C   0  0  0  0  0  0  0  0  0  0  0  0
   -7.4520   14.5100   -0.5590 N   0  0  0  0  0  0  0  0  0  0  0  0
   -6.3660   14.3800    1.3570 N   0  0  0  0  0  0  0  0  0  0  0  0
   -5.4870   14.6670    0.3360 C   0  0  0  0  0  0  0  0  0  0  0  0
   -6.1360   14.7520   -0.8690 C   0  0  0  0  0  0  0  0  0  0  0  0
   -5.4870   15.0230   -2.0730 C   0  0  0  0  0  0  0  0  0  0  0  0
   -4.1220   14.8630    0.3470 C   0  0  0  0  0  0  0  0  0  0  0  0
   -6.1900   15.0710   -3.2810 N   0  0  0  0  0  0  0  0  0  0  0  0
   -3.2430   14.7260    1.9480 Br  0  0  0  0  0  0  0  0  0  0  0  0
   -4.1000   15.2250   -2.0140 C   0  0  0  0  0  0  0  0  0  0  0  0
   -3.4190   15.1450   -0.8100 C   0  0  0  0  0  0  0  0  0  0  0  0
  2  1  1  0
  2  3  2  0
  2  4  1  0
  2  5  2  0
  4  6  1  0
  6  7  1  0
  6  8  2  0
  8  9  1  0
  7 10  1  0
  9 10  2  0
 10 11  1  0
  9 12  1  0
 11 13  1  0
 12 14  1  0
 11 15  2  0
 12 16  2  0
 15 16  1  0
M  END
