diamond-x1012_0_A-mac-x0576
     RDKit          3D

 25 27  0  0  0  0  0  0  0  0999 V2000
   -0.5320   18.2900   -4.8920 N   0  0  0  0  0  0  0  0  0  0  0  0
   -1.2810   17.1730   -4.8170 C   0  0  0  0  0  0  0  0  0  0  0  0
   -2.4920   17.3030   -4.6910 O   0  0  0  0  0  0  0  0  0  0  0  0
   -0.6200   15.9700   -4.8620 N   0  0  0  0  0  0  0  0  0  0  0  0
   -1.4320   14.7490   -4.9640 C   0  0  0  0  0  0  0  0  0  0  0  0
    0.7950   15.7790   -4.5390 C   0  0  0  0  0  0  0  0  0  0  0  0
   -1.2940   13.7500   -3.7980 C   0  0  2  0  0  0  0  0  0  0  0  0
    0.9840   14.8340   -3.3460 C   0  0  0  0  0  0  0  0  0  0  0  0
   -2.1360   14.2610   -2.6970 N   0  0  0  0  0  0  0  0  0  0  0  0
    0.1990   13.5190   -3.5100 C   0  0  1  0  0  0  0  0  0  0  0  0
    0.3750   12.5070   -2.3910 C   0  0  0  0  0  0  0  0  0  0  0  0
   -1.8940   14.5260   -1.4590 C   0  0  0  0  0  0  0  0  0  0  0  0
    0.3240   11.2200   -2.8260 O   0  0  0  0  0  0  0  0  0  0  0  0
    0.5420   12.7660   -1.2150 O   0  0  0  0  0  0  0  0  0  0  0  0
   -0.7410   14.4420   -0.6940 N   0  0  0  0  0  0  0  0  0  0  0  0
   -3.1660   14.9950   -0.7480 C   0  0  2  0  0  0  0  0  0  0  0  0
   -0.7580   14.8320    0.6980 C   0  0  2  0  0  0  0  0  0  0  0  0
   -3.1170   14.4340    0.6650 C   0  0  1  0  0  0  0  0  0  0  0  0
   -4.3680   14.5110   -1.4390 N   0  0  0  0  0  0  0  0  0  0  0  0
   -0.0390   13.9770    1.5850 N   0  0  0  0  0  0  0  0  0  0  0  0
   -1.9980   14.9320    1.4380 N   0  0  0  0  0  0  0  0  0  0  0  0
   -4.2990   14.8280    1.3840 N   0  0  0  0  0  0  0  0  0  0  0  0
   -5.4770   15.2210   -0.7840 C   0  0  0  0  0  0  0  0  0  0  0  0
   -5.5020   14.9540    0.7290 C   0  0  0  0  0  0  0  0  0  0  0  0
   -6.5560   14.8440    1.3480 O   0  0  0  0  0  0  0  0  0  0  0  0
  1  2  1  0
  2  3  2  0
  2  4  1  0
  4  5  1  0
  4  6  1  0
  5  7  1  0
  6  8  1  0
  7  9  1  1
  7 10  1  0
  8 10  1  0
 10 11  1  1
  9 12  2  3
 11 13  1  0
 11 14  2  0
 12 15  1  0
 12 16  1  0
 15 17  1  0
 16 18  1  0
 16 19  1  6
 17 20  1  1
 17 21  1  0
 18 21  1  1
 18 22  1  0
 19 23  1  0
 22 24  1  0
 23 24  1  0
 24 25  2  0
M  END
