diamond-x0742_0_A-mac-x0402
     RDKit          3D

 18 20  0  0  0  0  0  0  0  0999 V2000
   -5.3440   12.5350   -1.0870 C   0  0  0  0  0  0  0  0  0  0  0  0
   -6.2240   12.3040    0.1220 C   0  0  0  0  0  0  0  0  0  0  0  0
   -5.3520   11.6640   -1.9640 O   0  0  0  0  0  0  0  0  0  0  0  0
   -4.4200   13.7970   -1.2520 C   0  0  2  0  0  0  0  0  0  0  0  0
   -4.5120   14.9310   -0.2170 C   0  0  1  0  0  0  0  0  0  0  0  0
   -4.6650   14.7720   -2.3820 C   0  0  1  0  0  0  0  0  0  0  0  0
   -3.0260   13.2680   -1.4240 C   0  0  0  0  0  0  0  0  0  0  0  0
   -4.0930   14.3460   -4.0030 Cl  0  0  0  0  0  0  0  0  0  0  0  0
   -5.8710   15.5640   -0.5840 C   0  0  0  0  0  0  0  0  0  0  0  0
   -2.1080   13.7190   -0.3670 C   0  0  0  0  0  0  0  0  0  0  0  0
   -3.9670   14.6140    1.1710 C   0  0  1  0  0  0  0  0  0  0  0  0
   -6.0990   15.1450   -2.0580 C   0  0  0  0  0  0  0  0  0  0  0  0
   -4.7950   13.6160    1.8480 N   0  0  0  0  0  0  0  0  0  0  0  0
   -0.7970   13.5080   -0.6770 C   0  0  0  0  0  0  0  0  0  0  0  0
   -2.4780   14.3150    0.8540 C   0  0  0  0  0  0  0  0  0  0  0  0
   -1.5260   14.6650    1.7580 N   0  0  0  0  0  0  0  0  0  0  0  0
    0.1490   13.8650    0.2050 C   0  0  0  0  0  0  0  0  0  0  0  0
   -0.2410   14.4240    1.4040 C   0  0  0  0  0  0  0  0  0  0  0  0
  1  2  1  0
  1  3  2  0
  4  1  1  1
  4  5  1  0
  4  6  1  0
  4  7  1  0
  6  8  1  6
  5  9  1  1
  7 10  1  0
  5 11  1  0
  6 12  1  0
  9 12  1  0
 11 13  1  6
 10 14  2  0
 10 15  1  0
 11 15  1  0
 15 16  2  0
 14 17  1  0
 16 18  1  0
 17 18  2  0
M  END
