diamond-x0766_0_A-mac-x0404
     RDKit          3D

 25 28  0  0  0  0  0  0  0  0999 V2000
    0.5250   12.4930   -3.2520 C   0  0  0  0  0  0  0  0  0  0  0  0
    1.2560   12.8040   -2.0710 O   0  0  0  0  0  0  0  0  0  0  0  0
   -0.2590   11.3310   -2.9990 O   0  0  0  0  0  0  0  0  0  0  0  0
    1.4490   12.3420   -4.4620 C   0  0  0  0  0  0  0  0  0  0  0  0
   -0.2390   13.6770   -3.7900 C   0  0  2  0  0  0  0  0  0  0  0  0
    1.2130   13.5460   -5.2560 O   0  0  0  0  0  0  0  0  0  0  0  0
    0.8120   14.4210   -4.6400 C   0  0  0  0  0  0  0  0  0  0  0  0
   -0.6810   14.8720   -2.9550 C   0  0  2  0  0  0  0  0  0  0  0  0
    1.6960   14.9490   -3.5240 C   0  0  0  0  0  0  0  0  0  0  0  0
    0.6510   15.4800   -2.5460 C   0  0  0  0  0  0  0  0  0  0  0  0
   -1.6810   14.6770   -1.8580 C   0  0  0  0  0  0  0  0  0  0  0  0
   -0.0680   14.1420   -5.2870 C   0  0  0  0  0  0  0  0  0  0  0  0
   -3.0420   14.7460   -2.0860 C   0  0  0  0  0  0  0  0  0  0  0  0
   -1.4030   14.4230   -0.4780 C   0  0  0  0  0  0  0  0  0  0  0  0
   -0.1730   15.5970   -5.3120 C   0  0  0  0  0  0  0  0  0  0  0  0
   -1.2560   13.3900   -5.2970 C   0  0  0  0  0  0  0  0  0  0  0  0
   -2.5520   14.3140    0.2750 C   0  0  0  0  0  0  0  0  0  0  0  0
   -3.9610   14.5150   -0.6700 S   0  0  0  0  0  0  0  0  0  0  0  0
   -1.4700   16.1970   -5.3420 C   0  0  0  0  0  0  0  0  0  0  0  0
   -2.5090   14.0100   -5.3240 C   0  0  0  0  0  0  0  0  0  0  0  0
    0.9310   16.4850   -5.3140 C   0  0  0  0  0  0  0  0  0  0  0  0
   -2.6130   15.3970   -5.3450 C   0  0  0  0  0  0  0  0  0  0  0  0
   -1.6020   17.5870   -5.3770 C   0  0  0  0  0  0  0  0  0  0  0  0
    0.7750   17.8680   -5.3500 C   0  0  0  0  0  0  0  0  0  0  0  0
   -0.4950   18.4140   -5.3840 C   0  0  0  0  0  0  0  0  0  0  0  0
  1  2  1  0
  1  3  1  0
  1  4  1  0
  5  1  1  1
  4  6  1  0
  5  7  1  0
  5  8  1  0
  7  9  1  0
  8 10  1  0
  9 10  1  0
  8 11  1  1
  6 12  1  0
 11 13  2  0
 11 14  1  0
 12 15  1  0
 12 16  2  0
 14 17  2  0
 13 18  1  0
 17 18  1  0
 15 19  2  0
 16 20  1  0
 15 21  1  0
 19 22  1  0
 20 22  2  0
 19 23  1  0
 21 24  2  0
 23 25  2  0
 24 25  1  0
M  END
