diamond-x1015_0_A-diamond-x0471_0_A
     RDKit          3D

 33 36  0  0  0  0  0  0  0  0999 V2000
   -1.1430   14.2550   -4.3120 C   0  0  0  0  0  0  0  0  0  0  0  0
    0.0820   13.5000   -3.7900 C   0  0  2  0  0  0  0  0  0  0  0  0
   -0.0540   12.0510   -3.9320 N   0  0  0  0  0  0  0  0  0  0  0  0
    0.0960   13.5490   -2.2610 C   0  0  0  0  0  0  0  0  0  0  0  0
    0.5080   14.4590   -1.5010 N   0  0  0  0  0  0  0  0  0  0  0  0
    0.2770   11.4410   -2.7270 C   0  0  0  0  0  0  0  0  0  0  0  0
    0.7370   12.4180   -1.9430 N   0  0  0  0  0  0  0  0  0  0  0  0
   -0.4710   11.3500   -5.0850 C   0  0  0  0  0  0  0  0  0  0  0  0
    0.1990   10.2770   -2.3740 O   0  0  0  0  0  0  0  0  0  0  0  0
   -0.4770   15.0990   -0.6510 C   0  0  0  0  0  0  0  0  0  0  0  0
    0.0840   11.6020   -6.3480 C   0  0  0  0  0  0  0  0  0  0  0  0
   -1.4600   10.3640   -4.9810 C   0  0  0  0  0  0  0  0  0  0  0  0
   -1.4210   14.2270    0.1760 C   0  0  0  0  0  0  0  0  0  0  0  0
   -0.3410   10.8810   -7.4690 C   0  0  0  0  0  0  0  0  0  0  0  0
   -1.8870    9.6440   -6.0960 C   0  0  0  0  0  0  0  0  0  0  0  0
   -1.3250    9.9040   -7.3360 C   0  0  0  0  0  0  0  0  0  0  0  0
   -2.9110   14.5270   -0.0880 C   0  0  0  0  0  0  0  0  0  0  0  0
   -1.8500    9.0120   -8.7080 Cl  0  0  0  0  0  0  0  0  0  0  0  0
   -3.3850   15.0690   -1.3080 C   0  0  0  0  0  0  0  0  0  0  0  0
   -3.8520   14.2380    0.9170 C   0  0  0  0  0  0  0  0  0  0  0  0
   -5.2230   14.4670    0.6910 C   0  0  0  0  0  0  0  0  0  0  0  0
   -4.7540   15.3100   -1.5460 C   0  0  0  0  0  0  0  0  0  0  0  0
   -6.2940   14.2440    1.5190 N   0  0  0  0  0  0  0  0  0  0  0  0
   -5.6470   14.9860   -0.5220 C   0  0  0  0  0  0  0  0  0  0  0  0
   -7.0190   15.0630   -0.4010 N   0  0  0  0  0  0  0  0  0  0  0  0
   -7.3680   14.5990    0.8520 C   0  0  0  0  0  0  0  0  0  0  0  0
   -8.7730   14.5250    1.3520 C   0  0  0  0  0  0  0  0  0  0  0  0
   -8.7390   14.2520    2.7770 N   0  0  0  0  0  0  0  0  0  0  0  0
   -9.1540   15.2110    3.6700 C   0  0  0  0  0  0  0  0  0  0  0  0
   -9.4800   16.3320    3.2990 O   0  0  0  0  0  0  0  0  0  0  0  0
   -9.2380   14.8290    5.1480 C   0  0  0  0  0  0  0  0  0  0  0  0
   -9.5860   13.3590    5.3670 C   0  0  0  0  0  0  0  0  0  0  0  0
   -7.9920   15.2580    5.9110 C   0  0  0  0  0  0  0  0  0  0  0  0
  2  1  1  1
  2  3  1  0
  2  4  1  0
  4  5  2  3
  3  6  1  0
  4  7  1  0
  6  7  1  0
  3  8  1  0
  6  9  2  0
  5 10  1  0
  8 11  2  0
  8 12  1  0
 10 13  1  0
 11 14  1  0
 12 15  2  0
 14 16  2  0
 15 16  1  0
 13 17  1  0
 16 18  1  0
 17 19  2  0
 17 20  1  0
 20 21  2  0
 19 22  1  0
 21 23  1  0
 21 24  1  0
 22 24  2  0
 24 25  1  0
 23 26  2  0
 25 26  1  0
 26 27  1  0
 27 28  1  0
 28 29  1  0
 29 30  2  0
 29 31  1  0
 31 32  1  0
 31 33  1  0
M  END
