diamond-x0933_0_A-mac-x0441
     RDKit          3D

 27 29  0  0  0  0  0  0  0  0999 V2000
   -5.9710   14.8280    1.7470 N   0  0  0  0  0  0  0  0  0  0  0  0
   -4.8660   15.2230    0.9460 C   0  0  1  0  0  0  0  0  0  0  0  0
   -3.7090   14.6740    1.5690 N   0  0  0  0  0  0  0  0  0  0  0  0
   -5.1190   14.6300   -0.3230 N   0  0  0  0  0  0  0  0  0  0  0  0
   -4.0080   14.9530   -1.2120 C   0  0  0  0  0  0  0  0  0  0  0  0
   -2.4960   14.7910    0.7660 C   0  0  0  0  0  0  0  0  0  0  0  0
   -2.7430   14.2760   -0.6590 C   0  0  2  0  0  0  0  0  0  0  0  0
   -1.5530   14.4220   -1.6340 C   0  0  0  0  0  0  0  0  0  0  0  0
   -0.1330   14.4900   -1.0340 C   0  0  0  0  0  0  0  0  0  0  0  0
    0.9730   14.0030   -1.9830 C   0  0  0  0  0  0  0  0  0  0  0  0
    0.7640   12.5740   -2.2020 N   0  0  0  0  0  0  0  0  0  0  0  0
    0.6160   12.0640   -3.3770 C   0  0  0  0  0  0  0  0  0  0  0  0
    0.4230   10.7410   -3.3500 O   0  0  0  0  0  0  0  0  0  0  0  0
    0.6130   12.6900   -4.7540 C   0  0  0  0  0  0  0  0  0  0  0  0
    0.2920   11.7650   -5.8470 N   0  0  0  0  0  0  0  0  0  0  0  0
    1.0520   11.7740   -6.9810 N   0  0  0  0  0  0  0  0  0  0  0  0
   -0.7130   10.8340   -5.9200 C   0  0  0  0  0  0  0  0  0  0  0  0
    0.5010   10.8260   -7.7860 C   0  0  0  0  0  0  0  0  0  0  0  0
   -0.5960   10.2240   -7.1440 C   0  0  0  0  0  0  0  0  0  0  0  0
   -1.7500   10.5110   -4.9070 C   0  0  0  0  0  0  0  0  0  0  0  0
    0.9360   10.4150   -9.1770 C   0  0  0  0  0  0  0  0  0  0  0  0
   -1.4950    9.1410   -7.6310 C   0  0  0  0  0  0  0  0  0  0  0  0
   -2.9080    9.7600   -5.6020 C   0  0  0  0  0  0  0  0  0  0  0  0
    1.6280    9.2440   -9.1620 F   0  0  0  0  0  0  0  0  0  0  0  0
   -0.1110   10.2050  -10.0090 F   0  0  0  0  0  0  0  0  0  0  0  0
    1.6840   11.3110   -9.8470 F   0  0  0  0  0  0  0  0  0  0  0  0
   -2.3950    8.6200   -6.4980 C   0  0  0  0  0  0  0  0  0  0  0  0
  2  1  1  1
  2  3  1  0
  2  4  1  0
  4  5  1  0
  3  6  1  0
  5  7  1  0
  6  7  1  0
  7  8  1  6
  8  9  1  0
  9 10  1  0
 10 11  1  0
 11 12  2  3
 12 13  1  0
 12 14  1  0
 14 15  1  0
 15 16  1  0
 15 17  1  0
 16 18  2  0
 17 19  2  0
 18 19  1  0
 17 20  1  0
 18 21  1  0
 19 22  1  0
 20 23  1  0
 21 24  1  0
 21 25  1  0
 21 26  1  0
 22 27  1  0
 23 27  1  0
M  END
