diamond-x0895_0_A-mac-x0345
     RDKit          3D

 15 16  0  0  0  0  0  0  0  0999 V2000
   -0.5190   13.3320    0.5430 O   0  0  0  0  0  0  0  0  0  0  0  0
   -1.5300   13.9710    0.4080 C   0  0  0  0  0  0  0  0  0  0  0  0
   -2.2890   14.6120    1.5400 C   0  0  0  0  0  0  0  0  0  0  0  0
   -2.2160   14.2800   -0.7670 N   0  0  0  0  0  0  0  0  0  0  0  0
   -3.1140   15.5370    0.8110 N   0  0  0  0  0  0  0  0  0  0  0  0
   -3.3000   14.9970   -0.4260 C   0  0  0  0  0  0  0  0  0  0  0  0
   -4.4300   15.2410   -1.0000 C   0  0  0  0  0  0  0  0  0  0  0  0
   -5.1820   16.0290   -0.0870 C   0  0  0  0  0  0  0  0  0  0  0  0
   -5.2790   14.9940   -2.2160 C   0  0  1  0  0  0  0  0  0  0  0  0
   -4.7370   14.3190   -3.3630 N   0  0  0  0  0  0  0  0  0  0  0  0
   -6.0330   14.9820    0.5700 C   0  0  2  0  0  0  0  0  0  0  0  0
   -6.4250   14.1790   -1.8030 N   0  0  0  0  0  0  0  0  0  0  0  0
   -4.9210   13.5040    1.2010 Br  0  0  0  0  0  0  0  0  0  0  0  0
   -7.0420   14.6380   -0.5150 C   0  0  1  0  0  0  0  0  0  0  0  0
   -8.1070   13.6840    0.0010 C   0  0  0  0  0  0  0  0  0  0  0  0
  1  2  2  0
  2  3  1  0
  2  4  1  0
  3  5  1  0
  4  6  1  0
  5  6  1  0
  6  7  2  3
  7  8  1  0
  7  9  1  0
  9 10  1  6
  8 11  1  0
  9 12  1  0
 11 13  1  6
 11 14  1  0
 12 14  1  0
 14 15  1  1
M  END
