diamond-x0626_0_A-diamond-x0910_0_A
     RDKit          3D

 12 12  0  0  0  0  0  0  0  0999 V2000
   -4.9220   14.8980    1.4550 N   0  0  0  0  0  0  0  0  0  0  0  0
   -6.0930   14.7020    0.7860 C   0  0  0  0  0  0  0  0  0  0  0  0
   -6.1160   14.8350   -0.4420 O   0  0  0  0  0  0  0  0  0  0  0  0
   -3.6780   14.8060    0.9200 C   0  0  0  0  0  0  0  0  0  0  0  0
   -7.3350   14.3380    1.5750 C   0  0  0  0  0  0  0  0  0  0  0  0
   -2.5130   14.6790    1.5250 N   0  0  0  0  0  0  0  0  0  0  0  0
   -3.6810   14.8630   -0.7780 S   0  0  0  0  0  0  0  0  0  0  0  0
   -8.6130   14.6660    0.8220 C   0  0  0  0  0  0  0  0  0  0  0  0
   -1.9860   14.7000   -0.7540 C   0  0  0  0  0  0  0  0  0  0  0  0
   -1.5270   14.6180    0.5640 C   0  0  0  0  0  0  0  0  0  0  0  0
   -0.1300   14.4700    1.0210 C   0  0  0  0  0  0  0  0  0  0  0  0
   -1.3160   14.6670   -1.9090 N   0  0  0  0  0  0  0  0  0  0  0  0
  1  2  1  0
  2  3  2  0
  1  4  1  0
  2  5  1  0
  4  6  2  0
  4  7  1  0
  5  8  1  0
  7  9  1  0
  6 10  1  0
  9 10  2  0
 10 11  1  0
  9 12  1  0
M  END
