diamond-x0962_2_B-mac-x0347
     RDKit          3D

 23 25  0  0  0  0  0  0  0  0999 V2000
  -10.4890   16.2170    0.8210 N   0  0  0  0  0  0  0  0  0  0  0  0
   -9.8070   15.9810    1.7270 C   0  0  0  0  0  0  0  0  0  0  0  0
   -8.9950   15.7250    2.8560 C   0  0  0  0  0  0  0  0  0  0  0  0
   -9.0900   16.4240    4.0290 N   0  0  0  0  0  0  0  0  0  0  0  0
   -7.9860   14.7940    3.0640 C   0  0  0  0  0  0  0  0  0  0  0  0
   -7.3990   13.7330    2.1910 C   0  0  0  0  0  0  0  0  0  0  0  0
   -8.1710   15.9080    4.8900 C   0  0  0  0  0  0  0  0  0  0  0  0
   -7.5030   14.9330    4.3420 N   0  0  0  0  0  0  0  0  0  0  0  0
   -6.2240   14.1590    1.3000 C   0  0  0  0  0  0  0  0  0  0  0  0
   -5.1670   15.0760    1.5730 C   0  0  0  0  0  0  0  0  0  0  0  0
   -6.2110   13.5270    0.0670 C   0  0  0  0  0  0  0  0  0  0  0  0
   -4.1470   15.3130    0.6130 C   0  0  0  0  0  0  0  0  0  0  0  0
   -5.2200   13.7580   -0.8660 C   0  0  0  0  0  0  0  0  0  0  0  0
   -4.1690   14.6390   -0.6290 C   0  0  0  0  0  0  0  0  0  0  0  0
   -3.1760   14.7730   -1.7040 C   0  0  0  0  0  0  0  0  0  0  0  0
   -1.8260   14.4260   -1.5280 C   0  0  0  0  0  0  0  0  0  0  0  0
   -3.5390   15.2410   -2.9680 C   0  0  0  0  0  0  0  0  0  0  0  0
   -0.9270   14.5530   -2.5950 C   0  0  0  0  0  0  0  0  0  0  0  0
   -2.6930   15.3790   -4.0200 N   0  0  0  0  0  0  0  0  0  0  0  0
    0.5000   14.2010   -2.4880 C   0  0  0  0  0  0  0  0  0  0  0  0
   -1.4010   15.0290   -3.8090 C   0  0  0  0  0  0  0  0  0  0  0  0
    1.2510   14.6690   -3.5040 O   0  0  0  0  0  0  0  0  0  0  0  0
    0.9590   13.5450   -1.5760 O   0  0  0  0  0  0  0  0  0  0  0  0
  1  2  3  0
  2  3  1  0
  3  4  1  0
  3  5  2  0
  5  6  1  0
  4  7  1  0
  5  8  1  0
  7  8  2  0
  6  9  1  0
  9 10  2  0
  9 11  1  0
 10 12  1  0
 11 13  2  0
 12 14  2  0
 13 14  1  0
 14 15  1  0
 15 16  2  0
 15 17  1  0
 16 18  1  0
 17 19  2  0
 18 20  1  0
 18 21  2  0
 19 21  1  0
 20 22  1  0
 20 23  2  0
M  END
