diamond-x0628_0_A-diamond-x0574_0_A
     RDKit          3D

 26 28  0  0  0  0  0  0  0  0999 V2000
   -0.7850    9.0270   -7.2850 C   0  0  0  0  0  0  0  0  0  0  0  0
   -0.8170   10.2240   -6.4180 C   0  0  0  0  0  0  0  0  0  0  0  0
   -1.8260   10.4600   -5.5240 N   0  0  0  0  0  0  0  0  0  0  0  0
    0.1370   11.1570   -6.4460 N   0  0  0  0  0  0  0  0  0  0  0  0
   -0.2960   12.0240   -5.5130 N   0  0  0  0  0  0  0  0  0  0  0  0
   -1.4790   11.6010   -4.9590 C   0  0  0  0  0  0  0  0  0  0  0  0
   -2.2290   12.3220   -3.9040 C   0  0  0  0  0  0  0  0  0  0  0  0
    0.4780   13.2170   -5.2230 C   0  0  0  0  0  0  0  0  0  0  0  0
    1.6510   13.0050   -4.2720 C   0  0  0  0  0  0  0  0  0  0  0  0
    1.2560   12.3840   -2.9510 C   0  0  0  0  0  0  0  0  0  0  0  0
    0.4670   11.4490   -2.8160 O   0  0  0  0  0  0  0  0  0  0  0  0
    1.9260   12.9960   -1.9270 O   0  0  0  0  0  0  0  0  0  0  0  0
    1.3750   14.1830   -1.2940 C   0  0  0  0  0  0  0  0  0  0  0  0
    0.4570   13.7870   -0.1180 C   0  0  0  0  0  0  0  0  0  0  0  0
    0.1270   14.8030    0.8560 N   0  0  0  0  0  0  0  0  0  0  0  0
   -1.1380   14.8470    0.6710 C   0  0  0  0  0  0  0  0  0  0  0  0
   -2.0560   15.0030    1.5740 N   0  0  0  0  0  0  0  0  0  0  0  0
   -1.5900   14.6440   -0.9570 S   0  0  0  0  0  0  0  0  0  0  0  0
   -3.2610   14.9480    0.8950 C   0  0  0  0  0  0  0  0  0  0  0  0
   -3.1940   14.7580   -0.4820 C   0  0  0  0  0  0  0  0  0  0  0  0
   -4.5220   15.0610    1.4570 C   0  0  0  0  0  0  0  0  0  0  0  0
   -4.3040   14.6750   -1.3040 C   0  0  0  0  0  0  0  0  0  0  0  0
   -5.6550   14.9520    0.6620 C   0  0  0  0  0  0  0  0  0  0  0  0
   -5.5450   14.7710   -0.7040 C   0  0  0  0  0  0  0  0  0  0  0  0
   -6.9390   15.0070    1.1200 O   0  0  0  0  0  0  0  0  0  0  0  0
   -7.1120   14.6190    2.4810 C   0  0  0  0  0  0  0  0  0  0  0  0
  1  2  1  0
  2  3  1  0
  2  4  2  0
  4  5  1  0
  3  6  2  0
  5  6  1  0
  6  7  1  0
  5  8  1  0
  8  9  1  0
  9 10  1  0
 10 11  2  0
 10 12  1  0
 12 13  1  0
 13 14  1  0
 14 15  1  0
 15 16  1  0
 16 17  2  0
 16 18  1  0
 17 19  1  0
 18 20  1  0
 19 20  2  0
 19 21  1  0
 20 22  1  0
 21 23  2  0
 22 24  2  0
 23 24  1  0
 23 25  1  0
 25 26  1  0
M  END
