diamond-x0662_0_A-diamond-x0962_3_A
     RDKit          3D

 19 20  0  0  0  0  0  0  0  0999 V2000
    5.2880    9.5040  -14.9560 C   0  0  0  0  0  0  0  0  0  0  0  0
    4.2420    9.9760  -14.0760 N   0  0  0  0  0  0  0  0  0  0  0  0
    3.5760   11.1630  -14.1590 C   0  0  0  0  0  0  0  0  0  0  0  0
    3.8480    9.2010  -13.0450 N   0  0  0  0  0  0  0  0  0  0  0  0
    2.6840   11.1660  -13.1080 C   0  0  0  0  0  0  0  0  0  0  0  0
    2.8860    9.9250  -12.4340 C   0  0  0  0  0  0  0  0  0  0  0  0
    2.2020    9.4080  -11.2200 C   0  0  0  0  0  0  0  0  0  0  0  0
    2.1810    8.2020  -10.9580 O   0  0  0  0  0  0  0  0  0  0  0  0
    1.5870   10.2900  -10.3290 N   0  0  0  0  0  0  0  0  0  0  0  0
    0.6620   10.0480   -9.2610 C   0  0  0  0  0  0  0  0  0  0  0  0
   -0.3450    9.1180   -9.5470 C   0  0  0  0  0  0  0  0  0  0  0  0
    0.6490   10.6460   -7.9560 C   0  0  0  0  0  0  0  0  0  0  0  0
   -1.3180    8.8030   -8.5920 C   0  0  0  0  0  0  0  0  0  0  0  0
   -0.3160   10.3490   -7.0190 C   0  0  0  0  0  0  0  0  0  0  0  0
    1.5390   11.5670   -7.4390 N   0  0  0  0  0  0  0  0  0  0  0  0
   -0.2590   11.0650   -5.6690 C   0  0  0  0  0  0  0  0  0  0  0  0
   -1.3040    9.4180   -7.3380 C   0  0  0  0  0  0  0  0  0  0  0  0
   -1.2490   10.9430   -4.8920 O   0  0  0  0  0  0  0  0  0  0  0  0
    0.7810   11.7610   -5.4140 O   0  0  0  0  0  0  0  0  0  0  0  0
  1  2  1  0
  2  3  1  0
  2  4  1  0
  3  5  2  0
  4  6  2  0
  5  6  1  0
  6  7  1  0
  7  8  2  0
  7  9  1  0
  9 10  1  0
 10 11  2  0
 10 12  1  0
 11 13  1  0
 12 14  2  0
 12 15  1  0
 14 16  1  0
 13 17  2  0
 14 17  1  0
 16 18  2  0
 16 19  1  0
M  CHG  1  19  -1
M  END
