diamond-x0962_0_A-diamond-x1012_0_A
     RDKit          3D

 20 21  0  0  0  0  0  0  0  0999 V2000
   -3.6590   15.6190   -2.7350 N   0  0  0  0  0  0  0  0  0  0  0  0
   -3.3040   14.5340   -1.8790 C   0  0  1  0  0  0  0  0  0  0  0  0
   -1.8000   14.2330   -1.9870 C   0  0  0  0  0  0  0  0  0  0  0  0
   -3.9250   14.7850   -0.5460 C   0  0  0  0  0  0  0  0  0  0  0  0
   -3.2860   15.1230    0.6210 N   0  0  0  0  0  0  0  0  0  0  0  0
   -5.2590   14.7350   -0.2050 C   0  0  0  0  0  0  0  0  0  0  0  0
   -1.3370   13.8000   -3.4190 C   0  0  1  0  0  0  0  0  0  0  0  0
   -4.2430   15.2590    1.5870 C   0  0  0  0  0  0  0  0  0  0  0  0
   -5.4480   15.0200    1.1110 N   0  0  0  0  0  0  0  0  0  0  0  0
   -1.6660   14.8450   -4.5190 C   0  0  0  0  0  0  0  0  0  0  0  0
    0.1380   13.3740   -3.5340 C   0  0  2  0  0  0  0  0  0  0  0  0
    0.4540   12.4280   -2.3940 C   0  0  0  0  0  0  0  0  0  0  0  0
    1.0970   14.5840   -3.5630 C   0  0  0  0  0  0  0  0  0  0  0  0
   -0.6850   15.9260   -4.6610 N   0  0  0  0  0  0  0  0  0  0  0  0
   -1.1760   17.2150   -4.7640 C   0  0  0  0  0  0  0  0  0  0  0  0
    0.5060   11.1400   -2.7840 O   0  0  0  0  0  0  0  0  0  0  0  0
    0.6340   12.7160   -1.2260 O   0  0  0  0  0  0  0  0  0  0  0  0
    0.7390   15.5820   -4.6630 C   0  0  0  0  0  0  0  0  0  0  0  0
   -0.2640   18.2080   -4.7410 N   0  0  0  0  0  0  0  0  0  0  0  0
   -2.3600   17.5140   -4.8570 O   0  0  0  0  0  0  0  0  0  0  0  0
  2  1  1  6
  2  3  1  0
  2  4  1  0
  4  5  1  0
  4  6  2  0
  7  3  1  1
  5  8  1  0
  6  9  1  0
  8  9  2  0
  7 10  1  0
  7 11  1  0
 11 12  1  1
 11 13  1  0
 10 14  1  0
 14 15  1  0
 12 16  1  0
 12 17  2  0
 13 18  1  0
 14 18  1  0
 15 19  1  0
 15 20  2  0
M  END
