diamond-x0950_0_A-mac-x0206
     RDKit          3D

 19 19  0  0  0  0  0  0  0  0999 V2000
    2.9520   12.5000   -3.9790 C   0  0  0  0  0  0  0  0  0  0  0  0
    1.4610   12.7880   -3.8830 C   0  0  1  0  0  0  0  0  0  0  0  0
    0.8870   12.4650   -5.1500 O   0  0  0  0  0  0  0  0  0  0  0  0
    0.7990   11.9500   -2.7710 C   0  0  0  0  0  0  0  0  0  0  0  0
    0.3380   10.8390   -2.9940 O   0  0  0  0  0  0  0  0  0  0  0  0
    0.7850   12.5360   -1.5260 O   0  0  0  0  0  0  0  0  0  0  0  0
    0.5680   13.9570   -1.4130 C   0  0  0  0  0  0  0  0  0  0  0  0
   -0.5390   14.2500   -0.3990 C   0  0  0  0  0  0  0  0  0  0  0  0
   -1.9120   14.1460   -1.0610 C   0  0  0  0  0  0  0  0  0  0  0  0
   -2.9400   14.9130   -0.3800 N   0  0  0  0  0  0  0  0  0  0  0  0
   -4.1860   15.1170   -0.9390 C   0  0  0  0  0  0  0  0  0  0  0  0
   -4.3340   15.4170   -2.1220 O   0  0  0  0  0  0  0  0  0  0  0  0
   -5.4030   14.9570   -0.0710 C   0  0  0  0  0  0  0  0  0  0  0  0
   -6.6970   14.7620   -0.5790 C   0  0  0  0  0  0  0  0  0  0  0  0
   -5.2420   15.0060    1.3260 C   0  0  0  0  0  0  0  0  0  0  0  0
   -6.9180   14.7060   -1.9340 O   0  0  0  0  0  0  0  0  0  0  0  0
   -7.7990   14.6160    0.2680 C   0  0  0  0  0  0  0  0  0  0  0  0
   -6.3510   14.8620    2.1730 C   0  0  0  0  0  0  0  0  0  0  0  0
   -7.6250   14.6660    1.6490 C   0  0  0  0  0  0  0  0  0  0  0  0
  2  1  1  6
  2  3  1  0
  2  4  1  0
  4  5  2  0
  4  6  1  0
  6  7  1  0
  7  8  1  0
  8  9  1  0
  9 10  1  0
 10 11  1  0
 11 12  2  0
 11 13  1  0
 13 14  2  0
 13 15  1  0
 14 16  1  0
 14 17  1  0
 15 18  2  0
 17 19  2  0
 18 19  1  0
M  END
