diamond-x0587_0_A-mac-x0223
     RDKit          3D

 28 29  0  0  0  0  0  0  0  0999 V2000
   -7.8120   15.0440    4.1060 N   0  0  0  0  0  0  0  0  0  0  0  0
   -8.3660   14.9370    2.8610 C   0  0  0  0  0  0  0  0  0  0  0  0
   -9.5760   14.9980    2.6950 O   0  0  0  0  0  0  0  0  0  0  0  0
   -7.4560   14.7680    1.7230 C   0  0  0  0  0  0  0  0  0  0  0  0
   -7.8710   14.4380    0.4600 C   0  0  0  0  0  0  0  0  0  0  0  0
   -6.1000   14.9510    1.8640 C   0  0  0  0  0  0  0  0  0  0  0  0
   -7.0330   14.3010   -0.5880 N   0  0  0  0  0  0  0  0  0  0  0  0
   -5.2050   14.8290    0.8570 N   0  0  0  0  0  0  0  0  0  0  0  0
   -5.7150   14.5060   -0.3520 C   0  0  0  0  0  0  0  0  0  0  0  0
   -4.7590   14.3660   -1.5390 C   0  0  0  0  0  0  0  0  0  0  0  0
   -3.5850   15.0310   -1.3180 F   0  0  0  0  0  0  0  0  0  0  0  0
   -4.3900   13.0820   -1.8100 F   0  0  0  0  0  0  0  0  0  0  0  0
   -5.3610   14.8840   -2.7400 O   0  0  0  0  0  0  0  0  0  0  0  0
   -4.4770   14.8750   -3.8580 C   0  0  0  0  0  0  0  0  0  0  0  0
   -3.3820   15.8500   -3.4730 C   0  0  0  0  0  0  0  0  0  0  0  0
   -2.8610   16.7430   -4.5120 O   0  0  0  0  0  0  0  0  0  0  0  0
   -1.7170   16.1010   -4.6230 C   0  0  0  0  0  0  0  0  0  0  0  0
   -0.4390   16.6740   -4.7330 C   0  0  0  0  0  0  0  0  0  0  0  0
   -1.8800   14.7490   -4.5800 C   0  0  0  0  0  0  0  0  0  0  0  0
   -0.2040   18.0300   -4.7930 O   0  0  0  0  0  0  0  0  0  0  0  0
   -0.8230   13.9150   -4.6070 C   0  0  0  0  0  0  0  0  0  0  0  0
    0.6700   15.8020   -4.7600 C   0  0  0  0  0  0  0  0  0  0  0  0
    1.0640   18.2780   -5.4070 C   0  0  0  0  0  0  0  0  0  0  0  0
    0.4490   14.4140   -4.6800 C   0  0  0  0  0  0  0  0  0  0  0  0
    1.4980   13.3660   -4.6410 C   0  0  0  0  0  0  0  0  0  0  0  0
    1.1470   12.4860   -3.4430 C   0  0  0  0  0  0  0  0  0  0  0  0
    0.5050   11.4430   -3.4590 O   0  0  0  0  0  0  0  0  0  0  0  0
    1.6080   13.0020   -2.2730 O   0  0  0  0  0  0  0  0  0  0  0  0
  1  2  1  0
  2  3  2  0
  2  4  1  0
  4  5  2  0
  4  6  1  0
  5  7  1  0
  6  8  2  0
  7  9  2  0
  8  9  1  0
  9 10  1  0
 10 11  1  0
 10 12  1  0
 10 13  1  0
 13 14  1  0
 14 15  1  0
 15 16  1  0
 16 17  1  0
 17 18  2  0
 17 19  1  0
 18 20  1  0
 19 21  2  0
 18 22  1  0
 20 23  1  0
 21 24  1  0
 22 24  2  0
 24 25  1  0
 25 26  1  0
 26 27  2  0
 26 28  1  0
M  END
