diamond-x0900_0_A-mac-x0588
     RDKit          3D

 21 24  0  0  0  0  0  0  0  0999 V2000
   -7.1620   14.7590   -0.8800 O   0  0  0  0  0  0  0  0  0  0  0  0
   -6.1110   14.8420   -0.2710 C   0  0  0  0  0  0  0  0  0  0  0  0
   -5.2930   15.9350   -0.2140 N   0  0  0  0  0  0  0  0  0  0  0  0
   -5.4390   13.7980    0.5830 C   0  0  0  0  0  0  0  0  0  0  0  0
   -4.1080   14.4970    0.8570 C   0  0  2  0  0  0  0  0  0  0  0  0
   -4.5590   15.8700    1.0250 C   0  0  0  0  0  0  0  0  0  0  0  0
   -3.1590   14.6540   -0.2860 C   0  0  2  0  0  0  0  0  0  0  0  0
   -3.6650   14.0890   -1.5310 N   0  0  0  0  0  0  0  0  0  0  0  0
   -1.7970   14.1620    0.0460 C   0  0  1  0  0  0  0  0  0  0  0  0
   -2.9390   14.7110   -2.6210 C   0  0  0  0  0  0  0  0  0  0  0  0
   -0.9270   14.2280   -1.1890 C   0  0  1  0  0  0  0  0  0  0  0  0
   -1.2040   15.0630    1.0240 N   0  0  0  0  0  0  0  0  0  0  0  0
   -1.5120   14.8290   -2.3690 N   0  0  0  0  0  0  0  0  0  0  0  0
    0.2400   14.9850   -0.7380 N   0  0  0  0  0  0  0  0  0  0  0  0
    0.1640   14.8800    0.7060 C   0  0  0  0  0  0  0  0  0  0  0  0
   -0.6460   14.8480   -3.5420 C   0  0  0  0  0  0  0  0  0  0  0  0
   -0.1380   16.2120   -4.0220 C   0  0  2  0  0  0  0  0  0  0  0  0
   -1.2550   16.9790   -4.5460 O   0  0  0  0  0  0  0  0  0  0  0  0
    0.8670   16.2200   -5.1360 C   0  0  0  0  0  0  0  0  0  0  0  0
    0.7710   17.6680   -5.5620 C   0  0  0  0  0  0  0  0  0  0  0  0
   -0.7150   17.9540   -5.4410 C   0  0  0  0  0  0  0  0  0  0  0  0
  1  2  2  0
  2  3  1  0
  2  4  1  0
  5  4  1  6
  3  6  1  0
  5  6  1  0
  5  7  1  0
  7  8  1  6
  7  9  1  0
  8 10  1  0
  9 11  1  0
  9 12  1  1
 10 13  1  0
 11 13  1  0
 11 14  1  1
 12 15  1  0
 14 15  1  0
 13 16  1  0
 17 16  1  6
 17 18  1  0
 17 19  1  0
 19 20  1  0
 18 21  1  0
 20 21  1  0
M  END
