diamond-x0253_0_A-mac-x0178
     RDKit          3D

 24 25  0  0  0  0  0  0  0  0999 V2000
    0.2970   12.0210   -5.4500 N   0  0  0  0  0  0  0  0  0  0  0  0
    1.0710   11.7250   -6.5470 C   0  0  0  0  0  0  0  0  0  0  0  0
    2.1990   12.1740   -6.6170 O   0  0  0  0  0  0  0  0  0  0  0  0
    0.8890   11.8020   -4.1350 C   0  0  0  0  0  0  0  0  0  0  0  0
    0.3690   12.6270   -2.9640 C   0  0  0  0  0  0  0  0  0  0  0  0
    0.4930   10.8080   -7.5810 C   0  0  0  0  0  0  0  0  0  0  0  0
    1.4290   12.8990   -2.0630 O   0  0  0  0  0  0  0  0  0  0  0  0
   -0.5910   11.9100   -2.2120 O   0  0  0  0  0  0  0  0  0  0  0  0
   -0.4790    9.9020   -7.1470 C   0  0  0  0  0  0  0  0  0  0  0  0
    0.8680   10.8080   -8.9320 C   0  0  0  0  0  0  0  0  0  0  0  0
   -0.1390   13.8910   -3.6050 C   0  0  0  0  0  0  0  0  0  0  0  0
   -1.0730    9.0060   -8.0430 C   0  0  0  0  0  0  0  0  0  0  0  0
    0.2800    9.9180   -9.8270 C   0  0  0  0  0  0  0  0  0  0  0  0
    0.6050   15.0870   -3.5690 C   0  0  0  0  0  0  0  0  0  0  0  0
   -1.3710   13.8720   -4.2720 C   0  0  0  0  0  0  0  0  0  0  0  0
   -2.1140    8.0390   -7.5650 C   0  0  0  0  0  0  0  0  0  0  0  0
   -0.6870    9.0200   -9.3840 C   0  0  0  0  0  0  0  0  0  0  0  0
    0.1250   16.2310   -4.1970 C   0  0  0  0  0  0  0  0  0  0  0  0
   -1.8540   15.0090   -4.8980 C   0  0  0  0  0  0  0  0  0  0  0  0
   -1.1040   16.1790   -4.8610 C   0  0  0  0  0  0  0  0  0  0  0  0
   -1.7160   17.6210   -5.6810 S   0  0  0  0  0  0  0  0  0  0  0  0
   -0.3160   18.2250   -6.3760 N   0  0  0  0  0  0  0  0  0  0  0  0
   -2.5870   17.2060   -6.7510 O   0  0  0  0  0  0  0  0  0  0  0  0
   -2.1230   18.5850   -4.7020 O   0  0  0  0  0  0  0  0  0  0  0  0
  1  2  1  0
  2  3  2  0
  1  4  1  0
  4  5  1  0
  2  6  1  0
  5  7  1  0
  5  8  1  0
  6  9  2  0
  6 10  1  0
  5 11  1  0
  9 12  1  0
 10 13  2  0
 11 14  2  0
 11 15  1  0
 12 16  1  0
 12 17  2  0
 13 17  1  0
 14 18  1  0
 15 19  2  0
 18 20  2  0
 19 20  1  0
 20 21  1  0
 21 22  1  0
 21 23  2  0
 21 24  2  0
M  END
