diamond-x1018_0_A-diamond-x0926_0_A
     RDKit          3D

 11 12  0  0  0  0  0  0  0  0999 V2000
   -8.5350   14.5660    1.1110 Cl  0  0  0  0  0  0  0  0  0  0  0  0
   -6.8820   14.6960    0.6340 C   0  0  0  0  0  0  0  0  0  0  0  0
   -5.8340   14.8430    1.6680 C   0  0  0  0  0  0  0  0  0  0  0  0
   -6.6640   14.6650   -0.6240 N   0  0  0  0  0  0  0  0  0  0  0  0
   -5.3340   14.7740   -0.9310 N   0  0  0  0  0  0  0  0  0  0  0  0
   -4.5460   14.9410    1.2830 C   0  0  0  0  0  0  0  0  0  0  0  0
   -4.7970   14.7720   -2.2430 N   0  0  0  0  0  0  0  0  0  0  0  0
   -4.2520   14.9040   -0.0820 C   0  0  0  0  0  0  0  0  0  0  0  0
   -5.4990   14.6740   -3.2450 O   0  0  0  0  0  0  0  0  0  0  0  0
   -3.1080   14.9720   -0.7740 N   0  0  0  0  0  0  0  0  0  0  0  0
   -3.3520   14.8970   -2.1760 N   0  0  0  0  0  0  0  0  0  0  0  0
  1  2  1  0
  2  3  1  0
  2  4  2  0
  4  5  1  0
  3  6  2  0
  5  7  1  0
  5  8  1  0
  6  8  1  0
  7  9  1  0
  8 10  2  0
  7 11  2  0
 10 11  1  0
M  CHG  2   7   1   9  -1
M  END
