diamond-x0421_0_A-mac-x0178
     RDKit          3D

 24 26  0  0  0  0  0  0  0  0999 V2000
   -3.6360   15.6080   -2.6260 N   0  0  0  0  0  0  0  0  0  0  0  0
   -3.0120   14.8210   -1.7070 C   0  0  0  0  0  0  0  0  0  0  0  0
   -1.8710   14.2560   -1.9230 N   0  0  0  0  0  0  0  0  0  0  0  0
   -3.7130   14.7550   -0.4480 C   0  0  0  0  0  0  0  0  0  0  0  0
   -3.0750   14.8300    0.7760 C   0  0  0  0  0  0  0  0  0  0  0  0
   -5.0780   14.6380   -0.2750 N   0  0  0  0  0  0  0  0  0  0  0  0
   -1.1290   14.5560   -3.0570 C   0  0  0  0  0  0  0  0  0  0  0  0
   -4.0580   14.7630    1.7000 N   0  0  0  0  0  0  0  0  0  0  0  0
   -5.2360   14.6480    1.0310 C   0  0  0  0  0  0  0  0  0  0  0  0
    0.0580   13.9420   -3.4250 C   0  0  0  0  0  0  0  0  0  0  0  0
   -1.6250   15.6020   -3.8170 C   0  0  0  0  0  0  0  0  0  0  0  0
    0.6300   12.8130   -2.6710 C   0  0  0  0  0  0  0  0  0  0  0  0
   -6.5980   14.5450    1.7430 C   0  0  0  0  0  0  0  0  0  0  0  0
   -0.9580   16.0870   -4.8980 C   0  0  0  0  0  0  0  0  0  0  0  0
    0.7550   14.4160   -4.5350 C   0  0  0  0  0  0  0  0  0  0  0  0
   -1.6820   17.4740   -5.7440 S   0  0  0  0  0  0  0  0  0  0  0  0
    1.4390   12.9500   -1.7810 O   0  0  0  0  0  0  0  0  0  0  0  0
    0.1450   11.6200   -3.0770 O   0  0  0  0  0  0  0  0  0  0  0  0
   -7.8620   14.6540    0.9350 C   0  0  0  0  0  0  0  0  0  0  0  0
   -7.4320   13.3240    1.4880 C   0  0  0  0  0  0  0  0  0  0  0  0
    0.2490   15.5000   -5.2660 C   0  0  0  0  0  0  0  0  0  0  0  0
   -0.3620   18.1740   -6.5030 N   0  0  0  0  0  0  0  0  0  0  0  0
   -2.5810   17.0350   -6.7780 O   0  0  0  0  0  0  0  0  0  0  0  0
   -2.0980   18.4540   -4.7740 O   0  0  0  0  0  0  0  0  0  0  0  0
  1  2  1  0
  2  3  2  3
  2  4  1  0
  4  5  2  0
  4  6  1  0
  3  7  1  0
  5  8  1  0
  6  9  2  0
  8  9  1  0
  7 10  2  0
  7 11  1  0
 10 12  1  0
  9 13  1  0
 11 14  2  0
 10 15  1  0
 14 16  1  0
 12 17  2  0
 12 18  1  0
 13 19  1  0
 13 20  1  0
 19 20  1  0
 14 21  1  0
 15 21  2  0
 16 22  1  0
 16 23  2  0
 16 24  2  0
M  END
