diamond-x1018_0_A-mac-x0379
     RDKit          3D

 14 15  0  0  0  0  0  0  0  0999 V2000
   -8.2240   14.5850    0.8800 Cl  0  0  0  0  0  0  0  0  0  0  0  0
   -6.5230   14.4520    0.5830 C   0  0  0  0  0  0  0  0  0  0  0  0
   -5.5670   14.7050    1.7080 C   0  0  0  0  0  0  0  0  0  0  0  0
   -6.1770   14.1310   -0.6300 N   0  0  0  0  0  0  0  0  0  0  0  0
   -4.8320   14.0390   -0.8110 N   0  0  0  0  0  0  0  0  0  0  0  0
   -4.2470   14.7430    1.4660 C   0  0  0  0  0  0  0  0  0  0  0  0
   -4.2980   14.3130   -2.0560 N   0  0  0  0  0  0  0  0  0  0  0  0
   -3.8840   14.5270    0.0620 C   0  0  0  0  0  0  0  0  0  0  0  0
   -4.8140   15.6480   -2.1630 C   0  0  0  0  0  0  0  0  0  0  0  0
   -2.7050   14.7690   -0.4620 N   0  0  0  0  0  0  0  0  0  0  0  0
   -2.8820   14.4230   -1.7880 N   0  0  0  0  0  0  0  0  0  0  0  0
   -1.8450   14.6660   -2.7490 C   0  0  0  0  0  0  0  0  0  0  0  0
   -1.9310   14.6660   -3.9740 O   0  0  0  0  0  0  0  0  0  0  0  0
   -0.6320   14.9240   -2.1720 O   0  0  0  0  0  0  0  0  0  0  0  0
  1  2  1  0
  2  3  1  0
  2  4  2  0
  4  5  1  0
  3  6  2  0
  5  7  1  0
  5  8  1  0
  6  8  1  0
  7  9  1  0
  8 10  2  0
  7 11  1  0
 10 11  1  0
 11 12  1  0
 12 13  2  0
 12 14  1  0
M  END
