diamond-x0910_0_A-diamond-x0895_1_A
     RDKit          3D

 12 13  0  0  0  0  0  0  0  0999 V2000
   -0.9730   14.6460   -2.5990 N   0  0  0  0  0  0  0  0  0  0  0  0
   -1.0590   14.6370   -1.2890 C   0  0  0  0  0  0  0  0  0  0  0  0
   -2.1710   14.8210   -0.6670 N   0  0  0  0  0  0  0  0  0  0  0  0
    0.0360   14.4290   -0.5080 N   0  0  0  0  0  0  0  0  0  0  0  0
   -1.8010   14.7330    0.5830 N   0  0  0  0  0  0  0  0  0  0  0  0
   -0.4660   14.4960    0.7210 C   0  0  0  0  0  0  0  0  0  0  0  0
   -2.9250   14.9270    1.4210 C   0  0  1  0  0  0  0  0  0  0  0  0
   -3.5870   16.0730    0.6840 C   0  0  0  0  0  0  0  0  0  0  0  0
   -3.9840   13.9420    1.4320 N   0  0  0  0  0  0  0  0  0  0  0  0
   -4.5960   15.4150   -0.0930 N   0  0  0  0  0  0  0  0  0  0  0  0
   -5.0620   14.4250    0.7110 C   0  0  0  0  0  0  0  0  0  0  0  0
   -6.2140   14.0570    0.7850 O   0  0  0  0  0  0  0  0  0  0  0  0
  1  2  1  0
  2  3  2  0
  2  4  1  0
  3  5  1  0
  4  6  2  0
  5  6  1  0
  7  5  1  6
  7  8  1  0
  7  9  1  0
  8 10  1  0
  9 11  1  0
 10 11  1  0
 11 12  2  0
M  END
