diamond-x0681_0_A-diamond-x0628_0_A
     RDKit          3D

 25 27  0  0  0  0  0  0  0  0999 V2000
   -4.0000   15.4940   -3.1000 N   0  0  0  0  0  0  0  0  0  0  0  0
   -3.4750   14.7790   -2.0660 C   0  0  0  0  0  0  0  0  0  0  0  0
   -2.4580   13.9930   -2.1140 N   0  0  0  0  0  0  0  0  0  0  0  0
   -4.2500   14.9430   -0.7520 C   0  0  1  0  0  0  0  0  0  0  0  0
   -1.7110   13.7350   -3.3500 C   0  0  0  0  0  0  0  0  0  0  0  0
   -4.9890   13.6550   -0.5770 C   0  0  0  0  0  0  0  0  0  0  0  0
   -3.5080   15.3550    0.5240 C   0  0  0  0  0  0  0  0  0  0  0  0
   -2.3610   12.5450   -4.0870 C   0  0  0  0  0  0  0  0  0  0  0  0
   -5.6570   13.4290    0.5740 N   0  0  0  0  0  0  0  0  0  0  0  0
   -4.2210   14.9370    1.8120 C   0  0  0  0  0  0  0  0  0  0  0  0
   -5.1180   12.6380   -1.4050 N   0  0  0  0  0  0  0  0  0  0  0  0
   -5.6440   14.4070    1.6110 C   0  0  0  0  0  0  0  0  0  0  0  0
   -6.2560   12.2170    0.5120 C   0  0  0  0  0  0  0  0  0  0  0  0
   -5.9120   11.7370   -0.7310 C   0  0  0  0  0  0  0  0  0  0  0  0
   -1.5350   11.7470   -5.0620 C   0  0  0  0  0  0  0  0  0  0  0  0
   -1.8790   10.5980   -5.6210 N   0  0  0  0  0  0  0  0  0  0  0  0
   -0.2840   12.0850   -5.5370 N   0  0  0  0  0  0  0  0  0  0  0  0
    0.5570   13.2320   -5.2550 C   0  0  0  0  0  0  0  0  0  0  0  0
   -0.8240   10.2740   -6.4210 C   0  0  0  0  0  0  0  0  0  0  0  0
    0.1750   11.1580   -6.4030 N   0  0  0  0  0  0  0  0  0  0  0  0
   -0.7820    9.0480   -7.2410 C   0  0  0  0  0  0  0  0  0  0  0  0
    1.6590   12.9520   -4.2330 C   0  0  0  0  0  0  0  0  0  0  0  0
    1.1060   12.2520   -3.0140 C   0  0  0  0  0  0  0  0  0  0  0  0
    0.5870   11.1460   -3.0210 O   0  0  0  0  0  0  0  0  0  0  0  0
    1.2310   12.9600   -1.8780 O   0  0  0  0  0  0  0  0  0  0  0  0
  1  2  1  0
  2  3  2  3
  4  2  1  6
  3  5  1  0
  4  6  1  0
  4  7  1  0
  5  8  1  0
  6  9  1  0
  7 10  1  0
  6 11  2  0
  9 12  1  0
 10 12  1  0
  9 13  1  0
 11 14  1  0
 13 14  2  0
  8 15  1  0
 15 16  2  0
 15 17  1  0
 17 18  1  0
 16 19  1  0
 17 20  1  0
 19 20  2  0
 19 21  1  0
 18 22  1  0
 22 23  1  0
 23 24  2  0
 23 25  1  0
M  END
