diamond-x0910_0_A-diamond-x0681_0_A
     RDKit          3D

 17 19  0  0  0  0  0  0  0  0999 V2000
   -2.9630   14.5510   -1.5650 N   0  0  1  0  0  0  0  0  0  0  0  0
   -3.0030   15.4380   -2.7310 N   0  0  0  0  0  0  0  0  0  0  0  0
   -2.8030   13.3590   -2.1670 O   0  0  0  0  0  0  0  0  0  0  0  0
   -1.7820   14.7080   -0.6610 C   0  0  0  0  0  0  0  0  0  0  0  0
   -4.2600   14.7530   -0.7660 C   0  0  1  0  0  0  0  0  0  0  0  0
   -1.9150   14.6520    0.6980 N   0  0  0  0  0  0  0  0  0  0  0  0
   -0.5170   14.9130   -0.9600 N   0  0  0  0  0  0  0  0  0  0  0  0
   -5.0660   13.4950   -0.5390 C   0  0  0  0  0  0  0  0  0  0  0  0
   -4.1120   15.6410    0.5060 C   0  0  0  0  0  0  0  0  0  0  0  0
   -0.7430   14.8240    1.3160 N   0  0  0  0  0  0  0  0  0  0  0  0
    0.0710   14.9820    0.2750 C   0  0  0  0  0  0  0  0  0  0  0  0
   -5.8240   13.3300    0.5730 N   0  0  0  0  0  0  0  0  0  0  0  0
   -4.5640   14.9800    1.8050 C   0  0  0  0  0  0  0  0  0  0  0  0
   -5.1700   12.4390   -1.3170 N   0  0  0  0  0  0  0  0  0  0  0  0
   -5.9160   14.3110    1.6120 C   0  0  0  0  0  0  0  0  0  0  0  0
   -6.4450   12.1250    0.5160 C   0  0  0  0  0  0  0  0  0  0  0  0
   -6.0250   11.5840   -0.6750 C   0  0  0  0  0  0  0  0  0  0  0  0
  1  2  1  6
  1  3  1  0
  1  4  1  0
  1  5  1  0
  4  6  1  0
  4  7  2  0
  5  8  1  0
  5  9  1  1
  6 10  1  0
  7 11  1  0
 10 11  2  0
  8 12  1  0
  9 13  1  0
  8 14  2  0
 12 15  1  0
 13 15  1  0
 12 16  1  0
 14 17  1  0
 16 17  2  0
M  CHG  2   1   1   3  -1
M  END
