diamond-x0290_0_A-diamond-x0900_0_A
     RDKit          3D

 18 20  0  0  0  0  0  0  0  0999 V2000
   -8.0500   13.4930    1.2260 N   0  0  0  0  0  0  0  0  0  0  0  0
   -8.7070   14.7870    1.0600 C   0  0  0  0  0  0  0  0  0  0  0  0
   -6.8610   13.5650    2.0850 C   0  0  0  0  0  0  0  0  0  0  0  0
   -5.6060   13.7080    1.2270 C   0  0  1  0  0  0  0  0  0  0  0  0
   -5.8800   14.7910    0.1960 C   0  0  2  0  0  0  0  0  0  0  0  0
   -4.4400   14.2820    2.0110 C   0  0  0  0  0  0  0  0  0  0  0  0
   -3.7270   15.0660    1.0650 N   0  0  0  0  0  0  0  0  0  0  0  0
   -6.0390   14.2790   -1.2160 C   0  0  0  0  0  0  0  0  0  0  0  0
   -4.6230   15.6690    0.1380 C   0  0  1  0  0  0  0  0  0  0  0  0
   -2.4700   14.7720    0.7420 C   0  0  0  0  0  0  0  0  0  0  0  0
   -4.6860   14.2210   -1.7380 N   0  0  0  0  0  0  0  0  0  0  0  0
   -4.1620   15.5160   -1.3030 C   0  0  0  0  0  0  0  0  0  0  0  0
   -1.5690   14.5280    1.7030 N   0  0  0  0  0  0  0  0  0  0  0  0
   -2.1450   14.7400   -0.5950 C   0  0  0  0  0  0  0  0  0  0  0  0
   -0.3160   14.2610    1.2960 C   0  0  0  0  0  0  0  0  0  0  0  0
   -0.8650   14.4680   -1.0080 C   0  0  0  0  0  0  0  0  0  0  0  0
   -0.5480   14.4520   -2.4710 C   0  0  0  0  0  0  0  0  0  0  0  0
    0.0820   14.2220   -0.0330 C   0  0  0  0  0  0  0  0  0  0  0  0
  1  2  1  0
  1  3  1  0
  4  3  1  1
  4  5  1  0
  4  6  1  0
  6  7  1  0
  5  8  1  6
  5  9  1  0
  7  9  1  0
  7 10  1  0
  8 11  1  0
  9 12  1  6
 11 12  1  0
 10 13  2  0
 10 14  1  0
 13 15  1  0
 14 16  2  0
 16 17  1  0
 15 18  2  0
 16 18  1  0
M  END
