diamond-x0926_0_A-mac-x0348
     RDKit          3D

 25 27  0  0  0  0  0  0  0  0999 V2000
   -6.6360   15.0960   -0.7600 O   0  0  0  0  0  0  0  0  0  0  0  0
   -5.4500   15.1170   -0.4150 C   0  0  0  0  0  0  0  0  0  0  0  0
   -5.0380   14.8490    1.0280 C   0  0  0  0  0  0  0  0  0  0  0  0
   -4.4470   15.3730   -1.3250 N   0  0  0  0  0  0  0  0  0  0  0  0
   -3.1050   15.5120   -0.9160 N   0  0  0  0  0  0  0  0  0  0  0  0
   -3.6550   15.2690    1.3700 C   0  0  0  0  0  0  0  0  0  0  0  0
   -2.0850   15.5740   -1.9720 C   0  0  0  0  0  0  0  0  0  0  0  0
   -2.7900   15.5660    0.4090 C   0  0  0  0  0  0  0  0  0  0  0  0
   -0.6720   15.7660   -1.3620 C   0  0  0  0  0  0  0  0  0  0  0  0
    0.3390   14.7270   -1.8780 C   0  0  0  0  0  0  0  0  0  0  0  0
    0.1030   14.3400   -3.3570 C   0  0  2  0  0  0  0  0  0  0  0  0
    0.9960   13.2420   -3.9040 C   0  0  0  0  0  0  0  0  0  0  0  0
   -0.0660   15.5370   -4.2250 C   0  0  0  0  0  0  0  0  0  0  0  0
    0.9760   12.1720   -2.8820 C   0  0  0  0  0  0  0  0  0  0  0  0
    0.8060   16.5360   -4.5730 C   0  0  0  0  0  0  0  0  0  0  0  0
   -1.2800   15.8080   -4.8490 C   0  0  0  0  0  0  0  0  0  0  0  0
    1.4620   12.2920   -1.7910 O   0  0  0  0  0  0  0  0  0  0  0  0
    0.3470   11.0440   -3.2500 O   0  0  0  0  0  0  0  0  0  0  0  0
    0.1500   17.4090   -5.3960 N   0  0  0  0  0  0  0  0  0  0  0  0
   -1.1440   16.9860   -5.5710 C   0  0  0  0  0  0  0  0  0  0  0  0
   -2.4880   15.1040   -4.8300 C   0  0  0  0  0  0  0  0  0  0  0  0
    0.7370   18.5880   -5.9810 C   0  0  0  0  0  0  0  0  0  0  0  0
   -3.5480   15.6010   -5.5340 C   0  0  0  0  0  0  0  0  0  0  0  0
   -2.2120   17.5020   -6.2830 C   0  0  0  0  0  0  0  0  0  0  0  0
   -3.3950   16.7710   -6.2300 C   0  0  0  0  0  0  0  0  0  0  0  0
  1  2  2  0
  2  3  1  0
  2  4  1  0
  4  5  1  0
  3  6  1  0
  5  7  1  0
  5  8  1  0
  6  8  2  0
  7  9  1  0
  9 10  1  0
 11 10  1  1
 11 12  1  0
 11 13  1  0
 12 14  1  0
 13 15  2  0
 13 16  1  0
 14 17  2  0
 14 18  1  0
 15 19  1  0
 16 20  2  0
 19 20  1  0
 16 21  1  0
 19 22  1  0
 21 23  2  0
 20 24  1  0
 23 25  1  0
 24 25  2  0
M  END
