diamond-x0253_0_A-mac-x0277
     RDKit          3D

 22 23  0  0  0  0  0  0  0  0999 V2000
    0.4100   11.5910   -5.3000 N   0  0  0  0  0  0  0  0  0  0  0  0
    1.0750   11.6780   -6.5020 C   0  0  0  0  0  0  0  0  0  0  0  0
    2.0610   12.3580   -6.6890 O   0  0  0  0  0  0  0  0  0  0  0  0
    0.2600   12.5720   -4.2190 C   0  0  1  0  0  0  0  0  0  0  0  0
    1.0130   12.1760   -2.9560 C   0  0  0  0  0  0  0  0  0  0  0  0
    0.4780   10.7760   -7.5480 C   0  0  0  0  0  0  0  0  0  0  0  0
    0.1090   14.0610   -4.4980 C   0  0  0  0  0  0  0  0  0  0  0  0
    1.9500   12.7860   -2.4710 O   0  0  0  0  0  0  0  0  0  0  0  0
    0.4900   11.0590   -2.4000 O   0  0  0  0  0  0  0  0  0  0  0  0
   -0.5160    9.8550   -7.1670 C   0  0  0  0  0  0  0  0  0  0  0  0
    0.8710   10.8070   -8.8960 C   0  0  0  0  0  0  0  0  0  0  0  0
   -1.1700   14.4400   -4.8640 C   0  0  0  0  0  0  0  0  0  0  0  0
    1.1120   15.0580   -4.3970 C   0  0  0  0  0  0  0  0  0  0  0  0
   -1.1050    8.9920   -8.1050 C   0  0  0  0  0  0  0  0  0  0  0  0
    0.2910    9.9510   -9.8310 C   0  0  0  0  0  0  0  0  0  0  0  0
   -1.4930   15.7480   -5.1240 C   0  0  0  0  0  0  0  0  0  0  0  0
    0.7730   16.4060   -4.6630 C   0  0  0  0  0  0  0  0  0  0  0  0
   -2.1670    8.0200   -7.6750 C   0  0  0  0  0  0  0  0  0  0  0  0
   -3.1240   16.0370   -5.5690 Cl  0  0  0  0  0  0  0  0  0  0  0  0
   -0.6920    9.0460   -9.4390 C   0  0  0  0  0  0  0  0  0  0  0  0
   -0.5360   16.7420   -5.0260 C   0  0  0  0  0  0  0  0  0  0  0  0
   -0.9410   18.3850   -5.3470 Cl  0  0  0  0  0  0  0  0  0  0  0  0
  1  2  1  0
  2  3  2  0
  4  1  1  6
  4  5  1  0
  2  6  1  0
  4  7  1  0
  5  8  2  0
  5  9  1  0
  6 10  2  0
  6 11  1  0
  7 12  2  0
  7 13  1  0
 10 14  1  0
 11 15  2  0
 12 16  1  0
 13 17  2  0
 14 18  1  0
 16 19  1  0
 14 20  2  0
 15 20  1  0
 16 21  2  0
 17 21  1  0
 21 22  1  0
M  END
