diamond-x0371_0_A-mac-x0326
     RDKit          3D

 28 31  0  0  0  0  0  0  0  0999 V2000
   -7.8030   14.5950    3.0940 N   0  0  0  0  0  0  0  0  0  0  0  0
   -8.6320   15.5200    3.6800 C   0  0  0  0  0  0  0  0  0  0  0  0
   -9.3550   16.2540    3.0030 O   0  0  0  0  0  0  0  0  0  0  0  0
   -8.0660   14.1330    1.7680 C   0  0  0  0  0  0  0  0  0  0  0  0
   -6.8310   14.3170    0.9630 C   0  0  0  0  0  0  0  0  0  0  0  0
   -8.5790   15.5400    5.1200 C   0  0  0  0  0  0  0  0  0  0  0  0
   -5.5500   14.4410    1.4930 N   0  0  0  0  0  0  0  0  0  0  0  0
   -6.8020   14.3780   -0.3370 N   0  0  0  0  0  0  0  0  0  0  0  0
   -8.0100   14.4660    5.7410 O   0  0  0  0  0  0  0  0  0  0  0  0
   -8.9940   16.4480    6.0730 C   0  0  0  0  0  0  0  0  0  0  0  0
   -5.4880   14.5370   -0.6470 C   0  0  0  0  0  0  0  0  0  0  0  0
   -4.6800   14.5880    0.4410 C   0  0  0  0  0  0  0  0  0  0  0  0
   -8.6570   15.8930    7.3350 C   0  0  0  0  0  0  0  0  0  0  0  0
   -8.0590   14.6870    7.0740 C   0  0  0  0  0  0  0  0  0  0  0  0
   -3.1750   14.7590    0.3970 C   0  0  0  0  0  0  0  0  0  0  0  0
   -4.9910   14.6430   -1.9940 C   0  0  1  0  0  0  0  0  0  0  0  0
   -6.4350   15.1470   -2.8630 Cl  0  0  0  0  0  0  0  0  0  0  0  0
   -2.6680   14.9870   -1.0940 C   0  0  2  0  0  0  0  0  0  0  0  0
   -3.8060   15.6200   -1.9370 C   0  0  0  0  0  0  0  0  0  0  0  0
   -2.2720   13.7050   -1.8370 C   0  0  0  0  0  0  0  0  0  0  0  0
   -0.9910   15.7560   -1.2810 S   0  0  0  0  0  0  0  0  0  0  0  0
   -0.8010   15.1790   -3.0110 C   0  0  2  0  0  0  0  0  0  0  0  0
   -1.7790   14.1020   -3.1780 N   0  0  0  0  0  0  0  0  0  0  0  0
    0.6120   14.7660   -3.4990 C   0  0  0  0  0  0  0  0  0  0  0  0
    0.7550   13.3930   -4.1770 C   0  0  0  0  0  0  0  0  0  0  0  0
    0.9910   12.3110   -3.1660 C   0  0  0  0  0  0  0  0  0  0  0  0
    0.3220   11.1720   -3.4200 O   0  0  0  0  0  0  0  0  0  0  0  0
    1.7080   12.3940   -2.1910 O   0  0  0  0  0  0  0  0  0  0  0  0
  1  2  1  0
  2  3  2  0
  1  4  1  0
  4  5  1  0
  2  6  1  0
  5  7  1  0
  5  8  2  0
  6  9  1  0
  6 10  2  0
  8 11  1  0
  7 12  1  0
 11 12  2  0
 10 13  1  0
  9 14  1  0
 13 14  2  0
 12 15  1  0
 11 16  1  0
 16 17  1  6
 18 15  1  1
 16 19  1  0
 18 19  1  0
 18 20  1  0
 18 21  1  0
 21 22  1  0
 20 23  1  0
 22 23  1  0
 22 24  1  1
 24 25  1  0
 25 26  1  0
 26 27  1  0
 26 28  2  0
M  END
