diamond-x0962_2_B-mac-x0555
     RDKit          3D

 17 19  0  0  0  0  0  0  0  0999 V2000
  -10.7790   16.3630    1.1490 N   0  0  0  0  0  0  0  0  0  0  0  0
  -10.0610   15.9770    1.9660 C   0  0  0  0  0  0  0  0  0  0  0  0
   -9.1730   15.4350    2.9150 C   0  0  0  0  0  0  0  0  0  0  0  0
   -9.4320   15.3730    4.2510 N   0  0  0  0  0  0  0  0  0  0  0  0
   -7.9210   14.8860    2.7470 C   0  0  0  0  0  0  0  0  0  0  0  0
   -8.3520   14.7900    4.8470 C   0  0  0  0  0  0  0  0  0  0  0  0
   -7.4340   14.4830    3.9640 N   0  0  0  0  0  0  0  0  0  0  0  0
   -7.2230   14.7910    1.4670 C   0  0  0  0  0  0  0  0  0  0  0  0
   -5.8260   14.9640    1.3840 C   0  0  0  0  0  0  0  0  0  0  0  0
   -7.8830   14.5760    0.2700 C   0  0  0  0  0  0  0  0  0  0  0  0
   -5.1710   14.9460    0.1360 C   0  0  0  0  0  0  0  0  0  0  0  0
   -7.2850   14.5450   -0.9480 N   0  0  0  0  0  0  0  0  0  0  0  0
   -5.9610   14.7400   -1.0120 C   0  0  0  0  0  0  0  0  0  0  0  0
   -3.7850   15.1360    0.0130 C   0  0  0  0  0  0  0  0  0  0  0  0
   -5.3360   14.7420   -2.2490 C   0  0  0  0  0  0  0  0  0  0  0  0
   -3.1890   15.1280   -1.2460 C   0  0  0  0  0  0  0  0  0  0  0  0
   -3.9660   14.9360   -2.3780 C   0  0  0  0  0  0  0  0  0  0  0  0
  1  2  3  0
  2  3  1  0
  3  4  1  0
  3  5  2  0
  4  6  1  0
  5  7  1  0
  6  7  2  0
  5  8  1  0
  8  9  2  0
  8 10  1  0
  9 11  1  0
 10 12  2  0
 11 13  2  0
 12 13  1  0
 11 14  1  0
 13 15  1  0
 14 16  2  0
 15 17  2  0
 16 17  1  0
M  END
