diamond-x0962_0_A-mac-x0397
     RDKit          3D

 13 14  0  0  0  0  0  0  0  0999 V2000
   -2.6640   16.1730   -2.0520 N   0  0  0  0  0  0  0  0  0  0  0  0
   -3.0170   15.6200   -1.1070 C   0  0  0  0  0  0  0  0  0  0  0  0
   -3.3530   14.6920   -0.0340 C   0  0  1  0  0  0  0  0  0  0  0  0
   -2.9650   15.2220    1.2870 N   0  0  0  0  0  0  0  0  0  0  0  0
   -4.8470   14.3560   -0.0500 C   0  0  1  0  0  0  0  0  0  0  0  0
   -2.5720   13.6390   -0.6690 C   0  0  0  0  0  0  0  0  0  0  0  0
   -4.1530   15.5000    1.7650 C   0  0  0  0  0  0  0  0  0  0  0  0
   -5.3050   15.2370    1.0390 N   0  0  0  0  0  0  0  0  0  0  0  0
   -5.1460   14.6050   -1.4920 C   0  0  0  0  0  0  0  0  0  0  0  0
   -3.0400   13.3800   -1.9060 C   0  0  0  0  0  0  0  0  0  0  0  0
   -6.3260   14.7690    1.9190 N   0  0  0  0  0  0  0  0  0  0  0  0
   -6.5830   15.4540   -1.9430 Cl  0  0  0  0  0  0  0  0  0  0  0  0
   -4.2360   14.1240   -2.3930 C   0  0  0  0  0  0  0  0  0  0  0  0
  1  2  3  0
  3  2  1  6
  3  4  1  0
  3  5  1  0
  3  6  1  0
  4  7  2  0
  5  8  1  0
  7  8  1  0
  5  9  1  6
  6 10  2  0
  8 11  1  0
  9 12  1  0
  9 13  2  0
 10 13  1  0
M  END
