diamond-x0926_0_A-diamond-x1018_0_A
     RDKit          3D

 13 14  0  0  0  0  0  0  0  0999 V2000
   -5.4380   16.9130   -0.6910 O   0  0  0  0  0  0  0  0  0  0  0  0
   -4.9410   16.0860   -0.0030 C   0  0  0  0  0  0  0  0  0  0  0  0
   -3.7830   16.1630    0.8500 C   0  0  0  0  0  0  0  0  0  0  0  0
   -5.4890   14.8240    0.0880 C   0  0  1  0  0  0  0  0  0  0  0  0
   -2.7710   15.3560    0.5830 C   0  0  0  0  0  0  0  0  0  0  0  0
   -5.1580   13.9960   -1.0350 N   0  0  0  0  0  0  0  0  0  0  0  0
   -5.2230   14.1740    1.4030 C   0  0  0  0  0  0  0  0  0  0  0  0
   -3.8430   13.4450   -0.7970 N   0  0  0  0  0  0  0  0  0  0  0  0
   -2.7100   14.3920   -0.5870 C   0  0  0  0  0  0  0  0  0  0  0  0
   -6.2570   13.0550   -0.8540 N   0  0  0  0  0  0  0  0  0  0  0  0
   -6.1980   13.3650    1.5630 C   0  0  0  0  0  0  0  0  0  0  0  0
   -7.0440   13.5060    0.3460 C   0  0  2  0  0  0  0  0  0  0  0  0
   -8.6010   12.6940    0.4820 Cl  0  0  0  0  0  0  0  0  0  0  0  0
  1  2  2  0
  2  3  1  0
  2  4  1  0
  3  5  2  0
  4  6  1  0
  4  7  1  1
  6  8  1  0
  5  9  1  0
  8  9  1  0
  6 10  1  0
  7 11  2  0
 10 12  1  0
 11 12  1  0
 12 13  1  1
M  END
