diamond-x0722_0_A-mac-x0255
     RDKit          3D

 27 29  0  0  0  0  0  0  0  0999 V2000
   -4.4370   15.7470    2.3160 C   0  0  0  0  0  0  0  0  0  0  0  0
   -3.4660   15.3180    1.3350 C   0  0  0  0  0  0  0  0  0  0  0  0
   -2.2750   14.9610    1.7760 N   0  0  0  0  0  0  0  0  0  0  0  0
   -3.5940   15.2310   -0.0610 C   0  0  0  0  0  0  0  0  0  0  0  0
   -4.7990   15.5560   -0.9000 C   0  0  0  0  0  0  0  0  0  0  0  0
   -2.3400   14.7890   -0.4660 C   0  0  0  0  0  0  0  0  0  0  0  0
   -1.5960   14.6530    0.6960 N   0  0  0  0  0  0  0  0  0  0  0  0
   -0.2230   14.2430    0.8880 C   0  0  0  0  0  0  0  0  0  0  0  0
   -1.8480   14.5180   -1.8380 C   0  0  0  0  0  0  0  0  0  0  0  0
   -6.0150   14.7010   -0.5970 C   0  0  0  0  0  0  0  0  0  0  0  0
   -7.1720   15.0880   -0.7460 O   0  0  0  0  0  0  0  0  0  0  0  0
   -5.7750   13.4350   -0.1430 N   0  0  0  0  0  0  0  0  0  0  0  0
   -1.8940   13.0320   -2.1300 C   0  0  0  0  0  0  0  0  0  0  0  0
   -0.7210   12.3640   -1.4470 C   0  0  0  0  0  0  0  0  0  0  0  0
    0.5160   12.7790   -2.0240 O   0  0  0  0  0  0  0  0  0  0  0  0
    0.7650   12.0600   -3.1280 C   0  0  0  0  0  0  0  0  0  0  0  0
    0.4140   10.8960   -3.2490 O   0  0  0  0  0  0  0  0  0  0  0  0
    1.5040   12.8600   -4.1710 C   0  0  0  0  0  0  0  0  0  0  0  0
    0.7450   14.1120   -4.4970 C   0  0  0  0  0  0  0  0  0  0  0  0
    1.2660   15.3700   -4.6430 C   0  0  0  0  0  0  0  0  0  0  0  0
   -0.9460   14.1110   -4.7480 S   0  0  0  0  0  0  0  0  0  0  0  0
    0.2870   16.3580   -4.9770 C   0  0  0  0  0  0  0  0  0  0  0  0
   -0.9890   15.8030   -5.0670 C   0  0  0  0  0  0  0  0  0  0  0  0
    0.4390   17.7380   -5.2170 C   0  0  0  0  0  0  0  0  0  0  0  0
   -2.1150   16.5890   -5.3870 C   0  0  0  0  0  0  0  0  0  0  0  0
   -0.6710   18.5150   -5.5410 C   0  0  0  0  0  0  0  0  0  0  0  0
   -1.9250   17.9510   -5.6270 C   0  0  0  0  0  0  0  0  0  0  0  0
  1  2  1  0
  2  3  2  0
  2  4  1  0
  4  5  1  0
  4  6  2  0
  3  7  1  0
  6  7  1  0
  7  8  1  0
  6  9  1  0
  5 10  1  0
 10 11  2  0
 10 12  1  0
  9 13  1  0
 13 14  1  0
 14 15  1  0
 15 16  1  0
 16 17  2  0
 16 18  1  0
 18 19  1  0
 19 20  2  0
 19 21  1  0
 20 22  1  0
 21 23  1  0
 22 23  2  0
 22 24  1  0
 23 25  1  0
 24 26  2  0
 25 27  2  0
 26 27  1  0
M  END
