diamond-x0933_1_A-diamond-x0822_0_A
     RDKit          3D

 21 23  0  0  0  0  0  0  0  0999 V2000
    3.2930   25.2420   19.5780 N   0  0  0  0  0  0  0  0  0  0  0  0
    4.5000   24.6240   19.2070 C   0  0  2  0  0  0  0  0  0  0  0  0
    5.5710   25.3420   19.8300 N   0  0  0  0  0  0  0  0  0  0  0  0
    4.5280   24.7380   17.7770 N   0  0  0  0  0  0  0  0  0  0  0  0
    5.5710   25.6910   17.2870 C   0  0  1  0  0  0  0  0  0  0  0  0
    6.9360   25.2550   19.2890 C   0  0  0  0  0  0  0  0  0  0  0  0
    6.9820   25.3050   17.7670 C   0  0  0  0  0  0  0  0  0  0  0  0
    5.5440   25.7490   15.7410 C   0  0  0  0  0  0  0  0  0  0  0  0
    5.1950   27.0750   17.8810 C   0  0  0  0  0  0  0  0  0  0  0  0
    3.7770   27.4990   17.5280 C   0  0  2  0  0  0  0  0  0  0  0  0
    4.3310   26.5190   15.2310 C   0  0  0  0  0  0  0  0  0  0  0  0
    2.8810   27.3440   18.6840 N   0  0  0  0  0  0  0  0  0  0  0  0
    3.2900   26.6470   16.3410 C   0  0  2  0  0  0  0  0  0  0  0  0
    1.9260   27.0730   15.8720 C   0  0  0  0  0  0  0  0  0  0  0  0
    1.5230   28.4080   16.0110 C   0  0  0  0  0  0  0  0  0  0  0  0
    1.0560   26.1400   15.3080 C   0  0  0  0  0  0  0  0  0  0  0  0
    0.2600   28.8020   15.5870 C   0  0  0  0  0  0  0  0  0  0  0  0
   -0.2030   26.5230   14.8870 C   0  0  0  0  0  0  0  0  0  0  0  0
   -1.1190   25.6880   14.3350 O   0  0  0  0  0  0  0  0  0  0  0  0
   -0.6010   27.8590   15.0260 C   0  0  0  0  0  0  0  0  0  0  0  0
   -2.4340   26.1940   14.1880 C   0  0  0  0  0  0  0  0  0  0  0  0
  2  1  1  1
  2  3  1  0
  2  4  1  0
  5  4  1  0
  3  6  1  0
  5  7  1  6
  6  7  1  0
  5  8  1  0
  5  9  1  0
  9 10  1  0
  8 11  1  0
 10 12  1  1
 10 13  1  0
 11 13  1  0
 13 14  1  6
 14 15  2  0
 14 16  1  0
 15 17  1  0
 16 18  2  0
 18 19  1  0
 17 20  2  0
 18 20  1  0
 19 21  1  0
M  END
