diamond-x0962_0_A-diamond-x0950_0_A
     RDKit          3D

 16 16  0  0  0  0  0  0  0  0999 V2000
   -2.7730   14.9870   -2.5000 N   0  0  0  0  0  0  0  0  0  0  0  0
   -2.5590   14.3880   -1.1950 C   0  0  1  0  0  0  0  0  0  0  0  0
   -1.1540   14.6740   -0.6110 C   0  0  0  0  0  0  0  0  0  0  0  0
   -3.6450   14.7190   -0.2340 C   0  0  0  0  0  0  0  0  0  0  0  0
   -0.1460   13.5270   -0.5590 C   0  0  0  0  0  0  0  0  0  0  0  0
   -3.4420   15.1850    1.0370 N   0  0  0  0  0  0  0  0  0  0  0  0
   -5.0190   14.6450   -0.3530 C   0  0  0  0  0  0  0  0  0  0  0  0
    1.0440   13.7660   -1.4920 C   0  0  0  0  0  0  0  0  0  0  0  0
   -4.6600   15.3620    1.6170 C   0  0  0  0  0  0  0  0  0  0  0  0
   -5.6340   15.0380    0.7960 N   0  0  0  0  0  0  0  0  0  0  0  0
    1.5320   12.5190   -1.9950 O   0  0  0  0  0  0  0  0  0  0  0  0
    0.9200   11.9710   -3.0770 C   0  0  0  0  0  0  0  0  0  0  0  0
    1.2360   12.7550   -4.3560 C   0  0  1  0  0  0  0  0  0  0  0  0
    0.2140   10.9670   -3.0560 O   0  0  0  0  0  0  0  0  0  0  0  0
    2.7170   13.0570   -4.4630 C   0  0  0  0  0  0  0  0  0  0  0  0
    0.8500   12.0270   -5.5240 O   0  0  0  0  0  0  0  0  0  0  0  0
  2  1  1  6
  2  3  1  0
  2  4  1  0
  3  5  1  0
  4  6  1  0
  4  7  2  0
  5  8  1  0
  6  9  1  0
  7 10  1  0
  9 10  2  0
  8 11  1  0
 11 12  1  0
 12 13  1  0
 12 14  2  0
 13 15  1  6
 13 16  1  0
M  END
