diamond-x0805_0_A-diamond-x0962_3_A
     RDKit          3D

 26 28  0  0  0  0  0  0  0  0999 V2000
   -4.4760   15.1580    1.0340 C   0  0  0  0  0  0  0  0  0  0  0  0
   -3.6210   15.6040   -0.0050 O   0  0  0  0  0  0  0  0  0  0  0  0
   -3.4810   14.8250   -1.1180 C   0  0  0  0  0  0  0  0  0  0  0  0
   -4.4530   14.0940   -1.7990 C   0  0  0  0  0  0  0  0  0  0  0  0
   -2.1850   14.7990   -1.5840 C   0  0  0  0  0  0  0  0  0  0  0  0
   -4.0980   13.3590   -2.9380 C   0  0  0  0  0  0  0  0  0  0  0  0
   -1.8090   14.0960   -2.6980 C   0  0  0  0  0  0  0  0  0  0  0  0
   -2.7760   13.3580   -3.3940 C   0  0  0  0  0  0  0  0  0  0  0  0
   -0.3710   14.1490   -3.1110 C   0  0  1  0  0  0  0  0  0  0  0  0
    0.2460   12.8040   -3.4850 C   0  0  2  0  0  0  0  0  0  0  0  0
   -0.0430   15.2480   -4.1250 C   0  0  0  0  0  0  0  0  0  0  0  0
    0.3870   12.0160   -2.2180 C   0  0  0  0  0  0  0  0  0  0  0  0
    1.5610   13.0650   -4.1700 C   0  0  1  0  0  0  0  0  0  0  0  0
    1.4510   15.4540   -4.2440 C   0  0  0  0  0  0  0  0  0  0  0  0
    0.3520   10.6660   -2.3740 O   0  0  0  0  0  0  0  0  0  0  0  0
    0.5140   12.4910   -1.1170 O   0  0  0  0  0  0  0  0  0  0  0  0
    1.2190   13.2080   -5.6160 C   0  0  0  0  0  0  0  0  0  0  0  0
    2.1790   14.3120   -3.8000 O   0  0  0  0  0  0  0  0  0  0  0  0
    2.0370   12.2860   -6.3910 C   0  0  0  0  0  0  0  0  0  0  0  0
    1.3240   11.2830   -7.0780 C   0  0  0  0  0  0  0  0  0  0  0  0
    0.6710   10.4590   -7.5250 C   0  0  0  0  0  0  0  0  0  0  0  0
   -0.2300    9.4770   -7.7860 C   0  0  0  0  0  0  0  0  0  0  0  0
   -0.0330    8.3830   -8.5610 N   0  0  0  0  0  0  0  0  0  0  0  0
   -1.5020    9.3980   -7.3090 C   0  0  0  0  0  0  0  0  0  0  0  0
   -1.1960    7.6780   -8.5240 C   0  0  0  0  0  0  0  0  0  0  0  0
   -2.1040    8.2700   -7.7730 N   0  0  0  0  0  0  0  0  0  0  0  0
  1  2  1  0
  2  3  1  0
  3  4  2  0
  3  5  1  0
  4  6  1  0
  5  7  2  0
  6  8  2  0
  7  8  1  0
  9  7  1  6
  9 10  1  0
  9 11  1  0
 10 12  1  1
 10 13  1  0
 11 14  1  0
 12 15  1  0
 12 16  2  0
 13 17  1  6
 13 18  1  0
 14 18  1  0
 17 19  1  0
 19 20  1  0
 20 21  3  0
 21 22  1  0
 22 23  1  0
 22 24  2  0
 23 25  1  0
 24 26  1  0
 25 26  2  0
M  END
