diamond-x0950_0_A-mac-x0392
     RDKit          3D

 17 17  0  0  0  0  0  0  0  0999 V2000
    2.7770   12.9260   -4.0760 C   0  0  0  0  0  0  0  0  0  0  0  0
    1.2640   12.7530   -4.0970 C   0  0  1  0  0  0  0  0  0  0  0  0
    0.9060   12.1220   -5.3270 O   0  0  0  0  0  0  0  0  0  0  0  0
    0.7640   11.9360   -2.8910 C   0  0  0  0  0  0  0  0  0  0  0  0
    0.4650   10.7530   -2.9680 O   0  0  0  0  0  0  0  0  0  0  0  0
    0.6810   12.6650   -1.7360 O   0  0  0  0  0  0  0  0  0  0  0  0
    1.2910   13.9600   -1.7930 C   0  0  0  0  0  0  0  0  0  0  0  0
    0.4290   15.0390   -2.2170 O   0  0  0  0  0  0  0  0  0  0  0  0
   -0.8860   14.8070   -2.4650 C   0  0  0  0  0  0  0  0  0  0  0  0
   -1.3860   14.5900   -3.5570 O   0  0  0  0  0  0  0  0  0  0  0  0
   -1.6870   14.8760   -1.2130 C   0  0  0  0  0  0  0  0  0  0  0  0
   -1.1290   14.8050    0.0750 C   0  0  0  0  0  0  0  0  0  0  0  0
   -3.0750   15.0220   -1.3800 C   0  0  0  0  0  0  0  0  0  0  0  0
    0.2310   14.6650    0.3510 N   0  0  0  0  0  0  0  0  0  0  0  0
   -3.8660   15.0870   -0.2480 C   0  0  0  0  0  0  0  0  0  0  0  0
   -2.0380   14.8780    1.1190 C   0  0  0  0  0  0  0  0  0  0  0  0
   -3.3740   15.0160    0.9950 N   0  0  0  0  0  0  0  0  0  0  0  0
  2  1  1  1
  2  3  1  0
  2  4  1  0
  4  5  2  0
  4  6  1  0
  6  7  1  0
  7  8  1  0
  8  9  1  0
  9 10  2  0
  9 11  1  0
 11 12  2  0
 11 13  1  0
 12 14  1  0
 13 15  2  0
 12 16  1  0
 15 17  1  0
 16 17  2  0
M  END
