diamond-x0766_0_A-diamond-x0742_0_A
     RDKit          3D

 26 29  0  0  0  0  0  0  0  0999 V2000
    0.4810   12.2280   -2.5570 C   0  0  0  0  0  0  0  0  0  0  0  0
   -0.0340   11.2460   -3.3160 O   0  0  0  0  0  0  0  0  0  0  0  0
    0.6640   12.0730   -1.3740 O   0  0  0  0  0  0  0  0  0  0  0  0
    0.8060   13.5120   -3.2460 C   0  0  1  0  0  0  0  0  0  0  0  0
    0.9400   13.5610   -4.7580 C   0  0  0  0  0  0  0  0  0  0  0  0
    0.0060   14.7820   -2.8240 C   0  0  1  0  0  0  0  0  0  0  0  0
    1.2700   15.0350   -4.8980 C   0  0  0  0  0  0  0  0  0  0  0  0
    0.2410   15.7300   -4.0160 C   0  0  0  0  0  0  0  0  0  0  0  0
   -1.4630   14.7890   -2.3560 C   0  0  0  0  0  0  0  0  0  0  0  0
   -1.9880   14.4710   -1.1570 C   0  0  0  0  0  0  0  0  0  0  0  0
   -2.5080   15.2180   -3.2610 C   0  0  0  0  0  0  0  0  0  0  0  0
   -3.7590   15.2320   -2.7530 C   0  0  0  0  0  0  0  0  0  0  0  0
   -3.6540   14.7180   -1.1970 S   0  0  1  0  0  0  0  0  0  0  0  0
   -4.7350   13.7810   -0.3880 N   0  0  0  0  0  0  0  0  0  0  0  0
   -4.2550   15.8190   -0.0140 C   0  0  0  0  0  0  0  0  0  0  0  0
   -5.1770   12.5010   -0.6360 C   0  0  0  0  0  0  0  0  0  0  0  0
   -4.6740   14.5850    0.8530 C   0  0  2  0  0  0  0  0  0  0  0  0
   -4.8210   11.7960   -1.5800 O   0  0  0  0  0  0  0  0  0  0  0  0
   -6.1820   11.9900    0.3650 C   0  0  0  0  0  0  0  0  0  0  0  0
   -3.6010   14.0870    1.8080 C   0  0  0  0  0  0  0  0  0  0  0  0
   -2.2790   14.0810    1.1180 C   0  0  0  0  0  0  0  0  0  0  0  0
   -1.2620   14.6920    1.7470 N   0  0  0  0  0  0  0  0  0  0  0  0
   -2.1290   13.4640   -0.1120 C   0  0  0  0  0  0  0  0  0  0  0  0
   -0.0710   14.6900    1.1190 C   0  0  0  0  0  0  0  0  0  0  0  0
   -0.8930   13.4790   -0.7300 C   0  0  0  0  0  0  0  0  0  0  0  0
    0.1690   14.1080   -0.1050 C   0  0  0  0  0  0  0  0  0  0  0  0
  1  2  1  0
  1  3  2  0
  4  1  1  6
  4  5  1  0
  4  6  1  0
  5  7  1  0
  6  8  1  0
  7  8  1  0
  6  9  1  6
  9 10  2  0
  9 11  1  0
 11 12  2  0
 13 10  1  1
 12 13  1  0
 13 14  1  0
 13 15  1  0
 14 16  1  0
 14 17  1  0
 15 17  1  0
 16 18  2  0
 16 19  1  0
 17 20  1  1
 20 21  1  0
 21 22  2  0
 21 23  1  0
 22 24  1  0
 23 25  2  0
 24 26  2  0
 25 26  1  0
M  END
