diamond-x0574_0_A-mac-x0590
     RDKit          3D

 20 22  0  0  0  0  0  0  0  0999 V2000
    0.1920   14.0190    2.2330 N   0  0  0  0  0  0  0  0  0  0  0  0
   -0.8230   14.2250    1.4410 C   0  0  0  0  0  0  0  0  0  0  0  0
   -1.9830   14.3530    1.9450 N   0  0  0  0  0  0  0  0  0  0  0  0
   -0.6950   14.3280   -0.2540 S   0  0  0  0  0  0  0  0  0  0  0  0
   -2.8990   14.5300    0.9660 C   0  0  0  0  0  0  0  0  0  0  0  0
   -2.4030   14.5490   -0.3380 C   0  0  0  0  0  0  0  0  0  0  0  0
   -4.2480   14.6770    1.2270 C   0  0  0  0  0  0  0  0  0  0  0  0
   -3.2280   14.7210   -1.4630 C   0  0  0  0  0  0  0  0  0  0  0  0
   -2.6480   14.7340   -2.9050 C   0  0  0  0  0  0  0  0  0  0  0  0
   -5.1240   14.8430    0.1830 C   0  0  0  0  0  0  0  0  0  0  0  0
   -4.6280   14.8710   -1.1530 C   0  0  0  0  0  0  0  0  0  0  0  0
   -6.4690   14.9790    0.3960 O   0  0  0  0  0  0  0  0  0  0  0  0
   -1.9500   13.4090   -3.3280 C   0  0  0  0  0  0  0  0  0  0  0  0
   -6.9040   14.5640    1.7040 C   0  0  0  0  0  0  0  0  0  0  0  0
   -0.8510   13.5840   -4.4160 C   0  0  0  0  0  0  0  0  0  0  0  0
    0.1560   12.4110   -4.6110 C   0  0  2  0  0  0  0  0  0  0  0  0
    0.7500   11.9030   -3.3010 C   0  0  0  0  0  0  0  0  0  0  0  0
    1.3900   12.7320   -5.4470 C   0  0  0  0  0  0  0  0  0  0  0  0
    2.4880   12.9840   -4.4360 C   0  0  0  0  0  0  0  0  0  0  0  0
    2.1370   12.2740   -3.2470 O   0  0  0  0  0  0  0  0  0  0  0  0
  1  2  1  0
  2  3  2  0
  2  4  1  0
  3  5  1  0
  4  6  1  0
  5  6  2  0
  5  7  1  0
  6  8  1  0
  8  9  1  0
  7 10  2  0
  8 11  2  0
 10 11  1  0
 10 12  1  0
  9 13  1  0
 12 14  1  0
 13 15  1  0
 16 15  1  1
 16 17  1  0
 16 18  1  0
 18 19  1  0
 17 20  1  0
 19 20  1  0
M  END
