diamond-x0253_0_A-mac-x0193
     RDKit          3D

 21 22  0  0  0  0  0  0  0  0999 V2000
    0.3980   11.2620   -5.4250 N   0  0  0  0  0  0  0  0  0  0  0  0
    0.5780   11.3810   -6.8500 C   0  0  1  0  0  0  0  0  0  0  0  0
    0.8220   12.7090   -7.0920 O   0  0  0  0  0  0  0  0  0  0  0  0
    0.9210   12.4110   -4.6380 C   0  0  0  0  0  0  0  0  0  0  0  0
    0.8280   12.1660   -3.1370 C   0  0  0  0  0  0  0  0  0  0  0  0
    1.5610   10.6110   -7.5070 N   0  0  0  0  0  0  0  0  0  0  0  0
   -0.3700   10.7210   -7.7630 C   0  0  0  0  0  0  0  0  0  0  0  0
    1.1500   12.9330   -2.2470 O   0  0  0  0  0  0  0  0  0  0  0  0
    0.3280   10.9480   -2.8370 O   0  0  0  0  0  0  0  0  0  0  0  0
   -1.1060    9.6200   -7.3400 C   0  0  0  0  0  0  0  0  0  0  0  0
   -0.4880   11.1740   -9.0790 C   0  0  0  0  0  0  0  0  0  0  0  0
    1.0140    9.7710   -8.6350 C   0  0  0  0  0  0  0  0  0  0  0  0
   -1.9490    8.9610   -8.2210 C   0  0  0  0  0  0  0  0  0  0  0  0
   -1.3270   10.5240   -9.9680 C   0  0  0  0  0  0  0  0  0  0  0  0
    1.6090    8.3610   -8.5930 C   0  0  0  0  0  0  0  0  0  0  0  0
    1.1470   10.3330  -10.0790 C   0  0  0  0  0  0  0  0  0  0  0  0
   -2.7210    7.7790   -7.7470 C   0  0  0  0  0  0  0  0  0  0  0  0
   -2.0540    9.4160   -9.5400 C   0  0  0  0  0  0  0  0  0  0  0  0
    2.2820    7.9450   -9.9110 C   0  0  0  0  0  0  0  0  0  0  0  0
    0.6680    9.3870  -11.1910 C   0  0  0  0  0  0  0  0  0  0  0  0
    1.3700    8.0430  -11.1310 C   0  0  0  0  0  0  0  0  0  0  0  0
  1  2  1  0
  2  3  1  6
  1  4  1  0
  4  5  1  0
  2  6  1  0
  2  7  1  0
  5  8  2  0
  5  9  1  0
  7 10  2  0
  7 11  1  0
  6 12  1  0
 10 13  1  0
 11 14  2  0
 12 15  1  0
 12 16  1  0
 13 17  1  0
 13 18  2  0
 14 18  1  0
 15 19  1  0
 16 20  1  0
 19 21  1  0
 20 21  1  0
M  END
