diamond-x0950_0_A-mac-x0182
     RDKit          3D

 17 18  0  0  0  0  0  0  0  0999 V2000
    3.0340   12.8510   -4.7780 C   0  0  0  0  0  0  0  0  0  0  0  0
    1.7590   13.4080   -4.2330 C   0  0  1  0  0  0  0  0  0  0  0  0
    0.7890   13.4090   -5.3030 O   0  0  0  0  0  0  0  0  0  0  0  0
    1.2610   12.4660   -3.1730 C   0  0  0  0  0  0  0  0  0  0  0  0
    0.4470   11.5220   -3.2880 N   0  0  0  0  0  0  0  0  0  0  0  0
    1.7940   12.7060   -1.9600 O   0  0  0  0  0  0  0  0  0  0  0  0
   -0.1360   11.3230   -4.4970 N   0  0  0  0  0  0  0  0  0  0  0  0
    0.3620   11.3220   -5.8300 C   0  0  0  0  0  0  0  0  0  0  0  0
   -1.7280   10.9260   -4.3510 S   0  0  0  0  0  0  0  0  0  0  0  0
    1.2520   11.9810   -6.3610 O   0  0  0  0  0  0  0  0  0  0  0  0
   -2.5450   12.1430   -4.6400 O   0  0  0  0  0  0  0  0  0  0  0  0
   -1.5660   10.0200   -5.8550 C   0  0  0  0  0  0  0  0  0  0  0  0
   -0.4120   10.3200   -6.5630 C   0  0  0  0  0  0  0  0  0  0  0  0
   -2.4680    9.0940   -6.3190 C   0  0  0  0  0  0  0  0  0  0  0  0
   -0.1220    9.7060   -7.7710 C   0  0  0  0  0  0  0  0  0  0  0  0
   -2.2030    8.4620   -7.5280 C   0  0  0  0  0  0  0  0  0  0  0  0
   -1.0370    8.7650   -8.2530 C   0  0  0  0  0  0  0  0  0  0  0  0
  2  1  1  6
  2  3  1  0
  2  4  1  0
  4  5  2  3
  4  6  1  0
  5  7  1  0
  7  8  1  0
  9  7  1  6
  8 10  2  0
  9 11  2  0
  9 12  1  0
  8 13  1  0
 12 13  2  0
 12 14  1  0
 13 15  1  0
 14 16  2  0
 15 17  2  0
 16 17  1  0
M  END
