diamond-x1018_0_A-mac-x0115
     RDKit          3D

 23 25  0  0  0  0  0  0  0  0999 V2000
   -7.9680   14.2010    0.5990 Cl  0  0  0  0  0  0  0  0  0  0  0  0
   -6.3350   14.7950    0.2010 C   0  0  1  0  0  0  0  0  0  0  0  0
   -5.3860   14.7190    1.3470 C   0  0  0  0  0  0  0  0  0  0  0  0
   -5.7880   14.1480   -0.9590 N   0  0  0  0  0  0  0  0  0  0  0  0
   -4.5390   14.7510   -1.3670 N   0  0  0  0  0  0  0  0  0  0  0  0
   -4.0790   14.9330    1.1210 C   0  0  0  0  0  0  0  0  0  0  0  0
   -3.7800   13.9460   -2.2390 N   0  0  0  0  0  0  0  0  0  0  0  0
   -3.5930   15.2630   -0.2960 C   0  0  1  0  0  0  0  0  0  0  0  0
   -2.2070   14.6920   -0.7870 C   0  0  2  0  0  0  0  0  0  0  0  0
   -2.6660   13.4510   -1.4480 N   0  0  0  0  0  0  0  0  0  0  0  0
   -1.0920   14.5330    0.2990 C   0  0  0  0  0  0  0  0  0  0  0  0
   -1.4830   15.4810   -1.8980 C   0  0  0  0  0  0  0  0  0  0  0  0
   -1.3040   14.6220    1.5260 O   0  0  0  0  0  0  0  0  0  0  0  0
   -0.2590   14.7960   -2.3880 N   0  0  0  0  0  0  0  0  0  0  0  0
    0.2180   14.3050   -0.1710 N   0  0  0  0  0  0  0  0  0  0  0  0
   -0.1040   14.5480   -3.8440 C   0  0  0  0  0  0  0  0  0  0  0  0
    0.6920   14.4200   -1.4640 C   0  0  0  0  0  0  0  0  0  0  0  0
    0.4290   15.7650   -4.6140 C   0  0  0  0  0  0  0  0  0  0  0  0
    2.3110   14.1020   -1.7730 S   0  0  0  0  0  0  0  0  0  0  0  0
   -0.6490   16.3700   -5.3340 O   0  0  0  0  0  0  0  0  0  0  0  0
   -0.4250   17.6890   -5.8440 C   0  0  0  0  0  0  0  0  0  0  0  0
   -1.4150   18.6350   -5.2000 C   0  0  0  0  0  0  0  0  0  0  0  0
    1.0080   18.0850   -5.5390 C   0  0  0  0  0  0  0  0  0  0  0  0
  2  1  1  1
  2  3  1  0
  2  4  1  0
  4  5  1  0
  3  6  2  0
  5  7  1  0
  5  8  1  0
  8  6  1  1
  8  9  1  0
  7 10  1  0
  9 10  1  0
  9 11  1  0
  9 12  1  6
 11 13  2  0
 12 14  1  0
 11 15  1  0
 14 16  1  0
 14 17  1  0
 15 17  1  0
 16 18  1  0
 17 19  2  0
 18 20  1  0
 20 21  1  0
 21 22  1  0
 21 23  1  0
M  END
