diamond-x0626_0_A-mac-x0116
     RDKit          3D

 20 22  0  0  0  0  0  0  0  0999 V2000
   -4.9470   14.7770    1.3430 N   0  0  0  0  0  0  0  0  0  0  0  0
   -6.2000   14.2210    0.8440 C   0  0  2  0  0  0  0  0  0  0  0  0
   -6.0660   14.2190   -0.5780 O   0  0  0  0  0  0  0  0  0  0  0  0
   -3.7620   14.9050    0.6360 C   0  0  0  0  0  0  0  0  0  0  0  0
   -7.5410   14.9020    1.1510 C   0  0  0  0  0  0  0  0  0  0  0  0
   -2.6560   14.5580    1.2530 N   0  0  0  0  0  0  0  0  0  0  0  0
   -3.8600   15.5040   -0.9990 S   0  0  0  0  0  0  0  0  0  0  0  0
   -6.5410   12.8540    1.2490 C   0  0  0  0  0  0  0  0  0  0  0  0
   -8.7320   13.9580    1.1840 C   0  0  0  0  0  0  0  0  0  0  0  0
   -2.2200   15.5050   -1.4520 C   0  0  0  0  0  0  0  0  0  0  0  0
   -1.4090   14.6330    0.6670 C   0  0  0  0  0  0  0  0  0  0  0  0
   -6.7010   11.9500    0.2590 O   0  0  0  0  0  0  0  0  0  0  0  0
   -6.7660   12.2960    2.4790 C   0  0  0  0  0  0  0  0  0  0  0  0
   -0.2630   14.1730    1.5070 C   0  0  0  0  0  0  0  0  0  0  0  0
   -7.1050   10.9640    2.2290 C   0  0  0  0  0  0  0  0  0  0  0  0
   -7.0470   10.8040    0.8650 C   0  0  0  0  0  0  0  0  0  0  0  0
   -1.7490   15.8680   -2.6250 N   0  0  0  0  0  0  0  0  0  0  0  0
   -1.1700   15.0680   -0.5540 C   0  0  0  0  0  0  0  0  0  0  0  0
    0.0260   15.2330   -1.3220 C   0  0  0  0  0  0  0  0  0  0  0  0
   -0.3790   15.7010   -2.5090 C   0  0  0  0  0  0  0  0  0  0  0  0
  1  2  1  0
  2  3  1  6
  1  4  1  0
  2  5  1  0
  4  6  2  0
  4  7  1  0
  2  8  1  0
  5  9  1  0
  7 10  1  0
  6 11  1  0
  8 12  1  0
  8 13  2  0
 11 14  1  0
 13 15  1  0
 12 16  1  0
 15 16  2  0
 10 17  2  0
 10 18  1  0
 11 18  2  0
 18 19  1  0
 17 20  1  0
 19 20  2  0
M  END
