diamond-x0685_0_A-mac-x0379
     RDKit          3D

 19 20  0  0  0  0  0  0  0  0999 V2000
   -6.0480   14.8840    2.7670 N   0  0  0  0  0  0  0  0  0  0  0  0
   -7.5020   14.8150    2.7260 C   0  0  0  0  0  0  0  0  0  0  0  0
   -7.9940   13.4070    3.0230 C   0  0  0  0  0  0  0  0  0  0  0  0
   -5.3180   14.5870    1.6340 C   0  0  0  0  0  0  0  0  0  0  0  0
   -3.9840   14.9400    1.4530 C   0  0  0  0  0  0  0  0  0  0  0  0
   -6.0060   13.9220    0.7150 N   0  0  0  0  0  0  0  0  0  0  0  0
   -3.3350   14.6040    0.2640 C   0  0  0  0  0  0  0  0  0  0  0  0
   -5.3690   13.6090   -0.4150 C   0  0  0  0  0  0  0  0  0  0  0  0
   -4.0460   13.9140   -0.7240 C   0  0  0  0  0  0  0  0  0  0  0  0
   -3.5600   13.4740   -2.0990 C   0  0  1  0  0  0  0  0  0  0  0  0
   -4.8450   13.5140   -2.7880 N   0  0  0  0  0  0  0  0  0  0  0  0
   -2.7960   14.5140   -2.9210 C   0  0  2  0  0  0  0  0  0  0  0  0
   -3.1080   12.1060   -2.1760 N   0  0  0  0  0  0  0  0  0  0  0  0
   -1.2820   14.6680   -2.8140 C   0  0  0  0  0  0  0  0  0  0  0  0
   -5.2380   14.9300   -2.6030 C   0  0  2  0  0  0  0  0  0  0  0  0
   -3.7300   15.8010   -2.1210 S   0  0  0  0  0  0  0  0  0  0  0  0
   -6.3310   15.2140   -1.5690 C   0  0  0  0  0  0  0  0  0  0  0  0
   -0.5370   14.6900   -3.7850 O   0  0  0  0  0  0  0  0  0  0  0  0
   -0.7500   14.7920   -1.5820 O   0  0  0  0  0  0  0  0  0  0  0  0
  1  2  1  0
  2  3  1  0
  1  4  1  0
  4  5  2  0
  4  6  1  0
  5  7  1  0
  6  8  2  0
  7  9  2  0
  8  9  1  0
  9 10  1  0
 10 11  1  0
 10 12  1  0
 10 13  1  1
 12 14  1  1
 11 15  1  0
 12 16  1  0
 15 16  1  0
 15 17  1  1
 14 18  2  0
 14 19  1  0
M  END
