diamond-x0933_0_A-mac-x0188
     RDKit          3D

 15 16  0  0  0  0  0  0  0  0999 V2000
   -5.4240   14.7580    1.2260 N   0  0  0  0  0  0  0  0  0  0  0  0
   -4.5060   13.9430    0.5030 C   0  0  2  0  0  0  0  0  0  0  0  0
   -3.2290   14.5620    0.6150 N   0  0  0  0  0  0  0  0  0  0  0  0
   -4.8860   13.9470   -0.8680 N   0  0  0  0  0  0  0  0  0  0  0  0
   -3.8790   13.3110   -1.7530 C   0  0  0  0  0  0  0  0  0  0  0  0
   -2.6320   15.0450   -0.6800 C   0  0  0  0  0  0  0  0  0  0  0  0
   -2.6010   14.1510   -1.9960 C   0  0  2  0  0  0  0  0  0  0  0  0
   -2.8310   14.9010   -3.2930 N   0  0  0  0  0  0  0  0  0  0  0  0
   -1.2100   13.4810   -2.4130 C   0  0  2  0  0  0  0  0  0  0  0  0
   -0.0070   13.6870   -1.5580 C   0  0  0  0  0  0  0  0  0  0  0  0
   -0.8440   13.9860   -3.8090 C   0  0  2  0  0  0  0  0  0  0  0  0
   -2.1190   14.1780   -4.3750 O   0  0  0  0  0  0  0  0  0  0  0  0
    0.0570   13.0720   -4.6520 C   0  0  0  0  0  0  0  0  0  0  0  0
    0.5480   14.7590   -1.3550 O   0  0  0  0  0  0  0  0  0  0  0  0
    0.4750   12.5580   -1.0370 O   0  0  0  0  0  0  0  0  0  0  0  0
  2  1  1  1
  2  3  1  0
  2  4  1  0
  4  5  1  0
  3  6  1  0
  7  5  1  1
  6  7  1  0
  7  8  1  0
  7  9  1  0
  9 10  1  1
  9 11  1  0
  8 12  1  0
 11 12  1  0
 11 13  1  6
 10 14  2  0
 10 15  1  0
M  END
