diamond-x0438_0_A-diamond-x0592_0_A
     RDKit          3D

 18 19  0  0  0  0  0  0  0  0999 V2000
   -8.0840   15.6780    3.9550 C   0  0  0  0  0  0  0  0  0  0  0  0
   -9.0240   15.2920    2.4870 S   0  0  0  0  0  0  0  0  0  0  0  0
  -10.2440   14.6490    2.9650 O   0  0  0  0  0  0  0  0  0  0  0  0
   -8.0550   14.0530    1.5990 C   0  0  2  0  0  0  0  0  0  0  0  0
   -9.1890   16.4670    1.6680 O   0  0  0  0  0  0  0  0  0  0  0  0
   -7.8480   12.8220    2.4050 C   0  0  0  0  0  0  0  0  0  0  0  0
   -6.8580   14.4160    0.7140 C   0  0  0  0  0  0  0  0  0  0  0  0
   -7.1340   14.6970   -0.5620 N   0  0  0  0  0  0  0  0  0  0  0  0
   -5.4150   14.5200    0.8500 N   0  0  0  0  0  0  0  0  0  0  0  0
   -4.2490   14.4420    1.6000 C   0  0  0  0  0  0  0  0  0  0  0  0
   -4.9200   14.8290   -0.3070 C   0  0  0  0  0  0  0  0  0  0  0  0
   -5.9350   14.9350   -1.1730 C   0  0  0  0  0  0  0  0  0  0  0  0
   -4.0500   15.3690    2.5320 N   0  0  0  0  0  0  0  0  0  0  0  0
   -3.4010   13.6180    1.2740 O   0  0  0  0  0  0  0  0  0  0  0  0
   -5.5990   15.2480   -2.4780 C   0  0  0  0  0  0  0  0  0  0  0  0
   -3.5710   15.0010   -0.5760 C   0  0  0  0  0  0  0  0  0  0  0  0
   -4.2390   15.4230   -2.8040 C   0  0  0  0  0  0  0  0  0  0  0  0
   -3.2450   15.2980   -1.8580 C   0  0  0  0  0  0  0  0  0  0  0  0
  2  1  1  0
  2  3  2  0
  2  4  1  0
  2  5  2  0
  4  6  1  1
  4  7  1  0
  7  8  2  0
  7  9  1  0
  9 10  1  0
  9 11  1  0
  8 12  1  0
 11 12  2  0
 10 13  1  0
 10 14  2  0
 12 15  1  0
 11 16  1  0
 15 17  2  0
 16 18  2  0
 17 18  1  0
M  END
