diamond-x0950_1_A-mac-x0303
     RDKit          3D

 22 23  0  0  0  0  0  0  0  0999 V2000
    1.0850   14.0070   -4.7050 C   0  0  0  0  0  0  0  0  0  0  0  0
    1.3380   12.5580   -4.3280 C   0  0  2  0  0  0  0  0  0  0  0  0
    0.7130   11.7440   -5.3280 O   0  0  0  0  0  0  0  0  0  0  0  0
    0.8350   12.1610   -2.9270 C   0  0  0  0  0  0  0  0  0  0  0  0
    0.0900   11.1980   -2.7450 O   0  0  0  0  0  0  0  0  0  0  0  0
    1.3220   12.9530   -1.9290 O   0  0  0  0  0  0  0  0  0  0  0  0
    0.6760   14.2250   -1.6720 C   0  0  0  0  0  0  0  0  0  0  0  0
   -0.7310   14.1250   -1.0600 C   0  0  0  0  0  0  0  0  0  0  0  0
   -1.5310   15.4500   -1.0880 C   0  0  0  0  0  0  0  0  0  0  0  0
   -3.0430   15.3160   -0.9840 C   0  0  0  0  0  0  0  0  0  0  0  0
   -3.8610   15.4150   -2.1270 C   0  0  0  0  0  0  0  0  0  0  0  0
   -3.6470   15.0890    0.2660 C   0  0  0  0  0  0  0  0  0  0  0  0
   -5.0460   14.9640    0.3390 C   0  0  0  0  0  0  0  0  0  0  0  0
   -5.2610   15.2890   -2.0640 C   0  0  0  0  0  0  0  0  0  0  0  0
   -5.8160   15.0640   -0.8090 C   0  0  0  0  0  0  0  0  0  0  0  0
   -5.8400   14.7450    1.4310 N   0  0  0  0  0  0  0  0  0  0  0  0
   -7.0800   14.7080    0.9820 C   0  0  0  0  0  0  0  0  0  0  0  0
   -7.1130   14.8960   -0.3780 N   0  0  0  0  0  0  0  0  0  0  0  0
   -8.5120   14.4650    1.9920 S   0  0  0  0  0  0  0  0  0  0  0  0
   -8.4000   12.9050    2.6100 N   0  0  0  0  0  0  0  0  0  0  0  0
   -8.3520   15.4010    3.0790 O   0  0  0  0  0  0  0  0  0  0  0  0
   -9.6410   14.5200    1.0970 O   0  0  0  0  0  0  0  0  0  0  0  0
  2  1  1  6
  2  3  1  0
  2  4  1  0
  4  5  2  0
  4  6  1  0
  6  7  1  0
  7  8  1  0
  8  9  1  0
  9 10  1  0
 10 11  2  0
 10 12  1  0
 12 13  2  0
 11 14  1  0
 13 15  1  0
 14 15  2  0
 13 16  1  0
 16 17  2  0
 15 18  1  0
 17 18  1  0
 17 19  1  0
 19 20  1  0
 19 21  2  0
 19 22  2  0
M  END
