diamond-x0380_0_B-diamond-x0417_0_B
     RDKit          3D

 17 19  0  0  0  0  0  0  0  0999 V2000
   -4.8590   30.7210  -15.1010 N   0  0  0  0  0  0  0  0  0  0  0  0
   -3.4530   31.1250  -14.9670 C   0  0  0  0  0  0  0  0  0  0  0  0
   -2.5040   30.0830  -15.6010 C   0  0  1  0  0  0  0  0  0  0  0  0
   -5.2280   29.4870  -14.3590 C   0  0  1  0  0  0  0  0  0  0  0  0
   -5.3340   29.8020  -12.7950 C   0  0  2  0  0  0  0  0  0  0  0  0
   -6.5890   28.9980  -14.9700 C   0  0  0  0  0  0  0  0  0  0  0  0
   -4.0930   28.4260  -14.6530 C   0  0  0  0  0  0  0  0  0  0  0  0
   -4.3030   29.0280  -11.9810 C   0  0  0  0  0  0  0  0  0  0  0  0
   -1.6280   30.4770  -16.7740 N   0  0  0  0  0  0  0  0  0  0  0  0
   -1.2110   29.7990  -14.8140 C   0  0  0  0  0  0  0  0  0  0  0  0
   -6.7550   29.6440  -12.1440 C   0  0  2  0  0  0  0  0  0  0  0  0
   -7.8410   29.5460  -14.3530 C   0  0  0  0  0  0  0  0  0  0  0  0
   -3.2730   28.7870  -15.9010 C   0  0  0  0  0  0  0  0  0  0  0  0
   -6.9610   28.1270  -11.2290 Cl  0  0  0  0  0  0  0  0  0  0  0  0
   -1.9450   31.7300  -17.4600 C   0  0  0  0  0  0  0  0  0  0  0  0
   -7.9160   29.8380  -13.0610 C   0  0  0  0  0  0  0  0  0  0  0  0
   -0.5130   30.7190  -15.8180 C   0  0  0  0  0  0  0  0  0  0  0  0
  1  2  1  0
  3  2  1  1
  4  1  1  0
  4  5  1  0
  4  6  1  6
  4  7  1  0
  5  8  1  1
  3  9  1  0
  3 10  1  0
  5 11  1  0
  6 12  1  0
  3 13  1  0
  7 13  1  0
 11 14  1  6
  9 15  1  0
 11 16  1  0
 12 16  2  0
  9 17  1  0
 10 17  1  0
M  END
