diamond-x0711_0_A-diamond-x0895_1_A
     RDKit          3D

 15 15  0  0  0  0  0  0  0  0999 V2000
   -1.6070   14.9920   -2.4370 N   0  0  0  0  0  0  0  0  0  0  0  0
   -0.4690   13.9540   -3.1090 S   0  0  0  0  0  0  0  0  0  0  0  0
   -1.5010   12.8650   -4.0670 C   0  0  0  0  0  0  0  0  0  0  0  0
   -2.7730   14.4150   -1.7560 C   0  0  2  0  0  0  0  0  0  0  0  0
    0.2890   14.7580   -4.0380 O   0  0  0  0  0  0  0  0  0  0  0  0
    0.1580   13.1970   -2.0510 O   0  0  0  0  0  0  0  0  0  0  0  0
   -3.9760   15.1370   -2.2910 C   0  0  0  0  0  0  0  0  0  0  0  0
   -2.6980   14.6620   -0.2230 C   0  0  0  0  0  0  0  0  0  0  0  0
   -1.6300   14.8200    0.3850 O   0  0  0  0  0  0  0  0  0  0  0  0
   -5.1260   15.1080   -1.6240 C   0  0  0  0  0  0  0  0  0  0  0  0
   -3.9970   14.7040    0.5630 C   0  0  0  0  0  0  0  0  0  0  0  0
   -5.1890   14.3410   -0.3270 C   0  0  1  0  0  0  0  0  0  0  0  0
   -6.5250   14.6010    0.3720 C   0  0  0  0  0  0  0  0  0  0  0  0
   -6.4990   14.6770    1.7430 N   0  0  0  0  0  0  0  0  0  0  0  0
   -7.5880   14.7380   -0.2200 O   0  0  0  0  0  0  0  0  0  0  0  0
  2  1  1  0
  2  3  1  0
  4  1  1  6
  2  5  2  0
  2  6  2  0
  4  7  1  0
  4  8  1  0
  8  9  2  0
  7 10  2  0
  8 11  1  0
 10 12  1  0
 11 12  1  0
 12 13  1  1
 13 14  1  0
 13 15  2  0
M  END
