diamond-x0104_0_A-mac-x0411
     RDKit          3D

 32 34  0  0  0  0  0  0  0  0999 V2000
   -6.8030   14.6400    2.6690 N   0  0  0  0  0  0  0  0  0  0  0  0
   -8.0450   15.0750    3.1220 C   0  0  0  0  0  0  0  0  0  0  0  0
   -8.0730   15.1060    4.5150 N   0  0  0  0  0  0  0  0  0  0  0  0
   -6.2460   14.7410    1.3760 C   0  0  0  0  0  0  0  0  0  0  0  0
   -8.9690   15.3790    2.3840 O   0  0  0  0  0  0  0  0  0  0  0  0
   -4.8840   14.8970    1.1130 C   0  0  0  0  0  0  0  0  0  0  0  0
   -7.1060   14.6850    0.2820 C   0  0  0  0  0  0  0  0  0  0  0  0
   -4.3550   14.9970   -0.1360 N   0  0  0  0  0  0  0  0  0  0  0  0
   -6.5880   14.7890   -1.0090 C   0  0  0  0  0  0  0  0  0  0  0  0
   -9.2120   15.0880    5.3020 C   0  0  0  0  0  0  0  0  0  0  0  0
   -5.2220   14.9420   -1.1620 C   0  0  0  0  0  0  0  0  0  0  0  0
   -9.2470   15.2030    6.6790 C   0  0  0  0  0  0  0  0  0  0  0  0
  -10.7710   14.9140    4.6470 S   0  0  0  0  0  0  0  0  0  0  0  0
   -4.7720   15.0370   -2.4590 O   0  0  0  0  0  0  0  0  0  0  0  0
  -11.5100   14.9900    6.1870 C   0  0  0  0  0  0  0  0  0  0  0  0
  -10.5800   15.1460    7.1920 C   0  0  0  0  0  0  0  0  0  0  0  0
   -3.3720   14.8150   -2.6230 C   0  0  0  0  0  0  0  0  0  0  0  0
   -2.9900   14.7860   -4.1050 C   0  0  0  0  0  0  0  0  0  0  0  0
   -3.0150   13.3660   -4.6920 C   0  0  0  0  0  0  0  0  0  0  0  0
   -1.6480   12.6600   -4.7050 C   0  0  0  0  0  0  0  0  0  0  0  0
   -1.6290   11.3280   -5.4310 C   0  0  0  0  0  0  0  0  0  0  0  0
   -0.5160   10.8270   -6.1530 C   0  0  0  0  0  0  0  0  0  0  0  0
   -2.7980   10.5450   -5.3840 C   0  0  0  0  0  0  0  0  0  0  0  0
    0.6760   11.5260   -6.2490 O   0  0  0  0  0  0  0  0  0  0  0  0
   -2.8770    9.3100   -6.0260 C   0  0  0  0  0  0  0  0  0  0  0  0
   -0.6180    9.5760   -6.8050 C   0  0  0  0  0  0  0  0  0  0  0  0
    0.6760    8.8970   -7.7250 Cl  0  0  0  0  0  0  0  0  0  0  0  0
    0.9750   12.4750   -5.2070 C   0  0  0  0  0  0  0  0  0  0  0  0
   -1.7880    8.8290   -6.7360 C   0  0  0  0  0  0  0  0  0  0  0  0
    0.8320   11.8960   -3.8040 C   0  0  0  0  0  0  0  0  0  0  0  0
    1.2700   12.7540   -2.8550 O   0  0  0  0  0  0  0  0  0  0  0  0
    0.4010   10.8070   -3.4660 O   0  0  0  0  0  0  0  0  0  0  0  0
  1  2  1  0
  2  3  1  0
  1  4  1  0
  2  5  2  0
  4  6  2  0
  4  7  1  0
  6  8  1  0
  7  9  2  0
  3 10  1  0
  8 11  2  0
  9 11  1  0
 10 12  2  0
 10 13  1  0
 11 14  1  0
 13 15  1  0
 12 16  1  0
 15 16  2  0
 14 17  1  0
 17 18  1  0
 18 19  1  0
 19 20  1  0
 20 21  1  0
 21 22  2  0
 21 23  1  0
 22 24  1  0
 23 25  2  0
 22 26  1  0
 26 27  1  0
 24 28  1  0
 25 29  1  0
 26 29  2  0
 28 30  1  0
 30 31  1  0
 30 32  2  0
M  END
