diamond-x1012_0_A-mac-x0572
     RDKit          3D

 27 29  0  0  0  0  0  0  0  0999 V2000
   -0.6230   18.0860   -5.1940 N   0  0  0  0  0  0  0  0  0  0  0  0
   -1.2850   17.0160   -4.6870 C   0  0  0  0  0  0  0  0  0  0  0  0
   -2.4380   17.0330   -4.1700 N   0  0  0  0  0  0  0  0  0  0  0  0
   -0.5870   15.8250   -4.7770 N   0  0  0  0  0  0  0  0  0  0  0  0
   -2.9900   15.7900   -3.6320 C   0  0  0  0  0  0  0  0  0  0  0  0
   -1.2350   14.5480   -5.1260 C   0  0  0  0  0  0  0  0  0  0  0  0
    0.8440   15.7170   -4.4330 C   0  0  0  0  0  0  0  0  0  0  0  0
   -2.3220   15.4180   -2.2970 C   0  0  0  0  0  0  0  0  0  0  0  0
   -1.0890   13.5600   -3.9790 C   0  0  0  0  0  0  0  0  0  0  0  0
    1.1150   14.6730   -3.3360 C   0  0  0  0  0  0  0  0  0  0  0  0
    0.3800   13.3420   -3.6040 C   0  0  0  0  0  0  0  0  0  0  0  0
   -3.3040   15.4340   -1.1670 C   0  0  0  0  0  0  0  0  0  0  0  0
    0.4130   12.3990   -2.4160 C   0  0  0  0  0  0  0  0  0  0  0  0
   -2.8200   15.5320    0.2010 C   0  0  0  0  0  0  0  0  0  0  0  0
   -4.6170   15.3580   -1.4300 C   0  0  0  0  0  0  0  0  0  0  0  0
    0.1460   11.1190   -2.7580 O   0  0  0  0  0  0  0  0  0  0  0  0
    0.6360   12.7240   -1.2590 O   0  0  0  0  0  0  0  0  0  0  0  0
   -5.6410   15.4180   -0.3650 C   0  0  1  0  0  0  0  0  0  0  0  0
   -3.6290   15.4090    1.2570 C   0  0  0  0  0  0  0  0  0  0  0  0
   -6.9410   14.6730   -0.5550 C   0  0  0  0  0  0  0  0  0  0  0  0
   -5.0760   15.1840    1.0230 C   0  0  0  0  0  0  0  0  0  0  0  0
   -7.3470   14.2130   -1.6250 O   0  0  0  0  0  0  0  0  0  0  0  0
   -7.7810   14.5160    0.6730 C   0  0  0  0  0  0  0  0  0  0  0  0
   -5.8080   14.8080    2.0250 N   0  0  0  0  0  0  0  0  0  0  0  0
   -9.1400   14.3060    0.5310 O   0  0  0  0  0  0  0  0  0  0  0  0
   -7.1590   14.5970    1.8650 C   0  0  0  0  0  0  0  0  0  0  0  0
   -7.9080   14.4660    3.1710 C   0  0  0  0  0  0  0  0  0  0  0  0
  1  2  1  0
  2  3  2  3
  2  4  1  0
  3  5  1  0
  4  6  1  0
  4  7  1  0
  5  8  1  0
  6  9  1  0
  7 10  1  0
  9 11  1  0
 10 11  1  0
  8 12  1  0
 11 13  1  0
 12 14  1  0
 12 15  2  0
 13 16  1  0
 13 17  2  0
 18 15  1  6
 14 19  2  0
 18 20  1  0
 18 21  1  0
 19 21  1  0
 20 22  2  0
 20 23  1  0
 21 24  2  0
 23 25  1  0
 23 26  2  0
 24 26  1  0
 26 27  1  0
M  END
