diamond-x1012_0_A-diamond-x0950_1_A
     RDKit          3D

 15 15  0  0  0  0  0  0  0  0999 V2000
   -0.6000   18.3100   -4.7540 N   0  0  0  0  0  0  0  0  0  0  0  0
   -1.3790   17.2110   -4.8110 C   0  0  0  0  0  0  0  0  0  0  0  0
   -2.5770   17.3390   -4.7000 O   0  0  0  0  0  0  0  0  0  0  0  0
   -0.7410   16.0040   -4.9550 N   0  0  0  0  0  0  0  0  0  0  0  0
   -1.5770   14.8000   -4.9130 C   0  0  0  0  0  0  0  0  0  0  0  0
    0.6500   15.8280   -4.5960 C   0  0  0  0  0  0  0  0  0  0  0  0
   -1.5200   14.0230   -3.5940 C   0  0  0  0  0  0  0  0  0  0  0  0
    0.7790   15.1770   -3.2160 C   0  0  0  0  0  0  0  0  0  0  0  0
   -0.1450   13.9550   -2.8960 C   0  0  0  0  0  0  0  0  0  0  0  0
    0.6490   12.6180   -2.9670 C   0  0  0  0  0  0  0  0  0  0  0  0
   -0.2010   11.5250   -2.6290 O   0  0  0  0  0  0  0  0  0  0  0  0
    1.6690   12.5930   -1.9940 O   0  0  0  0  0  0  0  0  0  0  0  0
    1.3040   12.3930   -4.3600 C   0  0  2  0  0  0  0  0  0  0  0  0
    1.3960   13.6120   -5.2450 C   0  0  0  0  0  0  0  0  0  0  0  0
    0.5580   11.4350   -5.1180 O   0  0  0  0  0  0  0  0  0  0  0  0
  1  2  1  0
  2  3  2  0
  2  4  1  0
  4  5  1  0
  4  6  1  0
  5  7  1  0
  6  8  1  0
  7  9  1  0
  8  9  1  0
  9 10  1  0
 10 11  1  0
 10 12  1  0
 10 13  1  0
 13 14  1  6
 13 15  1  0
M  END
