diamond-x1012_0_A-mac-x0417
     RDKit          3D

 23 25  0  0  0  0  0  0  0  0999 V2000
   -0.3080   18.1400   -4.7540 N   0  0  0  0  0  0  0  0  0  0  0  0
   -1.2810   17.2070   -4.8210 C   0  0  0  0  0  0  0  0  0  0  0  0
   -2.4400   17.5700   -4.7610 O   0  0  0  0  0  0  0  0  0  0  0  0
   -0.8800   15.9030   -4.9350 N   0  0  0  0  0  0  0  0  0  0  0  0
   -1.8420   14.8460   -4.6580 C   0  0  0  0  0  0  0  0  0  0  0  0
    0.5020   15.4890   -5.0930 C   0  0  0  0  0  0  0  0  0  0  0  0
   -1.3180   13.8100   -3.6580 C   0  0  0  0  0  0  0  0  0  0  0  0
    1.0730   14.8870   -3.8270 C   0  0  0  0  0  0  0  0  0  0  0  0
    0.0210   14.1830   -2.9490 C   0  0  0  0  0  0  0  0  0  0  0  0
    0.6620   13.0020   -2.2220 C   0  0  0  0  0  0  0  0  0  0  0  0
    0.1390   11.7550   -2.3960 N   0  0  0  0  0  0  0  0  0  0  0  0
    1.6250   13.2070   -1.5220 O   0  0  0  0  0  0  0  0  0  0  0  0
    0.1340   11.3890   -3.6190 C   0  0  0  0  0  0  0  0  0  0  0  0
    0.6460   12.2630   -4.7340 C   0  0  0  0  0  0  0  0  0  0  0  0
    0.4230   11.4700   -5.9420 C   0  0  0  0  0  0  0  0  0  0  0  0
    1.2960   11.4760   -6.9450 N   0  0  0  0  0  0  0  0  0  0  0  0
   -0.6740   10.6200   -6.1920 C   0  0  0  0  0  0  0  0  0  0  0  0
    0.7700   10.6120   -7.8920 O   0  0  0  0  0  0  0  0  0  0  0  0
   -0.4010   10.1000   -7.4360 C   0  0  0  0  0  0  0  0  0  0  0  0
   -1.8430   10.2320   -5.5200 C   0  0  0  0  0  0  0  0  0  0  0  0
   -1.2240    9.1890   -8.0920 C   0  0  0  0  0  0  0  0  0  0  0  0
   -2.6950    9.3170   -6.1500 C   0  0  0  0  0  0  0  0  0  0  0  0
   -2.3890    8.8050   -7.4130 C   0  0  0  0  0  0  0  0  0  0  0  0
  1  2  1  0
  2  3  2  0
  2  4  1  0
  4  5  1  0
  4  6  1  0
  5  7  1  0
  6  8  1  0
  7  9  1  0
  8  9  1  0
  9 10  1  0
 10 11  1  0
 10 12  2  0
 11 13  2  3
 13 14  1  0
 14 15  1  0
 15 16  2  0
 15 17  1  0
 16 18  1  0
 17 19  2  0
 18 19  1  0
 17 20  1  0
 19 21  1  0
 20 22  2  0
 21 23  2  0
 22 23  1  0
M  END
