diamond-x0962_0_A-mac-x0213
     RDKit          3D

 22 24  0  0  0  0  0  0  0  0999 V2000
   -2.8220   15.1690   -2.2650 N   0  0  0  0  0  0  0  0  0  0  0  0
   -2.7370   14.3420   -1.0770 C   0  0  1  0  0  0  0  0  0  0  0  0
   -1.3960   14.4940   -0.3370 C   0  0  0  0  0  0  0  0  0  0  0  0
   -3.8430   14.6740   -0.1690 C   0  0  0  0  0  0  0  0  0  0  0  0
   -0.2170   14.8370   -1.2450 C   0  0  0  0  0  0  0  0  0  0  0  0
   -3.6010   15.1640    1.0790 N   0  0  0  0  0  0  0  0  0  0  0  0
   -5.2100   14.6030   -0.2690 C   0  0  0  0  0  0  0  0  0  0  0  0
    0.6920   13.6300   -1.3700 C   0  0  0  0  0  0  0  0  0  0  0  0
   -4.8000   15.3590    1.6770 C   0  0  0  0  0  0  0  0  0  0  0  0
   -5.7950   15.0250    0.8860 N   0  0  0  0  0  0  0  0  0  0  0  0
    0.6360   12.8800   -2.7120 C   0  0  0  0  0  0  0  0  0  0  0  0
   -0.2170   11.7560   -2.5550 O   0  0  0  0  0  0  0  0  0  0  0  0
    1.9220   12.3450   -2.8540 O   0  0  0  0  0  0  0  0  0  0  0  0
    0.3460   13.7610   -3.9670 C   0  0  0  0  0  0  0  0  0  0  0  0
   -1.1560   14.1290   -4.1620 C   0  0  0  0  0  0  0  0  0  0  0  0
    1.1320   15.0960   -3.9630 C   0  0  0  0  0  0  0  0  0  0  0  0
   -1.1140   15.5450   -4.6580 C   0  0  0  0  0  0  0  0  0  0  0  0
    0.1710   16.0820   -4.5480 C   0  0  0  0  0  0  0  0  0  0  0  0
   -2.1600   16.3000   -5.1790 C   0  0  0  0  0  0  0  0  0  0  0  0
    0.4390   17.3790   -4.9530 C   0  0  0  0  0  0  0  0  0  0  0  0
   -1.8910   17.6080   -5.5920 C   0  0  0  0  0  0  0  0  0  0  0  0
   -0.6030   18.1400   -5.4790 C   0  0  0  0  0  0  0  0  0  0  0  0
  2  1  1  6
  2  3  1  0
  2  4  1  0
  3  5  1  0
  4  6  1  0
  4  7  2  0
  5  8  1  0
  6  9  1  0
  7 10  1  0
  9 10  2  0
  8 11  1  0
 11 12  1  0
 11 13  1  0
 11 14  1  0
 14 15  1  0
 14 16  1  0
 15 17  1  0
 16 18  1  0
 17 18  2  0
 17 19  1  0
 18 20  1  0
 19 21  2  0
 20 22  2  0
 21 22  1  0
M  END
