diamond-x0626_0_A-mac-x0527
     RDKit          3D

 21 22  0  0  0  0  0  0  0  0999 V2000
   -5.0130   14.9140    1.5820 N   0  0  0  0  0  0  0  0  0  0  0  0
   -6.2170   14.7130    0.9660 C   0  0  0  0  0  0  0  0  0  0  0  0
   -6.2930   14.8330   -0.2640 O   0  0  0  0  0  0  0  0  0  0  0  0
   -3.8270   14.8410    0.9460 C   0  0  0  0  0  0  0  0  0  0  0  0
   -7.4330   14.3580    1.7850 C   0  0  0  0  0  0  0  0  0  0  0  0
   -2.5910   14.6860    1.3810 N   0  0  0  0  0  0  0  0  0  0  0  0
   -4.0790   14.9710   -0.7040 S   0  0  0  0  0  0  0  0  0  0  0  0
   -8.7200   14.5870    1.0110 C   0  0  0  0  0  0  0  0  0  0  0  0
   -2.4210   14.8050   -0.9610 C   0  0  0  0  0  0  0  0  0  0  0  0
   -1.7400   14.6640    0.2770 C   0  0  0  0  0  0  0  0  0  0  0  0
   -0.2880   14.4960    0.5940 C   0  0  0  0  0  0  0  0  0  0  0  0
   -2.1380   14.8560   -2.3740 C   0  0  0  0  0  0  0  0  0  0  0  0
   -3.0130   15.0850   -3.2230 O   0  0  0  0  0  0  0  0  0  0  0  0
   -0.8530   14.6440   -2.7450 N   0  0  0  0  0  0  0  0  0  0  0  0
   -0.5450   14.6820   -4.1460 C   0  0  0  0  0  0  0  0  0  0  0  0
   -0.6800   13.3050   -4.7320 C   0  0  0  0  0  0  0  0  0  0  0  0
   -1.6980   12.4280   -4.3210 C   0  0  0  0  0  0  0  0  0  0  0  0
    0.2300   12.8920   -5.7070 C   0  0  0  0  0  0  0  0  0  0  0  0
   -1.7920   11.1510   -4.8850 C   0  0  0  0  0  0  0  0  0  0  0  0
    0.1350   11.6210   -6.2660 C   0  0  0  0  0  0  0  0  0  0  0  0
   -0.8760   10.7520   -5.8550 C   0  0  0  0  0  0  0  0  0  0  0  0
  1  2  1  0
  2  3  2  0
  1  4  1  0
  2  5  1  0
  4  6  2  0
  4  7  1  0
  5  8  1  0
  7  9  1  0
  6 10  1  0
  9 10  2  0
 10 11  1  0
  9 12  1  0
 12 13  2  0
 12 14  1  0
 14 15  1  0
 15 16  1  0
 16 17  2  0
 16 18  1  0
 17 19  1  0
 18 20  2  0
 19 21  2  0
 20 21  1  0
M  END
