diamond-x0849_0_A-mac-x0337
     RDKit          3D

 21 23  0  0  0  0  0  0  0  0999 V2000
   -3.6220   15.4480   -1.8820 N   0  0  0  0  0  0  0  0  0  0  0  0
   -4.8630   14.7450   -1.4440 S   0  0  1  0  0  0  0  0  0  0  0  0
   -5.2160   14.7830   -0.0570 O   0  0  0  0  0  0  0  0  0  0  0  0
   -3.2740   15.3310   -0.5040 C   0  0  0  0  0  0  0  0  0  0  0  0
   -6.1200   15.6050   -2.0990 N   0  0  0  0  0  0  0  0  0  0  0  0
   -2.1060   14.7990   -0.0170 C   0  0  0  0  0  0  0  0  0  0  0  0
   -4.2850   15.7850    0.3330 C   0  0  0  0  0  0  0  0  0  0  0  0
   -4.8910   13.0280   -1.7370 C   0  0  0  0  0  0  0  0  0  0  0  0
   -2.0430   14.7330    1.3550 C   0  0  0  0  0  0  0  0  0  0  0  0
   -4.0860   15.6620    1.6610 C   0  0  0  0  0  0  0  0  0  0  0  0
   -1.0190   14.3280   -0.7700 C   0  0  0  0  0  0  0  0  0  0  0  0
   -3.9390   12.3520   -2.4890 C   0  0  0  0  0  0  0  0  0  0  0  0
   -5.9610   12.3750   -1.1430 C   0  0  0  0  0  0  0  0  0  0  0  0
   -2.9740   15.1360    2.1490 N   0  0  0  0  0  0  0  0  0  0  0  0
   -1.0460   14.2530    1.9750 N   0  0  0  0  0  0  0  0  0  0  0  0
    0.0540   13.8110   -0.0910 C   0  0  0  0  0  0  0  0  0  0  0  0
   -4.0900   10.9720   -2.6530 C   0  0  0  0  0  0  0  0  0  0  0  0
   -6.1060   11.0120   -1.3070 C   0  0  0  0  0  0  0  0  0  0  0  0
   -0.0450   13.8010    1.2850 C   0  0  0  0  0  0  0  0  0  0  0  0
   -5.1780   10.3010   -2.0680 C   0  0  0  0  0  0  0  0  0  0  0  0
   -5.3380    8.8240   -2.2640 C   0  0  0  0  0  0  0  0  0  0  0  0
  1  2  2  0
  2  3  2  0
  1  4  1  0
  2  5  1  6
  4  6  1  0
  4  7  2  0
  2  8  1  0
  6  9  2  0
  7 10  1  0
  6 11  1  0
  8 12  2  0
  8 13  1  0
  9 14  1  0
 10 14  2  0
  9 15  1  0
 11 16  2  0
 12 17  1  0
 13 18  2  0
 15 19  2  0
 16 19  1  0
 17 20  2  0
 18 20  1  0
 20 21  1  0
M  END
