diamond-x0592_0_A-mac-x0590
     RDKit          3D

 28 31  0  0  0  0  0  0  0  0999 V2000
   -3.6240   14.7310    0.7350 N   0  0  0  0  0  0  0  0  0  0  0  0
   -4.2630   13.7980    0.0790 C   0  0  0  0  0  0  0  0  0  0  0  0
   -3.7560   12.8010   -0.3980 O   0  0  0  0  0  0  0  0  0  0  0  0
   -2.9290   15.2290   -0.3040 C   0  0  1  0  0  0  0  0  0  0  0  0
   -5.5880   14.1880   -0.0440 C   0  0  0  0  0  0  0  0  0  0  0  0
   -3.6790   15.8720   -1.3250 N   0  0  0  0  0  0  0  0  0  0  0  0
   -1.5910   15.6500   -0.1410 C   0  0  2  0  0  0  0  0  0  0  0  0
   -6.2620   14.6900   -1.1770 C   0  0  0  0  0  0  0  0  0  0  0  0
   -6.4840   14.1650    0.9460 C   0  0  0  0  0  0  0  0  0  0  0  0
   -3.0420   15.4640   -2.5800 C   0  0  0  0  0  0  0  0  0  0  0  0
   -1.0410   14.8630   -1.2550 C   0  0  1  0  0  0  0  0  0  0  0  0
   -0.9750   15.2040    1.0780 N   0  0  0  0  0  0  0  0  0  0  0  0
   -7.5360   14.9670   -0.8950 N   0  0  0  0  0  0  0  0  0  0  0  0
   -7.6220   14.6300    0.4120 N   0  0  0  0  0  0  0  0  0  0  0  0
   -1.5540   15.4700   -2.4980 N   0  0  0  0  0  0  0  0  0  0  0  0
    0.3320   15.0940   -0.8900 N   0  0  0  0  0  0  0  0  0  0  0  0
    0.3080   14.8840    0.5630 C   0  0  0  0  0  0  0  0  0  0  0  0
   -8.8160   14.7540    1.1880 C   0  0  0  0  0  0  0  0  0  0  0  0
   -0.9960   14.8800   -3.7190 C   0  0  0  0  0  0  0  0  0  0  0  0
   -8.4800   14.3360    2.6220 C   0  0  0  0  0  0  0  0  0  0  0  0
   -1.5840   13.5270   -4.1340 C   0  0  0  0  0  0  0  0  0  0  0  0
   -7.4480   15.1560    3.1870 O   0  0  0  0  0  0  0  0  0  0  0  0
   -0.7840   12.9480   -5.3040 C   0  0  0  0  0  0  0  0  0  0  0  0
    0.4660   12.1210   -4.9630 C   0  0  2  0  0  0  0  0  0  0  0  0
    0.7640   12.0010   -3.4690 C   0  0  0  0  0  0  0  0  0  0  0  0
    1.7340   12.7080   -5.5540 C   0  0  0  0  0  0  0  0  0  0  0  0
    2.6570   12.9740   -4.3850 C   0  0  0  0  0  0  0  0  0  0  0  0
    2.1540   12.2540   -3.2620 O   0  0  0  0  0  0  0  0  0  0  0  0
  1  2  1  0
  2  3  2  0
  4  1  1  1
  2  5  1  0
  4  6  1  0
  4  7  1  0
  5  8  1  0
  5  9  2  0
  6 10  1  0
  7 11  1  0
  7 12  1  1
  8 13  2  0
  9 14  1  0
 13 14  1  0
 10 15  1  0
 11 15  1  0
 11 16  1  6
 12 17  1  0
 16 17  1  0
 14 18  1  0
 15 19  1  0
 18 20  1  0
 19 21  1  0
 20 22  1  0
 21 23  1  0
 24 23  1  1
 24 25  1  0
 24 26  1  0
 26 27  1  0
 25 28  1  0
 27 28  1  0
M  END
