diamond-x0216_0_A-diamond-x0259_0_A
     RDKit          3D

 22 23  0  0  0  0  0  0  0  0999 V2000
   17.7790   28.5170    6.2540 N   0  0  0  0  0  0  0  0  0  0  0  0
   17.0990   29.7470    6.6240 C   0  0  0  0  0  0  0  0  0  0  0  0
   15.6220   29.5410    6.8640 C   0  0  0  0  0  0  0  0  0  0  0  0
   19.1760   28.3610    6.5520 C   0  0  2  0  0  0  0  0  0  0  0  0
   19.6230   29.6000    7.1650 N   0  0  0  0  0  0  0  0  0  0  0  0
   19.8600   28.0950    5.2860 N   0  0  0  0  0  0  0  0  0  0  0  0
   17.3060   30.7880    5.5160 C   0  0  0  0  0  0  0  0  0  0  0  0
   19.3300   27.2260    7.5890 C   0  0  0  0  0  0  0  0  0  0  0  0
   19.0630   28.1250    4.0570 C   0  0  0  0  0  0  0  0  0  0  0  0
   21.1030   27.3510    5.0740 C   0  0  1  0  0  0  0  0  0  0  0  0
   19.1140   30.0610    8.4840 C   0  0  1  0  0  0  0  0  0  0  0  0
   22.3740   27.5700    5.9240 C   0  0  2  0  0  0  0  0  0  0  0  0
   21.0100   25.8320    4.9630 C   0  0  0  0  0  0  0  0  0  0  0  0
   18.8850   31.5730    8.5370 C   0  0  0  0  0  0  0  0  0  0  0  0
   17.7080   29.5270    8.8420 C   0  0  0  0  0  0  0  0  0  0  0  0
   22.8210   29.2740    6.1630 Cl  0  0  0  0  0  0  0  0  0  0  0  0
   23.4660   26.8560    5.1300 C   0  0  0  0  0  0  0  0  0  0  0  0
   22.6390   25.4870    4.3260 S   0  0  0  0  0  0  0  0  0  0  0  0
   16.7250   30.5640    8.6560 O   0  0  0  0  0  0  0  0  0  0  0  0
   17.3870   31.8150    8.5100 C   0  0  0  0  0  0  0  0  0  0  0  0
   22.6330   25.7200    2.8980 O   0  0  0  0  0  0  0  0  0  0  0  0
   23.1340   24.2630    4.9110 O   0  0  0  0  0  0  0  0  0  0  0  0
  1  2  1  0
  2  3  1  0
  4  1  1  0
  4  5  1  0
  4  6  1  0
  2  7  1  0
  4  8  1  1
  6  9  1  0
 10  6  1  1
 11  5  1  6
 10 12  1  0
 10 13  1  0
 11 14  1  0
 11 15  1  0
 12 16  1  6
 12 17  1  0
 18 13  1  0
 17 18  1  0
 15 19  1  0
 14 20  1  0
 19 20  1  0
 18 21  2  0
 18 22  2  0
M  END
