diamond-x0895_0_A-mac-x0206
     RDKit          3D

 16 17  0  0  0  0  0  0  0  0999 V2000
   -1.0360   14.9510    1.9580 O   0  0  0  0  0  0  0  0  0  0  0  0
   -1.9140   14.6890    1.2040 C   0  0  0  0  0  0  0  0  0  0  0  0
   -3.1730   13.9770    1.4870 C   0  0  0  0  0  0  0  0  0  0  0  0
   -1.9870   14.9380   -0.1390 N   0  0  0  0  0  0  0  0  0  0  0  0
   -3.0080   13.1060    0.3240 N   0  0  0  0  0  0  0  0  0  0  0  0
   -2.9400   14.0680   -0.6690 C   0  0  1  0  0  0  0  0  0  0  0  0
   -4.1960   14.4860   -0.5040 N   0  0  0  0  0  0  0  0  0  0  0  0
   -4.9530   15.1800   -1.0280 C   0  0  0  0  0  0  0  0  0  0  0  0
   -4.7460   15.8740   -2.1360 N   0  0  0  0  0  0  0  0  0  0  0  0
   -6.1500   15.0410   -0.1760 C   0  0  0  0  0  0  0  0  0  0  0  0
   -7.4350   14.9820   -0.6600 C   0  0  0  0  0  0  0  0  0  0  0  0
   -5.9180   14.9390    1.2150 C   0  0  0  0  0  0  0  0  0  0  0  0
   -7.7170   15.0580   -1.9910 O   0  0  0  0  0  0  0  0  0  0  0  0
   -8.5030   14.8300    0.2230 C   0  0  0  0  0  0  0  0  0  0  0  0
   -6.9820   14.7850    2.0990 C   0  0  0  0  0  0  0  0  0  0  0  0
   -8.2760   14.7320    1.6000 C   0  0  0  0  0  0  0  0  0  0  0  0
  1  2  2  0
  2  3  1  0
  2  4  1  0
  3  5  1  0
  4  6  1  0
  5  6  1  0
  6  7  1  1
  7  8  2  3
  8  9  1  0
  8 10  1  0
 10 11  2  0
 10 12  1  0
 11 13  1  0
 11 14  1  0
 12 15  2  0
 14 16  2  0
 15 16  1  0
M  END
