diamond-x0685_1_A-mac-x0451
     RDKit          3D

 25 27  0  0  0  0  0  0  0  0999 V2000
   -1.4520   10.5780   -4.9620 N   0  0  0  0  0  0  0  0  0  0  0  0
   -1.4300   11.9890   -4.5250 C   0  0  0  0  0  0  0  0  0  0  0  0
   -0.0310   12.5710   -4.3420 C   0  0  0  0  0  0  0  0  0  0  0  0
   -0.7980   10.3520   -6.2630 C   0  0  0  0  0  0  0  0  0  0  0  0
   -0.6040    8.8340   -6.4670 C   0  0  0  0  0  0  0  0  0  0  0  0
   -1.5960   10.9860   -7.4230 C   0  0  0  0  0  0  0  0  0  0  0  0
    0.6410   12.1910   -2.7310 S   0  0  0  0  0  0  0  0  0  0  0  0
    0.0790    8.5470   -7.7930 C   0  0  0  0  0  0  0  0  0  0  0  0
   -0.9760   10.6680   -8.7780 C   0  0  0  0  0  0  0  0  0  0  0  0
    2.2240   12.4140   -2.8770 O   0  0  0  0  0  0  0  0  0  0  0  0
    0.2690   10.6480   -2.4140 O   0  0  0  0  0  0  0  0  0  0  0  0
   -0.0660   13.2260   -1.7160 O   0  0  0  0  0  0  0  0  0  0  0  0
   -0.7170    9.1640   -8.9470 C   0  0  0  0  0  0  0  0  0  0  0  0
   -0.2320   14.5970   -2.1090 C   0  0  0  0  0  0  0  0  0  0  0  0
   -1.5040   14.8180   -2.7500 O   0  0  0  0  0  0  0  0  0  0  0  0
   -2.6230   14.8660   -1.9540 C   0  0  0  0  0  0  0  0  0  0  0  0
   -3.8390   15.0810   -2.6170 C   0  0  0  0  0  0  0  0  0  0  0  0
   -2.5980   14.7160   -0.5750 C   0  0  0  0  0  0  0  0  0  0  0  0
   -3.8110   14.7800    0.1080 C   0  0  0  0  0  0  0  0  0  0  0  0
   -5.0500   15.1410   -1.9100 C   0  0  0  0  0  0  0  0  0  0  0  0
   -5.0360   14.9820   -0.5170 C   0  0  0  0  0  0  0  0  0  0  0  0
   -4.0630   14.6300    1.7780 S   0  0  0  0  0  0  0  0  0  0  0  0
   -5.7510   14.8290    1.5540 C   0  0  0  0  0  0  0  0  0  0  0  0
   -6.1330   15.0040    0.3210 N   0  0  0  0  0  0  0  0  0  0  0  0
   -6.6030   14.8080    2.5910 N   0  0  0  0  0  0  0  0  0  0  0  0
  1  2  1  0
  2  3  1  0
  1  4  1  0
  4  5  1  0
  4  6  1  0
  3  7  1  0
  5  8  1  0
  6  9  1  0
  7 10  1  0
  7 11  1  0
  7 12  1  0
  8 13  1  0
  9 13  1  0
 12 14  1  0
 14 15  1  0
 15 16  1  0
 16 17  2  0
 16 18  1  0
 18 19  2  0
 17 20  1  0
 19 21  1  0
 20 21  2  0
 19 22  1  0
 22 23  1  0
 21 24  1  0
 23 24  2  0
 23 25  1  0
M  END
