diamond-x0969_0_A-mac-x0303
     RDKit          3D

 13 14  0  0  0  0  0  0  0  0999 V2000
   -7.0490   14.6350    2.2340 N   0  0  0  0  0  0  0  0  0  0  0  0
   -8.4880   14.1490    2.1240 S   0  0  0  0  0  0  0  0  0  0  0  0
   -8.5160   13.0000    3.3430 N   0  0  0  0  0  0  0  0  0  0  0  0
   -6.5720   14.7540    0.8770 C   0  0  0  0  0  0  0  0  0  0  0  0
   -9.6950   14.9110    2.3210 O   0  0  0  0  0  0  0  0  0  0  0  0
   -7.4470   14.7280   -0.0990 N   0  0  0  0  0  0  0  0  0  0  0  0
   -5.3000   14.9010    0.3770 N   0  0  0  0  0  0  0  0  0  0  0  0
   -6.7710   14.8540   -1.2800 N   0  0  0  0  0  0  0  0  0  0  0  0
   -5.4950   14.9530   -0.9960 C   0  0  0  0  0  0  0  0  0  0  0  0
   -4.0470   14.9820    0.9830 C   0  0  0  0  0  0  0  0  0  0  0  0
   -4.3510   15.0860   -1.8120 C   0  0  0  0  0  0  0  0  0  0  0  0
   -2.9670   15.0950    0.2040 C   0  0  0  0  0  0  0  0  0  0  0  0
   -3.1410   15.1440   -1.2410 C   0  0  0  0  0  0  0  0  0  0  0  0
  1  2  2  0
  2  3  1  0
  1  4  1  0
  2  5  2  0
  4  6  2  0
  4  7  1  0
  6  8  1  0
  7  9  1  0
  8  9  2  0
  7 10  1  0
  9 11  1  0
 10 12  2  0
 11 13  2  0
 12 13  1  0
M  END
