diamond-x0253_0_A-mac-x0472
     RDKit          3D

 31 33  0  0  0  0  0  0  0  0999 V2000
    0.5680   11.8910   -5.3770 N   0  0  0  0  0  0  0  0  0  0  0  0
    1.1040   11.6700   -6.5980 C   0  0  0  0  0  0  0  0  0  0  0  0
    2.1500   12.2200   -6.8170 O   0  0  0  0  0  0  0  0  0  0  0  0
    1.5040   12.4170   -4.4000 C   0  0  0  0  0  0  0  0  0  0  0  0
    0.8440   12.4040   -3.0580 C   0  0  0  0  0  0  0  0  0  0  0  0
    0.4450   10.7490   -7.5620 C   0  0  0  0  0  0  0  0  0  0  0  0
    0.9090   13.4640   -2.3740 N   0  0  0  0  0  0  0  0  0  0  0  0
    0.2050   11.2680   -2.6950 O   0  0  0  0  0  0  0  0  0  0  0  0
   -0.5400    9.8460   -7.1550 C   0  0  0  0  0  0  0  0  0  0  0  0
    0.8240   10.7820   -8.9190 C   0  0  0  0  0  0  0  0  0  0  0  0
    0.2060   13.5290   -1.1120 C   0  0  0  0  0  0  0  0  0  0  0  0
   -1.1410    8.9880   -8.0860 C   0  0  0  0  0  0  0  0  0  0  0  0
    0.2340    9.9340   -9.8440 C   0  0  0  0  0  0  0  0  0  0  0  0
   -2.2000    8.0180   -7.6500 C   0  0  0  0  0  0  0  0  0  0  0  0
   -0.7300   14.7230   -1.2800 C   0  0  0  0  0  0  0  0  0  0  0  0
   -0.7500    9.0360   -9.4310 C   0  0  0  0  0  0  0  0  0  0  0  0
   -2.1610   14.3290   -1.1940 N   0  0  0  0  0  0  0  0  0  0  0  0
   -3.2770   14.4120   -2.4920 S   0  0  0  0  0  0  0  0  0  0  0  0
   -2.7860   14.6770    0.0540 C   0  0  0  0  0  0  0  0  0  0  0  0
   -4.2490   15.4530   -2.2440 O   0  0  0  0  0  0  0  0  0  0  0  0
   -2.6110   14.3320   -3.7730 O   0  0  0  0  0  0  0  0  0  0  0  0
   -2.1900   14.3940    1.1710 N   0  0  0  0  0  0  0  0  0  0  0  0
   -4.3010   15.4600    0.1980 S   0  0  0  0  0  0  0  0  0  0  0  0
   -4.0920   12.8390   -2.2640 C   0  0  0  0  0  0  0  0  0  0  0  0
   -4.0600   15.3580    1.8810 C   0  0  0  0  0  0  0  0  0  0  0  0
   -2.9350   14.7880    2.2380 N   0  0  0  0  0  0  0  0  0  0  0  0
   -3.4250   11.6760   -2.6780 C   0  0  0  0  0  0  0  0  0  0  0  0
   -5.3630   12.7600   -1.6840 C   0  0  0  0  0  0  0  0  0  0  0  0
   -4.0340   10.4360   -2.5160 C   0  0  0  0  0  0  0  0  0  0  0  0
   -5.9660   11.5130   -1.5240 C   0  0  0  0  0  0  0  0  0  0  0  0
   -5.3060   10.3540   -1.9410 C   0  0  0  0  0  0  0  0  0  0  0  0
  1  2  1  0
  2  3  2  0
  1  4  1  0
  4  5  1  0
  2  6  1  0
  5  7  2  3
  5  8  1  0
  6  9  2  0
  6 10  1  0
  7 11  1  0
  9 12  1  0
 10 13  2  0
 12 14  1  0
 11 15  1  0
 12 16  2  0
 13 16  1  0
 15 17  1  0
 18 17  1  0
 17 19  1  0
 18 20  2  0
 18 21  2  0
 19 22  2  0
 19 23  1  0
 18 24  1  0
 23 25  1  0
 22 26  1  0
 25 26  2  0
 24 27  2  0
 24 28  1  0
 27 29  1  0
 28 30  2  0
 29 31  2  0
 30 31  1  0
M  END
