diamond-x0711_0_A-mac-x0371
     RDKit          3D

 24 26  0  0  0  0  0  0  0  0999 V2000
   -1.7370   14.9050   -1.7490 N   0  0  0  0  0  0  0  0  0  0  0  0
   -1.1330   13.7150   -2.7210 S   0  0  1  0  0  0  0  0  0  0  0  0
   -1.8440   13.7760   -4.3460 C   0  0  0  0  0  0  0  0  0  0  0  0
   -3.0070   14.8670   -1.2830 C   0  0  0  0  0  0  0  0  0  0  0  0
    0.0970   14.4400   -2.9680 O   0  0  0  0  0  0  0  0  0  0  0  0
   -1.0650   12.3580   -2.0530 N   0  0  0  0  0  0  0  0  0  0  0  0
   -4.1130   15.1950   -2.0720 C   0  0  0  0  0  0  0  0  0  0  0  0
   -3.1560   14.4830    0.0280 C   0  0  0  0  0  0  0  0  0  0  0  0
   -0.2330   11.4790   -2.7640 C   0  0  0  0  0  0  0  0  0  0  0  0
   -5.3880   15.1310   -1.5200 C   0  0  0  0  0  0  0  0  0  0  0  0
   -4.4080   14.4170    0.5770 C   0  0  0  0  0  0  0  0  0  0  0  0
   -0.5420   14.3570   -4.4950 C   0  0  0  0  0  0  0  0  0  0  0  0
    0.1890   10.3960   -2.3290 O   0  0  0  0  0  0  0  0  0  0  0  0
    0.1560   11.9290   -4.1800 C   0  0  0  0  0  0  0  0  0  0  0  0
   -5.5260   14.7360   -0.1860 C   0  0  0  0  0  0  0  0  0  0  0  0
    0.4830   13.4130   -4.3640 C   0  0  0  0  0  0  0  0  0  0  0  0
   -0.3260   15.7270   -4.6770 C   0  0  0  0  0  0  0  0  0  0  0  0
   -6.8280   14.6300    0.4940 C   0  0  0  0  0  0  0  0  0  0  0  0
    0.9750   16.1680   -4.6980 C   0  0  0  0  0  0  0  0  0  0  0  0
    1.7530   13.8790   -4.3850 C   0  0  0  0  0  0  0  0  0  0  0  0
   -6.8300   14.5850    1.8650 N   0  0  0  0  0  0  0  0  0  0  0  0
   -7.8720   14.5880   -0.1420 O   0  0  0  0  0  0  0  0  0  0  0  0
    3.1070   12.8530   -4.2110 Cl  0  0  0  0  0  0  0  0  0  0  0  0
    1.9800   15.2180   -4.5360 C   0  0  0  0  0  0  0  0  0  0  0  0
  2  1  1  1
  2  3  1  0
  1  4  1  0
  2  5  2  0
  2  6  2  0
  4  7  2  0
  4  8  1  0
  6  9  1  0
  7 10  1  0
  8 11  2  0
  3 12  1  0
  9 13  2  0
  9 14  1  0
 10 15  2  0
 11 15  1  0
 12 16  2  0
 14 16  1  0
 12 17  1  0
 15 18  1  0
 17 19  2  0
 16 20  1  0
 18 21  1  0
 18 22  2  0
 20 23  1  0
 19 24  1  0
 20 24  2  0
M  END
