diamond-x0933_0_A-mac-x0213
     RDKit          3D

 22 24  0  0  0  0  0  0  0  0999 V2000
   -6.3370   14.6320    1.9640 N   0  0  0  0  0  0  0  0  0  0  0  0
   -5.1880   14.4420    1.1540 C   0  0  2  0  0  0  0  0  0  0  0  0
   -4.1990   15.2850    1.7140 N   0  0  0  0  0  0  0  0  0  0  0  0
   -5.5300   14.8860   -0.1600 N   0  0  0  0  0  0  0  0  0  0  0  0
   -4.2980   15.0130   -0.9610 C   0  0  0  0  0  0  0  0  0  0  0  0
   -2.9020   15.0800    1.1020 C   0  0  0  0  0  0  0  0  0  0  0  0
   -3.0960   14.3720   -0.2320 C   0  0  2  0  0  0  0  0  0  0  0  0
   -1.7990   14.3760   -1.0400 C   0  0  0  0  0  0  0  0  0  0  0  0
   -0.5480   14.4730   -0.1530 C   0  0  0  0  0  0  0  0  0  0  0  0
    0.7040   14.2570   -0.9960 C   0  0  0  0  0  0  0  0  0  0  0  0
    0.6410   12.9150   -1.5430 N   0  0  0  0  0  0  0  0  0  0  0  0
    0.2300   12.8580   -2.7460 C   0  0  0  0  0  0  0  0  0  0  0  0
    0.0870   11.7380   -3.4780 O   0  0  0  0  0  0  0  0  0  0  0  0
   -0.1580   14.1440   -3.4320 C   0  0  0  0  0  0  0  0  0  0  0  0
   -1.3550   14.1320   -4.3850 C   0  0  0  0  0  0  0  0  0  0  0  0
    0.9480   14.8730   -4.2140 C   0  0  0  0  0  0  0  0  0  0  0  0
   -1.2480   15.5580   -4.8350 C   0  0  0  0  0  0  0  0  0  0  0  0
    0.0900   15.9890   -4.7390 C   0  0  0  0  0  0  0  0  0  0  0  0
   -2.2450   16.4060   -5.2930 C   0  0  0  0  0  0  0  0  0  0  0  0
    0.4440   17.2770   -5.1000 C   0  0  0  0  0  0  0  0  0  0  0  0
   -1.8900   17.7060   -5.6610 C   0  0  0  0  0  0  0  0  0  0  0  0
   -0.5550   18.1360   -5.5630 C   0  0  0  0  0  0  0  0  0  0  0  0
  2  1  1  1
  2  3  1  0
  2  4  1  0
  4  5  1  0
  3  6  1  0
  5  7  1  0
  6  7  1  0
  7  8  1  6
  8  9  1  0
  9 10  1  0
 10 11  1  0
 11 12  2  3
 12 13  1  0
 12 14  1  0
 14 15  1  0
 14 16  1  0
 15 17  1  0
 16 18  1  0
 17 18  2  0
 17 19  1  0
 18 20  1  0
 19 21  2  0
 20 22  2  0
 21 22  1  0
M  END
