diamond-x0685_1_A-mac-x0305
     RDKit          3D

 22 23  0  0  0  0  0  0  0  0999 V2000
   -1.2770   10.6380   -4.8710 N   0  0  0  0  0  0  0  0  0  0  0  0
   -1.6640   12.0460   -4.6380 C   0  0  0  0  0  0  0  0  0  0  0  0
   -0.4520   12.9030   -4.2870 C   0  0  0  0  0  0  0  0  0  0  0  0
   -0.7810   10.3280   -6.2250 C   0  0  0  0  0  0  0  0  0  0  0  0
   -0.5800    8.8190   -6.4540 C   0  0  0  0  0  0  0  0  0  0  0  0
   -1.5770   11.0070   -7.3630 C   0  0  0  0  0  0  0  0  0  0  0  0
    0.1720   12.5600   -2.6500 S   0  0  0  0  0  0  0  0  0  0  0  0
    0.0990    8.5920   -7.7970 C   0  0  0  0  0  0  0  0  0  0  0  0
   -1.0170   10.6940   -8.7470 C   0  0  0  0  0  0  0  0  0  0  0  0
    1.7740   12.4150   -2.8640 O   0  0  0  0  0  0  0  0  0  0  0  0
   -0.3960   11.1280   -2.1700 O   0  0  0  0  0  0  0  0  0  0  0  0
    0.0040   13.7990   -1.2960 C   0  0  0  0  0  0  0  0  0  0  0  0
   -0.7230    9.2010   -8.9340 C   0  0  0  0  0  0  0  0  0  0  0  0
    0.4480   13.1920   -0.1000 O   0  0  0  0  0  0  0  0  0  0  0  0
    0.8990   14.8430   -1.6380 O   0  0  0  0  0  0  0  0  0  0  0  0
   -1.4260   14.3570   -0.9920 C   0  0  0  0  0  0  0  0  0  0  0  0
   -1.8380   14.6790    0.3450 C   0  0  0  0  0  0  0  0  0  0  0  0
   -2.3010   14.5550   -2.0460 N   0  0  0  0  0  0  0  0  0  0  0  0
   -1.0760   14.5420    1.4900 O   0  0  0  0  0  0  0  0  0  0  0  0
   -3.1220   15.1890    0.5640 C   0  0  0  0  0  0  0  0  0  0  0  0
   -3.5380   15.0580   -1.7740 C   0  0  0  0  0  0  0  0  0  0  0  0
   -3.9850   15.3850   -0.5030 C   0  0  0  0  0  0  0  0  0  0  0  0
  1  2  1  0
  2  3  1  0
  1  4  1  0
  4  5  1  0
  4  6  1  0
  3  7  1  0
  5  8  1  0
  6  9  1  0
  7 10  1  0
  7 11  1  0
  7 12  1  0
  8 13  1  0
  9 13  1  0
 12 14  1  0
 12 15  1  0
 12 16  1  0
 16 17  2  0
 16 18  1  0
 17 19  1  0
 17 20  1  0
 18 21  2  0
 20 22  2  0
 21 22  1  0
M  END
