diamond-x0969_0_A-mac-x0555
     RDKit          3D

 10 11  0  0  0  0  0  0  0  0999 V2000
   -6.8210   14.7150    2.5630 N   0  0  0  0  0  0  0  0  0  0  0  0
   -6.6110   14.7410    1.2250 C   0  0  0  0  0  0  0  0  0  0  0  0
   -7.5410   14.6460    0.3030 N   0  0  0  0  0  0  0  0  0  0  0  0
   -5.3750   14.8860    0.6130 N   0  0  0  0  0  0  0  0  0  0  0  0
   -6.9470   14.7240   -0.9360 N   0  0  0  0  0  0  0  0  0  0  0  0
   -5.6530   14.8680   -0.7490 C   0  0  0  0  0  0  0  0  0  0  0  0
   -4.0810   15.0260    1.1240 C   0  0  0  0  0  0  0  0  0  0  0  0
   -4.5670   14.9970   -1.6480 C   0  0  0  0  0  0  0  0  0  0  0  0
   -3.0570   15.1420    0.2700 C   0  0  0  0  0  0  0  0  0  0  0  0
   -3.3210   15.1250   -1.1640 C   0  0  0  0  0  0  0  0  0  0  0  0
  1  2  1  0
  2  3  2  0
  2  4  1  0
  3  5  1  0
  4  6  1  0
  5  6  2  0
  4  7  1  0
  6  8  1  0
  7  9  2  0
  8 10  2  0
  9 10  1  0
M  END
