diamond-x0591_0_A-mac-x0142
     RDKit          3D

 30 34  0  0  0  0  0  0  0  0999 V2000
   -6.4420   14.0220    0.9970 N   0  0  0  0  0  0  0  0  0  0  0  0
   -7.0810   14.5500    2.1810 C   0  0  0  0  0  0  0  0  0  0  0  0
   -6.8220   14.4580   -0.2860 C   0  0  0  0  0  0  0  0  0  0  0  0
   -7.9630   14.8560   -0.5070 O   0  0  0  0  0  0  0  0  0  0  0  0
   -5.8510   14.4380   -1.3710 C   0  0  0  0  0  0  0  0  0  0  0  0
   -4.5970   14.0070   -1.1520 C   0  0  0  0  0  0  0  0  0  0  0  0
   -6.2110   14.8550   -2.6070 C   0  0  0  0  0  0  0  0  0  0  0  0
   -3.7300   14.0210   -2.1730 C   0  0  0  0  0  0  0  0  0  0  0  0
   -5.2910   14.8350   -3.5910 C   0  0  0  0  0  0  0  0  0  0  0  0
   -3.9830   14.4410   -3.4690 C   0  0  0  0  0  0  0  0  0  0  0  0
   -2.7840   14.3930   -4.5470 S   0  0  0  0  0  0  0  0  0  0  0  0
   -2.1500   15.8270   -4.4650 N   0  0  0  0  0  0  0  0  0  0  0  0
   -3.0640   14.9390   -6.2300 O   0  0  0  0  0  0  0  0  0  0  0  0
   -1.4820   13.6520   -4.0310 C   0  0  1  0  0  0  0  0  0  0  0  0
   -0.6510   12.9610   -5.0930 C   0  0  0  0  0  0  0  0  0  0  0  0
   -0.7660   14.3900   -2.9520 N   0  0  0  0  0  0  0  0  0  0  0  0
    0.7080   13.2770   -5.1760 C   0  0  0  0  0  0  0  0  0  0  0  0
    0.5780   14.9270   -3.3570 C   0  0  0  0  0  0  0  0  0  0  0  0
   -0.9920   14.4790   -1.5220 C   0  0  0  0  0  0  0  0  0  0  0  0
    1.2530   13.7300   -3.9230 C   0  0  0  0  0  0  0  0  0  0  0  0
   -0.0320   14.1250   -0.6460 N   0  0  0  0  0  0  0  0  0  0  0  0
   -2.1710   14.9370   -0.9120 C   0  0  0  0  0  0  0  0  0  0  0  0
    2.7350   13.4890   -3.6250 C   0  0  0  0  0  0  0  0  0  0  0  0
    1.7120   12.6680   -2.9550 C   0  0  0  0  0  0  0  0  0  0  0  0
   -0.2390   14.1310    0.7250 C   0  0  0  0  0  0  0  0  0  0  0  0
   -2.3230   14.9920    0.5880 C   0  0  0  0  0  0  0  0  0  0  0  0
   -3.3860   15.4300   -1.3400 C   0  0  0  0  0  0  0  0  0  0  0  0
   -1.3420   14.5530    1.3400 N   0  0  0  0  0  0  0  0  0  0  0  0
   -3.5200   15.5170    0.8600 N   0  0  0  0  0  0  0  0  0  0  0  0
   -4.1720   15.7830   -0.2710 C   0  0  0  0  0  0  0  0  0  0  0  0
  1  2  1  0
  1  3  1  0
  3  4  2  0
  3  5  1  0
  5  6  2  0
  5  7  1  0
  6  8  1  0
  7  9  2  0
  8 10  2  0
  9 10  1  0
 10 11  1  0
 11 12  1  0
 11 13  2  0
 14 11  1  6
 14 15  1  0
 14 16  1  0
 15 17  1  0
 16 18  1  0
 16 19  1  0
 20 17  1  0
 18 20  1  0
 19 21  1  0
 19 22  2  0
 20 23  1  0
 20 24  1  0
 23 24  1  0
 21 25  1  0
 22 26  1  0
 22 27  1  0
 25 28  2  0
 26 28  1  0
 26 29  2  0
 27 30  2  0
 29 30  1  0
M  END
