diamond-x0689_0_A-mac-x0357
     RDKit          3D

 19 20  0  0  0  0  0  0  0  0999 V2000
   -3.6710   15.1960    1.5550 N   0  0  0  0  0  0  0  0  0  0  0  0
   -4.7650   15.2910    0.6300 C   0  0  0  0  0  0  0  0  0  0  0  0
   -2.4610   14.8410    0.9720 C   0  0  0  0  0  0  0  0  0  0  0  0
   -2.3790   14.5040   -0.3230 N   0  0  0  0  0  0  0  0  0  0  0  0
   -1.4280   14.8690    1.7890 N   0  0  0  0  0  0  0  0  0  0  0  0
   -1.1520   14.1800   -0.7940 C   0  0  0  0  0  0  0  0  0  0  0  0
   -0.2350   14.5500    1.2860 C   0  0  0  0  0  0  0  0  0  0  0  0
   -1.0480   13.7890   -2.1300 N   0  0  0  0  0  0  0  0  0  0  0  0
   -0.0290   14.1970   -0.0140 C   0  0  0  0  0  0  0  0  0  0  0  0
   -0.0830   13.0440   -2.5530 C   0  0  0  0  0  0  0  0  0  0  0  0
    0.9560   12.6090   -1.8140 O   0  0  0  0  0  0  0  0  0  0  0  0
   -0.0230   12.5080   -3.9280 C   0  0  0  0  0  0  0  0  0  0  0  0
    1.1080   12.5380   -4.7700 C   0  0  0  0  0  0  0  0  0  0  0  0
   -1.2260   11.9220   -4.3700 C   0  0  0  0  0  0  0  0  0  0  0  0
    2.4220   13.1470   -4.3550 C   0  0  0  0  0  0  0  0  0  0  0  0
   -1.3300   11.3610   -5.6340 C   0  0  0  0  0  0  0  0  0  0  0  0
    0.9550   11.9570   -6.0330 C   0  0  0  0  0  0  0  0  0  0  0  0
    1.9630   11.9110   -6.9170 O   0  0  0  0  0  0  0  0  0  0  0  0
   -0.2330   11.3790   -6.4690 C   0  0  0  0  0  0  0  0  0  0  0  0
  1  2  1  0
  1  3  1  0
  3  4  2  0
  3  5  1  0
  4  6  1  0
  5  7  2  0
  6  8  1  0
  6  9  2  0
  7  9  1  0
  8 10  2  3
 10 11  1  0
 10 12  1  0
 12 13  2  0
 12 14  1  0
 13 15  1  0
 14 16  2  0
 13 17  1  0
 17 18  1  0
 16 19  1  0
 17 19  2  0
M  END
