diamond-x0910_0_A-mac-x0347
     RDKit          3D

 21 23  0  0  0  0  0  0  0  0999 V2000
   -2.8640   13.8570    0.5790 N   0  0  0  0  0  0  0  0  0  0  0  0
   -1.5690   14.2040    0.7420 C   0  0  0  0  0  0  0  0  0  0  0  0
   -0.8980   14.2360    1.8310 N   0  0  0  0  0  0  0  0  0  0  0  0
   -0.7550   14.5910   -0.2980 N   0  0  0  0  0  0  0  0  0  0  0  0
   -1.1830   14.6520   -1.5290 N   0  0  0  0  0  0  0  0  0  0  0  0
    0.3590   14.6490    1.5210 N   0  0  0  0  0  0  0  0  0  0  0  0
    0.4340   14.8590    0.2360 C   0  0  0  0  0  0  0  0  0  0  0  0
   -0.7740   14.6530   -2.7230 C   0  0  0  0  0  0  0  0  0  0  0  0
    0.4860   14.5810   -3.1950 O   0  0  0  0  0  0  0  0  0  0  0  0
   -1.9080   14.7190   -3.5680 C   0  0  0  0  0  0  0  0  0  0  0  0
   -2.9510   14.7020   -2.6890 C   0  0  0  0  0  0  0  0  0  0  0  0
   -2.1480   14.7840   -4.9140 C   0  0  0  0  0  0  0  0  0  0  0  0
   -4.2430   14.7430   -3.0520 C   0  0  0  0  0  0  0  0  0  0  0  0
   -3.4400   14.8270   -5.3740 N   0  0  0  0  0  0  0  0  0  0  0  0
   -4.4600   14.8050   -4.4330 C   0  0  0  0  0  0  0  0  0  0  0  0
   -5.1670   14.7030   -1.9050 C   0  0  0  0  0  0  0  0  0  0  0  0
   -4.6650   15.1050   -0.6450 C   0  0  0  0  0  0  0  0  0  0  0  0
   -6.4960   14.2760   -1.9710 C   0  0  0  0  0  0  0  0  0  0  0  0
   -5.4530   15.0760    0.5010 C   0  0  0  0  0  0  0  0  0  0  0  0
   -7.2910   14.2490   -0.8160 C   0  0  0  0  0  0  0  0  0  0  0  0
   -6.7690   14.6460    0.4140 C   0  0  0  0  0  0  0  0  0  0  0  0
  1  2  1  0
  2  3  2  0
  2  4  1  0
  4  5  1  0
  3  6  1  0
  4  7  1  0
  6  7  2  0
  5  8  2  3
  8  9  1  0
  8 10  1  0
 10 11  2  0
 10 12  1  0
 11 13  1  0
 12 14  2  0
 13 15  2  0
 14 15  1  0
 13 16  1  0
 16 17  2  0
 16 18  1  0
 17 19  1  0
 18 20  2  0
 19 21  2  0
 20 21  1  0
M  END
