diamond-x0626_0_A-mac-x0385
     RDKit          3D

 11 11  0  0  0  0  0  0  0  0999 V2000
   -4.8730   14.8920    1.4110 N   0  0  0  0  0  0  0  0  0  0  0  0
   -6.0060   14.7360    0.6350 C   0  0  0  0  0  0  0  0  0  0  0  0
   -6.1070   14.8480   -0.5800 O   0  0  0  0  0  0  0  0  0  0  0  0
   -3.6090   14.8060    0.8970 C   0  0  0  0  0  0  0  0  0  0  0  0
   -7.2070   14.3950    1.5110 C   0  0  0  0  0  0  0  0  0  0  0  0
   -2.4630   14.6770    1.5310 N   0  0  0  0  0  0  0  0  0  0  0  0
   -3.5220   14.8950   -0.8070 S   0  0  0  0  0  0  0  0  0  0  0  0
   -8.5340   14.6800    0.8270 C   0  0  0  0  0  0  0  0  0  0  0  0
   -1.8200   14.7280   -0.7020 C   0  0  0  0  0  0  0  0  0  0  0  0
   -1.4380   14.6250    0.6210 C   0  0  0  0  0  0  0  0  0  0  0  0
   -0.0700   14.4650    1.1370 C   0  0  0  0  0  0  0  0  0  0  0  0
  1  2  1  0
  2  3  2  0
  1  4  1  0
  2  5  1  0
  4  6  2  0
  4  7  1  0
  5  8  1  0
  7  9  1  0
  6 10  1  0
  9 10  2  0
 10 11  1  0
M  END
