diamond-x0253_0_A-mac-x0588
     RDKit          3D

 32 35  0  0  0  0  0  0  0  0999 V2000
    0.3960   11.8870   -5.4420 N   0  0  0  0  0  0  0  0  0  0  0  0
    1.0120   11.7200   -6.6420 C   0  0  0  0  0  0  0  0  0  0  0  0
    2.1140   12.1770   -6.7930 O   0  0  0  0  0  0  0  0  0  0  0  0
    1.2640   12.1040   -4.2880 C   0  0  0  0  0  0  0  0  0  0  0  0
    0.5950   11.8960   -2.9150 C   0  0  0  0  0  0  0  0  0  0  0  0
    0.3250   10.8980   -7.6940 C   0  0  0  0  0  0  0  0  0  0  0  0
    1.4500   12.4510   -1.9340 O   0  0  0  0  0  0  0  0  0  0  0  0
    0.3870   10.5220   -2.5940 O   0  0  0  0  0  0  0  0  0  0  0  0
   -0.6990   12.7060   -2.9020 C   0  0  0  0  0  0  0  0  0  0  0  0
   -0.8440   10.1900   -7.3910 C   0  0  0  0  0  0  0  0  0  0  0  0
    0.8490   10.8080   -8.9880 C   0  0  0  0  0  0  0  0  0  0  0  0
   -0.5270   13.9510   -3.7880 C   0  0  0  0  0  0  0  0  0  0  0  0
   -1.4610    9.3850   -8.3490 C   0  0  0  0  0  0  0  0  0  0  0  0
    0.2330   10.0170   -9.9500 C   0  0  0  0  0  0  0  0  0  0  0  0
   -2.6960    8.6130   -7.9820 C   0  0  0  0  0  0  0  0  0  0  0  0
   -1.3690   15.1700   -3.3700 C   0  0  1  0  0  0  0  0  0  0  0  0
   -0.9150    9.3040   -9.6300 C   0  0  0  0  0  0  0  0  0  0  0  0
   -2.0670   15.0240   -2.0630 N   0  0  0  0  0  0  0  0  0  0  0  0
   -0.6270   16.5190   -3.6690 C   0  0  2  0  0  0  0  0  0  0  0  0
   -3.4410   15.4170   -2.0280 C   0  0  0  0  0  0  0  0  0  0  0  0
   -1.3830   15.4320   -0.8470 C   0  0  1  0  0  0  0  0  0  0  0  0
   -1.5310   17.4950   -4.2780 O   0  0  0  0  0  0  0  0  0  0  0  0
    0.5530   16.3850   -4.6400 C   0  0  0  0  0  0  0  0  0  0  0  0
   -4.1710   14.6270   -1.0640 N   0  0  0  0  0  0  0  0  0  0  0  0
   -2.2830   15.4400    0.4080 C   0  0  1  0  0  0  0  0  0  0  0  0
   -0.3390   14.4780   -0.5170 N   0  0  0  0  0  0  0  0  0  0  0  0
    0.6070   17.7520   -5.2690 C   0  0  0  0  0  0  0  0  0  0  0  0
   -0.8630   18.0980   -5.3930 C   0  0  0  0  0  0  0  0  0  0  0  0
   -3.5920   14.6290    0.2560 C   0  0  1  0  0  0  0  0  0  0  0  0
   -1.4410   14.9360    1.4960 N   0  0  0  0  0  0  0  0  0  0  0  0
   -0.1660   14.5940    0.9140 C   0  0  0  0  0  0  0  0  0  0  0  0
   -4.6410   15.1360    1.1200 N   0  0  0  0  0  0  0  0  0  0  0  0
  1  2  1  0
  2  3  2  0
  1  4  1  0
  4  5  1  0
  2  6  1  0
  5  7  1  0
  5  8  1  0
  5  9  1  0
  6 10  2  0
  6 11  1  0
  9 12  1  0
 10 13  1  0
 11 14  2  0
 13 15  1  0
 16 12  1  1
 13 17  2  0
 14 17  1  0
 16 18  1  0
 16 19  1  0
 18 20  1  0
 18 21  1  0
 19 22  1  0
 19 23  1  6
 20 24  1  0
 21 25  1  0
 21 26  1  1
 23 27  1  0
 22 28  1  0
 27 28  1  0
 24 29  1  0
 25 29  1  0
 25 30  1  1
 26 31  1  0
 30 31  1  0
 29 32  1  1
M  END
