diamond-x0895_0_A-diamond-x0969_0_A
     RDKit          3D

 12 13  0  0  0  0  0  0  0  0999 V2000
   -1.6950   14.3160    1.9360 O   0  0  0  0  0  0  0  0  0  0  0  0
   -2.6350   14.3320    1.1560 C   0  0  0  0  0  0  0  0  0  0  0  0
   -3.8990   13.5120    1.1760 C   0  0  0  0  0  0  0  0  0  0  0  0
   -2.7190   15.1380    0.0960 N   0  0  0  0  0  0  0  0  0  0  0  0
   -4.8810   14.3730    0.4030 C   0  0  2  0  0  0  0  0  0  0  0  0
   -3.9970   15.3280   -0.3020 C   0  0  0  0  0  0  0  0  0  0  0  0
   -4.3430   16.1060   -1.1500 O   0  0  0  0  0  0  0  0  0  0  0  0
   -6.0720   14.7340    1.2430 C   0  0  0  0  0  0  0  0  0  0  0  0
   -5.6480   13.7900   -0.7250 C   0  0  0  0  0  0  0  0  0  0  0  0
   -5.9990   15.2100    2.5170 N   0  0  0  0  0  0  0  0  0  0  0  0
   -7.2030   14.5120    0.6400 N   0  0  0  0  0  0  0  0  0  0  0  0
   -6.9290   13.9190   -0.6200 N   0  0  0  0  0  0  0  0  0  0  0  0
  1  2  2  0
  2  3  1  0
  2  4  1  0
  5  3  1  1
  4  6  1  0
  5  6  1  0
  6  7  2  0
  5  8  1  0
  5  9  1  0
  8 10  1  0
  8 11  2  0
  9 12  2  0
 11 12  1  0
M  END
