diamond-x0282_0_A-diamond-x0962_0_A
     RDKit          3D

 16 17  0  0  0  0  0  0  0  0999 V2000
   -7.0200   13.3430    0.6480 C   0  0  0  0  0  0  0  0  0  0  0  0
   -8.3930   13.5920    0.3380 O   0  0  0  0  0  0  0  0  0  0  0  0
   -6.3070   14.6860    0.6570 C   0  0  1  0  0  0  0  0  0  0  0  0
   -5.3310   14.9100    1.8140 C   0  0  0  0  0  0  0  0  0  0  0  0
   -5.5850   15.0190   -0.6580 C   0  0  0  0  0  0  0  0  0  0  0  0
   -4.0960   14.0260    1.6890 C   0  0  0  0  0  0  0  0  0  0  0  0
   -4.2850   14.2080   -0.8650 C   0  0  1  0  0  0  0  0  0  0  0  0
   -3.4780   14.7570   -1.9810 C   0  0  0  0  0  0  0  0  0  0  0  0
   -3.5050   14.1400    0.3740 N   0  0  0  0  0  0  0  0  0  0  0  0
   -2.8010   15.1450   -2.8370 N   0  0  0  0  0  0  0  0  0  0  0  0
   -2.1450   14.3630    0.3030 C   0  0  0  0  0  0  0  0  0  0  0  0
   -1.6340   14.4860   -0.9260 N   0  0  0  0  0  0  0  0  0  0  0  0
   -1.4070   14.4430    1.4280 N   0  0  0  0  0  0  0  0  0  0  0  0
   -0.3330   14.7040   -1.0600 C   0  0  0  0  0  0  0  0  0  0  0  0
   -0.0950   14.6580    1.2320 C   0  0  0  0  0  0  0  0  0  0  0  0
    0.4910   14.8020   -0.0030 C   0  0  0  0  0  0  0  0  0  0  0  0
  1  2  1  0
  3  1  1  6
  3  4  1  0
  3  5  1  0
  4  6  1  0
  5  7  1  0
  7  8  1  6
  6  9  1  0
  7  9  1  0
  8 10  3  0
  9 11  1  0
 11 12  2  0
 11 13  1  0
 12 14  1  0
 13 15  2  0
 14 16  2  0
 15 16  1  0
M  END
