diamond-x1012_0_A-mac-x0568
     RDKit          3D

 24 25  0  0  0  0  0  0  0  0999 V2000
   -0.2150   18.1620   -4.7640 N   0  0  0  0  0  0  0  0  0  0  0  0
   -1.0870   17.1280   -4.6800 C   0  0  0  0  0  0  0  0  0  0  0  0
   -2.3530   17.2030   -4.6270 N   0  0  0  0  0  0  0  0  0  0  0  0
   -0.4440   15.8880   -4.6380 N   0  0  0  0  0  0  0  0  0  0  0  0
   -2.9640   15.8840   -4.5140 C   0  0  0  0  0  0  0  0  0  0  0  0
   -1.0440   14.6340   -5.1590 C   0  0  0  0  0  0  0  0  0  0  0  0
    1.0050   15.7920   -4.4520 C   0  0  0  0  0  0  0  0  0  0  0  0
   -2.5770   15.3700   -3.1330 C   0  0  0  0  0  0  0  0  0  0  0  0
   -1.0020   13.5060   -4.1350 C   0  0  0  0  0  0  0  0  0  0  0  0
    1.3390   14.4610   -3.7480 C   0  0  0  0  0  0  0  0  0  0  0  0
   -3.7360   15.1780   -2.2920 N   0  0  0  0  0  0  0  0  0  0  0  0
    0.0960   13.7870   -3.1250 C   0  0  0  0  0  0  0  0  0  0  0  0
    0.3840   12.5570   -2.2980 C   0  0  0  0  0  0  0  0  0  0  0  0
   -3.6210   15.2120   -1.0230 C   0  0  0  0  0  0  0  0  0  0  0  0
    0.3190   11.3770   -2.9530 O   0  0  0  0  0  0  0  0  0  0  0  0
    0.6300   12.6450   -1.1140 O   0  0  0  0  0  0  0  0  0  0  0  0
   -2.4510   15.4210   -0.3240 N   0  0  0  0  0  0  0  0  0  0  0  0
   -4.8810   14.9910   -0.2920 C   0  0  0  0  0  0  0  0  0  0  0  0
   -6.0740   14.9620   -0.9980 C   0  0  0  0  0  0  0  0  0  0  0  0
   -4.9300   14.8050    1.0820 C   0  0  0  0  0  0  0  0  0  0  0  0
   -7.2870   14.7600   -0.4350 N   0  0  0  0  0  0  0  0  0  0  0  0
   -6.1650   14.5980    1.6860 C   0  0  0  0  0  0  0  0  0  0  0  0
   -7.3150   14.5810    0.8990 C   0  0  0  0  0  0  0  0  0  0  0  0
   -8.6510   14.3660    1.5300 C   0  0  0  0  0  0  0  0  0  0  0  0
  1  2  1  0
  2  3  2  3
  2  4  1  0
  3  5  1  0
  4  6  1  0
  4  7  1  0
  5  8  1  0
  6  9  1  0
  7 10  1  0
  8 11  1  0
  9 12  1  0
 10 12  1  0
 12 13  1  0
 11 14  2  3
 13 15  1  0
 13 16  2  0
 14 17  1  0
 14 18  1  0
 18 19  2  0
 18 20  1  0
 19 21  1  0
 20 22  2  0
 21 23  2  0
 22 23  1  0
 23 24  1  0
M  END
