diamond-x0290_0_A-diamond-x1015_0_A
     RDKit          3D

 27 29  0  0  0  0  0  0  0  0999 V2000
   -7.8030   13.7940    1.0530 N   0  0  0  0  0  0  0  0  0  0  0  0
   -8.5590   14.9930    0.7150 C   0  0  0  0  0  0  0  0  0  0  0  0
   -6.5430   14.0980    1.7550 C   0  0  0  0  0  0  0  0  0  0  0  0
   -5.4310   14.5190    0.7850 C   0  0  0  0  0  0  0  0  0  0  0  0
   -5.6290   14.5820   -0.4220 O   0  0  0  0  0  0  0  0  0  0  0  0
   -4.2460   14.7840    1.4250 N   0  0  0  0  0  0  0  0  0  0  0  0
   -2.9980   14.7150    0.8250 C   0  0  0  0  0  0  0  0  0  0  0  0
   -1.9510   14.7160    1.6880 N   0  0  0  0  0  0  0  0  0  0  0  0
   -2.8560   14.6420   -0.5570 C   0  0  0  0  0  0  0  0  0  0  0  0
   -0.7200   14.6570    1.1400 C   0  0  0  0  0  0  0  0  0  0  0  0
   -1.5830   14.5610   -1.1130 C   0  0  0  0  0  0  0  0  0  0  0  0
   -1.3680   14.4310   -2.6270 C   0  0  0  0  0  0  0  0  0  0  0  0
   -0.4890   14.5790   -0.2220 C   0  0  0  0  0  0  0  0  0  0  0  0
   -0.5360   13.1560   -2.7020 C   0  0  1  0  0  0  0  0  0  0  0  0
   -0.0200   12.2730   -3.7500 N   0  0  0  0  0  0  0  0  0  0  0  0
    0.8570   13.6030   -2.3200 C   0  0  0  0  0  0  0  0  0  0  0  0
    1.2540   14.7400   -2.1070 O   0  0  0  0  0  0  0  0  0  0  0  0
    0.7290   11.5460   -2.8240 C   0  0  0  0  0  0  0  0  0  0  0  0
    1.5640   12.4650   -2.2880 N   0  0  0  0  0  0  0  0  0  0  0  0
   -0.5440   11.5660   -4.8770 C   0  0  0  0  0  0  0  0  0  0  0  0
    0.6610   10.3630   -2.4890 O   0  0  0  0  0  0  0  0  0  0  0  0
   -0.0190   11.7800   -6.1660 C   0  0  0  0  0  0  0  0  0  0  0  0
   -1.5710   10.6140   -4.7500 C   0  0  0  0  0  0  0  0  0  0  0  0
   -0.4860   11.0660   -7.2770 C   0  0  0  0  0  0  0  0  0  0  0  0
   -2.0420    9.8970   -5.8620 C   0  0  0  0  0  0  0  0  0  0  0  0
   -1.4960   10.1250   -7.1210 C   0  0  0  0  0  0  0  0  0  0  0  0
   -2.0660    9.2370   -8.4790 Cl  0  0  0  0  0  0  0  0  0  0  0  0
  1  2  1  0
  1  3  1  0
  3  4  1  0
  4  5  2  0
  4  6  1  0
  6  7  1  0
  7  8  2  0
  7  9  1  0
  8 10  1  0
  9 11  2  0
 11 12  1  0
 10 13  2  0
 11 13  1  0
 14 12  1  6
 14 15  1  0
 14 16  1  0
 16 17  2  0
 15 18  1  0
 16 19  1  0
 18 19  1  0
 15 20  1  0
 18 21  2  0
 20 22  2  0
 20 23  1  0
 22 24  1  0
 23 25  2  0
 24 26  2  0
 25 26  1  0
 26 27  1  0
M  END
