diamond-x0962_0_A-mac-x0394
     RDKit          3D

 21 22  0  0  0  0  0  0  0  0999 V2000
   -2.7970   13.4710   -1.8940 N   0  0  0  0  0  0  0  0  0  0  0  0
   -3.0840   14.8600   -1.6840 C   0  0  1  0  0  0  0  0  0  0  0  0
   -3.8240   15.4710   -2.8820 C   0  0  0  0  0  0  0  0  0  0  0  0
   -3.9130   14.9980   -0.4600 C   0  0  0  0  0  0  0  0  0  0  0  0
   -3.9150   14.6110   -4.1490 C   0  0  0  0  0  0  0  0  0  0  0  0
   -3.4190   15.3360    0.7690 N   0  0  0  0  0  0  0  0  0  0  0  0
   -5.2670   14.8400   -0.2600 C   0  0  0  0  0  0  0  0  0  0  0  0
   -3.2050   15.2680   -5.3430 C   0  0  0  0  0  0  0  0  0  0  0  0
   -4.4690   15.3700    1.6380 C   0  0  0  0  0  0  0  0  0  0  0  0
   -5.5980   15.0690    1.0420 N   0  0  0  0  0  0  0  0  0  0  0  0
   -1.7260   15.4140   -5.1120 C   0  0  0  0  0  0  0  0  0  0  0  0
   -0.9430   14.2810   -4.8380 C   0  0  0  0  0  0  0  0  0  0  0  0
   -1.1080   16.6620   -5.1700 C   0  0  0  0  0  0  0  0  0  0  0  0
    0.4370   14.3780   -4.6220 C   0  0  0  0  0  0  0  0  0  0  0  0
    0.2580   16.7590   -4.9590 C   0  0  0  0  0  0  0  0  0  0  0  0
    0.9830   18.2940   -5.0470 Cl  0  0  0  0  0  0  0  0  0  0  0  0
    1.2570   13.1420   -4.3280 C   0  0  0  0  0  0  0  0  0  0  0  0
    1.0350   15.6360   -4.6850 C   0  0  0  0  0  0  0  0  0  0  0  0
    0.9220   12.4840   -2.9970 C   0  0  0  0  0  0  0  0  0  0  0  0
    0.3570   11.2590   -3.1340 O   0  0  0  0  0  0  0  0  0  0  0  0
    1.1170   12.9620   -1.8900 O   0  0  0  0  0  0  0  0  0  0  0  0
  2  1  1  6
  2  3  1  0
  2  4  1  0
  3  5  1  0
  4  6  1  0
  4  7  2  0
  5  8  1  0
  6  9  1  0
  7 10  1  0
  9 10  2  0
  8 11  1  0
 11 12  2  0
 11 13  1  0
 12 14  1  0
 13 15  2  0
 15 16  1  0
 14 17  1  0
 14 18  2  0
 15 18  1  0
 17 19  1  0
 19 20  1  0
 19 21  2  0
M  END
