diamond-x0128_0_A-mac-x0546
     RDKit          3D

 34 37  0  0  0  0  0  0  0  0999 V2000
   -6.5880   14.8950    2.5780 N   0  0  0  0  0  0  0  0  0  0  0  0
   -7.8550   15.2130    2.9640 C   0  0  0  0  0  0  0  0  0  0  0  0
   -8.8100   15.4870    2.2420 O   0  0  0  0  0  0  0  0  0  0  0  0
   -5.9280   14.8140    1.3340 C   0  0  0  0  0  0  0  0  0  0  0  0
   -8.0470   15.2260    4.3210 N   0  0  0  0  0  0  0  0  0  0  0  0
   -6.6220   14.4910    0.1600 C   0  0  0  0  0  0  0  0  0  0  0  0
   -4.5580   15.0470    1.2570 C   0  0  0  0  0  0  0  0  0  0  0  0
   -5.9220   14.3900   -1.0570 C   0  0  0  0  0  0  0  0  0  0  0  0
   -3.8700   14.9470    0.0560 C   0  0  0  0  0  0  0  0  0  0  0  0
   -8.7130   16.1010    5.1900 C   0  0  0  0  0  0  0  0  0  0  0  0
   -4.5290   14.6090   -1.1170 C   0  0  0  0  0  0  0  0  0  0  0  0
   -9.3330   17.2910    4.8240 C   0  0  0  0  0  0  0  0  0  0  0  0
   -8.7640   15.7500    6.5430 C   0  0  0  0  0  0  0  0  0  0  0  0
   -9.9750   18.1080    5.6900 N   0  0  0  0  0  0  0  0  0  0  0  0
   -9.4170   16.5770    7.4580 C   0  0  0  0  0  0  0  0  0  0  0  0
   -3.7810   14.4640   -2.4240 C   0  0  0  0  0  0  0  0  0  0  0  0
  -10.0050   17.7390    6.9840 C   0  0  0  0  0  0  0  0  0  0  0  0
   -4.3380   15.1730   -3.6280 C   0  0  0  0  0  0  0  0  0  0  0  0
   -4.3690   14.3710   -4.9340 C   0  0  0  0  0  0  0  0  0  0  0  0
   -4.4030   15.2740   -6.1790 C   0  0  0  0  0  0  0  0  0  0  0  0
   -3.5250   16.4060   -6.0210 O   0  0  0  0  0  0  0  0  0  0  0  0
   -2.3400   16.2270   -5.3710 C   0  0  0  0  0  0  0  0  0  0  0  0
   -1.8320   15.0490   -4.9790 C   0  0  0  0  0  0  0  0  0  0  0  0
   -1.6140   17.4790   -5.1140 C   0  0  0  0  0  0  0  0  0  0  0  0
   -0.5510   15.0230   -4.2450 C   0  0  2  0  0  0  0  0  0  0  0  0
   -0.3110   17.5190   -4.7530 C   0  0  0  0  0  0  0  0  0  0  0  0
    0.3150   16.1940   -4.6420 C   0  0  0  0  0  0  0  0  0  0  0  0
    0.4910   13.9730   -4.4300 C   0  0  0  0  0  0  0  0  0  0  0  0
    0.2640   12.5130   -4.3010 C   0  0  0  0  0  0  0  0  0  0  0  0
    1.5540   15.9160   -4.8390 N   0  0  0  0  0  0  0  0  0  0  0  0
    1.6410   14.5570   -4.7100 C   0  0  0  0  0  0  0  0  0  0  0  0
    0.3550   12.0200   -2.8780 C   0  0  0  0  0  0  0  0  0  0  0  0
    0.9060   12.6380   -1.9830 O   0  0  0  0  0  0  0  0  0  0  0  0
   -0.2380   10.8210   -2.6790 O   0  0  0  0  0  0  0  0  0  0  0  0
  1  2  1  0
  2  3  2  0
  1  4  1  0
  2  5  1  0
  4  6  2  0
  4  7  1  0
  6  8  1  0
  7  9  2  0
  5 10  1  0
  8 11  2  0
  9 11  1  0
 10 12  2  0
 10 13  1  0
 12 14  1  0
 13 15  2  0
 11 16  1  0
 14 17  2  0
 15 17  1  0
 16 18  1  0
 18 19  1  0
 19 20  1  0
 20 21  1  0
 21 22  1  0
 22 23  2  0
 22 24  1  0
 25 23  1  6
 24 26  2  0
 25 27  1  0
 26 27  1  0
 25 28  1  0
 28 29  1  0
 27 30  2  0
 28 31  2  0
 30 31  1  0
 29 32  1  0
 32 33  2  0
 32 34  1  0
M  END
