diamond-x0465_0_A-diamond-x0969_0_A
     RDKit          3D

 26 28  0  0  0  0  0  0  0  0999 V2000
    2.0270   13.1790   -4.4810 C   0  0  0  0  0  0  0  0  0  0  0  0
    0.6630   12.5030   -4.3090 C   0  0  1  0  0  0  0  0  0  0  0  0
    0.4970   11.7180   -5.4940 O   0  0  0  0  0  0  0  0  0  0  0  0
    0.6630   11.7340   -2.9590 C   0  0  0  0  0  0  0  0  0  0  0  0
    0.3270   12.2310   -1.8180 N   0  0  0  0  0  0  0  0  0  0  0  0
    1.0440   10.4640   -3.0690 O   0  0  0  0  0  0  0  0  0  0  0  0
   -0.7120   11.0780   -5.6990 C   0  0  0  0  0  0  0  0  0  0  0  0
   -0.1090   13.5860   -1.7670 C   0  0  0  0  0  0  0  0  0  0  0  0
   -1.0050   10.3890   -6.8820 C   0  0  0  0  0  0  0  0  0  0  0  0
   -1.6660   11.1120   -4.6870 C   0  0  0  0  0  0  0  0  0  0  0  0
   -0.1100   10.3320   -7.8740 F   0  0  0  0  0  0  0  0  0  0  0  0
   -1.5160   13.5790   -2.3570 C   0  0  0  0  0  0  0  0  0  0  0  0
   -2.2160    9.7380   -7.0540 C   0  0  0  0  0  0  0  0  0  0  0  0
   -2.8920   10.4600   -4.8560 C   0  0  0  0  0  0  0  0  0  0  0  0
   -2.1990   14.8980   -2.1360 C   0  0  0  0  0  0  0  0  0  0  0  0
   -3.1650    9.7710   -6.0400 C   0  0  0  0  0  0  0  0  0  0  0  0
   -3.3800   14.9130   -1.2270 C   0  0  0  0  0  0  0  0  0  0  0  0
   -4.6420   14.7970   -1.6850 C   0  0  0  0  0  0  0  0  0  0  0  0
   -3.1080   15.0480    0.2040 C   0  0  0  0  0  0  0  0  0  0  0  0
   -5.7230   14.7600   -0.7670 C   0  0  0  0  0  0  0  0  0  0  0  0
   -4.1240   15.0260    1.0680 C   0  0  0  0  0  0  0  0  0  0  0  0
   -7.0160   14.6260   -0.9210 N   0  0  0  0  0  0  0  0  0  0  0  0
   -5.4200   14.8640    0.5800 N   0  0  0  0  0  0  0  0  0  0  0  0
   -6.6340   14.7650    1.2200 C   0  0  0  0  0  0  0  0  0  0  0  0
   -7.5900   14.6270    0.3300 N   0  0  0  0  0  0  0  0  0  0  0  0
   -6.7710   14.8150    2.5590 N   0  0  0  0  0  0  0  0  0  0  0  0
  2  1  1  6
  2  3  1  0
  2  4  1  0
  4  5  2  3
  4  6  1  0
  3  7  1  0
  5  8  1  0
  7  9  2  0
  7 10  1  0
  9 11  1  0
  8 12  1  0
  9 13  1  0
 10 14  2  0
 12 15  1  0
 13 16  2  0
 14 16  1  0
 15 17  1  0
 17 18  2  0
 17 19  1  0
 18 20  1  0
 19 21  2  0
 20 22  2  0
 20 23  1  0
 21 23  1  0
 23 24  1  0
 22 25  1  0
 24 25  2  0
 24 26  1  0
M  END
