diamond-x0722_0_A-diamond-x0849_0_A
     RDKit          3D

 17 18  0  0  0  0  0  0  0  0999 V2000
   -4.8000   15.3670    1.6580 C   0  0  0  0  0  0  0  0  0  0  0  0
   -3.5520   14.8230    1.0840 C   0  0  0  0  0  0  0  0  0  0  0  0
   -2.5310   14.6220    1.8600 N   0  0  0  0  0  0  0  0  0  0  0  0
   -3.4500   14.4460   -0.3960 C   0  0  1  0  0  0  0  0  0  0  0  0
   -4.5550   13.5000   -0.8180 C   0  0  0  0  0  0  0  0  0  0  0  0
   -3.6350   15.7910   -1.7570 Br  0  0  0  0  0  0  0  0  0  0  0  0
   -1.9440   14.0190   -0.4960 C   0  0  1  0  0  0  0  0  0  0  0  0
   -1.4490   14.2240    0.9880 C   0  0  2  0  0  0  0  0  0  0  0  0
   -0.2170   13.6010    1.5840 C   0  0  0  0  0  0  0  0  0  0  0  0
   -1.6500   12.7530   -1.2810 C   0  0  0  0  0  0  0  0  0  0  0  0
   -5.9800   13.9520   -0.5230 C   0  0  0  0  0  0  0  0  0  0  0  0
   -0.9010   15.4660    1.2420 N   0  0  0  0  0  0  0  0  0  0  0  0
   -1.1690   14.9380   -1.4400 C   0  0  0  0  0  0  0  0  0  0  0  0
   -6.6130   14.8420   -1.0820 O   0  0  0  0  0  0  0  0  0  0  0  0
   -6.5530   13.2420    0.4840 N   0  0  0  0  0  0  0  0  0  0  0  0
   -0.4860   16.1940    0.3810 C   0  0  0  0  0  0  0  0  0  0  0  0
   -0.4680   15.9580   -1.0370 C   0  0  0  0  0  0  0  0  0  0  0  0
  1  2  1  0
  2  3  2  0
  2  4  1  0
  4  5  1  6
  4  6  1  0
  4  7  1  0
  3  8  1  0
  7  8  1  0
  8  9  1  1
  7 10  1  6
  5 11  1  0
  8 12  1  0
  7 13  1  0
 11 14  2  0
 11 15  1  0
 12 16  2  0
 13 17  2  0
 16 17  1  0
M  END
