diamond-x0104_0_A-mac-x0328
     RDKit          3D

 19 20  0  0  0  0  0  0  0  0999 V2000
   -6.7290   14.6140    2.5550 N   0  0  0  0  0  0  0  0  0  0  0  0
   -7.9160   15.0290    3.0610 C   0  0  0  0  0  0  0  0  0  0  0  0
   -8.0470   14.9500    4.4150 N   0  0  0  0  0  0  0  0  0  0  0  0
   -6.1900   14.7060    1.2570 C   0  0  0  0  0  0  0  0  0  0  0  0
   -8.8750   15.4580    2.4170 O   0  0  0  0  0  0  0  0  0  0  0  0
   -4.7970   14.7430    1.1120 C   0  0  0  0  0  0  0  0  0  0  0  0
   -6.9470   14.7670    0.0910 C   0  0  0  0  0  0  0  0  0  0  0  0
   -4.1340   14.8320   -0.0720 N   0  0  0  0  0  0  0  0  0  0  0  0
   -6.3040   14.8640   -1.1440 C   0  0  0  0  0  0  0  0  0  0  0  0
   -9.1630   14.9930    5.2390 C   0  0  0  0  0  0  0  0  0  0  0  0
   -4.9140   14.8920   -1.1730 C   0  0  0  0  0  0  0  0  0  0  0  0
   -9.1500   15.1420    6.6130 C   0  0  0  0  0  0  0  0  0  0  0  0
  -10.7500   14.8620    4.6480 S   0  0  0  0  0  0  0  0  0  0  0  0
   -4.2870   14.9880   -2.4280 O   0  0  0  0  0  0  0  0  0  0  0  0
  -11.4370   15.0010    6.2040 C   0  0  0  0  0  0  0  0  0  0  0  0
  -10.4650   15.1480    7.1730 C   0  0  0  0  0  0  0  0  0  0  0  0
   -2.9100   14.8470   -2.3870 C   0  0  0  0  0  0  0  0  0  0  0  0
   -2.4160   14.9220   -3.6490 O   0  0  0  0  0  0  0  0  0  0  0  0
   -2.1210   14.6850   -1.4600 O   0  0  0  0  0  0  0  0  0  0  0  0
  1  2  1  0
  2  3  1  0
  1  4  1  0
  2  5  2  0
  4  6  2  0
  4  7  1  0
  6  8  1  0
  7  9  2  0
  3 10  1  0
  8 11  2  0
  9 11  1  0
 10 12  2  0
 10 13  1  0
 11 14  1  0
 13 15  1  0
 12 16  1  0
 15 16  2  0
 14 17  1  0
 17 18  1  0
 17 19  2  0
M  END
