diamond-x0837_0_A-mac-x0302
     RDKit          3D

 14 14  0  0  0  0  0  0  0  0999 V2000
   -7.6500   14.5000    0.1520 O   0  0  0  0  0  0  0  0  0  0  0  0
   -6.4700   14.8450    0.1860 C   0  0  0  0  0  0  0  0  0  0  0  0
   -5.7750   14.8300    1.4600 N   0  0  0  0  0  0  0  0  0  0  0  0
   -5.7450   15.2910   -1.0230 C   0  0  0  0  0  0  0  0  0  0  0  0
   -4.3670   15.1300    1.3810 C   0  0  0  0  0  0  0  0  0  0  0  0
   -4.4020   14.6640   -0.9590 C   0  0  1  0  0  0  0  0  0  0  0  0
   -3.3000   15.0350   -2.7010 I   0  0  1  0  0  0  0  0  0  0  0  0
   -3.7140   15.0540    0.2640 C   0  0  0  0  0  0  0  0  0  0  0  0
   -1.4530   14.2930   -2.3560 N   0  0  0  0  0  0  0  0  0  0  0  0
   -4.0690   14.2770   -4.1180 O   0  0  0  0  0  0  0  0  0  0  0  0
   -0.5120   14.5740   -3.3980 C   0  0  0  0  0  0  0  0  0  0  0  0
    0.8070   14.0980   -3.0000 C   0  0  0  0  0  0  0  0  0  0  0  0
    1.8230   14.0100   -3.9050 O   0  0  0  0  0  0  0  0  0  0  0  0
    0.9950   13.7700   -1.8170 O   0  0  0  0  0  0  0  0  0  0  0  0
  1  2  2  0
  2  3  1  0
  2  4  1  0
  3  5  1  0
  6  4  1  6
  6  7  1  0
  5  8  2  0
  6  8  1  0
  7  9  1  1
  7 10  2  0
  9 11  1  0
 11 12  1  0
 12 13  1  0
 12 14  2  0
M  END
