diamond-x0421_0_A-mac-x0148
     RDKit          3D

 25 29  0  0  0  0  0  0  0  0999 V2000
   -4.3420   14.4870   -3.2270 N   0  0  0  0  0  0  0  0  0  0  0  0
   -3.5480   14.1700   -2.1690 C   0  0  0  0  0  0  0  0  0  0  0  0
   -2.5890   13.4190   -2.2940 O   0  0  0  0  0  0  0  0  0  0  0  0
   -3.9060   14.7960   -0.8400 C   0  0  2  0  0  0  0  0  0  0  0  0
   -2.8000   15.0260    0.1790 C   0  0  1  0  0  0  0  0  0  0  0  0
   -4.8560   13.9800   -0.1010 N   0  0  0  0  0  0  0  0  0  0  0  0
   -3.7280   15.5610    1.2000 N   0  0  0  0  0  0  0  0  0  0  0  0
   -4.6850   14.4120    1.2630 C   0  0  1  0  0  0  0  0  0  0  0  0
   -2.0470   13.9990    0.8950 N   0  0  0  0  0  0  0  0  0  0  0  0
   -1.7430   15.8190   -0.5780 C   0  0  0  0  0  0  0  0  0  0  0  0
   -6.0240   14.7090    1.8630 C   0  0  0  0  0  0  0  0  0  0  0  0
   -0.6240   14.3430    1.0550 C   0  0  0  0  0  0  0  0  0  0  0  0
   -0.9180   14.6870   -1.2400 C   0  0  1  0  0  0  0  0  0  0  0  0
   -7.3310   14.6840    1.0790 C   0  0  0  0  0  0  0  0  0  0  0  0
   -7.0230   13.5810    2.0400 C   0  0  0  0  0  0  0  0  0  0  0  0
   -0.3710   14.6820   -2.6190 N   0  0  0  0  0  0  0  0  0  0  0  0
    0.0440   14.3470   -0.2250 N   0  0  0  0  0  0  0  0  0  0  0  0
   -1.3950   14.5410   -3.7190 C   0  0  1  0  0  0  0  0  0  0  0  0
    0.5810   13.5460   -2.7260 C   0  0  0  0  0  0  0  0  0  0  0  0
   -2.2420   15.6680   -4.3340 C   0  0  0  0  0  0  0  0  0  0  0  0
   -0.9720   13.8590   -5.0270 C   0  0  2  0  0  0  0  0  0  0  0  0
   -0.0440   12.2910   -3.3580 C   0  0  0  0  0  0  0  0  0  0  0  0
   -2.3150   13.7980   -5.7190 C   0  0  0  0  0  0  0  0  0  0  0  0
   -2.8630   15.1120   -5.5290 O   0  0  0  0  0  0  0  0  0  0  0  0
   -0.2890   12.5190   -4.8410 C   0  0  0  0  0  0  0  0  0  0  0  0
  1  2  1  0
  2  3  2  0
  4  2  1  6
  4  5  1  0
  4  6  1  0
  5  7  1  0
  6  8  1  0
  7  8  1  0
  5  9  1  0
  5 10  1  6
  8 11  1  6
  9 12  1  0
 10 13  1  0
 11 14  1  0
 11 15  1  0
 14 15  1  0
 13 16  1  6
 12 17  1  0
 13 17  1  0
 16 18  1  0
 16 19  1  0
 18 20  1  6
 18 21  1  0
 19 22  1  0
 21 23  1  6
 20 24  1  0
 23 24  1  0
 21 25  1  0
 22 25  1  0
M  END
