diamond-x0681_0_A-mac-x0303
     RDKit          3D

 21 23  0  0  0  0  0  0  0  0999 V2000
   -3.9320   13.2920   -3.3960 N   0  0  0  0  0  0  0  0  0  0  0  0
   -3.2220   13.3450   -2.2440 C   0  0  0  0  0  0  0  0  0  0  0  0
   -2.0230   13.1410   -2.2400 O   0  0  0  0  0  0  0  0  0  0  0  0
   -4.0490   13.7360   -1.0540 C   0  0  1  0  0  0  0  0  0  0  0  0
   -4.7960   12.7090   -0.2580 C   0  0  1  0  0  0  0  0  0  0  0  0
   -3.4380   14.9550   -0.4860 C   0  0  2  0  0  0  0  0  0  0  0  0
   -6.2070   13.1950    0.2180 C   0  0  2  0  0  0  0  0  0  0  0  0
   -4.3800   15.6700    0.4550 C   0  0  2  0  0  0  0  0  0  0  0  0
   -5.2340   11.5680   -1.0450 N   0  0  0  0  0  0  0  0  0  0  0  0
   -3.4310   15.5960   -1.8630 C   0  0  0  0  0  0  0  0  0  0  0  0
   -6.3000   14.3470    1.2170 C   0  0  2  0  0  0  0  0  0  0  0  0
   -4.9510   14.9240    1.6760 C   0  0  0  0  0  0  0  0  0  0  0  0
   -6.9190   11.8930    0.3920 C   0  0  0  0  0  0  0  0  0  0  0  0
   -6.3050   11.0100   -0.3960 C   0  0  0  0  0  0  0  0  0  0  0  0
   -4.6900   15.2560   -2.5330 C   0  0  0  0  0  0  0  0  0  0  0  0
   -5.6420   15.9250   -0.4370 C   0  0  0  0  0  0  0  0  0  0  0  0
   -7.8280   14.3970    2.2520 S   0  0  0  0  0  0  0  0  0  0  0  0
   -5.7600   15.4070   -1.8180 C   0  0  0  0  0  0  0  0  0  0  0  0
   -7.8200   12.9350    3.0560 N   0  0  0  0  0  0  0  0  0  0  0  0
   -7.7600   15.3960    3.2870 O   0  0  0  0  0  0  0  0  0  0  0  0
   -9.0020   14.3350    1.3970 O   0  0  0  0  0  0  0  0  0  0  0  0
  1  2  1  0
  2  3  2  0
  4  2  1  1
  4  5  1  0
  4  6  1  0
  5  7  1  0
  6  8  1  0
  5  9  1  6
  6 10  1  6
  7 11  1  0
  8 12  1  1
 11 12  1  0
  7 13  1  1
  9 14  1  0
 13 14  2  0
 10 15  1  0
  8 16  1  0
 11 17  1  1
 15 18  2  0
 16 18  1  0
 17 19  1  0
 17 20  2  0
 17 21  2  0
M  END
