diamond-x0282_0_A-diamond-x1015_0_A
     RDKit          3D

 29 32  0  0  0  0  0  0  0  0999 V2000
   -7.0890   13.4510    0.4540 C   0  0  0  0  0  0  0  0  0  0  0  0
   -8.4700   13.7570    0.2550 O   0  0  0  0  0  0  0  0  0  0  0  0
   -6.3170   14.7510    0.2710 C   0  0  0  0  0  0  0  0  0  0  0  0
   -5.3690   15.0480    1.4520 C   0  0  0  0  0  0  0  0  0  0  0  0
   -5.5690   14.8760   -1.0570 C   0  0  0  0  0  0  0  0  0  0  0  0
   -4.0900   14.2430    1.4010 C   0  0  0  0  0  0  0  0  0  0  0  0
   -4.1550   14.2780   -1.0400 C   0  0  0  0  0  0  0  0  0  0  0  0
   -3.4710   14.5710    0.2080 N   0  0  0  0  0  0  0  0  0  0  0  0
   -2.1190   14.6540    0.2150 C   0  0  0  0  0  0  0  0  0  0  0  0
   -1.5730   14.7570   -0.9620 N   0  0  0  0  0  0  0  0  0  0  0  0
   -1.4200   14.6320    1.3780 N   0  0  0  0  0  0  0  0  0  0  0  0
   -0.2730   14.8570   -1.0340 C   0  0  0  0  0  0  0  0  0  0  0  0
   -0.0890   14.7340    1.2380 C   0  0  0  0  0  0  0  0  0  0  0  0
    0.1850   14.9460   -2.3150 N   0  0  0  0  0  0  0  0  0  0  0  0
    0.5330   14.8590    0.0220 C   0  0  0  0  0  0  0  0  0  0  0  0
    0.2120   13.8180   -2.8710 C   0  0  0  0  0  0  0  0  0  0  0  0
    0.5260   13.4130   -4.2760 C   0  0  2  0  0  0  0  0  0  0  0  0
   -0.1140   12.7330   -2.1260 N   0  0  0  0  0  0  0  0  0  0  0  0
   -0.4960   14.1390   -5.1510 C   0  0  0  0  0  0  0  0  0  0  0  0
    0.2460   11.9840   -4.1530 N   0  0  0  0  0  0  0  0  0  0  0  0
    0.1840   11.6060   -2.8090 C   0  0  0  0  0  0  0  0  0  0  0  0
    0.3540   10.5040   -2.2830 O   0  0  0  0  0  0  0  0  0  0  0  0
   -0.3060   11.2450   -5.2130 C   0  0  0  0  0  0  0  0  0  0  0  0
    0.1540   11.4470   -6.5170 C   0  0  0  0  0  0  0  0  0  0  0  0
   -1.3160   10.2970   -5.0010 C   0  0  0  0  0  0  0  0  0  0  0  0
   -0.3710   10.7220   -7.5840 C   0  0  0  0  0  0  0  0  0  0  0  0
   -1.8460    9.5680   -6.0660 C   0  0  0  0  0  0  0  0  0  0  0  0
   -1.3700    9.7830   -7.3510 C   0  0  0  0  0  0  0  0  0  0  0  0
   -2.0160    8.8870   -8.6660 Cl  0  0  0  0  0  0  0  0  0  0  0  0
  1  2  1  0
  1  3  1  0
  3  4  1  0
  3  5  1  0
  4  6  1  0
  5  7  1  0
  6  8  1  0
  7  8  1  0
  8  9  1  0
  9 10  2  0
  9 11  1  0
 10 12  1  0
 11 13  2  0
 12 14  1  0
 12 15  2  0
 13 15  1  0
 14 16  2  3
 16 17  1  0
 16 18  1  0
 17 19  1  6
 17 20  1  0
 18 21  1  0
 20 21  1  0
 21 22  2  0
 20 23  1  0
 23 24  2  0
 23 25  1  0
 24 26  1  0
 25 27  2  0
 26 28  2  0
 27 28  1  0
 28 29  1  0
M  END
