diamond-x0471_0_A-mac-x0411
     RDKit          3D

 32 34  0  0  0  0  0  0  0  0999 V2000
   -8.8180   14.1010    2.8700 N   0  0  0  0  0  0  0  0  0  0  0  0
   -9.1670   15.1510    3.6920 C   0  0  0  0  0  0  0  0  0  0  0  0
   -9.4230   16.2610    3.2400 O   0  0  0  0  0  0  0  0  0  0  0  0
   -8.8540   14.2700    1.4270 C   0  0  0  0  0  0  0  0  0  0  0  0
   -9.2510   14.8300    5.1840 C   0  0  0  0  0  0  0  0  0  0  0  0
   -7.4790   14.5450    0.9190 C   0  0  0  0  0  0  0  0  0  0  0  0
   -9.6440   13.3770    5.4260 C   0  0  0  0  0  0  0  0  0  0  0  0
   -7.9650   15.1960    5.9150 C   0  0  0  0  0  0  0  0  0  0  0  0
   -7.2080   14.6860   -0.4230 N   0  0  0  0  0  0  0  0  0  0  0  0
   -6.3860   14.6890    1.6310 N   0  0  0  0  0  0  0  0  0  0  0  0
   -5.3740   14.9260    0.7350 C   0  0  0  0  0  0  0  0  0  0  0  0
   -5.8650   14.9270   -0.5620 C   0  0  0  0  0  0  0  0  0  0  0  0
   -5.0630   15.1380   -1.6780 C   0  0  0  0  0  0  0  0  0  0  0  0
   -4.0080   15.1500    0.9590 C   0  0  0  0  0  0  0  0  0  0  0  0
   -3.6930   15.3510   -1.4550 C   0  0  0  0  0  0  0  0  0  0  0  0
   -3.1750   15.3620   -0.1480 C   0  0  0  0  0  0  0  0  0  0  0  0
   -2.7970   15.5560   -2.6500 C   0  0  0  0  0  0  0  0  0  0  0  0
   -1.8830   14.3580   -2.9490 C   0  0  0  0  0  0  0  0  0  0  0  0
   -2.4960   13.2610   -3.8430 C   0  0  0  0  0  0  0  0  0  0  0  0
   -1.4590   12.8530   -4.8920 C   0  0  0  0  0  0  0  0  0  0  0  0
   -1.5830   11.4540   -5.4820 C   0  0  0  0  0  0  0  0  0  0  0  0
   -0.5040   10.8460   -6.1750 C   0  0  0  0  0  0  0  0  0  0  0  0
   -2.7860   10.7300   -5.3570 C   0  0  0  0  0  0  0  0  0  0  0  0
    0.6910   11.5240   -6.3140 O   0  0  0  0  0  0  0  0  0  0  0  0
   -2.9190    9.4510   -5.9010 C   0  0  0  0  0  0  0  0  0  0  0  0
   -0.6610    9.5590   -6.7260 C   0  0  0  0  0  0  0  0  0  0  0  0
    0.5910    8.7610   -7.6070 Cl  0  0  0  0  0  0  0  0  0  0  0  0
    1.0860   12.4370   -5.2780 C   0  0  0  0  0  0  0  0  0  0  0  0
   -1.8590    8.8670   -6.5860 C   0  0  0  0  0  0  0  0  0  0  0  0
    0.8990   11.9050   -3.8460 C   0  0  0  0  0  0  0  0  0  0  0  0
    1.3660   12.7570   -2.8970 O   0  0  0  0  0  0  0  0  0  0  0  0
    0.4030   10.8350   -3.5290 O   0  0  0  0  0  0  0  0  0  0  0  0
  1  2  1  0
  2  3  2  0
  1  4  1  0
  2  5  1  0
  4  6  1  0
  5  7  1  0
  5  8  1  0
  6  9  1  0
  6 10  2  0
 10 11  1  0
  9 12  1  0
 11 12  2  0
 12 13  1  0
 11 14  1  0
 13 15  2  0
 14 16  2  0
 15 16  1  0
 15 17  1  0
 17 18  1  0
 18 19  1  0
 19 20  1  0
 20 21  1  0
 21 22  2  0
 21 23  1  0
 22 24  1  0
 23 25  2  0
 22 26  1  0
 26 27  1  0
 24 28  1  0
 25 29  1  0
 26 29  2  0
 28 30  1  0
 30 31  1  0
 30 32  2  0
M  END
