diamond-x0852_0_B-diamond-x0371_0_A
     RDKit          3D

 27 30  0  0  0  0  0  0  0  0999 V2000
  -10.6360   18.7500    6.5370 N   0  0  0  0  0  0  0  0  0  0  0  0
  -10.3690   18.1700    5.5800 C   0  0  0  0  0  0  0  0  0  0  0  0
   -9.9750   17.2200    4.6180 C   0  0  0  0  0  0  0  0  0  0  0  0
   -9.3250   16.2540    5.1740 C   0  0  0  0  0  0  0  0  0  0  0  0
  -10.1650   17.1370    3.2470 C   0  0  0  0  0  0  0  0  0  0  0  0
   -9.1020   16.2460    6.5270 O   0  0  0  0  0  0  0  0  0  0  0  0
   -8.8460   15.2220    4.5250 C   0  0  0  0  0  0  0  0  0  0  0  0
   -9.6690   16.0750    2.5040 C   0  0  0  0  0  0  0  0  0  0  0  0
  -10.8320   18.0630    2.5660 O   0  0  0  0  0  0  0  0  0  0  0  0
  -10.0710   16.2090    0.6390 Br  0  0  0  0  0  0  0  0  0  0  0  0
   -8.9540   15.0310    3.1560 C   0  0  0  0  0  0  0  0  0  0  0  0
   -8.3420   14.5820    5.6180 C   0  0  0  0  0  0  0  0  0  0  0  0
   -7.9520   13.3210    5.6140 O   0  0  0  0  0  0  0  0  0  0  0  0
   -8.2370   15.1870    6.8370 C   0  0  0  0  0  0  0  0  0  0  0  0
   -8.4080   13.9000    2.5490 N   0  0  0  0  0  0  0  0  0  0  0  0
   -7.7620   14.2350    7.6780 C   0  0  0  0  0  0  0  0  0  0  0  0
   -7.5980   13.1120    6.8950 C   0  0  0  0  0  0  0  0  0  0  0  0
   -8.3940   13.9560    1.1100 C   0  0  0  0  0  0  0  0  0  0  0  0
   -7.0860   14.2940    0.5160 C   0  0  0  0  0  0  0  0  0  0  0  0
   -5.8990   14.2770    1.2160 N   0  0  0  0  0  0  0  0  0  0  0  0
   -6.8970   14.6370   -0.7330 N   0  0  0  0  0  0  0  0  0  0  0  0
   -5.5600   14.8310   -0.8570 C   0  0  0  0  0  0  0  0  0  0  0  0
   -4.9070   14.6100    0.3500 C   0  0  0  0  0  0  0  0  0  0  0  0
   -3.5390   14.7270    0.5180 C   0  0  0  0  0  0  0  0  0  0  0  0
   -4.8250   15.1920   -1.9780 C   0  0  0  0  0  0  0  0  0  0  0  0
   -2.8190   15.0770   -0.6180 C   0  0  0  0  0  0  0  0  0  0  0  0
   -3.4490   15.3100   -1.8490 C   0  0  0  0  0  0  0  0  0  0  0  0
  1  2  3  0
  2  3  1  0
  3  4  2  0
  3  5  1  0
  4  6  1  0
  4  7  1  0
  5  8  2  0
  5  9  1  0
  8 10  1  0
  7 11  2  0
  8 11  1  0
  7 12  1  0
 12 13  1  0
 12 14  2  0
 11 15  1  0
 14 16  1  0
 13 17  1  0
 16 17  2  0
 15 18  1  0
 18 19  1  0
 19 20  1  0
 19 21  2  0
 21 22  1  0
 20 23  1  0
 22 23  2  0
 23 24  1  0
 22 25  1  0
 24 26  2  0
 25 27  2  0
 26 27  1  0
M  END
