diamond-x0849_0_A-mac-x0338
     RDKit          3D

 19 21  0  0  0  0  0  0  0  0999 V2000
   -2.4340   15.8920   -3.0500 Br  0  0  0  0  0  0  0  0  0  0  0  0
   -2.7920   15.4630   -1.2350 C   0  0  0  0  0  0  0  0  0  0  0  0
   -1.8050   15.2000   -0.3350 C   0  0  0  0  0  0  0  0  0  0  0  0
   -4.0630   15.3900   -0.8160 C   0  0  0  0  0  0  0  0  0  0  0  0
   -2.1570   14.8580    0.9910 C   0  0  0  0  0  0  0  0  0  0  0  0
   -4.2990   15.0360    0.4900 C   0  0  0  0  0  0  0  0  0  0  0  0
   -0.4790   15.2560   -0.6990 C   0  0  0  0  0  0  0  0  0  0  0  0
   -3.3990   14.7780    1.4190 N   0  0  0  0  0  0  0  0  0  0  0  0
   -1.2590   14.5860    1.8730 N   0  0  0  0  0  0  0  0  0  0  0  0
    0.4500   14.9710    0.2230 C   0  0  0  0  0  0  0  0  0  0  0  0
   -5.7080   14.9480    0.6390 C   0  0  0  0  0  0  0  0  0  0  0  0
    0.0060   14.6370    1.4930 C   0  0  0  0  0  0  0  0  0  0  0  0
   -6.4350   15.0240    1.6260 O   0  0  0  0  0  0  0  0  0  0  0  0
   -6.0290   14.7200   -0.7480 C   0  0  0  0  0  0  0  0  0  0  0  0
   -4.9580   14.1670   -1.3940 N   0  0  0  0  0  0  0  0  0  0  0  0
   -7.2050   15.0140   -1.3790 C   0  0  0  0  0  0  0  0  0  0  0  0
   -5.0970   13.9320   -2.6980 C   0  0  0  0  0  0  0  0  0  0  0  0
   -7.3480   14.7600   -2.7060 N   0  0  0  0  0  0  0  0  0  0  0  0
   -6.2730   14.2260   -3.3460 C   0  0  0  0  0  0  0  0  0  0  0  0
  1  2  1  0
  2  3  2  0
  2  4  1  0
  3  5  1  0
  4  6  2  0
  3  7  1  0
  5  8  2  0
  6  8  1  0
  5  9  1  0
  7 10  2  0
  6 11  1  0
  9 12  2  0
 10 12  1  0
 11 13  2  0
 11 14  1  0
 14 15  2  0
 14 16  1  0
 15 17  1  0
 16 18  2  0
 17 19  2  0
 18 19  1  0
M  END
