diamond-x0626_0_A-mac-x0441
     RDKit          3D

 31 33  0  0  0  0  0  0  0  0999 V2000
   -5.0760   14.8220    1.2780 N   0  0  0  0  0  0  0  0  0  0  0  0
   -6.3230   14.6480    0.8030 C   0  0  0  0  0  0  0  0  0  0  0  0
   -6.4680   14.7410   -0.4230 O   0  0  0  0  0  0  0  0  0  0  0  0
   -3.8980   14.8300    0.6210 C   0  0  0  0  0  0  0  0  0  0  0  0
   -7.5000   14.3610    1.7000 C   0  0  0  0  0  0  0  0  0  0  0  0
   -2.7650   14.7820    1.2720 N   0  0  0  0  0  0  0  0  0  0  0  0
   -3.8040   14.8950   -1.0710 S   0  0  0  0  0  0  0  0  0  0  0  0
   -8.8190   14.6470    1.0000 C   0  0  0  0  0  0  0  0  0  0  0  0
   -2.1160   14.8500   -0.9560 C   0  0  0  0  0  0  0  0  0  0  0  0
   -1.7390   14.8000    0.3640 C   0  0  0  0  0  0  0  0  0  0  0  0
   -0.3430   14.7590    0.7990 C   0  0  0  0  0  0  0  0  0  0  0  0
    0.3390   13.8200   -0.1660 C   0  0  0  0  0  0  0  0  0  0  0  0
    1.3730   14.3860   -1.1410 C   0  0  0  0  0  0  0  0  0  0  0  0
    1.9900   13.3090   -2.0320 C   0  0  0  0  0  0  0  0  0  0  0  0
    1.4200   13.5300   -3.3190 N   0  0  0  0  0  0  0  0  0  0  0  0
    0.8080   12.5710   -3.8870 C   0  0  0  0  0  0  0  0  0  0  0  0
    0.6580   11.3300   -3.3660 O   0  0  0  0  0  0  0  0  0  0  0  0
    0.2180   12.9110   -5.2110 C   0  0  0  0  0  0  0  0  0  0  0  0
    0.0390   11.8260   -6.1350 N   0  0  0  0  0  0  0  0  0  0  0  0
    0.8090   11.8340   -7.2480 N   0  0  0  0  0  0  0  0  0  0  0  0
   -0.8070   10.7750   -6.0850 C   0  0  0  0  0  0  0  0  0  0  0  0
    0.4160   10.7440   -7.9370 C   0  0  0  0  0  0  0  0  0  0  0  0
   -0.5920   10.0550   -7.2310 C   0  0  0  0  0  0  0  0  0  0  0  0
   -1.7950   10.4340   -5.0370 C   0  0  0  0  0  0  0  0  0  0  0  0
    0.9570   10.3190   -9.2780 C   0  0  0  0  0  0  0  0  0  0  0  0
   -1.3330    8.8120   -7.5790 C   0  0  0  0  0  0  0  0  0  0  0  0
   -2.9210    9.6380   -5.7190 C   0  0  0  0  0  0  0  0  0  0  0  0
    1.6720    9.1660   -9.2030 F   0  0  0  0  0  0  0  0  0  0  0  0
   -0.0560   10.0710  -10.1390 F   0  0  0  0  0  0  0  0  0  0  0  0
    1.7080   11.2380   -9.9150 F   0  0  0  0  0  0  0  0  0  0  0  0
   -2.3670    8.4280   -6.4970 C   0  0  0  0  0  0  0  0  0  0  0  0
  1  2  1  0
  2  3  2  0
  1  4  1  0
  2  5  1  0
  4  6  2  0
  4  7  1  0
  5  8  1  0
  7  9  1  0
  6 10  1  0
  9 10  2  0
 10 11  1  0
 11 12  1  0
 12 13  1  0
 13 14  1  0
 14 15  1  0
 15 16  2  3
 16 17  1  0
 16 18  1  0
 18 19  1  0
 19 20  1  0
 19 21  1  0
 20 22  2  0
 21 23  2  0
 22 23  1  0
 21 24  1  0
 22 25  1  0
 23 26  1  0
 24 27  1  0
 25 28  1  0
 25 29  1  0
 25 30  1  0
 26 31  1  0
 27 31  1  0
M  END
