diamond-x0290_0_A-mac-x0439
     RDKit          3D

 27 29  0  0  0  0  0  0  0  0999 V2000
   -7.7350   13.7840    0.9030 N   0  0  0  0  0  0  0  0  0  0  0  0
   -8.5890   14.9540    0.7600 C   0  0  0  0  0  0  0  0  0  0  0  0
   -6.5100   14.0720    1.6720 C   0  0  0  0  0  0  0  0  0  0  0  0
   -5.3470   14.4940    0.7600 C   0  0  0  0  0  0  0  0  0  0  0  0
   -5.5070   14.6060   -0.4480 O   0  0  0  0  0  0  0  0  0  0  0  0
   -4.1740   14.6990    1.4550 N   0  0  0  0  0  0  0  0  0  0  0  0
   -2.8940   14.5500    0.9270 C   0  0  0  0  0  0  0  0  0  0  0  0
   -1.8850   14.5670    1.8330 N   0  0  0  0  0  0  0  0  0  0  0  0
   -2.6730   14.3870   -0.4240 C   0  0  0  0  0  0  0  0  0  0  0  0
   -0.6250   14.4310    1.3570 C   0  0  0  0  0  0  0  0  0  0  0  0
   -1.3700   14.2350   -0.8890 C   0  0  0  0  0  0  0  0  0  0  0  0
   -1.1140   14.0360   -2.3530 C   0  0  0  0  0  0  0  0  0  0  0  0
   -0.3200   14.2640    0.0250 C   0  0  0  0  0  0  0  0  0  0  0  0
   -0.2640   12.7820   -2.6300 C   0  0  0  0  0  0  0  0  0  0  0  0
    1.1620   13.0680   -2.4570 N   0  0  0  0  0  0  0  0  0  0  0  0
    1.6040   14.1540   -2.9400 C   0  0  0  0  0  0  0  0  0  0  0  0
    2.9300   14.3610   -2.7200 O   0  0  0  0  0  0  0  0  0  0  0  0
    0.9590   15.2730   -3.6960 C   0  0  0  0  0  0  0  0  0  0  0  0
   -0.3350   15.5970   -3.5990 C   0  0  0  0  0  0  0  0  0  0  0  0
    1.6210   16.1040   -4.5520 N   0  0  0  0  0  0  0  0  0  0  0  0
   -0.6090   16.8050   -4.4150 C   0  0  1  0  0  0  0  0  0  0  0  0
    0.7530   16.9830   -4.9470 C   0  0  0  0  0  0  0  0  0  0  0  0
   -1.6410   16.9320   -5.4560 C   0  0  0  0  0  0  0  0  0  0  0  0
    0.9250   18.1700   -5.8100 C   0  0  0  0  0  0  0  0  0  0  0  0
   -3.0660   15.9720   -5.3540 Cl  0  0  0  0  0  0  0  0  0  0  0  0
   -1.4300   17.8100   -6.4340 C   0  0  0  0  0  0  0  0  0  0  0  0
   -0.1750   18.5510   -6.5000 C   0  0  0  0  0  0  0  0  0  0  0  0
  1  2  1  0
  1  3  1  0
  3  4  1  0
  4  5  2  0
  4  6  1  0
  6  7  1  0
  7  8  2  0
  7  9  1  0
  8 10  1  0
  9 11  2  0
 11 12  1  0
 10 13  2  0
 11 13  1  0
 12 14  1  0
 14 15  1  0
 15 16  2  3
 16 17  1  0
 16 18  1  0
 18 19  2  0
 18 20  1  0
 21 19  1  6
 20 22  2  0
 21 22  1  0
 21 23  1  0
 22 24  1  0
 23 25  1  0
 23 26  2  0
 24 27  2  0
 26 27  1  0
M  END
