diamond-x0918_4_B-diamond-x0792_0_A
     RDKit          3D

 18 19  0  0  0  0  0  0  0  0999 V2000
   15.2550   22.2780   13.0440 N   0  0  0  0  0  0  0  0  0  0  0  0
   14.1530   21.5950   13.5580 C   0  0  0  0  0  0  0  0  0  0  0  0
   13.7640   20.3550   13.0750 C   0  0  0  0  0  0  0  0  0  0  0  0
   13.4180   22.1750   14.5720 C   0  0  0  0  0  0  0  0  0  0  0  0
   12.3150   21.5450   15.1130 C   0  0  0  0  0  0  0  0  0  0  0  0
   12.6550   19.7590   13.6460 C   0  0  0  0  0  0  0  0  0  0  0  0
   11.6090   22.3500   16.2280 C   0  0  0  0  0  0  0  0  0  0  0  0
   11.9210   20.3150   14.6550 N   0  0  0  0  0  0  0  0  0  0  0  0
   10.7690   21.6110   17.2890 C   0  0  0  0  0  0  0  0  0  0  0  0
    9.5070   22.3190   17.5290 O   0  0  0  0  0  0  0  0  0  0  0  0
    9.5020   23.5490   18.2620 C   0  0  0  0  0  0  0  0  0  0  0  0
    8.4750   24.6800   17.8130 C   0  0  2  0  0  0  0  0  0  0  0  0
    7.5850   25.2270   18.9230 C   0  0  0  0  0  0  0  0  0  0  0  0
    7.6470   24.6360   16.5110 C   0  0  0  0  0  0  0  0  0  0  0  0
    6.1910   24.8850   16.4320 N   0  0  0  0  0  0  0  0  0  0  0  0
    6.6540   26.3090   18.3650 C   0  0  1  0  0  0  0  0  0  0  0  0
    7.4690   27.3530   17.6050 C   0  0  0  0  0  0  0  0  0  0  0  0
    5.5960   25.7250   17.4440 C   0  0  0  0  0  0  0  0  0  0  0  0
  1  2  1  0
  2  3  2  0
  2  4  1  0
  4  5  2  0
  3  6  1  0
  5  7  1  0
  5  8  1  0
  6  8  2  0
  7  9  1  0
  9 10  1  0
 10 11  1  0
 12 11  1  1
 12 13  1  0
 12 14  1  0
 14 15  1  0
 13 16  1  0
 16 17  1  6
 15 18  1  0
 16 18  1  0
M  END
