diamond-x0844_0_A-diamond-x0962_2_B
     RDKit          3D

 17 18  0  0  0  0  0  0  0  0999 V2000
   -6.9980   12.7010   -0.5390 O   0  0  0  0  0  0  0  0  0  0  0  0
   -6.3050   13.6920   -0.6130 C   0  0  0  0  0  0  0  0  0  0  0  0
   -6.4740   14.7680    0.1530 N   0  0  0  0  0  0  0  0  0  0  0  0
   -5.2360   13.8430   -1.6090 C   0  0  0  0  0  0  0  0  0  0  0  0
   -7.6430   15.4540   -0.4610 C   0  0  0  0  0  0  0  0  0  0  0  0
   -5.2790   15.3230    0.6720 C   0  0  0  0  0  0  0  0  0  0  0  0
   -4.1880   14.6120   -1.3210 C   0  0  0  0  0  0  0  0  0  0  0  0
   -2.8180   14.8260   -2.5610 Br  0  0  0  0  0  0  0  0  0  0  0  0
   -9.0060   15.0770    0.1800 C   0  0  0  0  0  0  0  0  0  0  0  0
   -4.1420   15.2600   -0.0350 C   0  0  0  0  0  0  0  0  0  0  0  0
   -9.5580   15.9540    1.3250 C   0  0  1  0  0  0  0  0  0  0  0  0
  -11.0080   15.8840    1.3880 N   0  0  0  0  0  0  0  0  0  0  0  0
   -8.9880   15.5510    2.6530 C   0  0  0  0  0  0  0  0  0  0  0  0
   -9.0300   16.3420    3.7840 N   0  0  0  0  0  0  0  0  0  0  0  0
   -8.3360   14.4080    3.0690 C   0  0  0  0  0  0  0  0  0  0  0  0
   -8.4120   15.6560    4.7930 C   0  0  0  0  0  0  0  0  0  0  0  0
   -7.9910   14.4830    4.3890 N   0  0  0  0  0  0  0  0  0  0  0  0
  1  2  2  0
  2  3  1  0
  2  4  1  0
  3  5  1  0
  3  6  1  0
  4  7  2  0
  7  8  1  0
  5  9  1  0
  6 10  2  0
  7 10  1  0
  9 11  1  0
 11 12  1  1
 11 13  1  0
 13 14  1  0
 13 15  2  0
 14 16  1  0
 15 17  1  0
 16 17  2  0
M  END
