diamond-x0933_0_A-mac-x0572
     RDKit          3D

 14 15  0  0  0  0  0  0  0  0999 V2000
   -5.1240   13.3550    1.6240 N   0  0  0  0  0  0  0  0  0  0  0  0
   -5.3060   14.7080    1.3560 C   0  0  1  0  0  0  0  0  0  0  0  0
   -4.1080   15.3910    1.6810 N   0  0  0  0  0  0  0  0  0  0  0  0
   -5.6870   14.8850    0.0270 N   0  0  0  0  0  0  0  0  0  0  0  0
   -6.2110   15.0350    2.3740 N   0  0  0  0  0  0  0  0  0  0  0  0
   -4.6410   15.2570   -0.9400 C   0  0  0  0  0  0  0  0  0  0  0  0
   -2.9380   14.9510    0.9210 C   0  0  0  0  0  0  0  0  0  0  0  0
   -7.6420   14.8420    2.1560 C   0  0  2  0  0  0  0  0  0  0  0  0
   -7.0060   14.7660   -0.3740 C   0  0  0  0  0  0  0  0  0  0  0  0
   -8.1630   13.6780    3.0010 C   0  0  0  0  0  0  0  0  0  0  0  0
   -7.3420   14.5930   -1.5440 O   0  0  0  0  0  0  0  0  0  0  0  0
   -3.2600   14.7000   -0.5560 C   0  0  0  0  0  0  0  0  0  0  0  0
   -8.1180   14.8560    0.6880 C   0  0  1  0  0  0  0  0  0  0  0  0
   -9.1120   13.8630    0.4870 O   0  0  0  0  0  0  0  0  0  0  0  0
  2  1  1  6
  2  3  1  0
  2  4  1  0
  2  5  1  0
  4  6  1  0
  3  7  1  0
  5  8  1  0
  4  9  1  0
  8 10  1  6
  9 11  2  0
  6 12  1  0
  7 12  1  0
  8 13  1  0
  9 13  1  0
 13 14  1  1
M  END
