diamond-x0628_0_A-mac-x0346
     RDKit          3D

 25 26  0  0  0  0  0  0  0  0999 V2000
   -0.9260    9.0880   -7.3250 C   0  0  0  0  0  0  0  0  0  0  0  0
   -0.9010   10.2650   -6.4340 C   0  0  0  0  0  0  0  0  0  0  0  0
   -1.8650   10.5040   -5.4910 N   0  0  0  0  0  0  0  0  0  0  0  0
    0.0660   11.1830   -6.4830 N   0  0  0  0  0  0  0  0  0  0  0  0
   -0.3100   12.0380   -5.5110 N   0  0  0  0  0  0  0  0  0  0  0  0
   -1.4760   11.6290   -4.9120 C   0  0  0  0  0  0  0  0  0  0  0  0
   -2.1640   12.3520   -3.7880 C   0  0  0  0  0  0  0  0  0  0  0  0
    0.5140   13.2040   -5.2410 C   0  0  0  0  0  0  0  0  0  0  0  0
    1.6260   12.9350   -4.2260 C   0  0  0  0  0  0  0  0  0  0  0  0
   -3.0980   13.4980   -4.1960 C   0  0  0  0  0  0  0  0  0  0  0  0
    1.0900   12.2470   -2.9970 C   0  0  0  0  0  0  0  0  0  0  0  0
   -4.3230   13.6150   -3.2750 C   0  0  0  0  0  0  0  0  0  0  0  0
    0.5720   11.1410   -2.9680 O   0  0  0  0  0  0  0  0  0  0  0  0
    1.2390   12.9860   -1.8790 O   0  0  0  0  0  0  0  0  0  0  0  0
   -4.3700   14.8950   -2.6190 O   0  0  0  0  0  0  0  0  0  0  0  0
   -4.1230   14.9760   -1.2670 C   0  0  0  0  0  0  0  0  0  0  0  0
   -5.2240   15.0120   -0.3780 C   0  0  0  0  0  0  0  0  0  0  0  0
   -2.8290   15.0210   -0.7420 C   0  0  0  0  0  0  0  0  0  0  0  0
   -6.6540   14.9530   -0.8330 C   0  0  0  0  0  0  0  0  0  0  0  0
   -2.6090   15.1090    0.6320 C   0  0  0  0  0  0  0  0  0  0  0  0
   -4.9790   15.1010    1.0070 C   0  0  0  0  0  0  0  0  0  0  0  0
   -7.6250   14.4300    0.0010 N   0  0  0  0  0  0  0  0  0  0  0  0
   -6.9640   15.3360   -1.9540 O   0  0  0  0  0  0  0  0  0  0  0  0
   -3.6800   15.1510    1.5010 C   0  0  0  0  0  0  0  0  0  0  0  0
   -7.5310   14.6920    1.3880 O   0  0  0  0  0  0  0  0  0  0  0  0
  1  2  1  0
  2  3  1  0
  2  4  2  0
  4  5  1  0
  3  6  2  0
  5  6  1  0
  6  7  1  0
  5  8  1  0
  8  9  1  0
  7 10  1  0
  9 11  1  0
 10 12  1  0
 11 13  2  0
 11 14  1  0
 12 15  1  0
 15 16  1  0
 16 17  2  0
 16 18  1  0
 17 19  1  0
 18 20  2  0
 17 21  1  0
 19 22  1  0
 19 23  2  0
 20 24  1  0
 21 24  2  0
 22 25  1  0
M  END
