diamond-x0104_0_A-mac-x0213
     RDKit          3D

 30 33  0  0  0  0  0  0  0  0999 V2000
   -6.8620   14.5150    2.5960 N   0  0  0  0  0  0  0  0  0  0  0  0
   -8.0500   15.0340    3.1070 C   0  0  0  0  0  0  0  0  0  0  0  0
   -7.9960   15.0850    4.4920 N   0  0  0  0  0  0  0  0  0  0  0  0
   -6.2720   14.7240    1.3290 C   0  0  0  0  0  0  0  0  0  0  0  0
   -9.0000   15.3930    2.4240 O   0  0  0  0  0  0  0  0  0  0  0  0
   -4.9130   14.9640    1.1250 C   0  0  0  0  0  0  0  0  0  0  0  0
   -7.0870   14.6970    0.1960 C   0  0  0  0  0  0  0  0  0  0  0  0
   -4.3420   15.1760   -0.0910 N   0  0  0  0  0  0  0  0  0  0  0  0
   -6.5260   14.9130   -1.0670 C   0  0  0  0  0  0  0  0  0  0  0  0
   -9.0990   15.0920    5.3230 C   0  0  0  0  0  0  0  0  0  0  0  0
   -5.1600   15.1480   -1.1570 C   0  0  0  0  0  0  0  0  0  0  0  0
   -9.2380   15.2090    6.6880 C   0  0  0  0  0  0  0  0  0  0  0  0
  -10.5980   14.9230    4.5280 S   0  0  0  0  0  0  0  0  0  0  0  0
   -4.6570   15.3710   -2.4290 O   0  0  0  0  0  0  0  0  0  0  0  0
  -11.4600   15.0030    6.0130 C   0  0  0  0  0  0  0  0  0  0  0  0
  -10.6110   15.1560    7.0860 C   0  0  0  0  0  0  0  0  0  0  0  0
   -3.8820   14.3270   -3.0270 C   0  0  0  0  0  0  0  0  0  0  0  0
   -2.4140   14.4010   -2.6080 C   0  0  0  0  0  0  0  0  0  0  0  0
   -1.4060   14.3940   -3.7770 C   0  0  2  0  0  0  0  0  0  0  0  0
    0.0190   14.2680   -3.1810 C   0  0  1  0  0  0  0  0  0  0  0  0
   -1.2670   15.7040   -4.5190 C   0  0  0  0  0  0  0  0  0  0  0  0
    0.4850   12.8730   -2.8780 C   0  0  0  0  0  0  0  0  0  0  0  0
    0.0850   16.0450   -4.6910 C   0  0  0  0  0  0  0  0  0  0  0  0
    0.9900   15.0080   -4.1120 C   0  0  0  0  0  0  0  0  0  0  0  0
   -2.2570   16.5410   -5.0080 C   0  0  0  0  0  0  0  0  0  0  0  0
   -0.0880   11.8910   -3.6020 O   0  0  0  0  0  0  0  0  0  0  0  0
    1.3120   12.5950   -2.0340 O   0  0  0  0  0  0  0  0  0  0  0  0
   -1.8840   17.7200   -5.6570 C   0  0  0  0  0  0  0  0  0  0  0  0
    0.4590   17.2140   -5.3310 C   0  0  0  0  0  0  0  0  0  0  0  0
   -0.5360   18.0560   -5.8140 C   0  0  0  0  0  0  0  0  0  0  0  0
  1  2  1  0
  2  3  1  0
  1  4  1  0
  2  5  2  0
  4  6  2  0
  4  7  1  0
  6  8  1  0
  7  9  2  0
  3 10  1  0
  8 11  2  0
  9 11  1  0
 10 12  2  0
 10 13  1  0
 11 14  1  0
 13 15  1  0
 12 16  1  0
 15 16  2  0
 14 17  1  0
 17 18  1  0
 19 18  1  1
 19 20  1  0
 19 21  1  0
 20 22  1  6
 21 23  2  0
 20 24  1  0
 23 24  1  0
 21 25  1  0
 22 26  1  0
 22 27  2  0
 25 28  2  0
 23 29  1  0
 28 30  1  0
 29 30  2  0
M  END
