diamond-x0844_0_A-mac-x0163
     RDKit          3D

 24 27  0  0  0  0  0  0  0  0999 V2000
   -7.8040   15.0180   -0.2430 O   0  0  0  0  0  0  0  0  0  0  0  0
   -6.5820   14.9670   -0.1260 C   0  0  0  0  0  0  0  0  0  0  0  0
   -5.9990   14.4570    0.9890 N   0  0  0  0  0  0  0  0  0  0  0  0
   -5.6190   15.4490   -1.1780 C   0  0  0  0  0  0  0  0  0  0  0  0
   -4.9140   13.6510    0.9240 C   0  0  0  0  0  0  0  0  0  0  0  0
   -4.4470   14.4840   -1.3630 C   0  0  1  0  0  0  0  0  0  0  0  0
   -3.2500   15.2030   -1.6250 O   0  0  0  0  0  0  0  0  0  0  0  0
   -4.1590   13.6380   -0.1680 C   0  0  0  0  0  0  0  0  0  0  0  0
   -2.2800   14.8560   -0.7100 C   0  0  0  0  0  0  0  0  0  0  0  0
   -2.4530   15.0320    0.6920 C   0  0  0  0  0  0  0  0  0  0  0  0
   -1.0650   14.3100   -1.1420 C   0  0  0  0  0  0  0  0  0  0  0  0
   -3.6360   15.5600    1.2650 N   0  0  0  0  0  0  0  0  0  0  0  0
   -0.1190   13.9910   -0.2450 N   0  0  0  0  0  0  0  0  0  0  0  0
   -1.5050   14.7100    1.5720 N   0  0  0  0  0  0  0  0  0  0  0  0
   -0.7950   14.0710   -2.5400 N   0  0  0  0  0  0  0  0  0  0  0  0
   -0.3850   14.2090    1.0580 C   0  0  0  0  0  0  0  0  0  0  0  0
    0.2070   13.1650   -3.1160 C   0  0  0  0  0  0  0  0  0  0  0  0
   -1.1500   15.1950   -3.4150 C   0  0  0  0  0  0  0  0  0  0  0  0
    1.0980   13.9380   -4.0990 C   0  0  0  0  0  0  0  0  0  0  0  0
    0.9870   12.3760   -2.0280 C   0  0  0  0  0  0  0  0  0  0  0  0
   -0.2560   11.7770   -3.6590 C   0  0  0  0  0  0  0  0  0  0  0  0
   -1.1200   14.8080   -4.8870 C   0  0  0  0  0  0  0  0  0  0  0  0
    0.2880   14.4170   -5.3010 C   0  0  0  0  0  0  0  0  0  0  0  0
    0.1010   11.1440   -2.3110 C   0  0  0  0  0  0  0  0  0  0  0  0
  1  2  2  0
  2  3  1  0
  2  4  1  0
  3  5  1  0
  4  6  1  0
  6  7  1  1
  5  8  2  0
  6  8  1  0
  7  9  1  0
  9 10  2  0
  9 11  1  0
 10 12  1  0
 11 13  2  0
 10 14  1  0
 11 15  1  0
 13 16  1  0
 14 16  2  0
 17 15  1  0
 15 18  1  0
 17 19  1  0
 17 20  1  0
 17 21  1  0
 18 22  1  0
 19 23  1  0
 22 23  1  0
 20 24  1  0
 21 24  1  0
M  END
