diamond-x0766_0_A-diamond-x0628_0_A
     RDKit          3D

 22 24  0  0  0  0  0  0  0  0999 V2000
    0.4560   12.5100   -2.7470 C   0  0  0  0  0  0  0  0  0  0  0  0
    1.1810   12.1760   -1.6030 O   0  0  0  0  0  0  0  0  0  0  0  0
   -0.8270   11.9770   -2.5510 O   0  0  0  0  0  0  0  0  0  0  0  0
    1.0840   11.9150   -3.9660 C   0  0  0  0  0  0  0  0  0  0  0  0
    0.5800   13.9840   -2.9870 C   0  0  1  0  0  0  0  0  0  0  0  0
    0.5350   12.5070   -5.2650 C   0  0  0  0  0  0  0  0  0  0  0  0
    1.7070   14.2930   -3.9800 C   0  0  0  0  0  0  0  0  0  0  0  0
   -0.6430   14.6610   -3.5690 C   0  0  2  0  0  0  0  0  0  0  0  0
    1.4060   15.6920   -4.4330 C   0  0  0  0  0  0  0  0  0  0  0  0
   -0.0520   15.9640   -4.1120 C   0  0  0  0  0  0  0  0  0  0  0  0
   -1.7120   14.7600   -2.5220 C   0  0  0  0  0  0  0  0  0  0  0  0
   -0.4390   11.5810   -5.7220 N   0  0  0  0  0  0  0  0  0  0  0  0
   -3.0510   14.9990   -2.7710 C   0  0  0  0  0  0  0  0  0  0  0  0
   -1.4820   14.6170   -1.1060 C   0  0  0  0  0  0  0  0  0  0  0  0
   -0.0620   10.6950   -6.6530 N   0  0  0  0  0  0  0  0  0  0  0  0
   -1.7420   11.4180   -5.3520 C   0  0  0  0  0  0  0  0  0  0  0  0
   -2.4640   12.2370   -4.3450 C   0  0  0  0  0  0  0  0  0  0  0  0
   -2.6280   14.7550   -0.3620 C   0  0  0  0  0  0  0  0  0  0  0  0
   -3.9900   15.0560   -1.3470 S   0  0  0  0  0  0  0  0  0  0  0  0
   -2.2370   10.4100   -6.0360 N   0  0  0  0  0  0  0  0  0  0  0  0
   -1.1800   10.0030   -6.8060 C   0  0  0  0  0  0  0  0  0  0  0  0
   -1.2620    8.8730   -7.7440 C   0  0  0  0  0  0  0  0  0  0  0  0
  1  2  1  0
  1  3  1  0
  1  4  1  0
  5  1  1  6
  4  6  1  0
  5  7  1  0
  5  8  1  0
  7  9  1  0
  8 10  1  0
  9 10  1  0
  8 11  1  1
  6 12  1  0
 11 13  2  0
 11 14  1  0
 12 15  1  0
 12 16  1  0
 16 17  1  0
 14 18  2  0
 13 19  1  0
 18 19  1  0
 16 20  2  0
 15 21  2  0
 20 21  1  0
 21 22  1  0
M  END
