diamond-x0910_1_A-diamond-x0290_0_A
     RDKit          3D

 18 19  0  0  0  0  0  0  0  0999 V2000
   -7.3980   14.4570    1.2540 N   0  0  0  0  0  0  0  0  0  0  0  0
   -8.6700   13.8330    0.9200 C   0  0  0  0  0  0  0  0  0  0  0  0
   -6.4440   13.7550    2.1190 C   0  0  0  0  0  0  0  0  0  0  0  0
   -6.6210   14.9470    0.2810 C   0  0  0  0  0  0  0  0  0  0  0  0
   -5.1330   13.6940    1.3240 C   0  0  0  0  0  0  0  0  0  0  0  0
   -6.9560   15.1380   -1.0250 N   0  0  0  0  0  0  0  0  0  0  0  0
   -5.3810   15.3290    0.4590 N   0  0  0  0  0  0  0  0  0  0  0  0
   -5.1270   13.0560    0.2580 O   0  0  0  0  0  0  0  0  0  0  0  0
   -3.9630   14.3260    1.6330 N   0  0  0  0  0  0  0  0  0  0  0  0
   -5.9180   15.6520   -1.7080 N   0  0  0  0  0  0  0  0  0  0  0  0
   -4.9890   15.7460   -0.7590 C   0  0  0  0  0  0  0  0  0  0  0  0
   -2.7370   14.4290    0.9730 C   0  0  0  0  0  0  0  0  0  0  0  0
   -1.6780   14.4760    1.8090 N   0  0  0  0  0  0  0  0  0  0  0  0
   -2.5660   14.4770   -0.4000 C   0  0  0  0  0  0  0  0  0  0  0  0
   -0.4440   14.5660    1.2710 C   0  0  0  0  0  0  0  0  0  0  0  0
   -1.2840   14.5730   -0.9460 C   0  0  0  0  0  0  0  0  0  0  0  0
   -1.1050   14.6240   -2.4350 C   0  0  0  0  0  0  0  0  0  0  0  0
   -0.1910   14.6190   -0.0840 C   0  0  0  0  0  0  0  0  0  0  0  0
  1  2  1  0
  1  3  1  0
  1  4  1  0
  3  5  1  0
  4  6  1  0
  4  7  2  0
  5  8  2  0
  5  9  1  0
  6 10  1  0
  7 11  1  0
 10 11  2  0
  9 12  1  0
 12 13  2  0
 12 14  1  0
 13 15  1  0
 14 16  2  0
 16 17  1  0
 15 18  2  0
 16 18  1  0
M  END
