diamond-x0910_0_A-diamond-x0962_0_A
     RDKit          3D

 12 13  0  0  0  0  0  0  0  0999 V2000
   -2.9370   14.5830   -1.2780 N   0  0  0  0  0  0  0  0  0  0  0  0
   -1.6990   14.7020   -0.5550 C   0  0  0  0  0  0  0  0  0  0  0  0
   -1.5420   14.6520    0.8810 N   0  0  0  0  0  0  0  0  0  0  0  0
   -3.0210   15.1610   -2.6110 N   0  0  0  0  0  0  0  0  0  0  0  0
   -4.0580   14.4780   -0.3570 C   0  0  1  0  0  0  0  0  0  0  0  0
   -0.3650   14.9010   -1.1000 N   0  0  0  0  0  0  0  0  0  0  0  0
   -3.8270   15.0050    0.9870 N   0  0  0  0  0  0  0  0  0  0  0  0
   -5.3090   15.2400   -0.7210 C   0  0  0  0  0  0  0  0  0  0  0  0
   -0.2740   14.8010    1.2570 N   0  0  0  0  0  0  0  0  0  0  0  0
    0.3700   14.9480    0.0800 C   0  0  0  0  0  0  0  0  0  0  0  0
   -5.1330   14.7660    1.5680 C   0  0  0  0  0  0  0  0  0  0  0  0
   -6.0850   14.9730    0.4860 N   0  0  0  0  0  0  0  0  0  0  0  0
  1  2  1  0
  2  3  1  0
  1  4  2  0
  5  1  1  6
  2  6  2  0
  5  7  1  0
  5  8  1  0
  3  9  1  0
  6 10  1  0
  9 10  2  0
  7 11  1  0
  8 12  1  0
 11 12  1  0
M  CHG  2   1   1   4  -1
M  END
