diamond-x0574_0_A-mac-x0411
     RDKit          3D

 27 29  0  0  0  0  0  0  0  0999 V2000
   -0.2100   14.1820    2.0780 N   0  0  0  0  0  0  0  0  0  0  0  0
   -0.4520   14.3070    0.6840 C   0  0  1  0  0  0  0  0  0  0  0  0
   -1.2880   13.2760    0.1260 N   0  0  0  0  0  0  0  0  0  0  0  0
   -1.2000   15.8800    0.2190 S   0  0  0  0  0  0  0  0  0  0  0  0
   -0.8790   12.8320   -1.2340 C   0  0  0  0  0  0  0  0  0  0  0  0
   -2.6540   13.8410    0.1280 C   0  0  2  0  0  0  0  0  0  0  0  0
   -2.4520   15.0460   -0.7530 C   0  0  1  0  0  0  0  0  0  0  0  0
    0.6090   12.7020   -1.6340 C   0  0  0  0  0  0  0  0  0  0  0  0
   -3.5480   14.2070    1.3330 C   0  0  0  0  0  0  0  0  0  0  0  0
   -3.7400   15.6770   -1.1320 C   0  0  0  0  0  0  0  0  0  0  0  0
    0.8400   13.0190   -3.0150 O   0  0  0  0  0  0  0  0  0  0  0  0
   -4.9540   14.5250    0.7460 C   0  0  2  0  0  0  0  0  0  0  0  0
   -4.8730   15.4350   -0.4530 C   0  0  0  0  0  0  0  0  0  0  0  0
   -5.8320   15.1850    1.6510 O   0  0  0  0  0  0  0  0  0  0  0  0
    0.7030   11.9700   -3.8690 C   0  0  0  0  0  0  0  0  0  0  0  0
   -6.8390   14.3690    2.2240 C   0  0  0  0  0  0  0  0  0  0  0  0
    0.4160   10.8320   -3.5200 O   0  0  0  0  0  0  0  0  0  0  0  0
    0.9520   12.4280   -5.3020 C   0  0  0  0  0  0  0  0  0  0  0  0
    0.6730   11.4490   -6.3070 O   0  0  0  0  0  0  0  0  0  0  0  0
   -0.4980   10.7240   -6.2050 C   0  0  0  0  0  0  0  0  0  0  0  0
   -1.6140   11.1870   -5.4740 C   0  0  0  0  0  0  0  0  0  0  0  0
   -0.5960    9.4770   -6.8550 C   0  0  0  0  0  0  0  0  0  0  0  0
    0.6970    8.8120   -7.7930 Cl  0  0  0  0  0  0  0  0  0  0  0  0
   -1.6440   12.6990   -4.6410 Cl  0  0  0  0  0  0  0  0  0  0  0  0
   -2.7780   10.4130   -5.3990 C   0  0  0  0  0  0  0  0  0  0  0  0
   -1.7620    8.7160   -6.7700 C   0  0  0  0  0  0  0  0  0  0  0  0
   -2.8510    9.1810   -6.0440 C   0  0  0  0  0  0  0  0  0  0  0  0
  2  1  1  1
  2  3  1  0
  2  4  1  0
  3  5  1  0
  3  6  1  0
  4  7  1  0
  6  7  1  0
  5  8  1  0
  6  9  1  1
  7 10  1  1
  8 11  1  0
  9 12  1  0
 10 13  2  0
 12 13  1  0
 12 14  1  1
 11 15  1  0
 14 16  1  0
 15 17  2  0
 15 18  1  0
 18 19  1  0
 19 20  1  0
 20 21  2  0
 20 22  1  0
 22 23  1  0
 21 24  1  0
 21 25  1  0
 22 26  2  0
 25 27  2  0
 26 27  1  0
M  END
