diamond-x0737_0_B-diamond-x0814_0_B
     RDKit          3D

 15 15  0  0  0  0  0  0  0  0999 V2000
   15.6530   15.8510   11.9740 N   0  0  0  0  0  0  0  0  0  0  0  0
   16.5990   16.9220   12.1800 C   0  0  0  0  0  0  0  0  0  0  0  0
   16.0690   14.5450   11.7840 C   0  0  0  0  0  0  0  0  0  0  0  0
   17.2410   14.2130   11.6180 O   0  0  0  0  0  0  0  0  0  0  0  0
   14.9430   13.5150   11.7990 C   0  0  2  0  0  0  0  0  0  0  0  0
   14.4160   13.3210   13.2120 C   0  0  2  0  0  0  0  0  0  0  0  0
   15.3240   12.1560   11.2100 C   0  0  0  0  0  0  0  0  0  0  0  0
   15.5650   13.2750   14.2060 C   0  0  0  0  0  0  0  0  0  0  0  0
   13.4650   12.1610   13.3150 N   0  0  0  0  0  0  0  0  0  0  0  0
   14.0760   11.3450   10.9720 C   0  0  0  0  0  0  0  0  0  0  0  0
   11.9590   12.5160   13.9110 S   0  0  0  0  0  0  0  0  0  0  0  0
   13.4760   11.0160   12.3210 C   0  0  0  0  0  0  0  0  0  0  0  0
   12.0000   13.9340   14.1710 O   0  0  0  0  0  0  0  0  0  0  0  0
   11.6210   11.5390   14.9190 O   0  0  0  0  0  0  0  0  0  0  0  0
   11.0330   12.2040   12.4510 C   0  0  0  0  0  0  0  0  0  0  0  0
  1  2  1  0
  1  3  1  0
  3  4  2  0
  5  3  1  1
  5  6  1  0
  5  7  1  0
  6  8  1  1
  6  9  1  0
  7 10  1  0
  9 11  1  0
  9 12  1  0
 10 12  1  0
 11 13  2  0
 11 14  2  0
 11 15  1  0
M  END
