diamond-x0591_0_A-mac-x0587
     RDKit          3D

 26 27  0  0  0  0  0  0  0  0999 V2000
   -6.1340   14.2630    0.8220 N   0  0  0  0  0  0  0  0  0  0  0  0
   -7.0220   14.4540    1.9390 C   0  0  0  0  0  0  0  0  0  0  0  0
   -6.5790   14.3390   -0.4850 C   0  0  0  0  0  0  0  0  0  0  0  0
   -7.7530   14.4950   -0.7930 O   0  0  0  0  0  0  0  0  0  0  0  0
   -5.5260   14.2280   -1.5310 C   0  0  0  0  0  0  0  0  0  0  0  0
   -4.3310   13.5300   -1.2950 C   0  0  0  0  0  0  0  0  0  0  0  0
   -5.7310   14.8380   -2.7790 C   0  0  0  0  0  0  0  0  0  0  0  0
   -3.3450   13.4570   -2.2890 C   0  0  0  0  0  0  0  0  0  0  0  0
   -4.7440   14.7590   -3.7730 C   0  0  0  0  0  0  0  0  0  0  0  0
   -3.5560   14.0830   -3.5280 C   0  0  0  0  0  0  0  0  0  0  0  0
   -2.3090   14.0510   -4.8050 S   0  0  1  0  0  0  0  0  0  0  0  0
   -1.2600   15.3530   -4.4380 N   0  0  0  0  0  0  0  0  0  0  0  0
   -1.4120   12.7920   -4.6420 N   0  0  0  0  0  0  0  0  0  0  0  0
   -2.9330   14.4510   -6.0510 O   0  0  0  0  0  0  0  0  0  0  0  0
    0.1920   15.2210   -4.6170 C   0  0  0  0  0  0  0  0  0  0  0  0
   -0.9790   12.4800   -3.2230 C   0  0  0  0  0  0  0  0  0  0  0  0
   -1.5710   16.2230   -3.3000 C   0  0  0  0  0  0  0  0  0  0  0  0
    0.2830   11.6060   -3.2270 C   0  0  0  0  0  0  0  0  0  0  0  0
   -1.9830   15.5320   -2.0840 N   0  0  0  0  0  0  0  0  0  0  0  0
    0.2840   10.3930   -3.1200 O   0  0  0  0  0  0  0  0  0  0  0  0
    1.4180   12.3560   -3.3470 O   0  0  0  0  0  0  0  0  0  0  0  0
   -3.3480   15.5210   -1.5710 C   0  0  0  0  0  0  0  0  0  0  0  0
   -1.1050   15.4220   -1.0050 C   0  0  0  0  0  0  0  0  0  0  0  0
    0.1060   15.4530   -1.0530 O   0  0  0  0  0  0  0  0  0  0  0  0
   -3.2160   15.5640   -0.0510 C   0  0  0  0  0  0  0  0  0  0  0  0
   -1.8340   15.2640    0.1630 N   0  0  0  0  0  0  0  0  0  0  0  0
  1  2  1  0
  1  3  1  0
  3  4  2  0
  3  5  1  0
  5  6  2  0
  5  7  1  0
  6  8  1  0
  7  9  2  0
  8 10  2  0
  9 10  1  0
 10 11  1  0
 11 12  1  1
 11 13  2  0
 11 14  2  0
 12 15  1  0
 13 16  1  0
 12 17  1  0
 16 18  1  0
 17 19  1  0
 18 20  2  0
 18 21  1  0
 19 22  1  0
 19 23  1  0
 23 24  2  0
 22 25  1  0
 23 26  1  0
 25 26  1  0
M  END
