diamond-x0766_1_B-diamond-x0436_0_B
     RDKit          3D

 20 21  0  0  0  0  0  0  0  0999 V2000
   -7.1770   26.4450  -13.7330 C   0  0  0  0  0  0  0  0  0  0  0  0
   -6.0990   26.0860  -14.4660 O   0  0  0  0  0  0  0  0  0  0  0  0
   -8.3120   26.3140  -14.1530 O   0  0  0  0  0  0  0  0  0  0  0  0
   -6.8330   27.0160  -12.3840 C   0  0  2  0  0  0  0  0  0  0  0  0
   -7.8340   26.6440  -11.2770 C   0  0  0  0  0  0  0  0  0  0  0  0
   -6.8160   28.5430  -12.3270 C   0  0  2  0  0  0  0  0  0  0  0  0
   -5.9940   29.0720  -10.8490 Cl  0  0  0  0  0  0  0  0  0  0  0  0
   -8.8570   27.7880  -11.2400 C   0  0  0  0  0  0  0  0  0  0  0  0
   -8.3620   28.8580  -12.2340 C   0  0  2  0  0  0  0  0  0  0  0  0
   -5.9190   29.2520  -13.3210 C   0  0  0  0  0  0  0  0  0  0  0  0
   -9.1360   28.7740  -13.4640 O   0  0  0  0  0  0  0  0  0  0  0  0
   -4.5330   29.2640  -13.2570 C   0  0  0  0  0  0  0  0  0  0  0  0
   -6.3540   30.0140  -14.4530 C   0  0  0  0  0  0  0  0  0  0  0  0
   -9.6650   29.9650  -14.1120 C   0  0  2  0  0  0  0  0  0  0  0  0
   -5.3130   30.5520  -15.1730 C   0  0  0  0  0  0  0  0  0  0  0  0
   -3.7960   30.1570  -14.5080 S   0  0  0  0  0  0  0  0  0  0  0  0
  -11.0020   30.3440  -13.4800 C   0  0  0  0  0  0  0  0  0  0  0  0
   -9.9150   29.6790  -15.6080 C   0  0  0  0  0  0  0  0  0  0  0  0
  -10.4590   28.4570  -15.8860 N   0  0  0  0  0  0  0  0  0  0  0  0
   -9.6610   30.4760  -16.5080 O   0  0  0  0  0  0  0  0  0  0  0  0
  1  2  1  0
  1  3  2  0
  4  1  1  6
  4  5  1  0
  4  6  1  0
  6  7  1  1
  5  8  1  0
  6  9  1  0
  8  9  1  0
  6 10  1  0
  9 11  1  6
 10 12  2  0
 10 13  1  0
 11 14  1  0
 13 15  2  0
 12 16  1  0
 15 16  1  0
 14 17  1  1
 14 18  1  0
 18 19  1  0
 18 20  2  0
M  END
