diamond-x0905_0_A-mac-x0132
     RDKit          3D

 11 12  0  0  0  0  0  0  0  0999 V2000
   -6.5620   16.1440   -0.9410 O   0  0  0  0  0  0  0  0  0  0  0  0
   -5.9480   14.9040   -0.6560 C   0  0  1  0  0  0  0  0  0  0  0  0
   -4.7460   14.8120   -1.5220 C   0  0  0  0  0  0  0  0  0  0  0  0
   -5.5820   14.6110    0.8810 C   0  0  1  0  0  0  0  0  0  0  0  0
   -7.0590   14.0060   -0.7070 N   0  0  0  0  0  0  0  0  0  0  0  0
   -5.1310   13.2530    1.2110 N   0  0  0  0  0  0  0  0  0  0  0  0
   -4.4190   15.3970    1.3320 C   0  0  0  0  0  0  0  0  0  0  0  0
   -3.5540   15.1580   -0.9660 C   0  0  0  0  0  0  0  0  0  0  0  0
   -7.6580   14.3220    0.5110 C   0  0  0  0  0  0  0  0  0  0  0  0
   -6.9090   14.6970    1.5270 N   0  0  0  0  0  0  0  0  0  0  0  0
   -3.4610   15.6220    0.4370 C   0  0  0  0  0  0  0  0  0  0  0  0
  2  1  1  1
  2  3  1  0
  2  4  1  0
  2  5  1  0
  4  6  1  6
  4  7  1  0
  3  8  2  0
  5  9  1  0
  4 10  1  0
  9 10  2  0
  7 11  2  0
  8 11  1  0
M  END
