diamond-x0465_0_A-mac-x0439
     RDKit          3D

 25 27  0  0  0  0  0  0  0  0999 V2000
    2.1740   13.1930   -4.8790 C   0  0  0  0  0  0  0  0  0  0  0  0
    0.8240   12.5490   -4.6180 C   0  0  1  0  0  0  0  0  0  0  0  0
    0.7320   11.3800   -5.4530 O   0  0  0  0  0  0  0  0  0  0  0  0
    0.7890   12.1160   -3.1420 C   0  0  0  0  0  0  0  0  0  0  0  0
    1.1210   12.8730   -2.1410 N   0  0  0  0  0  0  0  0  0  0  0  0
    0.3780   10.8430   -2.9420 O   0  0  0  0  0  0  0  0  0  0  0  0
   -0.4480   10.8040   -5.8560 C   0  0  0  0  0  0  0  0  0  0  0  0
    1.5840   14.2670   -2.2530 C   0  0  1  0  0  0  0  0  0  0  0  0
   -0.5960    9.6240   -6.6000 C   0  0  0  0  0  0  0  0  0  0  0  0
   -1.6030   11.4810   -5.4780 C   0  0  0  0  0  0  0  0  0  0  0  0
    0.4480    8.9080   -7.0260 F   0  0  0  0  0  0  0  0  0  0  0  0
    2.9850   14.3180   -2.5200 O   0  0  0  0  0  0  0  0  0  0  0  0
   -1.8500    9.1300   -6.9420 C   0  0  0  0  0  0  0  0  0  0  0  0
   -2.8640   10.9870   -5.8320 C   0  0  0  0  0  0  0  0  0  0  0  0
    0.9000   15.0520   -3.3660 C   0  0  0  0  0  0  0  0  0  0  0  0
   -2.9890    9.8130   -6.5570 C   0  0  0  0  0  0  0  0  0  0  0  0
   -0.2290   14.7490   -4.0060 C   0  0  0  0  0  0  0  0  0  0  0  0
    1.4490   16.2470   -3.8030 N   0  0  0  0  0  0  0  0  0  0  0  0
   -0.4650   15.7540   -5.0620 C   0  0  2  0  0  0  0  0  0  0  0  0
    0.6650   16.6820   -4.7230 C   0  0  0  0  0  0  0  0  0  0  0  0
   -1.7140   16.5320   -5.2820 C   0  0  0  0  0  0  0  0  0  0  0  0
    0.7820   17.9590   -5.4650 C   0  0  0  0  0  0  0  0  0  0  0  0
   -3.1970   15.7070   -5.0250 Cl  0  0  0  0  0  0  0  0  0  0  0  0
   -1.6600   17.8160   -5.6890 C   0  0  0  0  0  0  0  0  0  0  0  0
   -0.3770   18.4710   -5.9140 C   0  0  0  0  0  0  0  0  0  0  0  0
  2  1  1  1
  2  3  1  0
  2  4  1  0
  4  5  2  3
  4  6  1  0
  3  7  1  0
  5  8  1  0
  7  9  2  0
  7 10  1  0
  9 11  1  0
  8 12  1  6
  9 13  1  0
 10 14  2  0
  8 15  1  0
 13 16  2  0
 14 16  1  0
 15 17  2  0
 15 18  1  0
 19 17  1  1
 18 20  2  0
 19 20  1  0
 19 21  1  0
 20 22  1  0
 21 23  1  0
 21 24  2  0
 22 25  2  0
 24 25  1  0
M  END
