diamond-x0421_0_A-diamond-x0969_0_A
     RDKit          3D

 12 13  0  0  0  0  0  0  0  0999 V2000
   -3.6560   15.1450   -3.0790 N   0  0  0  0  0  0  0  0  0  0  0  0
   -2.8030   14.9400   -2.0270 C   0  0  0  0  0  0  0  0  0  0  0  0
   -1.6000   14.8420   -2.2300 O   0  0  0  0  0  0  0  0  0  0  0  0
   -3.4200   14.8470   -0.7080 C   0  0  0  0  0  0  0  0  0  0  0  0
   -2.7780   14.6750    0.5080 C   0  0  0  0  0  0  0  0  0  0  0  0
   -4.7920   14.9190   -0.5220 N   0  0  0  0  0  0  0  0  0  0  0  0
   -3.7810   14.6360    1.4200 N   0  0  0  0  0  0  0  0  0  0  0  0
   -4.9530   14.7860    0.7650 C   0  0  0  0  0  0  0  0  0  0  0  0
   -6.2900   14.7910    1.5190 C   0  0  1  0  0  0  0  0  0  0  0  0
   -7.6210   14.6410    0.8320 C   0  0  0  0  0  0  0  0  0  0  0  0
   -7.0930   13.5580    1.7260 C   0  0  2  0  0  0  0  0  0  0  0  0
   -7.5280   13.4020    3.1020 N   0  0  0  0  0  0  0  0  0  0  0  0
  1  2  1  0
  2  3  2  0
  2  4  1  0
  4  5  2  0
  4  6  1  0
  5  7  1  0
  6  8  2  0
  7  8  1  0
  9  8  1  6
  9 10  1  0
  9 11  1  0
 10 11  1  0
 11 12  1  1
M  END
