diamond-x0587_0_A-diamond-x0905_0_A
     RDKit          3D

 19 20  0  0  0  0  0  0  0  0999 V2000
   -7.7010   15.1810    4.0750 N   0  0  0  0  0  0  0  0  0  0  0  0
   -8.3170   15.1550    2.8550 C   0  0  0  0  0  0  0  0  0  0  0  0
   -9.1800   15.9950    2.6120 O   0  0  0  0  0  0  0  0  0  0  0  0
   -7.9430   14.0840    1.8340 C   0  0  1  0  0  0  0  0  0  0  0  0
   -8.1240   14.6010    0.3910 C   0  0  0  0  0  0  0  0  0  0  0  0
   -6.5800   13.4560    2.0640 C   0  0  0  0  0  0  0  0  0  0  0  0
   -6.9920   14.4160   -0.5640 N   0  0  0  0  0  0  0  0  0  0  0  0
   -6.2940   12.6380    0.9030 N   0  0  0  0  0  0  0  0  0  0  0  0
   -5.8720   13.5200   -0.1780 C   0  0  1  0  0  0  0  0  0  0  0  0
   -6.3290   15.7110   -0.6640 O   0  0  0  0  0  0  0  0  0  0  0  0
   -5.2150   12.7560   -1.3810 C   0  0  0  0  0  0  0  0  0  0  0  0
   -4.9950   15.4660   -0.4430 C   0  0  0  0  0  0  0  0  0  0  0  0
   -5.9260   11.6240   -1.6430 F   0  0  0  0  0  0  0  0  0  0  0  0
   -5.2470   13.4920   -2.5230 F   0  0  0  0  0  0  0  0  0  0  0  0
   -4.6730   15.4350    0.8680 N   0  0  0  0  0  0  0  0  0  0  0  0
   -4.0760   15.2520   -1.4590 C   0  0  0  0  0  0  0  0  0  0  0  0
   -3.3950   15.1660    1.1830 C   0  0  0  0  0  0  0  0  0  0  0  0
   -2.7600   14.9770   -1.1020 C   0  0  0  0  0  0  0  0  0  0  0  0
   -2.4110   14.9290    0.2420 C   0  0  0  0  0  0  0  0  0  0  0  0
  1  2  1  0
  2  3  2  0
  4  2  1  1
  4  5  1  0
  4  6  1  0
  5  7  1  0
  6  8  1  0
  7  9  1  0
  8  9  1  0
  7 10  1  0
  9 11  1  6
 10 12  1  0
 11 13  1  0
 11 14  1  0
 12 15  2  0
 12 16  1  0
 15 17  1  0
 16 18  2  0
 17 19  2  0
 18 19  1  0
M  END
