diamond-x0290_0_A-mac-x0358
     RDKit          3D

 26 27  0  0  0  0  0  0  0  0999 V2000
   -7.8000   13.7790    0.9210 N   0  0  0  0  0  0  0  0  0  0  0  0
   -8.6090   14.9740    0.7060 C   0  0  0  0  0  0  0  0  0  0  0  0
   -6.5640   14.0920    1.6730 C   0  0  0  0  0  0  0  0  0  0  0  0
   -5.4000   14.4920    0.7530 C   0  0  0  0  0  0  0  0  0  0  0  0
   -5.5600   14.5530   -0.4620 O   0  0  0  0  0  0  0  0  0  0  0  0
   -4.2360   14.7410    1.4330 N   0  0  0  0  0  0  0  0  0  0  0  0
   -2.9550   14.6720    0.9060 C   0  0  0  0  0  0  0  0  0  0  0  0
   -1.9390   14.5940    1.8010 N   0  0  0  0  0  0  0  0  0  0  0  0
   -2.7390   14.6790   -0.4580 C   0  0  0  0  0  0  0  0  0  0  0  0
   -0.6820   14.5240    1.3180 C   0  0  0  0  0  0  0  0  0  0  0  0
   -1.4350   14.6060   -0.9380 C   0  0  0  0  0  0  0  0  0  0  0  0
   -1.1530   14.6140   -2.4100 C   0  0  0  0  0  0  0  0  0  0  0  0
   -0.3820   14.5290   -0.0220 C   0  0  0  0  0  0  0  0  0  0  0  0
    0.3280   14.8880   -2.6460 C   0  0  0  0  0  0  0  0  0  0  0  0
    1.1630   13.7070   -2.1690 C   0  0  0  0  0  0  0  0  0  0  0  0
    1.3150   12.5890   -3.2030 C   0  0  0  0  0  0  0  0  0  0  0  0
    2.6530   12.2220   -3.0550 O   0  0  0  0  0  0  0  0  0  0  0  0
    0.4990   11.4940   -2.7890 O   0  0  0  0  0  0  0  0  0  0  0  0
    0.9920   13.0550   -4.6590 C   0  0  0  0  0  0  0  0  0  0  0  0
   -0.4350   13.5100   -4.9390 C   0  0  0  0  0  0  0  0  0  0  0  0
   -1.4750   12.6000   -5.1650 C   0  0  0  0  0  0  0  0  0  0  0  0
   -0.7360   14.8850   -4.9810 C   0  0  0  0  0  0  0  0  0  0  0  0
   -1.2060   11.2570   -5.1330 O   0  0  0  0  0  0  0  0  0  0  0  0
   -2.7760   13.0390   -5.4240 C   0  0  0  0  0  0  0  0  0  0  0  0
   -2.0380   15.3300   -5.2370 C   0  0  0  0  0  0  0  0  0  0  0  0
   -3.0560   14.4060   -5.4590 C   0  0  0  0  0  0  0  0  0  0  0  0
  1  2  1  0
  1  3  1  0
  3  4  1  0
  4  5  2  0
  4  6  1  0
  6  7  1  0
  7  8  2  0
  7  9  1  0
  8 10  1  0
  9 11  2  0
 11 12  1  0
 10 13  2  0
 11 13  1  0
 12 14  1  0
 14 15  1  0
 15 16  1  0
 16 17  1  0
 16 18  1  0
 16 19  1  0
 19 20  1  0
 20 21  2  0
 20 22  1  0
 21 23  1  0
 21 24  1  0
 22 25  2  0
 24 26  2  0
 25 26  1  0
M  END
