diamond-x0471_0_A-diamond-x1015_0_A
     RDKit          3D

 33 36  0  0  0  0  0  0  0  0999 V2000
   -8.7580   14.1140    2.8600 N   0  0  0  0  0  0  0  0  0  0  0  0
   -9.1560   15.1530    3.6670 C   0  0  0  0  0  0  0  0  0  0  0  0
   -9.4340   16.2510    3.2020 O   0  0  0  0  0  0  0  0  0  0  0  0
   -8.8220   14.2610    1.4190 C   0  0  0  0  0  0  0  0  0  0  0  0
   -9.2590   14.8420    5.1640 C   0  0  0  0  0  0  0  0  0  0  0  0
   -7.4520   14.5510    0.9030 C   0  0  0  0  0  0  0  0  0  0  0  0
   -9.6050   13.3770    5.4200 C   0  0  0  0  0  0  0  0  0  0  0  0
   -8.0000   15.2640    5.9110 C   0  0  0  0  0  0  0  0  0  0  0  0
   -7.1710   14.7150   -0.4360 N   0  0  0  0  0  0  0  0  0  0  0  0
   -6.3580   14.6880    1.6230 N   0  0  0  0  0  0  0  0  0  0  0  0
   -5.3420   14.9480    0.7390 C   0  0  0  0  0  0  0  0  0  0  0  0
   -5.8230   14.9690   -0.5620 C   0  0  0  0  0  0  0  0  0  0  0  0
   -5.0100   15.2070   -1.6680 C   0  0  0  0  0  0  0  0  0  0  0  0
   -3.9770   15.1780    0.9790 C   0  0  0  0  0  0  0  0  0  0  0  0
   -3.6410   15.4290   -1.4270 C   0  0  0  0  0  0  0  0  0  0  0  0
   -3.1380   15.4170   -0.1140 C   0  0  0  0  0  0  0  0  0  0  0  0
   -2.7210   15.6720   -2.5980 C   0  0  0  0  0  0  0  0  0  0  0  0
   -2.3760   14.3400   -3.2730 C   0  0  0  0  0  0  0  0  0  0  0  0
   -1.2410   14.4880   -4.2950 C   0  0  0  0  0  0  0  0  0  0  0  0
    0.0290   13.6810   -3.9650 C   0  0  2  0  0  0  0  0  0  0  0  0
   -0.1330   12.2300   -3.9180 N   0  0  0  0  0  0  0  0  0  0  0  0
    0.4670   13.9490   -2.5290 C   0  0  0  0  0  0  0  0  0  0  0  0
    0.5680   15.0420   -1.9930 O   0  0  0  0  0  0  0  0  0  0  0  0
    0.2860   11.7210   -2.6760 C   0  0  0  0  0  0  0  0  0  0  0  0
    0.7420   12.7670   -1.9310 N   0  0  0  0  0  0  0  0  0  0  0  0
   -0.5150   11.4410   -5.0290 C   0  0  0  0  0  0  0  0  0  0  0  0
    0.2770   10.5580   -2.2700 O   0  0  0  0  0  0  0  0  0  0  0  0
    0.0550   11.6440   -6.2970 C   0  0  0  0  0  0  0  0  0  0  0  0
   -1.4770   10.4260   -4.9000 C   0  0  0  0  0  0  0  0  0  0  0  0
   -0.3230   10.8640   -7.3930 C   0  0  0  0  0  0  0  0  0  0  0  0
   -1.8570    9.6430   -5.9930 C   0  0  0  0  0  0  0  0  0  0  0  0
   -1.2790    9.8630   -7.2360 C   0  0  0  0  0  0  0  0  0  0  0  0
   -1.7480    8.8990   -8.5780 Cl  0  0  0  0  0  0  0  0  0  0  0  0
  1  2  1  0
  2  3  2  0
  1  4  1  0
  2  5  1  0
  4  6  1  0
  5  7  1  0
  5  8  1  0
  6  9  1  0
  6 10  2  0
 10 11  1  0
  9 12  1  0
 11 12  2  0
 12 13  1  0
 11 14  1  0
 13 15  2  0
 14 16  2  0
 15 16  1  0
 15 17  1  0
 17 18  1  0
 18 19  1  0
 20 19  1  1
 20 21  1  0
 20 22  1  0
 22 23  2  0
 21 24  1  0
 22 25  1  0
 24 25  1  0
 21 26  1  0
 24 27  2  0
 26 28  2  0
 26 29  1  0
 28 30  1  0
 29 31  2  0
 30 32  2  0
 31 32  1  0
 32 33  1  0
M  END
