diamond-x0967_0_A-mac-x0380
     RDKit          3D

 14 15  0  0  0  0  0  0  0  0999 V2000
   -1.4850   14.5720   -2.5960 O   0  0  0  0  0  0  0  0  0  0  0  0
   -2.7570   14.9490   -2.8950 C   0  0  0  0  0  0  0  0  0  0  0  0
   -3.1300   15.0730   -4.0570 O   0  0  0  0  0  0  0  0  0  0  0  0
   -3.6470   15.2060   -1.6450 C   0  0  1  0  0  0  0  0  0  0  0  0
   -5.0070   14.6170   -1.7980 N   0  0  0  0  0  0  0  0  0  0  0  0
   -2.9290   14.8090   -0.3780 C   0  0  0  0  0  0  0  0  0  0  0  0
   -5.6890   14.3210   -0.5390 C   0  0  2  0  0  0  0  0  0  0  0  0
   -3.5960   14.7120    0.7660 C   0  0  0  0  0  0  0  0  0  0  0  0
   -7.0440   14.7870   -0.7190 N   0  0  0  0  0  0  0  0  0  0  0  0
   -5.0610   15.0110    0.6930 C   0  0  2  0  0  0  0  0  0  0  0  0
   -5.8190   14.5660    1.9390 C   0  0  0  0  0  0  0  0  0  0  0  0
   -7.9080   14.3470    0.3830 C   0  0  0  0  0  0  0  0  0  0  0  0
   -7.3240   14.6440    1.7620 C   0  0  0  0  0  0  0  0  0  0  0  0
   -8.0540   14.9340    2.7120 O   0  0  0  0  0  0  0  0  0  0  0  0
  1  2  1  0
  2  3  2  0
  4  2  1  6
  4  5  1  0
  4  6  1  0
  7  5  1  6
  6  8  2  0
  7  9  1  0
  7 10  1  0
 10  8  1  1
 10 11  1  0
  9 12  1  0
 11 13  1  0
 12 13  1  0
 13 14  2  0
M  END
