diamond-x0895_0_A-mac-x0572
     RDKit          3D

 15 16  0  0  0  0  0  0  0  0999 V2000
   -1.6360   14.7040    2.0130 O   0  0  0  0  0  0  0  0  0  0  0  0
   -2.5400   14.8680    1.2190 C   0  0  0  0  0  0  0  0  0  0  0  0
   -3.7870   15.7130    1.3570 C   0  0  0  0  0  0  0  0  0  0  0  0
   -2.5880   14.2740    0.0200 N   0  0  0  0  0  0  0  0  0  0  0  0
   -4.8020   14.8910    0.5400 C   0  0  2  0  0  0  0  0  0  0  0  0
   -3.8390   14.2540   -0.4660 C   0  0  0  0  0  0  0  0  0  0  0  0
   -4.1410   13.8290   -1.5660 O   0  0  0  0  0  0  0  0  0  0  0  0
   -5.6710   15.5760   -0.5220 C   0  0  0  0  0  0  0  0  0  0  0  0
   -5.5550   13.9490    1.4080 N   0  0  0  0  0  0  0  0  0  0  0  0
   -6.8990   14.4070    1.7990 C   0  0  2  0  0  0  0  0  0  0  0  0
   -7.0640   14.9510   -0.6400 C   0  0  0  0  0  0  0  0  0  0  0  0
   -7.5340   13.7570    3.0320 C   0  0  0  0  0  0  0  0  0  0  0  0
   -7.6050   14.9010   -1.7380 O   0  0  0  0  0  0  0  0  0  0  0  0
   -7.7920   14.3510    0.5690 C   0  0  2  0  0  0  0  0  0  0  0  0
   -9.0230   15.0180    0.8290 O   0  0  0  0  0  0  0  0  0  0  0  0
  1  2  2  0
  2  3  1  0
  2  4  1  0
  5  3  1  1
  4  6  1  0
  5  6  1  0
  6  7  2  0
  5  8  1  0
  5  9  1  0
  9 10  1  0
  8 11  1  0
 10 12  1  1
 11 13  2  0
 10 14  1  0
 11 14  1  0
 14 15  1  1
M  END
