diamond-x0895_1_A-diamond-x0128_0_A
     RDKit          3D

 16 17  0  0  0  0  0  0  0  0999 V2000
   -1.9660   14.8130    1.6850 O   0  0  0  0  0  0  0  0  0  0  0  0
   -3.1180   14.9580    1.2730 C   0  0  0  0  0  0  0  0  0  0  0  0
   -3.5720   14.9350   -0.1740 C   0  0  0  0  0  0  0  0  0  0  0  0
   -4.2840   15.1690    2.0020 N   0  0  0  0  0  0  0  0  0  0  0  0
   -4.8830   14.3480    0.0490 N   0  0  0  0  0  0  0  0  0  0  0  0
   -5.3760   14.7700    1.2710 C   0  0  0  0  0  0  0  0  0  0  0  0
   -6.6980   14.7360    1.5150 N   0  0  0  0  0  0  0  0  0  0  0  0
   -7.6570   15.0810    2.5440 C   0  0  0  0  0  0  0  0  0  0  0  0
   -8.8300   15.2360    2.2180 O   0  0  0  0  0  0  0  0  0  0  0  0
   -7.2970   15.2710    3.8760 N   0  0  0  0  0  0  0  0  0  0  0  0
   -8.1190   15.8920    4.9100 C   0  0  0  0  0  0  0  0  0  0  0  0
   -8.9210   17.0050    4.5850 C   0  0  0  0  0  0  0  0  0  0  0  0
   -8.2060   15.4850    6.2500 C   0  0  0  0  0  0  0  0  0  0  0  0
   -9.7340   17.6870    5.4400 N   0  0  0  0  0  0  0  0  0  0  0  0
   -9.0380   16.1700    7.1580 C   0  0  0  0  0  0  0  0  0  0  0  0
   -9.7740   17.2560    6.7080 C   0  0  0  0  0  0  0  0  0  0  0  0
  1  2  2  0
  2  3  1  0
  2  4  1  0
  3  5  1  0
  4  6  1  0
  5  6  1  0
  6  7  2  3
  7  8  1  0
  8  9  2  0
  8 10  1  0
 10 11  1  0
 11 12  2  0
 11 13  1  0
 12 14  1  0
 13 15  2  0
 14 16  2  0
 15 16  1  0
M  END
