diamond-x0711_0_A-mac-x0564
     RDKit          3D

 20 22  0  0  0  0  0  0  0  0999 V2000
    0.4960   14.2210   -2.5540 N   0  0  0  0  0  0  0  0  0  0  0  0
    2.0140   13.4560   -2.6060 S   0  0  0  0  0  0  0  0  0  0  0  0
    2.0650   13.1280   -4.3950 C   0  0  0  0  0  0  0  0  0  0  0  0
   -0.6970   13.3860   -2.6830 C   0  0  2  0  0  0  0  0  0  0  0  0
    3.1560   14.3670   -2.2930 O   0  0  0  0  0  0  0  0  0  0  0  0
   -0.6050   13.4490   -4.0670 N   0  0  0  0  0  0  0  0  0  0  0  0
   -2.1510   13.7230   -2.1000 C   0  0  2  0  0  0  0  0  0  0  0  0
   -0.3260   12.3100   -1.7250 C   0  0  0  0  0  0  0  0  0  0  0  0
   -3.0260   14.8660   -2.5250 C   0  0  0  0  0  0  0  0  0  0  0  0
   -1.8870   13.6130   -0.5840 C   0  0  1  0  0  0  0  0  0  0  0  0
   -0.3560   13.4820   -0.7220 C   0  0  2  0  0  0  0  0  0  0  0  0
   -0.0510   14.7650   -4.1120 C   0  0  0  0  0  0  0  0  0  0  0  0
   -3.7950   15.5270   -1.6460 C   0  0  0  0  0  0  0  0  0  0  0  0
   -2.5360   14.6310    0.3740 C   0  0  0  0  0  0  0  0  0  0  0  0
    0.2960   14.7490   -1.4080 C   0  0  0  0  0  0  0  0  0  0  0  0
   -0.2260   15.3290   -2.7300 N   0  0  0  0  0  0  0  0  0  0  0  0
   -3.8520   15.2360   -0.1660 C   0  0  2  0  0  0  0  0  0  0  0  0
   -5.0900   14.4000    0.1900 C   0  0  0  0  0  0  0  0  0  0  0  0
   -5.7220   14.7480    1.3570 N   0  0  0  0  0  0  0  0  0  0  0  0
   -5.5380   13.4780   -0.4870 O   0  0  0  0  0  0  0  0  0  0  0  0
  2  1  1  0
  2  3  1  6
  4  1  1  1
  2  5  2  0
  4  6  1  0
  4  7  1  0
  4  8  1  0
  7  9  1  1
  7 10  1  0
  8 11  1  0
 10 11  1  0
  6 12  1  0
  9 13  2  0
 10 14  1  1
 11 15  1  6
 12 16  1  0
 15 16  1  0
 13 17  1  0
 14 17  1  0
 17 18  1  6
 18 19  1  0
 18 20  2  0
M  END
