diamond-x0895_1_A-diamond-x0685_0_A
     RDKit          3D

 11 11  0  0  0  0  0  0  0  0999 V2000
   -1.8970   14.7440    0.9520 O   0  0  0  0  0  0  0  0  0  0  0  0
   -3.0800   14.8910    0.6550 C   0  0  0  0  0  0  0  0  0  0  0  0
   -3.7190   15.2850   -0.6870 C   0  0  1  0  0  0  0  0  0  0  0  0
   -4.1750   14.7260    1.4900 N   0  0  0  0  0  0  0  0  0  0  0  0
   -3.0240   14.9740   -1.9390 C   0  0  0  0  0  0  0  0  0  0  0  0
   -4.9180   14.4860   -0.5620 N   0  0  0  0  0  0  0  0  0  0  0  0
   -5.3060   14.5810    0.7280 C   0  0  0  0  0  0  0  0  0  0  0  0
   -6.4990   14.5530    1.2030 N   0  0  0  0  0  0  0  0  0  0  0  0
   -2.5720   14.7860   -2.9900 N   0  0  0  0  0  0  0  0  0  0  0  0
   -6.8520   14.6670    2.6200 C   0  0  0  0  0  0  0  0  0  0  0  0
   -7.4720   13.3620    3.0880 C   0  0  0  0  0  0  0  0  0  0  0  0
  1  2  2  0
  2  3  1  0
  2  4  1  0
  3  5  1  6
  3  6  1  0
  4  7  1  0
  6  7  1  0
  7  8  2  3
  5  9  3  0
  8 10  1  0
 10 11  1  0
M  END
