diamond-x0962_1_A-mac-x0124
     RDKit          3D

 19 21  0  0  0  0  0  0  0  0999 V2000
   -4.3220   14.9310   -1.2880 N   0  0  0  0  0  0  0  0  0  0  0  0
   -4.9630   15.7050   -0.2180 C   0  0  2  0  0  0  0  0  0  0  0  0
   -4.1550   15.9370    1.0770 C   0  0  0  0  0  0  0  0  0  0  0  0
   -6.1480   14.9930    0.2300 C   0  0  0  0  0  0  0  0  0  0  0  0
   -3.4470   14.7520    1.4310 N   0  0  0  0  0  0  0  0  0  0  0  0
   -6.2240   14.5020    1.5130 N   0  0  0  0  0  0  0  0  0  0  0  0
   -7.3370   14.6610   -0.3540 C   0  0  0  0  0  0  0  0  0  0  0  0
   -7.4260   13.9160    1.6480 C   0  0  0  0  0  0  0  0  0  0  0  0
   -8.1290   13.9910    0.5390 N   0  0  0  0  0  0  0  0  0  0  0  0
   -2.2560   14.7500    0.8350 C   0  0  0  0  0  0  0  0  0  0  0  0
   -2.1140   14.7530   -0.5630 C   0  0  0  0  0  0  0  0  0  0  0  0
   -1.1920   14.7720    1.6090 N   0  0  0  0  0  0  0  0  0  0  0  0
   -2.9740   14.7370   -1.7040 C   0  0  0  0  0  0  0  0  0  0  0  0
   -0.8280   14.7900   -1.0440 C   0  0  0  0  0  0  0  0  0  0  0  0
   -0.0210   14.8150    1.0090 C   0  0  0  0  0  0  0  0  0  0  0  0
   -0.8840   14.8010   -2.4190 N   0  0  0  0  0  0  0  0  0  0  0  0
   -2.1890   14.7680   -2.8320 C   0  0  0  0  0  0  0  0  0  0  0  0
    0.2800   14.8200   -0.3010 N   0  0  0  0  0  0  0  0  0  0  0  0
    0.2720   14.8490   -3.2810 C   0  0  0  0  0  0  0  0  0  0  0  0
  2  1  1  6
  2  3  1  0
  2  4  1  0
  3  5  1  0
  4  6  1  0
  4  7  2  0
  6  8  1  0
  7  9  1  0
  8  9  2  0
  5 10  1  0
 10 11  1  0
 10 12  2  0
 11 13  1  0
 11 14  2  0
 12 15  1  0
 14 16  1  0
 13 17  2  0
 16 17  1  0
 14 18  1  0
 15 18  2  0
 16 19  1  0
M  END
