diamond-x0844_0_A-mac-x0453
     RDKit          3D

 10 10  0  0  0  0  0  0  0  0999 V2000
   -7.5610   15.0660   -0.2280 O   0  0  0  0  0  0  0  0  0  0  0  0
   -6.3570   14.8650   -0.1220 C   0  0  0  0  0  0  0  0  0  0  0  0
   -5.6770   14.6240    1.0640 N   0  0  0  0  0  0  0  0  0  0  0  0
   -5.5140   14.8510   -1.3330 C   0  0  0  0  0  0  0  0  0  0  0  0
   -4.3500   14.9820    1.1790 C   0  0  0  0  0  0  0  0  0  0  0  0
   -4.1900   14.9860   -1.2110 C   0  0  0  0  0  0  0  0  0  0  0  0
   -6.0970   13.4590    1.7980 C   0  0  0  0  0  0  0  0  0  0  0  0
   -3.0730   14.9370   -2.7000 Br  0  0  0  0  0  0  0  0  0  0  0  0
   -3.5980   15.1630    0.0950 C   0  0  0  0  0  0  0  0  0  0  0  0
   -7.0840   13.8720    2.7790 N   0  0  0  0  0  0  0  0  0  0  0  0
  1  2  2  0
  2  3  1  0
  2  4  1  0
  3  5  1  0
  4  6  2  0
  3  7  1  0
  6  8  1  0
  5  9  2  0
  6  9  1  0
  7 10  1  0
M  END
