diamond-x0962_1_A-mac-x0387
     RDKit          3D

 19 21  0  0  0  0  0  0  0  0999 V2000
   -4.7200   15.0510   -1.6090 N   0  0  0  0  0  0  0  0  0  0  0  0
   -4.7530   14.6760   -0.1850 C   0  0  1  0  0  0  0  0  0  0  0  0
   -4.3920   15.7610    0.8460 C   0  0  0  0  0  0  0  0  0  0  0  0
   -6.1170   14.4880    0.2480 C   0  0  0  0  0  0  0  0  0  0  0  0
   -3.3970   15.3420    1.7600 N   0  0  0  0  0  0  0  0  0  0  0  0
   -6.3810   14.2870    1.5750 N   0  0  0  0  0  0  0  0  0  0  0  0
   -7.3250   14.4730   -0.3790 C   0  0  0  0  0  0  0  0  0  0  0  0
   -7.7140   14.1630    1.7050 C   0  0  0  0  0  0  0  0  0  0  0  0
   -8.3200   14.2700    0.5420 N   0  0  0  0  0  0  0  0  0  0  0  0
   -2.2160   15.0290    1.1490 C   0  0  0  0  0  0  0  0  0  0  0  0
   -2.0720   15.1710   -0.2600 C   0  0  0  0  0  0  0  0  0  0  0  0
   -1.2670   14.6100    1.9400 N   0  0  0  0  0  0  0  0  0  0  0  0
   -0.8260   14.8480   -0.8130 C   0  0  0  0  0  0  0  0  0  0  0  0
   -0.1100   14.3160    1.3960 C   0  0  0  0  0  0  0  0  0  0  0  0
   -3.0770   15.6070   -1.1520 C   0  0  0  0  0  0  0  0  0  0  0  0
    0.1780   14.4160    0.0460 C   0  0  0  0  0  0  0  0  0  0  0  0
   -0.6090   14.9550   -2.1970 C   0  0  0  0  0  0  0  0  0  0  0  0
   -2.8600   15.7040   -2.5240 C   0  0  0  0  0  0  0  0  0  0  0  0
   -1.6240   15.3790   -3.0490 C   0  0  0  0  0  0  0  0  0  0  0  0
  2  1  1  6
  2  3  1  0
  2  4  1  0
  3  5  1  0
  4  6  1  0
  4  7  2  0
  6  8  1  0
  7  9  1  0
  8  9  2  0
  5 10  1  0
 10 11  1  0
 10 12  2  0
 11 13  2  0
 12 14  1  0
 11 15  1  0
 13 16  1  0
 14 16  2  0
 13 17  1  0
 15 18  2  0
 17 19  2  0
 18 19  1  0
M  END
