diamond-x0290_0_A-mac-x0193
     RDKit          3D

 29 30  0  0  0  0  0  0  0  0999 V2000
   -7.7300   13.8210    0.8790 N   0  0  0  0  0  0  0  0  0  0  0  0
   -8.6110   14.9720    0.7590 C   0  0  0  0  0  0  0  0  0  0  0  0
   -6.5570   14.1160    1.7180 C   0  0  0  0  0  0  0  0  0  0  0  0
   -5.3760   14.5180    0.8170 C   0  0  0  0  0  0  0  0  0  0  0  0
   -5.5190   14.5710   -0.4020 O   0  0  0  0  0  0  0  0  0  0  0  0
   -4.2200   14.7790    1.5120 N   0  0  0  0  0  0  0  0  0  0  0  0
   -2.9340   14.6730    0.9910 C   0  0  0  0  0  0  0  0  0  0  0  0
   -1.9260   14.6450    1.8980 N   0  0  0  0  0  0  0  0  0  0  0  0
   -2.7070   14.5890   -0.3560 C   0  0  0  0  0  0  0  0  0  0  0  0
   -0.6620   14.5430    1.4310 C   0  0  0  0  0  0  0  0  0  0  0  0
   -1.4030   14.4750   -0.8050 C   0  0  0  0  0  0  0  0  0  0  0  0
   -1.1450   14.3450   -2.2540 C   0  0  0  0  0  0  0  0  0  0  0  0
   -0.3540   14.4590    0.1020 C   0  0  0  0  0  0  0  0  0  0  0  0
   -0.9650   12.8460   -2.4640 C   0  0  0  0  0  0  0  0  0  0  0  0
    0.3390   12.3510   -1.8200 C   0  0  0  0  0  0  0  0  0  0  0  0
    1.2880   12.7370   -2.8100 N   0  0  0  0  0  0  0  0  0  0  0  0
    1.0660   12.0740   -3.8520 C   0  0  0  0  0  0  0  0  0  0  0  0
    0.0930   11.1430   -3.7620 O   0  0  0  0  0  0  0  0  0  0  0  0
    1.6970   12.1570   -5.2100 C   0  0  0  0  0  0  0  0  0  0  0  0
    0.6550   11.7940   -6.1500 N   0  0  0  0  0  0  0  0  0  0  0  0
    1.0390   11.2470   -7.3300 C   0  0  0  0  0  0  0  0  0  0  0  0
    2.1860   11.3190   -7.7010 O   0  0  0  0  0  0  0  0  0  0  0  0
    0.0090   10.6280   -7.9910 N   0  0  0  0  0  0  0  0  0  0  0  0
    0.2630    9.5930   -8.9900 C   0  0  0  0  0  0  0  0  0  0  0  0
    1.7380    9.3050   -9.0990 C   0  0  0  0  0  0  0  0  0  0  0  0
   -0.2870    9.9910  -10.3630 C   0  0  0  0  0  0  0  0  0  0  0  0
    2.0930    8.1700  -10.0600 C   0  0  0  0  0  0  0  0  0  0  0  0
    0.5800    9.5310  -11.5440 C   0  0  0  0  0  0  0  0  0  0  0  0
    1.2270    8.1710  -11.3110 C   0  0  0  0  0  0  0  0  0  0  0  0
  1  2  1  0
  1  3  1  0
  3  4  1  0
  4  5  2  0
  4  6  1  0
  6  7  1  0
  7  8  2  0
  7  9  1  0
  8 10  1  0
  9 11  2  0
 11 12  1  0
 10 13  2  0
 11 13  1  0
 12 14  1  0
 14 15  1  0
 15 16  1  0
 16 17  2  3
 17 18  1  0
 17 19  1  0
 19 20  1  0
 20 21  1  0
 21 22  2  0
 21 23  1  0
 23 24  1  0
 24 25  1  0
 24 26  1  0
 25 27  1  0
 26 28  1  0
 27 29  1  0
 28 29  1  0
M  END
