diamond-x0253_0_A-diamond-x0465_0_A
     RDKit          3D

 22 23  0  0  0  0  0  0  0  0999 V2000
    0.2830   11.4600   -5.5000 N   0  0  0  0  0  0  0  0  0  0  0  0
    0.9920   11.4710   -6.7100 C   0  0  0  0  0  0  0  0  0  0  0  0
    2.0520   12.0550   -6.8100 O   0  0  0  0  0  0  0  0  0  0  0  0
    0.5690   12.5970   -4.5780 C   0  0  1  0  0  0  0  0  0  0  0  0
   -0.9340   10.7050   -5.4170 C   0  0  0  0  0  0  0  0  0  0  0  0
    0.6630   12.2030   -3.0950 C   0  0  0  0  0  0  0  0  0  0  0  0
    1.7870   13.4470   -4.9210 C   0  0  0  0  0  0  0  0  0  0  0  0
    0.4180   10.6970   -7.8660 C   0  0  0  0  0  0  0  0  0  0  0  0
   -1.0270    9.3670   -5.8770 C   0  0  0  0  0  0  0  0  0  0  0  0
   -2.0780   11.2880   -4.8720 C   0  0  0  0  0  0  0  0  0  0  0  0
    1.1820   12.8300   -2.1880 O   0  0  0  0  0  0  0  0  0  0  0  0
    0.0850   11.0130   -2.8240 O   0  0  0  0  0  0  0  0  0  0  0  0
    0.0170    8.7220   -6.4210 F   0  0  0  0  0  0  0  0  0  0  0  0
   -0.6500    9.8270   -7.6390 C   0  0  0  0  0  0  0  0  0  0  0  0
    0.9150   10.8120   -9.1730 C   0  0  0  0  0  0  0  0  0  0  0  0
   -2.2130    8.6530   -5.7900 C   0  0  0  0  0  0  0  0  0  0  0  0
   -3.2730   10.5670   -4.7880 C   0  0  0  0  0  0  0  0  0  0  0  0
   -1.2200    9.0780   -8.6710 C   0  0  0  0  0  0  0  0  0  0  0  0
    0.3540   10.0690  -10.2100 C   0  0  0  0  0  0  0  0  0  0  0  0
   -3.3380    9.2520   -5.2470 C   0  0  0  0  0  0  0  0  0  0  0  0
   -2.3650    8.1500   -8.3950 C   0  0  0  0  0  0  0  0  0  0  0  0
   -0.7080    9.2050   -9.9600 C   0  0  0  0  0  0  0  0  0  0  0  0
  1  2  1  0
  2  3  2  0
  1  4  1  0
  1  5  1  0
  4  6  1  0
  4  7  1  6
  2  8  1  0
  5  9  2  0
  5 10  1  0
  6 11  2  0
  6 12  1  0
  9 13  1  0
  8 14  2  0
  8 15  1  0
  9 16  1  0
 10 17  2  0
 14 18  1  0
 15 19  2  0
 16 20  2  0
 17 20  1  0
 18 21  1  0
 18 22  2  0
 19 22  1  0
M  END
