diamond-x0685_0_A-mac-x0472
     RDKit          3D

 19 20  0  0  0  0  0  0  0  0999 V2000
   -6.2870   15.1020    2.9480 N   0  0  0  0  0  0  0  0  0  0  0  0
   -7.7100   14.9220    2.8760 C   0  0  0  0  0  0  0  0  0  0  0  0
   -8.0400   13.4510    2.9830 C   0  0  0  0  0  0  0  0  0  0  0  0
   -5.5710   15.0150    1.7220 C   0  0  0  0  0  0  0  0  0  0  0  0
   -4.2080   15.1750    1.5850 C   0  0  0  0  0  0  0  0  0  0  0  0
   -6.2430   14.7610    0.6000 N   0  0  0  0  0  0  0  0  0  0  0  0
   -3.5740   15.0590    0.3850 C   0  0  0  0  0  0  0  0  0  0  0  0
   -5.6590   14.6440   -0.5760 C   0  0  0  0  0  0  0  0  0  0  0  0
   -4.3260   14.7750   -0.7070 C   0  0  0  0  0  0  0  0  0  0  0  0
   -3.6220   14.5200   -2.2670 S   0  0  0  0  0  0  0  0  0  0  0  0
   -4.8660   14.7770   -3.0170 N   0  0  0  0  0  0  0  0  0  0  0  0
   -2.9820   15.5200   -3.1960 O   0  0  0  0  0  0  0  0  0  0  0  0
   -2.2750   14.2470   -1.6230 N   0  0  0  0  0  0  0  0  0  0  0  0
   -3.9970   12.7940   -2.3640 C   0  0  0  0  0  0  0  0  0  0  0  0
   -3.1440   11.8450   -2.7970 C   0  0  0  0  0  0  0  0  0  0  0  0
   -5.2500   12.4200   -1.9430 C   0  0  0  0  0  0  0  0  0  0  0  0
   -3.6020   10.5120   -2.7920 C   0  0  0  0  0  0  0  0  0  0  0  0
   -5.6940   11.1270   -1.9370 C   0  0  0  0  0  0  0  0  0  0  0  0
   -4.8590   10.1380   -2.3720 C   0  0  0  0  0  0  0  0  0  0  0  0
  1  2  1  0
  2  3  1  0
  1  4  1  0
  4  5  2  0
  4  6  1  0
  5  7  1  0
  6  8  2  0
  7  9  2  0
  8  9  1  0
  9 10  1  0
 10 11  1  0
 10 12  2  0
 10 13  1  0
 10 14  1  0
 14 15  2  0
 14 16  1  0
 15 17  1  0
 16 18  2  0
 17 19  2  0
 18 19  1  0
M  END
