diamond-x1012_0_A-diamond-x0933_0_A
     RDKit          3D

 22 23  0  0  0  0  0  0  0  0999 V2000
   -0.5970   18.0330   -4.6970 N   0  0  0  0  0  0  0  0  0  0  0  0
   -1.3190   16.8910   -4.7980 C   0  0  0  0  0  0  0  0  0  0  0  0
   -2.5870   16.9720   -4.8100 N   0  0  0  0  0  0  0  0  0  0  0  0
   -0.5210   15.7810   -4.8720 N   0  0  0  0  0  0  0  0  0  0  0  0
   -3.3210   15.7060   -4.9390 C   0  0  0  0  0  0  0  0  0  0  0  0
   -1.1240   14.4710   -5.1280 C   0  0  0  0  0  0  0  0  0  0  0  0
    0.8790   15.7910   -4.4340 C   0  0  0  0  0  0  0  0  0  0  0  0
   -3.1950   14.9190   -3.6300 C   0  0  0  0  0  0  0  0  0  0  0  0
   -1.0200   13.5730   -3.9170 C   0  0  0  0  0  0  0  0  0  0  0  0
    1.1290   14.7700   -3.3080 C   0  0  0  0  0  0  0  0  0  0  0  0
   -4.4840   14.8040   -2.8120 C   0  0  0  0  0  0  0  0  0  0  0  0
    0.4390   13.4060   -3.5450 C   0  0  0  0  0  0  0  0  0  0  0  0
    0.4640   12.4580   -2.3720 C   0  0  0  0  0  0  0  0  0  0  0  0
   -4.2780   15.2190   -1.3390 C   0  0  1  0  0  0  0  0  0  0  0  0
    0.2020   11.1810   -2.7010 O   0  0  0  0  0  0  0  0  0  0  0  0
    0.6700   12.7600   -1.2130 O   0  0  0  0  0  0  0  0  0  0  0  0
   -5.4060   14.8910   -0.4590 N   0  0  0  0  0  0  0  0  0  0  0  0
   -2.9250   14.7120   -0.7710 C   0  0  0  0  0  0  0  0  0  0  0  0
   -5.1120   15.0410    0.9240 C   0  0  1  0  0  0  0  0  0  0  0  0
   -2.8040   14.8830    0.7440 C   0  0  0  0  0  0  0  0  0  0  0  0
   -6.1890   14.5180    1.6870 N   0  0  0  0  0  0  0  0  0  0  0  0
   -3.9860   14.3030    1.3140 N   0  0  0  0  0  0  0  0  0  0  0  0
  1  2  1  0
  2  3  2  3
  2  4  1  0
  3  5  1  0
  4  6  1  0
  4  7  1  0
  5  8  1  0
  6  9  1  0
  7 10  1  0
  8 11  1  0
  9 12  1  0
 10 12  1  0
 12 13  1  0
 14 11  1  6
 13 15  1  0
 13 16  2  0
 14 17  1  0
 14 18  1  0
 17 19  1  0
 18 20  1  0
 19 21  1  1
 19 22  1  0
 20 22  1  0
M  END
