diamond-x0128_0_A-mac-x0204
     RDKit          3D

 29 31  0  0  0  0  0  0  0  0999 V2000
   -6.5830   14.7220    2.4390 N   0  0  0  0  0  0  0  0  0  0  0  0
   -7.7770   15.1920    2.9930 C   0  0  0  0  0  0  0  0  0  0  0  0
   -8.7990   15.4510    2.3660 O   0  0  0  0  0  0  0  0  0  0  0  0
   -6.1250   14.7650    1.0970 C   0  0  0  0  0  0  0  0  0  0  0  0
   -7.6430   15.3390    4.3730 N   0  0  0  0  0  0  0  0  0  0  0  0
   -7.1210   14.8690    0.1210 C   0  0  0  0  0  0  0  0  0  0  0  0
   -4.7730   14.7160    0.6860 C   0  0  0  0  0  0  0  0  0  0  0  0
   -6.7980   14.9320   -1.2250 C   0  0  0  0  0  0  0  0  0  0  0  0
   -4.4450   14.7710   -0.6960 C   0  0  0  0  0  0  0  0  0  0  0  0
   -8.4560   16.0690    5.2780 C   0  0  0  0  0  0  0  0  0  0  0  0
   -3.0510   14.7150   -1.2740 C   0  0  0  0  0  0  0  0  0  0  0  0
   -5.4750   14.8830   -1.6240 C   0  0  0  0  0  0  0  0  0  0  0  0
   -9.1160   17.2180    4.8350 C   0  0  0  0  0  0  0  0  0  0  0  0
   -8.6530   15.7210    6.6110 C   0  0  0  0  0  0  0  0  0  0  0  0
   -1.9660   13.9480   -0.5130 C   0  0  0  0  0  0  0  0  0  0  0  0
   -9.9180   17.9990    5.5970 N   0  0  0  0  0  0  0  0  0  0  0  0
   -9.4740   16.5060    7.4270 C   0  0  0  0  0  0  0  0  0  0  0  0
   -0.5120   14.3070   -0.8790 C   0  0  0  0  0  0  0  0  0  0  0  0
  -10.0780   17.6270    6.8780 C   0  0  0  0  0  0  0  0  0  0  0  0
    0.0350   14.1070   -2.3280 C   0  0  0  0  0  0  0  0  0  0  0  0
    0.7250   12.8810   -2.3780 O   0  0  0  0  0  0  0  0  0  0  0  0
    1.0010   15.0920   -2.6110 O   0  0  0  0  0  0  0  0  0  0  0  0
   -1.0160   14.1080   -3.4430 C   0  0  0  0  0  0  0  0  0  0  0  0
   -1.3530   15.2820   -4.1490 C   0  0  0  0  0  0  0  0  0  0  0  0
   -1.6860   12.9420   -3.8270 C   0  0  0  0  0  0  0  0  0  0  0  0
   -2.3080   15.2410   -5.1610 C   0  0  0  0  0  0  0  0  0  0  0  0
   -2.6190   12.8760   -4.8140 N   0  0  0  0  0  0  0  0  0  0  0  0
   -2.6600   16.3600   -5.8610 O   0  0  0  0  0  0  0  0  0  0  0  0
   -2.9100   14.0300   -5.4580 C   0  0  0  0  0  0  0  0  0  0  0  0
  1  2  1  0
  2  3  2  0
  1  4  1  0
  2  5  1  0
  4  6  2  0
  4  7  1  0
  6  8  1  0
  7  9  2  0
  5 10  1  0
  9 11  1  0
  8 12  2  0
  9 12  1  0
 10 13  2  0
 10 14  1  0
 11 15  1  0
 13 16  1  0
 14 17  2  0
 15 18  1  0
 16 19  2  0
 17 19  1  0
 18 20  1  0
 20 21  1  0
 20 22  1  0
 20 23  1  0
 23 24  2  0
 23 25  1  0
 24 26  1  0
 25 27  2  0
 26 28  1  0
 26 29  2  0
 27 29  1  0
M  END
