diamond-x0471_0_A-mac-x0412
     RDKit          3D

 16 17  0  0  0  0  0  0  0  0999 V2000
   -8.8100   14.1070    2.8460 N   0  0  0  0  0  0  0  0  0  0  0  0
   -9.1750   15.1320    3.6840 C   0  0  0  0  0  0  0  0  0  0  0  0
   -9.4550   16.2440    3.2480 O   0  0  0  0  0  0  0  0  0  0  0  0
   -8.8900   14.2850    1.4100 C   0  0  0  0  0  0  0  0  0  0  0  0
   -9.2550   14.8320    5.1790 C   0  0  0  0  0  0  0  0  0  0  0  0
   -7.5150   14.5300    0.8860 C   0  0  0  0  0  0  0  0  0  0  0  0
   -9.6350   13.3840    5.4590 C   0  0  0  0  0  0  0  0  0  0  0  0
   -7.9910   15.2700    5.9090 C   0  0  0  0  0  0  0  0  0  0  0  0
   -7.2430   14.8180   -0.4310 N   0  0  0  0  0  0  0  0  0  0  0  0
   -6.4060   14.5060    1.5930 N   0  0  0  0  0  0  0  0  0  0  0  0
   -5.3880   14.7830    0.7180 C   0  0  0  0  0  0  0  0  0  0  0  0
   -5.8850   14.9840   -0.5610 C   0  0  0  0  0  0  0  0  0  0  0  0
   -5.0700   15.2820   -1.6530 C   0  0  0  0  0  0  0  0  0  0  0  0
   -4.0100   14.8750    0.9540 C   0  0  0  0  0  0  0  0  0  0  0  0
   -3.6970   15.3670   -1.4010 C   0  0  0  0  0  0  0  0  0  0  0  0
   -3.1720   15.1670   -0.1200 C   0  0  0  0  0  0  0  0  0  0  0  0
  1  2  1  0
  2  3  2  0
  1  4  1  0
  2  5  1  0
  4  6  1  0
  5  7  1  0
  5  8  1  0
  6  9  1  0
  6 10  2  0
 10 11  1  0
  9 12  1  0
 11 12  2  0
 12 13  1  0
 11 14  1  0
 13 15  2  0
 14 16  2  0
 15 16  1  0
M  END
