diamond-x0864_0_A-mac-x0161
     RDKit          3D

 30 33  0  0  0  0  0  0  0  0999 V2000
    2.0260   11.9400   -6.8200 O   0  0  0  0  0  0  0  0  0  0  0  0
    1.0050   11.2840   -6.9560 C   0  0  0  0  0  0  0  0  0  0  0  0
   -0.0420   11.4320   -6.0970 N   0  0  0  0  0  0  0  0  0  0  0  0
    0.8390   10.2710   -8.0090 C   0  0  0  0  0  0  0  0  0  0  0  0
    0.0780   12.6870   -5.3420 C   0  0  0  0  0  0  0  0  0  0  0  0
   -0.7900   10.3040   -5.7120 C   0  0  0  0  0  0  0  0  0  0  0  0
   -0.0360    9.2840   -7.7880 C   0  0  0  0  0  0  0  0  0  0  0  0
    1.1800   12.6090   -4.2760 C   0  0  0  0  0  0  0  0  0  0  0  0
   -0.3570    7.9240   -9.0220 Br  0  0  0  0  0  0  0  0  0  0  0  0
   -1.5180   10.2200   -4.5350 N   0  0  0  0  0  0  0  0  0  0  0  0
   -0.7770    9.2520   -6.5540 C   0  0  0  0  0  0  0  0  0  0  0  0
    1.0490   11.5720   -3.4210 O   0  0  0  0  0  0  0  0  0  0  0  0
    2.1160   13.3970   -4.1640 O   0  0  0  0  0  0  0  0  0  0  0  0
   -2.7960    9.4890   -4.5610 C   0  0  0  0  0  0  0  0  0  0  0  0
   -1.4240   11.2420   -3.6520 C   0  0  0  0  0  0  0  0  0  0  0  0
   -1.8600   12.5430   -3.9760 C   0  0  0  0  0  0  0  0  0  0  0  0
   -0.9210   11.1890   -2.4130 N   0  0  0  0  0  0  0  0  0  0  0  0
   -1.5770   13.2860   -2.8710 C   0  0  0  0  0  0  0  0  0  0  0  0
   -1.0140   12.4770   -1.9140 O   0  0  0  0  0  0  0  0  0  0  0  0
   -1.7720   14.7190   -2.5950 C   0  0  0  0  0  0  0  0  0  0  0  0
   -2.4910   14.9460   -1.3490 N   0  0  0  0  0  0  0  0  0  0  0  0
   -3.9190   15.1280   -1.5270 C   0  0  0  0  0  0  0  0  0  0  0  0
   -2.2090   13.9360   -0.3640 C   0  0  2  0  0  0  0  0  0  0  0  0
   -4.4480   15.6870   -0.2960 N   0  0  0  0  0  0  0  0  0  0  0  0
   -2.7530   14.2930    1.0030 C   0  0  2  0  0  0  0  0  0  0  0  0
   -0.7540   13.8900   -0.1700 N   0  0  0  0  0  0  0  0  0  0  0  0
   -4.1660   14.9000    0.8800 C   0  0  1  0  0  0  0  0  0  0  0  0
   -1.7320   15.2200    1.4890 N   0  0  0  0  0  0  0  0  0  0  0  0
   -0.4840   14.6010    1.0740 C   0  0  0  0  0  0  0  0  0  0  0  0
   -4.5080   15.7570    1.9880 N   0  0  0  0  0  0  0  0  0  0  0  0
  1  2  2  0
  2  3  1  0
  2  4  1  0
  3  5  1  0
  3  6  1  0
  4  7  2  0
  5  8  1  0
  7  9  1  0
  6 10  1  0
  6 11  2  0
  7 11  1  0
  8 12  1  0
  8 13  2  0
 10 14  1  0
 10 15  1  0
 15 16  1  0
 15 17  2  0
 16 18  2  0
 17 19  1  0
 18 19  1  0
 18 20  1  0
 20 21  1  0
 21 22  1  0
 21 23  1  0
 22 24  1  0
 23 25  1  0
 23 26  1  1
 24 27  1  0
 25 27  1  0
 25 28  1  6
 26 29  1  0
 28 29  1  0
 27 30  1  1
M  END
