diamond-x0253_0_A-diamond-x0711_0_A
     RDKit          3D

 27 28  0  0  0  0  0  0  0  0999 V2000
    0.2450   12.1220   -5.3720 N   0  0  0  0  0  0  0  0  0  0  0  0
    0.9380   11.7450   -6.5420 C   0  0  0  0  0  0  0  0  0  0  0  0
    2.1230   12.2190   -6.6060 O   0  0  0  0  0  0  0  0  0  0  0  0
    0.7820   11.6170   -4.1440 C   0  0  0  0  0  0  0  0  0  0  0  0
    0.2530   11.9530   -2.8170 C   0  0  0  0  0  0  0  0  0  0  0  0
    0.4350   10.8400   -7.5670 C   0  0  0  0  0  0  0  0  0  0  0  0
   -0.3360   12.9740   -2.6000 N   0  0  0  0  0  0  0  0  0  0  0  0
    0.4910   10.9900   -1.8370 O   0  0  0  0  0  0  0  0  0  0  0  0
   -0.5420    9.8970   -7.2030 C   0  0  0  0  0  0  0  0  0  0  0  0
    0.8260   10.8060   -8.8850 C   0  0  0  0  0  0  0  0  0  0  0  0
   -0.7830   14.1780   -3.4320 S   0  0  0  0  0  0  0  0  0  0  0  0
   -1.0750    9.0040   -8.1020 C   0  0  0  0  0  0  0  0  0  0  0  0
    0.3040    9.9150   -9.8080 C   0  0  0  0  0  0  0  0  0  0  0  0
   -2.1220    8.0350   -7.6070 C   0  0  0  0  0  0  0  0  0  0  0  0
   -1.5100   14.9320   -2.3000 N   0  0  0  0  0  0  0  0  0  0  0  0
   -2.0190   14.2080   -4.5470 C   0  0  0  0  0  0  0  0  0  0  0  0
    0.3750   15.5230   -3.5880 O   0  0  0  0  0  0  0  0  0  0  0  0
   -0.6580    9.0100   -9.3940 C   0  0  0  0  0  0  0  0  0  0  0  0
   -2.8240   14.8860   -1.6950 C   0  0  0  0  0  0  0  0  0  0  0  0
   -3.9900   15.1370   -2.3220 C   0  0  0  0  0  0  0  0  0  0  0  0
   -2.8820   14.5520   -0.3310 C   0  0  0  0  0  0  0  0  0  0  0  0
   -5.2050   15.0670   -1.6570 C   0  0  0  0  0  0  0  0  0  0  0  0
   -4.0790   14.4790    0.3360 C   0  0  0  0  0  0  0  0  0  0  0  0
   -5.2760   14.7360   -0.3210 C   0  0  0  0  0  0  0  0  0  0  0  0
   -6.5510   14.6540    0.3810 C   0  0  0  0  0  0  0  0  0  0  0  0
   -6.5460   14.6880    1.8370 N   0  0  0  0  0  0  0  0  0  0  0  0
   -7.6640   14.5600   -0.1420 O   0  0  0  0  0  0  0  0  0  0  0  0
  1  2  1  0
  2  3  2  0
  1  4  1  0
  4  5  1  0
  2  6  1  0
  5  7  2  3
  5  8  1  0
  6  9  2  0
  6 10  1  0
  7 11  1  0
  9 12  1  0
 10 13  2  0
 12 14  1  0
 11 15  1  0
 11 16  1  0
 11 17  2  0
 12 18  2  0
 13 18  1  0
 15 19  1  0
 19 20  2  0
 19 21  1  0
 20 22  1  0
 21 23  2  0
 22 24  2  0
 23 24  1  0
 24 25  1  0
 25 26  1  0
 25 27  2  0
M  END
