diamond-x0711_0_A-diamond-x0592_0_A
     RDKit          3D

 21 22  0  0  0  0  0  0  0  0999 V2000
   -1.7460   13.9060   -1.1810 C   0  0  0  0  0  0  0  0  0  0  0  0
   -0.6280   13.0820   -2.2370 S   0  0  0  0  0  0  0  0  0  0  0  0
   -1.7080   12.1140   -3.2640 C   0  0  0  0  0  0  0  0  0  0  0  0
   -1.5290   14.7300   -0.1640 C   0  0  0  0  0  0  0  0  0  0  0  0
   -3.1830   13.7570   -1.2630 C   0  0  0  0  0  0  0  0  0  0  0  0
    0.0240   14.0530   -3.1150 O   0  0  0  0  0  0  0  0  0  0  0  0
    0.2060   12.1350   -1.5070 O   0  0  0  0  0  0  0  0  0  0  0  0
   -0.3590   15.2190    0.4200 N   0  0  0  0  0  0  0  0  0  0  0  0
   -4.0760   13.9950   -2.3150 C   0  0  0  0  0  0  0  0  0  0  0  0
   -3.6640   13.3460   -0.0220 C   0  0  0  0  0  0  0  0  0  0  0  0
   -2.8320   15.1340    0.3320 C   0  0  0  0  0  0  0  0  0  0  0  0
   -5.4600   13.8290   -2.0610 C   0  0  0  0  0  0  0  0  0  0  0  0
   -4.9970   13.1830    0.2230 C   0  0  0  0  0  0  0  0  0  0  0  0
   -3.7990   15.6630   -0.5150 C   0  0  0  0  0  0  0  0  0  0  0  0
   -3.4600   15.1110    1.5840 C   0  0  0  0  0  0  0  0  0  0  0  0
   -5.9170   13.4290   -0.7770 C   0  0  0  0  0  0  0  0  0  0  0  0
   -4.8830   15.9030    0.2390 N   0  0  0  0  0  0  0  0  0  0  0  0
   -4.7110   15.5780    1.5270 N   0  0  0  0  0  0  0  0  0  0  0  0
   -7.3680   13.2530   -0.4080 C   0  0  0  0  0  0  0  0  0  0  0  0
   -7.5010   13.0100    1.0490 N   0  0  0  0  0  0  0  0  0  0  0  0
   -7.1500   14.2440    1.7650 O   0  0  0  0  0  0  0  0  0  0  0  0
  2  1  1  0
  2  3  1  0
  1  4  2  3
  1  5  1  0
  2  6  2  0
  2  7  2  0
  4  8  1  0
  5  9  2  0
  5 10  1  0
  4 11  1  0
  9 12  1  0
 10 13  2  0
 11 14  2  0
 11 15  1  0
 12 16  2  0
 13 16  1  0
 14 17  1  0
 15 18  2  0
 17 18  1  0
 16 19  1  0
 19 20  1  0
 20 21  1  0
M  END
