diamond-x1018_0_A-diamond-x0371_0_A
     RDKit          3D

 18 20  0  0  0  0  0  0  0  0999 V2000
   -8.0060   14.5230    1.2730 C   0  0  0  0  0  0  0  0  0  0  0  0
   -7.8920   14.5850    2.7320 N   0  0  0  0  0  0  0  0  0  0  0  0
   -8.6790   15.4850    3.4420 C   0  0  0  0  0  0  0  0  0  0  0  0
   -6.6070   14.6570    0.6620 C   0  0  0  0  0  0  0  0  0  0  0  0
   -6.4590   14.5900   -0.6340 N   0  0  0  0  0  0  0  0  0  0  0  0
   -5.4930   14.8650    1.6300 C   0  0  0  0  0  0  0  0  0  0  0  0
   -9.4380   16.2440    2.8360 O   0  0  0  0  0  0  0  0  0  0  0  0
   -5.1570   14.7100   -1.0160 N   0  0  0  0  0  0  0  0  0  0  0  0
   -4.2480   14.9680    1.1650 C   0  0  0  0  0  0  0  0  0  0  0  0
   -8.5670   15.4790    4.8910 C   0  0  0  0  0  0  0  0  0  0  0  0
   -4.7690   14.6640   -2.2980 N   0  0  0  0  0  0  0  0  0  0  0  0
   -4.0460   14.8880   -0.2220 C   0  0  0  0  0  0  0  0  0  0  0  0
   -8.0160   14.3840    5.4960 O   0  0  0  0  0  0  0  0  0  0  0  0
   -8.9200   16.3940    5.8690 C   0  0  0  0  0  0  0  0  0  0  0  0
   -2.9820   14.9490   -0.9880 N   0  0  0  0  0  0  0  0  0  0  0  0
   -3.4470   14.8100   -2.2760 N   0  0  0  0  0  0  0  0  0  0  0  0
   -8.5640   15.8210    7.1180 C   0  0  0  0  0  0  0  0  0  0  0  0
   -8.0160   14.5970    6.8320 C   0  0  0  0  0  0  0  0  0  0  0  0
  1  2  1  0
  2  3  1  0
  1  4  1  0
  4  5  2  0
  4  6  1  0
  3  7  2  0
  5  8  1  0
  6  9  2  0
  3 10  1  0
  8 11  1  0
  8 12  1  0
  9 12  1  0
 10 13  1  0
 10 14  2  0
 12 15  2  0
 11 16  2  0
 15 16  1  0
 14 17  1  0
 13 18  1  0
 17 18  2  0
M  END
