diamond-x0910_0_A-mac-x0231
     RDKit          3D

 22 24  0  0  0  0  0  0  0  0999 V2000
   -2.7170   14.3840   -1.7200 N   0  0  0  0  0  0  0  0  0  0  0  0
   -2.0350   14.5070   -0.5710 C   0  0  0  0  0  0  0  0  0  0  0  0
   -2.3440   15.2330    0.4760 N   0  0  0  0  0  0  0  0  0  0  0  0
   -0.8660   13.8560   -0.3020 N   0  0  0  0  0  0  0  0  0  0  0  0
   -0.1040   12.9190   -1.0830 C   0  0  0  0  0  0  0  0  0  0  0  0
   -1.3660   15.0700    1.4190 N   0  0  0  0  0  0  0  0  0  0  0  0
   -0.4910   14.2460    0.9420 C   0  0  0  0  0  0  0  0  0  0  0  0
    0.5230   13.2590   -2.3240 N   0  0  0  0  0  0  0  0  0  0  0  0
    0.9470   12.3510   -3.1230 C   0  0  0  0  0  0  0  0  0  0  0  0
    0.7850   11.0580   -2.7830 O   0  0  0  0  0  0  0  0  0  0  0  0
    1.5830   12.6350   -4.4210 C   0  0  0  0  0  0  0  0  0  0  0  0
    1.1470   14.0480   -4.6170 C   0  0  0  0  0  0  0  0  0  0  0  0
   -0.2770   14.3160   -4.9110 C   0  0  0  0  0  0  0  0  0  0  0  0
    2.0260   14.9740   -4.4400 N   0  0  0  0  0  0  0  0  0  0  0  0
   -0.6820   15.6440   -4.9430 C   0  0  0  0  0  0  0  0  0  0  0  0
    1.6130   16.2590   -4.5580 N   0  0  0  0  0  0  0  0  0  0  0  0
   -1.2130   13.3030   -5.1420 C   0  0  0  0  0  0  0  0  0  0  0  0
    0.3220   16.6920   -4.7040 C   0  0  0  0  0  0  0  0  0  0  0  0
   -2.0200   15.9790   -5.1970 C   0  0  0  0  0  0  0  0  0  0  0  0
   -2.5470   13.6310   -5.3980 C   0  0  0  0  0  0  0  0  0  0  0  0
    0.0180   17.8780   -4.6460 O   0  0  0  0  0  0  0  0  0  0  0  0
   -2.9520   14.9660   -5.4250 C   0  0  0  0  0  0  0  0  0  0  0  0
  1  2  1  0
  2  3  2  0
  2  4  1  0
  4  5  1  0
  3  6  1  0
  4  7  1  0
  6  7  2  0
  5  8  1  0
  8  9  2  3
  9 10  1  0
  9 11  1  0
 11 12  1  0
 12 13  1  0
 12 14  2  0
 13 15  2  0
 14 16  1  0
 13 17  1  0
 15 18  1  0
 16 18  1  0
 15 19  1  0
 17 20  2  0
 18 21  2  0
 19 22  2  0
 20 22  1  0
M  END
