diamond-x0253_0_A-diamond-x0962_0_A
     RDKit          3D

 23 24  0  0  0  0  0  0  0  0999 V2000
    0.5340   11.7430   -5.3950 N   0  0  0  0  0  0  0  0  0  0  0  0
    1.0390   11.6690   -6.6540 C   0  0  0  0  0  0  0  0  0  0  0  0
    2.1000   12.2160   -6.8350 O   0  0  0  0  0  0  0  0  0  0  0  0
    1.5200   11.8900   -4.3330 C   0  0  0  0  0  0  0  0  0  0  0  0
    0.8670   12.1960   -3.0300 C   0  0  0  0  0  0  0  0  0  0  0  0
    0.3300   10.8640   -7.7020 C   0  0  0  0  0  0  0  0  0  0  0  0
    1.2070   13.2620   -2.4540 N   0  0  0  0  0  0  0  0  0  0  0  0
   -0.0610   11.3180   -2.5900 O   0  0  0  0  0  0  0  0  0  0  0  0
   -0.8400   10.1570   -7.4020 C   0  0  0  0  0  0  0  0  0  0  0  0
    0.8390   10.7890   -9.0040 C   0  0  0  0  0  0  0  0  0  0  0  0
    0.5270   13.6580   -1.2530 C   0  0  0  0  0  0  0  0  0  0  0  0
   -1.4740    9.3700   -8.3630 C   0  0  0  0  0  0  0  0  0  0  0  0
    0.2080   10.0170   -9.9720 C   0  0  0  0  0  0  0  0  0  0  0  0
   -2.7090    8.6010   -8.0010 C   0  0  0  0  0  0  0  0  0  0  0  0
   -0.2890   14.8500   -1.7250 C   0  0  0  0  0  0  0  0  0  0  0  0
   -0.9450    9.3040   -9.6510 C   0  0  0  0  0  0  0  0  0  0  0  0
   -1.6950   14.7710   -1.3440 C   0  0  0  0  0  0  0  0  0  0  0  0
   -2.7750   14.7890   -0.8670 C   0  0  0  0  0  0  0  0  0  0  0  0
   -3.9220   14.8570   -0.0790 C   0  0  0  0  0  0  0  0  0  0  0  0
   -3.8470   15.0290    1.2670 N   0  0  0  0  0  0  0  0  0  0  0  0
   -5.2550   14.7780   -0.3700 C   0  0  0  0  0  0  0  0  0  0  0  0
   -5.1160   15.0450    1.7450 C   0  0  0  0  0  0  0  0  0  0  0  0
   -5.9960   14.8920    0.7770 N   0  0  0  0  0  0  0  0  0  0  0  0
  1  2  1  0
  2  3  2  0
  1  4  1  0
  4  5  1  0
  2  6  1  0
  5  7  2  3
  5  8  1  0
  6  9  2  0
  6 10  1  0
  7 11  1  0
  9 12  1  0
 10 13  2  0
 12 14  1  0
 11 15  1  0
 12 16  2  0
 13 16  1  0
 15 17  1  0
 17 18  3  0
 18 19  1  0
 19 20  1  0
 19 21  2  0
 20 22  1  0
 21 23  1  0
 22 23  2  0
M  END
