diamond-x0421_0_A-mac-x0346
     RDKit          3D

 15 16  0  0  0  0  0  0  0  0999 V2000
   -3.8010   15.1980   -3.0110 N   0  0  0  0  0  0  0  0  0  0  0  0
   -3.0480   14.9970   -1.8960 C   0  0  0  0  0  0  0  0  0  0  0  0
   -1.8310   14.8690   -1.9920 O   0  0  0  0  0  0  0  0  0  0  0  0
   -3.7690   14.9360   -0.6560 C   0  0  0  0  0  0  0  0  0  0  0  0
   -3.2430   14.9330    0.6250 C   0  0  0  0  0  0  0  0  0  0  0  0
   -5.1600   14.8630   -0.4750 N   0  0  0  0  0  0  0  0  0  0  0  0
   -6.2270   14.8390   -1.3980 C   0  0  0  0  0  0  0  0  0  0  0  0
   -4.2360   14.8560    1.5540 N   0  0  0  0  0  0  0  0  0  0  0  0
   -5.3550   14.8090    0.8720 C   0  0  0  0  0  0  0  0  0  0  0  0
   -7.4740   14.8950   -0.8000 N   0  0  0  0  0  0  0  0  0  0  0  0
   -6.0480   14.7790   -2.5970 O   0  0  0  0  0  0  0  0  0  0  0  0
   -6.7790   14.6990    1.4910 C   0  0  0  0  0  0  0  0  0  0  0  0
   -7.7760   13.8650    0.1310 O   0  0  0  0  0  0  0  0  0  0  0  0
   -7.0540   14.8870    2.9330 C   0  0  0  0  0  0  0  0  0  0  0  0
   -7.0790   13.5060    2.3470 C   0  0  0  0  0  0  0  0  0  0  0  0
  1  2  1  0
  2  3  2  0
  2  4  1  0
  4  5  2  0
  4  6  1  0
  6  7  1  0
  5  8  1  0
  6  9  1  0
  8  9  2  0
  7 10  1  0
  7 11  2  0
  9 12  1  0
 10 13  1  0
 12 14  1  0
 12 15  1  0
 14 15  1  0
M  END
