diamond-x0969_0_A-mac-x0587
     RDKit          3D

 20 21  0  0  0  0  0  0  0  0999 V2000
   -6.3650   14.9590    2.3260 N   0  0  0  0  0  0  0  0  0  0  0  0
   -6.1090   14.3690    1.0670 C   0  0  1  0  0  0  0  0  0  0  0  0
   -7.3290   14.5500    0.3310 N   0  0  0  0  0  0  0  0  0  0  0  0
   -5.0980   15.1690    0.3890 N   0  0  0  0  0  0  0  0  0  0  0  0
   -6.9400   14.7480   -1.0350 N   0  0  0  0  0  0  0  0  0  0  0  0
   -5.5940   15.3130   -0.9790 C   0  0  2  0  0  0  0  0  0  0  0  0
   -3.7120   14.6480    0.5770 C   0  0  0  0  0  0  0  0  0  0  0  0
   -4.7190   14.6960   -2.0630 C   0  0  0  0  0  0  0  0  0  0  0  0
   -2.7130   14.8400   -0.6050 C   0  0  0  0  0  0  0  0  0  0  0  0
   -1.4900   14.7350   -0.4520 O   0  0  0  0  0  0  0  0  0  0  0  0
   -3.2830   15.1710   -1.9710 C   0  0  1  0  0  0  0  0  0  0  0  0
   -2.4410   15.0000   -3.2800 C   0  0  0  0  0  0  0  0  0  0  0  0
   -0.9080   14.7110   -3.3810 C   0  0  2  0  0  0  0  0  0  0  0  0
   -3.0740   15.1210   -4.3400 O   0  0  0  0  0  0  0  0  0  0  0  0
   -0.0320   15.9070   -3.7520 C   0  0  0  0  0  0  0  0  0  0  0  0
   -0.5570   13.4050   -4.6570 S   0  0  0  0  0  0  0  0  0  0  0  0
   -0.7640   11.8320   -3.7410 C   0  0  0  0  0  0  0  0  0  0  0  0
    0.4370   11.4980   -2.8860 C   0  0  0  0  0  0  0  0  0  0  0  0
    0.6240   10.3710   -2.4330 O   0  0  0  0  0  0  0  0  0  0  0  0
    1.2860   12.5270   -2.6470 O   0  0  0  0  0  0  0  0  0  0  0  0
  2  1  1  1
  2  3  1  0
  2  4  1  0
  3  5  1  0
  4  6  1  0
  5  6  1  0
  4  7  1  0
  6  8  1  6
  7  9  1  0
  9 10  2  0
  8 11  1  0
  9 11  1  0
 11 12  1  6
 12 13  1  0
 12 14  2  0
 13 15  1  6
 13 16  1  0
 16 17  1  0
 17 18  1  0
 18 19  2  0
 18 20  1  0
M  END
