diamond-x0969_0_A-mac-x0212
     RDKit          3D

 17 19  0  0  0  0  0  0  0  0999 V2000
   -7.0550   14.6510    1.7430 N   0  0  0  0  0  0  0  0  0  0  0  0
   -6.2410   13.4270    1.6530 S   0  0  1  0  0  0  0  0  0  0  0  0
   -6.5340   12.2190    2.8890 C   0  0  0  0  0  0  0  0  0  0  0  0
   -6.8060   14.9830    0.3560 C   0  0  0  0  0  0  0  0  0  0  0  0
   -6.1770   12.7630    0.3750 O   0  0  0  0  0  0  0  0  0  0  0  0
   -4.6740   14.1680    1.7430 N   0  0  0  0  0  0  0  0  0  0  0  0
   -7.6490   15.3730   -0.5480 N   0  0  0  0  0  0  0  0  0  0  0  0
   -5.5380   14.8950   -0.1910 N   0  0  0  0  0  0  0  0  0  0  0  0
   -6.9090   15.5440   -1.7250 N   0  0  0  0  0  0  0  0  0  0  0  0
   -5.6450   15.2490   -1.4870 C   0  0  0  0  0  0  0  0  0  0  0  0
   -4.3760   14.5050    0.4630 C   0  0  0  0  0  0  0  0  0  0  0  0
   -4.4400   15.2080   -2.2530 C   0  0  0  0  0  0  0  0  0  0  0  0
   -3.2120   14.4850   -0.2340 C   0  0  0  0  0  0  0  0  0  0  0  0
   -3.2650   14.8350   -1.6740 C   0  0  0  0  0  0  0  0  0  0  0  0
   -2.0700   14.7470   -2.5900 C   0  0  0  0  0  0  0  0  0  0  0  0
   -0.9460   14.4200   -2.2410 O   0  0  0  0  0  0  0  0  0  0  0  0
   -2.3690   15.0430   -3.8770 O   0  0  0  0  0  0  0  0  0  0  0  0
  1  2  2  0
  2  3  1  1
  1  4  1  0
  2  5  2  0
  2  6  1  0
  4  7  2  0
  4  8  1  0
  7  9  1  0
  8 10  1  0
  9 10  2  0
  6 11  1  0
  8 11  1  0
 10 12  1  0
 11 13  2  0
 12 14  2  0
 13 14  1  0
 14 15  1  0
 15 16  2  0
 15 17  1  0
M  END
