diamond-x0969_0_A-mac-x0357
     RDKit          3D

 23 25  0  0  0  0  0  0  0  0999 V2000
   -6.8280   14.6230    2.4180 N   0  0  0  0  0  0  0  0  0  0  0  0
   -6.5340   14.6840    1.1030 C   0  0  0  0  0  0  0  0  0  0  0  0
   -7.3370   14.4810    0.0840 N   0  0  0  0  0  0  0  0  0  0  0  0
   -5.2740   14.9930    0.6380 N   0  0  0  0  0  0  0  0  0  0  0  0
   -6.6100   14.6590   -1.0770 N   0  0  0  0  0  0  0  0  0  0  0  0
   -5.3720   14.9670   -0.7400 C   0  0  0  0  0  0  0  0  0  0  0  0
   -4.1050   15.2820    1.3200 C   0  0  0  0  0  0  0  0  0  0  0  0
   -4.1800   15.2710   -1.4820 C   0  0  0  0  0  0  0  0  0  0  0  0
   -3.0010   15.5490    0.6390 C   0  0  0  0  0  0  0  0  0  0  0  0
   -3.0330   15.5630   -0.8010 C   0  0  0  0  0  0  0  0  0  0  0  0
   -1.7020   15.9700   -1.3850 C   0  0  0  0  0  0  0  0  0  0  0  0
   -0.5940   14.9610   -1.5110 C   0  0  0  0  0  0  0  0  0  0  0  0
   -0.7270   14.3950   -2.8220 N   0  0  0  0  0  0  0  0  0  0  0  0
   -0.0600   13.4100   -3.1960 C   0  0  0  0  0  0  0  0  0  0  0  0
    0.8160   12.8700   -2.3220 O   0  0  0  0  0  0  0  0  0  0  0  0
   -0.0690   12.7170   -4.4740 C   0  0  0  0  0  0  0  0  0  0  0  0
    1.1130   12.4950   -5.1260 C   0  0  0  0  0  0  0  0  0  0  0  0
   -1.2960   12.2800   -5.0560 C   0  0  0  0  0  0  0  0  0  0  0  0
    2.4450   12.9490   -4.5820 C   0  0  0  0  0  0  0  0  0  0  0  0
   -1.3480   11.6120   -6.2460 C   0  0  0  0  0  0  0  0  0  0  0  0
    0.9980   11.8260   -6.3280 C   0  0  0  0  0  0  0  0  0  0  0  0
    2.0340   11.5540   -7.0590 O   0  0  0  0  0  0  0  0  0  0  0  0
   -0.1790   11.3820   -6.8910 C   0  0  0  0  0  0  0  0  0  0  0  0
  1  2  1  0
  2  3  2  0
  2  4  1  0
  3  5  1  0
  4  6  1  0
  5  6  2  0
  4  7  1  0
  6  8  1  0
  7  9  2  0
  8 10  2  0
  9 10  1  0
 10 11  1  0
 11 12  1  0
 12 13  1  0
 13 14  2  3
 14 15  1  0
 14 16  1  0
 16 17  2  0
 16 18  1  0
 17 19  1  0
 18 20  2  0
 17 21  1  0
 21 22  1  0
 20 23  1  0
 21 23  2  0
M  END
