diamond-x0626_0_A-diamond-x0933_0_A
     RDKit          3D

 11 11  0  0  0  0  0  0  0  0999 V2000
   -4.8870   14.9020    1.4330 N   0  0  0  0  0  0  0  0  0  0  0  0
   -6.0110   14.7190    0.6540 C   0  0  0  0  0  0  0  0  0  0  0  0
   -6.1140   14.8240   -0.5620 O   0  0  0  0  0  0  0  0  0  0  0  0
   -3.6220   14.8060    0.9240 C   0  0  0  0  0  0  0  0  0  0  0  0
   -7.1990   14.3470    1.5280 C   0  0  0  0  0  0  0  0  0  0  0  0
   -2.4780   14.6640    1.5600 N   0  0  0  0  0  0  0  0  0  0  0  0
   -3.5460   14.8780   -0.7840 S   0  0  0  0  0  0  0  0  0  0  0  0
   -8.5370   14.6550    0.8740 C   0  0  0  0  0  0  0  0  0  0  0  0
   -1.8480   14.6940   -0.6820 C   0  0  0  0  0  0  0  0  0  0  0  0
   -1.4600   14.5960    0.6400 C   0  0  0  0  0  0  0  0  0  0  0  0
   -0.0920   14.4250    1.1430 C   0  0  0  0  0  0  0  0  0  0  0  0
  1  2  1  0
  2  3  2  0
  1  4  1  0
  2  5  1  0
  4  6  2  0
  4  7  1  0
  5  8  1  0
  7  9  1  0
  6 10  1  0
  9 10  2  0
 10 11  1  0
M  END
