diamond-x0253_0_A-mac-x0123
     RDKit          3D

 30 33  0  0  0  0  0  0  0  0999 V2000
    0.5130   11.9960   -5.4690 N   0  0  0  0  0  0  0  0  0  0  0  0
    1.1470   11.6630   -6.6060 C   0  0  0  0  0  0  0  0  0  0  0  0
    2.2480   12.1070   -6.7610 O   0  0  0  0  0  0  0  0  0  0  0  0
    1.3460   12.7060   -4.5210 C   0  0  0  0  0  0  0  0  0  0  0  0
    0.7020   12.5240   -3.1980 C   0  0  0  0  0  0  0  0  0  0  0  0
    0.4880   10.7440   -7.5820 C   0  0  0  0  0  0  0  0  0  0  0  0
    0.5300   13.3500   -2.2710 N   0  0  0  0  0  0  0  0  0  0  0  0
    0.2160   11.2810   -2.9810 O   0  0  0  0  0  0  0  0  0  0  0  0
   -0.4910    9.8380   -7.1610 C   0  0  0  0  0  0  0  0  0  0  0  0
    0.8480   10.7770   -8.9390 C   0  0  0  0  0  0  0  0  0  0  0  0
   -0.2140   12.8700   -1.1530 C   0  0  0  0  0  0  0  0  0  0  0  0
   -1.1060    8.9760   -8.0790 C   0  0  0  0  0  0  0  0  0  0  0  0
    0.2430    9.9240   -9.8540 C   0  0  0  0  0  0  0  0  0  0  0  0
   -2.1560    8.0090   -7.6180 C   0  0  0  0  0  0  0  0  0  0  0  0
   -1.6780   13.2560   -1.2880 C   0  0  0  0  0  0  0  0  0  0  0  0
   -0.7310    9.0260   -9.4280 C   0  0  0  0  0  0  0  0  0  0  0  0
   -2.1150   14.4710   -0.4780 C   0  0  0  0  0  0  0  0  0  0  0  0
   -3.2410   15.1950   -1.0530 N   0  0  0  0  0  0  0  0  0  0  0  0
   -4.5310   15.1420   -0.3840 N   0  0  0  0  0  0  0  0  0  0  0  0
   -3.4860   15.0220   -2.4810 C   0  0  0  0  0  0  0  0  0  0  0  0
   -4.7180   14.6500    0.9710 C   0  0  1  0  0  0  0  0  0  0  0  0
   -5.3210   14.3920   -1.3100 C   0  0  2  0  0  0  0  0  0  0  0  0
   -4.9170   14.7740   -2.6370 N   0  0  0  0  0  0  0  0  0  0  0  0
   -4.0890   15.5410    1.9330 N   0  0  0  0  0  0  0  0  0  0  0  0
   -6.7330   14.4600   -1.0890 N   0  0  0  0  0  0  0  0  0  0  0  0
   -6.1010   14.0890    1.3910 C   0  0  2  0  0  0  0  0  0  0  0  0
   -7.1130   13.9300    0.2230 C   0  0  1  0  0  0  0  0  0  0  0  0
   -6.9070   14.7450    2.4620 C   0  0  0  0  0  0  0  0  0  0  0  0
   -8.4900   14.3620    0.7630 C   0  0  0  0  0  0  0  0  0  0  0  0
   -8.1940   14.8820    2.1300 C   0  0  0  0  0  0  0  0  0  0  0  0
  1  2  1  0
  2  3  2  0
  1  4  1  0
  4  5  1  0
  2  6  1  0
  5  7  2  3
  5  8  1  0
  6  9  2  0
  6 10  1  0
  7 11  1  0
  9 12  1  0
 10 13  2  0
 12 14  1  0
 11 15  1  0
 12 16  2  0
 13 16  1  0
 15 17  1  0
 17 18  1  0
 18 19  1  0
 18 20  1  0
 19 21  1  0
 19 22  1  0
 20 23  1  0
 22 23  1  6
 21 24  1  1
 22 25  1  0
 21 26  1  0
 25 27  1  0
 26 27  1  0
 26 28  1  1
 27 29  1  1
 28 30  2  0
 29 30  1  0
M  END
