diamond-x1012_0_A-diamond-x0962_1_A
     RDKit          3D

 21 22  0  0  0  0  0  0  0  0999 V2000
   -0.6070   18.1630   -5.0070 N   0  0  0  0  0  0  0  0  0  0  0  0
   -1.2320   17.0230   -4.6440 C   0  0  0  0  0  0  0  0  0  0  0  0
   -2.4280   17.1150   -4.2480 N   0  0  0  0  0  0  0  0  0  0  0  0
   -0.5030   15.8600   -4.7300 N   0  0  0  0  0  0  0  0  0  0  0  0
   -3.0170   15.8570   -3.8090 C   0  0  0  0  0  0  0  0  0  0  0  0
   -1.1800   14.6030   -5.0930 C   0  0  0  0  0  0  0  0  0  0  0  0
    0.9130   15.7530   -4.4190 C   0  0  0  0  0  0  0  0  0  0  0  0
   -2.4590   15.5470   -2.4230 C   0  0  0  0  0  0  0  0  0  0  0  0
   -1.0730   13.5560   -3.9970 C   0  0  0  0  0  0  0  0  0  0  0  0
    1.1140   14.6860   -3.3310 C   0  0  0  0  0  0  0  0  0  0  0  0
   -3.5550   15.3470   -1.4860 C   0  0  0  0  0  0  0  0  0  0  0  0
    0.3930   13.3420   -3.6080 C   0  0  0  0  0  0  0  0  0  0  0  0
    0.4560   12.4040   -2.4150 C   0  0  0  0  0  0  0  0  0  0  0  0
   -4.4760   15.1660   -0.7610 C   0  0  0  0  0  0  0  0  0  0  0  0
    0.3440   11.1040   -2.7690 O   0  0  0  0  0  0  0  0  0  0  0  0
    0.5820   12.7420   -1.2470 O   0  0  0  0  0  0  0  0  0  0  0  0
   -5.5820   14.9060    0.0600 C   0  0  0  0  0  0  0  0  0  0  0  0
   -5.5490   14.7650    1.4100 N   0  0  0  0  0  0  0  0  0  0  0  0
   -6.9010   14.7390   -0.2870 C   0  0  0  0  0  0  0  0  0  0  0  0
   -6.8210   14.5200    1.8350 C   0  0  0  0  0  0  0  0  0  0  0  0
   -7.6670   14.4990    0.8270 N   0  0  0  0  0  0  0  0  0  0  0  0
  1  2  1  0
  2  3  2  3
  2  4  1  0
  3  5  1  0
  4  6  1  0
  4  7  1  0
  5  8  1  0
  6  9  1  0
  7 10  1  0
  8 11  1  0
  9 12  1  0
 10 12  1  0
 12 13  1  0
 11 14  3  0
 13 15  1  0
 13 16  2  0
 14 17  1  0
 17 18  1  0
 17 19  2  0
 18 20  1  0
 19 21  1  0
 20 21  2  0
M  END
