diamond-x1018_0_A-mac-x0282
     RDKit          3D

 15 17  0  0  0  0  0  0  0  0999 V2000
   -8.3520   14.7630    1.0020 Cl  0  0  0  0  0  0  0  0  0  0  0  0
   -6.7150   14.2320    0.5550 C   0  0  2  0  0  0  0  0  0  0  0  0
   -5.6960   14.5670    1.5820 C   0  0  0  0  0  0  0  0  0  0  0  0
   -6.3350   14.7220   -0.7720 N   0  0  0  0  0  0  0  0  0  0  0  0
   -5.0130   14.2940   -1.1920 N   0  0  0  0  0  0  0  0  0  0  0  0
   -4.4000   14.4940    1.2620 C   0  0  0  0  0  0  0  0  0  0  0  0
   -4.4600   15.0450   -2.2500 N   0  0  0  0  0  0  0  0  0  0  0  0
   -3.9660   14.0730   -0.1380 C   0  0  2  0  0  0  0  0  0  0  0  0
   -2.7200   14.8430   -0.6970 C   0  0  2  0  0  0  0  0  0  0  0  0
   -3.2450   15.6780   -1.8070 N   0  0  0  0  0  0  0  0  0  0  0  0
   -1.4840   14.0710   -1.1570 C   0  0  0  0  0  0  0  0  0  0  0  0
   -2.1900   15.7440    0.4600 C   0  0  0  0  0  0  0  0  0  0  0  0
   -0.3810   13.9250   -0.3810 C   0  0  0  0  0  0  0  0  0  0  0  0
   -1.5300   14.9590    1.5120 N   0  0  0  0  0  0  0  0  0  0  0  0
   -0.2550   14.4810    1.0050 C   0  0  0  0  0  0  0  0  0  0  0  0
  2  1  1  1
  2  3  1  0
  2  4  1  0
  4  5  1  0
  3  6  2  0
  5  7  1  0
  5  8  1  0
  8  6  1  1
  8  9  1  0
  7 10  1  0
  9 10  1  0
  9 11  1  6
  9 12  1  0
 11 13  2  0
 12 14  1  0
 13 15  1  0
 14 15  1  0
M  END
