diamond-x0837_0_A-mac-x0319
     RDKit          3D

 20 21  0  0  0  0  0  0  0  0999 V2000
   -7.2860   14.3270    0.2660 O   0  0  0  0  0  0  0  0  0  0  0  0
   -6.1760   14.8830    0.2280 C   0  0  0  0  0  0  0  0  0  0  0  0
   -5.3080   14.8400    1.3730 N   0  0  0  0  0  0  0  0  0  0  0  0
   -5.6610   15.6560   -0.9350 C   0  0  0  0  0  0  0  0  0  0  0  0
   -3.9240   14.7160    1.0670 C   0  0  0  0  0  0  0  0  0  0  0  0
   -4.2230   15.3810   -1.2360 C   0  0  2  0  0  0  0  0  0  0  0  0
   -3.9990   14.3300   -3.0320 I   0  0  0  0  0  0  0  0  0  0  0  0
   -3.4050   14.9500   -0.1060 C   0  0  0  0  0  0  0  0  0  0  0  0
   -2.9220   15.2080   -4.5890 C   0  0  0  0  0  0  0  0  0  0  0  0
   -1.4690   15.0760   -4.4230 C   0  0  0  0  0  0  0  0  0  0  0  0
   -0.7210   16.2060   -4.4320 C   0  0  0  0  0  0  0  0  0  0  0  0
   -0.8570   13.8470   -4.2530 C   0  0  0  0  0  0  0  0  0  0  0  0
    0.4980   13.7530   -4.0870 C   0  0  0  0  0  0  0  0  0  0  0  0
    0.6270   16.1280   -4.2670 C   0  0  0  0  0  0  0  0  0  0  0  0
    1.1910   12.4500   -3.8970 C   0  0  0  0  0  0  0  0  0  0  0  0
    1.3300   17.3220   -4.2730 O   0  0  0  0  0  0  0  0  0  0  0  0
    1.2710   14.9110   -4.0940 C   0  0  0  0  0  0  0  0  0  0  0  0
    0.7970   11.7950   -2.6130 C   0  0  0  0  0  0  0  0  0  0  0  0
    0.3790   10.4710   -2.5780 O   0  0  0  0  0  0  0  0  0  0  0  0
    0.8340   12.4340   -1.5340 O   0  0  0  0  0  0  0  0  0  0  0  0
  1  2  2  0
  2  3  1  0
  2  4  1  0
  3  5  1  0
  4  6  1  0
  6  7  1  6
  5  8  2  0
  6  8  1  0
  7  9  1  0
  9 10  1  0
 10 11  2  0
 10 12  1  0
 12 13  2  0
 11 14  1  0
 13 15  1  0
 14 16  1  0
 13 17  1  0
 14 17  2  0
 15 18  1  0
 18 19  1  0
 18 20  2  0
M  END
