diamond-x1015_0_A-mac-x0178
     RDKit          3D

 27 29  0  0  0  0  0  0  0  0999 V2000
   -3.1310   12.3080   -2.6650 C   0  0  0  0  0  0  0  0  0  0  0  0
   -1.8230   12.6810   -3.2970 C   0  0  2  0  0  0  0  0  0  0  0  0
   -0.8580   11.5250   -3.3820 N   0  0  0  0  0  0  0  0  0  0  0  0
   -1.0720   13.6570   -2.3820 C   0  0  0  0  0  0  0  0  0  0  0  0
   -1.4700   14.6610   -1.8200 O   0  0  0  0  0  0  0  0  0  0  0  0
    0.3010   12.1930   -3.2400 C   0  0  0  0  0  0  0  0  0  0  0  0
    0.1640   13.1710   -2.3200 N   0  0  0  0  0  0  0  0  0  0  0  0
   -1.0390   10.8830   -4.6300 C   0  0  0  0  0  0  0  0  0  0  0  0
    1.4330   12.1620   -3.7480 N   0  0  0  0  0  0  0  0  0  0  0  0
   -0.2760   11.3060   -5.7430 C   0  0  0  0  0  0  0  0  0  0  0  0
   -1.9460    9.8420   -4.8040 C   0  0  0  0  0  0  0  0  0  0  0  0
    1.9780   13.2870   -3.2930 C   0  0  0  0  0  0  0  0  0  0  0  0
   -0.4270   10.6960   -6.9920 C   0  0  0  0  0  0  0  0  0  0  0  0
   -2.0970    9.2300   -6.0500 C   0  0  0  0  0  0  0  0  0  0  0  0
    2.9270   13.4170   -2.5340 O   0  0  0  0  0  0  0  0  0  0  0  0
   -1.3400    9.6590   -7.1350 C   0  0  0  0  0  0  0  0  0  0  0  0
    1.1600   14.4270   -3.8780 C   0  0  0  0  0  0  0  0  0  0  0  0
   -1.5440    8.8950   -8.6620 Cl  0  0  0  0  0  0  0  0  0  0  0  0
    1.5440   15.7530   -3.8420 C   0  0  0  0  0  0  0  0  0  0  0  0
   -0.0740   14.1160   -4.4980 C   0  0  0  0  0  0  0  0  0  0  0  0
    0.7310   16.7560   -4.3910 C   0  0  0  0  0  0  0  0  0  0  0  0
   -0.8980   15.0990   -5.0470 C   0  0  0  0  0  0  0  0  0  0  0  0
   -0.4900   16.4310   -4.9910 C   0  0  0  0  0  0  0  0  0  0  0  0
   -1.5180   17.7160   -5.6850 S   0  0  0  0  0  0  0  0  0  0  0  0
   -0.3810   18.6060   -6.5400 N   0  0  0  0  0  0  0  0  0  0  0  0
   -2.4170   17.1770   -6.6810 O   0  0  0  0  0  0  0  0  0  0  0  0
   -1.9940   18.5390   -4.6130 O   0  0  0  0  0  0  0  0  0  0  0  0
  2  1  1  1
  2  3  1  0
  2  4  1  0
  4  5  2  0
  3  6  1  0
  4  7  1  0
  6  7  1  0
  3  8  1  0
  6  9  2  3
  8 10  2  0
  8 11  1  0
  9 12  1  0
 10 13  1  0
 11 14  2  0
 12 15  2  0
 13 16  2  0
 14 16  1  0
 12 17  1  0
 16 18  1  0
 17 19  2  0
 17 20  1  0
 19 21  1  0
 20 22  2  0
 21 23  2  0
 22 23  1  0
 23 24  1  0
 24 25  1  0
 24 26  2  0
 24 27  2  0
M  END
