diamond-x0900_0_A-diamond-x0685_0_A
     RDKit          3D

 11 11  0  0  0  0  0  0  0  0999 V2000
   -6.7890   15.0170   -0.8450 O   0  0  0  0  0  0  0  0  0  0  0  0
   -5.7040   14.9350   -0.2890 C   0  0  0  0  0  0  0  0  0  0  0  0
   -4.4430   15.4310   -0.7570 N   0  0  0  0  0  0  0  0  0  0  0  0
   -5.4560   14.2440    1.0830 C   0  0  2  0  0  0  0  0  0  0  0  0
   -6.1260   14.9460    2.1920 N   0  0  0  0  0  0  0  0  0  0  0  0
   -4.1100   15.1840   -2.0300 C   0  0  0  0  0  0  0  0  0  0  0  0
   -3.9290   14.3600    1.2320 C   0  0  0  0  0  0  0  0  0  0  0  0
   -3.4900   15.5100    0.3520 C   0  0  0  0  0  0  0  0  0  0  0  0
   -7.5660   14.7250    2.3460 C   0  0  0  0  0  0  0  0  0  0  0  0
   -3.7290   15.0160   -3.1140 N   0  0  0  0  0  0  0  0  0  0  0  0
   -7.9120   13.3390    2.8740 C   0  0  0  0  0  0  0  0  0  0  0  0
  1  2  2  0
  2  3  1  0
  2  4  1  0
  4  5  1  1
  3  6  1  0
  4  7  1  0
  3  8  1  0
  7  8  1  0
  5  9  1  0
  6 10  3  0
  9 11  1  0
M  END
