diamond-x0626_0_A-diamond-x0805_0_A
     RDKit          3D

 27 29  0  0  0  0  0  0  0  0999 V2000
   -4.6560   15.3660    0.4960 N   0  0  0  0  0  0  0  0  0  0  0  0
   -5.8910   14.7160    0.4540 C   0  0  0  0  0  0  0  0  0  0  0  0
   -6.3950   14.3820   -0.6230 O   0  0  0  0  0  0  0  0  0  0  0  0
   -4.4630   16.0470   -0.7540 O   0  0  0  0  0  0  0  0  0  0  0  0
   -3.4340   14.7810    0.5820 C   0  0  0  0  0  0  0  0  0  0  0  0
   -6.7270   14.4090    1.6850 C   0  0  0  0  0  0  0  0  0  0  0  0
   -2.4210   14.9450    1.4210 N   0  0  0  0  0  0  0  0  0  0  0  0
   -3.1860   13.6790   -0.6910 S   0  0  0  0  0  0  0  0  0  0  0  0
   -3.7560   15.2240   -1.6610 C   0  0  0  0  0  0  0  0  0  0  0  0
   -8.2120   14.5630    1.3790 C   0  0  0  0  0  0  0  0  0  0  0  0
   -1.6220   13.4360   -0.1610 C   0  0  0  0  0  0  0  0  0  0  0  0
   -1.3810   14.1680    0.9590 C   0  0  0  0  0  0  0  0  0  0  0  0
   -4.5010   14.2370   -2.3210 C   0  0  0  0  0  0  0  0  0  0  0  0
   -2.3690   15.3250   -1.9380 C   0  0  0  0  0  0  0  0  0  0  0  0
   -0.0940   14.1300    1.6280 C   0  0  0  0  0  0  0  0  0  0  0  0
   -3.8880   13.3670   -3.2290 C   0  0  0  0  0  0  0  0  0  0  0  0
   -1.7340   14.4450   -2.8560 C   0  0  0  0  0  0  0  0  0  0  0  0
   -2.5190   13.4660   -3.4960 C   0  0  0  0  0  0  0  0  0  0  0  0
   -0.2300   14.5700   -3.1360 C   0  0  1  0  0  0  0  0  0  0  0  0
    0.6960   13.3340   -3.2560 C   0  0  1  0  0  0  0  0  0  0  0  0
    0.0690   15.5200   -4.2930 C   0  0  0  0  0  0  0  0  0  0  0  0
    0.3690   12.1310   -2.4500 C   0  0  0  0  0  0  0  0  0  0  0  0
    1.1520   13.0950   -4.6710 C   0  0  0  0  0  0  0  0  0  0  0  0
    1.5480   15.4730   -4.6200 C   0  0  0  0  0  0  0  0  0  0  0  0
   -0.0030   11.0390   -3.1450 O   0  0  0  0  0  0  0  0  0  0  0  0
    0.4400   12.1280   -1.2480 O   0  0  0  0  0  0  0  0  0  0  0  0
    2.0060   14.1690   -5.0080 O   0  0  0  0  0  0  0  0  0  0  0  0
  1  2  1  0
  2  3  2  0
  1  4  1  0
  1  5  1  0
  2  6  1  0
  5  7  2  0
  5  8  1  0
  4  9  1  0
  6 10  1  0
  8 11  1  0
  7 12  1  0
 11 12  2  0
  9 13  2  0
  9 14  1  0
 12 15  1  0
 13 16  1  0
 14 17  2  0
 16 18  2  0
 17 18  1  0
 19 17  1  6
 19 20  1  0
 19 21  1  0
 20 22  1  6
 20 23  1  0
 21 24  1  0
 22 25  1  0
 22 26  2  0
 23 27  1  0
 24 27  1  0
M  END
