diamond-x0371_0_A-mac-x0365
     RDKit          3D

 23 25  0  0  0  0  0  0  0  0999 V2000
   -8.5230   14.3850    2.9430 N   0  0  0  0  0  0  0  0  0  0  0  0
   -8.9220   15.4690    3.6680 C   0  0  0  0  0  0  0  0  0  0  0  0
   -9.4580   16.3960    3.0570 O   0  0  0  0  0  0  0  0  0  0  0  0
   -8.5640   14.2080    1.5170 C   0  0  0  0  0  0  0  0  0  0  0  0
   -7.1830   14.4280    0.9660 C   0  0  0  0  0  0  0  0  0  0  0  0
   -8.7150   15.4840    5.0930 C   0  0  0  0  0  0  0  0  0  0  0  0
   -6.1400   14.6790    1.7090 N   0  0  0  0  0  0  0  0  0  0  0  0
   -6.9920   14.4010   -0.4020 N   0  0  0  0  0  0  0  0  0  0  0  0
   -8.0990   14.4370    5.7170 O   0  0  0  0  0  0  0  0  0  0  0  0
   -9.0520   16.4350    6.0360 C   0  0  0  0  0  0  0  0  0  0  0  0
   -5.7200   14.6570   -0.4940 C   0  0  0  0  0  0  0  0  0  0  0  0
   -5.1290   14.7800    0.8190 C   0  0  0  0  0  0  0  0  0  0  0  0
   -8.6180   15.9400    7.2880 C   0  0  0  0  0  0  0  0  0  0  0  0
   -8.0430   14.7180    7.0370 C   0  0  0  0  0  0  0  0  0  0  0  0
   -3.8200   14.9430    0.9720 C   0  0  0  0  0  0  0  0  0  0  0  0
   -4.9220   14.8590   -1.7230 C   0  0  2  0  0  0  0  0  0  0  0  0
   -5.4350   16.1030   -2.0340 O   0  0  0  0  0  0  0  0  0  0  0  0
   -5.3310   14.0850   -2.7560 F   0  0  0  0  0  0  0  0  0  0  0  0
   -2.9500   14.9600   -0.1780 C   0  0  0  0  0  0  0  0  0  0  0  0
   -3.4330   14.9070   -1.4340 C   0  0  0  0  0  0  0  0  0  0  0  0
   -2.3700   14.8810   -2.4730 C   0  0  0  0  0  0  0  0  0  0  0  0
   -1.1110   14.8320   -1.9660 O   0  0  0  0  0  0  0  0  0  0  0  0
   -2.5730   14.8940   -3.6730 O   0  0  0  0  0  0  0  0  0  0  0  0
  1  2  1  0
  2  3  2  0
  1  4  1  0
  4  5  1  0
  2  6  1  0
  5  7  2  0
  5  8  1  0
  6  9  1  0
  6 10  2  0
  8 11  2  0
  7 12  1  0
 11 12  1  0
 10 13  1  0
  9 14  1  0
 13 14  2  0
 12 15  2  0
 11 16  1  0
 16 17  1  6
 16 18  1  0
 15 19  1  0
 16 20  1  0
 19 20  2  0
 20 21  1  0
 21 22  1  0
 21 23  2  0
M  END
