diamond-x0855_0_A-mac-x1493
     RDKit          3D

 25 27  0  0  0  0  0  0  0  0999 V2000
    1.7890   12.9020   -2.8330 O   0  0  0  0  0  0  0  0  0  0  0  0
    0.7770   12.0990   -3.2280 C   0  0  0  0  0  0  0  0  0  0  0  0
   -0.2970   12.7590   -4.0770 C   0  0  1  0  0  0  0  0  0  0  0  0
    0.7350   10.9210   -2.9030 O   0  0  0  0  0  0  0  0  0  0  0  0
    0.0840   14.0490   -4.8140 C   0  0  0  0  0  0  0  0  0  0  0  0
   -0.9160   11.7330   -4.8900 N   0  0  0  0  0  0  0  0  0  0  0  0
   -0.5040   15.3100   -4.1510 C   0  0  0  0  0  0  0  0  0  0  0  0
   -0.4230   10.9080   -5.8650 C   0  0  0  0  0  0  0  0  0  0  0  0
   -2.2300   11.5430   -4.6420 N   0  0  0  0  0  0  0  0  0  0  0  0
   -1.8780   15.1570   -3.6210 N   0  0  0  0  0  0  0  0  0  0  0  0
   -1.4960   10.1440   -6.2470 C   0  0  0  0  0  0  0  0  0  0  0  0
   -2.5760   10.5690   -5.4760 C   0  0  0  0  0  0  0  0  0  0  0  0
   -1.5810    8.7890   -7.5240 Br  0  0  0  0  0  0  0  0  0  0  0  0
   -2.1300   14.9580   -2.3670 C   0  0  0  0  0  0  0  0  0  0  0  0
   -1.1760   14.8370   -1.4310 O   0  0  0  0  0  0  0  0  0  0  0  0
   -3.4770   14.8620   -1.7400 C   0  0  0  0  0  0  0  0  0  0  0  0
   -3.5870   14.9680   -0.3460 C   0  0  0  0  0  0  0  0  0  0  0  0
   -4.6560   14.6760   -2.4480 C   0  0  0  0  0  0  0  0  0  0  0  0
   -4.8410   14.8770    0.2750 C   0  0  0  0  0  0  0  0  0  0  0  0
   -5.8860   14.5850   -1.8750 N   0  0  0  0  0  0  0  0  0  0  0  0
   -5.9760   14.6800   -0.5370 C   0  0  0  0  0  0  0  0  0  0  0  0
   -4.9840   14.9750    1.6660 C   0  0  0  0  0  0  0  0  0  0  0  0
   -7.2210   14.5800    0.0730 C   0  0  0  0  0  0  0  0  0  0  0  0
   -6.2480   14.8700    2.2500 C   0  0  0  0  0  0  0  0  0  0  0  0
   -7.3660   14.6700    1.4570 C   0  0  0  0  0  0  0  0  0  0  0  0
  1  2  1  0
  2  3  1  0
  2  4  2  0
  3  5  1  6
  3  6  1  0
  5  7  1  0
  6  8  1  0
  6  9  1  0
  7 10  1  0
  8 11  2  0
  9 12  2  0
 11 12  1  0
 11 13  1  0
 10 14  2  3
 14 15  1  0
 14 16  1  0
 16 17  2  0
 16 18  1  0
 17 19  1  0
 18 20  2  0
 19 21  2  0
 20 21  1  0
 19 22  1  0
 21 23  1  0
 22 24  2  0
 23 25  2  0
 24 25  1  0
M  END
