diamond-x0895_1_A-diamond-x0465_0_A
     RDKit          3D

 23 24  0  0  0  0  0  0  0  0999 V2000
   -1.6960   14.8280    1.5950 O   0  0  0  0  0  0  0  0  0  0  0  0
   -2.7480   14.7710    0.9550 C   0  0  0  0  0  0  0  0  0  0  0  0
   -2.8920   14.7150   -0.5740 C   0  0  1  0  0  0  0  0  0  0  0  0
   -3.9940   14.7410    1.4940 N   0  0  0  0  0  0  0  0  0  0  0  0
   -1.8760   13.7590   -1.2030 C   0  0  0  0  0  0  0  0  0  0  0  0
   -4.2760   14.3330   -0.6550 N   0  0  0  0  0  0  0  0  0  0  0  0
   -4.9200   14.5770    0.5280 C   0  0  0  0  0  0  0  0  0  0  0  0
   -6.1290   14.6330    0.6810 O   0  0  0  0  0  0  0  0  0  0  0  0
   -0.6200   14.4770   -1.7530 C   0  0  0  0  0  0  0  0  0  0  0  0
    0.7310   13.7940   -1.5500 C   0  0  0  0  0  0  0  0  0  0  0  0
    0.5540   12.3690   -1.7360 N   0  0  0  0  0  0  0  0  0  0  0  0
    0.5350   11.8480   -2.9180 C   0  0  0  0  0  0  0  0  0  0  0  0
    0.6790   12.5010   -4.3210 C   0  0  1  0  0  0  0  0  0  0  0  0
    0.3420   10.5140   -2.9370 O   0  0  0  0  0  0  0  0  0  0  0  0
    2.0750   13.1290   -4.4450 C   0  0  0  0  0  0  0  0  0  0  0  0
    0.6140   11.5470   -5.3960 O   0  0  0  0  0  0  0  0  0  0  0  0
   -0.5170   10.8080   -5.6560 C   0  0  0  0  0  0  0  0  0  0  0  0
   -0.6430    9.7640   -6.5800 C   0  0  0  0  0  0  0  0  0  0  0  0
   -1.6400   11.1620   -4.8990 C   0  0  0  0  0  0  0  0  0  0  0  0
    0.3800    9.3680   -7.3440 F   0  0  0  0  0  0  0  0  0  0  0  0
   -1.8490    9.0870   -6.7440 C   0  0  0  0  0  0  0  0  0  0  0  0
   -2.8540   10.4860   -5.0620 C   0  0  0  0  0  0  0  0  0  0  0  0
   -2.9580    9.4460   -5.9850 C   0  0  0  0  0  0  0  0  0  0  0  0
  1  2  2  0
  2  3  1  0
  2  4  1  0
  3  5  1  1
  3  6  1  0
  4  7  1  0
  6  7  1  0
  7  8  2  0
  5  9  1  0
  9 10  1  0
 10 11  1  0
 11 12  2  3
 12 13  1  0
 12 14  1  0
 13 15  1  1
 13 16  1  0
 16 17  1  0
 17 18  2  0
 17 19  1  0
 18 20  1  0
 18 21  1  0
 19 22  2  0
 21 23  2  0
 22 23  1  0
M  END
