diamond-x0587_0_A-diamond-x0742_0_A
     RDKit          3D

 28 31  0  0  0  0  0  0  0  0999 V2000
   -7.7790   15.0680    4.4970 N   0  0  0  0  0  0  0  0  0  0  0  0
   -8.4920   14.9740    3.3390 C   0  0  0  0  0  0  0  0  0  0  0  0
   -9.7170   14.9650    3.3470 O   0  0  0  0  0  0  0  0  0  0  0  0
   -7.7690   14.9020    2.0700 C   0  0  0  0  0  0  0  0  0  0  0  0
   -8.4940   14.8880    0.9020 C   0  0  0  0  0  0  0  0  0  0  0  0
   -6.4040   14.8570    1.9240 C   0  0  0  0  0  0  0  0  0  0  0  0
   -7.9430   14.8370   -0.3230 N   0  0  0  0  0  0  0  0  0  0  0  0
   -5.8010   14.8100    0.7150 N   0  0  0  0  0  0  0  0  0  0  0  0
   -6.6030   14.7990   -0.3830 C   0  0  0  0  0  0  0  0  0  0  0  0
   -5.9850   14.7130   -1.7930 C   0  0  0  0  0  0  0  0  0  0  0  0
   -4.6500   15.0130   -1.8080 F   0  0  0  0  0  0  0  0  0  0  0  0
   -6.1460   13.3240   -2.1600 N   0  0  0  0  0  0  0  0  0  0  0  0
   -6.5460   15.5060   -2.7310 F   0  0  0  0  0  0  0  0  0  0  0  0
   -5.2820   12.5670   -1.6670 C   0  0  0  0  0  0  0  0  0  0  0  0
   -5.2350   11.0650   -1.7910 C   0  0  0  0  0  0  0  0  0  0  0  0
   -4.1990   13.3540   -0.8790 C   0  0  2  0  0  0  0  0  0  0  0  0
   -4.3500   13.0470    0.6210 C   0  0  0  0  0  0  0  0  0  0  0  0
   -4.1860   14.8530   -1.2750 C   0  0  0  0  0  0  0  0  0  0  0  0
   -2.7780   13.1110   -1.3490 C   0  0  1  0  0  0  0  0  0  0  0  0
   -2.8590   13.5050   -2.8160 C   0  0  0  0  0  0  0  0  0  0  0  0
   -1.7550   13.7360   -0.4990 C   0  0  0  0  0  0  0  0  0  0  0  0
   -3.3840   13.8880    1.4570 C   0  0  0  0  0  0  0  0  0  0  0  0
   -3.6090   14.8380   -2.7150 C   0  0  0  0  0  0  0  0  0  0  0  0
   -0.5020   13.9640   -1.0280 C   0  0  0  0  0  0  0  0  0  0  0  0
   -2.0330   14.1070    0.8290 C   0  0  0  0  0  0  0  0  0  0  0  0
   -1.1080   14.6760    1.6110 N   0  0  0  0  0  0  0  0  0  0  0  0
    0.4440   14.5470   -0.2460 C   0  0  0  0  0  0  0  0  0  0  0  0
    0.0960   14.8770    1.0420 C   0  0  0  0  0  0  0  0  0  0  0  0
  1  2  1  0
  2  3  2  0
  2  4  1  0
  4  5  2  0
  4  6  1  0
  5  7  1  0
  6  8  2  0
  7  9  2  0
  8  9  1  0
  9 10  1  0
 10 11  1  0
 10 12  1  0
 10 13  1  0
 12 14  2  3
 14 15  1  0
 16 14  1  6
 16 17  1  0
 16 18  1  0
 16 19  1  0
 19 20  1  6
 19 21  1  0
 17 22  1  0
 18 23  1  0
 20 23  1  0
 21 24  1  0
 21 25  2  0
 22 25  1  0
 25 26  1  0
 24 27  2  0
 26 28  2  0
 27 28  1  0
M  END
