diamond-x0805_0_A-mac-x0441
     RDKit          3D

 31 34  0  0  0  0  0  0  0  0999 V2000
   -4.3550   15.5990    0.4660 C   0  0  0  0  0  0  0  0  0  0  0  0
   -3.0910   15.0560    0.0980 O   0  0  0  0  0  0  0  0  0  0  0  0
   -2.9390   14.5410   -1.1600 C   0  0  0  0  0  0  0  0  0  0  0  0
   -3.9850   13.7650   -1.6470 C   0  0  0  0  0  0  0  0  0  0  0  0
   -1.8200   14.7420   -1.9620 C   0  0  0  0  0  0  0  0  0  0  0  0
   -3.9040   13.2030   -2.9230 C   0  0  0  0  0  0  0  0  0  0  0  0
   -1.7020   14.2010   -3.2500 C   0  0  0  0  0  0  0  0  0  0  0  0
   -2.7700   13.4210   -3.7220 C   0  0  0  0  0  0  0  0  0  0  0  0
   -0.4160   14.5220   -4.0180 C   0  0  2  0  0  0  0  0  0  0  0  0
    0.6340   13.3810   -4.1340 C   0  0  2  0  0  0  0  0  0  0  0  0
    0.1870   15.8430   -3.6130 C   0  0  0  0  0  0  0  0  0  0  0  0
    0.3370   12.2270   -3.2220 C   0  0  0  0  0  0  0  0  0  0  0  0
    2.1440   13.7350   -4.0430 C   0  0  0  0  0  0  0  0  0  0  0  0
    1.5680   15.9600   -4.1340 C   0  0  0  0  0  0  0  0  0  0  0  0
    1.5020   11.5000   -3.0220 O   0  0  0  0  0  0  0  0  0  0  0  0
   -0.0320   12.5320   -1.8680 O   0  0  0  0  0  0  0  0  0  0  0  0
   -0.5290   11.2990   -4.0290 C   0  0  0  0  0  0  0  0  0  0  0  0
    2.4260   15.0140   -3.5290 O   0  0  0  0  0  0  0  0  0  0  0  0
   -0.3290   10.9650   -5.4490 N   0  0  0  0  0  0  0  0  0  0  0  0
    0.6650   11.2680   -6.3910 N   0  0  0  0  0  0  0  0  0  0  0  0
   -1.2740   10.2050   -5.9570 C   0  0  0  0  0  0  0  0  0  0  0  0
    0.2370   10.5700   -7.5230 C   0  0  0  0  0  0  0  0  0  0  0  0
   -0.9660    9.9260   -7.2400 C   0  0  0  0  0  0  0  0  0  0  0  0
   -2.4460    9.7530   -5.1940 C   0  0  0  0  0  0  0  0  0  0  0  0
    0.8230   10.3790   -8.9210 C   0  0  0  0  0  0  0  0  0  0  0  0
   -1.8170    9.0700   -8.0930 C   0  0  0  0  0  0  0  0  0  0  0  0
   -3.4850    9.2370   -6.1840 C   0  0  0  0  0  0  0  0  0  0  0  0
    1.5680    9.2500   -9.0270 F   0  0  0  0  0  0  0  0  0  0  0  0
   -0.1750   10.2170   -9.8260 F   0  0  0  0  0  0  0  0  0  0  0  0
    1.5380   11.3460   -9.4700 F   0  0  0  0  0  0  0  0  0  0  0  0
   -2.8270    8.3120   -7.2200 C   0  0  0  0  0  0  0  0  0  0  0  0
  1  2  1  0
  2  3  1  0
  3  4  2  0
  3  5  1  0
  4  6  1  0
  5  7  2  0
  6  8  2  0
  7  8  1  0
  9  7  1  1
  9 10  1  0
  9 11  1  0
 10 12  1  1
 10 13  1  0
 11 14  1  0
 12 15  1  0
 12 16  1  0
 12 17  1  0
 13 18  1  0
 14 18  1  0
 17 19  1  0
 19 20  1  0
 19 21  1  0
 20 22  2  0
 21 23  2  0
 22 23  1  0
 21 24  1  0
 22 25  1  0
 23 26  1  0
 24 27  1  0
 25 28  1  0
 25 29  1  0
 25 30  1  0
 26 31  1  0
 27 31  1  0
M  END
