diamond-x0766_0_A-mac-x0373
     RDKit          3D

 22 25  0  0  0  0  0  0  0  0999 V2000
    1.0910   12.9300   -2.9940 C   0  0  0  0  0  0  0  0  0  0  0  0
    0.9440   12.3300   -1.8750 N   0  0  0  0  0  0  0  0  0  0  0  0
    0.0730   13.0150   -1.1520 C   0  0  0  0  0  0  0  0  0  0  0  0
    1.9050   12.2820   -3.8330 O   0  0  0  0  0  0  0  0  0  0  0  0
    0.5530   14.2660   -3.5790 C   0  0  1  0  0  0  0  0  0  0  0  0
    1.4410   14.6030   -4.7620 C   0  0  0  0  0  0  0  0  0  0  0  0
   -0.8580   14.7130   -4.1730 C   0  0  2  0  0  0  0  0  0  0  0  0
    0.1620   13.4430   -0.0160 O   0  0  0  0  0  0  0  0  0  0  0  0
   -1.0300   13.1760   -2.0920 C   0  0  2  0  0  0  0  0  0  0  0  0
    1.0680   16.0420   -4.9870 C   0  0  0  0  0  0  0  0  0  0  0  0
   -0.4450   16.0680   -4.8030 C   0  0  0  0  0  0  0  0  0  0  0  0
   -2.0540   14.8880   -3.1920 C   0  0  0  0  0  0  0  0  0  0  0  0
   -3.1440   15.7200   -3.1920 C   0  0  0  0  0  0  0  0  0  0  0  0
   -2.1160   14.0860   -2.0730 C   0  0  0  0  0  0  0  0  0  0  0  0
   -1.4790   12.0900   -3.0510 C   0  0  0  0  0  0  0  0  0  0  0  0
   -3.1630   14.2830   -1.2120 C   0  0  0  0  0  0  0  0  0  0  0  0
   -4.1630   15.5070   -1.8140 S   0  0  0  0  0  0  0  0  0  0  0  0
   -0.8780   11.9090   -4.3110 C   0  0  0  0  0  0  0  0  0  0  0  0
   -2.5390   11.2510   -2.6860 C   0  0  0  0  0  0  0  0  0  0  0  0
   -1.3190   10.9220   -5.1810 C   0  0  0  0  0  0  0  0  0  0  0  0
   -2.9790   10.2610   -3.5590 C   0  0  0  0  0  0  0  0  0  0  0  0
   -2.3730   10.0960   -4.8010 C   0  0  0  0  0  0  0  0  0  0  0  0
  1  2  2  0
  2  3  1  0
  1  4  1  0
  1  5  1  0
  5  6  1  6
  5  7  1  0
  3  8  2  0
  3  9  1  0
  6 10  1  0
  7 11  1  1
 10 11  1  0
  7 12  1  0
 12 13  2  0
  9 14  1  0
 12 14  1  0
  9 15  1  1
 14 16  2  0
 13 17  1  0
 16 17  1  0
 15 18  2  0
 15 19  1  0
 18 20  1  0
 19 21  2  0
 20 22  2  0
 21 22  1  0
M  END
