diamond-x0855_0_A-diamond-x0685_0_A
     RDKit          3D

 24 25  0  0  0  0  0  0  0  0999 V2000
    1.5800   13.1310   -2.7070 O   0  0  0  0  0  0  0  0  0  0  0  0
    0.9470   12.2020   -3.4540 C   0  0  0  0  0  0  0  0  0  0  0  0
    0.6990   12.6100   -4.9000 C   0  0  2  0  0  0  0  0  0  0  0  0
    0.6410   11.1450   -2.9240 O   0  0  0  0  0  0  0  0  0  0  0  0
    0.4640   14.1260   -5.0620 C   0  0  0  0  0  0  0  0  0  0  0  0
   -0.4040   11.8040   -5.4050 N   0  0  0  0  0  0  0  0  0  0  0  0
   -0.4630   14.7280   -3.9930 C   0  0  0  0  0  0  0  0  0  0  0  0
   -0.3170   10.6940   -6.1940 C   0  0  0  0  0  0  0  0  0  0  0  0
   -1.6710   12.1260   -5.0960 N   0  0  0  0  0  0  0  0  0  0  0  0
   -1.8940   14.9960   -4.4850 C   0  0  0  0  0  0  0  0  0  0  0  0
   -1.6000   10.2720   -6.3810 C   0  0  0  0  0  0  0  0  0  0  0  0
   -2.4030   11.1800   -5.6930 C   0  0  0  0  0  0  0  0  0  0  0  0
   -2.1870    8.7940   -7.3480 Br  0  0  0  0  0  0  0  0  0  0  0  0
   -2.8140   14.9860   -3.3420 C   0  0  0  0  0  0  0  0  0  0  0  0
   -3.4580   14.9710   -2.3330 C   0  0  0  0  0  0  0  0  0  0  0  0
   -4.1010   14.9750   -1.0710 C   0  0  0  0  0  0  0  0  0  0  0  0
   -3.3400   15.0420    0.0850 C   0  0  0  0  0  0  0  0  0  0  0  0
   -5.4790   14.9180   -0.9430 C   0  0  0  0  0  0  0  0  0  0  0  0
   -3.9820   15.0580    1.3070 C   0  0  0  0  0  0  0  0  0  0  0  0
   -6.1240   14.9290    0.2470 N   0  0  0  0  0  0  0  0  0  0  0  0
   -5.3700   15.0070    1.3630 C   0  0  0  0  0  0  0  0  0  0  0  0
   -5.9510   15.0540    2.6320 N   0  0  0  0  0  0  0  0  0  0  0  0
   -7.3510   14.7110    2.8770 C   0  0  0  0  0  0  0  0  0  0  0  0
   -7.5930   13.2120    2.8970 C   0  0  0  0  0  0  0  0  0  0  0  0
  1  2  1  0
  2  3  1  0
  2  4  2  0
  3  5  1  1
  3  6  1  0
  5  7  1  0
  6  8  1  0
  6  9  1  0
  7 10  1  0
  8 11  2  0
  9 12  2  0
 11 12  1  0
 11 13  1  0
 10 14  1  0
 14 15  3  0
 15 16  1  0
 16 17  2  0
 16 18  1  0
 17 19  1  0
 18 20  2  0
 19 21  2  0
 20 21  1  0
 21 22  1  0
 22 23  1  0
 23 24  1  0
M  END
