diamond-x1012_0_A-mac-x0319
     RDKit          3D

 14 14  0  0  0  0  0  0  0  0999 V2000
   -0.2090   18.2210   -4.7510 N   0  0  0  0  0  0  0  0  0  0  0  0
   -1.1370   17.2420   -4.8030 C   0  0  0  0  0  0  0  0  0  0  0  0
   -2.3250   17.5560   -4.7350 O   0  0  0  0  0  0  0  0  0  0  0  0
   -0.6840   15.9370   -4.9050 N   0  0  0  0  0  0  0  0  0  0  0  0
   -1.7260   14.9140   -4.7490 C   0  0  0  0  0  0  0  0  0  0  0  0
    0.7320   15.5480   -4.8560 C   0  0  1  0  0  0  0  0  0  0  0  0
    1.4060   16.5000   -4.0450 O   0  0  0  0  0  0  0  0  0  0  0  0
   -1.4350   13.8010   -3.7450 C   0  0  0  0  0  0  0  0  0  0  0  0
    0.9050   14.0840   -4.3900 C   0  0  1  0  0  0  0  0  0  0  0  0
    2.3240   13.6400   -4.0130 C   0  0  0  0  0  0  0  0  0  0  0  0
   -0.0190   13.8550   -3.2190 C   0  0  2  0  0  0  0  0  0  0  0  0
    0.3600   12.6680   -2.3620 C   0  0  0  0  0  0  0  0  0  0  0  0
    0.4300   11.4830   -2.9960 O   0  0  0  0  0  0  0  0  0  0  0  0
    0.5840   12.7420   -1.1700 O   0  0  0  0  0  0  0  0  0  0  0  0
  1  2  1  0
  2  3  2  0
  2  4  1  0
  4  5  1  0
  4  6  1  0
  6  7  1  1
  5  8  1  0
  6  9  1  0
  9 10  1  1
  8 11  1  0
  9 11  1  0
 11 12  1  6
 12 13  1  0
 12 14  2  0
M  END
