diamond-x0681_0_A-mac-x0302
     RDKit          3D

 17 18  0  0  0  0  0  0  0  0999 V2000
   -3.9650   15.5080   -2.5090 N   0  0  0  0  0  0  0  0  0  0  0  0
   -3.1010   14.7960   -1.7090 C   0  0  0  0  0  0  0  0  0  0  0  0
   -1.9040   14.3860   -1.9730 N   0  0  0  0  0  0  0  0  0  0  0  0
   -3.5970   14.4250   -0.2940 C   0  0  2  0  0  0  0  0  0  0  0  0
   -1.1710   14.5940   -3.2260 C   0  0  0  0  0  0  0  0  0  0  0  0
   -4.6300   13.3270   -0.3800 C   0  0  0  0  0  0  0  0  0  0  0  0
   -4.1090   15.6200    0.5260 C   0  0  0  0  0  0  0  0  0  0  0  0
    0.2490   14.1080   -2.9740 C   0  0  0  0  0  0  0  0  0  0  0  0
   -5.6900   13.2640    0.4800 N   0  0  0  0  0  0  0  0  0  0  0  0
   -4.7110   15.0950    1.8140 C   0  0  0  0  0  0  0  0  0  0  0  0
   -4.6760   12.3170   -1.2310 N   0  0  0  0  0  0  0  0  0  0  0  0
    1.0790   14.1540   -4.0300 O   0  0  0  0  0  0  0  0  0  0  0  0
    0.6730   13.6880   -1.9070 O   0  0  0  0  0  0  0  0  0  0  0  0
   -5.9440   14.2250    1.5190 C   0  0  1  0  0  0  0  0  0  0  0  0
   -6.4440   12.1780    0.1680 C   0  0  0  0  0  0  0  0  0  0  0  0
   -5.7990   11.6030   -0.8940 C   0  0  0  0  0  0  0  0  0  0  0  0
   -7.0270   15.0030    1.0180 O   0  0  0  0  0  0  0  0  0  0  0  0
  1  2  1  0
  2  3  2  3
  4  2  1  6
  3  5  1  0
  4  6  1  0
  4  7  1  0
  5  8  1  0
  6  9  1  0
  7 10  1  0
  6 11  2  0
  8 12  1  0
  8 13  2  0
  9 14  1  0
 10 14  1  0
  9 15  1  0
 11 16  1  0
 15 16  2  0
 14 17  1  6
M  END
