diamond-x0626_0_A-mac-x0224
     RDKit          3D

 22 23  0  0  0  0  0  0  0  0999 V2000
   -4.6650   14.8060    1.2650 N   0  0  0  0  0  0  0  0  0  0  0  0
   -5.9440   14.6220    0.7350 C   0  0  0  0  0  0  0  0  0  0  0  0
   -6.1880   14.6960   -0.4780 O   0  0  0  0  0  0  0  0  0  0  0  0
   -3.9450   16.3120    0.9440 S   0  0  0  0  0  0  0  0  0  0  0  0
   -3.5300   14.2720    0.8250 C   0  0  0  0  0  0  0  0  0  0  0  0
   -7.1030   14.3270    1.6850 C   0  0  0  0  0  0  0  0  0  0  0  0
   -2.4070   14.4770    1.4740 N   0  0  0  0  0  0  0  0  0  0  0  0
   -3.4480   13.3780   -0.6300 S   0  0  0  0  0  0  0  0  0  0  0  0
   -3.2010   15.7780   -0.6230 C   0  0  0  0  0  0  0  0  0  0  0  0
   -8.4500   14.5710    1.0160 C   0  0  0  0  0  0  0  0  0  0  0  0
   -1.7620   13.2860   -0.3960 C   0  0  0  0  0  0  0  0  0  0  0  0
   -1.4000   13.9200    0.7740 C   0  0  0  0  0  0  0  0  0  0  0  0
   -1.8300   15.4540   -0.7910 C   0  0  0  0  0  0  0  0  0  0  0  0
   -4.0460   15.6730   -1.7330 C   0  0  0  0  0  0  0  0  0  0  0  0
   -0.0580   14.0410    1.3040 C   0  0  0  0  0  0  0  0  0  0  0  0
   -1.3310   15.0220   -2.0550 C   0  0  0  0  0  0  0  0  0  0  0  0
   -3.5580   15.2600   -2.9760 C   0  0  0  0  0  0  0  0  0  0  0  0
    0.1030   14.6520   -2.2400 C   0  0  0  0  0  0  0  0  0  0  0  0
   -2.2150   14.9360   -3.1380 C   0  0  0  0  0  0  0  0  0  0  0  0
   -1.7750   14.5340   -4.3720 O   0  0  0  0  0  0  0  0  0  0  0  0
    1.0140   14.7320   -1.4430 O   0  0  0  0  0  0  0  0  0  0  0  0
    0.3310   14.1660   -3.4790 O   0  0  0  0  0  0  0  0  0  0  0  0
  1  2  1  0
  2  3  2  0
  1  4  1  0
  1  5  1  0
  2  6  1  0
  5  7  2  0
  5  8  1  0
  4  9  1  0
  6 10  1  0
  8 11  1  0
  7 12  1  0
 11 12  2  0
  9 13  2  0
  9 14  1  0
 12 15  1  0
 13 16  1  0
 14 17  2  0
 16 18  1  0
 16 19  2  0
 17 19  1  0
 19 20  1  0
 18 21  2  0
 18 22  1  0
M  END
