diamond-x0662_0_A-mac-x0387
     RDKit          3D

 31 34  0  0  0  0  0  0  0  0999 V2000
    5.3790    9.5350  -15.0790 C   0  0  0  0  0  0  0  0  0  0  0  0
    4.3320    9.9960  -14.1990 N   0  0  0  0  0  0  0  0  0  0  0  0
    3.6680   11.1880  -14.2480 C   0  0  0  0  0  0  0  0  0  0  0  0
    3.9330    9.1990  -13.2010 N   0  0  0  0  0  0  0  0  0  0  0  0
    2.7760   11.1590  -13.2030 C   0  0  0  0  0  0  0  0  0  0  0  0
    2.9720    9.8940  -12.5670 C   0  0  0  0  0  0  0  0  0  0  0  0
    2.2600    9.3780  -11.3770 C   0  0  0  0  0  0  0  0  0  0  0  0
    2.3750    8.1910  -11.0560 O   0  0  0  0  0  0  0  0  0  0  0  0
    1.4750   10.1850  -10.5870 N   0  0  0  0  0  0  0  0  0  0  0  0
    0.6630    9.9200   -9.4610 C   0  0  0  0  0  0  0  0  0  0  0  0
   -0.2190    8.8530   -9.3450 C   0  0  0  0  0  0  0  0  0  0  0  0
    0.7630   10.8100   -8.3940 C   0  0  0  0  0  0  0  0  0  0  0  0
   -0.9800    8.6950   -8.1770 C   0  0  0  0  0  0  0  0  0  0  0  0
    0.0150   10.6900   -7.2190 C   0  0  0  0  0  0  0  0  0  0  0  0
    0.2260   11.7600   -6.1590 C   0  0  0  0  0  0  0  0  0  0  0  0
   -0.8660    9.6070   -7.1210 C   0  0  0  0  0  0  0  0  0  0  0  0
   -0.8230   12.3350   -5.6740 N   0  0  0  0  0  0  0  0  0  0  0  0
    1.4350   11.9380   -5.9300 O   0  0  0  0  0  0  0  0  0  0  0  0
   -0.5410   13.3930   -4.6960 C   0  0  0  0  0  0  0  0  0  0  0  0
   -1.6870   14.4120   -4.5300 C   0  0  0  0  0  0  0  0  0  0  0  0
   -2.0110   14.5900   -3.0640 C   0  0  0  0  0  0  0  0  0  0  0  0
   -0.9930   14.3620   -2.1420 C   0  0  0  0  0  0  0  0  0  0  0  0
   -3.2800   14.9640   -2.6050 C   0  0  0  0  0  0  0  0  0  0  0  0
   -1.2070   14.4800   -0.7700 C   0  0  0  0  0  0  0  0  0  0  0  0
   -3.5130   15.0920   -1.2290 C   0  0  0  0  0  0  0  0  0  0  0  0
   -2.4810   14.8460   -0.2920 C   0  0  0  0  0  0  0  0  0  0  0  0
   -0.1670   14.2370    0.1250 C   0  0  0  0  0  0  0  0  0  0  0  0
   -2.6250   14.9380    1.1020 C   0  0  0  0  0  0  0  0  0  0  0  0
   -0.4290   14.3490    1.4670 C   0  0  0  0  0  0  0  0  0  0  0  0
   -3.8400   15.3050    1.6910 N   0  0  0  0  0  0  0  0  0  0  0  0
   -1.6300   14.6840    1.9650 N   0  0  0  0  0  0  0  0  0  0  0  0
  1  2  1  0
  2  3  1  0
  2  4  1  0
  3  5  2  0
  4  6  2  0
  5  6  1  0
  6  7  1  0
  7  8  2  0
  7  9  1  0
  9 10  1  0
 10 11  2  0
 10 12  1  0
 11 13  1  0
 12 14  2  0
 14 15  1  0
 13 16  2  0
 14 16  1  0
 15 17  2  3
 15 18  1  0
 17 19  1  0
 19 20  1  0
 20 21  1  0
 21 22  2  0
 21 23  1  0
 22 24  1  0
 23 25  2  0
 24 26  2  0
 25 26  1  0
 24 27  1  0
 26 28  1  0
 27 29  2  0
 28 30  1  0
 28 31  2  0
 29 31  1  0
M  CHG  1  18  -1
M  END
