diamond-x0926_0_A-mac-x0277
     RDKit          3D

 21 22  0  0  0  0  0  0  0  0999 V2000
   -6.9350   15.0710   -0.3410 O   0  0  0  0  0  0  0  0  0  0  0  0
   -5.7040   15.0480   -0.3240 C   0  0  0  0  0  0  0  0  0  0  0  0
   -4.9200   14.9540    0.9820 C   0  0  0  0  0  0  0  0  0  0  0  0
   -5.0100   15.0920   -1.5020 N   0  0  0  0  0  0  0  0  0  0  0  0
   -3.6390   14.8420   -1.5660 N   0  0  0  0  0  0  0  0  0  0  0  0
   -3.4440   14.9940    0.8200 C   0  0  0  0  0  0  0  0  0  0  0  0
   -3.0550   15.3070   -2.8180 C   0  0  0  0  0  0  0  0  0  0  0  0
   -2.9080   14.9330   -0.3960 C   0  0  0  0  0  0  0  0  0  0  0  0
   -3.6140   14.7630   -4.1270 C   0  0  0  0  0  0  0  0  0  0  0  0
   -2.8660   15.4130   -5.3080 C   0  0  0  0  0  0  0  0  0  0  0  0
   -1.3760   15.5430   -5.0320 C   0  0  0  0  0  0  0  0  0  0  0  0
   -0.6670   14.3550   -4.7810 C   0  0  0  0  0  0  0  0  0  0  0  0
   -0.6570   16.7530   -5.0030 C   0  0  0  0  0  0  0  0  0  0  0  0
   -1.3860   18.2920   -5.2970 Cl  0  0  0  0  0  0  0  0  0  0  0  0
    0.7040   14.3480   -4.5050 C   0  0  0  0  0  0  0  0  0  0  0  0
    0.7160   16.7540   -4.7250 C   0  0  0  0  0  0  0  0  0  0  0  0
    1.4120   13.0360   -4.2380 C   0  0  0  0  0  0  0  0  0  0  0  0
    1.3890   15.5560   -4.4760 C   0  0  0  0  0  0  0  0  0  0  0  0
    1.0160   12.3970   -2.9200 C   0  0  0  0  0  0  0  0  0  0  0  0
    0.3960   11.2010   -3.0660 O   0  0  0  0  0  0  0  0  0  0  0  0
    1.2110   12.8730   -1.8170 O   0  0  0  0  0  0  0  0  0  0  0  0
  1  2  2  0
  2  3  1  0
  2  4  1  0
  4  5  1  0
  3  6  1  0
  5  7  1  0
  5  8  1  0
  6  8  2  0
  7  9  1  0
  9 10  1  0
 10 11  1  0
 11 12  2  0
 11 13  1  0
 13 14  1  0
 12 15  1  0
 13 16  2  0
 15 17  1  0
 15 18  2  0
 16 18  1  0
 17 19  1  0
 19 20  1  0
 19 21  2  0
M  END
