diamond-x1015_0_A-diamond-x0290_0_A
     RDKit          3D

 27 29  0  0  0  0  0  0  0  0999 V2000
   -1.5380   14.3930   -2.8160 C   0  0  0  0  0  0  0  0  0  0  0  0
   -0.3420   13.7390   -3.5670 C   0  0  2  0  0  0  0  0  0  0  0  0
   -0.3510   12.2690   -3.6910 N   0  0  0  0  0  0  0  0  0  0  0  0
   -1.5430   14.4580   -1.2650 C   0  0  0  0  0  0  0  0  0  0  0  0
    0.8330   13.8920   -2.6260 C   0  0  0  0  0  0  0  0  0  0  0  0
   -0.3970   14.4560   -0.4360 C   0  0  0  0  0  0  0  0  0  0  0  0
   -2.7810   14.5310   -0.5970 C   0  0  0  0  0  0  0  0  0  0  0  0
    1.4310   14.9260   -2.3960 O   0  0  0  0  0  0  0  0  0  0  0  0
    0.3500   11.7120   -2.6170 C   0  0  0  0  0  0  0  0  0  0  0  0
    1.1190   12.6900   -2.0800 N   0  0  0  0  0  0  0  0  0  0  0  0
   -0.6370   11.5240   -4.8770 C   0  0  0  0  0  0  0  0  0  0  0  0
   -0.5580   14.5140    0.9520 C   0  0  0  0  0  0  0  0  0  0  0  0
   -2.8480   14.5880    0.8020 C   0  0  0  0  0  0  0  0  0  0  0  0
    0.3260   10.5630   -2.1810 O   0  0  0  0  0  0  0  0  0  0  0  0
   -4.1240   14.6550    1.3700 N   0  0  0  0  0  0  0  0  0  0  0  0
   -0.0140   11.7750   -6.1130 C   0  0  0  0  0  0  0  0  0  0  0  0
   -1.5750   10.4790   -4.8260 C   0  0  0  0  0  0  0  0  0  0  0  0
   -1.7530   14.5720    1.5830 N   0  0  0  0  0  0  0  0  0  0  0  0
   -5.3460   14.4250    0.8010 C   0  0  0  0  0  0  0  0  0  0  0  0
   -0.3200   11.0080   -7.2500 C   0  0  0  0  0  0  0  0  0  0  0  0
   -1.8820    9.7150   -5.9530 C   0  0  0  0  0  0  0  0  0  0  0  0
   -5.4200   14.5070   -0.4280 O   0  0  0  0  0  0  0  0  0  0  0  0
   -6.5480   14.0720    1.6990 C   0  0  0  0  0  0  0  0  0  0  0  0
   -1.2570    9.9770   -7.1630 C   0  0  0  0  0  0  0  0  0  0  0  0
   -1.6490    9.0270   -8.5390 Cl  0  0  0  0  0  0  0  0  0  0  0  0
   -7.7860   13.7690    0.9490 N   0  0  0  0  0  0  0  0  0  0  0  0
   -8.5910   14.9570    0.7010 C   0  0  0  0  0  0  0  0  0  0  0  0
  2  1  1  1
  2  3  1  0
  1  4  1  0
  2  5  1  0
  4  6  2  0
  4  7  1  0
  5  8  2  0
  3  9  1  0
  5 10  1  0
  9 10  1  0
  3 11  1  0
  6 12  1  0
  7 13  2  0
  9 14  2  0
 13 15  1  0
 11 16  2  0
 11 17  1  0
 12 18  2  0
 13 18  1  0
 15 19  1  0
 16 20  1  0
 17 21  2  0
 19 22  2  0
 19 23  1  0
 20 24  2  0
 21 24  1  0
 24 25  1  0
 23 26  1  0
 26 27  1  0
M  END
