diamond-x0104_0_A-mac-x0305
     RDKit          3D

 27 29  0  0  0  0  0  0  0  0999 V2000
   -6.9540   14.5110    2.6720 N   0  0  0  0  0  0  0  0  0  0  0  0
   -8.1040   15.0640    3.2110 C   0  0  0  0  0  0  0  0  0  0  0  0
   -8.0380   15.0890    4.5950 N   0  0  0  0  0  0  0  0  0  0  0  0
   -6.5350   14.5420    1.3320 C   0  0  0  0  0  0  0  0  0  0  0  0
   -9.0450   15.4730    2.5430 O   0  0  0  0  0  0  0  0  0  0  0  0
   -5.2440   14.2760    0.9110 C   0  0  0  0  0  0  0  0  0  0  0  0
   -7.4690   14.8600    0.3460 C   0  0  0  0  0  0  0  0  0  0  0  0
   -4.8470   14.3180   -0.3850 N   0  0  0  0  0  0  0  0  0  0  0  0
   -7.0820   14.9140   -0.9890 C   0  0  0  0  0  0  0  0  0  0  0  0
   -9.1420   15.0920    5.4200 C   0  0  0  0  0  0  0  0  0  0  0  0
   -5.7720   14.6420   -1.3080 C   0  0  0  0  0  0  0  0  0  0  0  0
   -9.2940   15.2070    6.7810 C   0  0  0  0  0  0  0  0  0  0  0  0
  -10.6320   14.9180    4.6090 S   0  0  0  0  0  0  0  0  0  0  0  0
   -5.4450   14.7240   -2.6410 O   0  0  0  0  0  0  0  0  0  0  0  0
  -11.5070   14.9940    6.0820 C   0  0  0  0  0  0  0  0  0  0  0  0
  -10.6690   15.1510    7.1650 C   0  0  0  0  0  0  0  0  0  0  0  0
   -4.1230   15.1720   -2.9000 C   0  0  0  0  0  0  0  0  0  0  0  0
   -3.3290   15.1020   -1.6490 C   0  0  0  0  0  0  0  0  0  0  0  0
   -3.8140   15.5160   -0.4060 C   0  0  0  0  0  0  0  0  0  0  0  0
   -2.1130   14.6010   -1.8230 N   0  0  0  0  0  0  0  0  0  0  0  0
   -1.3200   14.4770   -0.7520 C   0  0  0  0  0  0  0  0  0  0  0  0
   -2.9890   15.3740    0.7110 C   0  0  0  0  0  0  0  0  0  0  0  0
   -0.0120   13.9130   -1.1610 C   0  0  0  0  0  0  0  0  0  0  0  0
   -1.7120   14.8430    0.5520 C   0  0  0  0  0  0  0  0  0  0  0  0
    0.4990   13.0400   -0.2720 O   0  0  0  0  0  0  0  0  0  0  0  0
    0.5900   14.1550   -2.1960 O   0  0  0  0  0  0  0  0  0  0  0  0
   -0.9540   14.7320    1.6910 O   0  0  0  0  0  0  0  0  0  0  0  0
  1  2  1  0
  2  3  1  0
  1  4  1  0
  2  5  2  0
  4  6  2  0
  4  7  1  0
  6  8  1  0
  7  9  2  0
  3 10  1  0
  8 11  2  0
  9 11  1  0
 10 12  2  0
 10 13  1  0
 11 14  1  0
 13 15  1  0
 12 16  1  0
 15 16  2  0
 14 17  1  0
 17 18  1  0
 18 19  2  0
 18 20  1  0
 20 21  2  0
 19 22  1  0
 21 23  1  0
 21 24  1  0
 22 24  2  0
 23 25  1  0
 23 26  2  0
 24 27  1  0
M  END
