diamond-x0727_0_A-diamond-x0962_0_A
     RDKit          3D

 22 23  0  0  0  0  0  0  0  0999 V2000
    0.1220   11.4730   -5.6190 N   0  0  0  0  0  0  0  0  0  0  0  0
    0.8600   12.3740   -4.7350 C   0  0  1  0  0  0  0  0  0  0  0  0
    0.4000   13.8310   -4.9270 C   0  0  0  0  0  0  0  0  0  0  0  0
    0.6810   11.0910   -6.8010 C   0  0  0  0  0  0  0  0  0  0  0  0
    1.6480   11.6970   -7.2000 O   0  0  0  0  0  0  0  0  0  0  0  0
    0.7350   11.9240   -3.2630 C   0  0  0  0  0  0  0  0  0  0  0  0
    0.0940    9.9140   -7.5550 C   0  0  0  0  0  0  0  0  0  0  0  0
    0.0640   10.9700   -2.8890 O   0  0  0  0  0  0  0  0  0  0  0  0
    1.4500   12.6750   -2.3930 O   0  0  0  0  0  0  0  0  0  0  0  0
   -0.2320   14.5310   -3.7110 C   0  0  0  0  0  0  0  0  0  0  0  0
   -1.2020   10.2670   -8.2930 C   0  0  0  0  0  0  0  0  0  0  0  0
   -0.2380    8.7260   -6.6360 C   0  0  0  0  0  0  0  0  0  0  0  0
   -1.7070   14.9040   -3.8900 C   0  0  0  0  0  0  0  0  0  0  0  0
   -2.1420    9.0940   -8.0500 C   0  0  0  0  0  0  0  0  0  0  0  0
   -1.7470    8.5740   -6.6790 C   0  0  0  0  0  0  0  0  0  0  0  0
   -2.4520   14.9150   -2.6210 C   0  0  0  0  0  0  0  0  0  0  0  0
   -3.0890   14.9650   -1.6080 C   0  0  0  0  0  0  0  0  0  0  0  0
   -3.8830   15.0590   -0.4490 C   0  0  0  0  0  0  0  0  0  0  0  0
   -3.4390   15.3790    0.7990 N   0  0  0  0  0  0  0  0  0  0  0  0
   -5.2330   14.8630   -0.3150 C   0  0  0  0  0  0  0  0  0  0  0  0
   -4.5180   15.3660    1.6280 C   0  0  0  0  0  0  0  0  0  0  0  0
   -5.6190   15.0530    0.9830 N   0  0  0  0  0  0  0  0  0  0  0  0
  1  2  1  0
  2  3  1  1
  1  4  1  0
  4  5  2  0
  2  6  1  0
  4  7  1  0
  6  8  2  0
  6  9  1  0
  3 10  1  0
  7 11  1  0
  7 12  1  0
 10 13  1  0
 11 14  1  0
 12 15  1  0
 14 15  1  0
 13 16  1  0
 16 17  3  0
 17 18  1  0
 18 19  1  0
 18 20  2  0
 19 21  1  0
 20 22  1  0
 21 22  2  0
M  END
