diamond-x0253_0_A-diamond-x0631_0_A
     RDKit          3D

 24 25  0  0  0  0  0  0  0  0999 V2000
    0.4110   11.9870   -5.7020 N   0  0  0  0  0  0  0  0  0  0  0  0
    1.1710   11.6540   -6.8090 C   0  0  0  0  0  0  0  0  0  0  0  0
    2.2840   12.1140   -6.7740 O   0  0  0  0  0  0  0  0  0  0  0  0
    0.8910   12.9210   -4.6710 C   0  0  0  0  0  0  0  0  0  0  0  0
    0.8150   12.3280   -3.2690 C   0  0  0  0  0  0  0  0  0  0  0  0
    0.6000   10.7240   -7.8740 C   0  0  0  0  0  0  0  0  0  0  0  0
    1.0540   12.9140   -2.2210 O   0  0  0  0  0  0  0  0  0  0  0  0
    0.4610   11.0310   -3.2480 O   0  0  0  0  0  0  0  0  0  0  0  0
   -0.3540    9.9100   -7.2830 C   0  0  0  0  0  0  0  0  0  0  0  0
    0.8520   10.5310   -9.3160 C   0  0  0  0  0  0  0  0  0  0  0  0
    1.7210   11.1300  -10.2470 N   0  0  0  0  0  0  0  0  0  0  0  0
   -1.0560    8.9540   -7.9820 C   0  0  0  0  0  0  0  0  0  0  0  0
    0.0950    9.5460   -9.9590 C   0  0  0  0  0  0  0  0  0  0  0  0
   -2.0360    8.1400   -7.2420 C   0  0  0  0  0  0  0  0  0  0  0  0
    1.8590   10.3880  -11.5270 C   0  0  2  0  0  0  0  0  0  0  0  0
   -0.8380    8.7710   -9.3210 C   0  0  0  0  0  0  0  0  0  0  0  0
   -3.2930    8.9520   -6.9750 C   0  0  0  0  0  0  0  0  0  0  0  0
   -1.3240    7.7260   -5.9610 C   0  0  0  0  0  0  0  0  0  0  0  0
    2.4140    9.1350  -11.1350 O   0  0  0  0  0  0  0  0  0  0  0  0
    2.7320   10.9760  -12.6750 C   0  0  1  0  0  0  0  0  0  0  0  0
    3.8550   10.1130  -13.0030 O   0  0  0  0  0  0  0  0  0  0  0  0
    2.1130   11.3320  -13.9930 C   0  0  0  0  0  0  0  0  0  0  0  0
    3.3700   11.5360  -14.8080 C   0  0  0  0  0  0  0  0  0  0  0  0
    4.2210   10.3710  -14.3680 C   0  0  0  0  0  0  0  0  0  0  0  0
  1  2  1  0
  2  3  2  0
  1  4  1  0
  4  5  1  0
  2  6  1  0
  5  7  2  0
  5  8  1  0
  6  9  2  0
  6 10  1  0
 10 11  1  0
  9 12  1  0
 10 13  2  0
 12 14  1  0
 11 15  1  0
 12 16  2  0
 13 16  1  0
 14 17  1  0
 14 18  1  0
 15 19  1  1
 15 20  1  0
 20 21  1  0
 20 22  1  6
 22 23  1  0
 21 24  1  0
 23 24  1  0
M  END
