diamond-x1018_0_A-mac-x0396
     RDKit          3D

 13 14  0  0  0  0  0  0  0  0999 V2000
   -8.2620   14.5910    1.0400 Cl  0  0  0  0  0  0  0  0  0  0  0  0
   -6.7280   14.6870    0.2480 C   0  0  0  0  0  0  0  0  0  0  0  0
   -5.4770   14.7720    1.0540 C   0  0  0  0  0  0  0  0  0  0  0  0
   -6.7750   14.6820   -1.0490 N   0  0  0  0  0  0  0  0  0  0  0  0
   -5.5500   14.7550   -1.6100 N   0  0  0  0  0  0  0  0  0  0  0  0
   -4.3370   14.8310    0.3460 C   0  0  0  0  0  0  0  0  0  0  0  0
   -2.9950   14.9070    0.8570 C   0  0  0  0  0  0  0  0  0  0  0  0
   -5.3260   14.7660   -2.9260 N   0  0  0  0  0  0  0  0  0  0  0  0
   -4.3530   14.8270   -0.9970 C   0  0  0  0  0  0  0  0  0  0  0  0
   -2.8110   14.8170    2.1550 N   0  0  0  0  0  0  0  0  0  0  0  0
   -2.0730   15.0190    0.0640 O   0  0  0  0  0  0  0  0  0  0  0  0
   -3.3810   14.8850   -1.8650 N   0  0  0  0  0  0  0  0  0  0  0  0
   -4.0040   14.8470   -3.0730 N   0  0  0  0  0  0  0  0  0  0  0  0
  1  2  1  0
  2  3  1  0
  2  4  2  0
  4  5  1  0
  3  6  2  0
  6  7  1  0
  5  8  1  0
  5  9  1  0
  6  9  1  0
  7 10  1  0
  7 11  2  0
  9 12  2  0
  8 13  2  0
 12 13  1  0
M  END
