diamond-x0905_0_A-mac-x0188
     RDKit          3D

 15 16  0  0  0  0  0  0  0  0999 V2000
   -6.3030   14.7770   -1.1520 O   0  0  0  0  0  0  0  0  0  0  0  0
   -5.0230   14.2100   -0.8880 C   0  0  2  0  0  0  0  0  0  0  0  0
   -4.4750   14.9710    0.2020 N   0  0  0  0  0  0  0  0  0  0  0  0
   -4.1270   14.1320   -2.1770 C   0  0  0  0  0  0  0  0  0  0  0  0
   -3.3210   15.6850    0.0970 C   0  0  0  0  0  0  0  0  0  0  0  0
   -2.6120   14.6240   -2.1200 C   0  0  2  0  0  0  0  0  0  0  0  0
   -2.4400   15.5750   -0.9250 C   0  0  0  0  0  0  0  0  0  0  0  0
   -2.4150   15.3140   -3.4440 N   0  0  0  0  0  0  0  0  0  0  0  0
   -1.3530   13.6520   -2.2620 C   0  0  2  0  0  0  0  0  0  0  0  0
   -0.0380   14.0460   -1.6040 C   0  0  0  0  0  0  0  0  0  0  0  0
   -1.1320   13.3460   -3.7530 C   0  0  1  0  0  0  0  0  0  0  0  0
   -1.8830   14.3470   -4.4400 O   0  0  0  0  0  0  0  0  0  0  0  0
    0.3090   13.3390   -4.3160 C   0  0  0  0  0  0  0  0  0  0  0  0
    0.5560   15.1060   -1.6760 O   0  0  0  0  0  0  0  0  0  0  0  0
    0.5130   13.0380   -0.8650 O   0  0  0  0  0  0  0  0  0  0  0  0
  2  1  1  6
  2  3  1  0
  2  4  1  0
  3  5  1  0
  6  4  1  6
  5  7  2  0
  6  7  1  0
  6  8  1  0
  6  9  1  0
  9 10  1  6
  9 11  1  0
  8 12  1  0
 11 12  1  0
 11 13  1  6
 10 14  2  0
 10 15  1  0
M  END
