diamond-x0592_0_A-mac-x0387
     RDKit          3D

 20 22  0  0  0  0  0  0  0  0999 V2000
   -4.7220   13.2120    0.0420 C   0  0  0  0  0  0  0  0  0  0  0  0
   -3.6020   13.1250   -0.4010 N   0  0  0  0  0  0  0  0  0  0  0  0
   -2.8210   13.7820   -1.2520 C   0  0  0  0  0  0  0  0  0  0  0  0
   -5.7130   14.1100   -0.2350 C   0  0  0  0  0  0  0  0  0  0  0  0
   -6.0320   15.0610   -1.2210 C   0  0  0  0  0  0  0  0  0  0  0  0
   -6.7030   14.1230    0.6440 C   0  0  0  0  0  0  0  0  0  0  0  0
   -7.2220   15.6230   -0.9330 N   0  0  0  0  0  0  0  0  0  0  0  0
   -7.5770   14.9980    0.2270 N   0  0  0  0  0  0  0  0  0  0  0  0
   -1.8060   14.2370   -0.5200 C   0  0  0  0  0  0  0  0  0  0  0  0
   -2.9430   13.9460   -2.6250 C   0  0  0  0  0  0  0  0  0  0  0  0
   -8.7680   15.2100    0.9890 C   0  0  0  0  0  0  0  0  0  0  0  0
   -1.8230   14.0720    0.8690 C   0  0  0  0  0  0  0  0  0  0  0  0
   -0.7690   14.8410   -1.1290 C   0  0  0  0  0  0  0  0  0  0  0  0
   -1.9020   14.5930   -3.2810 C   0  0  0  0  0  0  0  0  0  0  0  0
   -8.5330   14.6000    2.3820 C   0  0  0  0  0  0  0  0  0  0  0  0
    0.2490   15.2290   -0.3150 C   0  0  0  0  0  0  0  0  0  0  0  0
   -0.8670   14.4710    1.6940 N   0  0  0  0  0  0  0  0  0  0  0  0
   -0.7990   15.0260   -2.5270 C   0  0  0  0  0  0  0  0  0  0  0  0
   -7.4210   15.2360    3.0330 O   0  0  0  0  0  0  0  0  0  0  0  0
    0.1580   15.0380    1.0490 C   0  0  0  0  0  0  0  0  0  0  0  0
  1  2  2  3
  2  3  1  0
  1  4  1  0
  4  5  1  0
  4  6  2  0
  5  7  2  0
  6  8  1  0
  7  8  1  0
  3  9  1  0
  3 10  2  0
  8 11  1  0
  9 12  2  0
  9 13  1  0
 10 14  1  0
 11 15  1  0
 13 16  2  0
 12 17  1  0
 13 18  1  0
 14 18  2  0
 15 19  1  0
 16 20  1  0
 17 20  2  0
M  END
