diamond-x0259_0_A-diamond-x0216_0_A
     RDKit          3D

 22 23  0  0  0  0  0  0  0  0999 V2000
   19.3970   28.4410    6.7450 C   0  0  2  0  0  0  0  0  0  0  0  0
   19.2790   27.4170    7.9090 C   0  0  0  0  0  0  0  0  0  0  0  0
   19.8570   29.7560    7.4720 C   0  0  0  0  0  0  0  0  0  0  0  0
   18.0780   28.6370    6.0950 N   0  0  0  0  0  0  0  0  0  0  0  0
   20.3840   27.8800    5.5610 C   0  0  0  0  0  0  0  0  0  0  0  0
   17.1700   29.7410    6.3980 C   0  0  0  0  0  0  0  0  0  0  0  0
   18.9460   30.4160    8.5400 C   0  0  1  0  0  0  0  0  0  0  0  0
   19.8540   27.7330    4.2350 N   0  0  0  0  0  0  0  0  0  0  0  0
   21.6930   27.5350    5.7520 C   0  0  0  0  0  0  0  0  0  0  0  0
   22.5490   27.6530    7.2680 Cl  0  0  0  0  0  0  0  0  0  0  0  0
   15.7560   29.2960    6.7290 C   0  0  0  0  0  0  0  0  0  0  0  0
   17.1800   30.9770    5.5030 C   0  0  0  0  0  0  0  0  0  0  0  0
   18.5110   31.8490    8.2560 C   0  0  0  0  0  0  0  0  0  0  0  0
   17.6160   29.6840    8.8060 C   0  0  0  0  0  0  0  0  0  0  0  0
   20.5250   27.0660    3.3040 C   0  0  0  0  0  0  0  0  0  0  0  0
   22.5920   26.9910    4.6690 C   0  0  0  0  0  0  0  0  0  0  0  0
   18.7810   28.5260    3.6480 C   0  0  0  0  0  0  0  0  0  0  0  0
   23.8030   26.8480    4.8630 O   0  0  0  0  0  0  0  0  0  0  0  0
   16.5370   30.5530    8.4460 O   0  0  0  0  0  0  0  0  0  0  0  0
   17.0100   31.8910    8.4880 C   0  0  0  0  0  0  0  0  0  0  0  0
   21.9000   26.6510    3.4260 N   0  0  0  0  0  0  0  0  0  0  0  0
   22.4720   26.0110    2.4850 O   0  0  0  0  0  0  0  0  0  0  0  0
  1  2  1  1
  1  3  1  0
  1  4  1  0
  1  5  1  0
  4  6  1  0
  7  3  1  6
  5  8  1  0
  5  9  2  0
  9 10  1  0
  6 11  1  0
  6 12  1  0
  7 13  1  0
  7 14  1  0
  8 15  1  0
  9 16  1  0
  8 17  1  0
 16 18  2  0
 14 19  1  0
 13 20  1  0
 19 20  1  0
 15 21  2  0
 16 21  1  0
 21 22  1  0
M  CHG  2  21   1  22  -1
M  END
