diamond-x0910_1_A-mac-x0306
     RDKit          3D

 11 12  0  0  0  0  0  0  0  0999 V2000
   -7.8380   13.7090    1.3160 N   0  0  0  0  0  0  0  0  0  0  0  0
   -6.7060   14.2220    0.7980 C   0  0  0  0  0  0  0  0  0  0  0  0
   -6.2880   13.9370   -0.3920 N   0  0  0  0  0  0  0  0  0  0  0  0
   -5.9720   15.0890    1.5350 N   0  0  0  0  0  0  0  0  0  0  0  0
   -5.0410   14.7090   -0.5170 C   0  0  0  0  0  0  0  0  0  0  0  0
   -5.0080   15.4520    0.7630 C   0  0  0  0  0  0  0  0  0  0  0  0
   -5.0700   15.5110   -1.7750 C   0  0  0  0  0  0  0  0  0  0  0  0
   -3.8260   13.8520   -0.3570 C   0  0  0  0  0  0  0  0  0  0  0  0
   -3.9730   15.5470   -2.5460 C   0  0  0  0  0  0  0  0  0  0  0  0
   -2.7960   13.9900   -1.1910 C   0  0  0  0  0  0  0  0  0  0  0  0
   -2.8210   14.8930   -2.2100 N   0  0  0  0  0  0  0  0  0  0  0  0
  1  2  1  0
  2  3  2  0
  2  4  1  0
  5  3  1  0
  4  6  2  0
  5  6  1  0
  5  7  1  0
  5  8  1  0
  7  9  2  0
  8 10  2  0
  9 11  1  0
 10 11  1  0
M  END
