diamond-x0253_0_A-diamond-x0421_0_A
     RDKit          3D

 27 29  0  0  0  0  0  0  0  0999 V2000
    0.3100   11.9500   -5.3780 N   0  0  0  0  0  0  0  0  0  0  0  0
    1.0580   11.6780   -6.5050 C   0  0  0  0  0  0  0  0  0  0  0  0
    2.1700   12.1400   -6.6590 O   0  0  0  0  0  0  0  0  0  0  0  0
    0.8370   12.8570   -4.3690 C   0  0  0  0  0  0  0  0  0  0  0  0
    0.7930   12.2070   -2.9880 C   0  0  0  0  0  0  0  0  0  0  0  0
    0.4480   10.7470   -7.5110 C   0  0  0  0  0  0  0  0  0  0  0  0
    0.9070   12.8800   -1.9040 N   0  0  0  0  0  0  0  0  0  0  0  0
    0.6160   10.8750   -2.9520 O   0  0  0  0  0  0  0  0  0  0  0  0
   -0.5300    9.8310   -7.1230 C   0  0  0  0  0  0  0  0  0  0  0  0
    0.8500   10.7820   -8.8600 C   0  0  0  0  0  0  0  0  0  0  0  0
    1.0460   14.3310   -1.9190 C   0  0  0  0  0  0  0  0  0  0  0  0
   -1.1040    8.9600   -8.0570 C   0  0  0  0  0  0  0  0  0  0  0  0
    0.2860    9.9190   -9.7910 C   0  0  0  0  0  0  0  0  0  0  0  0
   -2.1550    7.9810   -7.6370 C   0  0  0  0  0  0  0  0  0  0  0  0
   -0.1960   14.9710   -1.2530 C   0  0  0  0  0  0  0  0  0  0  0  0
   -0.6870    9.0110   -9.3960 C   0  0  0  0  0  0  0  0  0  0  0  0
   -1.3660   15.0900   -2.1800 N   0  0  0  0  0  0  0  0  0  0  0  0
   -2.6560   15.1170   -1.8770 C   0  0  0  0  0  0  0  0  0  0  0  0
   -3.5850   15.2400   -2.8730 N   0  0  0  0  0  0  0  0  0  0  0  0
   -3.3270   15.0160   -0.5880 C   0  0  0  0  0  0  0  0  0  0  0  0
   -2.7210   15.0130    0.6460 C   0  0  0  0  0  0  0  0  0  0  0  0
   -4.7050   14.9030   -0.4470 N   0  0  0  0  0  0  0  0  0  0  0  0
   -3.7360   14.8900    1.5370 N   0  0  0  0  0  0  0  0  0  0  0  0
   -4.9050   14.8260    0.8490 C   0  0  0  0  0  0  0  0  0  0  0  0
   -6.2860   14.6760    1.5510 C   0  0  0  0  0  0  0  0  0  0  0  0
   -7.5450   14.6620    0.7210 C   0  0  0  0  0  0  0  0  0  0  0  0
   -7.0610   13.3990    1.3700 C   0  0  0  0  0  0  0  0  0  0  0  0
  1  2  1  0
  2  3  2  0
  1  4  1  0
  4  5  1  0
  2  6  1  0
  5  7  2  3
  5  8  1  0
  6  9  2  0
  6 10  1  0
  7 11  1  0
  9 12  1  0
 10 13  2  0
 12 14  1  0
 11 15  1  0
 12 16  2  0
 13 16  1  0
 15 17  1  0
 17 18  2  3
 18 19  1  0
 18 20  1  0
 20 21  2  0
 20 22  1  0
 21 23  1  0
 22 24  2  0
 23 24  1  0
 24 25  1  0
 25 26  1  0
 25 27  1  0
 26 27  1  0
M  END
