diamond-x0104_0_A-mac-x0148
     RDKit          3D

 35 40  0  0  0  0  0  0  0  0999 V2000
   -6.9920   14.4730    2.5910 N   0  0  0  0  0  0  0  0  0  0  0  0
   -8.1370   15.0600    3.1250 C   0  0  0  0  0  0  0  0  0  0  0  0
   -8.1020   15.0590    4.5130 N   0  0  0  0  0  0  0  0  0  0  0  0
   -6.5890   14.5190    1.2390 C   0  0  0  0  0  0  0  0  0  0  0  0
   -9.0490   15.5110    2.4460 O   0  0  0  0  0  0  0  0  0  0  0  0
   -5.2800   14.1670    0.9110 C   0  0  0  0  0  0  0  0  0  0  0  0
   -7.4080   14.9020    0.1830 C   0  0  0  0  0  0  0  0  0  0  0  0
   -4.7680   14.1820   -0.3420 N   0  0  0  0  0  0  0  0  0  0  0  0
   -6.9080   14.9340   -1.1180 C   0  0  0  0  0  0  0  0  0  0  0  0
   -9.2190   15.0590    5.3320 C   0  0  0  0  0  0  0  0  0  0  0  0
   -5.5940   14.5750   -1.3330 C   0  0  0  0  0  0  0  0  0  0  0  0
   -9.2310   15.1860    6.7090 C   0  0  0  0  0  0  0  0  0  0  0  0
  -10.7840   14.8910    4.6980 S   0  0  0  0  0  0  0  0  0  0  0  0
   -5.1590   14.6410   -2.6430 O   0  0  0  0  0  0  0  0  0  0  0  0
  -11.5030   14.9850    6.2470 C   0  0  0  0  0  0  0  0  0  0  0  0
  -10.5590   15.1430    7.2400 C   0  0  0  0  0  0  0  0  0  0  0  0
   -3.8520   15.2040   -2.8740 C   0  0  0  0  0  0  0  0  0  0  0  0
   -3.0430   14.2590   -3.7270 C   0  0  1  0  0  0  0  0  0  0  0  0
   -3.3190   14.4540   -5.1380 O   0  0  0  0  0  0  0  0  0  0  0  0
   -1.5230   14.3620   -3.7220 C   0  0  2  0  0  0  0  0  0  0  0  0
   -2.4710   13.4890   -5.7640 C   0  0  0  0  0  0  0  0  0  0  0  0
   -1.4430   13.1810   -4.7010 C   0  0  1  0  0  0  0  0  0  0  0  0
   -0.7100   14.0680   -2.4910 N   0  0  0  0  0  0  0  0  0  0  0  0
   -0.0410   12.8260   -5.0730 C   0  0  0  0  0  0  0  0  0  0  0  0
    0.6060   13.4010   -2.7110 C   0  0  0  0  0  0  0  0  0  0  0  0
   -1.0240   14.3040   -1.1360 C   0  0  0  0  0  0  0  0  0  0  0  0
    0.5570   12.3020   -3.7780 C   0  0  0  0  0  0  0  0  0  0  0  0
   -0.0820   13.9690   -0.1820 N   0  0  0  0  0  0  0  0  0  0  0  0
   -2.1520   14.8380   -0.6280 C   0  0  0  0  0  0  0  0  0  0  0  0
   -0.3370   14.0860    1.1620 C   0  0  0  0  0  0  0  0  0  0  0  0
   -2.3100   14.9940    0.8430 C   0  0  0  0  0  0  0  0  0  0  0  0
   -3.3800   15.3730   -1.1170 C   0  0  0  0  0  0  0  0  0  0  0  0
   -1.3770   14.5670    1.7190 N   0  0  0  0  0  0  0  0  0  0  0  0
   -3.4290   15.5580    1.1740 N   0  0  0  0  0  0  0  0  0  0  0  0
   -4.0550   15.7830   -0.0330 C   0  0  0  0  0  0  0  0  0  0  0  0
  1  2  1  0
  2  3  1  0
  1  4  1  0
  2  5  2  0
  4  6  2  0
  4  7  1  0
  6  8  1  0
  7  9  2  0
  3 10  1  0
  8 11  2  0
  9 11  1  0
 10 12  2  0
 10 13  1  0
 11 14  1  0
 13 15  1  0
 12 16  1  0
 15 16  2  0
 14 17  1  0
 18 17  1  1
 18 19  1  0
 18 20  1  0
 19 21  1  0
 20 22  1  0
 22 21  1  6
 20 23  1  1
 22 24  1  0
 23 25  1  0
 23 26  1  0
 24 27  1  0
 25 27  1  0
 26 28  1  0
 26 29  2  0
 28 30  1  0
 29 31  1  0
 29 32  1  0
 30 33  2  0
 31 33  1  0
 31 34  2  0
 32 35  2  0
 34 35  1  0
M  END
