diamond-x0900_0_A-mac-x0305
     RDKit          3D

 14 15  0  0  0  0  0  0  0  0999 V2000
   -6.5870   13.6440   -0.8940 O   0  0  0  0  0  0  0  0  0  0  0  0
   -5.6270   14.1040   -0.3110 C   0  0  0  0  0  0  0  0  0  0  0  0
   -4.3630   13.6140   -0.2280 N   0  0  0  0  0  0  0  0  0  0  0  0
   -5.5930   15.3560    0.4530 C   0  0  0  0  0  0  0  0  0  0  0  0
   -4.1310   15.6170    0.7820 C   0  0  0  0  0  0  0  0  0  0  0  0
   -3.4820   14.7190   -0.2230 C   0  0  1  0  0  0  0  0  0  0  0  0
   -2.0700   14.3130   -0.0290 C   0  0  0  0  0  0  0  0  0  0  0  0
   -3.3770   15.1590   -1.6570 C   0  0  0  0  0  0  0  0  0  0  0  0
   -1.5540   13.9000    1.1780 O   0  0  0  0  0  0  0  0  0  0  0  0
   -1.4370   14.4070   -1.2000 C   0  0  0  0  0  0  0  0  0  0  0  0
   -2.2370   14.9220   -2.2130 N   0  0  0  0  0  0  0  0  0  0  0  0
   -0.0200   14.0370   -1.4380 C   0  0  0  0  0  0  0  0  0  0  0  0
    0.5140   13.2420   -0.4690 O   0  0  0  0  0  0  0  0  0  0  0  0
    0.6060   14.3940   -2.4260 O   0  0  0  0  0  0  0  0  0  0  0  0
  1  2  2  0
  2  3  1  0
  2  4  1  0
  4  5  1  0
  3  6  1  0
  6  5  1  1
  6  7  1  0
  6  8  1  0
  7  9  1  0
  7 10  2  0
  8 11  2  0
 10 11  1  0
 10 12  1  0
 12 13  1  0
 12 14  2  0
M  END
