diamond-x0933_0_A-mac-x0381
     RDKit          3D

 22 24  0  0  0  0  0  0  0  0999 V2000
   -6.6140   14.1380    1.2740 N   0  0  0  0  0  0  0  0  0  0  0  0
   -5.3040   14.1990    0.7340 C   0  0  2  0  0  0  0  0  0  0  0  0
   -4.6440   15.1870    1.5240 N   0  0  0  0  0  0  0  0  0  0  0  0
   -5.4880   14.6740   -0.5990 N   0  0  0  0  0  0  0  0  0  0  0  0
   -4.8590   14.8970    2.9720 C   0  0  0  0  0  0  0  0  0  0  0  0
   -4.2260   15.1120   -1.1750 C   0  0  0  0  0  0  0  0  0  0  0  0
   -3.2470   15.3610    1.1010 C   0  0  0  0  0  0  0  0  0  0  0  0
   -6.3040   15.2550    3.4390 C   0  0  0  0  0  0  0  0  0  0  0  0
   -3.0330   14.7660   -0.2870 C   0  0  0  0  0  0  0  0  0  0  0  0
   -6.9660   14.1930    4.1260 N   0  0  0  0  0  0  0  0  0  0  0  0
   -8.2450   13.9790    4.1940 C   0  0  0  0  0  0  0  0  0  0  0  0
   -8.6770   12.8840    4.8840 N   0  0  0  0  0  0  0  0  0  0  0  0
   -9.3950   14.8010    3.5820 C   0  0  0  0  0  0  0  0  0  0  0  0
   -9.3650   15.5750    2.3880 C   0  0  0  0  0  0  0  0  0  0  0  0
  -10.6020   14.7470    4.2940 C   0  0  0  0  0  0  0  0  0  0  0  0
  -10.5380   16.2600    1.9320 C   0  0  0  0  0  0  0  0  0  0  0  0
  -11.7450   15.4100    3.8580 C   0  0  0  0  0  0  0  0  0  0  0  0
  -11.7360   16.1640    2.6830 C   0  0  0  0  0  0  0  0  0  0  0  0
  -10.5610   17.0340    0.7530 C   0  0  0  0  0  0  0  0  0  0  0  0
  -12.9030   16.8170    2.2490 C   0  0  0  0  0  0  0  0  0  0  0  0
  -11.7350   17.6840    0.3330 C   0  0  0  0  0  0  0  0  0  0  0  0
  -12.9030   17.5710    1.0810 C   0  0  0  0  0  0  0  0  0  0  0  0
  2  1  1  1
  2  3  1  0
  2  4  1  0
  3  5  1  0
  4  6  1  0
  3  7  1  0
  5  8  1  0
  6  9  1  0
  7  9  1  0
  8 10  1  0
 10 11  2  3
 11 12  1  0
 11 13  1  0
 13 14  2  0
 13 15  1  0
 14 16  1  0
 15 17  2  0
 16 18  2  0
 17 18  1  0
 16 19  1  0
 18 20  1  0
 19 21  2  0
 20 22  2  0
 21 22  1  0
M  END
