diamond-x0855_0_A-mac-x0178
     RDKit          3D

 20 21  0  0  0  0  0  0  0  0999 V2000
    0.7710   13.0890   -4.9470 O   0  0  0  0  0  0  0  0  0  0  0  0
    0.7710   12.2970   -3.8870 C   0  0  0  0  0  0  0  0  0  0  0  0
    1.1010   10.9250   -4.2120 C   0  0  0  0  0  0  0  0  0  0  0  0
    0.4550   12.9140   -2.8570 N   0  0  0  0  0  0  0  0  0  0  0  0
   -0.0650   10.5800   -4.9920 N   0  0  0  0  0  0  0  0  0  0  0  0
    0.0940   14.1260   -3.4300 C   0  0  0  0  0  0  0  0  0  0  0  0
   -0.2600    9.5210   -5.8040 C   0  0  0  0  0  0  0  0  0  0  0  0
   -1.1360   11.4160   -4.9260 N   0  0  0  0  0  0  0  0  0  0  0  0
    0.7500   15.3400   -3.2960 C   0  0  0  0  0  0  0  0  0  0  0  0
   -1.0530   14.0510   -4.2350 C   0  0  0  0  0  0  0  0  0  0  0  0
   -1.5300    9.6740   -6.2850 C   0  0  0  0  0  0  0  0  0  0  0  0
   -2.0370   10.8460   -5.7260 C   0  0  0  0  0  0  0  0  0  0  0  0
    0.2450   16.4680   -3.9740 C   0  0  0  0  0  0  0  0  0  0  0  0
   -1.5610   15.1380   -4.8950 C   0  0  0  0  0  0  0  0  0  0  0  0
   -2.4310    8.5510   -7.4600 Br  0  0  0  0  0  0  0  0  0  0  0  0
   -0.9180   16.3480   -4.7700 C   0  0  0  0  0  0  0  0  0  0  0  0
   -1.6070   17.7190   -5.6480 S   0  0  0  0  0  0  0  0  0  0  0  0
   -0.2630   18.3810   -6.3910 N   0  0  0  0  0  0  0  0  0  0  0  0
   -2.4580   17.2310   -6.7110 O   0  0  0  0  0  0  0  0  0  0  0  0
   -2.0760   18.7000   -4.7120 O   0  0  0  0  0  0  0  0  0  0  0  0
  1  2  1  0
  2  3  1  0
  2  4  2  3
  3  5  1  0
  4  6  1  0
  5  7  1  0
  5  8  1  0
  6  9  2  0
  6 10  1  0
  7 11  2  0
  8 12  2  0
 11 12  1  0
  9 13  1  0
 10 14  2  0
 11 15  1  0
 13 16  2  0
 14 16  1  0
 16 17  1  0
 17 18  1  0
 17 19  2  0
 17 20  2  0
M  END
