diamond-x0711_0_A-mac-x0180
     RDKit          3D

 15 15  0  0  0  0  0  0  0  0999 V2000
   -1.6430   15.0470   -2.5880 N   0  0  0  0  0  0  0  0  0  0  0  0
   -0.6080   13.8340   -3.1150 S   0  0  0  0  0  0  0  0  0  0  0  0
   -1.6800   12.7260   -4.0110 C   0  0  0  0  0  0  0  0  0  0  0  0
   -2.8200   14.8630   -1.8040 C   0  0  0  0  0  0  0  0  0  0  0  0
    0.3290   14.4120   -4.0470 O   0  0  0  0  0  0  0  0  0  0  0  0
   -0.1380   13.1610   -1.9220 O   0  0  0  0  0  0  0  0  0  0  0  0
   -4.0580   15.0910   -2.4020 C   0  0  0  0  0  0  0  0  0  0  0  0
   -2.7720   14.4750   -0.4620 C   0  0  0  0  0  0  0  0  0  0  0  0
   -5.2410   14.9360   -1.6720 C   0  0  0  0  0  0  0  0  0  0  0  0
   -3.9580   14.3180    0.2710 C   0  0  0  0  0  0  0  0  0  0  0  0
   -5.2190   14.5450   -0.3160 C   0  0  0  0  0  0  0  0  0  0  0  0
   -6.5190   14.3800    0.4870 C   0  0  1  0  0  0  0  0  0  0  0  0
   -6.3880   14.8890    1.8310 N   0  0  0  0  0  0  0  0  0  0  0  0
   -7.5610   15.1130   -0.1070 O   0  0  0  0  0  0  0  0  0  0  0  0
   -7.0490   12.9640    0.5850 C   0  0  0  0  0  0  0  0  0  0  0  0
  2  1  1  0
  2  3  1  0
  1  4  1  0
  2  5  2  0
  2  6  2  0
  4  7  2  0
  4  8  1  0
  7  9  1  0
  8 10  2  0
  9 11  2  0
 10 11  1  0
 11 12  1  0
 12 13  1  0
 12 14  1  0
 12 15  1  1
M  END
