diamond-x0591_0_A-mac-x0161
     RDKit          3D

 29 32  0  0  0  0  0  0  0  0999 V2000
   -5.3650   14.3840    0.0560 N   0  0  0  0  0  0  0  0  0  0  0  0
   -6.3390   14.2040    1.1510 C   0  0  0  0  0  0  0  0  0  0  0  0
   -5.9430   14.7020   -1.1910 C   0  0  0  0  0  0  0  0  0  0  0  0
   -4.1390   14.9800    0.4940 C   0  0  0  0  0  0  0  0  0  0  0  0
   -6.8340   15.5530   -1.1980 O   0  0  0  0  0  0  0  0  0  0  0  0
   -5.5960   13.9710   -2.5530 C   0  0  1  0  0  0  0  0  0  0  0  0
   -3.9280   15.9540   -0.5180 N   0  0  0  0  0  0  0  0  0  0  0  0
   -6.5180   14.4650   -3.6300 C   0  0  0  0  0  0  0  0  0  0  0  0
   -4.2870   13.6840   -3.4260 C   0  0  2  0  0  0  0  0  0  0  0  0
   -3.5450   15.3880   -1.8070 C   0  0  0  0  0  0  0  0  0  0  0  0
   -2.9620   14.6570   -4.2500 S   0  0  0  0  0  0  0  0  0  0  0  0
   -4.9920   13.0670   -4.6570 C   0  0  0  0  0  0  0  0  0  0  0  0
   -2.2720   14.5130   -1.8030 C   0  0  1  0  0  0  0  0  0  0  0  0
   -6.1770   13.9560   -4.8130 C   0  0  0  0  0  0  0  0  0  0  0  0
   -1.6600   14.6370   -3.1610 N   0  0  0  0  0  0  0  0  0  0  0  0
   -2.5430   13.8220   -5.3620 O   0  0  0  0  0  0  0  0  0  0  0  0
   -3.3680   15.9950   -4.5900 O   0  0  0  0  0  0  0  0  0  0  0  0
   -1.4830   14.6810   -0.5310 C   0  0  0  0  0  0  0  0  0  0  0  0
   -1.9410   14.3960    0.7420 C   0  0  0  0  0  0  0  0  0  0  0  0
   -0.1950   15.1490   -0.4610 N   0  0  0  0  0  0  0  0  0  0  0  0
   -0.9560   13.3570   -3.4730 C   0  0  0  0  0  0  0  0  0  0  0  0
   -0.9340   14.6970    1.5870 N   0  0  0  0  0  0  0  0  0  0  0  0
    0.0960   15.1520    0.8170 C   0  0  0  0  0  0  0  0  0  0  0  0
   -1.3810   12.4090   -4.3660 C   0  0  0  0  0  0  0  0  0  0  0  0
    0.2100   12.9170   -2.9060 O   0  0  0  0  0  0  0  0  0  0  0  0
    0.5470   11.6780   -3.4270 N   0  0  0  0  0  0  0  0  0  0  0  0
   -0.4230   11.4030   -4.2960 C   0  0  0  0  0  0  0  0  0  0  0  0
   -0.4570   10.2640   -5.0160 O   0  0  0  0  0  0  0  0  0  0  0  0
   -1.5770   10.1700   -5.8880 C   0  0  0  0  0  0  0  0  0  0  0  0
  1  2  1  0
  1  3  1  0
  1  4  1  0
  3  5  2  0
  3  6  1  0
  4  7  1  0
  6  8  1  6
  6  9  1  0
  7 10  1  0
  9 11  1  0
  9 12  1  6
 10 13  1  0
  8 14  2  0
 12 14  1  0
 11 15  1  0
 13 15  1  0
 11 16  2  0
 11 17  2  0
 13 18  1  1
 18 19  2  0
 18 20  1  0
 15 21  1  0
 19 22  1  0
 20 23  2  0
 22 23  1  0
 21 24  2  0
 21 25  1  0
 25 26  1  0
 24 27  1  0
 26 27  2  0
 27 28  1  0
 28 29  1  0
M  END
