diamond-x0844_0_A-diamond-x0967_0_A
     RDKit          3D

 12 13  0  0  0  0  0  0  0  0999 V2000
   -7.7830   12.8800    0.9520 O   0  0  0  0  0  0  0  0  0  0  0  0
   -6.8160   13.4440    1.8120 C   0  0  0  0  0  0  0  0  0  0  0  0
   -6.6810   14.7300    1.2850 N   0  0  0  0  0  0  0  0  0  0  0  0
   -5.4600   14.9300    0.6920 C   0  0  0  0  0  0  0  0  0  0  0  0
   -7.7760   14.9630    0.4900 C   0  0  0  0  0  0  0  0  0  0  0  0
   -4.2000   15.0830    1.0850 C   0  0  0  0  0  0  0  0  0  0  0  0
   -5.4390   14.9970   -0.8000 C   0  0  0  0  0  0  0  0  0  0  0  0
   -7.6930   15.0930   -0.8300 C   0  0  0  0  0  0  0  0  0  0  0  0
   -3.3350   15.1370   -0.0470 C   0  0  0  0  0  0  0  0  0  0  0  0
   -4.0120   15.0360   -1.1930 C   0  0  0  0  0  0  0  0  0  0  0  0
   -6.5030   15.0420   -1.5360 N   0  0  0  0  0  0  0  0  0  0  0  0
   -3.3690   14.9850   -2.8990 Br  0  0  0  0  0  0  0  0  0  0  0  0
  1  2  1  0
  2  3  1  0
  3  4  1  0
  3  5  1  0
  4  6  2  0
  4  7  1  0
  5  8  2  0
  6  9  1  0
  7 10  1  0
  9 10  2  0
  7 11  2  0
  8 11  1  0
 10 12  1  0
M  END
