diamond-x0334_0_A-diamond-x0228_1_A
     RDKit          3D

 28 30  0  0  0  0  0  0  0  0999 V2000
    4.0110   25.4040   16.7470 N   0  0  0  0  0  0  0  0  0  0  0  0
    5.1790   25.7580   16.0050 C   0  0  0  0  0  0  0  0  0  0  0  0
    6.1200   24.7520   15.4600 C   0  0  0  0  0  0  0  0  0  0  0  0
    2.8710   26.3960   16.6260 C   0  0  1  0  0  0  0  0  0  0  0  0
    5.0470   25.4960   17.7230 N   0  0  0  0  0  0  0  0  0  0  0  0
    5.3690   27.1870   15.5610 C   0  0  0  0  0  0  0  0  0  0  0  0
    2.5090   27.3050   17.6530 N   0  0  0  0  0  0  0  0  0  0  0  0
    3.3500   27.2980   15.6900 O   0  0  0  0  0  0  0  0  0  0  0  0
    1.5330   25.7720   16.0070 C   0  0  1  0  0  0  0  0  0  0  0  0
    6.3600   25.5740   17.2870 C   0  0  0  0  0  0  0  0  0  0  0  0
    5.1620   25.5290   19.0490 C   0  0  0  0  0  0  0  0  0  0  0  0
    0.1090   25.4940   16.7340 C   0  0  1  0  0  0  0  0  0  0  0  0
    1.0470   26.0470   14.6260 C   0  0  0  0  0  0  0  0  0  0  0  0
    2.8270   28.6150   17.4330 C   0  0  0  0  0  0  0  0  0  0  0  0
    7.1990   25.6420   18.2670 N   0  0  0  0  0  0  0  0  0  0  0  0
    6.4390   25.6120   19.3850 N   0  0  0  0  0  0  0  0  0  0  0  0
   -1.0640   26.4010   16.8060 N   0  0  0  0  0  0  0  0  0  0  0  0
   -0.3710   24.5240   15.7170 C   0  0  0  0  0  0  0  0  0  0  0  0
    2.2880   29.6700   16.8410 C   0  0  0  0  0  0  0  0  0  0  0  0
    0.1470   24.8250   14.5310 C   0  0  0  0  0  0  0  0  0  0  0  0
   -1.9160   26.1620   17.9660 C   0  0  0  0  0  0  0  0  0  0  0  0
   -1.9320   26.2170   15.6400 C   0  0  0  0  0  0  0  0  0  0  0  0
    1.0210   29.9590   16.1050 C   0  0  2  0  0  0  0  0  0  0  0  0
   -1.1130   26.5880   14.5700 O   0  0  0  0  0  0  0  0  0  0  0  0
    0.5820   31.4100   16.2590 C   0  0  0  0  0  0  0  0  0  0  0  0
   -0.1590   28.9840   16.2040 C   0  0  0  0  0  0  0  0  0  0  0  0
   -1.4120   27.8800   14.3200 C   0  0  0  0  0  0  0  0  0  0  0  0
   -1.0270   28.9500   14.9970 C   0  0  0  0  0  0  0  0  0  0  0  0
  1  2  1  0
  2  3  1  0
  1  4  1  0
  1  5  1  0
  2  6  1  0
  4  7  1  0
  4  8  1  6
  4  9  1  0
  5 10  1  0
  5 11  1  0
  9 12  1  0
  9 13  1  6
  7 14  1  0
 10 15  2  0
 11 16  2  0
 15 16  1  0
 12 17  1  0
 12 18  1  6
 14 19  2  0
 13 20  1  0
 18 20  2  0
 17 21  1  0
 17 22  1  0
 19 23  1  0
 22 24  1  0
 23 25  1  1
 23 26  1  0
 24 27  1  0
 26 28  1  0
 27 28  2  0
M  END
