diamond-x0421_0_A-mac-x0179
     RDKit          3D

 28 31  0  0  0  0  0  0  0  0999 V2000
   -3.5370   15.1710   -2.8960 N   0  0  0  0  0  0  0  0  0  0  0  0
   -2.8070   14.9030   -1.7680 C   0  0  0  0  0  0  0  0  0  0  0  0
   -1.5440   14.6540   -1.8320 N   0  0  0  0  0  0  0  0  0  0  0  0
   -3.5550   14.9230   -0.5170 C   0  0  0  0  0  0  0  0  0  0  0  0
   -0.7700   14.6310   -3.0670 C   0  0  0  0  0  0  0  0  0  0  0  0
   -2.9840   15.1470    0.7200 C   0  0  0  0  0  0  0  0  0  0  0  0
   -4.9180   14.7180   -0.3670 N   0  0  0  0  0  0  0  0  0  0  0  0
    0.7180   14.5620   -2.6740 C   0  0  0  0  0  0  0  0  0  0  0  0
   -4.0020   15.0730    1.6050 N   0  0  0  0  0  0  0  0  0  0  0  0
   -5.1410   14.8110    0.9240 C   0  0  0  0  0  0  0  0  0  0  0  0
    1.0390   13.2210   -2.2400 O   0  0  0  0  0  0  0  0  0  0  0  0
   -6.5290   14.6430    1.5980 C   0  0  0  0  0  0  0  0  0  0  0  0
    0.8190   12.2330   -3.1450 C   0  0  0  0  0  0  0  0  0  0  0  0
   -7.7900   14.6550    0.7810 C   0  0  0  0  0  0  0  0  0  0  0  0
   -7.3090   13.3750    1.4060 C   0  0  0  0  0  0  0  0  0  0  0  0
    0.6460   11.0530   -2.8550 O   0  0  0  0  0  0  0  0  0  0  0  0
    0.8140   12.7610   -4.5750 C   0  0  0  0  0  0  0  0  0  0  0  0
    0.1120   11.9060   -5.5010 N   0  0  0  0  0  0  0  0  0  0  0  0
    0.7410   11.4060   -6.5830 C   0  0  0  0  0  0  0  0  0  0  0  0
   -1.0180   11.1920   -5.2010 C   0  0  0  0  0  0  0  0  0  0  0  0
    1.7960   11.7340   -7.0340 O   0  0  0  0  0  0  0  0  0  0  0  0
   -1.7760   11.3140   -4.2610 O   0  0  0  0  0  0  0  0  0  0  0  0
   -0.0900   10.3370   -7.1130 C   0  0  0  0  0  0  0  0  0  0  0  0
   -1.1710   10.1990   -6.2690 C   0  0  0  0  0  0  0  0  0  0  0  0
    0.0790    9.5470   -8.2340 C   0  0  0  0  0  0  0  0  0  0  0  0
   -2.1560    9.2590   -6.4920 C   0  0  0  0  0  0  0  0  0  0  0  0
   -0.9040    8.5880   -8.4840 C   0  0  0  0  0  0  0  0  0  0  0  0
   -2.0130    8.4430   -7.6210 C   0  0  0  0  0  0  0  0  0  0  0  0
  1  2  1  0
  2  3  2  3
  2  4  1  0
  3  5  1  0
  4  6  2  0
  4  7  1  0
  5  8  1  0
  6  9  1  0
  7 10  2  0
  9 10  1  0
  8 11  1  0
 10 12  1  0
 11 13  1  0
 12 14  1  0
 12 15  1  0
 14 15  1  0
 13 16  2  0
 13 17  1  0
 17 18  1  0
 18 19  1  0
 18 20  1  0
 19 21  2  0
 20 22  2  0
 19 23  1  0
 20 24  1  0
 23 24  2  0
 23 25  1  0
 24 26  1  0
 25 27  2  0
 26 28  2  0
 27 28  1  0
M  END
