diamond-x0628_0_A-diamond-x0766_0_A
     RDKit          3D

 22 24  0  0  0  0  0  0  0  0999 V2000
   -1.1990    8.8570   -7.5520 C   0  0  0  0  0  0  0  0  0  0  0  0
   -1.1490   10.0410   -6.6830 C   0  0  0  0  0  0  0  0  0  0  0  0
   -2.1570   10.3760   -5.8110 N   0  0  0  0  0  0  0  0  0  0  0  0
   -0.1090   10.8640   -6.6860 N   0  0  0  0  0  0  0  0  0  0  0  0
   -0.4820   11.7550   -5.7630 N   0  0  0  0  0  0  0  0  0  0  0  0
   -1.7090   11.4690   -5.2350 C   0  0  0  0  0  0  0  0  0  0  0  0
   -2.3720   12.2810   -4.1880 C   0  0  0  0  0  0  0  0  0  0  0  0
    0.3980   12.8240   -5.4400 C   0  0  0  0  0  0  0  0  0  0  0  0
    1.2680   12.1980   -4.3780 C   0  0  0  0  0  0  0  0  0  0  0  0
    1.0060   12.7100   -2.9940 C   0  0  0  0  0  0  0  0  0  0  0  0
   -0.1550   12.0620   -2.4920 O   0  0  0  0  0  0  0  0  0  0  0  0
    2.0500   12.3430   -2.1590 O   0  0  0  0  0  0  0  0  0  0  0  0
    1.0360   14.2070   -2.9610 C   0  0  1  0  0  0  0  0  0  0  0  0
    1.9750   14.7610   -4.0210 C   0  0  0  0  0  0  0  0  0  0  0  0
   -0.1620   15.1420   -3.0030 C   0  0  1  0  0  0  0  0  0  0  0  0
    1.0760   15.3780   -5.0730 C   0  0  0  0  0  0  0  0  0  0  0  0
   -0.3370   15.4220   -4.4870 C   0  0  0  0  0  0  0  0  0  0  0  0
   -1.4070   14.8540   -2.2030 C   0  0  0  0  0  0  0  0  0  0  0  0
   -2.6970   14.8310   -2.7120 C   0  0  0  0  0  0  0  0  0  0  0  0
   -1.4180   14.5860   -0.7950 C   0  0  0  0  0  0  0  0  0  0  0  0
   -2.6820   14.3840   -0.3000 C   0  0  0  0  0  0  0  0  0  0  0  0
   -3.8720   14.5090   -1.5140 S   0  0  0  0  0  0  0  0  0  0  0  0
  1  2  1  0
  2  3  1  0
  2  4  2  0
  4  5  1  0
  3  6  2  0
  5  6  1  0
  6  7  1  0
  5  8  1  0
  8  9  1  0
  9 10  1  0
 10 11  1  0
 10 12  1  0
 13 10  1  6
 13 14  1  0
 13 15  1  0
 14 16  1  0
 15 17  1  0
 16 17  1  0
 15 18  1  6
 18 19  2  0
 18 20  1  0
 20 21  2  0
 19 22  1  0
 21 22  1  0
M  END
