diamond-x0592_0_A-mac-x0411
     RDKit          3D

 26 27  0  0  0  0  0  0  0  0999 V2000
   -2.6900   15.0560    0.6420 N   0  0  0  0  0  0  0  0  0  0  0  0
   -3.3370   14.5410   -0.4520 C   0  0  0  0  0  0  0  0  0  0  0  0
   -2.6910   13.9830   -1.4210 N   0  0  0  0  0  0  0  0  0  0  0  0
   -4.7740   14.6820   -0.3740 C   0  0  0  0  0  0  0  0  0  0  0  0
   -3.3470   13.3660   -2.5960 C   0  0  0  0  0  0  0  0  0  0  0  0
   -5.6250   15.1800   -1.3920 C   0  0  0  0  0  0  0  0  0  0  0  0
   -5.6430   14.3760    0.6500 C   0  0  0  0  0  0  0  0  0  0  0  0
   -2.6750   13.4740   -3.9850 C   0  0  0  0  0  0  0  0  0  0  0  0
   -6.9140   15.1830   -1.0440 N   0  0  0  0  0  0  0  0  0  0  0  0
   -6.8980   14.6890    0.2070 N   0  0  0  0  0  0  0  0  0  0  0  0
   -8.1350   14.5340    0.9420 C   0  0  0  0  0  0  0  0  0  0  0  0
   -1.4320   12.5810   -4.2040 C   0  0  0  0  0  0  0  0  0  0  0  0
   -7.8890   14.0800    2.3720 C   0  0  0  0  0  0  0  0  0  0  0  0
   -1.5540   11.3480   -5.1280 C   0  0  0  0  0  0  0  0  0  0  0  0
   -7.0990   15.0300    3.0750 O   0  0  0  0  0  0  0  0  0  0  0  0
   -0.5110   10.8760   -5.9950 C   0  0  0  0  0  0  0  0  0  0  0  0
   -2.7610   10.6160   -5.1270 C   0  0  0  0  0  0  0  0  0  0  0  0
    0.7110   11.5090   -6.0850 O   0  0  0  0  0  0  0  0  0  0  0  0
   -2.9430    9.4810   -5.9290 C   0  0  0  0  0  0  0  0  0  0  0  0
   -0.7140    9.7260   -6.7970 C   0  0  0  0  0  0  0  0  0  0  0  0
    0.5020    9.1070   -7.8630 Cl  0  0  0  0  0  0  0  0  0  0  0  0
    1.0100   12.5120   -5.1070 C   0  0  0  0  0  0  0  0  0  0  0  0
   -1.9220    9.0380   -6.7590 C   0  0  0  0  0  0  0  0  0  0  0  0
    0.9510   11.9430   -3.6980 C   0  0  0  0  0  0  0  0  0  0  0  0
    1.4590   12.7660   -2.7570 O   0  0  0  0  0  0  0  0  0  0  0  0
    0.4990   10.8450   -3.3940 O   0  0  0  0  0  0  0  0  0  0  0  0
  1  2  1  0
  2  3  2  3
  2  4  1  0
  3  5  1  0
  4  6  1  0
  4  7  2  0
  5  8  1  0
  6  9  2  0
  7 10  1  0
  9 10  1  0
 10 11  1  0
  8 12  1  0
 11 13  1  0
 12 14  1  0
 13 15  1  0
 14 16  2  0
 14 17  1  0
 16 18  1  0
 17 19  2  0
 16 20  1  0
 20 21  1  0
 18 22  1  0
 19 23  1  0
 20 23  2  0
 22 24  1  0
 24 25  1  0
 24 26  2  0
M  END
