diamond-x0465_0_A-diamond-x0371_0_A
     RDKit          3D

 34 37  0  0  0  0  0  0  0  0999 V2000
    2.0320   13.0480   -4.3420 C   0  0  0  0  0  0  0  0  0  0  0  0
    0.6690   12.3470   -4.2380 C   0  0  1  0  0  0  0  0  0  0  0  0
    0.6220   11.4740   -5.3830 O   0  0  0  0  0  0  0  0  0  0  0  0
    0.5370   11.6480   -2.8510 C   0  0  0  0  0  0  0  0  0  0  0  0
    0.4710   12.0940   -1.6500 N   0  0  0  0  0  0  0  0  0  0  0  0
    0.4550   10.3020   -2.8420 O   0  0  0  0  0  0  0  0  0  0  0  0
   -0.5400   10.7880   -5.6180 C   0  0  0  0  0  0  0  0  0  0  0  0
    0.5030   13.4670   -1.2510 C   0  0  0  0  0  0  0  0  0  0  0  0
   -0.6580    9.7650   -6.5670 C   0  0  0  0  0  0  0  0  0  0  0  0
   -1.6560   11.1420   -4.8570 C   0  0  0  0  0  0  0  0  0  0  0  0
    0.3810    9.3910   -7.3250 F   0  0  0  0  0  0  0  0  0  0  0  0
   -0.5160   13.6470   -0.1370 C   0  0  0  0  0  0  0  0  0  0  0  0
   -1.8660    9.1020   -6.7530 C   0  0  0  0  0  0  0  0  0  0  0  0
   -2.8720   10.4770   -5.0440 C   0  0  0  0  0  0  0  0  0  0  0  0
   -1.2090   14.9720   -0.2400 C   0  0  0  0  0  0  0  0  0  0  0  0
   -2.9760    9.4560   -5.9910 C   0  0  0  0  0  0  0  0  0  0  0  0
   -2.7270   14.9570   -0.3970 C   0  0  0  0  0  0  0  0  0  0  0  0
   -3.5110   14.7100    0.7270 C   0  0  0  0  0  0  0  0  0  0  0  0
   -3.3500   15.1930   -1.6500 C   0  0  0  0  0  0  0  0  0  0  0  0
   -4.8850   14.6970    0.5530 C   0  0  0  0  0  0  0  0  0  0  0  0
   -4.7500   15.1780   -1.7890 C   0  0  0  0  0  0  0  0  0  0  0  0
   -5.8850   14.4780    1.4410 N   0  0  0  0  0  0  0  0  0  0  0  0
   -5.5270   14.9190   -0.6560 C   0  0  0  0  0  0  0  0  0  0  0  0
   -7.0850   14.5600    0.7790 C   0  0  0  0  0  0  0  0  0  0  0  0
   -6.8960   14.8330   -0.5020 N   0  0  0  0  0  0  0  0  0  0  0  0
   -8.3790   14.3520    1.4840 C   0  0  0  0  0  0  0  0  0  0  0  0
   -8.1680   14.5370    2.9010 N   0  0  0  0  0  0  0  0  0  0  0  0
   -8.8350   15.5400    3.5770 C   0  0  0  0  0  0  0  0  0  0  0  0
   -9.5150   16.3630    2.9670 O   0  0  0  0  0  0  0  0  0  0  0  0
   -8.6790   15.5350    5.0130 C   0  0  0  0  0  0  0  0  0  0  0  0
   -8.0640   14.4520    5.5810 O   0  0  0  0  0  0  0  0  0  0  0  0
   -9.0330   16.4240    6.0070 C   0  0  0  0  0  0  0  0  0  0  0  0
   -8.6100   15.8550    7.2350 C   0  0  0  0  0  0  0  0  0  0  0  0
   -8.0240   14.6550    6.9180 C   0  0  0  0  0  0  0  0  0  0  0  0
  2  1  1  1
  2  3  1  0
  2  4  1  0
  4  5  2  3
  4  6  1  0
  3  7  1  0
  5  8  1  0
  7  9  2  0
  7 10  1  0
  9 11  1  0
  8 12  1  0
  9 13  1  0
 10 14  2  0
 12 15  1  0
 13 16  2  0
 14 16  1  0
 15 17  1  0
 17 18  2  0
 17 19  1  0
 18 20  1  0
 19 21  2  0
 20 22  1  0
 20 23  2  0
 21 23  1  0
 22 24  1  0
 23 25  1  0
 24 25  2  0
 24 26  1  0
 26 27  1  0
 27 28  1  0
 28 29  2  0
 28 30  1  0
 30 31  1  0
 30 32  2  0
 32 33  1  0
 31 34  1  0
 33 34  2  0
M  END
