diamond-x0895_0_A-mac-x0565
     RDKit          3D

 18 20  0  0  0  0  0  0  0  0999 V2000
   -1.1890   14.3740    2.1770 O   0  0  0  0  0  0  0  0  0  0  0  0
   -2.1630   14.5880    1.5210 C   0  0  0  0  0  0  0  0  0  0  0  0
   -3.6190   14.8040    1.9800 C   0  0  0  0  0  0  0  0  0  0  0  0
   -2.1970   14.7090    0.1730 N   0  0  0  0  0  0  0  0  0  0  0  0
   -4.0780   15.6130    0.8720 N   0  0  0  0  0  0  0  0  0  0  0  0
   -3.4290   15.0800   -0.1870 C   0  0  0  0  0  0  0  0  0  0  0  0
   -3.8220   14.8910   -1.3810 C   0  0  0  0  0  0  0  0  0  0  0  0
   -5.2190   15.3020   -1.7830 C   0  0  2  0  0  0  0  0  0  0  0  0
   -2.9050   14.2430   -2.3950 C   0  0  1  0  0  0  0  0  0  0  0  0
   -6.2750   14.8610   -0.7400 C   0  0  0  0  0  0  0  0  0  0  0  0
   -3.2090   14.4850   -3.8620 C   0  0  1  0  0  0  0  0  0  0  0  0
   -5.5800   14.9130   -3.1990 C   0  0  0  0  0  0  0  0  0  0  0  0
   -1.4930   14.5470   -2.2900 O   0  0  0  0  0  0  0  0  0  0  0  0
   -5.8470   14.8490    0.5410 O   0  0  0  0  0  0  0  0  0  0  0  0
   -7.4350   14.5450   -0.9720 O   0  0  0  0  0  0  0  0  0  0  0  0
   -4.6820   14.5550   -4.1440 C   0  0  0  0  0  0  0  0  0  0  0  0
   -2.3970   15.6050   -4.1530 O   0  0  0  0  0  0  0  0  0  0  0  0
   -1.1750   15.1270   -3.5720 C   0  0  0  0  0  0  0  0  0  0  0  0
  1  2  2  0
  2  3  1  0
  2  4  1  0
  3  5  1  0
  4  6  1  0
  5  6  1  0
  6  7  2  3
  7  8  1  0
  7  9  1  0
  8 10  1  1
  9 11  1  0
  8 12  1  0
  9 13  1  1
 10 14  1  0
 10 15  2  0
 11 16  1  1
 12 16  2  0
 11 17  1  0
 13 18  1  0
 17 18  1  0
M  END
