diamond-x0950_0_A-mac-x0255
     RDKit          3D

 15 16  0  0  0  0  0  0  0  0999 V2000
    2.8270   12.9410   -4.0970 C   0  0  0  0  0  0  0  0  0  0  0  0
    1.3220   12.7770   -4.2900 C   0  0  1  0  0  0  0  0  0  0  0  0
    1.1220   11.9730   -5.4560 O   0  0  0  0  0  0  0  0  0  0  0  0
    0.7410   12.1310   -3.0170 C   0  0  0  0  0  0  0  0  0  0  0  0
    0.6260   14.0890   -4.5780 C   0  0  0  0  0  0  0  0  0  0  0  0
    0.1310   11.0760   -2.9200 O   0  0  0  0  0  0  0  0  0  0  0  0
    0.9680   12.8910   -1.9190 O   0  0  0  0  0  0  0  0  0  0  0  0
    1.1880   15.3380   -4.7320 C   0  0  0  0  0  0  0  0  0  0  0  0
   -1.0790   14.1700   -4.7720 S   0  0  0  0  0  0  0  0  0  0  0  0
    0.2400   16.3680   -5.0280 C   0  0  0  0  0  0  0  0  0  0  0  0
   -1.0590   15.8590   -5.0810 C   0  0  0  0  0  0  0  0  0  0  0  0
    0.4360   17.7430   -5.2660 C   0  0  0  0  0  0  0  0  0  0  0  0
   -2.1610   16.6880   -5.3650 C   0  0  0  0  0  0  0  0  0  0  0  0
   -0.6530   18.5550   -5.5530 C   0  0  0  0  0  0  0  0  0  0  0  0
   -1.9270   18.0410   -5.6020 C   0  0  0  0  0  0  0  0  0  0  0  0
  2  1  1  1
  2  3  1  0
  2  4  1  0
  2  5  1  0
  4  6  2  0
  4  7  1  0
  5  8  2  0
  5  9  1  0
  8 10  1  0
  9 11  1  0
 10 11  2  0
 10 12  1  0
 11 13  1  0
 12 14  2  0
 13 15  2  0
 14 15  1  0
M  END
