diamond-x0910_0_A-diamond-x1012_0_A
     RDKit          3D

 19 20  0  0  0  0  0  0  0  0999 V2000
   -2.1820   14.4300   -1.7690 N   0  0  0  0  0  0  0  0  0  0  0  0
   -1.7380   14.5630   -0.5100 C   0  0  0  0  0  0  0  0  0  0  0  0
   -2.4180   14.9860    0.5190 N   0  0  0  0  0  0  0  0  0  0  0  0
   -0.4650   14.2660   -0.0990 N   0  0  0  0  0  0  0  0  0  0  0  0
    0.6510   13.7650   -0.8430 C   0  0  0  0  0  0  0  0  0  0  0  0
   -1.5860   14.9640    1.6010 N   0  0  0  0  0  0  0  0  0  0  0  0
   -0.4250   14.5330    1.2170 C   0  0  0  0  0  0  0  0  0  0  0  0
    0.4930   13.9490   -2.2280 N   0  0  0  0  0  0  0  0  0  0  0  0
    0.3400   12.9730   -3.0080 C   0  0  0  0  0  0  0  0  0  0  0  0
    0.3340   11.7050   -2.5400 O   0  0  0  0  0  0  0  0  0  0  0  0
    0.1490   13.1430   -4.4670 C   0  0  0  0  0  0  0  0  0  0  0  0
   -1.3280   13.4350   -4.7780 C   0  0  0  0  0  0  0  0  0  0  0  0
    1.0990   14.2550   -4.9090 C   0  0  0  0  0  0  0  0  0  0  0  0
   -1.7760   14.8970   -4.6260 C   0  0  0  0  0  0  0  0  0  0  0  0
    0.6290   15.6460   -4.5210 C   0  0  0  0  0  0  0  0  0  0  0  0
   -0.7600   15.9300   -4.8810 N   0  0  0  0  0  0  0  0  0  0  0  0
   -1.2410   17.2180   -4.8200 C   0  0  0  0  0  0  0  0  0  0  0  0
   -0.3200   18.2060   -4.7620 N   0  0  0  0  0  0  0  0  0  0  0  0
   -2.4230   17.5160   -4.8020 O   0  0  0  0  0  0  0  0  0  0  0  0
  1  2  1  0
  2  3  2  0
  2  4  1  0
  4  5  1  0
  3  6  1  0
  4  7  1  0
  6  7  2  0
  5  8  1  0
  8  9  2  3
  9 10  1  0
  9 11  1  0
 11 12  1  0
 11 13  1  0
 12 14  1  0
 13 15  1  0
 14 16  1  0
 15 16  1  0
 16 17  1  0
 17 18  1  0
 17 19  2  0
M  END
