diamond-x0681_0_A-mac-x0472
     RDKit          3D

 19 21  0  0  0  0  0  0  0  0999 V2000
   -4.8130   15.1020   -2.2240 N   0  0  0  0  0  0  0  0  0  0  0  0
   -3.5880   14.2190   -1.9460 S   0  0  0  0  0  0  0  0  0  0  0  0
   -2.8930   15.3200   -3.1510 O   0  0  0  0  0  0  0  0  0  0  0  0
   -2.1490   13.8350   -2.0650 O   0  0  0  0  0  0  0  0  0  0  0  0
   -3.6580   14.4110   -0.3310 C   0  0  2  0  0  0  0  0  0  0  0  0
   -4.1300   12.7230   -2.3120 C   0  0  0  0  0  0  0  0  0  0  0  0
   -4.7390   13.4480    0.0300 C   0  0  0  0  0  0  0  0  0  0  0  0
   -3.9510   15.6410    0.4700 C   0  0  0  0  0  0  0  0  0  0  0  0
   -3.3240   11.6280   -2.5500 C   0  0  0  0  0  0  0  0  0  0  0  0
   -5.4990   12.4340   -2.3590 C   0  0  0  0  0  0  0  0  0  0  0  0
   -5.6720   13.5170    0.9980 N   0  0  0  0  0  0  0  0  0  0  0  0
   -4.4200   15.3310    1.7970 C   0  0  0  0  0  0  0  0  0  0  0  0
   -4.9970   12.2650   -0.6130 N   0  0  0  0  0  0  0  0  0  0  0  0
   -3.7930   10.3750   -2.8000 C   0  0  0  0  0  0  0  0  0  0  0  0
   -5.9930   11.1810   -2.6060 C   0  0  0  0  0  0  0  0  0  0  0  0
   -5.7350   14.6310    1.8960 C   0  0  0  0  0  0  0  0  0  0  0  0
   -6.4540   12.4260    0.9380 C   0  0  0  0  0  0  0  0  0  0  0  0
   -6.0230   11.6240   -0.0990 C   0  0  0  0  0  0  0  0  0  0  0  0
   -5.1440   10.1210   -2.8290 C   0  0  0  0  0  0  0  0  0  0  0  0
  1  2  1  0
  2  3  2  0
  2  4  1  0
  5  2  1  6
  2  6  1  0
  5  7  1  0
  5  8  1  0
  6  9  2  0
  6 10  1  0
  7 11  1  0
  8 12  1  0
  7 13  2  0
  9 14  1  0
 10 15  2  0
 11 16  1  0
 12 16  1  0
 11 17  1  0
 13 18  1  0
 17 18  2  0
 14 19  2  0
 15 19  1  0
M  END
