diamond-x0465_0_A-mac-x0179
     RDKit          3D

 17 18  0  0  0  0  0  0  0  0999 V2000
    2.2290   13.2180   -4.8440 C   0  0  0  0  0  0  0  0  0  0  0  0
    0.9460   12.4750   -4.5240 C   0  0  1  0  0  0  0  0  0  0  0  0
    0.7250   11.4350   -5.4650 O   0  0  0  0  0  0  0  0  0  0  0  0
    0.8350   12.1110   -3.0450 C   0  0  0  0  0  0  0  0  0  0  0  0
    1.0370   12.8310   -2.0880 O   0  0  0  0  0  0  0  0  0  0  0  0
    0.4710   10.8280   -2.8590 O   0  0  0  0  0  0  0  0  0  0  0  0
   -0.5200   11.0000   -5.8110 C   0  0  0  0  0  0  0  0  0  0  0  0
   -0.5900    9.8690   -6.8300 C   0  0  1  0  0  0  0  0  0  0  0  0
   -1.6760   11.4940   -5.3600 C   0  0  0  0  0  0  0  0  0  0  0  0
    0.4420    9.0040   -6.7310 F   0  0  0  0  0  0  0  0  0  0  0  0
   -1.8590    8.9770   -6.6200 C   0  0  1  0  0  0  0  0  0  0  0  0
   -2.9720   10.9830   -5.7810 C   0  0  0  0  0  0  0  0  0  0  0  0
   -0.4470   10.3440   -8.2350 C   0  0  0  0  0  0  0  0  0  0  0  0
   -3.0950    9.7920   -6.3820 C   0  0  0  0  0  0  0  0  0  0  0  0
   -0.8450    9.5470   -9.2160 C   0  0  0  0  0  0  0  0  0  0  0  0
   -1.9210    7.9430   -7.7150 C   0  0  0  0  0  0  0  0  0  0  0  0
   -1.4250    8.2470   -8.9310 C   0  0  0  0  0  0  0  0  0  0  0  0
  2  1  1  1
  2  3  1  0
  2  4  1  0
  4  5  2  0
  4  6  1  0
  3  7  1  0
  7  8  1  0
  7  9  2  0
  8 10  1  1
  8 11  1  0
  9 12  1  0
  8 13  1  0
 11 14  1  6
 12 14  2  0
 13 15  2  0
 11 16  1  0
 15 17  1  0
 16 17  2  0
M  END
