diamond-x0591_0_A-mac-x0301
     RDKit          3D

 24 26  0  0  0  0  0  0  0  0999 V2000
   -6.0750   14.2580    0.8360 N   0  0  0  0  0  0  0  0  0  0  0  0
   -6.9250   14.4840    1.9780 C   0  0  0  0  0  0  0  0  0  0  0  0
   -6.5390   14.4120   -0.4530 C   0  0  0  0  0  0  0  0  0  0  0  0
   -7.7170   14.5770   -0.7420 O   0  0  0  0  0  0  0  0  0  0  0  0
   -5.5020   14.3850   -1.5140 C   0  0  0  0  0  0  0  0  0  0  0  0
   -4.2650   13.8040   -1.2050 C   0  0  0  0  0  0  0  0  0  0  0  0
   -5.7220   14.9190   -2.7890 C   0  0  0  0  0  0  0  0  0  0  0  0
   -3.2480   13.7800   -2.1520 C   0  0  0  0  0  0  0  0  0  0  0  0
   -4.6980   14.8880   -3.7410 C   0  0  0  0  0  0  0  0  0  0  0  0
   -3.4700   14.3370   -3.4110 C   0  0  0  0  0  0  0  0  0  0  0  0
   -2.1260   14.3540   -4.5700 S   0  0  0  0  0  0  0  0  0  0  0  0
   -1.0360   15.1370   -3.4440 N   0  0  0  0  0  0  0  0  0  0  0  0
   -1.7180   12.9880   -4.8260 O   0  0  0  0  0  0  0  0  0  0  0  0
   -2.5290   15.2410   -5.6550 O   0  0  0  0  0  0  0  0  0  0  0  0
    0.2310   14.4270   -3.3810 O   0  0  0  0  0  0  0  0  0  0  0  0
   -1.6560   15.2750   -2.1100 C   0  0  0  0  0  0  0  0  0  0  0  0
   -1.1330   14.9780   -0.8250 C   0  0  0  0  0  0  0  0  0  0  0  0
   -2.9600   15.7620   -2.1150 C   0  0  0  0  0  0  0  0  0  0  0  0
   -1.8870   15.1660    0.3410 C   0  0  0  0  0  0  0  0  0  0  0  0
   -3.7030   15.9380   -0.9340 C   0  0  0  0  0  0  0  0  0  0  0  0
    0.0980   14.4890   -0.5180 O   0  0  0  0  0  0  0  0  0  0  0  0
   -3.1650   15.6400    0.3080 C   0  0  0  0  0  0  0  0  0  0  0  0
   -1.2280   14.8330    1.4880 O   0  0  0  0  0  0  0  0  0  0  0  0
    0.0560   14.5450    0.9310 C   0  0  0  0  0  0  0  0  0  0  0  0
  1  2  1  0
  1  3  1  0
  3  4  2  0
  3  5  1  0
  5  6  2  0
  5  7  1  0
  6  8  1  0
  7  9  2  0
  8 10  2  0
  9 10  1  0
 10 11  1  0
 11 12  1  0
 11 13  2  0
 11 14  2  0
 12 15  1  0
 12 16  1  0
 16 17  1  0
 16 18  2  0
 17 19  2  0
 18 20  1  0
 17 21  1  0
 19 22  1  0
 20 22  2  0
 19 23  1  0
 21 24  1  0
 23 24  1  0
M  END
