diamond-x0805_0_A-mac-x0394
     RDKit          3D

 26 28  0  0  0  0  0  0  0  0999 V2000
   -4.1680   15.5980    0.5010 C   0  0  0  0  0  0  0  0  0  0  0  0
   -2.9400   15.1970   -0.0930 O   0  0  0  0  0  0  0  0  0  0  0  0
   -2.9840   14.4450   -1.2390 C   0  0  0  0  0  0  0  0  0  0  0  0
   -4.2200   13.8840   -1.5420 C   0  0  0  0  0  0  0  0  0  0  0  0
   -1.9050   14.2100   -2.0980 C   0  0  0  0  0  0  0  0  0  0  0  0
   -4.3830   13.0980   -2.6830 C   0  0  0  0  0  0  0  0  0  0  0  0
   -2.0460   13.4130   -3.2720 C   0  0  0  0  0  0  0  0  0  0  0  0
   -3.3050   12.8670   -3.5390 C   0  0  0  0  0  0  0  0  0  0  0  0
   -0.8500   13.1740   -4.2060 C   0  0  2  0  0  0  0  0  0  0  0  0
    0.3770   12.4680   -3.5820 C   0  0  2  0  0  0  0  0  0  0  0  0
   -0.4440   14.4440   -4.9740 C   0  0  0  0  0  0  0  0  0  0  0  0
    0.8360   13.0320   -2.2510 C   0  0  0  0  0  0  0  0  0  0  0  0
    1.6230   12.5730   -4.4840 C   0  0  0  0  0  0  0  0  0  0  0  0
    0.9820   14.4400   -5.5220 C   0  0  0  0  0  0  0  0  0  0  0  0
    2.0880   12.4390   -2.0510 O   0  0  0  0  0  0  0  0  0  0  0  0
   -0.0240   12.6110   -1.2050 O   0  0  0  0  0  0  0  0  0  0  0  0
    1.0720   14.5720   -2.3540 C   0  0  0  0  0  0  0  0  0  0  0  0
    1.9460   13.9290   -4.6350 O   0  0  0  0  0  0  0  0  0  0  0  0
    0.2880   15.3770   -3.4020 C   0  0  0  0  0  0  0  0  0  0  0  0
   -1.0530   15.0990   -3.7370 C   0  0  0  0  0  0  0  0  0  0  0  0
    0.9080   16.4420   -4.0660 C   0  0  0  0  0  0  0  0  0  0  0  0
   -1.7320   15.8610   -4.7000 C   0  0  0  0  0  0  0  0  0  0  0  0
    0.2160   17.1930   -5.0200 C   0  0  0  0  0  0  0  0  0  0  0  0
    0.9900   18.4840   -5.8220 Cl  0  0  0  0  0  0  0  0  0  0  0  0
   -3.3610   15.4840   -5.0950 Cl  0  0  0  0  0  0  0  0  0  0  0  0
   -1.1030   16.9110   -5.3400 C   0  0  0  0  0  0  0  0  0  0  0  0
  1  2  1  0
  2  3  1  0
  3  4  2  0
  3  5  1  0
  4  6  1  0
  5  7  2  0
  6  8  2  0
  7  8  1  0
  9  7  1  1
  9 10  1  0
  9 11  1  0
 10 12  1  1
 10 13  1  0
 11 14  1  0
 12 15  1  0
 12 16  1  0
 12 17  1  0
 13 18  1  0
 14 18  1  0
 17 19  1  0
 19 20  2  0
 19 21  1  0
 20 22  1  0
 21 23  2  0
 23 24  1  0
 22 25  1  0
 22 26  2  0
 23 26  1  0
M  END
