diamond-x0962_0_A-mac-x0567
     RDKit          3D

 12 13  0  0  0  0  0  0  0  0999 V2000
   -2.7270   13.9760   -2.5690 N   0  0  0  0  0  0  0  0  0  0  0  0
   -3.2830   14.2390   -1.5900 C   0  0  0  0  0  0  0  0  0  0  0  0
   -3.8930   14.6520   -0.4000 C   0  0  0  0  0  0  0  0  0  0  0  0
   -3.1270   14.9960    0.7900 C   0  0  1  0  0  0  0  0  0  0  0  0
   -5.1900   14.8200   -0.1850 C   0  0  0  0  0  0  0  0  0  0  0  0
   -4.2900   15.4820    1.6120 C   0  0  0  0  0  0  0  0  0  0  0  0
   -5.4590   15.3050    1.0590 N   0  0  0  0  0  0  0  0  0  0  0  0
   -2.5710   13.9080    1.5750 N   0  0  0  0  0  0  0  0  0  0  0  0
   -1.9350   15.7290    0.3700 C   0  0  0  0  0  0  0  0  0  0  0  0
   -0.9000   15.0580    0.8760 C   0  0  0  0  0  0  0  0  0  0  0  0
   -1.3190   14.0120    1.6300 N   0  0  0  0  0  0  0  0  0  0  0  0
    0.3900   15.3990    0.6470 N   0  0  0  0  0  0  0  0  0  0  0  0
  1  2  3  0
  2  3  1  0
  3  4  1  0
  3  5  2  0
  4  6  1  1
  5  7  1  0
  6  7  2  0
  4  8  1  0
  4  9  1  0
  9 10  2  0
  8 11  2  0
 10 11  1  0
 10 12  1  0
M  END
