diamond-x0895_1_A-diamond-x0852_0_B
     RDKit          3D

 18 19  0  0  0  0  0  0  0  0999 V2000
   -2.0260   14.7420    1.6260 O   0  0  0  0  0  0  0  0  0  0  0  0
   -3.0750   14.6670    0.9700 C   0  0  0  0  0  0  0  0  0  0  0  0
   -3.2270   14.7680   -0.5410 C   0  0  0  0  0  0  0  0  0  0  0  0
   -4.3740   14.4840    1.4050 N   0  0  0  0  0  0  0  0  0  0  0  0
   -4.5370   15.4020   -0.5690 N   0  0  0  0  0  0  0  0  0  0  0  0
   -5.2780   14.8700    0.4500 C   0  0  0  0  0  0  0  0  0  0  0  0
   -6.5810   14.7180    0.5540 N   0  0  0  0  0  0  0  0  0  0  0  0
   -7.3420   14.0890    1.6690 C   0  0  0  0  0  0  0  0  0  0  0  0
   -8.0950   15.0000    2.6610 C   0  0  0  0  0  0  0  0  0  0  0  0
   -7.6110   14.8450    3.9510 C   0  0  0  0  0  0  0  0  0  0  0  0
   -9.1610   15.9310    2.4850 C   0  0  0  0  0  0  0  0  0  0  0  0
   -9.9910   16.2820    0.8180 Br  0  0  0  0  0  0  0  0  0  0  0  0
   -8.0890   15.5430    5.0310 C   0  0  0  0  0  0  0  0  0  0  0  0
   -9.6590   16.6590    3.6020 C   0  0  0  0  0  0  0  0  0  0  0  0
   -7.5190   15.2990    6.2440 O   0  0  0  0  0  0  0  0  0  0  0  0
   -9.1120   16.4650    4.8850 C   0  0  0  0  0  0  0  0  0  0  0  0
   -9.5910   17.1940    6.0270 C   0  0  0  0  0  0  0  0  0  0  0  0
   -9.9120   17.7540    6.9920 N   0  0  0  0  0  0  0  0  0  0  0  0
  1  2  2  0
  2  3  1  0
  2  4  1  0
  3  5  1  0
  4  6  1  0
  5  6  1  0
  6  7  2  3
  7  8  1  0
  8  9  1  0
  9 10  2  0
  9 11  1  0
 11 12  1  0
 10 13  1  0
 11 14  2  0
 13 15  1  0
 13 16  2  0
 14 16  1  0
 16 17  1  0
 17 18  3  0
M  END
