diamond-x0969_0_A-mac-x0137
     RDKit          3D

 22 25  0  0  0  0  0  0  0  0999 V2000
   -6.7780   14.4580    2.4560 N   0  0  0  0  0  0  0  0  0  0  0  0
   -6.4030   14.7010    1.1910 C   0  0  0  0  0  0  0  0  0  0  0  0
   -7.3020   14.5980    0.1640 N   0  0  0  0  0  0  0  0  0  0  0  0
   -5.2090   15.0810    0.6050 C   0  0  0  0  0  0  0  0  0  0  0  0
   -6.7890   14.8910   -1.0440 N   0  0  0  0  0  0  0  0  0  0  0  0
   -5.5170   15.1940   -0.7720 C   0  0  0  0  0  0  0  0  0  0  0  0
   -3.8370   15.3650    1.1340 C   0  0  0  0  0  0  0  0  0  0  0  0
   -4.5140   15.6100   -1.6890 C   0  0  0  0  0  0  0  0  0  0  0  0
   -2.7080   15.2180    0.0190 C   0  0  1  0  0  0  0  0  0  0  0  0
   -3.2080   15.6600   -1.3500 C   0  0  0  0  0  0  0  0  0  0  0  0
   -1.4260   15.8390    0.4320 N   0  0  0  0  0  0  0  0  0  0  0  0
   -2.3760   13.7780   -0.3310 C   0  0  0  0  0  0  0  0  0  0  0  0
   -0.4280   14.8920    0.9020 C   0  0  0  0  0  0  0  0  0  0  0  0
   -1.0020   13.5750   -1.0380 C   0  0  1  0  0  0  0  0  0  0  0  0
   -0.6970   14.2240   -2.3340 N   0  0  0  0  0  0  0  0  0  0  0  0
    0.0360   14.0810   -0.1780 N   0  0  0  0  0  0  0  0  0  0  0  0
   -1.7820   14.3440   -3.3360 C   0  0  0  0  0  0  0  0  0  0  0  0
    0.5290   13.6590   -2.9140 C   0  0  0  0  0  0  0  0  0  0  0  0
   -1.9270   13.2310   -4.3990 C   0  0  2  0  0  0  0  0  0  0  0  0
    0.2880   12.2790   -3.5050 C   0  0  0  0  0  0  0  0  0  0  0  0
   -2.9310   12.4120   -3.9860 F   0  0  0  0  0  0  0  0  0  0  0  0
   -0.6880   12.3670   -4.6690 C   0  0  0  0  0  0  0  0  0  0  0  0
  1  2  1  0
  2  3  1  0
  2  4  2  0
  3  5  1  0
  4  6  1  0
  5  6  2  0
  4  7  1  0
  6  8  1  0
  9  7  1  1
  8 10  2  0
  9 10  1  0
  9 11  1  0
  9 12  1  0
 11 13  1  0
 12 14  1  0
 14 15  1  6
 13 16  1  0
 14 16  1  0
 15 17  1  0
 15 18  1  0
 17 19  1  0
 18 20  1  0
 19 21  1  1
 19 22  1  0
 20 22  1  0
M  END
