diamond-x0766_0_A-mac-x0148
     RDKit          3D

 23 27  0  0  0  0  0  0  0  0999 V2000
    0.9420   11.9360   -3.3270 C   0  0  0  0  0  0  0  0  0  0  0  0
    0.2620   10.7400   -3.1290 O   0  0  0  0  0  0  0  0  0  0  0  0
    1.8010   12.2020   -2.4810 O   0  0  0  0  0  0  0  0  0  0  0  0
    0.5660   12.7310   -4.3750 C   0  0  2  0  0  0  0  0  0  0  0  0
    1.4500   13.5530   -5.1820 C   0  0  0  0  0  0  0  0  0  0  0  0
   -0.6200   13.8650   -3.3730 S   0  0  0  0  0  0  0  0  0  0  0  0
    1.5330   14.8560   -4.6110 C   0  0  0  0  0  0  0  0  0  0  0  0
    1.1110   14.6170   -3.2450 C   0  0  0  0  0  0  0  0  0  0  0  0
   -1.8290   14.9130   -4.2130 C   0  0  0  0  0  0  0  0  0  0  0  0
   -1.6630   14.9170   -4.4000 C   0  0  0  0  0  0  0  0  0  0  0  0
   -0.5790   13.4580   -1.4930 C   0  0  0  0  0  0  0  0  0  0  0  0
   -1.7560   12.5980   -2.5840 C   0  0  0  0  0  0  0  0  0  0  0  0
   -2.6460   13.3930   -1.8120 C   0  0  2  0  0  0  0  0  0  0  0  0
   -2.7290   14.1430   -5.1170 C   0  0  0  0  0  0  0  0  0  0  0  0
   -1.9220   14.4300   -5.6000 O   0  0  0  0  0  0  0  0  0  0  0  0
   -0.8210   14.6150   -0.7240 C   0  0  1  0  0  0  0  0  0  0  0  0
   -3.9560   13.8910   -2.3570 C   0  0  0  0  0  0  0  0  0  0  0  0
   -2.2820   14.6020   -1.0150 C   0  0  2  0  0  0  0  0  0  0  0  0
   -0.5680   14.5030    0.7080 C   0  0  0  0  0  0  0  0  0  0  0  0
   -3.1550   14.2910    0.2240 C   0  0  2  0  0  0  0  0  0  0  0  0
   -4.4730   14.5800   -1.0010 S   0  0  0  0  0  0  0  0  0  0  0  0
   -1.4610   15.3930    1.4390 N   0  0  0  0  0  0  0  0  0  0  0  0
   -2.8790   15.3040    1.2030 C   0  0  0  0  0  0  0  0  0  0  0  0
  1  2  1  0
  1  3  2  0
  4  1  1  1
  4  5  1  0
  4  6  1  0
  5  7  1  0
  6  8  1  0
  7  8  1  0
  6  9  1  0
  6 10  1  0
  6 11  1  0
  6 12  1  0
 13 12  1  6
 10 14  1  0
  9 15  1  0
 14 15  1  0
 16 11  1  6
 13 17  1  0
 18 13  1  6
 16 18  1  0
 16 19  1  0
 18 20  1  0
 17 21  2  0
 20 21  1  0
 19 22  1  0
 20 23  1  1
 22 23  1  0
M  END
