diamond-x0662_0_A-mac-x0415
     RDKit          3D

 31 34  0  0  0  0  0  0  0  0999 V2000
    5.2460    9.5290  -14.9280 C   0  0  0  0  0  0  0  0  0  0  0  0
    4.2010   10.0140  -14.0500 N   0  0  0  0  0  0  0  0  0  0  0  0
    3.5300   11.1980  -14.1390 C   0  0  0  0  0  0  0  0  0  0  0  0
    3.8080    9.2610  -13.0120 N   0  0  0  0  0  0  0  0  0  0  0  0
    2.6420   11.2110  -13.0830 C   0  0  0  0  0  0  0  0  0  0  0  0
    2.8410    9.9750  -12.3880 C   0  0  0  0  0  0  0  0  0  0  0  0
    2.1680    9.4490  -11.1540 C   0  0  0  0  0  0  0  0  0  0  0  0
    2.1140    8.2410  -10.9540 O   0  0  0  0  0  0  0  0  0  0  0  0
    1.6460   10.4130  -10.2650 N   0  0  0  0  0  0  0  0  0  0  0  0
    0.7830   10.1670   -9.1530 C   0  0  0  0  0  0  0  0  0  0  0  0
   -0.1160    9.1090   -9.1850 C   0  0  0  0  0  0  0  0  0  0  0  0
    0.8090   11.0000   -7.9760 C   0  0  0  0  0  0  0  0  0  0  0  0
   -0.9680    8.8680   -8.1110 C   0  0  0  0  0  0  0  0  0  0  0  0
   -0.0680   10.7700   -6.8790 C   0  0  0  0  0  0  0  0  0  0  0  0
   -0.1720   11.6090   -5.5850 C   0  0  0  0  0  0  0  0  0  0  0  0
   -0.9490    9.6830   -6.9800 C   0  0  0  0  0  0  0  0  0  0  0  0
   -1.3050   11.6230   -5.1280 O   0  0  0  0  0  0  0  0  0  0  0  0
    0.8360   12.3080   -4.8560 N   0  0  0  0  0  0  0  0  0  0  0  0
    0.7560   11.9630   -3.5140 C   0  0  0  0  0  0  0  0  0  0  0  0
    1.0050   13.7690   -5.1000 C   0  0  2  0  0  0  0  0  0  0  0  0
    0.1010   10.8280   -3.2290 O   0  0  0  0  0  0  0  0  0  0  0  0
    1.2060   12.5860   -2.5560 O   0  0  0  0  0  0  0  0  0  0  0  0
    1.9830   14.5360   -4.2040 C   0  0  0  0  0  0  0  0  0  0  0  0
   -0.1730   14.7560   -5.0310 C   0  0  2  0  0  0  0  0  0  0  0  0
    1.7490   15.9450   -4.5970 N   0  0  0  0  0  0  0  0  0  0  0  0
    0.3210   16.0670   -4.3990 C   0  0  1  0  0  0  0  0  0  0  0  0
   -1.5950   14.4740   -4.5770 C   0  0  0  0  0  0  0  0  0  0  0  0
   -0.4370   17.1730   -5.0610 C   0  0  0  0  0  0  0  0  0  0  0  0
   -2.4770   15.7380   -4.7770 C   0  0  2  0  0  0  0  0  0  0  0  0
   -3.8680   15.3040   -6.0980 Br  0  0  0  0  0  0  0  0  0  0  0  0
   -1.7630   17.0030   -5.2390 C   0  0  0  0  0  0  0  0  0  0  0  0
  1  2  1  0
  2  3  1  0
  2  4  1  0
  3  5  2  0
  4  6  2  0
  5  6  1  0
  6  7  1  0
  7  8  2  0
  7  9  1  0
  9 10  1  0
 10 11  2  0
 10 12  1  0
 11 13  1  0
 12 14  2  0
 14 15  1  0
 13 16  2  0
 14 16  1  0
 15 17  2  0
 15 18  1  0
 18 19  1  0
 20 18  1  1
 19 21  1  0
 19 22  2  0
 20 23  1  0
 20 24  1  0
 23 25  1  0
 24 26  1  0
 25 26  1  0
 24 27  1  1
 26 28  1  6
 27 29  1  0
 29 30  1  6
 28 31  2  0
 29 31  1  0
M  END
