diamond-x0689_0_A-diamond-x1018_0_A
     RDKit          3D

 17 19  0  0  0  0  0  0  0  0999 V2000
   -3.3210   15.2880    1.6710 N   0  0  0  0  0  0  0  0  0  0  0  0
   -2.0850   15.1420    0.9510 C   0  0  1  0  0  0  0  0  0  0  0  0
   -1.4390   14.1570    1.7370 N   0  0  0  0  0  0  0  0  0  0  0  0
   -2.0880   14.8350   -0.4800 N   0  0  0  0  0  0  0  0  0  0  0  0
   -0.8730   14.4760   -1.0140 C   0  0  0  0  0  0  0  0  0  0  0  0
   -0.0640   14.1090    1.2870 C   0  0  0  0  0  0  0  0  0  0  0  0
   -3.3060   14.4200   -1.0120 N   0  0  0  0  0  0  0  0  0  0  0  0
    0.1260   14.1210   -0.2070 C   0  0  0  0  0  0  0  0  0  0  0  0
   -3.5830   14.7990   -2.3780 N   0  0  0  0  0  0  0  0  0  0  0  0
   -4.3680   15.0470   -0.2410 C   0  0  1  0  0  0  0  0  0  0  0  0
   -5.0210   14.8130   -2.4800 N   0  0  0  0  0  0  0  0  0  0  0  0
   -5.4550   15.1040   -1.1940 N   0  0  0  0  0  0  0  0  0  0  0  0
   -4.7740   14.2990    0.9790 C   0  0  0  0  0  0  0  0  0  0  0  0
   -6.7790   15.0640   -0.8720 N   0  0  0  0  0  0  0  0  0  0  0  0
   -6.0510   14.0700    1.2700 C   0  0  0  0  0  0  0  0  0  0  0  0
   -7.0510   14.5850    0.3060 C   0  0  0  0  0  0  0  0  0  0  0  0
   -8.7150   14.5540    0.7590 Cl  0  0  0  0  0  0  0  0  0  0  0  0
  2  1  1  1
  2  3  1  0
  2  4  1  0
  4  5  1  0
  3  6  1  0
  4  7  1  0
  5  8  2  0
  6  8  1  0
  7  9  1  0
  7 10  1  0
  9 11  1  0
 10 12  1  0
 11 12  1  0
 10 13  1  1
 12 14  1  0
 13 15  2  0
 14 16  2  0
 15 16  1  0
 16 17  1  0
M  END
