diamond-x0592_0_A-mac-x0180
     RDKit          3D

 23 24  0  0  0  0  0  0  0  0999 V2000
   -2.1760   14.4900    1.6670 N   0  0  0  0  0  0  0  0  0  0  0  0
   -2.5280   13.7500    0.5850 C   0  0  0  0  0  0  0  0  0  0  0  0
   -1.6660   13.2780   -0.1450 O   0  0  0  0  0  0  0  0  0  0  0  0
   -3.9320   13.5800    0.3220 C   0  0  0  0  0  0  0  0  0  0  0  0
   -4.4870   12.9440   -0.8110 C   0  0  0  0  0  0  0  0  0  0  0  0
   -5.0240   13.9870    1.0530 C   0  0  0  0  0  0  0  0  0  0  0  0
   -5.8100   12.9580   -0.8170 N   0  0  0  0  0  0  0  0  0  0  0  0
   -6.1000   13.6060    0.3210 N   0  0  0  0  0  0  0  0  0  0  0  0
   -7.4790   13.8340    0.5590 C   0  0  1  0  0  0  0  0  0  0  0  0
   -7.8910   14.0010    2.0360 C   0  0  0  0  0  0  0  0  0  0  0  0
   -7.5210   15.0430   -0.3400 C   0  0  0  0  0  0  0  0  0  0  0  0
   -7.0960   14.9230    2.7770 O   0  0  0  0  0  0  0  0  0  0  0  0
   -8.5010   15.4540   -0.9370 O   0  0  0  0  0  0  0  0  0  0  0  0
   -6.2110   15.5970   -0.3580 N   0  0  0  0  0  0  0  0  0  0  0  0
   -5.0760   15.3670   -1.1690 C   0  0  0  0  0  0  0  0  0  0  0  0
   -3.8370   15.3620   -0.5070 C   0  0  0  0  0  0  0  0  0  0  0  0
   -5.0830   15.1560   -2.5430 C   0  0  0  0  0  0  0  0  0  0  0  0
   -2.6440   15.1460   -1.2070 C   0  0  0  0  0  0  0  0  0  0  0  0
   -3.8840   14.9500   -3.2470 C   0  0  0  0  0  0  0  0  0  0  0  0
   -2.6600   14.9480   -2.5770 C   0  0  0  0  0  0  0  0  0  0  0  0
   -1.3630   14.7510   -3.2850 C   0  0  0  0  0  0  0  0  0  0  0  0
   -1.2850   14.5490   -4.4830 O   0  0  0  0  0  0  0  0  0  0  0  0
   -0.2810   14.8360   -2.4790 O   0  0  0  0  0  0  0  0  0  0  0  0
  1  2  1  0
  2  3  2  0
  2  4  1  0
  4  5  1  0
  4  6  2  0
  5  7  2  0
  6  8  1  0
  7  8  1  0
  8  9  1  0
  9 10  1  1
  9 11  1  0
 10 12  1  0
 11 13  2  0
 11 14  1  0
 14 15  1  0
 15 16  2  0
 15 17  1  0
 16 18  1  0
 17 19  2  0
 18 20  2  0
 19 20  1  0
 20 21  1  0
 21 22  2  0
 21 23  1  0
M  END
