diamond-x0962_2_B-diamond-x0969_0_A
     RDKit          3D

 17 19  0  0  0  0  0  0  0  0999 V2000
  -11.7570   16.3820    1.5140 N   0  0  0  0  0  0  0  0  0  0  0  0
  -10.8390   16.1450    2.1730 C   0  0  0  0  0  0  0  0  0  0  0  0
   -9.6400   15.8030    2.8200 C   0  0  0  0  0  0  0  0  0  0  0  0
   -9.2200   16.0810    4.1120 N   0  0  0  0  0  0  0  0  0  0  0  0
   -8.7460   15.1260    2.1340 C   0  0  0  0  0  0  0  0  0  0  0  0
   -8.0070   15.5310    4.1580 C   0  0  0  0  0  0  0  0  0  0  0  0
   -7.7260   14.9560    2.9380 N   0  0  0  0  0  0  0  0  0  0  0  0
   -6.6700   14.3090    2.4420 N   0  0  0  0  0  0  0  0  0  0  0  0
   -6.4080   14.5110    1.1230 C   0  0  0  0  0  0  0  0  0  0  0  0
   -7.3500   14.5190    0.2010 N   0  0  0  0  0  0  0  0  0  0  0  0
   -5.1840   14.7390    0.5060 N   0  0  0  0  0  0  0  0  0  0  0  0
   -6.7900   14.7440   -1.0240 N   0  0  0  0  0  0  0  0  0  0  0  0
   -5.5040   14.8720   -0.8450 C   0  0  0  0  0  0  0  0  0  0  0  0
   -3.8790   14.8320    0.9810 C   0  0  0  0  0  0  0  0  0  0  0  0
   -4.4470   15.1010   -1.7560 C   0  0  0  0  0  0  0  0  0  0  0  0
   -2.8810   15.0370    0.1140 C   0  0  0  0  0  0  0  0  0  0  0  0
   -3.1930   15.1690   -1.2980 C   0  0  0  0  0  0  0  0  0  0  0  0
  1  2  3  0
  2  3  1  0
  3  4  1  0
  3  5  2  0
  4  6  2  0
  5  7  1  0
  6  7  1  0
  7  8  1  0
  8  9  1  0
  9 10  2  0
  9 11  1  0
 10 12  1  0
 11 13  1  0
 12 13  2  0
 11 14  1  0
 13 15  1  0
 14 16  2  0
 15 17  2  0
 16 17  1  0
M  END
