diamond-x0742_0_A-mac-x0271
     RDKit          3D

 23 26  0  0  0  0  0  0  0  0999 V2000
   -5.1820   12.5110   -1.1540 C   0  0  0  0  0  0  0  0  0  0  0  0
   -5.9000   11.9780    0.0800 C   0  0  0  0  0  0  0  0  0  0  0  0
   -5.2490   11.8670   -2.2000 O   0  0  0  0  0  0  0  0  0  0  0  0
   -4.3640   13.8210   -1.0600 C   0  0  2  0  0  0  0  0  0  0  0  0
   -4.4720   14.4060    0.3170 C   0  0  1  0  0  0  0  0  0  0  0  0
   -4.8630   15.1270   -1.7520 C   0  0  1  0  0  0  0  0  0  0  0  0
   -2.9370   13.5180   -1.4780 C   0  0  0  0  0  0  0  0  0  0  0  0
   -5.4110   14.8530   -3.0320 O   0  0  0  0  0  0  0  0  0  0  0  0
   -5.9720   14.7010    0.3720 C   0  0  2  0  0  0  0  0  0  0  0  0
   -1.9300   13.8850   -0.4600 C   0  0  0  0  0  0  0  0  0  0  0  0
   -3.6020   13.8370    1.3990 C   0  0  0  0  0  0  0  0  0  0  0  0
   -5.8850   15.7750   -0.7570 C   0  0  0  0  0  0  0  0  0  0  0  0
   -0.6470   14.0940   -0.9060 C   0  0  0  0  0  0  0  0  0  0  0  0
   -2.2150   14.0280    0.9000 C   0  0  0  0  0  0  0  0  0  0  0  0
   -6.5670   14.9440    1.7400 C   0  0  0  0  0  0  0  0  0  0  0  0
   -6.9210   13.6970   -0.2630 C   0  0  0  0  0  0  0  0  0  0  0  0
   -1.2930   14.3480    1.8040 N   0  0  0  0  0  0  0  0  0  0  0  0
    0.3130   14.4350   -0.0030 C   0  0  0  0  0  0  0  0  0  0  0  0
   -7.8930   14.9570    1.9180 C   0  0  0  0  0  0  0  0  0  0  0  0
   -8.2400   14.2670   -0.3510 O   0  0  0  0  0  0  0  0  0  0  0  0
   -0.0600   14.5430    1.3270 C   0  0  0  0  0  0  0  0  0  0  0  0
   -8.8060   14.7540    0.7810 C   0  0  0  0  0  0  0  0  0  0  0  0
   -9.9940   15.0190    0.8710 O   0  0  0  0  0  0  0  0  0  0  0  0
  1  2  1  0
  1  3  2  0
  4  1  1  1
  4  5  1  0
  4  6  1  0
  4  7  1  0
  6  8  1  6
  5  9  1  0
  7 10  1  0
  5 11  1  1
  6 12  1  0
  9 12  1  6
 10 13  2  0
 10 14  1  0
 11 14  1  0
  9 15  1  0
  9 16  1  0
 14 17  2  0
 13 18  1  0
 15 19  2  0
 16 20  1  0
 17 21  1  0
 18 21  2  0
 19 22  1  0
 20 22  1  0
 22 23  2  0
M  END
