diamond-x0905_0_A-diamond-x0685_0_A
     RDKit          3D

 12 12  0  0  0  0  0  0  0  0999 V2000
   -7.2890   15.1980   -0.7410 O   0  0  0  0  0  0  0  0  0  0  0  0
   -5.9740   14.7090   -0.5370 C   0  0  2  0  0  0  0  0  0  0  0  0
   -5.5680   15.0250    0.8450 N   0  0  0  0  0  0  0  0  0  0  0  0
   -5.0340   15.3530   -1.5390 C   0  0  0  0  0  0  0  0  0  0  0  0
   -6.1640   14.2540    1.8840 N   0  0  0  0  0  0  0  0  0  0  0  0
   -4.2600   15.4410    1.1000 C   0  0  0  0  0  0  0  0  0  0  0  0
   -3.5880   14.9780   -1.2160 C   0  0  2  0  0  0  0  0  0  0  0  0
   -7.3770   14.8000    2.5070 C   0  0  0  0  0  0  0  0  0  0  0  0
   -3.2810   15.4450    0.1800 C   0  0  0  0  0  0  0  0  0  0  0  0
   -2.5850   15.4590   -2.2810 C   0  0  0  0  0  0  0  0  0  0  0  0
   -8.1330   13.6410    3.1240 C   0  0  0  0  0  0  0  0  0  0  0  0
   -2.9350   15.0540   -3.6410 N   0  0  0  0  0  0  0  0  0  0  0  0
  2  1  1  6
  2  3  1  0
  2  4  1  0
  3  5  1  0
  3  6  1  0
  4  7  1  0
  5  8  1  0
  6  9  2  0
  7  9  1  0
  7 10  1  6
  8 11  1  0
 10 12  1  0
M  END
