diamond-x0438_0_A-diamond-x0837_0_A
     RDKit          3D

 15 16  0  0  0  0  0  0  0  0999 V2000
   -8.1510   15.5820    3.9010 C   0  0  0  0  0  0  0  0  0  0  0  0
   -9.3790   15.3840    2.6220 S   0  0  0  0  0  0  0  0  0  0  0  0
  -10.5970   14.8890    3.2420 O   0  0  0  0  0  0  0  0  0  0  0  0
   -8.7780   14.0870    1.5590 C   0  0  0  0  0  0  0  0  0  0  0  0
   -9.4490   16.5860    1.8250 O   0  0  0  0  0  0  0  0  0  0  0  0
   -7.4280   14.3390    0.9860 C   0  0  0  0  0  0  0  0  0  0  0  0
   -7.2170   14.3910   -0.3680 N   0  0  0  0  0  0  0  0  0  0  0  0
   -6.2980   14.5230    1.6370 N   0  0  0  0  0  0  0  0  0  0  0  0
   -5.3210   14.6750    0.6810 C   0  0  0  0  0  0  0  0  0  0  0  0
   -5.8810   14.5950   -0.5840 C   0  0  0  0  0  0  0  0  0  0  0  0
   -5.1520   14.7000   -1.7540 C   0  0  0  0  0  0  0  0  0  0  0  0
   -3.9360   14.8800    0.8070 C   0  0  0  0  0  0  0  0  0  0  0  0
   -3.7840   14.8830   -1.6150 C   0  0  0  0  0  0  0  0  0  0  0  0
   -3.1650   14.9800   -0.3620 C   0  0  0  0  0  0  0  0  0  0  0  0
   -2.6860   14.9820   -3.3760 I   0  0  0  0  0  0  0  0  0  0  0  0
  2  1  1  0
  2  3  2  0
  2  4  1  0
  2  5  2  0
  4  6  1  0
  6  7  1  0
  6  8  2  0
  8  9  1  0
  7 10  1  0
  9 10  2  0
 10 11  1  0
  9 12  1  0
 11 13  2  0
 12 14  2  0
 13 14  1  0
 13 15  1  0
M  END
