diamond-x0591_0_A-diamond-x0711_0_A
     RDKit          3D

 18 19  0  0  0  0  0  0  0  0999 V2000
   -5.7670   14.6590    0.8860 N   0  0  0  0  0  0  0  0  0  0  0  0
   -6.7000   14.5410    1.9790 C   0  0  0  0  0  0  0  0  0  0  0  0
   -6.2440   14.8560   -0.3920 C   0  0  0  0  0  0  0  0  0  0  0  0
   -7.4240   15.0560   -0.6420 O   0  0  0  0  0  0  0  0  0  0  0  0
   -5.2520   14.8090   -1.4950 C   0  0  0  0  0  0  0  0  0  0  0  0
   -3.8640   14.7330   -1.2860 C   0  0  0  0  0  0  0  0  0  0  0  0
   -5.7580   14.8480   -2.7980 C   0  0  0  0  0  0  0  0  0  0  0  0
   -3.0030   14.6970   -2.3920 C   0  0  0  0  0  0  0  0  0  0  0  0
   -4.8950   14.8100   -3.8880 C   0  0  0  0  0  0  0  0  0  0  0  0
   -1.5840   14.6260   -2.1870 N   0  0  0  0  0  0  0  0  0  0  0  0
   -3.5340   14.7360   -3.6520 C   0  0  0  0  0  0  0  0  0  0  0  0
   -2.3830   14.6760   -4.9340 S   0  0  1  0  0  0  0  0  0  0  0  0
   -0.5070   14.0280   -3.3960 S   0  0  0  0  0  0  0  0  0  0  0  0
   -1.3030   15.9480   -4.7710 N   0  0  0  0  0  0  0  0  0  0  0  0
   -1.4650   13.5610   -4.5260 N   0  0  0  0  0  0  0  0  0  0  0  0
   -3.0330   14.9660   -6.1860 O   0  0  0  0  0  0  0  0  0  0  0  0
    0.3630   15.1580   -3.6680 O   0  0  0  0  0  0  0  0  0  0  0  0
    0.1360   12.9920   -2.6010 O   0  0  0  0  0  0  0  0  0  0  0  0
  1  2  1  0
  1  3  1  0
  3  4  2  0
  3  5  1  0
  5  6  2  0
  5  7  1  0
  6  8  1  0
  7  9  2  0
  8 10  1  0
  8 11  2  0
  9 11  1  0
 11 12  1  0
 10 13  1  0
 12 14  1  1
 12 15  2  0
 13 15  1  0
 12 16  2  0
 13 17  2  0
 13 18  2  0
M  END
