diamond-x0895_0_A-mac-x0387
     RDKit          3D

 17 19  0  0  0  0  0  0  0  0999 V2000
   -2.7020   13.7700    2.2650 O   0  0  0  0  0  0  0  0  0  0  0  0
   -3.4880   14.2120    1.4770 C   0  0  0  0  0  0  0  0  0  0  0  0
   -3.6170   15.6470    1.2080 C   0  0  2  0  0  0  0  0  0  0  0  0
   -4.2950   13.5340    0.6300 N   0  0  0  0  0  0  0  0  0  0  0  0
   -4.7560   15.6230    0.3310 N   0  0  0  0  0  0  0  0  0  0  0  0
   -4.7000   14.4240   -0.2990 C   0  0  0  0  0  0  0  0  0  0  0  0
   -2.2850   15.4510    0.6230 C   0  0  0  0  0  0  0  0  0  0  0  0
   -4.9590   14.2110   -1.4710 O   0  0  0  0  0  0  0  0  0  0  0  0
   -2.1090   15.4380   -0.7470 C   0  0  0  0  0  0  0  0  0  0  0  0
   -1.3020   15.2290    1.5270 N   0  0  0  0  0  0  0  0  0  0  0  0
   -0.8120   15.1720   -1.2120 C   0  0  0  0  0  0  0  0  0  0  0  0
   -0.0850   14.9860    1.0470 C   0  0  0  0  0  0  0  0  0  0  0  0
   -3.1390   15.6580   -1.6840 C   0  0  0  0  0  0  0  0  0  0  0  0
    0.2170   14.9450   -0.2910 C   0  0  0  0  0  0  0  0  0  0  0  0
   -0.5770   15.1330   -2.5890 C   0  0  0  0  0  0  0  0  0  0  0  0
   -2.8970   15.6110   -3.0420 C   0  0  0  0  0  0  0  0  0  0  0  0
   -1.6150   15.3490   -3.4960 C   0  0  0  0  0  0  0  0  0  0  0  0
  1  2  2  0
  2  3  1  0
  2  4  1  0
  3  5  1  0
  4  6  1  0
  5  6  1  0
  3  7  1  6
  6  8  2  0
  7  9  1  0
  7 10  2  0
  9 11  2  0
 10 12  1  0
  9 13  1  0
 11 14  1  0
 12 14  2  0
 11 15  1  0
 13 16  2  0
 15 17  2  0
 16 17  1  0
M  END
