diamond-x0967_0_A-mac-x0394
     RDKit          3D

 24 26  0  0  0  0  0  0  0  0999 V2000
    1.0030   18.3140   -5.1280 Cl  0  0  0  0  0  0  0  0  0  0  0  0
    0.2660   16.7860   -5.0050 C   0  0  0  0  0  0  0  0  0  0  0  0
   -1.1010   16.6990   -5.2020 C   0  0  0  0  0  0  0  0  0  0  0  0
    1.0330   15.6580   -4.7130 C   0  0  0  0  0  0  0  0  0  0  0  0
    0.4220   14.4080   -4.6200 C   0  0  0  0  0  0  0  0  0  0  0  0
   -1.7310   15.4630   -5.1140 C   0  0  0  0  0  0  0  0  0  0  0  0
   -3.2100   15.3160   -5.3180 C   0  0  0  0  0  0  0  0  0  0  0  0
    1.2220   13.1640   -4.3080 C   0  0  0  0  0  0  0  0  0  0  0  0
   -0.9610   14.3260   -4.8240 C   0  0  0  0  0  0  0  0  0  0  0  0
    0.8480   12.5270   -2.9870 C   0  0  0  0  0  0  0  0  0  0  0  0
   -3.9010   14.6810   -4.1080 C   0  0  0  0  0  0  0  0  0  0  0  0
    0.2110   11.3460   -3.1530 O   0  0  0  0  0  0  0  0  0  0  0  0
    1.0440   12.9460   -1.8610 O   0  0  0  0  0  0  0  0  0  0  0  0
   -3.0110   14.7260   -2.8620 C   0  0  0  0  0  0  0  0  0  0  0  0
   -3.7610   14.7780   -1.5620 C   0  0  0  0  0  0  0  0  0  0  0  0
   -5.1020   14.6450   -1.6450 N   0  0  0  0  0  0  0  0  0  0  0  0
   -3.0880   14.9430   -0.3620 C   0  0  0  0  0  0  0  0  0  0  0  0
   -5.8270   14.6600   -0.5320 C   0  0  0  0  0  0  0  0  0  0  0  0
   -3.8320   14.9640    0.8060 C   0  0  0  0  0  0  0  0  0  0  0  0
   -7.1490   14.5190   -0.6450 N   0  0  0  0  0  0  0  0  0  0  0  0
   -5.2170   14.8150    0.7250 C   0  0  0  0  0  0  0  0  0  0  0  0
   -6.0190   14.8140    1.8680 C   0  0  0  0  0  0  0  0  0  0  0  0
   -7.9030   14.5180    0.4730 C   0  0  0  0  0  0  0  0  0  0  0  0
   -7.3890   14.6600    1.7460 C   0  0  0  0  0  0  0  0  0  0  0  0
  1  2  1  0
  2  3  2  0
  2  4  1  0
  4  5  2  0
  3  6  1  0
  6  7  1  0
  5  8  1  0
  5  9  1  0
  6  9  2  0
  8 10  1  0
  7 11  1  0
 10 12  1  0
 10 13  2  0
 11 14  1  0
 14 15  1  0
 15 16  2  0
 15 17  1  0
 16 18  1  0
 17 19  2  0
 18 20  2  0
 18 21  1  0
 19 21  1  0
 21 22  2  0
 20 23  1  0
 22 24  1  0
 23 24  2  0
M  END
