diamond-x0128_0_A-mac-x0301
     RDKit          3D

 27 30  0  0  0  0  0  0  0  0999 V2000
   -6.4830   14.8290    2.3250 N   0  0  0  0  0  0  0  0  0  0  0  0
   -7.6760   15.1530    2.9860 C   0  0  0  0  0  0  0  0  0  0  0  0
   -8.7450   15.2270    2.3910 O   0  0  0  0  0  0  0  0  0  0  0  0
   -6.4780   14.0410    1.0810 C   0  0  1  0  0  0  0  0  0  0  0  0
   -7.4760   15.3870    4.3500 N   0  0  0  0  0  0  0  0  0  0  0  0
   -7.2770   14.7300    0.0270 C   0  0  0  0  0  0  0  0  0  0  0  0
   -5.0710   13.6480    0.5390 C   0  0  0  0  0  0  0  0  0  0  0  0
   -6.7210   15.4420   -0.9540 C   0  0  0  0  0  0  0  0  0  0  0  0
   -4.2950   14.6660   -0.3650 C   0  0  1  0  0  0  0  0  0  0  0  0
   -8.3410   16.0710    5.2590 C   0  0  0  0  0  0  0  0  0  0  0  0
   -5.2480   15.6540   -1.0940 C   0  0  0  0  0  0  0  0  0  0  0  0
   -9.0430   17.2030    4.8320 C   0  0  0  0  0  0  0  0  0  0  0  0
   -8.5440   15.6880    6.5840 C   0  0  0  0  0  0  0  0  0  0  0  0
   -3.3750   15.4040    0.6370 C   0  0  0  0  0  0  0  0  0  0  0  0
   -3.4060   13.9650   -1.4960 C   0  0  0  0  0  0  0  0  0  0  0  0
   -9.8870   17.9350    5.6010 N   0  0  0  0  0  0  0  0  0  0  0  0
   -9.4090   16.4240    7.4050 C   0  0  0  0  0  0  0  0  0  0  0  0
   -2.0340   14.6430   -1.7740 C   0  0  2  0  0  0  0  0  0  0  0  0
   -2.0990   14.6040    0.7250 C   0  0  1  0  0  0  0  0  0  0  0  0
   -1.2450   14.2280   -3.0170 C   0  0  0  0  0  0  0  0  0  0  0  0
  -10.0500   17.5290    6.8720 C   0  0  0  0  0  0  0  0  0  0  0  0
   -1.2170   14.7040   -0.4860 C   0  0  1  0  0  0  0  0  0  0  0  0
   -1.1870   14.9380    1.7350 O   0  0  0  0  0  0  0  0  0  0  0  0
    0.0980   14.2940   -2.8840 O   0  0  0  0  0  0  0  0  0  0  0  0
   -1.7150   13.8780   -4.0910 O   0  0  0  0  0  0  0  0  0  0  0  0
   -0.2700   13.7490   -0.1140 O   0  0  0  0  0  0  0  0  0  0  0  0
   -0.0090   14.3280    1.1930 C   0  0  0  0  0  0  0  0  0  0  0  0
  1  2  1  0
  2  3  2  0
  4  1  1  1
  2  5  1  0
  4  6  1  0
  4  7  1  0
  6  8  2  0
  9  7  1  1
  5 10  1  0
  8 11  1  0
  9 11  1  0
 10 12  2  0
 10 13  1  0
  9 14  1  0
  9 15  1  0
 12 16  1  0
 13 17  2  0
 15 18  1  0
 19 14  1  6
 18 20  1  6
 16 21  2  0
 17 21  1  0
 18 22  1  0
 19 22  1  0
 19 23  1  0
 20 24  1  0
 20 25  2  0
 22 26  1  6
 23 27  1  0
 26 27  1  0
M  END
