diamond-x0421_0_A-mac-x0319
     RDKit          3D

 22 24  0  0  0  0  0  0  0  0999 V2000
   -3.7950   15.0610   -2.9470 N   0  0  0  0  0  0  0  0  0  0  0  0
   -3.0250   15.2060   -1.8230 C   0  0  0  0  0  0  0  0  0  0  0  0
   -1.7510   15.3280   -1.8640 N   0  0  0  0  0  0  0  0  0  0  0  0
   -3.7070   15.1510   -0.5330 C   0  0  0  0  0  0  0  0  0  0  0  0
   -3.0760   15.3470    0.6900 C   0  0  0  0  0  0  0  0  0  0  0  0
   -5.0410   14.8770   -0.3240 N   0  0  0  0  0  0  0  0  0  0  0  0
   -0.8480   15.2850   -2.9210 C   0  0  0  0  0  0  0  0  0  0  0  0
   -4.0410   15.1780    1.6330 N   0  0  0  0  0  0  0  0  0  0  0  0
   -5.1980   14.8980    0.9820 C   0  0  0  0  0  0  0  0  0  0  0  0
   -0.3840   16.3280   -3.7280 C   0  0  0  0  0  0  0  0  0  0  0  0
   -0.3730   14.0100   -3.0990 C   0  0  0  0  0  0  0  0  0  0  0  0
   -6.5320   14.6320    1.7150 C   0  0  0  0  0  0  0  0  0  0  0  0
    0.5630   13.6890   -4.0350 C   0  0  0  0  0  0  0  0  0  0  0  0
    0.5790   16.0170   -4.6960 C   0  0  0  0  0  0  0  0  0  0  0  0
    0.9720   12.2500   -4.0460 C   0  0  0  0  0  0  0  0  0  0  0  0
    1.0980   16.9830   -5.5070 O   0  0  0  0  0  0  0  0  0  0  0  0
   -7.8110   14.6520    0.9250 C   0  0  0  0  0  0  0  0  0  0  0  0
   -7.2680   13.3520    1.4440 C   0  0  0  0  0  0  0  0  0  0  0  0
    1.0490   14.7020   -4.8520 C   0  0  0  0  0  0  0  0  0  0  0  0
    0.7390   11.6730   -2.6490 C   0  0  0  0  0  0  0  0  0  0  0  0
    0.4580   10.3450   -2.6210 O   0  0  0  0  0  0  0  0  0  0  0  0
    0.7650   12.2740   -1.5790 O   0  0  0  0  0  0  0  0  0  0  0  0
  1  2  1  0
  2  3  2  3
  2  4  1  0
  4  5  2  0
  4  6  1  0
  3  7  1  0
  5  8  1  0
  6  9  2  0
  8  9  1  0
  7 10  2  0
  7 11  1  0
  9 12  1  0
 11 13  2  0
 10 14  1  0
 13 15  1  0
 14 16  1  0
 12 17  1  0
 12 18  1  0
 17 18  1  0
 13 19  1  0
 14 19  2  0
 15 20  1  0
 20 21  1  0
 20 22  2  0
M  END
