diamond-x0587_0_A-mac-x0576
     RDKit          3D

 25 27  0  0  0  0  0  0  0  0999 V2000
   -7.6110   15.0070    3.6590 N   0  0  0  0  0  0  0  0  0  0  0  0
   -8.2270   14.9190    2.4480 C   0  0  0  0  0  0  0  0  0  0  0  0
   -9.4530   15.0040    2.3760 O   0  0  0  0  0  0  0  0  0  0  0  0
   -7.3680   14.7360    1.2330 C   0  0  0  0  0  0  0  0  0  0  0  0
   -7.7950   15.1730    0.0480 C   0  0  0  0  0  0  0  0  0  0  0  0
   -6.0640   14.1500    0.9790 C   0  0  0  0  0  0  0  0  0  0  0  0
   -6.8960   14.9580   -0.9870 N   0  0  0  0  0  0  0  0  0  0  0  0
   -5.9190   13.1250    0.1290 N   0  0  0  0  0  0  0  0  0  0  0  0
   -4.7880   14.4170    1.2140 C   0  0  0  0  0  0  0  0  0  0  0  0
   -6.2650   13.7040   -0.9970 C   0  0  0  0  0  0  0  0  0  0  0  0
   -3.8560   13.5340    0.7400 N   0  0  0  0  0  0  0  0  0  0  0  0
   -4.1250   15.5780    1.8750 C   0  0  0  0  0  0  0  0  0  0  0  0
   -5.9800   13.0850   -2.3510 C   0  0  0  0  0  0  0  0  0  0  0  0
   -2.7070   14.0280    0.0960 C   0  0  1  0  0  0  0  0  0  0  0  0
   -3.4570   16.3610    0.7790 N   0  0  0  0  0  0  0  0  0  0  0  0
   -7.0170   12.3720   -2.7980 F   0  0  0  0  0  0  0  0  0  0  0  0
   -4.9050   12.2550   -2.3340 F   0  0  0  0  0  0  0  0  0  0  0  0
   -5.7140   14.0420   -3.2800 F   0  0  0  0  0  0  0  0  0  0  0  0
   -3.0240   15.4640   -0.3410 C   0  0  1  0  0  0  0  0  0  0  0  0
   -1.5130   13.9240    0.8980 N   0  0  0  0  0  0  0  0  0  0  0  0
   -0.3560   14.4510    0.2920 C   0  0  2  0  0  0  0  0  0  0  0  0
   -1.7600   15.8060   -1.1050 C   0  0  0  0  0  0  0  0  0  0  0  0
    0.4330   14.8080    1.3750 N   0  0  0  0  0  0  0  0  0  0  0  0
   -1.7030   16.1130   -2.2950 O   0  0  0  0  0  0  0  0  0  0  0  0
   -0.6510   15.6800   -0.3260 N   0  0  0  0  0  0  0  0  0  0  0  0
  1  2  1  0
  2  3  2  0
  2  4  1  0
  4  5  2  0
  4  6  1  0
  5  7  1  0
  6  8  1  0
  6  9  2  3
  7 10  1  0
  8 10  2  0
  9 11  1  0
  9 12  1  0
 10 13  1  0
 14 11  1  1
 12 15  1  0
 13 16  1  0
 13 17  1  0
 13 18  1  0
 14 19  1  0
 19 15  1  1
 14 20  1  0
 20 21  1  0
 19 22  1  0
 21 23  1  1
 22 24  2  0
 21 25  1  0
 22 25  1  0
M  END
