diamond-x0969_0_A-diamond-x0910_1_A
     RDKit          3D

 11 12  0  0  0  0  0  0  0  0999 V2000
   -6.7060   15.0040    2.6450 N   0  0  0  0  0  0  0  0  0  0  0  0
   -6.2760   14.6200    1.3240 C   0  0  1  0  0  0  0  0  0  0  0  0
   -7.4860   14.6350    0.4210 N   0  0  0  0  0  0  0  0  0  0  0  0
   -5.1930   15.3490    0.6860 N   0  0  0  0  0  0  0  0  0  0  0  0
   -8.2710   13.4420    0.5530 N   0  0  0  0  0  0  0  0  0  0  0  0
   -6.8860   14.6740   -0.9310 N   0  0  0  0  0  0  0  0  0  0  0  0
   -5.6600   15.4780   -0.6960 C   0  0  2  0  0  0  0  0  0  0  0  0
   -3.8670   15.2120    1.0250 C   0  0  0  0  0  0  0  0  0  0  0  0
   -4.5460   15.2290   -1.6770 C   0  0  0  0  0  0  0  0  0  0  0  0
   -2.9110   15.0590    0.1070 C   0  0  0  0  0  0  0  0  0  0  0  0
   -3.2680   15.0430   -1.2970 C   0  0  0  0  0  0  0  0  0  0  0  0
  2  1  1  1
  2  3  1  0
  2  4  1  0
  3  5  1  0
  3  6  1  0
  4  7  1  0
  6  7  1  0
  4  8  1  0
  7  9  1  6
  8 10  2  0
  9 11  2  0
 10 11  1  0
M  END
