diamond-x0805_0_A-diamond-x0727_0_A
     RDKit          3D

 27 29  0  0  0  0  0  0  0  0999 V2000
   -4.5320   15.2890    0.8250 C   0  0  0  0  0  0  0  0  0  0  0  0
   -3.2760   15.4340    0.1890 O   0  0  0  0  0  0  0  0  0  0  0  0
   -3.0550   14.8040   -1.0030 C   0  0  0  0  0  0  0  0  0  0  0  0
   -4.1330   14.1350   -1.5850 C   0  0  0  0  0  0  0  0  0  0  0  0
   -1.8300   14.8010   -1.6470 C   0  0  0  0  0  0  0  0  0  0  0  0
   -3.9700   13.4730   -2.8050 C   0  0  0  0  0  0  0  0  0  0  0  0
   -1.6410   14.1600   -2.8590 C   0  0  0  0  0  0  0  0  0  0  0  0
   -2.7280   13.4860   -3.4430 C   0  0  0  0  0  0  0  0  0  0  0  0
   -0.2550   14.2280   -3.4750 C   0  0  2  0  0  0  0  0  0  0  0  0
    0.7230   13.1900   -2.8700 C   0  0  1  0  0  0  0  0  0  0  0  0
    0.3480   15.6160   -3.5120 C   0  0  0  0  0  0  0  0  0  0  0  0
    0.2230   11.8760   -3.3900 C   0  0  0  0  0  0  0  0  0  0  0  0
    2.1790   13.4430   -3.3110 C   0  0  0  0  0  0  0  0  0  0  0  0
    1.6880   15.5810   -4.2130 C   0  0  0  0  0  0  0  0  0  0  0  0
    0.7580   10.7450   -2.7490 O   0  0  0  0  0  0  0  0  0  0  0  0
   -1.1220   11.8120   -3.0320 O   0  0  0  0  0  0  0  0  0  0  0  0
    0.5410   11.9340   -4.9430 C   0  0  1  0  0  0  0  0  0  0  0  0
    2.1970   14.2760   -4.4560 O   0  0  0  0  0  0  0  0  0  0  0  0
   -0.0240   10.9290   -5.8130 N   0  0  0  0  0  0  0  0  0  0  0  0
    0.3380   13.2850   -5.6300 C   0  0  0  0  0  0  0  0  0  0  0  0
    0.5930   10.7870   -7.0260 C   0  0  0  0  0  0  0  0  0  0  0  0
    1.4880   11.5220   -7.3750 O   0  0  0  0  0  0  0  0  0  0  0  0
    0.0880    9.6360   -7.8710 C   0  0  0  0  0  0  0  0  0  0  0  0
   -1.2440    9.9780   -8.5420 C   0  0  0  0  0  0  0  0  0  0  0  0
   -0.2060    8.3670   -7.0680 C   0  0  0  0  0  0  0  0  0  0  0  0
   -2.3310    9.2800   -7.7240 C   0  0  0  0  0  0  0  0  0  0  0  0
   -1.6250    8.5700   -6.5760 C   0  0  0  0  0  0  0  0  0  0  0  0
  1  2  1  0
  2  3  1  0
  3  4  2  0
  3  5  1  0
  4  6  1  0
  5  7  2  0
  6  8  2  0
  7  8  1  0
  9  7  1  1
  9 10  1  0
  9 11  1  0
 10 12  1  6
 10 13  1  0
 11 14  1  0
 12 15  1  0
 12 16  1  0
 12 17  1  0
 13 18  1  0
 14 18  1  0
 17 19  1  0
 17 20  1  6
 19 21  1  0
 21 22  2  0
 21 23  1  0
 23 24  1  0
 23 25  1  0
 24 26  1  0
 25 27  1  0
 26 27  1  0
M  END
