diamond-x0864_0_A-mac-x0451
     RDKit          3D

 25 27  0  0  0  0  0  0  0  0999 V2000
    1.5670   11.8230   -6.8530 O   0  0  0  0  0  0  0  0  0  0  0  0
    0.4920   11.3760   -6.4790 C   0  0  0  0  0  0  0  0  0  0  0  0
   -0.2060   11.8470   -5.3750 N   0  0  0  0  0  0  0  0  0  0  0  0
   -0.1120   10.2490   -7.2270 C   0  0  0  0  0  0  0  0  0  0  0  0
    0.5030   12.8290   -4.5250 C   0  0  2  0  0  0  0  0  0  0  0  0
   -1.3260   11.1730   -4.8950 C   0  0  0  0  0  0  0  0  0  0  0  0
   -1.2210    9.6580   -6.7660 C   0  0  0  0  0  0  0  0  0  0  0  0
    0.7760   12.2890   -3.1180 C   0  0  0  0  0  0  0  0  0  0  0  0
   -2.0210    8.2310   -7.6570 Br  0  0  0  0  0  0  0  0  0  0  0  0
   -0.1530   14.2260   -4.4590 C   0  0  0  0  0  0  0  0  0  0  0  0
   -1.8320   10.1190   -5.5470 C   0  0  0  0  0  0  0  0  0  0  0  0
    0.3130   11.0340   -2.9360 O   0  0  0  0  0  0  0  0  0  0  0  0
    1.3420   12.8560   -2.2000 O   0  0  0  0  0  0  0  0  0  0  0  0
   -1.5950   14.1930   -3.9480 C   0  0  0  0  0  0  0  0  0  0  0  0
   -1.6970   15.0190   -2.7830 O   0  0  0  0  0  0  0  0  0  0  0  0
   -2.8850   15.0190   -2.1090 C   0  0  0  0  0  0  0  0  0  0  0  0
   -4.1360   15.1540   -2.6910 C   0  0  0  0  0  0  0  0  0  0  0  0
   -2.7580   14.8710   -0.7260 C   0  0  0  0  0  0  0  0  0  0  0  0
   -3.9160   14.8650    0.0460 C   0  0  0  0  0  0  0  0  0  0  0  0
   -5.2900   15.1420   -1.9050 C   0  0  0  0  0  0  0  0  0  0  0  0
   -5.1810   14.9950   -0.5160 C   0  0  0  0  0  0  0  0  0  0  0  0
   -4.0830   14.7100    1.7370 S   0  0  0  0  0  0  0  0  0  0  0  0
   -5.7900   14.8220    1.5810 C   0  0  0  0  0  0  0  0  0  0  0  0
   -6.2360   14.9620    0.3660 N   0  0  0  0  0  0  0  0  0  0  0  0
   -6.6180   14.7730    2.6340 N   0  0  0  0  0  0  0  0  0  0  0  0
  1  2  2  0
  2  3  1  0
  2  4  1  0
  3  5  1  0
  3  6  1  0
  4  7  2  0
  5  8  1  0
  7  9  1  0
  5 10  1  1
  6 11  2  0
  7 11  1  0
  8 12  1  0
  8 13  2  0
 10 14  1  0
 14 15  1  0
 15 16  1  0
 16 17  2  0
 16 18  1  0
 18 19  2  0
 17 20  1  0
 19 21  1  0
 20 21  2  0
 19 22  1  0
 22 23  1  0
 21 24  1  0
 23 24  2  0
 23 25  1  0
M  END
