diamond-x0722_0_A-mac-x0115
     RDKit          3D

 27 29  0  0  0  0  0  0  0  0999 V2000
   -4.2830   15.9520    2.7450 C   0  0  0  0  0  0  0  0  0  0  0  0
   -3.5270   15.4170    1.6400 C   0  0  0  0  0  0  0  0  0  0  0  0
   -2.1830   15.2720    1.6590 N   0  0  0  0  0  0  0  0  0  0  0  0
   -4.1390   15.0410    0.4740 C   0  0  0  0  0  0  0  0  0  0  0  0
   -5.5890   15.1370    0.1970 C   0  0  0  0  0  0  0  0  0  0  0  0
   -3.1350   14.6230   -0.2850 C   0  0  0  0  0  0  0  0  0  0  0  0
   -1.9370   14.8070    0.4190 N   0  0  0  0  0  0  0  0  0  0  0  0
   -3.2300   14.0750   -1.6690 C   0  0  0  0  0  0  0  0  0  0  0  0
   -6.2300   14.0600   -0.6120 C   0  0  0  0  0  0  0  0  0  0  0  0
   -0.8850   14.5020   -0.4120 C   0  0  0  0  0  0  0  0  0  0  0  0
   -7.0860   14.3150   -1.4570 O   0  0  0  0  0  0  0  0  0  0  0  0
   -5.8460   12.7850   -0.3400 N   0  0  0  0  0  0  0  0  0  0  0  0
    0.4600   14.1270   -0.4650 N   0  0  0  0  0  0  0  0  0  0  0  0
   -1.5040   14.7490   -1.5220 C   0  0  0  0  0  0  0  0  0  0  0  0
    1.1340   14.1370   -1.7040 C   0  0  0  0  0  0  0  0  0  0  0  0
   -0.9470   14.6510   -2.7960 C   0  0  0  0  0  0  0  0  0  0  0  0
   -2.8140   15.1580   -1.6240 N   0  0  0  0  0  0  0  0  0  0  0  0
    2.7970   14.0040   -1.6960 S   0  0  0  0  0  0  0  0  0  0  0  0
    0.3580   14.2660   -2.8900 N   0  0  0  0  0  0  0  0  0  0  0  0
   -1.8650   14.9730   -3.7220 C   0  0  0  0  0  0  0  0  0  0  0  0
   -3.0200   15.2830   -2.8830 C   0  0  0  0  0  0  0  0  0  0  0  0
    0.9740   14.4270   -4.2210 C   0  0  0  0  0  0  0  0  0  0  0  0
    0.9710   15.8870   -4.6970 C   0  0  0  0  0  0  0  0  0  0  0  0
   -0.3520   16.3170   -5.0380 O   0  0  0  0  0  0  0  0  0  0  0  0
   -0.3670   17.5810   -5.7140 C   0  0  0  0  0  0  0  0  0  0  0  0
   -1.4610   18.4370   -5.0870 C   0  0  0  0  0  0  0  0  0  0  0  0
    0.9880   18.2640   -5.6340 C   0  0  0  0  0  0  0  0  0  0  0  0
  1  2  1  0
  2  3  2  0
  2  4  1  0
  4  5  1  0
  4  6  2  0
  3  7  1  0
  6  7  1  0
  6  8  1  0
  5  9  1  0
  7 10  1  0
  9 11  2  0
  9 12  1  0
 10 13  1  0
 10 14  2  0
 13 15  1  0
 14 16  1  0
 14 17  1  0
 15 18  2  0
 15 19  1  0
 16 19  1  0
 16 20  2  0
 17 21  2  0
 20 21  1  0
 19 22  1  0
 22 23  1  0
 23 24  1  0
 24 25  1  0
 25 26  1  0
 25 27  1  0
M  END
