diamond-x0849_0_A-mac-x0319
     RDKit          3D

 23 25  0  0  0  0  0  0  0  0999 V2000
   -3.7980   15.1850   -2.8650 Br  0  0  0  0  0  0  0  0  0  0  0  0
   -3.6920   15.1380   -0.9680 C   0  0  0  0  0  0  0  0  0  0  0  0
   -2.4830   14.8870   -0.3230 C   0  0  0  0  0  0  0  0  0  0  0  0
   -4.8470   15.3570   -0.2460 C   0  0  0  0  0  0  0  0  0  0  0  0
   -2.4870   14.8580    1.0720 C   0  0  0  0  0  0  0  0  0  0  0  0
   -4.7290   15.3060    1.1210 C   0  0  0  0  0  0  0  0  0  0  0  0
   -1.2720   14.6670   -0.9870 C   0  0  0  0  0  0  0  0  0  0  0  0
   -3.5820   15.0650    1.7560 N   0  0  0  0  0  0  0  0  0  0  0  0
   -1.4050   14.6250    1.7680 N   0  0  0  0  0  0  0  0  0  0  0  0
   -0.1350   14.4380   -0.2670 C   0  0  0  0  0  0  0  0  0  0  0  0
    1.1490   14.2170   -0.9610 C   0  0  0  0  0  0  0  0  0  0  0  0
   -0.2610   14.4260    1.1160 C   0  0  0  0  0  0  0  0  0  0  0  0
    1.0900   13.7140   -2.3140 N   0  0  0  0  0  0  0  0  0  0  0  0
    0.9780   12.5410   -2.8440 C   0  0  0  0  0  0  0  0  0  0  0  0
    0.8670   11.3820   -2.1610 O   0  0  0  0  0  0  0  0  0  0  0  0
    0.9240   12.4760   -4.3160 C   0  0  0  0  0  0  0  0  0  0  0  0
    0.3000   13.8190   -4.5460 C   0  0  0  0  0  0  0  0  0  0  0  0
    1.0870   14.9820   -4.4090 C   0  0  0  0  0  0  0  0  0  0  0  0
   -1.0510   13.9520   -4.8570 C   0  0  0  0  0  0  0  0  0  0  0  0
    0.5040   16.2380   -4.5770 C   0  0  0  0  0  0  0  0  0  0  0  0
   -1.6200   15.2120   -5.0260 C   0  0  0  0  0  0  0  0  0  0  0  0
    1.2640   17.3500   -4.4320 O   0  0  0  0  0  0  0  0  0  0  0  0
   -0.8410   16.3570   -4.8850 C   0  0  0  0  0  0  0  0  0  0  0  0
  1  2  1  0
  2  3  2  0
  2  4  1  0
  3  5  1  0
  4  6  2  0
  3  7  1  0
  5  8  2  0
  6  8  1  0
  5  9  1  0
  7 10  2  0
 10 11  1  0
  9 12  2  0
 10 12  1  0
 11 13  1  0
 13 14  2  3
 14 15  1  0
 14 16  1  0
 16 17  1  0
 17 18  2  0
 17 19  1  0
 18 20  1  0
 19 21  2  0
 20 22  1  0
 20 23  2  0
 21 23  1  0
M  END
