diamond-x0895_0_A-mac-x0576
     RDKit          3D

 12 13  0  0  0  0  0  0  0  0999 V2000
   -4.6580   15.4250   -1.7200 O   0  0  0  0  0  0  0  0  0  0  0  0
   -4.0950   15.0910   -0.7090 C   0  0  0  0  0  0  0  0  0  0  0  0
   -4.8050   14.9130    0.6250 C   0  0  0  0  0  0  0  0  0  0  0  0
   -2.7820   14.7870   -0.4470 N   0  0  0  0  0  0  0  0  0  0  0  0
   -6.0070   15.0520    0.7990 O   0  0  0  0  0  0  0  0  0  0  0  0
   -3.8150   14.5340    1.6770 C   0  0  0  0  0  0  0  0  0  0  0  0
   -1.7800   14.7470   -1.4120 C   0  0  0  0  0  0  0  0  0  0  0  0
   -2.5620   14.4920    0.8720 C   0  0  0  0  0  0  0  0  0  0  0  0
   -1.9770   14.9270   -2.6030 O   0  0  0  0  0  0  0  0  0  0  0  0
   -1.3420   14.2100    1.3070 C   0  0  0  0  0  0  0  0  0  0  0  0
   -0.5080   14.4980   -0.9630 N   0  0  0  0  0  0  0  0  0  0  0  0
   -0.3280   14.2560    0.2740 C   0  0  0  0  0  0  0  0  0  0  0  0
  1  2  2  0
  2  3  1  0
  2  4  1  0
  3  5  2  0
  3  6  1  0
  4  7  1  0
  4  8  1  0
  6  8  1  0
  7  9  2  0
  8 10  2  0
  7 11  1  0
 10 12  1  0
 11 12  2  0
M  END
