diamond-x0797_0_B-diamond-x0918_1_B
     RDKit          3D

 22 24  0  0  0  0  0  0  0  0999 V2000
   -8.0170   29.9730  -14.8370 C   0  0  0  0  0  0  0  0  0  0  0  0
   -6.8100   29.6080  -14.0180 C   0  0  0  0  0  0  0  0  0  0  0  0
   -5.5660   30.1440  -14.4070 C   0  0  0  0  0  0  0  0  0  0  0  0
   -6.8890   28.7570  -12.8920 C   0  0  0  0  0  0  0  0  0  0  0  0
   -5.6920   28.4860  -12.1870 C   0  0  0  0  0  0  0  0  0  0  0  0
   -4.4040   29.8520  -13.6990 C   0  0  0  0  0  0  0  0  0  0  0  0
   -8.2230   28.1330  -12.4400 C   0  0  1  0  0  0  0  0  0  0  0  0
   -4.4690   29.0270  -12.5890 C   0  0  0  0  0  0  0  0  0  0  0  0
   -8.3860   26.6410  -12.7980 C   0  0  1  0  0  0  0  0  0  0  0  0
   -8.3250   28.1400  -10.9370 C   0  0  0  0  0  0  0  0  0  0  0  0
   -7.2600   26.2780  -13.6930 C   0  0  0  0  0  0  0  0  0  0  0  0
   -8.0210   26.8270  -10.4560 O   0  0  0  0  0  0  0  0  0  0  0  0
   -8.4310   25.9010  -11.4690 C   0  0  0  0  0  0  0  0  0  0  0  0
   -7.5260   26.0780  -14.9930 O   0  0  0  0  0  0  0  0  0  0  0  0
   -6.1480   26.2680  -13.0670 N   0  0  0  0  0  0  0  0  0  0  0  0
   -4.8250   26.1190  -13.4270 C   0  0  0  0  0  0  0  0  0  0  0  0
   -3.9630   25.7120  -12.4230 C   0  0  0  0  0  0  0  0  0  0  0  0
   -4.4300   26.4090  -14.6870 N   0  0  0  0  0  0  0  0  0  0  0  0
   -2.6160   25.6120  -12.6970 C   0  0  0  0  0  0  0  0  0  0  0  0
   -3.1110   26.3070  -14.9280 C   0  0  0  0  0  0  0  0  0  0  0  0
   -1.7090   25.2120  -11.7240 N   0  0  0  0  0  0  0  0  0  0  0  0
   -2.1840   25.9280  -13.9810 C   0  0  0  0  0  0  0  0  0  0  0  0
  1  2  1  0
  2  3  2  0
  2  4  1  0
  4  5  2  0
  3  6  1  0
  7  4  1  1
  5  8  1  0
  6  8  2  0
  7  9  1  0
  7 10  1  0
  9 11  1  6
 10 12  1  0
  9 13  1  0
 12 13  1  0
 11 14  1  0
 11 15  2  3
 15 16  1  0
 16 17  2  0
 16 18  1  0
 17 19  1  0
 18 20  2  0
 19 21  1  0
 19 22  2  0
 20 22  1  0
M  END
