diamond-x0950_1_A-mac-x0439
     RDKit          3D

 18 19  0  0  0  0  0  0  0  0999 V2000
    0.9690   13.6650   -5.2050 C   0  0  0  0  0  0  0  0  0  0  0  0
    1.2370   12.3040   -4.6240 C   0  0  2  0  0  0  0  0  0  0  0  0
    0.5490   11.3710   -5.4550 O   0  0  0  0  0  0  0  0  0  0  0  0
    0.9000   12.1440   -3.1150 C   0  0  0  0  0  0  0  0  0  0  0  0
    0.0080   11.4060   -2.6970 O   0  0  0  0  0  0  0  0  0  0  0  0
    1.7290   12.8750   -2.2960 N   0  0  0  0  0  0  0  0  0  0  0  0
    1.7750   14.1410   -2.4800 C   0  0  0  0  0  0  0  0  0  0  0  0
    2.6600   14.7730   -1.6780 O   0  0  0  0  0  0  0  0  0  0  0  0
    1.0610   15.0490   -3.4460 C   0  0  0  0  0  0  0  0  0  0  0  0
   -0.1310   14.7770   -4.0010 C   0  0  0  0  0  0  0  0  0  0  0  0
    1.5690   16.2540   -3.8630 N   0  0  0  0  0  0  0  0  0  0  0  0
   -0.4350   15.8340   -5.0050 C   0  0  2  0  0  0  0  0  0  0  0  0
    0.7200   16.7360   -4.7090 C   0  0  0  0  0  0  0  0  0  0  0  0
   -1.6920   16.5940   -5.1880 C   0  0  0  0  0  0  0  0  0  0  0  0
    0.7980   18.0370   -5.4110 C   0  0  0  0  0  0  0  0  0  0  0  0
   -3.1610   15.7480   -4.9230 Cl  0  0  0  0  0  0  0  0  0  0  0  0
   -1.6530   17.8840   -5.5790 C   0  0  0  0  0  0  0  0  0  0  0  0
   -0.3800   18.5480   -5.8140 C   0  0  0  0  0  0  0  0  0  0  0  0
  2  1  1  6
  2  3  1  0
  2  4  1  0
  4  5  2  0
  4  6  1  0
  6  7  2  3
  7  8  1  0
  7  9  1  0
  9 10  2  0
  9 11  1  0
 12 10  1  1
 11 13  2  0
 12 13  1  0
 12 14  1  0
 13 15  1  0
 14 16  1  0
 14 17  2  0
 15 18  2  0
 17 18  1  0
M  END
