diamond-x0574_0_A-diamond-x0592_0_A
     RDKit          3D

 21 23  0  0  0  0  0  0  0  0999 V2000
    0.3230   14.0170    2.4770 N   0  0  0  0  0  0  0  0  0  0  0  0
   -0.6610   14.0570    1.6830 C   0  0  0  0  0  0  0  0  0  0  0  0
   -1.8090   14.3130    2.1600 N   0  0  0  0  0  0  0  0  0  0  0  0
   -0.4820   13.7710    0.0300 S   0  0  0  0  0  0  0  0  0  0  0  0
   -2.6990   14.2940    1.2050 C   0  0  0  0  0  0  0  0  0  0  0  0
   -2.1590   14.0010   -0.0610 C   0  0  0  0  0  0  0  0  0  0  0  0
   -4.0560   14.5430    1.3950 C   0  0  0  0  0  0  0  0  0  0  0  0
   -2.9100   13.9240   -1.1810 C   0  0  0  0  0  0  0  0  0  0  0  0
   -4.7580   14.4840    0.2460 C   0  0  0  0  0  0  0  0  0  0  0  0
   -4.2150   14.1730   -0.9900 C   0  0  0  0  0  0  0  0  0  0  0  0
   -6.0290   14.7300   -0.1010 C   0  0  0  0  0  0  0  0  0  0  0  0
   -5.8530   15.4710   -1.1370 C   0  0  0  0  0  0  0  0  0  0  0  0
   -7.3250   14.5470    0.1530 N   0  0  0  0  0  0  0  0  0  0  0  0
   -4.4650   15.7490   -1.4720 C   0  0  0  0  0  0  0  0  0  0  0  0
   -7.1170   15.7660   -1.5930 C   0  0  0  0  0  0  0  0  0  0  0  0
   -8.0510   15.1950   -0.7960 N   0  0  0  0  0  0  0  0  0  0  0  0
   -7.9510   13.8240    1.2130 C   0  0  0  0  0  0  0  0  0  0  0  0
   -3.7090   15.9720   -0.3490 N   0  0  0  0  0  0  0  0  0  0  0  0
   -3.9340   15.7480   -2.5750 O   0  0  0  0  0  0  0  0  0  0  0  0
   -7.6800   14.5390    2.5240 C   0  0  0  0  0  0  0  0  0  0  0  0
   -8.1510   13.7310    3.6990 C   0  0  0  0  0  0  0  0  0  0  0  0
  1  2  1  0
  2  3  2  0
  2  4  1  0
  3  5  1  0
  4  6  1  0
  5  6  2  0
  5  7  1  0
  6  8  1  0
  7  9  2  0
  8 10  2  0
  9 10  1  0
  9 11  1  0
 11 12  2  0
 11 13  1  0
 12 14  1  0
 12 15  1  0
 13 16  1  0
 15 16  2  0
 13 17  1  0
 14 18  1  0
 14 19  2  0
 17 20  1  0
 20 21  1  0
M  END
