diamond-x0742_0_A-diamond-x0253_0_A
     RDKit          3D

 31 34  0  0  0  0  0  0  0  0999 V2000
   -5.5960   12.1780   -0.4190 C   0  0  0  0  0  0  0  0  0  0  0  0
   -6.4040   11.9290    0.8300 C   0  0  0  0  0  0  0  0  0  0  0  0
   -5.5110   11.3190   -1.3030 O   0  0  0  0  0  0  0  0  0  0  0  0
   -4.9110   13.5200   -0.6090 C   0  0  2  0  0  0  0  0  0  0  0  0
   -4.7870   14.4110    0.6480 C   0  0  2  0  0  0  0  0  0  0  0  0
   -5.8420   14.3920   -1.4630 C   0  0  0  0  0  0  0  0  0  0  0  0
   -3.5470   13.3410   -1.2990 C   0  0  0  0  0  0  0  0  0  0  0  0
   -4.4690   15.7580    0.0060 C   0  0  0  0  0  0  0  0  0  0  0  0
   -2.3520   13.7590   -0.4980 C   0  0  0  0  0  0  0  0  0  0  0  0
   -3.6710   14.0190    1.5850 C   0  0  0  0  0  0  0  0  0  0  0  0
   -5.3450   15.8120   -1.2380 C   0  0  0  0  0  0  0  0  0  0  0  0
   -1.1410   13.8250   -1.1580 C   0  0  0  0  0  0  0  0  0  0  0  0
   -2.3880   14.0820    0.8590 C   0  0  0  0  0  0  0  0  0  0  0  0
   -1.3090   14.4600    1.5680 N   0  0  0  0  0  0  0  0  0  0  0  0
   -0.0070   14.2050   -0.4850 C   0  0  0  0  0  0  0  0  0  0  0  0
    1.2910   14.2740   -1.2240 C   0  0  0  0  0  0  0  0  0  0  0  0
   -0.1510   14.5170    0.8780 C   0  0  0  0  0  0  0  0  0  0  0  0
    1.4280   13.6810   -2.5580 N   0  0  0  0  0  0  0  0  0  0  0  0
    0.9830   12.5540   -3.0010 C   0  0  0  0  0  0  0  0  0  0  0  0
    0.2460   11.6140   -2.3580 O   0  0  0  0  0  0  0  0  0  0  0  0
    1.3910   12.2640   -4.4280 C   0  0  0  0  0  0  0  0  0  0  0  0
    0.3710   11.9410   -5.4140 N   0  0  0  0  0  0  0  0  0  0  0  0
    0.9360   11.7070   -6.6420 C   0  0  0  0  0  0  0  0  0  0  0  0
    2.0500   12.1480   -6.8100 O   0  0  0  0  0  0  0  0  0  0  0  0
    0.2490   10.8640   -7.6750 C   0  0  0  0  0  0  0  0  0  0  0  0
   -0.9120   10.1410   -7.3870 C   0  0  0  0  0  0  0  0  0  0  0  0
    0.7960   10.7810   -8.9630 C   0  0  0  0  0  0  0  0  0  0  0  0
   -1.5050    9.3270   -8.3560 C   0  0  0  0  0  0  0  0  0  0  0  0
    0.2040    9.9800   -9.9380 C   0  0  0  0  0  0  0  0  0  0  0  0
   -2.7330    8.5390   -8.0100 C   0  0  0  0  0  0  0  0  0  0  0  0
   -0.9430    9.2510   -9.6330 C   0  0  0  0  0  0  0  0  0  0  0  0
  1  2  1  0
  1  3  2  0
  4  1  1  1
  4  5  1  0
  4  6  1  0
  4  7  1  0
  5  8  1  6
  7  9  1  0
  5 10  1  0
  6 11  1  0
  8 11  1  0
  9 12  2  0
  9 13  1  0
 10 13  1  0
 13 14  2  0
 12 15  1  0
 15 16  1  0
 14 17  1  0
 15 17  2  0
 16 18  1  0
 18 19  2  3
 19 20  1  0
 19 21  1  0
 21 22  1  0
 22 23  1  0
 23 24  2  0
 23 25  1  0
 25 26  2  0
 25 27  1  0
 26 28  1  0
 27 29  2  0
 28 30  1  0
 28 31  2  0
 29 31  1  0
M  END
