diamond-x0724_0_A-mac-x0137
     RDKit          3D

 25 28  0  0  0  0  0  0  0  0999 V2000
   -8.2300   13.6600    4.4620 N   0  0  0  0  0  0  0  0  0  0  0  0
   -8.6810   13.8570    5.8360 C   0  0  0  0  0  0  0  0  0  0  0  0
   -8.3520   14.8780    3.6700 C   0  0  0  0  0  0  0  0  0  0  0  0
   -7.6500   14.7510    2.3670 C   0  0  0  0  0  0  0  0  0  0  0  0
   -6.2960   14.8940    2.1020 C   0  0  0  0  0  0  0  0  0  0  0  0
   -8.2100   14.4700    1.1020 C   0  0  0  0  0  0  0  0  0  0  0  0
   -7.3040   14.4510    0.1240 N   0  0  0  0  0  0  0  0  0  0  0  0
   -6.1360   14.7210    0.7500 N   0  0  0  0  0  0  0  0  0  0  0  0
   -4.8850   14.8290   -0.0110 C   0  0  1  0  0  0  0  0  0  0  0  0
   -3.5280   14.2760    0.5030 C   0  0  0  0  0  0  0  0  0  0  0  0
   -4.9920   14.5250   -1.4990 C   0  0  0  0  0  0  0  0  0  0  0  0
   -2.3290   14.8230   -0.3870 C   0  0  1  0  0  0  0  0  0  0  0  0
   -4.0020   15.4140   -2.1500 C   0  0  0  0  0  0  0  0  0  0  0  0
   -2.7890   15.5620   -1.6170 C   0  0  0  0  0  0  0  0  0  0  0  0
   -1.4930   15.6260    0.5140 N   0  0  0  0  0  0  0  0  0  0  0  0
   -1.2570   13.8200   -0.9900 C   0  0  1  0  0  0  0  0  0  0  0  0
   -0.6030   14.1730   -2.2810 N   0  0  0  0  0  0  0  0  0  0  0  0
   -0.1950   13.7530    0.0190 N   0  0  0  0  0  0  0  0  0  0  0  0
   -0.4290   14.7900    1.0060 C   0  0  0  0  0  0  0  0  0  0  0  0
   -1.4430   14.4780   -3.4760 C   0  0  0  0  0  0  0  0  0  0  0  0
    0.5010   13.2410   -2.6000 C   0  0  0  0  0  0  0  0  0  0  0  0
   -1.7860   13.2640   -4.3720 C   0  0  2  0  0  0  0  0  0  0  0  0
    0.0480   11.9540   -3.2950 C   0  0  0  0  0  0  0  0  0  0  0  0
   -2.8370   12.5870   -3.8350 F   0  0  0  0  0  0  0  0  0  0  0  0
   -0.6460   12.2750   -4.6040 C   0  0  0  0  0  0  0  0  0  0  0  0
  1  2  1  0
  1  3  1  0
  3  4  1  0
  4  5  2  0
  4  6  1  0
  6  7  2  0
  5  8  1  0
  7  8  1  0
  9  8  1  1
  9 10  1  0
  9 11  1  0
 12 10  1  1
 11 13  1  0
 12 14  1  0
 13 14  2  0
 12 15  1  0
 12 16  1  0
 16 17  1  6
 16 18  1  0
 15 19  1  0
 18 19  1  0
 17 20  1  0
 17 21  1  0
 20 22  1  0
 21 23  1  0
 22 24  1  1
 22 25  1  0
 23 25  1  0
M  END
