diamond-x0895_0_A-mac-x0212
     RDKit          3D

 15 15  0  0  0  0  0  0  0  0999 V2000
   -1.4310   14.4550    1.4710 O   0  0  0  0  0  0  0  0  0  0  0  0
   -2.3600   14.8690    0.7680 C   0  0  0  0  0  0  0  0  0  0  0  0
   -3.4590   15.7320    1.3620 C   0  0  0  0  0  0  0  0  0  0  0  0
   -2.6730   14.6950   -0.6020 N   0  0  0  0  0  0  0  0  0  0  0  0
   -1.8720   14.4370   -1.7400 C   0  0  0  0  0  0  0  0  0  0  0  0
   -4.5170   15.3400    0.5200 N   0  0  0  0  0  0  0  0  0  0  0  0
   -3.9780   15.1020   -0.7570 C   0  0  0  0  0  0  0  0  0  0  0  0
   -4.5990   15.2530   -1.7930 O   0  0  0  0  0  0  0  0  0  0  0  0
   -5.3730   14.2880    1.1810 N   0  0  0  0  0  0  0  0  0  0  0  0
   -0.7420   13.9690   -1.7930 O   0  0  0  0  0  0  0  0  0  0  0  0
   -2.4400   14.7450   -2.9420 O   0  0  0  0  0  0  0  0  0  0  0  0
   -7.0800   14.2640    0.9950 S   0  0  0  0  0  0  0  0  0  0  0  0
   -7.2300   12.5160    1.2680 C   0  0  0  0  0  0  0  0  0  0  0  0
   -7.7070   14.9650    2.0950 O   0  0  0  0  0  0  0  0  0  0  0  0
   -7.3860   14.5520   -0.3860 O   0  0  0  0  0  0  0  0  0  0  0  0
  1  2  2  0
  2  3  1  0
  2  4  1  0
  4  5  1  0
  3  6  1  0
  4  7  1  0
  6  7  1  0
  7  8  2  0
  6  9  1  0
  5 10  2  0
  5 11  1  0
 12  9  1  0
 12 13  1  0
 12 14  2  0
 12 15  2  0
M  END
