diamond-x0864_0_A-mac-x0302
     RDKit          3D

 24 25  0  0  0  0  0  0  0  0999 V2000
    1.4770   11.6560   -7.0080 O   0  0  0  0  0  0  0  0  0  0  0  0
    0.4100   11.1960   -6.6310 C   0  0  0  0  0  0  0  0  0  0  0  0
   -0.1320   11.7750   -5.5670 N   0  0  0  0  0  0  0  0  0  0  0  0
   -0.1370   10.1330   -7.2940 C   0  0  0  0  0  0  0  0  0  0  0  0
    0.6810   12.7010   -4.8180 C   0  0  0  0  0  0  0  0  0  0  0  0
   -1.2450   11.1840   -5.0790 C   0  0  0  0  0  0  0  0  0  0  0  0
   -1.2960    9.5620   -6.7940 C   0  0  0  0  0  0  0  0  0  0  0  0
    0.3910   13.2090   -3.4070 S   0  0  0  0  0  0  0  0  0  0  0  0
   -2.0820    8.0650   -7.7050 Br  0  0  0  0  0  0  0  0  0  0  0  0
   -1.8310   10.0930   -5.6700 C   0  0  0  0  0  0  0  0  0  0  0  0
   -0.0200   11.9980   -2.6660 O   0  0  0  0  0  0  0  0  0  0  0  0
    1.8200   12.6860   -2.2080 O   0  0  0  0  0  0  0  0  0  0  0  0
    1.6010   14.4070   -3.3020 O   0  0  0  0  0  0  0  0  0  0  0  0
   -0.6030   14.2960   -2.7410 C   0  0  0  0  0  0  0  0  0  0  0  0
   -2.0480   13.9720   -2.6090 N   0  0  0  0  0  0  0  0  0  0  0  0
   -3.0310   14.9760   -2.4240 C   0  0  0  0  0  0  0  0  0  0  0  0
   -3.2240   15.7970   -3.3490 O   0  0  0  0  0  0  0  0  0  0  0  0
   -3.8050   15.0250   -1.2150 C   0  0  0  0  0  0  0  0  0  0  0  0
   -5.1800   15.0170   -1.3360 C   0  0  0  0  0  0  0  0  0  0  0  0
   -3.2640   15.0690    0.0380 C   0  0  0  0  0  0  0  0  0  0  0  0
   -5.9840   15.0430   -0.2500 C   0  0  0  0  0  0  0  0  0  0  0  0
   -4.0300   15.0990    1.1560 C   0  0  0  0  0  0  0  0  0  0  0  0
   -7.3790   15.0310   -0.3340 O   0  0  0  0  0  0  0  0  0  0  0  0
   -5.4000   15.0830    1.0050 C   0  0  0  0  0  0  0  0  0  0  0  0
  1  2  2  0
  2  3  1  0
  2  4  1  0
  3  5  1  0
  3  6  1  0
  4  7  2  0
  5  8  1  0
  7  9  1  0
  6 10  2  0
  7 10  1  0
  8 11  1  0
  8 12  2  0
  8 13  1  0
  8 14  1  0
 14 15  1  0
 15 16  1  0
 16 17  2  0
 16 18  1  0
 18 19  2  0
 18 20  1  0
 19 21  1  0
 20 22  2  0
 21 23  1  0
 21 24  2  0
 22 24  1  0
M  END
