diamond-x0574_0_A-mac-x0354
     RDKit          3D

 29 32  0  0  0  0  0  0  0  0999 V2000
    0.2910   13.7770    1.8070 N   0  0  0  0  0  0  0  0  0  0  0  0
   -0.9920   13.8900    1.2510 C   0  0  1  0  0  0  0  0  0  0  0  0
   -1.1660   15.1480    0.7420 N   0  0  0  0  0  0  0  0  0  0  0  0
   -1.2320   13.1690   -0.3640 S   0  0  0  0  0  0  0  0  0  0  0  0
   -0.1900   14.9210   -0.4860 C   0  0  0  0  0  0  0  0  0  0  0  0
   -2.6320   14.7980    0.8160 C   0  0  2  0  0  0  0  0  0  0  0  0
   -2.8930   13.7960   -0.3020 C   0  0  1  0  0  0  0  0  0  0  0  0
   -0.3490   14.1000   -1.8780 C   0  0  0  0  0  0  0  0  0  0  0  0
   -3.7960   15.7930    1.0460 C   0  0  0  0  0  0  0  0  0  0  0  0
   -3.5190   14.3760   -1.5080 C   0  0  0  0  0  0  0  0  0  0  0  0
   -0.0430   12.5940   -1.8520 N   0  0  0  0  0  0  0  0  0  0  0  0
   -4.9640   15.6370    0.0400 C   0  0  1  0  0  0  0  0  0  0  0  0
   -4.5100   15.2380   -1.3260 C   0  0  0  0  0  0  0  0  0  0  0  0
   -5.9900   14.7090    0.4770 O   0  0  0  0  0  0  0  0  0  0  0  0
    0.3730   11.7430   -2.8190 C   0  0  0  0  0  0  0  0  0  0  0  0
   -6.2260   14.6200    1.8890 C   0  0  0  0  0  0  0  0  0  0  0  0
    0.5000   10.4240   -2.4700 O   0  0  0  0  0  0  0  0  0  0  0  0
    0.7330   11.9320   -4.2650 C   0  0  0  0  0  0  0  0  0  0  0  0
    1.7230   12.7750   -4.8660 C   0  0  0  0  0  0  0  0  0  0  0  0
    0.1850   11.2810   -5.4060 C   0  0  0  0  0  0  0  0  0  0  0  0
    0.8480   11.7490   -6.5020 N   0  0  0  0  0  0  0  0  0  0  0  0
    1.7870   12.6610   -6.2050 N   0  0  0  0  0  0  0  0  0  0  0  0
   -0.8550   10.2840   -5.6090 C   0  0  0  0  0  0  0  0  0  0  0  0
    0.5790   11.3080   -7.8640 C   0  0  0  0  0  0  0  0  0  0  0  0
   -0.5850    9.0960   -6.3160 C   0  0  0  0  0  0  0  0  0  0  0  0
   -2.1350   10.5040   -5.1100 C   0  0  0  0  0  0  0  0  0  0  0  0
   -1.5830    8.1480   -6.5110 C   0  0  0  0  0  0  0  0  0  0  0  0
   -3.1340    9.5530   -5.3090 C   0  0  0  0  0  0  0  0  0  0  0  0
   -2.8600    8.3800   -6.0060 C   0  0  0  0  0  0  0  0  0  0  0  0
  2  1  1  6
  2  3  1  0
  2  4  1  0
  3  5  1  0
  3  6  1  0
  4  7  1  0
  6  7  1  0
  5  8  1  0
  6  9  1  6
  7 10  1  6
  8 11  1  0
  9 12  1  0
 10 13  2  0
 12 13  1  0
 12 14  1  1
 11 15  2  3
 14 16  1  0
 15 17  1  0
 15 18  1  0
 18 19  1  0
 18 20  2  0
 20 21  1  0
 19 22  2  0
 21 22  1  0
 20 23  1  0
 21 24  1  0
 23 25  2  0
 23 26  1  0
 25 27  1  0
 26 28  2  0
 27 29  2  0
 28 29  1  0
M  END
