diamond-x0689_0_A-diamond-x0926_0_A
     RDKit          3D

 14 15  0  0  0  0  0  0  0  0999 V2000
   -3.2720   15.2600    1.7360 N   0  0  0  0  0  0  0  0  0  0  0  0
   -2.0180   15.1850    1.0490 C   0  0  1  0  0  0  0  0  0  0  0  0
   -1.4090   14.1510    1.7870 N   0  0  0  0  0  0  0  0  0  0  0  0
   -2.0310   14.9440   -0.3600 N   0  0  0  0  0  0  0  0  0  0  0  0
   -0.8970   14.3980   -0.9230 C   0  0  0  0  0  0  0  0  0  0  0  0
   -0.0470   14.0760    1.3390 C   0  0  0  0  0  0  0  0  0  0  0  0
   -3.3390   14.6130   -0.8030 C   0  0  2  0  0  0  0  0  0  0  0  0
    0.0870   13.9690   -0.1490 C   0  0  0  0  0  0  0  0  0  0  0  0
   -3.9590   15.4160   -1.8540 N   0  0  0  0  0  0  0  0  0  0  0  0
   -4.1490   14.5320    0.4600 C   0  0  0  0  0  0  0  0  0  0  0  0
   -5.4380   14.8150    0.5120 C   0  0  0  0  0  0  0  0  0  0  0  0
   -5.3690   15.3500   -1.8620 N   0  0  0  0  0  0  0  0  0  0  0  0
   -6.1320   15.2100   -0.7230 C   0  0  0  0  0  0  0  0  0  0  0  0
   -7.3390   15.3790   -0.7170 O   0  0  0  0  0  0  0  0  0  0  0  0
  2  1  1  1
  2  3  1  0
  2  4  1  0
  4  5  1  0
  3  6  1  0
  7  4  1  1
  5  8  2  0
  6  8  1  0
  7  9  1  0
  7 10  1  0
 10 11  2  0
  9 12  1  0
 11 13  1  0
 12 13  1  0
 13 14  2  0
M  END
