diamond-x0465_0_A-diamond-x0159_0_B
     RDKit          3D

 32 35  0  0  0  0  0  0  0  0999 V2000
    2.0730   13.1630   -4.9680 C   0  0  0  0  0  0  0  0  0  0  0  0
    0.7280   12.5120   -4.6890 C   0  0  1  0  0  0  0  0  0  0  0  0
    0.6160   11.3500   -5.5310 O   0  0  0  0  0  0  0  0  0  0  0  0
    0.7240   12.1200   -3.2090 C   0  0  0  0  0  0  0  0  0  0  0  0
    1.0730   12.8010   -2.2590 O   0  0  0  0  0  0  0  0  0  0  0  0
    0.2710   10.8660   -2.9990 O   0  0  0  0  0  0  0  0  0  0  0  0
   -0.6110   10.7440   -5.6740 C   0  0  0  0  0  0  0  0  0  0  0  0
   -0.7070    9.4980   -6.3410 C   0  0  0  0  0  0  0  0  0  0  0  0
   -1.7830   11.3250   -5.1750 C   0  0  0  0  0  0  0  0  0  0  0  0
    0.2820    8.7390   -6.9020 O   0  0  0  0  0  0  0  0  0  0  0  0
   -1.9510    8.8810   -6.4850 C   0  0  0  0  0  0  0  0  0  0  0  0
   -3.0210   10.6930   -5.3280 C   0  0  0  0  0  0  0  0  0  0  0  0
    1.0560    9.2650   -7.9670 C   0  0  0  0  0  0  0  0  0  0  0  0
   -3.1030    9.4700   -5.9840 C   0  0  0  0  0  0  0  0  0  0  0  0
    1.0260    8.3290   -9.1930 C   0  0  1  0  0  0  0  0  0  0  0  0
    0.9850    9.2040  -10.3740 N   0  0  0  0  0  0  0  0  0  0  0  0
    2.0780    7.2080   -9.3010 C   0  0  0  0  0  0  0  0  0  0  0  0
    1.9500    9.3540  -11.3100 C   0  0  0  0  0  0  0  0  0  0  0  0
    1.8790    5.9090   -8.5360 C   0  0  0  0  0  0  0  0  0  0  0  0
    1.8690   10.4980  -12.0460 N   0  0  0  0  0  0  0  0  0  0  0  0
    2.9770    8.6170  -11.6860 N   0  0  0  0  0  0  0  0  0  0  0  0
    2.5640    4.7710   -8.9700 C   0  0  0  0  0  0  0  0  0  0  0  0
    1.0360    5.8110   -7.4130 C   0  0  0  0  0  0  0  0  0  0  0  0
    3.5650    9.3300  -12.7190 C   0  0  0  0  0  0  0  0  0  0  0  0
    2.8760   10.5170  -12.9540 C   0  0  0  0  0  0  0  0  0  0  0  0
    2.4180    3.5590   -8.3130 C   0  0  0  0  0  0  0  0  0  0  0  0
    0.8930    4.5880   -6.7540 C   0  0  0  0  0  0  0  0  0  0  0  0
    1.5860    3.4720   -7.2190 C   0  0  0  0  0  0  0  0  0  0  0  0
    3.2270   11.4470  -13.9300 C   0  0  0  0  0  0  0  0  0  0  0  0
    4.6850    9.0410  -13.5110 C   0  0  0  0  0  0  0  0  0  0  0  0
    4.3420   11.1420  -14.7070 C   0  0  0  0  0  0  0  0  0  0  0  0
    5.0630    9.9590  -14.5060 C   0  0  0  0  0  0  0  0  0  0  0  0
  2  1  1  6
  2  3  1  0
  2  4  1  0
  4  5  2  0
  4  6  1  0
  3  7  1  0
  7  8  2  0
  7  9  1  0
  8 10  1  0
  8 11  1  0
  9 12  2  0
 10 13  1  0
 11 14  2  0
 12 14  1  0
 15 13  1  1
 15 16  1  0
 15 17  1  0
 16 18  1  0
 17 19  1  0
 18 20  1  0
 18 21  2  0
 19 22  2  0
 19 23  1  0
 21 24  1  0
 20 25  1  0
 24 25  2  0
 22 26  1  0
 23 27  2  0
 26 28  2  0
 27 28  1  0
 25 29  1  0
 24 30  1  0
 29 31  2  0
 30 32  2  0
 31 32  1  0
M  END
