diamond-x0950_0_A-mac-x0282
     RDKit          3D

 16 17  0  0  0  0  0  0  0  0999 V2000
    2.8670   12.9730   -3.8410 C   0  0  0  0  0  0  0  0  0  0  0  0
    1.3520   12.8750   -3.9270 C   0  0  1  0  0  0  0  0  0  0  0  0
    1.0220   12.3930   -5.2290 O   0  0  0  0  0  0  0  0  0  0  0  0
    0.7840   11.9800   -2.8040 C   0  0  0  0  0  0  0  0  0  0  0  0
    0.2470   10.8990   -3.0060 O   0  0  0  0  0  0  0  0  0  0  0  0
    0.9530   12.5080   -1.5390 O   0  0  0  0  0  0  0  0  0  0  0  0
    0.9640   13.9360   -1.3280 C   0  0  0  0  0  0  0  0  0  0  0  0
   -0.2760   14.2760   -0.5570 C   0  0  0  0  0  0  0  0  0  0  0  0
   -1.4110   14.6060   -1.2820 C   0  0  0  0  0  0  0  0  0  0  0  0
   -0.3670   14.2730    0.8490 C   0  0  0  0  0  0  0  0  0  0  0  0
   -2.5690   14.9080   -0.5780 C   0  0  0  0  0  0  0  0  0  0  0  0
   -1.4660   14.5590    1.5870 N   0  0  0  0  0  0  0  0  0  0  0  0
   -3.8850   15.2780   -0.9440 C   0  0  0  0  0  0  0  0  0  0  0  0
   -2.5210   14.8630    0.8100 C   0  0  0  0  0  0  0  0  0  0  0  0
   -4.5950   15.4400    0.2150 C   0  0  0  0  0  0  0  0  0  0  0  0
   -3.7590   15.1870    1.2690 N   0  0  0  0  0  0  0  0  0  0  0  0
  2  1  1  6
  2  3  1  0
  2  4  1  0
  4  5  2  0
  4  6  1  0
  6  7  1  0
  7  8  1  0
  8  9  2  0
  8 10  1  0
  9 11  1  0
 10 12  2  0
 11 13  1  0
 11 14  2  0
 12 14  1  0
 13 15  2  0
 14 16  1  0
 15 16  1  0
M  END
