diamond-x0895_0_A-mac-x0375
     RDKit          3D

 21 22  0  0  0  0  0  0  0  0999 V2000
   -1.6320   14.5700    1.9610 O   0  0  0  0  0  0  0  0  0  0  0  0
   -2.4680   15.0190    1.1870 C   0  0  0  0  0  0  0  0  0  0  0  0
   -3.7890   15.6820    1.5400 C   0  0  0  0  0  0  0  0  0  0  0  0
   -2.3920   15.0300   -0.1720 N   0  0  0  0  0  0  0  0  0  0  0  0
   -1.2000   15.4770   -0.8770 C   0  0  0  0  0  0  0  0  0  0  0  0
   -4.5290   15.2280    0.4170 N   0  0  0  0  0  0  0  0  0  0  0  0
   -3.6750   15.1590   -0.6570 C   0  0  0  0  0  0  0  0  0  0  0  0
   -4.0440   15.2120   -1.8160 O   0  0  0  0  0  0  0  0  0  0  0  0
   -0.0510   14.4600   -0.7790 C   0  0  0  0  0  0  0  0  0  0  0  0
   -0.2760   13.2680   -1.7060 C   0  0  0  0  0  0  0  0  0  0  0  0
    0.9210   12.9830   -2.4480 O   0  0  0  0  0  0  0  0  0  0  0  0
    0.7460   12.0190   -3.3880 C   0  0  0  0  0  0  0  0  0  0  0  0
    0.5420   10.8420   -3.1230 O   0  0  0  0  0  0  0  0  0  0  0  0
    0.8200   12.5890   -4.8060 C   0  0  0  0  0  0  0  0  0  0  0  0
    0.7390   11.6680   -5.8870 O   0  0  0  0  0  0  0  0  0  0  0  0
   -0.3500   10.8450   -6.0220 C   0  0  0  0  0  0  0  0  0  0  0  0
   -0.3850    9.6720   -6.7760 C   0  0  0  0  0  0  0  0  0  0  0  0
   -1.5060   11.2460   -5.3380 C   0  0  0  0  0  0  0  0  0  0  0  0
   -1.5480    8.9050   -6.8460 C   0  0  0  0  0  0  0  0  0  0  0  0
   -2.6710   10.4780   -5.4100 C   0  0  0  0  0  0  0  0  0  0  0  0
   -2.6940    9.3100   -6.1620 C   0  0  0  0  0  0  0  0  0  0  0  0
  1  2  2  0
  2  3  1  0
  2  4  1  0
  4  5  1  0
  3  6  1  0
  4  7  1  0
  6  7  1  0
  7  8  2  0
  5  9  1  0
  9 10  1  0
 10 11  1  0
 11 12  1  0
 12 13  2  0
 12 14  1  0
 14 15  1  0
 15 16  1  0
 16 17  2  0
 16 18  1  0
 17 19  1  0
 18 20  2  0
 19 21  2  0
 20 21  1  0
M  END
