diamond-x0742_0_A-mac-x0283
     RDKit          3D

 21 24  0  0  0  0  0  0  0  0999 V2000
   -5.0570   12.4900   -1.1500 C   0  0  0  0  0  0  0  0  0  0  0  0
   -5.8450   11.9630    0.0390 C   0  0  0  0  0  0  0  0  0  0  0  0
   -4.9040   11.7430   -2.1170 O   0  0  0  0  0  0  0  0  0  0  0  0
   -4.4530   13.9320   -1.1200 C   0  0  2  0  0  0  0  0  0  0  0  0
   -4.6120   14.4810    0.2810 C   0  0  1  0  0  0  0  0  0  0  0  0
   -5.2480   15.0590   -1.8840 C   0  0  0  0  0  0  0  0  0  0  0  0
   -3.0000   13.9080   -1.5850 C   0  0  0  0  0  0  0  0  0  0  0  0
   -6.1120   14.6020    0.2310 C   0  0  2  0  0  0  0  0  0  0  0  0
   -1.9960   14.1070   -0.5030 C   0  0  0  0  0  0  0  0  0  0  0  0
   -3.6870   13.9460    1.3480 C   0  0  0  0  0  0  0  0  0  0  0  0
   -6.0390   15.7820   -0.7630 C   0  0  0  0  0  0  0  0  0  0  0  0
   -0.6870   14.2870   -0.8980 C   0  0  0  0  0  0  0  0  0  0  0  0
   -2.2920   14.1250    0.8670 C   0  0  0  0  0  0  0  0  0  0  0  0
   -7.1060   14.4510    1.3730 C   0  0  1  0  0  0  0  0  0  0  0  0
   -6.9020   13.7090   -0.6660 C   0  0  0  0  0  0  0  0  0  0  0  0
   -6.9400   15.1380    2.6130 N   0  0  0  0  0  0  0  0  0  0  0  0
   -1.3610   14.3110    1.8110 N   0  0  0  0  0  0  0  0  0  0  0  0
    0.2740   14.4780    0.0490 C   0  0  0  0  0  0  0  0  0  0  0  0
   -8.3080   14.9340    0.7340 N   0  0  0  0  0  0  0  0  0  0  0  0
   -8.1550   14.4110   -0.6440 O   0  0  0  0  0  0  0  0  0  0  0  0
   -0.1100   14.4800    1.3800 C   0  0  0  0  0  0  0  0  0  0  0  0
  1  2  1  0
  1  3  2  0
  4  1  1  1
  4  5  1  0
  4  6  1  0
  4  7  1  0
  5  8  1  0
  7  9  1  0
  5 10  1  1
  6 11  1  0
  8 11  1  6
  9 12  2  0
  9 13  1  0
 10 13  1  0
  8 14  1  0
  8 15  1  0
 14 16  1  1
 13 17  2  0
 12 18  1  0
 14 19  1  0
 15 20  1  0
 19 20  1  0
 17 21  1  0
 18 21  2  0
M  END
