diamond-x0685_0_A-diamond-x0805_0_A
     RDKit          3D

 28 30  0  0  0  0  0  0  0  0999 V2000
   -6.2860   14.8180    2.3560 N   0  0  0  0  0  0  0  0  0  0  0  0
   -7.7200   14.7350    2.6080 C   0  0  0  0  0  0  0  0  0  0  0  0
   -8.1030   13.3310    3.0340 C   0  0  0  0  0  0  0  0  0  0  0  0
   -5.8170   14.9150    1.0270 C   0  0  0  0  0  0  0  0  0  0  0  0
   -4.4650   14.9390    0.7470 C   0  0  0  0  0  0  0  0  0  0  0  0
   -6.6850   15.0040   -0.0090 N   0  0  0  0  0  0  0  0  0  0  0  0
   -3.3710   14.8360    1.6650 C   0  0  0  0  0  0  0  0  0  0  0  0
   -3.9990   15.0700   -0.5370 C   0  0  0  0  0  0  0  0  0  0  0  0
   -6.1880   15.1250   -1.2830 C   0  0  0  0  0  0  0  0  0  0  0  0
   -2.2250   14.8710    0.8020 O   0  0  0  0  0  0  0  0  0  0  0  0
   -4.8380   15.1630   -1.5730 C   0  0  0  0  0  0  0  0  0  0  0  0
   -4.2580   15.2800   -2.8670 C   0  0  0  0  0  0  0  0  0  0  0  0
   -2.3120   14.3070   -0.4900 C   0  0  0  0  0  0  0  0  0  0  0  0
   -3.7200   15.3540   -3.8910 N   0  0  0  0  0  0  0  0  0  0  0  0
   -3.4520   13.5260   -0.8040 C   0  0  0  0  0  0  0  0  0  0  0  0
   -1.3440   14.4600   -1.4860 C   0  0  0  0  0  0  0  0  0  0  0  0
   -3.6040   12.9330   -2.0690 C   0  0  0  0  0  0  0  0  0  0  0  0
   -1.4790   13.8650   -2.7520 C   0  0  0  0  0  0  0  0  0  0  0  0
   -2.6190   13.1030   -3.0400 C   0  0  0  0  0  0  0  0  0  0  0  0
   -0.3980   14.0290   -3.7960 C   0  0  2  0  0  0  0  0  0  0  0  0
    0.8570   13.2780   -3.3370 C   0  0  1  0  0  0  0  0  0  0  0  0
    0.0790   15.4480   -4.0530 C   0  0  0  0  0  0  0  0  0  0  0  0
    0.5010   12.1190   -2.4520 C   0  0  0  0  0  0  0  0  0  0  0  0
    1.7410   12.9290   -4.4970 C   0  0  0  0  0  0  0  0  0  0  0  0
    1.5450   15.3790   -4.4740 C   0  0  0  0  0  0  0  0  0  0  0  0
    0.2710   10.9270   -3.0480 O   0  0  0  0  0  0  0  0  0  0  0  0
    0.4230   12.2840   -1.2490 O   0  0  0  0  0  0  0  0  0  0  0  0
    1.9200   14.1660   -5.1760 O   0  0  0  0  0  0  0  0  0  0  0  0
  1  2  1  0
  2  3  1  0
  1  4  1  0
  4  5  2  0
  4  6  1  0
  5  7  1  0
  5  8  1  0
  6  9  2  0
  7 10  1  0
  8 11  2  0
  9 11  1  0
 11 12  1  0
 10 13  1  0
 12 14  3  0
 13 15  2  0
 13 16  1  0
 15 17  1  0
 16 18  2  0
 17 19  2  0
 18 19  1  0
 20 18  1  1
 20 21  1  0
 20 22  1  0
 21 23  1  6
 21 24  1  0
 22 25  1  0
 23 26  1  0
 23 27  2  0
 24 28  1  0
 25 28  1  0
M  END
