diamond-x0950_0_A-mac-x0576
     RDKit          3D

 21 22  0  0  0  0  0  0  0  0999 V2000
    2.9890   12.8640   -4.1770 C   0  0  0  0  0  0  0  0  0  0  0  0
    1.5270   12.7170   -4.5470 C   0  0  1  0  0  0  0  0  0  0  0  0
    1.3510   11.9480   -5.7270 O   0  0  0  0  0  0  0  0  0  0  0  0
    0.7710   12.1980   -3.3250 C   0  0  0  0  0  0  0  0  0  0  0  0
    0.6130   11.0330   -2.9800 O   0  0  0  0  0  0  0  0  0  0  0  0
    0.2940   13.2830   -2.6950 O   0  0  0  0  0  0  0  0  0  0  0  0
   -0.3080   14.2050   -3.6370 C   0  0  0  0  0  0  0  0  0  0  0  0
   -0.3900   15.6270   -3.0920 C   0  0  0  0  0  0  0  0  0  0  0  0
   -1.6570   15.7130   -2.4010 N   0  0  0  0  0  0  0  0  0  0  0  0
   -1.6870   15.4090   -1.1610 C   0  0  0  0  0  0  0  0  0  0  0  0
   -0.6340   15.0080   -0.3830 N   0  0  0  0  0  0  0  0  0  0  0  0
   -3.0500   15.5120   -0.4850 C   0  0  2  0  0  0  0  0  0  0  0  0
   -0.8390   14.2970    0.8290 C   0  0  1  0  0  0  0  0  0  0  0  0
   -3.1380   14.4830    0.6260 C   0  0  1  0  0  0  0  0  0  0  0  0
   -4.1330   15.2700   -1.4660 N   0  0  0  0  0  0  0  0  0  0  0  0
    0.1880   14.3320    1.8050 N   0  0  0  0  0  0  0  0  0  0  0  0
   -2.0470   14.5470    1.5620 N   0  0  0  0  0  0  0  0  0  0  0  0
   -4.3460   14.7450    1.3420 N   0  0  0  0  0  0  0  0  0  0  0  0
   -5.4250   15.5120   -0.7860 C   0  0  0  0  0  0  0  0  0  0  0  0
   -5.5100   14.9860    0.6650 C   0  0  0  0  0  0  0  0  0  0  0  0
   -6.5940   14.7870    1.2100 O   0  0  0  0  0  0  0  0  0  0  0  0
  2  1  1  1
  2  3  1  0
  2  4  1  0
  4  5  2  0
  4  6  1  0
  6  7  1  0
  7  8  1  0
  8  9  1  0
  9 10  2  3
 10 11  1  0
 10 12  1  0
 11 13  1  0
 12 14  1  0
 12 15  1  6
 13 16  1  1
 13 17  1  0
 14 17  1  1
 14 18  1  0
 15 19  1  0
 18 20  1  0
 19 20  1  0
 20 21  2  0
M  END
