diamond-x0685_1_A-diamond-x0910_0_A
     RDKit          3D

 21 22  0  0  0  0  0  0  0  0999 V2000
   -1.5160   10.5230   -4.9750 N   0  0  0  0  0  0  0  0  0  0  0  0
   -1.3990   11.9340   -4.5610 C   0  0  0  0  0  0  0  0  0  0  0  0
    0.0650   12.3530   -4.5150 C   0  0  0  0  0  0  0  0  0  0  0  0
   -0.8040   10.2710   -6.2410 C   0  0  0  0  0  0  0  0  0  0  0  0
   -0.6020    8.7790   -6.5160 C   0  0  0  0  0  0  0  0  0  0  0  0
   -1.5900   10.9150   -7.4070 C   0  0  0  0  0  0  0  0  0  0  0  0
    0.7720   12.1690   -2.8860 S   0  0  0  0  0  0  0  0  0  0  0  0
    0.0720    8.5340   -7.8660 C   0  0  0  0  0  0  0  0  0  0  0  0
   -1.0120   10.6330   -8.7980 C   0  0  0  0  0  0  0  0  0  0  0  0
    2.3560   12.3050   -3.0680 O   0  0  0  0  0  0  0  0  0  0  0  0
    0.3540   10.7100   -2.3140 O   0  0  0  0  0  0  0  0  0  0  0  0
    0.1760   13.4040   -2.0470 O   0  0  0  0  0  0  0  0  0  0  0  0
   -0.7000    9.1600   -9.0320 C   0  0  0  0  0  0  0  0  0  0  0  0
   -0.1460   14.5960   -2.7780 C   0  0  0  0  0  0  0  0  0  0  0  0
   -1.6650   14.6440   -3.0230 C   0  0  0  0  0  0  0  0  0  0  0  0
   -2.4230   14.6130   -1.7590 N   0  0  0  0  0  0  0  0  0  0  0  0
   -1.7330   14.7110   -0.6090 C   0  0  0  0  0  0  0  0  0  0  0  0
   -2.3090   14.6950    0.6300 N   0  0  0  0  0  0  0  0  0  0  0  0
   -0.4370   14.8410   -0.4730 N   0  0  0  0  0  0  0  0  0  0  0  0
   -1.3820   14.8140    1.5850 N   0  0  0  0  0  0  0  0  0  0  0  0
   -0.2670   14.9020    0.8690 C   0  0  0  0  0  0  0  0  0  0  0  0
  1  2  1  0
  2  3  1  0
  1  4  1  0
  4  5  1  0
  4  6  1  0
  3  7  1  0
  5  8  1  0
  6  9  1  0
  7 10  1  0
  7 11  1  0
  7 12  1  0
  8 13  1  0
  9 13  1  0
 12 14  1  0
 14 15  1  0
 15 16  1  0
 16 17  1  0
 17 18  1  0
 17 19  2  0
 18 20  1  0
 19 21  1  0
 20 21  2  0
M  END
