diamond-x0524_0_A-mac-x0142
     RDKit          3D

 36 41  0  0  0  0  0  0  0  0999 V2000
   -0.2910    8.5320   -8.1350 N   0  0  0  0  0  0  0  0  0  0  0  0
   -0.4480    9.5710   -7.2680 C   0  0  0  0  0  0  0  0  0  0  0  0
   -1.7130    9.5400   -6.4130 C   0  0  0  0  0  0  0  0  0  0  0  0
    0.7330    8.5080   -9.0820 C   0  0  0  0  0  0  0  0  0  0  0  0
    0.4520   10.5040   -7.2180 N   0  0  0  0  0  0  0  0  0  0  0  0
    1.9080    7.7730   -8.9560 C   0  0  0  0  0  0  0  0  0  0  0  0
    0.5630    9.2880  -10.2300 C   0  0  0  0  0  0  0  0  0  0  0  0
    0.3890   11.6500   -6.3460 C   0  0  0  0  0  0  0  0  0  0  0  0
    2.8890    7.8190   -9.9530 C   0  0  0  0  0  0  0  0  0  0  0  0
    1.5410    9.3370  -11.2240 C   0  0  0  0  0  0  0  0  0  0  0  0
    1.7570   12.2720   -5.9930 C   0  0  0  0  0  0  0  0  0  0  0  0
    2.7170    8.6040  -11.0980 C   0  0  0  0  0  0  0  0  0  0  0  0
    3.7300    8.6220  -12.0630 N   0  0  0  0  0  0  0  0  0  0  0  0
    1.8900   12.9840   -4.6810 C   0  0  2  0  0  0  0  0  0  0  0  0
    4.0180    9.5040  -13.1120 C   0  0  0  0  0  0  0  0  0  0  0  0
    1.4150   12.4470   -3.3570 C   0  0  0  0  0  0  0  0  0  0  0  0
    0.6350   13.5540   -4.0440 C   0  0  2  0  0  0  0  0  0  0  0  0
    3.2440   10.6650  -13.2840 C   0  0  0  0  0  0  0  0  0  0  0  0
    5.0630    9.2750  -14.0090 C   0  0  0  0  0  0  0  0  0  0  0  0
   -0.5520   13.2130   -4.9300 C   0  0  0  0  0  0  0  0  0  0  0  0
    0.4930   14.8480   -3.2780 C   0  0  0  0  0  0  0  0  0  0  0  0
    3.5090   11.5600  -14.3170 C   0  0  0  0  0  0  0  0  0  0  0  0
    5.3300   10.1680  -15.0440 C   0  0  0  0  0  0  0  0  0  0  0  0
   -1.9040   13.4510   -4.2920 C   0  0  0  0  0  0  0  0  0  0  0  0
   -0.8580   14.8680   -2.6650 N   0  0  0  0  0  0  0  0  0  0  0  0
    4.5540   11.3110  -15.2010 C   0  0  0  0  0  0  0  0  0  0  0  0
   -1.9410   14.8140   -3.6470 C   0  0  0  0  0  0  0  0  0  0  0  0
   -1.1090   14.8150   -1.2940 C   0  0  0  0  0  0  0  0  0  0  0  0
   -0.1100   14.6380   -0.3530 N   0  0  0  0  0  0  0  0  0  0  0  0
   -2.3470   14.9680   -0.7750 C   0  0  0  0  0  0  0  0  0  0  0  0
   -0.3810   14.5910    0.9940 C   0  0  0  0  0  0  0  0  0  0  0  0
   -2.5510   14.9490    0.6910 C   0  0  0  0  0  0  0  0  0  0  0  0
   -3.6670   15.2010   -1.2750 C   0  0  0  0  0  0  0  0  0  0  0  0
   -1.5300   14.7220    1.5620 N   0  0  0  0  0  0  0  0  0  0  0  0
   -3.7870   15.1870    1.0210 N   0  0  0  0  0  0  0  0  0  0  0  0
   -4.4390   15.3310   -0.1910 C   0  0  0  0  0  0  0  0  0  0  0  0
  1  2  1  0
  2  3  1  0
  1  4  1  0
  2  5  2  3
  4  6  2  0
  4  7  1  0
  5  8  1  0
  6  9  1  0
  7 10  2  0
  8 11  1  0
  9 12  2  0
 10 12  1  0
 12 13  1  0
 14 11  1  6
 13 15  1  0
 14 16  1  0
 14 17  1  0
 17 16  1  1
 15 18  2  0
 15 19  1  0
 17 20  1  0
 17 21  1  0
 18 22  1  0
 19 23  2  0
 20 24  1  0
 21 25  1  0
 22 26  2  0
 23 26  1  0
 24 27  1  0
 25 27  1  0
 25 28  1  0
 28 29  1  0
 28 30  2  0
 29 31  1  0
 30 32  1  0
 30 33  1  0
 31 34  2  0
 32 34  1  0
 32 35  2  0
 33 36  2  0
 35 36  1  0
M  END
