diamond-x0676_0_B-diamond-x0962_3_A
     RDKit          3D

 22 24  0  0  0  0  0  0  0  0999 V2000
    5.8190    6.4760   -9.3690 C   0  0  0  0  0  0  0  0  0  0  0  0
    4.7440    7.0600  -10.2130 C   0  0  0  0  0  0  0  0  0  0  0  0
    4.9630    7.7680  -11.2810 N   0  0  0  0  0  0  0  0  0  0  0  0
    3.2880    6.8800   -9.9040 C   0  0  0  0  0  0  0  0  0  0  0  0
    2.7630    8.0470  -10.6970 C   0  0  0  0  0  0  0  0  0  0  0  0
    3.6990    8.1670  -11.7340 N   0  0  0  0  0  0  0  0  0  0  0  0
    1.6900    8.5920  -10.2490 N   0  0  0  0  0  0  0  0  0  0  0  0
    3.7890    9.2140  -12.7040 C   0  0  0  0  0  0  0  0  0  0  0  0
    1.0150    9.7500  -10.8220 C   0  0  0  0  0  0  0  0  0  0  0  0
    2.9020   10.3020  -12.7640 C   0  0  0  0  0  0  0  0  0  0  0  0
    4.8190    9.1710  -13.6580 C   0  0  0  0  0  0  0  0  0  0  0  0
    0.9090   10.9130   -9.8200 C   0  0  0  0  0  0  0  0  0  0  0  0
    3.0360   11.3060  -13.7280 C   0  0  0  0  0  0  0  0  0  0  0  0
    4.9560   10.1720  -14.6260 C   0  0  0  0  0  0  0  0  0  0  0  0
    1.0170   10.4720   -8.3420 C   0  0  1  0  0  0  0  0  0  0  0  0
    4.0660   11.2400  -14.6600 C   0  0  0  0  0  0  0  0  0  0  0  0
    1.1960   11.5910   -7.4240 N   0  0  0  0  0  0  0  0  0  0  0  0
   -0.1140    9.6890   -7.8740 C   0  0  0  0  0  0  0  0  0  0  0  0
   -0.2480    8.3870   -8.2550 N   0  0  0  0  0  0  0  0  0  0  0  0
   -1.1920    9.9450   -7.0630 C   0  0  0  0  0  0  0  0  0  0  0  0
   -1.3770    7.9100   -7.6750 C   0  0  0  0  0  0  0  0  0  0  0  0
   -1.9740    8.8280   -6.9470 N   0  0  0  0  0  0  0  0  0  0  0  0
  1  2  1  0
  2  3  2  0
  2  4  1  0
  4  5  1  0
  3  6  1  0
  5  6  1  0
  5  7  2  3
  6  8  1  0
  7  9  1  0
  8 10  2  0
  8 11  1  0
  9 12  1  0
 10 13  1  0
 11 14  2  0
 12 15  1  0
 13 16  2  0
 14 16  1  0
 15 17  1  1
 15 18  1  0
 18 19  1  0
 18 20  2  0
 19 21  1  0
 20 22  1  0
 21 22  2  0
M  END
