diamond-x1015_0_A-mac-x0204
     RDKit          3D

 24 26  0  0  0  0  0  0  0  0999 V2000
    0.3840   13.8960   -4.8390 C   0  0  0  0  0  0  0  0  0  0  0  0
   -0.3990   12.9740   -3.8890 C   0  0  1  0  0  0  0  0  0  0  0  0
    0.0620   11.6310   -4.0570 N   0  0  0  0  0  0  0  0  0  0  0  0
   -0.1400   13.2640   -2.3870 C   0  0  2  0  0  0  0  0  0  0  0  0
    0.5420   14.5000   -2.3060 N   0  0  0  0  0  0  0  0  0  0  0  0
    0.3850   11.1490   -2.7810 C   0  0  0  0  0  0  0  0  0  0  0  0
    0.7420   12.2340   -2.0170 N   0  0  0  0  0  0  0  0  0  0  0  0
   -0.3720   10.9140   -5.1810 C   0  0  0  0  0  0  0  0  0  0  0  0
    0.3840   10.0230   -2.3450 O   0  0  0  0  0  0  0  0  0  0  0  0
   -0.0070   15.3450   -3.0430 C   0  0  0  0  0  0  0  0  0  0  0  0
    0.1290   11.2280   -6.4560 C   0  0  0  0  0  0  0  0  0  0  0  0
   -1.3080    9.8860   -5.0770 C   0  0  0  0  0  0  0  0  0  0  0  0
    0.5560   16.5260   -3.1120 O   0  0  0  0  0  0  0  0  0  0  0  0
   -0.2940   10.5310   -7.5870 C   0  0  0  0  0  0  0  0  0  0  0  0
   -1.7360    9.1830   -6.2030 C   0  0  0  0  0  0  0  0  0  0  0  0
   -1.1980   15.2850   -3.9060 C   0  0  0  0  0  0  0  0  0  0  0  0
   -1.2280    9.5100   -7.4530 C   0  0  0  0  0  0  0  0  0  0  0  0
   -1.3900   16.2510   -4.8800 C   0  0  0  0  0  0  0  0  0  0  0  0
   -2.1550   14.2730   -3.7740 C   0  0  0  0  0  0  0  0  0  0  0  0
   -1.7590    8.6490   -8.8410 Cl  0  0  0  0  0  0  0  0  0  0  0  0
   -2.5170   16.1760   -5.6850 C   0  0  0  0  0  0  0  0  0  0  0  0
   -3.2640   14.1810   -4.5580 N   0  0  0  0  0  0  0  0  0  0  0  0
   -2.6680   17.1540   -6.6350 O   0  0  0  0  0  0  0  0  0  0  0  0
   -3.4180   15.1380   -5.4990 C   0  0  0  0  0  0  0  0  0  0  0  0
  2  1  1  6
  2  3  1  0
  2  4  1  0
  4  5  1  6
  3  6  1  0
  4  7  1  0
  6  7  1  0
  3  8  1  0
  6  9  2  0
  5 10  2  3
  8 11  2  0
  8 12  1  0
 10 13  1  0
 11 14  1  0
 12 15  2  0
 10 16  1  0
 14 17  2  0
 15 17  1  0
 16 18  2  0
 16 19  1  0
 17 20  1  0
 18 21  1  0
 19 22  2  0
 21 23  1  0
 21 24  2  0
 22 24  1  0
M  END
