diamond-x0967_0_A-mac-x0345
     RDKit          3D

 13 14  0  0  0  0  0  0  0  0999 V2000
   -6.7300   16.0580   -1.3790 C   0  0  0  0  0  0  0  0  0  0  0  0
   -5.9280   14.8950   -1.6840 N   0  0  0  0  0  0  0  0  0  0  0  0
   -6.3810   13.9990   -0.6640 C   0  0  2  0  0  0  0  0  0  0  0  0
   -4.5670   15.0190   -1.9400 C   0  0  0  0  0  0  0  0  0  0  0  0
   -4.1450   15.2840   -3.2220 N   0  0  0  0  0  0  0  0  0  0  0  0
   -7.8040   14.2700   -0.4100 N   0  0  0  0  0  0  0  0  0  0  0  0
   -5.4980   14.1990    0.5370 C   0  0  0  0  0  0  0  0  0  0  0  0
   -3.7050   14.8640   -0.9120 C   0  0  0  0  0  0  0  0  0  0  0  0
   -6.0890   13.9570    1.8230 C   0  0  0  0  0  0  0  0  0  0  0  0
   -8.2090   14.2660    0.8010 C   0  0  0  0  0  0  0  0  0  0  0  0
   -4.2490   14.5860    0.3950 C   0  0  0  0  0  0  0  0  0  0  0  0
   -3.1940   14.7720    1.8770 Br  0  0  0  0  0  0  0  0  0  0  0  0
   -7.4030   13.9930    1.9940 C   0  0  0  0  0  0  0  0  0  0  0  0
  1  2  1  0
  2  3  1  0
  2  4  1  0
  4  5  1  0
  3  6  1  1
  3  7  1  0
  4  8  2  0
  7  9  1  0
  6 10  2  0
  7 11  2  0
  8 11  1  0
 11 12  1  0
  9 13  2  0
 10 13  1  0
M  END
