diamond-x1092_0_B-diamond-x0469_0_B
     RDKit          3D

 23 26  0  0  0  0  0  0  0  0999 V2000
  -10.0670   35.0310    6.4040 C   0  0  0  0  0  0  0  0  0  0  0  0
   -9.3840   36.1040    7.1170 N   0  0  0  0  0  0  0  0  0  0  0  0
   -8.2660   35.9040    7.9020 C   0  0  0  0  0  0  0  0  0  0  0  0
   -9.2930   37.4710    6.5540 C   0  0  1  0  0  0  0  0  0  0  0  0
  -10.2350   38.4330    6.9840 O   0  0  0  0  0  0  0  0  0  0  0  0
   -7.3000   36.8120    7.7130 C   0  0  0  0  0  0  0  0  0  0  0  0
   -7.7200   37.8950    6.7420 C   0  0  2  0  0  0  0  0  0  0  0  0
   -8.0890   34.8390    8.9140 C   0  0  2  0  0  0  0  0  0  0  0  0
   -9.7740   37.5170    5.1800 C   0  0  0  0  0  0  0  0  0  0  0  0
  -10.6970   39.2860    5.9270 C   0  0  0  0  0  0  0  0  0  0  0  0
   -7.4220   39.3340    7.2730 C   0  0  0  0  0  0  0  0  0  0  0  0
   -8.6750   34.9870   10.3160 C   0  0  1  0  0  0  0  0  0  0  0  0
   -6.6250   34.3470    9.1230 C   0  0  2  0  0  0  0  0  0  0  0  0
   -6.0060   36.7680    8.4310 C   0  0  0  0  0  0  0  0  0  0  0  0
   -6.9750   38.0030    5.4740 C   0  0  0  0  0  0  0  0  0  0  0  0
   -9.0100   37.7730    4.1830 C   0  0  0  0  0  0  0  0  0  0  0  0
   -9.3880   33.8370   10.7600 O   0  0  0  0  0  0  0  0  0  0  0  0
   -6.2810   40.0540    6.6330 N   0  0  0  0  0  0  0  0  0  0  0  0
   -6.5010   34.1510   10.5900 N   0  0  0  0  0  0  0  0  0  0  0  0
   -7.4020   35.1760   11.1430 C   0  0  0  0  0  0  0  0  0  0  0  0
   -5.5410   35.3160    8.5900 C   0  0  0  0  0  0  0  0  0  0  0  0
   -7.5830   37.9790    4.3400 C   0  0  0  0  0  0  0  0  0  0  0  0
   -6.4490   33.0040    8.4090 C   0  0  0  0  0  0  0  0  0  0  0  0
  1  2  1  0
  2  3  1  0
  2  4  1  0
  4  5  1  1
  3  6  2  0
  4  7  1  0
  6  7  1  0
  8  3  1  1
  4  9  1  0
  5 10  1  0
  7 11  1  1
  8 12  1  0
  8 13  1  0
  6 14  1  0
  7 15  1  0
  9 16  2  0
 12 17  1  1
 11 18  1  0
 13 19  1  0
 12 20  1  0
 19 20  1  0
 13 21  1  0
 14 21  1  0
 15 22  2  0
 16 22  1  0
 13 23  1  6
M  END
