diamond-x0685_0_A-diamond-x0895_0_A
     RDKit          3D

 12 12  0  0  0  0  0  0  0  0999 V2000
   -6.2310   14.9640    2.6280 N   0  0  0  0  0  0  0  0  0  0  0  0
   -7.6690   14.7550    2.4720 C   0  0  0  0  0  0  0  0  0  0  0  0
   -8.0210   13.3530    2.9430 C   0  0  0  0  0  0  0  0  0  0  0  0
   -5.3670   14.5580    1.5440 C   0  0  2  0  0  0  0  0  0  0  0  0
   -4.0340   15.3060    1.5050 C   0  0  0  0  0  0  0  0  0  0  0  0
   -6.1800   14.7520    0.3600 N   0  0  0  0  0  0  0  0  0  0  0  0
   -3.2590   14.8130    0.3180 C   0  0  0  0  0  0  0  0  0  0  0  0
   -5.4210   15.2590   -0.7870 C   0  0  0  0  0  0  0  0  0  0  0  0
   -2.0370   14.6160    0.4310 O   0  0  0  0  0  0  0  0  0  0  0  0
   -4.0680   14.5670   -0.9470 C   0  0  1  0  0  0  0  0  0  0  0  0
   -3.4380   15.0260   -2.1880 C   0  0  0  0  0  0  0  0  0  0  0  0
   -3.0030   15.3380   -3.2200 N   0  0  0  0  0  0  0  0  0  0  0  0
  1  2  1  0
  2  3  1  0
  4  1  1  1
  4  5  1  0
  4  6  1  0
  5  7  1  0
  6  8  1  0
  7  9  2  0
  7 10  1  0
  8 10  1  0
 10 11  1  6
 11 12  3  0
M  END
