diamond-x0574_0_A-mac-x0282
     RDKit          3D

 12 13  0  0  0  0  0  0  0  0999 V2000
    0.1450   14.0370    2.1070 N   0  0  0  0  0  0  0  0  0  0  0  0
   -0.9270   14.2970    1.3900 C   0  0  0  0  0  0  0  0  0  0  0  0
   -2.0620   14.3050    1.9660 N   0  0  0  0  0  0  0  0  0  0  0  0
   -0.9270   14.6290   -0.2890 S   0  0  0  0  0  0  0  0  0  0  0  0
   -3.0540   14.5610    1.0770 C   0  0  0  0  0  0  0  0  0  0  0  0
   -2.6570   14.7770   -0.2280 C   0  0  0  0  0  0  0  0  0  0  0  0
   -4.3970   14.6090    1.4140 C   0  0  0  0  0  0  0  0  0  0  0  0
   -3.6000   15.0550   -1.2290 C   0  0  0  0  0  0  0  0  0  0  0  0
   -5.3500   14.8690    0.4610 C   0  0  0  0  0  0  0  0  0  0  0  0
   -4.9550   15.0970   -0.8600 C   0  0  0  0  0  0  0  0  0  0  0  0
   -6.6830   14.9140    0.7470 O   0  0  0  0  0  0  0  0  0  0  0  0
   -7.0100   14.5800    2.1010 C   0  0  0  0  0  0  0  0  0  0  0  0
  1  2  1  0
  2  3  2  0
  2  4  1  0
  3  5  1  0
  4  6  1  0
  5  6  2  0
  5  7  1  0
  6  8  1  0
  7  9  2  0
  8 10  2  0
  9 10  1  0
  9 11  1  0
 11 12  1  0
M  END
