diamond-x0837_0_A-mac-x0132
     RDKit          3D

 11 12  0  0  0  0  0  0  0  0999 V2000
   -7.4100   14.6870   -0.0370 O   0  0  0  0  0  0  0  0  0  0  0  0
   -6.2040   14.5420    0.1800 C   0  0  0  0  0  0  0  0  0  0  0  0
   -5.6420   14.9450    1.3600 N   0  0  0  0  0  0  0  0  0  0  0  0
   -5.2260   13.9010   -0.7970 C   0  0  2  0  0  0  0  0  0  0  0  0
   -4.3310   15.3070    1.5030 C   0  0  0  0  0  0  0  0  0  0  0  0
   -3.8880   14.6490   -0.8210 C   0  0  2  0  0  0  0  0  0  0  0  0
   -5.6260   13.9960   -2.2420 C   0  0  0  0  0  0  0  0  0  0  0  0
   -2.2420   13.4170   -1.7220 I   0  0  0  0  0  0  0  0  0  0  0  0
   -3.4500   15.1870    0.5060 C   0  0  0  0  0  0  0  0  0  0  0  0
   -4.9860   14.9800   -2.8490 C   0  0  0  0  0  0  0  0  0  0  0  0
   -4.1150   15.6970   -1.8840 C   0  0  0  0  0  0  0  0  0  0  0  0
  1  2  2  0
  2  3  1  0
  2  4  1  0
  3  5  1  0
  4  6  1  0
  4  7  1  6
  6  8  1  6
  5  9  2  0
  6  9  1  0
  7 10  2  0
  6 11  1  0
 10 11  1  0
M  END
