diamond-x0933_0_A-diamond-x0591_0_A
     RDKit          3D

 20 21  0  0  0  0  0  0  0  0999 V2000
   -5.2890   14.8570    1.3970 N   0  0  0  0  0  0  0  0  0  0  0  0
   -6.2600   14.0770    0.7180 N   0  0  0  0  0  0  0  0  0  0  0  0
   -6.6250   14.3960   -0.5760 C   0  0  0  0  0  0  0  0  0  0  0  0
   -3.9910   14.2330    1.3230 C   0  0  0  0  0  0  0  0  0  0  0  0
   -3.9170   13.6620    0.0040 N   0  0  0  0  0  0  0  0  0  0  0  0
   -2.9940   15.2490    1.5070 N   0  0  0  0  0  0  0  0  0  0  0  0
   -7.7570   14.7790   -0.8590 O   0  0  0  0  0  0  0  0  0  0  0  0
   -2.9330   14.3510   -0.8260 C   0  0  0  0  0  0  0  0  0  0  0  0
   -1.6310   14.8420    1.1870 C   0  0  0  0  0  0  0  0  0  0  0  0
   -5.5930   14.2650   -1.6550 C   0  0  0  0  0  0  0  0  0  0  0  0
   -1.5400   14.2980   -0.2180 C   0  0  0  0  0  0  0  0  0  0  0  0
   -5.2210   13.0460   -2.2490 C   0  0  0  0  0  0  0  0  0  0  0  0
   -4.9760   15.4350   -2.0890 C   0  0  0  0  0  0  0  0  0  0  0  0
   -4.2510   13.0170   -3.2690 C   0  0  0  0  0  0  0  0  0  0  0  0
   -4.0100   15.4100   -3.1020 C   0  0  0  0  0  0  0  0  0  0  0  0
   -3.6530   14.2110   -3.6920 C   0  0  0  0  0  0  0  0  0  0  0  0
   -2.4360   14.2160   -4.9870 S   0  0  0  0  0  0  0  0  0  0  0  0
   -1.1890   15.1250   -4.3190 N   0  0  0  0  0  0  0  0  0  0  0  0
   -1.9530   12.8710   -5.1730 O   0  0  0  0  0  0  0  0  0  0  0  0
   -2.9650   15.0130   -6.0730 O   0  0  0  0  0  0  0  0  0  0  0  0
  1  2  1  0
  2  3  1  0
  1  4  1  0
  4  5  1  0
  4  6  1  0
  3  7  2  0
  5  8  1  0
  6  9  1  0
  3 10  1  0
  8 11  1  0
  9 11  1  0
 10 12  2  0
 10 13  1  0
 12 14  1  0
 13 15  2  0
 14 16  2  0
 15 16  1  0
 16 17  1  0
 17 18  1  0
 17 19  2  0
 17 20  2  0
M  END
