diamond-x0290_0_A-mac-x0437
     RDKit          3D

 29 31  0  0  0  0  0  0  0  0999 V2000
   -7.7800   13.8030    0.8610 N   0  0  0  0  0  0  0  0  0  0  0  0
   -8.6320   14.9750    0.6920 C   0  0  0  0  0  0  0  0  0  0  0  0
   -6.5980   14.0860    1.7070 C   0  0  0  0  0  0  0  0  0  0  0  0
   -5.3710   14.4170    0.8570 C   0  0  0  0  0  0  0  0  0  0  0  0
   -5.4600   14.4590   -0.3740 O   0  0  0  0  0  0  0  0  0  0  0  0
   -4.1570   14.6580    1.4170 N   0  0  0  0  0  0  0  0  0  0  0  0
   -2.8690   14.7410    0.8980 C   0  0  0  0  0  0  0  0  0  0  0  0
   -1.8910   14.4830    1.8040 N   0  0  0  0  0  0  0  0  0  0  0  0
   -2.5720   15.0550   -0.4150 C   0  0  0  0  0  0  0  0  0  0  0  0
   -0.6110   14.5310    1.3870 C   0  0  0  0  0  0  0  0  0  0  0  0
   -1.2360   15.1070   -0.8320 C   0  0  0  0  0  0  0  0  0  0  0  0
   -0.8890   15.4510   -2.2580 C   0  0  0  0  0  0  0  0  0  0  0  0
   -0.2360   14.8350    0.1020 C   0  0  0  0  0  0  0  0  0  0  0  0
    0.1600   14.5510   -2.9280 C   0  0  0  0  0  0  0  0  0  0  0  0
    1.4200   14.2440   -2.1130 C   0  0  0  0  0  0  0  0  0  0  0  0
    1.7230   12.8390   -2.1680 O   0  0  0  0  0  0  0  0  0  0  0  0
    1.2570   12.1780   -3.2500 C   0  0  0  0  0  0  0  0  0  0  0  0
    0.6550   11.1150   -3.1930 O   0  0  0  0  0  0  0  0  0  0  0  0
    1.5670   12.9110   -4.5420 C   0  0  0  0  0  0  0  0  0  0  0  0
    0.3650   13.1560   -5.4450 C   0  0  0  0  0  0  0  0  0  0  0  0
   -0.4780   11.9940   -5.6350 N   0  0  0  0  0  0  0  0  0  0  0  0
   -1.6150   11.6950   -4.9340 C   0  0  0  0  0  0  0  0  0  0  0  0
   -0.2700   11.0030   -6.5510 C   0  0  0  0  0  0  0  0  0  0  0  0
   -2.1540   10.5690   -5.3410 N   0  0  0  0  0  0  0  0  0  0  0  0
   -1.3300   10.1240   -6.3450 C   0  0  0  0  0  0  0  0  0  0  0  0
    0.7180   10.7920   -7.5140 C   0  0  0  0  0  0  0  0  0  0  0  0
   -1.4210    8.9710   -7.1330 C   0  0  0  0  0  0  0  0  0  0  0  0
    0.6130    9.6390   -8.2920 C   0  0  0  0  0  0  0  0  0  0  0  0
   -0.4390    8.7390   -8.1080 C   0  0  0  0  0  0  0  0  0  0  0  0
  1  2  1  0
  1  3  1  0
  3  4  1  0
  4  5  2  0
  4  6  1  0
  6  7  1  0
  7  8  2  0
  7  9  1  0
  8 10  1  0
  9 11  2  0
 11 12  1  0
 10 13  2  0
 11 13  1  0
 12 14  1  0
 14 15  1  0
 15 16  1  0
 16 17  1  0
 17 18  2  0
 17 19  1  0
 19 20  1  0
 20 21  1  0
 21 22  1  0
 21 23  1  0
 22 24  2  0
 23 25  2  0
 24 25  1  0
 23 26  1  0
 25 27  1  0
 26 28  2  0
 27 29  2  0
 28 29  1  0
M  END
