diamond-x0967_0_A-diamond-x0910_0_A
     RDKit          3D

 16 18  0  0  0  0  0  0  0  0999 V2000
   -2.5600   14.7870   -1.7730 N   0  0  0  0  0  0  0  0  0  0  0  0
   -1.4480   14.7940   -1.0150 C   0  0  0  0  0  0  0  0  0  0  0  0
   -1.5280   14.6540    0.3580 N   0  0  0  0  0  0  0  0  0  0  0  0
   -3.6870   14.7840   -0.9890 C   0  0  0  0  0  0  0  0  0  0  0  0
   -4.9650   14.6400   -1.3970 N   0  0  0  0  0  0  0  0  0  0  0  0
   -3.3360   14.9430    0.3340 C   0  0  0  0  0  0  0  0  0  0  0  0
   -0.2050   14.9310   -1.3530 N   0  0  0  0  0  0  0  0  0  0  0  0
   -5.9120   14.6380   -0.4470 C   0  0  0  0  0  0  0  0  0  0  0  0
   -4.2790   14.9410    1.2960 C   0  0  0  0  0  0  0  0  0  0  0  0
   -0.3270   14.7100    0.9360 N   0  0  0  0  0  0  0  0  0  0  0  0
    0.4330   14.8810   -0.1490 C   0  0  0  0  0  0  0  0  0  0  0  0
   -7.1800   14.4930   -0.8130 N   0  0  0  0  0  0  0  0  0  0  0  0
   -5.5860   14.7810    0.9190 C   0  0  0  0  0  0  0  0  0  0  0  0
   -6.5830   14.7600    1.8860 C   0  0  0  0  0  0  0  0  0  0  0  0
   -8.1360   14.4790    0.1430 C   0  0  0  0  0  0  0  0  0  0  0  0
   -7.8940   14.6040    1.4950 C   0  0  0  0  0  0  0  0  0  0  0  0
  1  2  1  0
  2  3  1  0
  1  4  1  0
  4  5  2  0
  4  6  1  0
  2  7  2  0
  5  8  1  0
  6  9  2  0
  3 10  1  0
  7 11  1  0
 10 11  2  0
  8 12  2  0
  8 13  1  0
  9 13  1  0
 13 14  2  0
 12 15  1  0
 14 16  1  0
 15 16  2  0
M  END
