diamond-x0628_0_A-mac-x0357
     RDKit          3D

 14 14  0  0  0  0  0  0  0  0999 V2000
   -1.0040    9.2570   -7.7810 C   0  0  0  0  0  0  0  0  0  0  0  0
   -0.7000   10.1180   -6.5540 C   0  0  2  0  0  0  0  0  0  0  0  0
   -1.9440   10.5340   -5.8640 N   0  0  0  0  0  0  0  0  0  0  0  0
   -0.0210   11.4050   -6.7390 N   0  0  0  0  0  0  0  0  0  0  0  0
    1.3660   11.3050   -7.1610 O   0  0  0  0  0  0  0  0  0  0  0  0
   -0.1350   11.9170   -5.4130 N   0  0  0  0  0  0  0  0  0  0  0  0
   -1.5890   11.8260   -5.2350 C   0  0  2  0  0  0  0  0  0  0  0  0
   -2.2300   11.9700   -3.8500 C   0  0  0  0  0  0  0  0  0  0  0  0
    0.5450   13.2180   -5.3420 C   0  0  0  0  0  0  0  0  0  0  0  0
    1.5590   13.1650   -4.1970 C   0  0  0  0  0  0  0  0  0  0  0  0
    0.8950   12.7630   -2.8700 C   0  0  0  0  0  0  0  0  0  0  0  0
    0.4970   11.4110   -2.8220 O   0  0  0  0  0  0  0  0  0  0  0  0
    1.7640   12.9930   -1.8080 O   0  0  0  0  0  0  0  0  0  0  0  0
   -0.2240   13.5920   -2.6610 O   0  0  0  0  0  0  0  0  0  0  0  0
  2  1  1  6
  2  3  1  0
  2  4  1  0
  4  5  1  0
  4  6  1  0
  3  7  1  0
  6  7  1  0
  7  8  1  1
  6  9  1  0
  9 10  1  0
 10 11  1  0
 11 12  1  0
 11 13  1  0
 11 14  1  0
M  END
