diamond-x0128_0_A-mac-x0142
     RDKit          3D

 32 37  0  0  0  0  0  0  0  0999 V2000
   -6.9540   14.1520    2.5460 N   0  0  0  0  0  0  0  0  0  0  0  0
   -7.9150   15.0330    3.0360 C   0  0  0  0  0  0  0  0  0  0  0  0
   -8.8340   15.4620    2.3490 O   0  0  0  0  0  0  0  0  0  0  0  0
   -6.2440   14.5690    1.3440 C   0  0  2  0  0  0  0  0  0  0  0  0
   -7.6550   15.3300    4.3580 N   0  0  0  0  0  0  0  0  0  0  0  0
   -7.1870   14.8170    0.2200 C   0  0  0  0  0  0  0  0  0  0  0  0
   -5.1260   13.7350    0.7110 C   0  0  0  0  0  0  0  0  0  0  0  0
   -6.6720   15.4300   -0.8330 C   0  0  0  0  0  0  0  0  0  0  0  0
   -4.2960   14.7660   -0.0970 C   0  0  1  0  0  0  0  0  0  0  0  0
   -8.4520   16.0630    5.2770 C   0  0  0  0  0  0  0  0  0  0  0  0
   -5.2210   15.8160   -0.7700 C   0  0  0  0  0  0  0  0  0  0  0  0
   -9.1220   17.2110    4.8470 C   0  0  0  0  0  0  0  0  0  0  0  0
   -8.6210   15.7120    6.6150 C   0  0  0  0  0  0  0  0  0  0  0  0
   -3.4200   15.2750    0.9700 N   0  0  0  0  0  0  0  0  0  0  0  0
   -3.4030   14.3230   -1.2880 C   0  0  0  0  0  0  0  0  0  0  0  0
   -9.9100   17.9900    5.6270 N   0  0  0  0  0  0  0  0  0  0  0  0
   -9.4260   16.4970    7.4470 C   0  0  0  0  0  0  0  0  0  0  0  0
   -2.1170   15.0970    0.5000 C   0  0  0  0  0  0  0  0  0  0  0  0
   -2.0470   14.6120   -0.7790 C   0  0  0  0  0  0  0  0  0  0  0  0
  -10.0440   17.6140    6.9130 C   0  0  0  0  0  0  0  0  0  0  0  0
   -1.0820   15.4020    1.2320 N   0  0  0  0  0  0  0  0  0  0  0  0
   -0.8070   14.4850   -1.3400 C   0  0  0  0  0  0  0  0  0  0  0  0
   -0.6250   14.0390   -2.6630 N   0  0  0  0  0  0  0  0  0  0  0  0
    0.2790   14.7960   -0.6210 N   0  0  0  0  0  0  0  0  0  0  0  0
    0.0810   15.2300    0.6290 C   0  0  0  0  0  0  0  0  0  0  0  0
   -1.8130   14.0730   -3.5310 C   0  0  0  0  0  0  0  0  0  0  0  0
    0.5250   14.6690   -3.3060 C   0  0  0  0  0  0  0  0  0  0  0  0
    0.9020   13.6080   -4.2900 C   0  0  0  0  0  0  0  0  0  0  0  0
   -1.5320   13.2350   -4.7970 C   0  0  0  0  0  0  0  0  0  0  0  0
    2.3350   13.1880   -4.5220 C   0  0  0  0  0  0  0  0  0  0  0  0
    1.4340   12.3490   -3.6630 C   0  0  0  0  0  0  0  0  0  0  0  0
   -0.1240   13.4610   -5.3790 C   0  0  0  0  0  0  0  0  0  0  0  0
  1  2  1  0
  2  3  2  0
  4  1  1  1
  2  5  1  0
  4  6  1  0
  4  7  1  0
  6  8  2  0
  9  7  1  1
  5 10  1  0
  8 11  1  0
  9 11  1  0
 10 12  2  0
 10 13  1  0
  9 14  1  0
  9 15  1  0
 12 16  1  0
 13 17  2  0
 14 18  1  0
 15 19  1  0
 18 19  2  0
 16 20  2  0
 17 20  1  0
 18 21  1  0
 19 22  1  0
 22 23  1  0
 22 24  2  0
 21 25  2  0
 24 25  1  0
 23 26  1  0
 23 27  1  0
 28 27  1  0
 26 29  1  0
 28 30  1  0
 28 31  1  0
 30 31  1  0
 28 32  1  0
 29 32  1  0
M  END
