diamond-x0742_0_A-mac-x0437
     RDKit          3D

 31 35  0  0  0  0  0  0  0  0999 V2000
   -5.5790   12.1680   -0.5480 C   0  0  0  0  0  0  0  0  0  0  0  0
   -6.6660   11.6010    0.3240 C   0  0  0  0  0  0  0  0  0  0  0  0
   -5.1640   11.5330   -1.5230 O   0  0  0  0  0  0  0  0  0  0  0  0
   -4.9960   13.5380   -0.2130 C   0  0  2  0  0  0  0  0  0  0  0  0
   -4.6530   13.5370    1.2900 C   0  0  0  0  0  0  0  0  0  0  0  0
   -6.1250   14.5540   -0.4870 C   0  0  0  0  0  0  0  0  0  0  0  0
   -3.8320   13.9730   -1.1470 C   0  0  1  0  0  0  0  0  0  0  0  0
   -4.2800   15.2690   -1.8490 C   0  0  0  0  0  0  0  0  0  0  0  0
   -2.5020   14.1850   -0.4870 C   0  0  0  0  0  0  0  0  0  0  0  0
   -3.6270   14.5870    1.6790 C   0  0  0  0  0  0  0  0  0  0  0  0
   -5.4800   15.7800   -1.0840 C   0  0  0  0  0  0  0  0  0  0  0  0
   -1.3320   14.0900   -1.2370 C   0  0  0  0  0  0  0  0  0  0  0  0
   -2.4040   14.4780    0.8580 C   0  0  0  0  0  0  0  0  0  0  0  0
   -1.2450   14.6800    1.4930 N   0  0  0  0  0  0  0  0  0  0  0  0
   -0.1020   14.2940   -0.6370 C   0  0  0  0  0  0  0  0  0  0  0  0
    1.1610   14.1990   -1.4770 C   0  0  0  0  0  0  0  0  0  0  0  0
   -0.1340   14.5920    0.7370 C   0  0  0  0  0  0  0  0  0  0  0  0
    1.4660   12.8130   -1.7920 O   0  0  0  0  0  0  0  0  0  0  0  0
    1.1160   12.2520   -2.9980 C   0  0  0  0  0  0  0  0  0  0  0  0
    0.5500   11.1720   -3.0810 O   0  0  0  0  0  0  0  0  0  0  0  0
    1.5230   13.0580   -4.2190 C   0  0  0  0  0  0  0  0  0  0  0  0
    0.4430   13.2060   -5.3040 C   0  0  0  0  0  0  0  0  0  0  0  0
   -0.3940   12.0370   -5.5380 N   0  0  0  0  0  0  0  0  0  0  0  0
   -1.5270   11.7160   -4.8390 C   0  0  0  0  0  0  0  0  0  0  0  0
   -0.2030   11.0610   -6.4890 C   0  0  0  0  0  0  0  0  0  0  0  0
   -2.0730   10.6000   -5.2730 N   0  0  0  0  0  0  0  0  0  0  0  0
   -1.2630   10.1790   -6.2960 C   0  0  0  0  0  0  0  0  0  0  0  0
    0.7650   10.8640   -7.4740 C   0  0  0  0  0  0  0  0  0  0  0  0
   -1.3730    9.0410   -7.1100 C   0  0  0  0  0  0  0  0  0  0  0  0
    0.6420    9.7250   -8.2780 C   0  0  0  0  0  0  0  0  0  0  0  0
   -0.4090    8.8260   -8.1000 C   0  0  0  0  0  0  0  0  0  0  0  0
  1  2  1  0
  1  3  2  0
  4  1  1  6
  4  5  1  0
  4  6  1  0
  4  7  1  0
  7  8  1  1
  7  9  1  0
  5 10  1  0
  6 11  1  0
  8 11  1  0
  9 12  1  0
  9 13  2  0
 10 13  1  0
 13 14  1  0
 12 15  2  0
 15 16  1  0
 14 17  2  0
 15 17  1  0
 16 18  1  0
 18 19  1  0
 19 20  2  0
 19 21  1  0
 21 22  1  0
 22 23  1  0
 23 24  1  0
 23 25  1  0
 24 26  2  0
 25 27  2  0
 26 27  1  0
 25 28  1  0
 27 29  1  0
 28 30  2  0
 29 31  2  0
 30 31  1  0
M  END
