diamond-x0950_0_A-mac-x0132
     RDKit          3D

 20 21  0  0  0  0  0  0  0  0999 V2000
    3.1050   12.3270   -4.4260 C   0  0  0  0  0  0  0  0  0  0  0  0
    1.6170   12.6290   -4.5130 C   0  0  1  0  0  0  0  0  0  0  0  0
    1.0610   11.9940   -5.6560 O   0  0  0  0  0  0  0  0  0  0  0  0
    0.9400   12.2210   -3.1980 C   0  0  0  0  0  0  0  0  0  0  0  0
    0.5560   11.0870   -2.9300 O   0  0  0  0  0  0  0  0  0  0  0  0
    0.8300   13.3040   -2.3710 O   0  0  0  0  0  0  0  0  0  0  0  0
    0.5640   14.5580   -3.0460 C   0  0  0  0  0  0  0  0  0  0  0  0
   -0.9460   14.7460   -3.1860 C   0  0  0  0  0  0  0  0  0  0  0  0
   -1.5670   14.6370   -1.7990 C   0  0  0  0  0  0  0  0  0  0  0  0
   -3.0740   14.7490   -1.7030 C   0  0  0  0  0  0  0  0  0  0  0  0
   -3.9700   14.8440   -2.7800 C   0  0  0  0  0  0  0  0  0  0  0  0
   -3.5990   14.7350   -0.4270 C   0  0  0  0  0  0  0  0  0  0  0  0
   -4.9770   14.7820   -0.1950 C   0  0  0  0  0  0  0  0  0  0  0  0
   -5.3610   14.8970   -2.5310 C   0  0  0  0  0  0  0  0  0  0  0  0
   -5.5080   14.7540    1.0700 C   0  0  0  0  0  0  0  0  0  0  0  0
   -5.8830   14.8550   -1.2380 C   0  0  0  0  0  0  0  0  0  0  0  0
   -4.6250   14.7100    2.1280 N   0  0  0  0  0  0  0  0  0  0  0  0
   -7.2070   14.8780   -1.0210 N   0  0  0  0  0  0  0  0  0  0  0  0
   -6.8160   14.7650    1.3360 N   0  0  0  0  0  0  0  0  0  0  0  0
   -7.6110   14.8250    0.2620 C   0  0  0  0  0  0  0  0  0  0  0  0
  2  1  1  1
  2  3  1  0
  2  4  1  0
  4  5  2  0
  4  6  1  0
  6  7  1  0
  7  8  1  0
  8  9  1  0
  9 10  1  0
 10 11  2  0
 10 12  1  0
 12 13  2  0
 11 14  1  0
 13 15  1  0
 13 16  1  0
 14 16  2  0
 15 17  1  0
 16 18  1  0
 15 19  2  0
 18 20  2  0
 19 20  1  0
M  END
