diamond-x0628_0_A-diamond-x0967_0_A
     RDKit          3D

 24 26  0  0  0  0  0  0  0  0999 V2000
   -1.0840    9.1310   -7.2590 C   0  0  0  0  0  0  0  0  0  0  0  0
   -1.0190   10.3100   -6.3750 C   0  0  0  0  0  0  0  0  0  0  0  0
   -1.9530   10.5770   -5.4080 N   0  0  0  0  0  0  0  0  0  0  0  0
   -0.0360   11.2010   -6.4590 N   0  0  0  0  0  0  0  0  0  0  0  0
   -0.3620   12.0760   -5.4870 N   0  0  0  0  0  0  0  0  0  0  0  0
   -1.5240   11.7000   -4.8450 C   0  0  0  0  0  0  0  0  0  0  0  0
   -2.1850   12.4290   -3.6990 C   0  0  0  0  0  0  0  0  0  0  0  0
    0.5070   13.2120   -5.2690 C   0  0  0  0  0  0  0  0  0  0  0  0
    1.6390   12.9880   -4.2790 C   0  0  0  0  0  0  0  0  0  0  0  0
   -3.0650   13.6550   -4.0480 C   0  0  0  0  0  0  0  0  0  0  0  0
    1.1840   12.2980   -3.0230 C   0  0  0  0  0  0  0  0  0  0  0  0
   -2.9350   14.8830   -3.1010 C   0  0  0  0  0  0  0  0  0  0  0  0
    0.5070   11.2880   -2.9240 O   0  0  0  0  0  0  0  0  0  0  0  0
    1.6290   12.9670   -1.9470 O   0  0  0  0  0  0  0  0  0  0  0  0
   -3.6840   14.8540   -1.7760 C   0  0  0  0  0  0  0  0  0  0  0  0
   -5.0370   14.7420   -1.8230 N   0  0  0  0  0  0  0  0  0  0  0  0
   -2.9970   14.9420   -0.5660 C   0  0  0  0  0  0  0  0  0  0  0  0
   -5.7380   14.7110   -0.6860 C   0  0  0  0  0  0  0  0  0  0  0  0
   -3.7160   14.9130    0.6190 C   0  0  0  0  0  0  0  0  0  0  0  0
   -7.0710   14.5940   -0.7830 N   0  0  0  0  0  0  0  0  0  0  0  0
   -5.1070   14.7930    0.5680 C   0  0  0  0  0  0  0  0  0  0  0  0
   -5.8890   14.7500    1.7260 C   0  0  0  0  0  0  0  0  0  0  0  0
   -7.8050   14.5500    0.3550 C   0  0  0  0  0  0  0  0  0  0  0  0
   -7.2660   14.6230    1.6250 C   0  0  0  0  0  0  0  0  0  0  0  0
  1  2  1  0
  2  3  1  0
  2  4  2  0
  4  5  1  0
  3  6  2  0
  5  6  1  0
  6  7  1  0
  5  8  1  0
  8  9  1  0
  7 10  1  0
  9 11  1  0
 10 12  1  0
 11 13  2  0
 11 14  1  0
 12 15  1  0
 15 16  2  0
 15 17  1  0
 16 18  1  0
 17 19  2  0
 18 20  2  0
 18 21  1  0
 19 21  1  0
 21 22  2  0
 20 23  1  0
 22 24  1  0
 23 24  2  0
M  END
