diamond-x0662_0_A-mac-x0439
     RDKit          3D

 33 36  0  0  0  0  0  0  0  0999 V2000
    5.3330    9.5690  -15.0270 C   0  0  0  0  0  0  0  0  0  0  0  0
    4.2790   10.0210  -14.1450 N   0  0  0  0  0  0  0  0  0  0  0  0
    3.6140   11.2090  -14.1930 C   0  0  0  0  0  0  0  0  0  0  0  0
    3.8730    9.2130  -13.1430 N   0  0  0  0  0  0  0  0  0  0  0  0
    2.7140   11.1800  -13.1530 C   0  0  0  0  0  0  0  0  0  0  0  0
    2.9040    9.9210  -12.5200 C   0  0  0  0  0  0  0  0  0  0  0  0
    2.2090    9.3610  -11.3360 C   0  0  0  0  0  0  0  0  0  0  0  0
    2.3590    8.1840  -11.0270 O   0  0  0  0  0  0  0  0  0  0  0  0
    1.4290   10.2820  -10.6490 N   0  0  0  0  0  0  0  0  0  0  0  0
    0.6710   10.0900   -9.4690 C   0  0  0  0  0  0  0  0  0  0  0  0
   -0.2970    9.0830   -9.4840 C   0  0  0  0  0  0  0  0  0  0  0  0
    0.8270   10.8360   -8.3020 C   0  0  0  0  0  0  0  0  0  0  0  0
   -1.0870    8.8370   -8.3540 C   0  0  0  0  0  0  0  0  0  0  0  0
    0.0460   10.6070   -7.1680 C   0  0  0  0  0  0  0  0  0  0  0  0
    0.2300   11.4250   -5.9290 C   0  0  0  0  0  0  0  0  0  0  0  0
   -0.9180    9.5990   -7.1950 C   0  0  0  0  0  0  0  0  0  0  0  0
   -0.6510   11.6290   -5.1080 O   0  0  0  0  0  0  0  0  0  0  0  0
    1.5200   11.8570   -5.8870 O   0  0  0  0  0  0  0  0  0  0  0  0
    1.9590   12.9440   -5.0510 C   0  0  0  0  0  0  0  0  0  0  0  0
    1.9520   12.6960   -3.5340 C   0  0  0  0  0  0  0  0  0  0  0  0
    1.7140   13.9630   -2.6980 C   0  0  0  0  0  0  0  0  0  0  0  0
    2.9380   14.4530   -2.1730 O   0  0  0  0  0  0  0  0  0  0  0  0
    0.8980   13.5940   -1.5930 O   0  0  0  0  0  0  0  0  0  0  0  0
    1.0130   14.9660   -3.5880 C   0  0  0  0  0  0  0  0  0  0  0  0
   -0.1250   14.7480   -4.2380 C   0  0  0  0  0  0  0  0  0  0  0  0
    1.5290   16.2280   -3.8260 N   0  0  0  0  0  0  0  0  0  0  0  0
   -0.3990   15.8900   -5.1080 C   0  0  2  0  0  0  0  0  0  0  0  0
    0.7170   16.7750   -4.6730 C   0  0  0  0  0  0  0  0  0  0  0  0
   -1.6740   16.6290   -5.2770 C   0  0  0  0  0  0  0  0  0  0  0  0
    0.7930   18.1240   -5.2730 C   0  0  0  0  0  0  0  0  0  0  0  0
   -3.1430   15.7490   -5.1260 Cl  0  0  0  0  0  0  0  0  0  0  0  0
   -1.6450   17.9380   -5.5660 C   0  0  0  0  0  0  0  0  0  0  0  0
   -0.3800   18.6370   -5.6980 C   0  0  0  0  0  0  0  0  0  0  0  0
  1  2  1  0
  2  3  1  0
  2  4  1  0
  3  5  2  0
  4  6  2  0
  5  6  1  0
  6  7  1  0
  7  8  2  0
  7  9  1  0
  9 10  1  0
 10 11  2  0
 10 12  1  0
 11 13  1  0
 12 14  2  0
 14 15  1  0
 13 16  2  0
 14 16  1  0
 15 17  2  0
 15 18  1  0
 18 19  1  0
 19 20  1  0
 20 21  1  0
 21 22  1  0
 21 23  1  0
 21 24  1  0
 24 25  2  0
 24 26  1  0
 27 25  1  1
 26 28  2  0
 27 28  1  0
 27 29  1  0
 28 30  1  0
 29 31  1  0
 29 32  2  0
 30 33  2  0
 32 33  1  0
M  END
