diamond-x0421_0_A-diamond-x0371_0_A
     RDKit          3D

 20 22  0  0  0  0  0  0  0  0999 V2000
   -3.7460   15.1790   -2.9740 N   0  0  0  0  0  0  0  0  0  0  0  0
   -2.8490   14.9560   -1.9710 C   0  0  0  0  0  0  0  0  0  0  0  0
   -1.6520   14.8130   -2.1830 O   0  0  0  0  0  0  0  0  0  0  0  0
   -3.4540   14.9010   -0.6490 C   0  0  0  0  0  0  0  0  0  0  0  0
   -2.7920   14.9950    0.5590 C   0  0  0  0  0  0  0  0  0  0  0  0
   -4.8150   14.7350   -0.4410 N   0  0  0  0  0  0  0  0  0  0  0  0
   -3.7590   14.8780    1.4980 N   0  0  0  0  0  0  0  0  0  0  0  0
   -4.9500   14.7220    0.8620 C   0  0  0  0  0  0  0  0  0  0  0  0
   -6.2900   14.5380    1.5990 C   0  0  1  0  0  0  0  0  0  0  0  0
   -7.5680   14.2500    0.8600 C   0  0  1  0  0  0  0  0  0  0  0  0
   -6.8370   13.1360    1.5500 C   0  0  0  0  0  0  0  0  0  0  0  0
   -8.8610   14.6590    1.4380 C   0  0  0  0  0  0  0  0  0  0  0  0
   -8.7290   14.5980    2.8650 N   0  0  0  0  0  0  0  0  0  0  0  0
   -9.0620   15.6850    3.6300 C   0  0  0  0  0  0  0  0  0  0  0  0
   -9.5830   16.6740    3.1350 O   0  0  0  0  0  0  0  0  0  0  0  0
   -8.7630   15.5590    5.0350 C   0  0  0  0  0  0  0  0  0  0  0  0
   -8.1330   14.4380    5.5040 O   0  0  0  0  0  0  0  0  0  0  0  0
   -9.0090   16.4190    6.0870 C   0  0  0  0  0  0  0  0  0  0  0  0
   -8.5050   15.7890    7.2500 C   0  0  0  0  0  0  0  0  0  0  0  0
   -7.9830   14.5890    6.8430 C   0  0  0  0  0  0  0  0  0  0  0  0
  1  2  1  0
  2  3  2  0
  2  4  1  0
  4  5  2  0
  4  6  1  0
  5  7  1  0
  6  8  2  0
  7  8  1  0
  9  8  1  6
  9 10  1  0
  9 11  1  0
 10 11  1  0
 10 12  1  1
 12 13  1  0
 13 14  1  0
 14 15  2  0
 14 16  1  0
 16 17  1  0
 16 18  2  0
 18 19  1  0
 17 20  1  0
 19 20  2  0
M  END
