diamond-x0910_0_A-mac-x0348
     RDKit          3D

 22 24  0  0  0  0  0  0  0  0999 V2000
   -2.1600   14.5310   -1.8380 N   0  0  0  0  0  0  0  0  0  0  0  0
   -1.7470   14.6230   -0.5650 C   0  0  0  0  0  0  0  0  0  0  0  0
   -2.4220   15.0770    0.4650 N   0  0  0  0  0  0  0  0  0  0  0  0
   -0.5070   14.2380   -0.1230 N   0  0  0  0  0  0  0  0  0  0  0  0
    0.6070   13.6690   -0.8230 C   0  0  0  0  0  0  0  0  0  0  0  0
   -1.6150   14.9890    1.5650 N   0  0  0  0  0  0  0  0  0  0  0  0
   -0.4760   14.4860    1.1970 C   0  0  0  0  0  0  0  0  0  0  0  0
    0.6230   13.8190   -2.2190 N   0  0  0  0  0  0  0  0  0  0  0  0
    0.5730   12.8330   -3.0090 C   0  0  0  0  0  0  0  0  0  0  0  0
    0.6470   13.3040   -4.3980 C   0  0  0  0  0  0  0  0  0  0  0  0
    0.4860   11.5130   -2.7230 O   0  0  0  0  0  0  0  0  0  0  0  0
    1.0990   14.7530   -4.1610 C   0  0  0  0  0  0  0  0  0  0  0  0
    0.2630   15.7860   -4.8180 C   0  0  0  0  0  0  0  0  0  0  0  0
    0.7450   16.9840   -5.2550 C   0  0  0  0  0  0  0  0  0  0  0  0
   -1.1220   15.7650   -5.1330 C   0  0  0  0  0  0  0  0  0  0  0  0
   -0.2410   17.6850   -5.8310 N   0  0  0  0  0  0  0  0  0  0  0  0
   -1.4010   16.9770   -5.7750 C   0  0  0  0  0  0  0  0  0  0  0  0
   -2.1590   14.8330   -4.9450 C   0  0  0  0  0  0  0  0  0  0  0  0
   -0.0350   18.9790   -6.4090 C   0  0  0  0  0  0  0  0  0  0  0  0
   -3.4300   15.1330   -5.4140 C   0  0  0  0  0  0  0  0  0  0  0  0
   -2.6680   17.2840   -6.2410 C   0  0  0  0  0  0  0  0  0  0  0  0
   -3.6670   16.3290   -6.0480 C   0  0  0  0  0  0  0  0  0  0  0  0
  1  2  1  0
  2  3  2  0
  2  4  1  0
  4  5  1  0
  3  6  1  0
  4  7  1  0
  6  7  2  0
  5  8  1  0
  8  9  2  3
  9 10  1  0
  9 11  1  0
 10 12  1  0
 12 13  1  0
 13 14  2  0
 13 15  1  0
 14 16  1  0
 15 17  2  0
 16 17  1  0
 15 18  1  0
 16 19  1  0
 18 20  2  0
 17 21  1  0
 20 22  1  0
 21 22  2  0
M  END
