diamond-x0900_1_A-diamond-x1012_0_A
     RDKit          3D

 20 21  0  0  0  0  0  0  0  0999 V2000
   -0.7620    9.9590   -9.6500 O   0  0  0  0  0  0  0  0  0  0  0  0
   -0.9470    9.6740   -8.4780 C   0  0  0  0  0  0  0  0  0  0  0  0
   -0.0140    9.7230   -7.4660 N   0  0  0  0  0  0  0  0  0  0  0  0
   -2.2230    9.2020   -7.8530 C   0  0  0  0  0  0  0  0  0  0  0  0
   -1.6750    8.2430   -6.8000 C   0  0  0  0  0  0  0  0  0  0  0  0
   -0.3700    8.8850   -6.3390 C   0  0  2  0  0  0  0  0  0  0  0  0
   -0.5190    9.6130   -4.9700 C   0  0  0  0  0  0  0  0  0  0  0  0
   -0.2200   11.1150   -4.7970 C   0  0  0  0  0  0  0  0  0  0  0  0
   -0.2980   11.4380   -3.3740 O   0  0  0  0  0  0  0  0  0  0  0  0
    0.4860   12.4250   -2.8170 C   0  0  0  0  0  0  0  0  0  0  0  0
    1.3840   12.2300   -2.0210 O   0  0  0  0  0  0  0  0  0  0  0  0
    0.0980   13.8150   -3.2740 C   0  0  0  0  0  0  0  0  0  0  0  0
   -1.3770   13.8720   -3.7070 C   0  0  0  0  0  0  0  0  0  0  0  0
    1.0860   14.3410   -4.3220 C   0  0  0  0  0  0  0  0  0  0  0  0
   -1.6010   14.7670   -4.9180 C   0  0  0  0  0  0  0  0  0  0  0  0
    0.7190   15.7370   -4.7930 C   0  0  0  0  0  0  0  0  0  0  0  0
   -0.7240   15.9460   -4.9060 N   0  0  0  0  0  0  0  0  0  0  0  0
   -1.2920   17.1930   -4.8130 C   0  0  0  0  0  0  0  0  0  0  0  0
   -0.4330   18.2370   -4.8230 N   0  0  0  0  0  0  0  0  0  0  0  0
   -2.4840   17.4150   -4.7180 O   0  0  0  0  0  0  0  0  0  0  0  0
  1  2  2  0
  2  3  1  0
  2  4  1  0
  4  5  1  0
  3  6  1  0
  5  6  1  0
  6  7  1  1
  7  8  1  0
  8  9  1  0
  9 10  1  0
 10 11  2  0
 10 12  1  0
 12 13  1  0
 12 14  1  0
 13 15  1  0
 14 16  1  0
 15 17  1  0
 16 17  1  0
 17 18  1  0
 18 19  1  0
 18 20  2  0
M  END
