diamond-x0592_0_A-diamond-x0837_0_A
     RDKit          3D

 11 11  0  0  0  0  0  0  0  0999 V2000
   -2.7130   14.9150    1.0770 N   0  0  0  0  0  0  0  0  0  0  0  0
   -3.2600   14.9130   -0.1700 C   0  0  0  0  0  0  0  0  0  0  0  0
   -2.5450   14.9190   -1.1650 O   0  0  0  0  0  0  0  0  0  0  0  0
   -4.7070   14.8960   -0.2310 C   0  0  0  0  0  0  0  0  0  0  0  0
   -5.5220   15.1990   -1.3500 C   0  0  0  0  0  0  0  0  0  0  0  0
   -5.6100   14.5890    0.7640 C   0  0  0  0  0  0  0  0  0  0  0  0
   -6.8310   15.0890   -1.0790 N   0  0  0  0  0  0  0  0  0  0  0  0
   -6.8530   14.7170    0.2150 N   0  0  0  0  0  0  0  0  0  0  0  0
   -8.1170   14.4950    0.9000 C   0  0  0  0  0  0  0  0  0  0  0  0
   -7.8960   14.0740    2.3510 C   0  0  0  0  0  0  0  0  0  0  0  0
   -7.1930   15.0670    3.0950 O   0  0  0  0  0  0  0  0  0  0  0  0
  1  2  1  0
  2  3  2  0
  2  4  1  0
  4  5  1  0
  4  6  2  0
  5  7  2  0
  6  8  1  0
  7  8  1  0
  8  9  1  0
  9 10  1  0
 10 11  1  0
M  END
