diamond-x0438_0_A-diamond-x0591_0_A
     RDKit          3D

 27 29  0  0  0  0  0  0  0  0999 V2000
   -7.9170   15.1630    3.8640 C   0  0  0  0  0  0  0  0  0  0  0  0
   -9.0120   14.9560    2.4730 S   0  0  0  0  0  0  0  0  0  0  0  0
   -9.9800   13.9090    2.7490 O   0  0  0  0  0  0  0  0  0  0  0  0
   -8.0540   14.6690    0.9370 C   0  0  2  0  0  0  0  0  0  0  0  0
   -9.5490   16.2990    2.2420 O   0  0  0  0  0  0  0  0  0  0  0  0
   -7.8200   13.5030    0.0980 N   0  0  0  0  0  0  0  0  0  0  0  0
   -6.6500   14.8650    0.9030 C   0  0  0  0  0  0  0  0  0  0  0  0
   -7.4230   13.9880   -1.1690 C   0  0  0  0  0  0  0  0  0  0  0  0
   -6.2680   15.2630   -0.3280 N   0  0  0  0  0  0  0  0  0  0  0  0
   -5.6590   14.7390    1.7270 N   0  0  0  0  0  0  0  0  0  0  0  0
   -8.2960   14.5500   -1.8000 O   0  0  0  0  0  0  0  0  0  0  0  0
   -4.5730   15.0650    0.9510 C   0  0  0  0  0  0  0  0  0  0  0  0
   -4.9540   15.3960   -0.3390 C   0  0  0  0  0  0  0  0  0  0  0  0
   -6.0390   13.9760   -1.8640 C   0  0  0  0  0  0  0  0  0  0  0  0
   -4.1060   15.7630   -1.3530 C   0  0  0  0  0  0  0  0  0  0  0  0
   -3.2210   15.1050    1.2610 C   0  0  0  0  0  0  0  0  0  0  0  0
   -4.7700   13.4640   -1.4490 C   0  0  0  0  0  0  0  0  0  0  0  0
   -6.0970   14.5880   -3.1240 C   0  0  0  0  0  0  0  0  0  0  0  0
   -2.7630   15.7960   -1.0310 C   0  0  0  0  0  0  0  0  0  0  0  0
   -2.3210   15.4750    0.2520 C   0  0  0  0  0  0  0  0  0  0  0  0
   -3.6260   13.5850   -2.3130 C   0  0  0  0  0  0  0  0  0  0  0  0
   -4.9860   14.6980   -3.9610 C   0  0  0  0  0  0  0  0  0  0  0  0
   -3.7580   14.2090   -3.5780 C   0  0  0  0  0  0  0  0  0  0  0  0
   -2.4310   14.4130   -4.7590 S   0  0  0  0  0  0  0  0  0  0  0  0
   -1.3960   15.5470   -4.0830 N   0  0  0  0  0  0  0  0  0  0  0  0
   -1.6850   13.1810   -4.8450 O   0  0  0  0  0  0  0  0  0  0  0  0
   -2.9750   15.0530   -5.9400 O   0  0  0  0  0  0  0  0  0  0  0  0
  2  1  1  0
  2  3  2  0
  2  4  1  0
  2  5  2  0
  4  6  1  1
  4  7  1  0
  6  8  1  0
  7  9  1  0
  7 10  2  0
  8 11  2  0
 10 12  1  0
  9 13  1  0
 12 13  2  0
  8 14  1  0
 13 15  1  0
 12 16  1  0
 14 17  2  0
 14 18  1  0
 15 19  2  0
 16 20  2  0
 19 20  1  0
 17 21  1  0
 18 22  2  0
 21 23  2  0
 22 23  1  0
 23 24  1  0
 24 25  1  0
 24 26  2  0
 24 27  2  0
M  END
