diamond-x1012_0_A-diamond-x0282_0_A
     RDKit          3D

 27 29  0  0  0  0  0  0  0  0999 V2000
   -0.3030   18.2340   -4.6020 N   0  0  0  0  0  0  0  0  0  0  0  0
   -1.2940   17.3540   -4.8320 C   0  0  0  0  0  0  0  0  0  0  0  0
   -2.4410   17.7440   -4.8080 O   0  0  0  0  0  0  0  0  0  0  0  0
   -0.9370   16.0670   -5.0740 N   0  0  0  0  0  0  0  0  0  0  0  0
   -1.9730   14.9770   -5.2300 C   0  0  0  0  0  0  0  0  0  0  0  0
    0.5340   15.8420   -5.1880 C   0  0  0  0  0  0  0  0  0  0  0  0
   -1.4390   13.5450   -5.1720 C   0  0  0  0  0  0  0  0  0  0  0  0
    0.9330   14.3800   -5.1500 C   0  0  0  0  0  0  0  0  0  0  0  0
   -0.1810   13.7140   -4.4180 C   0  0  0  0  0  0  0  0  0  0  0  0
    0.1780   12.8790   -3.3000 C   0  0  0  0  0  0  0  0  0  0  0  0
    0.1700   11.5240   -3.3010 O   0  0  0  0  0  0  0  0  0  0  0  0
    0.4320   13.6510   -2.4020 N   0  0  0  0  0  0  0  0  0  0  0  0
    0.7200   13.1740   -1.1930 C   0  0  0  0  0  0  0  0  0  0  0  0
   -0.3250   13.7090   -0.2870 C   0  0  0  0  0  0  0  0  0  0  0  0
   -1.4990   14.2780   -0.6330 N   0  0  0  0  0  0  0  0  0  0  0  0
    0.0370   13.5530    0.9390 C   0  0  0  0  0  0  0  0  0  0  0  0
   -0.6990   13.9570    1.8850 C   0  0  0  0  0  0  0  0  0  0  0  0
   -2.2490   14.6630    0.4230 C   0  0  0  0  0  0  0  0  0  0  0  0
   -3.4770   15.2200    0.2870 N   0  0  0  0  0  0  0  0  0  0  0  0
   -1.8530   14.5190    1.6940 N   0  0  0  0  0  0  0  0  0  0  0  0
   -4.0960   15.4330    1.5890 C   0  0  0  0  0  0  0  0  0  0  0  0
   -4.2780   14.8810   -0.8840 C   0  0  0  0  0  0  0  0  0  0  0  0
   -5.2710   14.5140    1.8790 C   0  0  0  0  0  0  0  0  0  0  0  0
   -5.7580   15.0480   -0.5760 C   0  0  0  0  0  0  0  0  0  0  0  0
   -6.1510   14.2160    0.6640 C   0  0  0  0  0  0  0  0  0  0  0  0
   -7.6330   14.3130    1.0470 C   0  0  0  0  0  0  0  0  0  0  0  0
   -8.4440   14.5540   -0.0930 O   0  0  0  0  0  0  0  0  0  0  0  0
  1  2  1  0
  2  3  2  0
  2  4  1  0
  4  5  1  0
  4  6  1  0
  5  7  1  0
  6  8  1  0
  7  9  1  0
  8  9  1  0
  9 10  1  0
 10 11  1  0
 10 12  2  3
 12 13  1  0
 13 14  1  0
 14 15  2  0
 14 16  1  0
 16 17  2  0
 15 18  1  0
 18 19  1  0
 17 20  1  0
 18 20  2  0
 19 21  1  0
 19 22  1  0
 21 23  1  0
 22 24  1  0
 23 25  1  0
 24 25  1  0
 25 26  1  0
 26 27  1  0
M  END
