diamond-x0967_0_A-mac-x0546
     RDKit          3D

 27 30  0  0  0  0  0  0  0  0999 V2000
   -4.2760   15.0310   -5.3240 C   0  0  0  0  0  0  0  0  0  0  0  0
   -3.5390   16.2340   -5.0440 O   0  0  0  0  0  0  0  0  0  0  0  0
   -2.1880   16.1340   -5.1750 C   0  0  0  0  0  0  0  0  0  0  0  0
   -4.3510   14.0890   -4.1120 C   0  0  0  0  0  0  0  0  0  0  0  0
   -5.4810   14.4320   -3.1250 C   0  0  0  0  0  0  0  0  0  0  0  0
   -4.9570   14.8050   -1.7960 N   0  0  0  0  0  0  0  0  0  0  0  0
   -1.5720   14.9490   -5.0210 C   0  0  0  0  0  0  0  0  0  0  0  0
   -1.4530   17.3530   -5.4950 C   0  0  0  0  0  0  0  0  0  0  0  0
   -5.7650   14.2910   -0.6690 C   0  0  2  0  0  0  0  0  0  0  0  0
   -3.5930   14.9490   -1.5860 C   0  0  0  0  0  0  0  0  0  0  0  0
   -0.0980   14.8760   -5.2040 C   0  0  1  0  0  0  0  0  0  0  0  0
   -0.1180   17.4360   -5.3340 C   0  0  0  0  0  0  0  0  0  0  0  0
   -7.2190   14.5050   -0.8030 N   0  0  0  0  0  0  0  0  0  0  0  0
   -5.1690   14.7380    0.6720 C   0  0  0  0  0  0  0  0  0  0  0  0
   -3.0470   15.0860   -0.3710 C   0  0  0  0  0  0  0  0  0  0  0  0
    0.4950   16.2070   -4.8130 C   0  0  0  0  0  0  0  0  0  0  0  0
    0.7970   14.0320   -4.3870 C   0  0  0  0  0  0  0  0  0  0  0  0
    0.6440   12.5540   -4.3460 C   0  0  0  0  0  0  0  0  0  0  0  0
   -6.0560   14.7280    1.8070 C   0  0  0  0  0  0  0  0  0  0  0  0
   -7.8880   14.6660    0.2800 C   0  0  0  0  0  0  0  0  0  0  0  0
   -3.8900   15.1050    0.7900 C   0  0  0  0  0  0  0  0  0  0  0  0
    1.5100   16.1510   -4.0350 N   0  0  0  0  0  0  0  0  0  0  0  0
    1.6870   14.8200   -3.7820 C   0  0  0  0  0  0  0  0  0  0  0  0
    0.5310   11.9990   -2.9400 C   0  0  0  0  0  0  0  0  0  0  0  0
   -7.3790   14.6820    1.6630 C   0  0  0  0  0  0  0  0  0  0  0  0
    0.9610   12.5850   -1.9600 O   0  0  0  0  0  0  0  0  0  0  0  0
   -0.0890   10.8010   -2.8500 O   0  0  0  0  0  0  0  0  0  0  0  0
  1  2  1  0
  2  3  1  0
  1  4  1  0
  4  5  1  0
  5  6  1  0
  3  7  2  0
  3  8  1  0
  6  9  1  0
  6 10  1  0
 11  7  1  1
  8 12  2  0
  9 13  1  6
  9 14  1  0
 10 15  2  0
 11 16  1  0
 12 16  1  0
 11 17  1  0
 17 18  1  0
 14 19  1  0
 13 20  2  0
 14 21  2  0
 15 21  1  0
 16 22  2  0
 17 23  2  0
 22 23  1  0
 18 24  1  0
 19 25  2  0
 20 25  1  0
 24 26  2  0
 24 27  1  0
M  END
