diamond-x0371_0_A-mac-x0411
     RDKit          3D

 33 36  0  0  0  0  0  0  0  0999 V2000
   -7.8510   14.6250    2.9110 N   0  0  0  0  0  0  0  0  0  0  0  0
   -8.6400   15.5310    3.5890 C   0  0  0  0  0  0  0  0  0  0  0  0
   -9.3860   16.3080    2.9930 O   0  0  0  0  0  0  0  0  0  0  0  0
   -8.1230   14.3270    1.5320 C   0  0  0  0  0  0  0  0  0  0  0  0
   -6.8810   14.4920    0.7260 C   0  0  0  0  0  0  0  0  0  0  0  0
   -8.5450   15.4980    5.0270 C   0  0  0  0  0  0  0  0  0  0  0  0
   -5.6260   14.5450    1.2850 N   0  0  0  0  0  0  0  0  0  0  0  0
   -6.8110   14.5980   -0.5880 N   0  0  0  0  0  0  0  0  0  0  0  0
   -7.9930   14.4090    5.6440 O   0  0  0  0  0  0  0  0  0  0  0  0
   -8.9320   16.4160    5.9810 C   0  0  0  0  0  0  0  0  0  0  0  0
   -5.4750   14.7110   -0.8900 C   0  0  0  0  0  0  0  0  0  0  0  0
   -4.7070   14.6880    0.2640 C   0  0  0  0  0  0  0  0  0  0  0  0
   -8.5990   15.8600    7.2390 C   0  0  0  0  0  0  0  0  0  0  0  0
   -8.0290   14.6390    6.9770 C   0  0  0  0  0  0  0  0  0  0  0  0
   -3.3180   14.7900    0.2430 C   0  0  0  0  0  0  0  0  0  0  0  0
   -4.8410   14.8300   -2.1460 C   0  0  0  0  0  0  0  0  0  0  0  0
   -2.6970   14.9040   -1.0240 C   0  0  0  0  0  0  0  0  0  0  0  0
   -3.4310   14.9200   -2.2320 C   0  0  0  0  0  0  0  0  0  0  0  0
   -2.7720   15.0270   -3.6340 C   0  0  0  0  0  0  0  0  0  0  0  0
   -1.4750   14.2110   -4.0170 C   0  0  0  0  0  0  0  0  0  0  0  0
   -1.5320   13.5100   -5.4300 C   0  0  0  0  0  0  0  0  0  0  0  0
   -1.6490   11.9790   -5.7710 C   0  0  0  0  0  0  0  0  0  0  0  0
   -0.5590   11.1880   -6.2680 C   0  0  0  0  0  0  0  0  0  0  0  0
   -2.8880   11.3180   -5.6400 C   0  0  0  0  0  0  0  0  0  0  0  0
    0.6650   11.7930   -6.4010 O   0  0  0  0  0  0  0  0  0  0  0  0
   -3.0570    9.9620   -5.9790 C   0  0  0  0  0  0  0  0  0  0  0  0
   -0.7560    9.8200   -6.6290 C   0  0  0  0  0  0  0  0  0  0  0  0
    0.4580    8.7820   -7.2950 Cl  0  0  0  0  0  0  0  0  0  0  0  0
    1.1210   12.5290   -5.2580 C   0  0  0  0  0  0  0  0  0  0  0  0
   -1.9960    9.2240   -6.4730 C   0  0  0  0  0  0  0  0  0  0  0  0
    0.9140   11.9820   -3.8400 C   0  0  0  0  0  0  0  0  0  0  0  0
    1.3500   12.8070   -2.8660 O   0  0  0  0  0  0  0  0  0  0  0  0
    0.4260   10.9040   -3.5370 O   0  0  0  0  0  0  0  0  0  0  0  0
  1  2  1  0
  2  3  2  0
  1  4  1  0
  4  5  1  0
  2  6  1  0
  5  7  1  0
  5  8  2  0
  6  9  1  0
  6 10  2  0
  8 11  1  0
  7 12  1  0
 11 12  2  0
 10 13  1  0
  9 14  1  0
 13 14  2  0
 12 15  1  0
 11 16  1  0
 15 17  2  0
 16 18  2  0
 17 18  1  0
 18 19  1  0
 19 20  1  0
 20 21  1  0
 21 22  1  0
 22 23  2  0
 22 24  1  0
 23 25  1  0
 24 26  2  0
 23 27  1  0
 27 28  1  0
 25 29  1  0
 26 30  1  0
 27 30  2  0
 29 31  1  0
 31 32  1  0
 31 33  2  0
M  END
