diamond-x0950_0_A-mac-x0321
     RDKit          3D

 17 17  0  0  0  0  0  0  0  0999 V2000
    3.0630   12.3810   -4.3670 C   0  0  0  0  0  0  0  0  0  0  0  0
    1.5640   12.6370   -4.3490 C   0  0  1  0  0  0  0  0  0  0  0  0
    1.0090   12.1050   -5.5480 O   0  0  0  0  0  0  0  0  0  0  0  0
    0.9360   12.0330   -3.0790 C   0  0  0  0  0  0  0  0  0  0  0  0
    0.5140   10.8890   -2.9800 O   0  0  0  0  0  0  0  0  0  0  0  0
    0.9190   12.9580   -2.0730 O   0  0  0  0  0  0  0  0  0  0  0  0
    0.4400   14.2610   -2.4290 C   0  0  0  0  0  0  0  0  0  0  0  0
   -0.8560   14.5270   -1.8910 O   0  0  0  0  0  0  0  0  0  0  0  0
   -1.8680   14.6430   -2.7820 C   0  0  0  0  0  0  0  0  0  0  0  0
   -1.7890   14.5450   -3.9950 O   0  0  0  0  0  0  0  0  0  0  0  0
   -3.1380   14.9140   -2.0650 C   0  0  0  0  0  0  0  0  0  0  0  0
   -3.1740   15.0450   -0.6770 C   0  0  0  0  0  0  0  0  0  0  0  0
   -4.3190   15.0420   -2.8030 C   0  0  0  0  0  0  0  0  0  0  0  0
   -4.3760   15.3040   -0.0470 C   0  0  0  0  0  0  0  0  0  0  0  0
   -5.5280   15.3000   -2.1570 C   0  0  0  0  0  0  0  0  0  0  0  0
   -4.3820   15.4670    1.6520 Cl  0  0  0  0  0  0  0  0  0  0  0  0
   -5.5540   15.4310   -0.7740 C   0  0  0  0  0  0  0  0  0  0  0  0
  2  1  1  6
  2  3  1  0
  2  4  1  0
  4  5  2  0
  4  6  1  0
  6  7  1  0
  7  8  1  0
  8  9  1  0
  9 10  2  0
  9 11  1  0
 11 12  2  0
 11 13  1  0
 12 14  1  0
 13 15  2  0
 14 16  1  0
 14 17  2  0
 15 17  1  0
M  END
