diamond-x0895_1_A-mac-x0178
     RDKit          3D

 23 24  0  0  0  0  0  0  0  0999 V2000
   -1.8480   14.8560    1.5290 O   0  0  0  0  0  0  0  0  0  0  0  0
   -2.9490   14.9000    0.9670 C   0  0  0  0  0  0  0  0  0  0  0  0
   -3.2470   15.0420   -0.5290 C   0  0  1  0  0  0  0  0  0  0  0  0
   -4.1540   14.8270    1.5840 N   0  0  0  0  0  0  0  0  0  0  0  0
   -2.2670   14.3590   -1.4580 C   0  0  0  0  0  0  0  0  0  0  0  0
   -4.5690   14.5050   -0.5570 N   0  0  0  0  0  0  0  0  0  0  0  0
   -5.1390   14.6950    0.6690 C   0  0  0  0  0  0  0  0  0  0  0  0
   -6.3350   14.7280    0.8800 O   0  0  0  0  0  0  0  0  0  0  0  0
   -1.3800   13.2820   -0.8390 C   0  0  0  0  0  0  0  0  0  0  0  0
    0.1220   13.3940   -1.0590 C   0  0  0  0  0  0  0  0  0  0  0  0
    0.5860   12.9780   -2.4550 C   0  0  0  0  0  0  0  0  0  0  0  0
    1.9840   12.8760   -2.4820 O   0  0  0  0  0  0  0  0  0  0  0  0
    0.0920   11.6810   -2.7700 O   0  0  0  0  0  0  0  0  0  0  0  0
   -0.0040   14.0570   -3.3350 C   0  0  0  0  0  0  0  0  0  0  0  0
    0.6750   15.2820   -3.4080 C   0  0  0  0  0  0  0  0  0  0  0  0
   -1.2060   13.9000   -4.0470 C   0  0  0  0  0  0  0  0  0  0  0  0
    0.1670   16.3380   -4.1520 C   0  0  0  0  0  0  0  0  0  0  0  0
   -1.7270   14.9590   -4.7970 C   0  0  0  0  0  0  0  0  0  0  0  0
   -1.0370   16.1750   -4.8320 C   0  0  0  0  0  0  0  0  0  0  0  0
   -1.6950   17.5490   -5.7400 S   0  0  0  0  0  0  0  0  0  0  0  0
   -0.3290   18.1620   -6.4940 N   0  0  0  0  0  0  0  0  0  0  0  0
   -2.5690   17.0670   -6.7750 O   0  0  0  0  0  0  0  0  0  0  0  0
   -2.1390   18.5360   -4.7920 O   0  0  0  0  0  0  0  0  0  0  0  0
  1  2  2  0
  2  3  1  0
  2  4  1  0
  3  5  1  6
  3  6  1  0
  4  7  1  0
  6  7  1  0
  7  8  2  0
  5  9  1  0
  9 10  1  0
 10 11  1  0
 11 12  1  0
 11 13  1  0
 11 14  1  0
 14 15  2  0
 14 16  1  0
 15 17  1  0
 16 18  2  0
 17 19  2  0
 18 19  1  0
 19 20  1  0
 20 21  1  0
 20 22  2  0
 20 23  2  0
M  END
