diamond-x0905_0_A-mac-x0590
     RDKit          3D

 19 21  0  0  0  0  0  0  0  0999 V2000
   -6.8520   15.3110   -0.8590 O   0  0  0  0  0  0  0  0  0  0  0  0
   -5.5600   14.7560   -0.7350 C   0  0  2  0  0  0  0  0  0  0  0  0
   -5.0990   14.9950    0.6010 N   0  0  0  0  0  0  0  0  0  0  0  0
   -4.5800   15.3760   -1.7280 C   0  0  0  0  0  0  0  0  0  0  0  0
   -3.7620   14.3990    0.8350 C   0  0  0  0  0  0  0  0  0  0  0  0
   -3.2010   14.6740   -1.6750 C   0  0  1  0  0  0  0  0  0  0  0  0
   -2.1960   14.9650   -2.8550 C   0  0  0  0  0  0  0  0  0  0  0  0
   -2.6180   14.6930   -0.2270 C   0  0  1  0  0  0  0  0  0  0  0  0
   -1.8060   13.6940   -3.6790 C   0  0  0  0  0  0  0  0  0  0  0  0
   -1.9080   15.9180    0.2030 N   0  0  0  0  0  0  0  0  0  0  0  0
   -1.4340   13.7090   -0.1570 C   0  0  0  0  0  0  0  0  0  0  0  0
   -0.5700   13.8240   -4.6020 C   0  0  0  0  0  0  0  0  0  0  0  0
   -0.2530   14.5360   -0.3230 N   0  0  0  0  0  0  0  0  0  0  0  0
   -0.6080   15.4950    0.6590 C   0  0  0  0  0  0  0  0  0  0  0  0
    0.2380   12.5210   -4.7470 C   0  0  2  0  0  0  0  0  0  0  0  0
    0.7170   11.9500   -3.4130 C   0  0  0  0  0  0  0  0  0  0  0  0
    1.5290   12.6790   -5.5320 C   0  0  0  0  0  0  0  0  0  0  0  0
    2.5480   12.9630   -4.4500 C   0  0  0  0  0  0  0  0  0  0  0  0
    2.1130   12.2640   -3.2780 O   0  0  0  0  0  0  0  0  0  0  0  0
  2  1  1  1
  2  3  1  0
  2  4  1  0
  3  5  1  0
  4  6  1  0
  6  7  1  6
  8  5  1  1
  6  8  1  0
  7  9  1  0
  8 10  1  0
  8 11  1  0
  9 12  1  0
 11 13  1  0
 10 14  1  0
 13 14  1  0
 15 12  1  1
 15 16  1  0
 15 17  1  0
 17 18  1  0
 16 19  1  0
 18 19  1  0
M  END
