diamond-x0628_0_A-mac-x0306
     RDKit          3D

 25 27  0  0  0  0  0  0  0  0999 V2000
   -0.8400    9.0730   -7.3650 C   0  0  0  0  0  0  0  0  0  0  0  0
   -0.8680   10.2370   -6.4650 C   0  0  0  0  0  0  0  0  0  0  0  0
   -1.8420   10.4370   -5.5290 N   0  0  0  0  0  0  0  0  0  0  0  0
    0.0700   11.1860   -6.5010 N   0  0  0  0  0  0  0  0  0  0  0  0
   -0.3390   12.0250   -5.5300 N   0  0  0  0  0  0  0  0  0  0  0  0
   -1.5030   11.5650   -4.9410 C   0  0  0  0  0  0  0  0  0  0  0  0
   -2.2590   12.2230   -3.8200 C   0  0  0  0  0  0  0  0  0  0  0  0
    0.4460   13.2170   -5.2540 C   0  0  0  0  0  0  0  0  0  0  0  0
    1.6200   12.9380   -4.3310 C   0  0  0  0  0  0  0  0  0  0  0  0
   -2.4150   13.7350   -3.9720 C   0  0  0  0  0  0  0  0  0  0  0  0
    1.1730   12.2640   -3.0560 C   0  0  0  0  0  0  0  0  0  0  0  0
   -1.9100   14.5000   -2.7340 C   0  0  0  0  0  0  0  0  0  0  0  0
    0.4970   11.2440   -2.9380 O   0  0  0  0  0  0  0  0  0  0  0  0
    1.6160   12.9470   -1.9890 O   0  0  0  0  0  0  0  0  0  0  0  0
   -3.0540   14.9280   -1.8900 N   0  0  0  0  0  0  0  0  0  0  0  0
   -4.2640   15.3230   -2.4350 C   0  0  0  0  0  0  0  0  0  0  0  0
   -2.9830   14.9430   -0.4970 C   0  0  0  0  0  0  0  0  0  0  0  0
   -5.4190   15.1380   -1.7850 C   0  0  0  0  0  0  0  0  0  0  0  0
   -4.0670   14.7350    0.2620 C   0  0  0  0  0  0  0  0  0  0  0  0
   -5.3880   14.4590   -0.4210 C   0  0  0  0  0  0  0  0  0  0  0  0
   -6.6430   14.5890    0.4270 C   0  0  0  0  0  0  0  0  0  0  0  0
   -6.6370   14.5210    1.8080 N   0  0  0  0  0  0  0  0  0  0  0  0
   -7.8810   14.7690   -0.0090 N   0  0  0  0  0  0  0  0  0  0  0  0
   -8.6720   14.8150    1.1110 C   0  0  0  0  0  0  0  0  0  0  0  0
   -7.9200   14.6650    2.2410 C   0  0  0  0  0  0  0  0  0  0  0  0
  1  2  1  0
  2  3  1  0
  2  4  2  0
  4  5  1  0
  3  6  2  0
  5  6  1  0
  6  7  1  0
  5  8  1  0
  8  9  1  0
  7 10  1  0
  9 11  1  0
 10 12  1  0
 11 13  2  0
 11 14  1  0
 12 15  1  0
 15 16  1  0
 15 17  1  0
 16 18  2  0
 17 19  2  0
 18 20  1  0
 19 20  1  0
 20 21  1  0
 21 22  1  0
 21 23  2  0
 23 24  1  0
 22 25  1  0
 24 25  2  0
M  END
