diamond-x0421_0_A-diamond-x0852_0_B
     RDKit          3D

 20 22  0  0  0  0  0  0  0  0999 V2000
   -4.2180   15.2180   -2.8770 N   0  0  0  0  0  0  0  0  0  0  0  0
   -3.3360   15.0680   -1.8530 C   0  0  0  0  0  0  0  0  0  0  0  0
   -2.1260   14.9540   -2.0550 O   0  0  0  0  0  0  0  0  0  0  0  0
   -3.9470   15.0390   -0.5220 C   0  0  0  0  0  0  0  0  0  0  0  0
   -3.2470   15.2190    0.6480 C   0  0  0  0  0  0  0  0  0  0  0  0
   -5.3170   14.8110   -0.2390 N   0  0  0  0  0  0  0  0  0  0  0  0
   -4.1640   15.0910    1.6310 N   0  0  0  0  0  0  0  0  0  0  0  0
   -5.3930   14.8450    1.0890 C   0  0  0  0  0  0  0  0  0  0  0  0
   -6.5900   14.6140    2.0980 C   0  0  1  0  0  0  0  0  0  0  0  0
   -8.1370   14.7170    2.3870 C   0  0  1  0  0  0  0  0  0  0  0  0
   -7.5800   13.6100    1.5300 C   0  0  0  0  0  0  0  0  0  0  0  0
   -8.3290   14.3410    3.8430 C   0  0  0  0  0  0  0  0  0  0  0  0
   -9.3820   15.6420    2.1190 C   0  0  2  0  0  0  0  0  0  0  0  0
   -9.7500   16.5780    0.4270 Br  0  0  0  0  0  0  0  0  0  0  0  0
   -7.8710   15.5080    4.7050 C   0  0  2  0  0  0  0  0  0  0  0  0
   -9.8050   16.5500    3.3370 C   0  0  0  0  0  0  0  0  0  0  0  0
   -7.7010   15.0110    6.0190 O   0  0  0  0  0  0  0  0  0  0  0  0
   -8.8320   16.6920    4.5390 C   0  0  1  0  0  0  0  0  0  0  0  0
   -9.4610   17.0720    5.8250 C   0  0  0  0  0  0  0  0  0  0  0  0
   -9.8970   17.4080    6.8510 N   0  0  0  0  0  0  0  0  0  0  0  0
  1  2  1  0
  2  3  2  0
  2  4  1  0
  4  5  2  0
  4  6  1  0
  5  7  1  0
  6  8  2  0
  7  8  1  0
  9  8  1  6
  9 10  1  0
  9 11  1  0
 10 11  1  6
 10 12  1  0
 10 13  1  0
 13 14  1  6
 12 15  1  0
 13 16  1  0
 15 17  1  1
 15 18  1  0
 16 18  1  0
 18 19  1  1
 19 20  3  0
M  END
