diamond-x0471_0_A-diamond-x0962_1_A
     RDKit          3D

 18 19  0  0  0  0  0  0  0  0999 V2000
   -8.6950   14.1690    2.5650 N   0  0  0  0  0  0  0  0  0  0  0  0
   -9.1140   15.1490    3.4470 C   0  0  0  0  0  0  0  0  0  0  0  0
   -9.4410   16.2600    3.0450 O   0  0  0  0  0  0  0  0  0  0  0  0
   -8.5560   14.4540    1.1320 C   0  0  0  0  0  0  0  0  0  0  0  0
   -9.2000   14.8150    4.9430 C   0  0  0  0  0  0  0  0  0  0  0  0
   -7.0950   14.6280    0.8280 C   0  0  0  0  0  0  0  0  0  0  0  0
   -9.5850   13.3630    5.2060 C   0  0  0  0  0  0  0  0  0  0  0  0
   -7.9490   15.2380    5.7050 C   0  0  0  0  0  0  0  0  0  0  0  0
   -6.4620   14.7490   -0.4120 N   0  0  0  0  0  0  0  0  0  0  0  0
   -6.1450   14.7010    1.7540 N   0  0  0  0  0  0  0  0  0  0  0  0
   -6.7570   14.7720   -1.8060 C   0  0  0  0  0  0  0  0  0  0  0  0
   -4.9500   14.8550    1.0730 C   0  0  0  0  0  0  0  0  0  0  0  0
   -5.1730   14.8820   -0.2600 C   0  0  0  0  0  0  0  0  0  0  0  0
   -6.7630   14.8040   -2.9490 N   0  0  0  0  0  0  0  0  0  0  0  0
   -4.2200   15.0200   -1.2570 C   0  0  0  0  0  0  0  0  0  0  0  0
   -3.6200   14.9780    1.4940 C   0  0  0  0  0  0  0  0  0  0  0  0
   -2.9240   15.1290   -0.8340 C   0  0  0  0  0  0  0  0  0  0  0  0
   -2.6190   15.1100    0.5250 C   0  0  0  0  0  0  0  0  0  0  0  0
  1  2  1  0
  2  3  2  0
  1  4  1  0
  2  5  1  0
  4  6  1  0
  5  7  1  0
  5  8  1  0
  6  9  1  0
  6 10  2  0
  9 11  1  0
 10 12  1  0
  9 13  1  0
 12 13  2  0
 11 14  3  0
 13 15  1  0
 12 16  1  0
 15 17  2  0
 16 18  2  0
 17 18  1  0
M  END
