diamond-x0711_0_A-mac-x0179
     RDKit          3D

 27 30  0  0  0  0  0  0  0  0999 V2000
   -1.8460   15.0490   -2.7380 N   0  0  0  0  0  0  0  0  0  0  0  0
   -0.9000   13.8580   -3.5030 S   0  0  1  0  0  0  0  0  0  0  0  0
   -1.7680   12.6310   -4.3930 C   0  0  0  0  0  0  0  0  0  0  0  0
   -2.9610   14.8980   -1.8930 C   0  0  0  0  0  0  0  0  0  0  0  0
   -0.1820   14.6460   -4.4810 O   0  0  0  0  0  0  0  0  0  0  0  0
   -0.1500   13.2560   -2.3280 N   0  0  0  0  0  0  0  0  0  0  0  0
   -4.2180   15.1240   -2.4380 C   0  0  0  0  0  0  0  0  0  0  0  0
   -2.8470   14.5510   -0.5360 C   0  0  0  0  0  0  0  0  0  0  0  0
    0.6570   12.2580   -2.8590 C   0  0  0  0  0  0  0  0  0  0  0  0
   -5.3610   15.0140   -1.6520 C   0  0  0  0  0  0  0  0  0  0  0  0
   -3.9960   14.4360    0.2640 C   0  0  0  0  0  0  0  0  0  0  0  0
   -0.9950   11.8880   -5.2220 C   0  0  0  0  0  0  0  0  0  0  0  0
    0.8670   11.1990   -2.2890 O   0  0  0  0  0  0  0  0  0  0  0  0
    1.2070   12.5270   -4.2640 C   0  0  0  0  0  0  0  0  0  0  0  0
   -5.2580   14.6700   -0.2970 C   0  0  0  0  0  0  0  0  0  0  0  0
    0.3430   12.1110   -5.3480 N   0  0  0  0  0  0  0  0  0  0  0  0
   -1.2950   10.7370   -6.1460 C   0  0  0  0  0  0  0  0  0  0  0  0
   -6.5310   14.5750    0.4710 C   0  0  0  0  0  0  0  0  0  0  0  0
    0.8490   11.5320   -6.4770 C   0  0  0  0  0  0  0  0  0  0  0  0
   -0.1330   10.5460   -6.9160 C   0  0  0  0  0  0  0  0  0  0  0  0
   -2.3770    9.8900   -6.3840 C   0  0  0  0  0  0  0  0  0  0  0  0
   -6.5170   14.6960    1.8390 N   0  0  0  0  0  0  0  0  0  0  0  0
   -7.5950   14.4070   -0.1130 O   0  0  0  0  0  0  0  0  0  0  0  0
    1.8900   11.7530   -6.9980 O   0  0  0  0  0  0  0  0  0  0  0  0
    0.0110    9.5800   -7.8960 C   0  0  0  0  0  0  0  0  0  0  0  0
   -2.2570    8.8920   -7.3780 C   0  0  0  0  0  0  0  0  0  0  0  0
   -1.0730    8.7420   -8.1290 C   0  0  0  0  0  0  0  0  0  0  0  0
  2  1  1  1
  2  3  1  0
  1  4  1  0
  2  5  2  0
  2  6  2  0
  4  7  2  0
  4  8  1  0
  6  9  1  0
  7 10  1  0
  8 11  2  0
  3 12  2  0
  9 13  2  0
  9 14  1  0
 10 15  2  0
 11 15  1  0
 12 16  1  0
 14 16  1  0
 12 17  1  0
 15 18  1  0
 16 19  1  0
 17 20  2  0
 19 20  1  0
 17 21  1  0
 18 22  1  0
 18 23  2  0
 19 24  2  0
 20 25  1  0
 21 26  2  0
 25 27  2  0
 26 27  1  0
M  END
