diamond-x0950_1_A-mac-x0193
     RDKit          3D

 15 15  0  0  0  0  0  0  0  0999 V2000
    0.7680   13.8710   -4.8470 C   0  0  0  0  0  0  0  0  0  0  0  0
    1.0810   12.4000   -4.6300 C   0  0  2  0  0  0  0  0  0  0  0  0
    0.2740   11.6130   -5.5540 O   0  0  0  0  0  0  0  0  0  0  0  0
    0.8200   12.0090   -3.1710 C   0  0  0  0  0  0  0  0  0  0  0  0
    0.2090   11.0100   -2.8400 O   0  0  0  0  0  0  0  0  0  0  0  0
    1.3380   12.8760   -2.2640 O   0  0  0  0  0  0  0  0  0  0  0  0
    0.9000   11.4470   -6.7470 C   0  0  0  0  0  0  0  0  0  0  0  0
    1.9730   11.9390   -6.9370 O   0  0  0  0  0  0  0  0  0  0  0  0
    0.1840   10.6730   -7.6400 N   0  0  0  0  0  0  0  0  0  0  0  0
    0.7810   10.1630   -8.8850 C   0  0  0  0  0  0  0  0  0  0  0  0
    1.3320    8.7530   -8.6760 C   0  0  0  0  0  0  0  0  0  0  0  0
   -0.1880   10.1520  -10.0680 C   0  0  0  0  0  0  0  0  0  0  0  0
    2.0320    8.1970   -9.9210 C   0  0  0  0  0  0  0  0  0  0  0  0
    0.5010    9.6230  -11.3340 C   0  0  0  0  0  0  0  0  0  0  0  0
    1.1200    8.2360  -11.1360 C   0  0  0  0  0  0  0  0  0  0  0  0
  2  1  1  1
  2  3  1  0
  2  4  1  0
  4  5  2  0
  4  6  1  0
  3  7  1  0
  7  8  2  0
  7  9  1  0
  9 10  1  0
 10 11  1  0
 10 12  1  0
 11 13  1  0
 12 14  1  0
 13 15  1  0
 14 15  1  0
M  END
