diamond-x0926_0_A-mac-x0394
     RDKit          3D

 21 22  0  0  0  0  0  0  0  0999 V2000
   -6.8310   15.0780   -0.3970 O   0  0  0  0  0  0  0  0  0  0  0  0
   -5.6060   15.1290   -0.2970 C   0  0  0  0  0  0  0  0  0  0  0  0
   -4.9000   14.9680    1.0480 C   0  0  0  0  0  0  0  0  0  0  0  0
   -4.8380   15.3180   -1.4140 N   0  0  0  0  0  0  0  0  0  0  0  0
   -3.4640   15.0650   -1.3940 N   0  0  0  0  0  0  0  0  0  0  0  0
   -3.4150   14.9610    0.9870 C   0  0  0  0  0  0  0  0  0  0  0  0
   -2.8830   14.6130   -2.6640 C   0  0  0  0  0  0  0  0  0  0  0  0
   -2.7970   15.0040   -0.1910 C   0  0  0  0  0  0  0  0  0  0  0  0
   -3.8520   14.7920   -3.8450 C   0  0  0  0  0  0  0  0  0  0  0  0
   -3.2020   15.3370   -5.1260 C   0  0  0  0  0  0  0  0  0  0  0  0
   -1.7130   15.4510   -4.9990 C   0  0  0  0  0  0  0  0  0  0  0  0
   -0.9350   14.3180   -4.7290 C   0  0  0  0  0  0  0  0  0  0  0  0
   -1.0870   16.6870   -5.1410 C   0  0  0  0  0  0  0  0  0  0  0  0
    0.4550   14.4010   -4.5970 C   0  0  0  0  0  0  0  0  0  0  0  0
    0.2840   16.7740   -5.0130 C   0  0  0  0  0  0  0  0  0  0  0  0
    1.0050   18.3070   -5.2020 Cl  0  0  0  0  0  0  0  0  0  0  0  0
    1.2660   13.1600   -4.2990 C   0  0  0  0  0  0  0  0  0  0  0  0
    1.0640   15.6490   -4.7410 C   0  0  0  0  0  0  0  0  0  0  0  0
    0.9230   12.5110   -2.9690 C   0  0  0  0  0  0  0  0  0  0  0  0
    0.4540   11.2420   -3.0930 O   0  0  0  0  0  0  0  0  0  0  0  0
    1.0360   13.0280   -1.8720 O   0  0  0  0  0  0  0  0  0  0  0  0
  1  2  2  0
  2  3  1  0
  2  4  1  0
  4  5  1  0
  3  6  1  0
  5  7  1  0
  5  8  1  0
  6  8  2  0
  7  9  1  0
  9 10  1  0
 10 11  1  0
 11 12  2  0
 11 13  1  0
 12 14  1  0
 13 15  2  0
 15 16  1  0
 14 17  1  0
 14 18  2  0
 15 18  1  0
 17 19  1  0
 19 20  1  0
 19 21  2  0
M  END
