diamond-x0548_1_B-mac-x0343
     RDKit          3D

 30 33  0  0  0  0  0  0  0  0999 V2000
   -6.0510   34.8490    8.6170 C   0  0  0  0  0  0  0  0  0  0  0  0
   -7.4610   34.7700    8.4530 O   0  0  0  0  0  0  0  0  0  0  0  0
   -8.0110   35.6050    7.5230 C   0  0  0  0  0  0  0  0  0  0  0  0
   -7.3420   36.4340    6.6970 C   0  0  0  0  0  0  0  0  0  0  0  0
   -9.4760   35.5390    7.4940 C   0  0  0  0  0  0  0  0  0  0  0  0
   -8.1040   37.2640    5.8060 C   0  0  0  0  0  0  0  0  0  0  0  0
  -10.1790   36.0770    6.4760 C   0  0  0  0  0  0  0  0  0  0  0  0
   -9.4260   36.7170    5.3740 C   0  0  1  0  0  0  0  0  0  0  0  0
   -7.8480   38.4550    5.2760 C   0  0  0  0  0  0  0  0  0  0  0  0
   -6.7900   39.4940    5.2530 C   0  0  0  0  0  0  0  0  0  0  0  0
  -10.0490   37.7940    4.5900 N   0  0  0  0  0  0  0  0  0  0  0  0
   -9.1130   38.6900    4.5450 C   0  0  0  0  0  0  0  0  0  0  0  0
   -6.1320   39.9200    6.4830 N   0  0  0  0  0  0  0  0  0  0  0  0
   -7.0650   40.4980    7.4400 C   0  0  0  0  0  0  0  0  0  0  0  0
   -4.8820   40.6610    6.3200 C   0  0  0  0  0  0  0  0  0  0  0  0
   -3.7230   39.7530    5.8670 C   0  0  0  0  0  0  0  0  0  0  0  0
   -2.4830   40.4880    5.3290 C   0  0  0  0  0  0  0  0  0  0  0  0
   -1.2430   40.3930    6.2380 C   0  0  0  0  0  0  0  0  0  0  0  0
    0.1370   40.6930    5.6120 C   0  0  2  0  0  0  0  0  0  0  0  0
    0.1530   40.6700    4.0770 C   0  0  0  0  0  0  0  0  0  0  0  0
    1.1670   39.6720    6.1200 C   0  0  0  0  0  0  0  0  0  0  0  0
    0.9360   38.3240    5.5840 N   0  0  0  0  0  0  0  0  0  0  0  0
    0.0650   39.2500    3.5040 C   0  0  0  0  0  0  0  0  0  0  0  0
    1.0380   38.2570    4.1350 C   0  0  0  0  0  0  0  0  0  0  0  0
    1.5960   37.2550    6.3330 C   0  0  0  0  0  0  0  0  0  0  0  0
    0.5960   36.5800    7.3020 C   0  0  0  0  0  0  0  0  0  0  0  0
    2.8590   37.7890    7.0640 C   0  0  0  0  0  0  0  0  0  0  0  0
    1.2780   35.7260    8.3310 C   0  0  0  0  0  0  0  0  0  0  0  0
    3.3460   36.8330    8.1270 C   0  0  0  0  0  0  0  0  0  0  0  0
    2.2310   36.5730    9.0260 N   0  0  0  0  0  0  0  0  0  0  0  0
  1  2  1  0
  2  3  1  0
  3  4  2  0
  3  5  1  0
  4  6  1  0
  5  7  2  0
  6  8  1  0
  8  7  1  1
  6  9  2  0
  9 10  1  0
  8 11  1  0
  9 12  1  0
 11 12  2  0
 10 13  1  0
 13 14  1  0
 13 15  1  0
 15 16  1  0
 16 17  1  0
 17 18  1  0
 19 18  1  1
 19 20  1  0
 19 21  1  0
 21 22  1  0
 20 23  1  0
 22 24  1  0
 23 24  1  0
 22 25  1  0
 25 26  1  0
 25 27  1  0
 26 28  1  0
 27 29  1  0
 28 30  1  0
 29 30  1  0
M  END
