diamond-x0962_2_B-diamond-x0371_0_A
     RDKit          3D

 24 27  0  0  0  0  0  0  0  0999 V2000
   -9.6730   16.0560    1.3040 N   0  0  0  0  0  0  0  0  0  0  0  0
   -9.7520   15.4030    2.6360 C   0  0  1  0  0  0  0  0  0  0  0  0
   -8.5430   14.5320    3.1240 C   0  0  2  0  0  0  0  0  0  0  0  0
   -9.5770   16.3670    3.6800 C   0  0  0  0  0  0  0  0  0  0  0  0
   -8.5390   13.2020    2.4940 N   0  0  0  0  0  0  0  0  0  0  0  0
  -10.4500   17.3090    4.1060 N   0  0  0  0  0  0  0  0  0  0  0  0
   -8.4640   16.4910    4.4530 C   0  0  0  0  0  0  0  0  0  0  0  0
   -8.5780   14.5100    4.6520 C   0  0  0  0  0  0  0  0  0  0  0  0
   -8.5060   13.4000    1.0430 C   0  0  0  0  0  0  0  0  0  0  0  0
   -9.8200   17.9610    5.1230 C   0  0  0  0  0  0  0  0  0  0  0  0
   -8.6320   17.4740    5.3420 N   0  0  0  0  0  0  0  0  0  0  0  0
   -7.6850   13.7070    5.2870 O   0  0  0  0  0  0  0  0  0  0  0  0
   -9.3530   15.1630    5.6130 C   0  0  0  0  0  0  0  0  0  0  0  0
   -7.1890   13.8780    0.4980 C   0  0  0  0  0  0  0  0  0  0  0  0
   -8.8900   14.7340    6.8780 C   0  0  0  0  0  0  0  0  0  0  0  0
   -7.8790   13.8490    6.6230 C   0  0  0  0  0  0  0  0  0  0  0  0
   -6.0110   13.9570    1.2220 N   0  0  0  0  0  0  0  0  0  0  0  0
   -6.9860   14.2760   -0.7430 N   0  0  0  0  0  0  0  0  0  0  0  0
   -5.6590   14.6000   -0.8230 C   0  0  0  0  0  0  0  0  0  0  0  0
   -5.0270   14.4060    0.3950 C   0  0  0  0  0  0  0  0  0  0  0  0
   -3.6780   14.6450    0.6110 C   0  0  0  0  0  0  0  0  0  0  0  0
   -4.9210   15.0640   -1.9130 C   0  0  0  0  0  0  0  0  0  0  0  0
   -2.9560   15.0960   -0.4870 C   0  0  0  0  0  0  0  0  0  0  0  0
   -3.5620   15.3070   -1.7310 C   0  0  0  0  0  0  0  0  0  0  0  0
  2  1  1  6
  2  3  1  0
  2  4  1  0
  3  5  1  6
  4  6  1  0
  4  7  2  0
  3  8  1  0
  5  9  1  0
  6 10  1  0
  7 11  1  0
 10 11  2  0
  8 12  1  0
  8 13  2  0
  9 14  1  0
 13 15  1  0
 12 16  1  0
 15 16  2  0
 14 17  1  0
 14 18  2  0
 18 19  1  0
 17 20  1  0
 19 20  2  0
 20 21  1  0
 19 22  1  0
 21 23  2  0
 22 24  2  0
 23 24  1  0
M  END
