diamond-x0933_0_A-mac-x0345
     RDKit          3D

  9  9  0  0  0  0  0  0  0  0999 V2000
   -6.1020   14.8430    2.1620 N   0  0  0  0  0  0  0  0  0  0  0  0
   -5.1660   14.4650    1.1550 C   0  0  2  0  0  0  0  0  0  0  0  0
   -3.9890   15.2230    1.4360 N   0  0  0  0  0  0  0  0  0  0  0  0
   -5.6950   14.9140   -0.1070 N   0  0  0  0  0  0  0  0  0  0  0  0
   -7.0830   14.4490   -0.2730 C   0  0  0  0  0  0  0  0  0  0  0  0
   -4.8160   14.5370   -1.2170 C   0  0  1  0  0  0  0  0  0  0  0  0
   -2.9340   14.8730    0.4940 C   0  0  0  0  0  0  0  0  0  0  0  0
   -5.3830   15.1310   -2.4300 N   0  0  0  0  0  0  0  0  0  0  0  0
   -3.3680   14.9750   -0.9770 C   0  0  0  0  0  0  0  0  0  0  0  0
  2  1  1  1
  2  3  1  0
  2  4  1  0
  4  5  1  0
  4  6  1  0
  3  7  1  0
  6  8  1  6
  6  9  1  0
  7  9  1  0
M  END
