diamond-x0933_3_B-diamond-x0548_0_B
     RDKit          3D

 25 27  0  0  0  0  0  0  0  0999 V2000
    0.0600   34.5250   11.0840 N   0  0  0  0  0  0  0  0  0  0  0  0
   -0.1790   35.0580    9.7820 C   0  0  1  0  0  0  0  0  0  0  0  0
   -0.9240   36.3370    9.7830 N   0  0  0  0  0  0  0  0  0  0  0  0
    1.1510   35.1240    9.1790 N   0  0  0  0  0  0  0  0  0  0  0  0
   -2.4410   36.4170    9.5840 C   0  0  0  0  0  0  0  0  0  0  0  0
    1.1230   35.3720    7.7450 C   0  0  0  0  0  0  0  0  0  0  0  0
   -0.2880   37.1300    8.7070 C   0  0  0  0  0  0  0  0  0  0  0  0
   -3.3790   35.5900   10.5360 C   0  0  0  0  0  0  0  0  0  0  0  0
   -0.0250   36.3050    7.4420 C   0  0  0  0  0  0  0  0  0  0  0  0
   -4.8850   35.2730   10.1240 C   0  0  0  0  0  0  0  0  0  0  0  0
   -5.4610   35.5450    8.7030 C   0  0  0  0  0  0  0  0  0  0  0  0
   -6.7780   34.9140    8.5430 O   0  0  0  0  0  0  0  0  0  0  0  0
   -7.5860   35.6220    7.6540 C   0  0  0  0  0  0  0  0  0  0  0  0
   -7.0540   36.4980    6.7800 C   0  0  0  0  0  0  0  0  0  0  0  0
   -9.0460   35.4050    7.7010 C   0  0  0  0  0  0  0  0  0  0  0  0
   -7.9480   37.2220    5.9220 C   0  0  0  0  0  0  0  0  0  0  0  0
   -9.8660   35.8730    6.7160 C   0  0  0  0  0  0  0  0  0  0  0  0
   -9.2490   36.5940    5.5670 C   0  0  1  0  0  0  0  0  0  0  0  0
   -7.7970   38.4190    5.3670 C   0  0  0  0  0  0  0  0  0  0  0  0
   -6.7290   39.4470    5.3610 C   0  0  0  0  0  0  0  0  0  0  0  0
   -9.9790   37.6280    4.8080 N   0  0  0  0  0  0  0  0  0  0  0  0
   -9.0960   38.5830    4.7030 C   0  0  0  0  0  0  0  0  0  0  0  0
   -6.0350   39.6020    6.6520 N   0  0  0  0  0  0  0  0  0  0  0  0
   -6.9230   40.2400    7.6250 C   0  0  0  0  0  0  0  0  0  0  0  0
   -4.7960   40.3710    6.5180 C   0  0  0  0  0  0  0  0  0  0  0  0
  2  1  1  1
  2  3  1  0
  2  4  1  0
  3  5  1  0
  4  6  1  0
  3  7  1  0
  5  8  1  0
  6  9  1  0
  7  9  1  0
  8 10  1  0
 10 11  1  0
 11 12  1  0
 12 13  1  0
 13 14  2  0
 13 15  1  0
 14 16  1  0
 15 17  2  0
 16 18  1  0
 18 17  1  1
 16 19  2  0
 19 20  1  0
 18 21  1  0
 19 22  1  0
 21 22  2  0
 20 23  1  0
 23 24  1  0
 23 25  1  0
M  END
