diamond-x0742_0_A-mac-x0131
     RDKit          3D

 29 33  0  0  0  0  0  0  0  0999 V2000
   -5.6080   11.6690   -0.8580 C   0  0  0  0  0  0  0  0  0  0  0  0
   -6.4990   11.5480    0.3570 C   0  0  0  0  0  0  0  0  0  0  0  0
   -5.2670   10.6920   -1.5070 O   0  0  0  0  0  0  0  0  0  0  0  0
   -5.1970   13.0610   -1.2800 C   0  0  2  0  0  0  0  0  0  0  0  0
   -5.4610   13.9690   -0.0950 C   0  0  0  0  0  0  0  0  0  0  0  0
   -5.9480   13.2370   -2.6010 C   0  0  0  0  0  0  0  0  0  0  0  0
   -3.7690   13.2240   -1.8640 C   0  0  2  0  0  0  0  0  0  0  0  0
   -3.8070   12.0690   -2.8700 C   0  0  0  0  0  0  0  0  0  0  0  0
   -2.5200   13.4140   -0.9130 C   0  0  1  0  0  0  0  0  0  0  0  0
   -4.3830   13.6950    0.9370 C   0  0  0  0  0  0  0  0  0  0  0  0
   -5.2020   12.2370   -3.5010 C   0  0  0  0  0  0  0  0  0  0  0  0
   -1.5530   14.5900   -1.2510 C   0  0  2  0  0  0  0  0  0  0  0  0
   -2.9930   14.0240    0.3960 C   0  0  1  0  0  0  0  0  0  0  0  0
   -2.0170   14.0980    1.4400 N   0  0  0  0  0  0  0  0  0  0  0  0
   -0.4150   14.6730   -0.2350 C   0  0  0  0  0  0  0  0  0  0  0  0
   -2.5390   15.7140   -0.9740 C   0  0  0  0  0  0  0  0  0  0  0  0
   -1.4720   14.9700   -2.6710 N   0  0  0  0  0  0  0  0  0  0  0  0
   -2.7230   14.9690    2.2410 N   0  0  0  0  0  0  0  0  0  0  0  0
   -0.3540   14.5600   -3.5110 C   0  0  0  0  0  0  0  0  0  0  0  0
   -0.7140   14.4210    1.0520 C   0  0  0  0  0  0  0  0  0  0  0  0
   -2.8580   14.8400   -3.1650 C   0  0  1  0  0  0  0  0  0  0  0  0
   -3.6280   15.0800   -1.8240 C   0  0  2  0  0  0  0  0  0  0  0  0
   -3.2440   15.6570   -4.3870 C   0  0  0  0  0  0  0  0  0  0  0  0
   -5.0150   15.6930   -1.7540 C   0  0  0  0  0  0  0  0  0  0  0  0
   -0.3020   13.0870   -3.6280 C   0  0  0  0  0  0  0  0  0  0  0  0
    0.6010   12.1290   -3.2280 C   0  0  0  0  0  0  0  0  0  0  0  0
   -1.3570   12.4970   -4.2570 O   0  0  0  0  0  0  0  0  0  0  0  0
   -1.1310   11.1680   -4.2510 C   0  0  0  0  0  0  0  0  0  0  0  0
    0.0540   10.8880   -3.6320 C   0  0  0  0  0  0  0  0  0  0  0  0
  1  2  1  0
  1  3  2  0
  4  1  1  1
  4  5  1  0
  4  6  1  0
  4  7  1  0
  7  8  1  1
  7  9  1  0
  5 10  1  0
  6 11  1  0
  8 11  1  0
  9 12  1  6
  9 13  1  0
 13 10  1  1
 13 14  1  0
 12 15  1  1
 12 16  1  0
 12 17  1  0
 14 18  1  0
 17 19  1  0
 14 20  1  0
 15 20  2  0
 17 21  1  0
 16 22  1  0
 21 22  1  0
 21 23  1  6
 22 24  1  6
 19 25  1  0
 25 26  2  0
 25 27  1  0
 27 28  1  0
 26 29  1  0
 28 29  2  0
M  END
