diamond-x0438_0_A-mac-x0179
     RDKit          3D

 32 35  0  0  0  0  0  0  0  0999 V2000
   -8.1690   15.5400    3.8410 C   0  0  0  0  0  0  0  0  0  0  0  0
   -9.4020   15.3880    2.5650 S   0  0  0  0  0  0  0  0  0  0  0  0
  -10.6150   14.9130    3.1990 O   0  0  0  0  0  0  0  0  0  0  0  0
   -8.7640   14.0940    1.5240 C   0  0  0  0  0  0  0  0  0  0  0  0
   -9.4390   16.5990    1.7770 O   0  0  0  0  0  0  0  0  0  0  0  0
   -7.4210   14.3620    0.9330 C   0  0  0  0  0  0  0  0  0  0  0  0
   -7.2040   14.4870   -0.4190 N   0  0  0  0  0  0  0  0  0  0  0  0
   -6.2870   14.5000    1.5910 N   0  0  0  0  0  0  0  0  0  0  0  0
   -5.3090   14.6920    0.6410 C   0  0  0  0  0  0  0  0  0  0  0  0
   -5.8660   14.6860   -0.6260 C   0  0  0  0  0  0  0  0  0  0  0  0
   -5.1240   14.8480   -1.7920 C   0  0  0  0  0  0  0  0  0  0  0  0
   -3.9270   14.8720    0.7840 C   0  0  0  0  0  0  0  0  0  0  0  0
   -3.7400   15.0070   -1.6600 C   0  0  0  0  0  0  0  0  0  0  0  0
   -3.1520   15.0240   -0.3770 C   0  0  0  0  0  0  0  0  0  0  0  0
   -2.8930   15.1420   -2.9110 C   0  0  0  0  0  0  0  0  0  0  0  0
   -2.9530   13.9320   -3.8740 C   0  0  0  0  0  0  0  0  0  0  0  0
   -2.1800   12.6810   -3.3960 C   0  0  0  0  0  0  0  0  0  0  0  0
   -2.1240   11.6620   -4.4370 N   0  0  0  0  0  0  0  0  0  0  0  0
   -1.1670   11.4380   -5.2580 C   0  0  0  0  0  0  0  0  0  0  0  0
    0.0470   12.0450   -5.4330 N   0  0  0  0  0  0  0  0  0  0  0  0
   -1.2500   10.3670   -6.2690 C   0  0  0  0  0  0  0  0  0  0  0  0
    0.8000   12.8630   -4.4930 C   0  0  0  0  0  0  0  0  0  0  0  0
    0.7170   11.5000   -6.4940 C   0  0  0  0  0  0  0  0  0  0  0  0
   -0.0970   10.4160   -7.0270 C   0  0  0  0  0  0  0  0  0  0  0  0
   -2.2350    9.4280   -6.5210 C   0  0  0  0  0  0  0  0  0  0  0  0
    0.9880   12.2060   -3.1330 C   0  0  0  0  0  0  0  0  0  0  0  0
    1.7940   11.8130   -6.9220 O   0  0  0  0  0  0  0  0  0  0  0  0
    0.1460    9.5490   -8.0730 C   0  0  0  0  0  0  0  0  0  0  0  0
   -2.0180    8.5330   -7.5750 C   0  0  0  0  0  0  0  0  0  0  0  0
    1.5470   12.9780   -2.1800 O   0  0  0  0  0  0  0  0  0  0  0  0
    0.6560   11.0510   -2.9000 O   0  0  0  0  0  0  0  0  0  0  0  0
   -0.8370    8.5930   -8.3470 C   0  0  0  0  0  0  0  0  0  0  0  0
  2  1  1  0
  2  3  2  0
  2  4  1  0
  2  5  2  0
  4  6  1  0
  6  7  1  0
  6  8  2  0
  8  9  1  0
  7 10  1  0
  9 10  2  0
 10 11  1  0
  9 12  1  0
 11 13  2  0
 12 14  2  0
 13 14  1  0
 13 15  1  0
 15 16  1  0
 16 17  1  0
 17 18  1  0
 18 19  2  3
 19 20  1  0
 19 21  1  0
 20 22  1  0
 20 23  1  0
 21 24  2  0
 23 24  1  0
 21 25  1  0
 22 26  1  0
 23 27  2  0
 24 28  1  0
 25 29  2  0
 26 30  1  0
 26 31  2  0
 28 32  2  0
 29 32  1  0
M  END
