diamond-x0900_0_A-mac-x0392
     RDKit          3D

 14 15  0  0  0  0  0  0  0  0999 V2000
   -7.2240   14.9320   -0.1220 O   0  0  0  0  0  0  0  0  0  0  0  0
   -6.0110   15.0300   -0.0680 C   0  0  0  0  0  0  0  0  0  0  0  0
   -5.2070   15.3080   -1.1390 N   0  0  0  0  0  0  0  0  0  0  0  0
   -5.1020   14.8590    1.1640 C   0  0  0  0  0  0  0  0  0  0  0  0
   -3.7530   14.7380    0.5200 C   0  0  0  0  0  0  0  0  0  0  0  0
   -3.9080   15.0060   -0.8290 C   0  0  0  0  0  0  0  0  0  0  0  0
   -2.8990   14.9650   -1.7140 C   0  0  0  0  0  0  0  0  0  0  0  0
   -2.4900   14.4150    1.0260 C   0  0  0  0  0  0  0  0  0  0  0  0
   -1.3910   14.3590    0.1290 C   0  0  0  0  0  0  0  0  0  0  0  0
   -1.6270   14.6370   -1.2580 C   0  0  0  0  0  0  0  0  0  0  0  0
   -0.1200   14.0220    0.6460 N   0  0  0  0  0  0  0  0  0  0  0  0
   -0.6590   14.6300   -2.3750 C   0  0  0  0  0  0  0  0  0  0  0  0
   -0.9820   14.5200   -3.5470 O   0  0  0  0  0  0  0  0  0  0  0  0
    0.6330   14.7610   -2.0400 O   0  0  0  0  0  0  0  0  0  0  0  0
  1  2  2  0
  2  3  1  0
  2  4  1  0
  4  5  1  0
  3  6  1  0
  5  6  2  0
  6  7  1  0
  5  8  1  0
  8  9  2  0
  7 10  2  0
  9 10  1  0
  9 11  1  0
 10 12  1  0
 12 13  2  0
 12 14  1  0
M  END
