diamond-x0548_1_B-diamond-x0469_0_B
     RDKit          3D

 18 19  0  0  0  0  0  0  0  0999 V2000
   -6.2090   34.8410    8.6670 C   0  0  0  0  0  0  0  0  0  0  0  0
   -7.5760   34.7600    8.2750 O   0  0  0  0  0  0  0  0  0  0  0  0
   -8.0380   35.7110    7.4030 C   0  0  0  0  0  0  0  0  0  0  0  0
   -7.3580   36.8410    7.1190 C   0  0  0  0  0  0  0  0  0  0  0  0
   -9.3760   35.4580    6.7700 C   0  0  0  0  0  0  0  0  0  0  0  0
   -7.9540   37.7800    6.2310 C   0  0  0  0  0  0  0  0  0  0  0  0
  -10.0260   36.5010    6.2050 C   0  0  0  0  0  0  0  0  0  0  0  0
   -9.9650   34.0860    6.7810 C   0  0  0  0  0  0  0  0  0  0  0  0
  -11.2410   36.5380    5.6120 O   0  0  0  0  0  0  0  0  0  0  0  0
   -9.4200   37.8180    6.2050 C   0  0  2  0  0  0  0  0  0  0  0  0
   -7.4480   38.6910    5.4370 C   0  0  0  0  0  0  0  0  0  0  0  0
   -6.0870   39.1380    5.1770 C   0  0  0  0  0  0  0  0  0  0  0  0
  -11.5610   37.8880    5.2140 C   0  0  0  0  0  0  0  0  0  0  0  0
   -9.7880   38.7660    5.1470 N   0  0  0  0  0  0  0  0  0  0  0  0
   -8.6480   39.2340    4.8040 C   0  0  0  0  0  0  0  0  0  0  0  0
   -5.7530   40.2580    6.0660 N   0  0  0  0  0  0  0  0  0  0  0  0
   -6.7800   40.5100    7.0780 C   0  0  0  0  0  0  0  0  0  0  0  0
   -4.4280   40.1740    6.6540 C   0  0  0  0  0  0  0  0  0  0  0  0
  1  2  1  0
  2  3  1  0
  3  4  2  0
  3  5  1  0
  4  6  1  0
  5  7  2  0
  5  8  1  0
  7  9  1  0
  6 10  1  0
  7 10  1  0
  6 11  2  0
 11 12  1  0
  9 13  1  0
 10 14  1  6
 11 15  1  0
 14 15  2  0
 12 16  1  0
 16 17  1  0
 16 18  1  0
M  END
