diamond-x0371_0_A-mac-x0373
     RDKit          3D

 28 31  0  0  0  0  0  0  0  0999 V2000
   -8.1280   14.6280    2.7690 N   0  0  0  0  0  0  0  0  0  0  0  0
   -8.8390   15.5650    3.5040 C   0  0  0  0  0  0  0  0  0  0  0  0
   -9.5790   16.3720    2.9420 O   0  0  0  0  0  0  0  0  0  0  0  0
   -8.2880   14.6010    1.3260 C   0  0  0  0  0  0  0  0  0  0  0  0
   -6.9400   14.6440    0.6920 C   0  0  0  0  0  0  0  0  0  0  0  0
   -8.6530   15.5230    4.9440 C   0  0  0  0  0  0  0  0  0  0  0  0
   -5.7890   14.7020    1.4360 N   0  0  0  0  0  0  0  0  0  0  0  0
   -6.6470   14.6290   -0.6100 N   0  0  0  0  0  0  0  0  0  0  0  0
   -8.0560   14.4250    5.5000 O   0  0  0  0  0  0  0  0  0  0  0  0
   -8.9710   16.4180    5.9530 C   0  0  0  0  0  0  0  0  0  0  0  0
   -5.2610   14.6600   -0.6860 C   0  0  0  0  0  0  0  0  0  0  0  0
   -4.7240   14.7160    0.5910 C   0  0  0  0  0  0  0  0  0  0  0  0
   -8.5470   15.8300    7.1710 C   0  0  0  0  0  0  0  0  0  0  0  0
   -7.9950   14.6190    6.8400 C   0  0  0  0  0  0  0  0  0  0  0  0
   -3.3680   14.7630    0.8610 C   0  0  0  0  0  0  0  0  0  0  0  0
   -4.3680   14.6340   -1.8020 C   0  0  0  0  0  0  0  0  0  0  0  0
   -2.5050   14.7240   -0.2320 C   0  0  0  0  0  0  0  0  0  0  0  0
   -2.9500   14.6480   -1.5600 C   0  0  0  0  0  0  0  0  0  0  0  0
   -1.8350   14.5620   -2.6490 C   0  0  1  0  0  0  0  0  0  0  0  0
   -0.3850   14.5600   -2.0900 C   0  0  0  0  0  0  0  0  0  0  0  0
   -1.9950   13.2970   -3.5010 C   0  0  0  0  0  0  0  0  0  0  0  0
    0.0120   13.3730   -1.5520 O   0  0  0  0  0  0  0  0  0  0  0  0
    0.4020   15.4920   -2.1100 O   0  0  0  0  0  0  0  0  0  0  0  0
   -1.2680   13.1340   -4.6980 C   0  0  0  0  0  0  0  0  0  0  0  0
   -2.8650   12.2650   -3.0990 C   0  0  0  0  0  0  0  0  0  0  0  0
   -1.4100   11.9740   -5.4680 C   0  0  0  0  0  0  0  0  0  0  0  0
   -3.0030   11.1120   -3.8680 C   0  0  0  0  0  0  0  0  0  0  0  0
   -2.2790   10.9650   -5.0480 C   0  0  0  0  0  0  0  0  0  0  0  0
  1  2  1  0
  2  3  2  0
  1  4  1  0
  4  5  1  0
  2  6  1  0
  5  7  1  0
  5  8  2  0
  6  9  1  0
  6 10  2  0
  8 11  1  0
  7 12  1  0
 11 12  2  0
 10 13  1  0
  9 14  1  0
 13 14  2  0
 12 15  1  0
 11 16  1  0
 15 17  2  0
 16 18  2  0
 17 18  1  0
 18 19  1  0
 19 20  1  1
 19 21  1  0
 20 22  1  0
 20 23  2  0
 21 24  2  0
 21 25  1  0
 24 26  1  0
 25 27  2  0
 26 28  2  0
 27 28  1  0
M  END
