diamond-x0969_0_A-diamond-x0852_0_B
     RDKit          3D

 22 24  0  0  0  0  0  0  0  0999 V2000
   -6.8240   14.8110    2.4320 N   0  0  0  0  0  0  0  0  0  0  0  0
   -6.5410   14.4620    1.0700 C   0  0  1  0  0  0  0  0  0  0  0  0
   -7.7560   14.5000    0.1350 N   0  0  0  0  0  0  0  0  0  0  0  0
   -5.3770   15.0150    0.4170 N   0  0  0  0  0  0  0  0  0  0  0  0
   -8.7010   15.6330    0.3750 C   0  0  0  0  0  0  0  0  0  0  0  0
   -7.0850   14.8080   -1.2130 N   0  0  0  0  0  0  0  0  0  0  0  0
   -5.6820   14.5080   -0.8950 C   0  0  1  0  0  0  0  0  0  0  0  0
   -4.0610   14.9810    0.8440 C   0  0  0  0  0  0  0  0  0  0  0  0
  -10.2140   15.3850    0.4810 C   0  0  0  0  0  0  0  0  0  0  0  0
   -4.6400   14.9650   -1.8670 C   0  0  0  0  0  0  0  0  0  0  0  0
   -3.0610   15.0740   -0.0390 C   0  0  0  0  0  0  0  0  0  0  0  0
  -10.7660   16.0820    1.6160 O   0  0  0  0  0  0  0  0  0  0  0  0
   -3.3900   15.2210   -1.4470 C   0  0  0  0  0  0  0  0  0  0  0  0
  -10.0480   15.9850    2.7920 C   0  0  0  0  0  0  0  0  0  0  0  0
   -9.1230   14.9320    2.7990 C   0  0  0  0  0  0  0  0  0  0  0  0
  -10.1430   16.7870    3.9340 C   0  0  0  0  0  0  0  0  0  0  0  0
   -8.3070   14.6740    3.9040 C   0  0  0  0  0  0  0  0  0  0  0  0
   -9.3280   16.5260    5.0550 C   0  0  0  0  0  0  0  0  0  0  0  0
   -9.4720   17.3490    6.2150 C   0  0  0  0  0  0  0  0  0  0  0  0
   -8.4080   15.4710    5.0320 C   0  0  0  0  0  0  0  0  0  0  0  0
   -9.6610   17.9420    7.1970 N   0  0  0  0  0  0  0  0  0  0  0  0
   -7.6120   15.2180    6.1230 O   0  0  0  0  0  0  0  0  0  0  0  0
  2  1  1  1
  2  3  1  0
  2  4  1  0
  3  5  1  0
  3  6  1  0
  4  7  1  0
  6  7  1  0
  4  8  1  0
  5  9  1  0
  7 10  1  6
  8 11  2  0
  9 12  1  0
 10 13  2  0
 11 13  1  0
 12 14  1  0
 14 15  2  0
 14 16  1  0
 15 17  1  0
 16 18  2  0
 18 19  1  0
 17 20  2  0
 18 20  1  0
 19 21  3  0
 20 22  1  0
M  END
