diamond-x0128_0_A-diamond-x0852_0_B
     RDKit          3D

 24 26  0  0  0  0  0  0  0  0999 V2000
   -6.2490   13.9270    1.7800 N   0  0  0  0  0  0  0  0  0  0  0  0
   -7.3140   14.5530    2.1780 C   0  0  0  0  0  0  0  0  0  0  0  0
   -8.4630   14.6260    1.6440 N   0  0  0  0  0  0  0  0  0  0  0  0
   -5.6270   14.4380    0.6830 C   0  0  0  0  0  0  0  0  0  0  0  0
   -6.4650   14.7130   -0.3980 C   0  0  0  0  0  0  0  0  0  0  0  0
   -4.2730   14.6960    0.5900 C   0  0  0  0  0  0  0  0  0  0  0  0
   -5.9530   15.2400   -1.5720 C   0  0  0  0  0  0  0  0  0  0  0  0
   -3.7540   15.2220   -0.5860 C   0  0  0  0  0  0  0  0  0  0  0  0
   -9.0800   15.4570    2.4580 C   0  0  0  0  0  0  0  0  0  0  0  0
   -4.5940   15.4890   -1.6600 C   0  0  0  0  0  0  0  0  0  0  0  0
   -8.6870   15.2740    3.7620 C   0  0  0  0  0  0  0  0  0  0  0  0
   -9.9990   16.4320    2.0940 C   0  0  0  0  0  0  0  0  0  0  0  0
  -10.5650   16.7260    0.3150 Br  0  0  0  0  0  0  0  0  0  0  0  0
   -9.2320   16.0950    4.6790 C   0  0  0  0  0  0  0  0  0  0  0  0
  -10.5300   17.2480    3.0590 C   0  0  0  0  0  0  0  0  0  0  0  0
   -9.0500   16.1450    6.0310 C   0  0  0  0  0  0  0  0  0  0  0  0
  -10.1250   17.0590    4.3540 C   0  0  0  0  0  0  0  0  0  0  0  0
  -10.6040   17.8480    5.4570 C   0  0  0  0  0  0  0  0  0  0  0  0
   -9.5040   17.3530    6.4870 C   0  0  0  0  0  0  0  0  0  0  0  0
   -8.5480   15.2120    6.8880 C   0  0  0  0  0  0  0  0  0  0  0  0
  -10.9260   18.4280    6.4190 N   0  0  0  0  0  0  0  0  0  0  0  0
   -9.5300   17.7210    7.7440 N   0  0  0  0  0  0  0  0  0  0  0  0
   -8.5540   15.5530    8.2130 C   0  0  0  0  0  0  0  0  0  0  0  0
   -9.0540   16.7910    8.5720 C   0  0  0  0  0  0  0  0  0  0  0  0
  1  2  1  0
  2  3  2  3
  1  4  1  0
  4  5  2  0
  4  6  1  0
  5  7  1  0
  6  8  2  0
  3  9  1  0
  7 10  2  0
  8 10  1  0
  9 11  2  0
  9 12  1  0
 12 13  1  0
 11 14  1  0
 12 15  2  0
 14 16  1  0
 14 17  2  0
 15 17  1  0
 17 18  1  0
 16 19  2  0
 16 20  1  0
 18 21  3  0
 19 22  1  0
 20 23  2  0
 22 24  2  0
 23 24  1  0
M  END
