diamond-x0626_0_A-diamond-x1015_0_A
     RDKit          3D

 28 30  0  0  0  0  0  0  0  0999 V2000
   -5.0820   14.8800    1.4800 N   0  0  0  0  0  0  0  0  0  0  0  0
   -6.2000   14.6930    0.7040 C   0  0  0  0  0  0  0  0  0  0  0  0
   -6.2750   14.7960   -0.5180 O   0  0  0  0  0  0  0  0  0  0  0  0
   -3.8470   14.8550    0.9280 C   0  0  0  0  0  0  0  0  0  0  0  0
   -7.3940   14.3350    1.5660 C   0  0  0  0  0  0  0  0  0  0  0  0
   -2.6880   14.7890    1.5390 N   0  0  0  0  0  0  0  0  0  0  0  0
   -3.8480   14.9120   -0.7760 S   0  0  0  0  0  0  0  0  0  0  0  0
   -8.7070   14.6720    0.8850 C   0  0  0  0  0  0  0  0  0  0  0  0
   -2.1500   14.8390   -0.7250 C   0  0  0  0  0  0  0  0  0  0  0  0
   -1.7140   14.7880    0.5860 C   0  0  0  0  0  0  0  0  0  0  0  0
   -0.3160   14.7250    0.9890 C   0  0  0  0  0  0  0  0  0  0  0  0
    0.3290   13.8380   -0.0280 C   0  0  0  0  0  0  0  0  0  0  0  0
    1.3560   14.5500   -0.8830 C   0  0  0  0  0  0  0  0  0  0  0  0
    0.7410   14.8350   -2.1570 N   0  0  0  0  0  0  0  0  0  0  0  0
    0.5880   13.7410   -2.7560 C   0  0  0  0  0  0  0  0  0  0  0  0
   -0.0310   13.5500   -4.1140 C   0  0  2  0  0  0  0  0  0  0  0  0
    0.9630   12.5500   -2.2550 N   0  0  0  0  0  0  0  0  0  0  0  0
   -1.3120   14.3780   -4.2070 C   0  0  0  0  0  0  0  0  0  0  0  0
   -0.2640   12.1100   -4.0380 N   0  0  0  0  0  0  0  0  0  0  0  0
    0.2550   11.5700   -2.8450 C   0  0  0  0  0  0  0  0  0  0  0  0
    0.1320   10.4370   -2.3780 O   0  0  0  0  0  0  0  0  0  0  0  0
   -0.6070   11.3430   -5.1600 C   0  0  0  0  0  0  0  0  0  0  0  0
   -0.0220   11.5570   -6.4100 C   0  0  0  0  0  0  0  0  0  0  0  0
   -1.5620   10.3240   -5.0380 C   0  0  0  0  0  0  0  0  0  0  0  0
   -0.3770   10.7770   -7.5130 C   0  0  0  0  0  0  0  0  0  0  0  0
   -1.9210    9.5420   -6.1340 C   0  0  0  0  0  0  0  0  0  0  0  0
   -1.3290    9.7720   -7.3650 C   0  0  0  0  0  0  0  0  0  0  0  0
   -1.7740    8.8060   -8.7120 Cl  0  0  0  0  0  0  0  0  0  0  0  0
  1  2  1  0
  2  3  2  0
  1  4  1  0
  2  5  1  0
  4  6  2  0
  4  7  1  0
  5  8  1  0
  7  9  1  0
  6 10  1  0
  9 10  2  0
 10 11  1  0
 11 12  1  0
 12 13  1  0
 13 14  1  0
 14 15  2  3
 15 16  1  0
 15 17  1  0
 16 18  1  1
 16 19  1  0
 17 20  1  0
 19 20  1  0
 20 21  2  0
 19 22  1  0
 22 23  2  0
 22 24  1  0
 23 25  1  0
 24 26  2  0
 25 27  2  0
 26 27  1  0
 27 28  1  0
M  END
