diamond-x1015_0_A-mac-x0116
     RDKit          3D

 32 36  0  0  0  0  0  0  0  0999 V2000
   -1.0780   14.2390   -4.6540 C   0  0  0  0  0  0  0  0  0  0  0  0
    0.1810   13.4730   -4.2410 C   0  0  2  0  0  0  0  0  0  0  0  0
   -0.0480   12.0390   -4.1390 N   0  0  0  0  0  0  0  0  0  0  0  0
    0.4550   13.7530   -2.7920 C   0  0  0  0  0  0  0  0  0  0  0  0
    0.6450   14.8060   -2.1500 N   0  0  0  0  0  0  0  0  0  0  0  0
    0.2360   11.5410   -2.8610 C   0  0  0  0  0  0  0  0  0  0  0  0
    0.4910   12.6040   -2.0770 N   0  0  0  0  0  0  0  0  0  0  0  0
   -0.4810   11.2750   -5.2290 C   0  0  0  0  0  0  0  0  0  0  0  0
    0.2720   10.3810   -2.4490 O   0  0  0  0  0  0  0  0  0  0  0  0
    0.0470   11.4770   -6.5060 C   0  0  0  0  0  0  0  0  0  0  0  0
   -1.4560   10.2890   -5.0530 C   0  0  0  0  0  0  0  0  0  0  0  0
    0.8080   14.6080   -0.7390 C   0  0  0  0  0  0  0  0  0  0  0  0
   -0.3880   10.7090   -7.5840 C   0  0  0  0  0  0  0  0  0  0  0  0
   -1.8960    9.5170   -6.1270 C   0  0  0  0  0  0  0  0  0  0  0  0
   -0.4280   14.6570   -0.0120 N   0  0  0  0  0  0  0  0  0  0  0  0
   -1.3570    9.7330   -7.3890 C   0  0  0  0  0  0  0  0  0  0  0  0
   -1.7090   14.7920   -0.5020 C   0  0  0  0  0  0  0  0  0  0  0  0
   -0.4950   14.5810    1.3390 C   0  0  0  0  0  0  0  0  0  0  0  0
   -1.8980    8.7840   -8.7110 Cl  0  0  0  0  0  0  0  0  0  0  0  0
   -2.1410   14.8960   -1.7740 N   0  0  0  0  0  0  0  0  0  0  0  0
   -2.4940   14.8120    0.6310 C   0  0  0  0  0  0  0  0  0  0  0  0
   -1.7220   14.6700    1.7670 N   0  0  0  0  0  0  0  0  0  0  0  0
   -3.4830   15.0400   -1.8320 C   0  0  0  0  0  0  0  0  0  0  0  0
   -3.8750   14.9710    0.4530 C   0  0  0  0  0  0  0  0  0  0  0  0
   -4.7080   15.0140    1.5620 N   0  0  0  0  0  0  0  0  0  0  0  0
   -4.3580   15.0860   -0.8100 N   0  0  0  0  0  0  0  0  0  0  0  0
   -6.1090   14.6610    1.3980 C   0  0  0  0  0  0  0  0  0  0  0  0
   -6.4800   13.2210    1.5010 C   0  0  0  0  0  0  0  0  0  0  0  0
   -6.3990   12.4750    0.3630 O   0  0  0  0  0  0  0  0  0  0  0  0
   -6.9160   12.4440    2.5520 C   0  0  0  0  0  0  0  0  0  0  0  0
   -7.1190   11.1540    2.0340 C   0  0  0  0  0  0  0  0  0  0  0  0
   -6.7900   11.2230    0.7000 C   0  0  0  0  0  0  0  0  0  0  0  0
  2  1  1  1
  2  3  1  0
  2  4  1  0
  4  5  2  3
  3  6  1  0
  4  7  1  0
  6  7  1  0
  3  8  1  0
  6  9  2  0
  8 10  2  0
  8 11  1  0
  5 12  1  0
 10 13  1  0
 11 14  2  0
 12 15  1  0
 13 16  2  0
 14 16  1  0
 15 17  1  0
 15 18  1  0
 16 19  1  0
 17 20  2  0
 17 21  1  0
 18 22  2  0
 21 22  1  0
 20 23  1  0
 21 24  2  0
 24 25  1  0
 23 26  2  0
 24 26  1  0
 25 27  1  0
 27 28  1  0
 28 29  1  0
 28 30  2  0
 30 31  1  0
 29 32  1  0
 31 32  2  0
M  END
