diamond-x0253_0_A-mac-x0358
     RDKit          3D

 21 22  0  0  0  0  0  0  0  0999 V2000
    0.5590   11.5650   -5.3840 N   0  0  0  0  0  0  0  0  0  0  0  0
    1.1850   11.5840   -6.5880 C   0  0  0  0  0  0  0  0  0  0  0  0
    2.1940   12.2290   -6.7440 O   0  0  0  0  0  0  0  0  0  0  0  0
    0.5460   12.7040   -4.4900 C   0  0  2  0  0  0  0  0  0  0  0  0
    0.7610   12.3620   -2.9980 C   0  0  0  0  0  0  0  0  0  0  0  0
    0.5630   10.7360   -7.6490 C   0  0  0  0  0  0  0  0  0  0  0  0
   -0.6990   13.4590   -4.8460 C   0  0  0  0  0  0  0  0  0  0  0  0
    1.3260   13.0350   -2.1560 O   0  0  0  0  0  0  0  0  0  0  0  0
    0.2410   11.1660   -2.6380 O   0  0  0  0  0  0  0  0  0  0  0  0
   -0.4170    9.8260   -7.2240 C   0  0  0  0  0  0  0  0  0  0  0  0
    0.8940   10.7920   -9.0100 C   0  0  0  0  0  0  0  0  0  0  0  0
   -1.8260   12.7520   -5.2360 C   0  0  0  0  0  0  0  0  0  0  0  0
   -0.7720   14.8660   -4.8090 C   0  0  0  0  0  0  0  0  0  0  0  0
   -1.8310   11.3860   -5.2970 O   0  0  0  0  0  0  0  0  0  0  0  0
   -1.0580    8.9840   -8.1380 C   0  0  0  0  0  0  0  0  0  0  0  0
    0.2580    9.9550   -9.9250 C   0  0  0  0  0  0  0  0  0  0  0  0
   -3.0090   13.3880   -5.5850 C   0  0  0  0  0  0  0  0  0  0  0  0
   -1.9610   15.5180   -5.1570 C   0  0  0  0  0  0  0  0  0  0  0  0
   -2.1040    8.0180   -7.6640 C   0  0  0  0  0  0  0  0  0  0  0  0
   -0.7130    9.0550   -9.4920 C   0  0  0  0  0  0  0  0  0  0  0  0
   -3.0790   14.7790   -5.5470 C   0  0  0  0  0  0  0  0  0  0  0  0
  1  2  1  0
  2  3  2  0
  4  1  1  6
  4  5  1  0
  2  6  1  0
  4  7  1  0
  5  8  2  0
  5  9  1  0
  6 10  2  0
  6 11  1  0
  7 12  2  0
  7 13  1  0
 12 14  1  0
 10 15  1  0
 11 16  2  0
 12 17  1  0
 13 18  2  0
 15 19  1  0
 15 20  2  0
 16 20  1  0
 17 21  2  0
 18 21  1  0
M  END
