diamond-x0465_0_A-mac-x0375
     RDKit          3D

 13 13  0  0  0  0  0  0  0  0999 V2000
    1.9440   13.2960   -5.0230 C   0  0  0  0  0  0  0  0  0  0  0  0
    0.6740   12.5250   -4.7150 C   0  0  1  0  0  0  0  0  0  0  0  0
    0.6910   11.4120   -5.6230 O   0  0  0  0  0  0  0  0  0  0  0  0
    0.7350   12.1220   -3.2320 C   0  0  0  0  0  0  0  0  0  0  0  0
    0.9410   12.8890   -2.3020 O   0  0  0  0  0  0  0  0  0  0  0  0
    0.5470   10.8010   -3.0300 O   0  0  0  0  0  0  0  0  0  0  0  0
   -0.5150   10.8310   -5.9250 C   0  0  0  0  0  0  0  0  0  0  0  0
   -0.6140    9.6270   -6.6380 C   0  0  0  0  0  0  0  0  0  0  0  0
   -1.6780   11.4640   -5.5110 C   0  0  0  0  0  0  0  0  0  0  0  0
    0.4780    8.9860   -7.0750 F   0  0  0  0  0  0  0  0  0  0  0  0
   -1.8480    9.0570   -6.9190 C   0  0  0  0  0  0  0  0  0  0  0  0
   -2.9190   10.8960   -5.8010 C   0  0  0  0  0  0  0  0  0  0  0  0
   -3.0050    9.6940   -6.4970 C   0  0  0  0  0  0  0  0  0  0  0  0
  2  1  1  6
  2  3  1  0
  2  4  1  0
  4  5  2  0
  4  6  1  0
  3  7  1  0
  7  8  2  0
  7  9  1  0
  8 10  1  0
  8 11  1  0
  9 12  2  0
 11 13  2  0
 12 13  1  0
M  END
