diamond-x0574_0_A-mac-x0415
     RDKit          3D

 27 30  0  0  0  0  0  0  0  0999 V2000
   -0.0100   14.2900    1.7320 N   0  0  0  0  0  0  0  0  0  0  0  0
   -0.3380   14.1660    0.3610 C   0  0  1  0  0  0  0  0  0  0  0  0
   -1.5580   13.4510    0.2620 N   0  0  0  0  0  0  0  0  0  0  0  0
   -0.7500   15.7650   -0.3330 S   0  0  0  0  0  0  0  0  0  0  0  0
   -1.7970   13.1410   -1.1600 C   0  0  0  0  0  0  0  0  0  0  0  0
   -2.5670   14.3000    0.9630 C   0  0  1  0  0  0  0  0  0  0  0  0
   -2.4840   15.6260    0.1920 C   0  0  2  0  0  0  0  0  0  0  0  0
   -0.6380   13.3520   -2.0590 N   0  0  0  0  0  0  0  0  0  0  0  0
   -4.0420   13.8220    1.1130 C   0  0  0  0  0  0  0  0  0  0  0  0
   -3.4720   15.7140   -0.9230 C   0  0  0  0  0  0  0  0  0  0  0  0
   -0.0010   12.4230   -2.6930 C   0  0  0  0  0  0  0  0  0  0  0  0
   -5.0330   14.9470    0.7460 C   0  0  1  0  0  0  0  0  0  0  0  0
   -4.7300   15.3890   -0.6510 C   0  0  0  0  0  0  0  0  0  0  0  0
   -6.3800   14.4790    0.8570 O   0  0  0  0  0  0  0  0  0  0  0  0
   -0.2250   11.0950   -2.6260 O   0  0  0  0  0  0  0  0  0  0  0  0
    1.1070   12.7730   -3.6530 C   0  0  0  0  0  0  0  0  0  0  0  0
   -6.8550   14.5150    2.2010 C   0  0  0  0  0  0  0  0  0  0  0  0
    0.8770   14.1560   -4.1340 C   0  0  0  0  0  0  0  0  0  0  0  0
    1.8170   15.2450   -3.8970 C   0  0  0  0  0  0  0  0  0  0  0  0
   -0.0930   14.8240   -4.7890 C   0  0  0  0  0  0  0  0  0  0  0  0
    1.5110   16.4200   -4.3320 N   0  0  0  0  0  0  0  0  0  0  0  0
    0.2780   16.2470   -5.0330 C   0  0  2  0  0  0  0  0  0  0  0  0
   -1.3770   14.4310   -5.2940 C   0  0  0  0  0  0  0  0  0  0  0  0
   -0.8110   17.1980   -4.7310 C   0  0  0  0  0  0  0  0  0  0  0  0
   -2.3360   15.3920   -5.3470 C   0  0  0  0  0  0  0  0  0  0  0  0
   -4.0490   15.0400   -5.9950 Br  0  0  0  0  0  0  0  0  0  0  0  0
   -2.0580   16.7600   -4.8990 C   0  0  0  0  0  0  0  0  0  0  0  0
  2  1  1  1
  2  3  1  0
  2  4  1  0
  3  5  1  0
  3  6  1  0
  4  7  1  0
  6  7  1  0
  5  8  1  0
  6  9  1  6
  7 10  1  6
  8 11  2  3
  9 12  1  0
 10 13  2  0
 12 13  1  0
 12 14  1  6
 11 15  1  0
 11 16  1  0
 14 17  1  0
 16 18  1  0
 18 19  1  0
 18 20  2  0
 19 21  2  0
 20 22  1  0
 21 22  1  0
 20 23  1  0
 22 24  1  1
 23 25  2  0
 25 26  1  0
 24 27  2  0
 25 27  1  0
M  END
