diamond-x0822_0_A-diamond-x0792_0_A
     RDKit          3D

 24 26  0  0  0  0  0  0  0  0999 V2000
    2.5730   25.5000   18.3960 N   0  0  0  0  0  0  0  0  0  0  0  0
    3.4820   26.5600   17.9160 C   0  0  1  0  0  0  0  0  0  0  0  0
    4.9220   26.3430   18.3340 C   0  0  0  0  0  0  0  0  0  0  0  0
    3.4600   26.6170   16.3790 C   0  0  2  0  0  0  0  0  0  0  0  0
    4.7360   27.2950   15.8520 C   0  0  0  0  0  0  0  0  0  0  0  0
    5.5120   25.5310   17.3340 O   0  0  0  0  0  0  0  0  0  0  0  0
    2.1390   27.1790   15.9520 C   0  0  0  0  0  0  0  0  0  0  0  0
    5.8690   26.3210   16.1970 C   0  0  2  0  0  0  0  0  0  0  0  0
    1.8210   28.5230   16.1780 C   0  0  0  0  0  0  0  0  0  0  0  0
    1.2200   26.3320   15.3390 C   0  0  0  0  0  0  0  0  0  0  0  0
    7.2790   26.8770   16.4980 C   0  0  0  0  0  0  0  0  0  0  0  0
    0.5780   29.0110   15.7870 C   0  0  0  0  0  0  0  0  0  0  0  0
   -0.0160   26.8080   14.9550 C   0  0  0  0  0  0  0  0  0  0  0  0
   -0.9790   26.0510   14.3590 O   0  0  0  0  0  0  0  0  0  0  0  0
   -0.3380   28.1530   15.1780 C   0  0  0  0  0  0  0  0  0  0  0  0
    8.2490   25.7170   16.3140 C   0  0  2  0  0  0  0  0  0  0  0  0
   -2.2290   26.6660   14.1320 C   0  0  0  0  0  0  0  0  0  0  0  0
    7.3950   24.5140   16.4360 C   0  0  0  0  0  0  0  0  0  0  0  0
    9.3920   25.4960   17.3100 C   0  0  0  0  0  0  0  0  0  0  0  0
    6.7270   24.5230   17.6910 N   0  0  0  0  0  0  0  0  0  0  0  0
    9.1160   24.4550   18.4340 C   0  0  2  0  0  0  0  0  0  0  0  0
    9.9380   23.1390   18.5020 C   0  0  0  0  0  0  0  0  0  0  0  0
    7.6680   24.1840   18.7430 C   0  0  0  0  0  0  0  0  0  0  0  0
   10.0840   22.4050   17.3110 O   0  0  0  0  0  0  0  0  0  0  0  0
  2  1  1  6
  2  3  1  0
  2  4  1  0
  4  5  1  0
  3  6  1  0
  4  7  1  1
  5  8  1  0
  6  8  1  0
  7  9  2  0
  7 10  1  0
  8 11  1  1
  9 12  1  0
 10 13  2  0
 13 14  1  0
 12 15  2  0
 13 15  1  0
 16 11  1  1
 14 17  1  0
 16 18  1  0
 16 19  1  0
 18 20  1  0
 19 21  1  0
 21 22  1  6
 20 23  1  0
 21 23  1  0
 22 24  1  0
M  END
