diamond-x0591_0_A-diamond-x0727_0_A
     RDKit          3D

 28 29  0  0  0  0  0  0  0  0999 V2000
   -5.8450   14.5710    0.9260 N   0  0  0  0  0  0  0  0  0  0  0  0
   -6.7730   14.5130    2.0310 C   0  0  0  0  0  0  0  0  0  0  0  0
   -6.3290   14.7350   -0.3470 C   0  0  0  0  0  0  0  0  0  0  0  0
   -7.5220   14.8590   -0.6010 O   0  0  0  0  0  0  0  0  0  0  0  0
   -5.3390   14.7570   -1.4520 C   0  0  0  0  0  0  0  0  0  0  0  0
   -3.9530   14.7110   -1.2450 C   0  0  0  0  0  0  0  0  0  0  0  0
   -5.8440   14.8280   -2.7460 C   0  0  0  0  0  0  0  0  0  0  0  0
   -3.0890   14.7460   -2.3460 C   0  0  0  0  0  0  0  0  0  0  0  0
   -4.9890   14.8560   -3.8320 C   0  0  0  0  0  0  0  0  0  0  0  0
   -3.6230   14.8240   -3.6370 C   0  0  0  0  0  0  0  0  0  0  0  0
   -2.6080   14.8860   -5.0690 S   0  0  1  0  0  0  0  0  0  0  0  0
   -1.5460   16.1760   -4.9530 N   0  0  0  0  0  0  0  0  0  0  0  0
   -1.6150   13.7620   -4.9360 N   0  0  0  0  0  0  0  0  0  0  0  0
   -3.3850   15.2370   -6.2270 O   0  0  0  0  0  0  0  0  0  0  0  0
   -0.4520   14.1090   -4.1050 C   0  0  0  0  0  0  0  0  0  0  0  0
    0.7810   13.7170   -4.8740 C   0  0  0  0  0  0  0  0  0  0  0  0
    1.0280   12.2230   -4.7080 C   0  0  2  0  0  0  0  0  0  0  0  0
    0.1970   11.4480   -5.6510 N   0  0  0  0  0  0  0  0  0  0  0  0
    0.8270   11.8280   -3.2250 C   0  0  0  0  0  0  0  0  0  0  0  0
    0.1610   10.8600   -2.8740 O   0  0  0  0  0  0  0  0  0  0  0  0
    0.7190   11.0880   -6.8540 C   0  0  0  0  0  0  0  0  0  0  0  0
    1.4380   12.6270   -2.3220 O   0  0  0  0  0  0  0  0  0  0  0  0
    1.6530   11.7130   -7.2650 O   0  0  0  0  0  0  0  0  0  0  0  0
    0.1030    9.8920   -7.5680 C   0  0  0  0  0  0  0  0  0  0  0  0
   -1.1710   10.2330   -8.3420 C   0  0  0  0  0  0  0  0  0  0  0  0
   -0.2640    8.7810   -6.5730 C   0  0  0  0  0  0  0  0  0  0  0  0
   -2.3030    9.5030   -7.6230 C   0  0  0  0  0  0  0  0  0  0  0  0
   -1.6440    8.2990   -6.9710 C   0  0  0  0  0  0  0  0  0  0  0  0
  1  2  1  0
  1  3  1  0
  3  4  2  0
  3  5  1  0
  5  6  2  0
  5  7  1  0
  6  8  1  0
  7  9  2  0
  8 10  2  0
  9 10  1  0
 10 11  1  0
 11 12  1  1
 11 13  2  0
 11 14  2  0
 13 15  1  0
 15 16  1  0
 17 16  1  1
 17 18  1  0
 17 19  1  0
 19 20  2  0
 18 21  1  0
 19 22  1  0
 21 23  2  0
 21 24  1  0
 24 25  1  0
 24 26  1  0
 25 27  1  0
 26 28  1  0
 27 28  1  0
M  END
