diamond-x0681_0_A-diamond-x0855_0_A
     RDKit          3D

 24 26  0  0  0  0  0  0  0  0999 V2000
   -4.2540   15.4480   -2.9850 N   0  0  0  0  0  0  0  0  0  0  0  0
   -3.3820   14.9510   -2.0590 C   0  0  0  0  0  0  0  0  0  0  0  0
   -2.1710   14.5810   -2.3490 N   0  0  0  0  0  0  0  0  0  0  0  0
   -4.0490   14.9000   -0.6680 C   0  0  1  0  0  0  0  0  0  0  0  0
   -1.1490   14.0340   -1.4480 C   0  0  0  0  0  0  0  0  0  0  0  0
   -4.8300   13.6340   -0.5470 C   0  0  0  0  0  0  0  0  0  0  0  0
   -3.3000   15.2950    0.6120 C   0  0  0  0  0  0  0  0  0  0  0  0
    0.2100   14.2990   -2.1310 C   0  0  0  0  0  0  0  0  0  0  0  0
   -5.5180   13.4330    0.5840 N   0  0  0  0  0  0  0  0  0  0  0  0
   -4.0550   14.9020    1.8860 C   0  0  0  0  0  0  0  0  0  0  0  0
   -4.9830   12.6240   -1.3840 N   0  0  0  0  0  0  0  0  0  0  0  0
    1.0530   13.1190   -2.1720 O   0  0  0  0  0  0  0  0  0  0  0  0
   -5.4860   14.4120    1.6280 C   0  0  0  0  0  0  0  0  0  0  0  0
   -6.1730   12.2470    0.5120 C   0  0  0  0  0  0  0  0  0  0  0  0
   -5.8280   11.7540   -0.7290 C   0  0  0  0  0  0  0  0  0  0  0  0
    0.7400   12.1160   -3.0450 C   0  0  0  0  0  0  0  0  0  0  0  0
    0.6060   10.9430   -2.7070 O   0  0  0  0  0  0  0  0  0  0  0  0
    0.5710   12.5690   -4.4730 C   0  0  0  0  0  0  0  0  0  0  0  0
   -0.4230   11.7090   -5.0770 N   0  0  0  0  0  0  0  0  0  0  0  0
   -0.2520   10.7780   -6.0690 C   0  0  0  0  0  0  0  0  0  0  0  0
   -1.6990   11.7900   -4.6450 N   0  0  0  0  0  0  0  0  0  0  0  0
   -1.4910   10.2250   -6.2610 C   0  0  0  0  0  0  0  0  0  0  0  0
   -2.3450   10.8760   -5.3690 C   0  0  0  0  0  0  0  0  0  0  0  0
   -1.9850    8.8770   -7.4420 Br  0  0  0  0  0  0  0  0  0  0  0  0
  1  2  1  0
  2  3  2  3
  4  2  1  6
  3  5  1  0
  4  6  1  0
  4  7  1  0
  5  8  1  0
  6  9  1  0
  7 10  1  0
  6 11  2  0
  8 12  1  0
  9 13  1  0
 10 13  1  0
  9 14  1  0
 11 15  1  0
 14 15  2  0
 12 16  1  0
 16 17  2  0
 16 18  1  0
 18 19  1  0
 19 20  1  0
 19 21  1  0
 20 22  2  0
 21 23  2  0
 22 23  1  0
 22 24  1  0
M  END
