diamond-x0900_0_A-diamond-x0852_0_B
     RDKit          3D

 18 19  0  0  0  0  0  0  0  0999 V2000
   -6.2090   13.9290   -2.0020 O   0  0  0  0  0  0  0  0  0  0  0  0
   -5.5300   14.4840   -1.1720 C   0  0  0  0  0  0  0  0  0  0  0  0
   -4.1630   14.5960   -1.1400 N   0  0  0  0  0  0  0  0  0  0  0  0
   -6.0390   15.1890    0.0120 C   0  0  1  0  0  0  0  0  0  0  0  0
   -7.5250   14.8020    0.2010 C   0  0  0  0  0  0  0  0  0  0  0  0
   -4.9490   14.8230    1.0310 C   0  0  0  0  0  0  0  0  0  0  0  0
   -3.6980   14.9500    0.1750 C   0  0  0  0  0  0  0  0  0  0  0  0
   -7.9460   14.1160    1.5050 C   0  0  0  0  0  0  0  0  0  0  0  0
   -8.3930   15.0000    2.6490 C   0  0  0  0  0  0  0  0  0  0  0  0
   -7.7980   14.7080    3.8810 C   0  0  0  0  0  0  0  0  0  0  0  0
   -9.3220   16.0570    2.6000 C   0  0  0  0  0  0  0  0  0  0  0  0
  -10.2420   16.5900    1.0140 Br  0  0  0  0  0  0  0  0  0  0  0  0
   -8.0940   15.4210    5.0330 C   0  0  0  0  0  0  0  0  0  0  0  0
   -9.6040   16.7760    3.7740 C   0  0  0  0  0  0  0  0  0  0  0  0
   -7.4360   15.0170    6.1600 O   0  0  0  0  0  0  0  0  0  0  0  0
   -9.0060   16.4650    4.9890 C   0  0  0  0  0  0  0  0  0  0  0  0
   -9.3500   17.2210    6.1530 C   0  0  0  0  0  0  0  0  0  0  0  0
   -9.6760   17.7830    7.1180 N   0  0  0  0  0  0  0  0  0  0  0  0
  1  2  2  0
  2  3  1  0
  2  4  1  0
  4  5  1  1
  4  6  1  0
  3  7  1  0
  6  7  1  0
  5  8  1  0
  8  9  1  0
  9 10  2  0
  9 11  1  0
 11 12  1  0
 10 13  1  0
 11 14  2  0
 13 15  1  0
 13 16  2  0
 14 16  1  0
 16 17  1  0
 17 18  3  0
M  END
