diamond-x0722_0_A-mac-x0282
     RDKit          3D

 16 17  0  0  0  0  0  0  0  0999 V2000
   -4.6340   15.5400    2.2050 C   0  0  0  0  0  0  0  0  0  0  0  0
   -3.6520   14.9440    1.3130 C   0  0  0  0  0  0  0  0  0  0  0  0
   -2.6110   14.2510    1.8690 N   0  0  0  0  0  0  0  0  0  0  0  0
   -3.6130   14.9740   -0.0360 C   0  0  0  0  0  0  0  0  0  0  0  0
   -4.6600   15.5850   -0.9180 C   0  0  0  0  0  0  0  0  0  0  0  0
   -2.3040   14.2850   -0.5080 C   0  0  1  0  0  0  0  0  0  0  0  0
   -1.5680   14.3210    0.9150 C   0  0  2  0  0  0  0  0  0  0  0  0
   -0.2820   13.6260    1.2300 C   0  0  0  0  0  0  0  0  0  0  0  0
   -2.5840   12.9450   -1.1550 C   0  0  0  0  0  0  0  0  0  0  0  0
   -5.9730   14.8140   -0.7910 C   0  0  0  0  0  0  0  0  0  0  0  0
   -1.4260   14.9870   -1.5000 C   0  0  0  0  0  0  0  0  0  0  0  0
   -1.0510   15.5660    1.2280 N   0  0  0  0  0  0  0  0  0  0  0  0
   -7.0740   15.3030   -1.0270 O   0  0  0  0  0  0  0  0  0  0  0  0
   -5.8730   13.5150   -0.3770 N   0  0  0  0  0  0  0  0  0  0  0  0
   -0.5780   15.9150   -1.1150 C   0  0  0  0  0  0  0  0  0  0  0  0
   -0.6030   16.2290    0.3070 C   0  0  0  0  0  0  0  0  0  0  0  0
  1  2  1  0
  2  3  1  0
  2  4  2  0
  4  5  1  0
  4  6  1  0
  3  7  1  0
  6  7  1  0
  7  8  1  6
  6  9  1  6
  5 10  1  0
  6 11  1  0
  7 12  1  0
 10 13  2  0
 10 14  1  0
 11 15  2  0
 12 16  2  0
 15 16  1  0
M  END
