diamond-x0900_0_A-mac-x0373
     RDKit          3D

 16 17  0  0  0  0  0  0  0  0999 V2000
   -6.3590   15.1890   -0.8970 O   0  0  0  0  0  0  0  0  0  0  0  0
   -5.1810   15.1120   -0.5740 C   0  0  0  0  0  0  0  0  0  0  0  0
   -4.0890   15.0690   -1.4420 N   0  0  0  0  0  0  0  0  0  0  0  0
   -4.6260   15.0310    0.8340 C   0  0  0  0  0  0  0  0  0  0  0  0
   -3.1310   14.7300    0.6100 C   0  0  0  0  0  0  0  0  0  0  0  0
   -3.1210   14.1850   -0.8350 C   0  0  2  0  0  0  0  0  0  0  0  0
   -1.7690   13.6740   -1.5500 C   0  0  2  0  0  0  0  0  0  0  0  0
   -0.3710   14.3350   -1.4720 C   0  0  0  0  0  0  0  0  0  0  0  0
   -1.9710   12.8750   -2.8580 C   0  0  0  0  0  0  0  0  0  0  0  0
    0.5770   13.4690   -0.9950 O   0  0  0  0  0  0  0  0  0  0  0  0
   -0.0410   15.4550   -1.7990 O   0  0  0  0  0  0  0  0  0  0  0  0
   -1.1980   13.0980   -4.0270 C   0  0  0  0  0  0  0  0  0  0  0  0
   -2.9430   11.8710   -2.8930 C   0  0  0  0  0  0  0  0  0  0  0  0
   -1.4100   12.3230   -5.1790 C   0  0  0  0  0  0  0  0  0  0  0  0
   -3.1490   11.1050   -4.0380 C   0  0  0  0  0  0  0  0  0  0  0  0
   -2.3860   11.3260   -5.1800 C   0  0  0  0  0  0  0  0  0  0  0  0
  1  2  2  0
  2  3  1  0
  2  4  1  0
  4  5  1  0
  3  6  1  0
  6  5  1  1
  6  7  1  0
  7  8  1  6
  7  9  1  0
  8 10  1  0
  8 11  2  0
  9 12  2  0
  9 13  1  0
 12 14  1  0
 13 15  2  0
 14 16  2  0
 15 16  1  0
M  END
