diamond-x0421_0_A-diamond-x0724_0_A
     RDKit          3D

 14 15  0  0  0  0  0  0  0  0999 V2000
   -3.9590   15.2030   -2.8700 N   0  0  0  0  0  0  0  0  0  0  0  0
   -3.0490   14.9780   -1.8810 C   0  0  0  0  0  0  0  0  0  0  0  0
   -1.8520   14.8560   -2.1160 O   0  0  0  0  0  0  0  0  0  0  0  0
   -3.6260   14.8870   -0.5420 C   0  0  0  0  0  0  0  0  0  0  0  0
   -2.9170   15.0150    0.6330 C   0  0  0  0  0  0  0  0  0  0  0  0
   -4.9790   14.6460   -0.2670 N   0  0  0  0  0  0  0  0  0  0  0  0
   -3.8290   14.8460    1.6190 N   0  0  0  0  0  0  0  0  0  0  0  0
   -5.0460   14.6250    1.0540 C   0  0  0  0  0  0  0  0  0  0  0  0
   -6.2760   14.3750    1.9790 C   0  0  1  0  0  0  0  0  0  0  0  0
   -7.7240   14.7440    1.7610 C   0  0  1  0  0  0  0  0  0  0  0  0
   -7.2690   13.3180    1.5830 C   0  0  0  0  0  0  0  0  0  0  0  0
   -8.6010   15.0910    2.9450 C   0  0  0  0  0  0  0  0  0  0  0  0
   -8.7530   13.9430    3.8640 N   0  0  0  0  0  0  0  0  0  0  0  0
   -8.6720   14.3060    5.2800 C   0  0  0  0  0  0  0  0  0  0  0  0
  1  2  1  0
  2  3  2  0
  2  4  1  0
  4  5  2  0
  4  6  1  0
  5  7  1  0
  6  8  2  0
  7  8  1  0
  9  8  1  6
  9 10  1  0
  9 11  1  0
 10 11  1  0
 10 12  1  1
 12 13  1  0
 13 14  1  0
M  END
