diamond-x0574_0_A-mac-x0284
     RDKit          3D

 23 25  0  0  0  0  0  0  0  0999 V2000
    0.2550   14.0380    2.3430 N   0  0  0  0  0  0  0  0  0  0  0  0
   -0.8060   14.3370    1.6750 C   0  0  0  0  0  0  0  0  0  0  0  0
   -1.9330   14.2450    2.2390 N   0  0  0  0  0  0  0  0  0  0  0  0
   -0.7930   14.8500    0.0820 S   0  0  0  0  0  0  0  0  0  0  0  0
   -2.9280   14.5460    1.4350 C   0  0  0  0  0  0  0  0  0  0  0  0
   -2.5060   14.8980    0.2070 C   0  0  0  0  0  0  0  0  0  0  0  0
   -4.2800   14.5110    1.7740 C   0  0  0  0  0  0  0  0  0  0  0  0
   -3.4270   15.2180   -0.7020 C   0  0  0  0  0  0  0  0  0  0  0  0
   -5.2310   14.8240    0.8710 C   0  0  0  0  0  0  0  0  0  0  0  0
   -4.7500   15.1640   -0.3380 C   0  0  0  0  0  0  0  0  0  0  0  0
   -6.5800   14.8140    1.0880 O   0  0  0  0  0  0  0  0  0  0  0  0
   -5.4550   15.5150   -1.4700 C   0  0  0  0  0  0  0  0  0  0  0  0
   -6.9900   14.6210    2.4400 C   0  0  0  0  0  0  0  0  0  0  0  0
   -4.3030   15.2240   -2.3890 C   0  0  0  0  0  0  0  0  0  0  0  0
   -2.9200   15.1540   -1.9650 C   0  0  0  0  0  0  0  0  0  0  0  0
   -4.6040   15.0070   -3.6860 C   0  0  0  0  0  0  0  0  0  0  0  0
   -1.8910   14.8680   -2.9070 C   0  0  0  0  0  0  0  0  0  0  0  0
   -3.6200   14.7410   -4.5950 C   0  0  0  0  0  0  0  0  0  0  0  0
   -0.4290   14.7520   -2.5800 C   0  0  0  0  0  0  0  0  0  0  0  0
   -2.2950   14.6770   -4.2130 C   0  0  0  0  0  0  0  0  0  0  0  0
   -1.4300   14.4030   -5.2230 O   0  0  0  0  0  0  0  0  0  0  0  0
    0.1620   14.8460   -1.5270 O   0  0  0  0  0  0  0  0  0  0  0  0
    0.2960   14.4720   -3.6810 O   0  0  0  0  0  0  0  0  0  0  0  0
  1  2  1  0
  2  3  2  0
  2  4  1  0
  3  5  1  0
  4  6  1  0
  5  6  2  0
  5  7  1  0
  6  8  1  0
  7  9  2  0
  8 10  2  0
  9 10  1  0
  9 11  1  0
 10 12  1  0
 11 13  1  0
 12 14  1  0
 14 15  2  0
 14 16  1  0
 15 17  1  0
 16 18  2  0
 17 19  1  0
 17 20  2  0
 18 20  1  0
 20 21  1  0
 19 22  2  0
 19 23  1  0
M  END
