diamond-x0681_0_A-mac-x0224
     RDKit          3D

 24 26  0  0  0  0  0  0  0  0999 V2000
   -6.1150   15.1200   -2.8410 N   0  0  0  0  0  0  0  0  0  0  0  0
   -4.8320   14.9280   -2.4160 C   0  0  0  0  0  0  0  0  0  0  0  0
   -3.7570   15.1040   -3.1070 N   0  0  0  0  0  0  0  0  0  0  0  0
   -4.5830   14.4500   -0.9650 C   0  0  2  0  0  0  0  0  0  0  0  0
   -5.4070   13.2390   -0.6630 C   0  0  0  0  0  0  0  0  0  0  0  0
   -4.8480   15.5890    0.0290 C   0  0  0  0  0  0  0  0  0  0  0  0
   -2.6280   14.8400   -2.3820 C   0  0  0  0  0  0  0  0  0  0  0  0
   -6.2280   13.1540    0.4300 N   0  0  0  0  0  0  0  0  0  0  0  0
   -5.1070   15.0210    1.4300 C   0  0  0  0  0  0  0  0  0  0  0  0
   -5.4640   12.1280   -1.3700 N   0  0  0  0  0  0  0  0  0  0  0  0
   -1.4240   14.5850   -3.0130 C   0  0  0  0  0  0  0  0  0  0  0  0
   -2.7070   14.8250   -1.0000 C   0  0  0  0  0  0  0  0  0  0  0  0
   -1.3950   14.6100   -4.3920 O   0  0  0  0  0  0  0  0  0  0  0  0
   -6.3830   14.2040    1.4000 C   0  0  0  0  0  0  0  0  0  0  0  0
   -6.8330   11.9410    0.4220 C   0  0  0  0  0  0  0  0  0  0  0  0
   -6.3470   11.3210   -0.7040 C   0  0  0  0  0  0  0  0  0  0  0  0
   -1.5920   14.5540   -0.2290 C   0  0  0  0  0  0  0  0  0  0  0  0
   -0.2970   14.3100   -2.2450 C   0  0  0  0  0  0  0  0  0  0  0  0
   -1.7420   14.5440    1.5320 S   0  0  0  0  0  0  0  0  0  0  0  0
    1.0350   14.0160   -2.7960 C   0  0  0  0  0  0  0  0  0  0  0  0
   -0.3900   14.2990   -0.8550 C   0  0  0  0  0  0  0  0  0  0  0  0
   -3.3920   15.2260    1.7690 C   0  0  0  0  0  0  0  0  0  0  0  0
    2.0410   14.1060   -2.1140 O   0  0  0  0  0  0  0  0  0  0  0  0
    1.0480   13.6320   -4.0790 O   0  0  0  0  0  0  0  0  0  0  0  0
  1  2  1  0
  2  3  2  3
  4  2  1  6
  4  5  1  0
  4  6  1  0
  3  7  1  0
  5  8  1  0
  6  9  1  0
  5 10  2  0
  7 11  2  0
  7 12  1  0
 11 13  1  0
  8 14  1  0
  9 14  1  0
  8 15  1  0
 10 16  1  0
 15 16  2  0
 12 17  2  0
 11 18  1  0
 17 19  1  0
 18 20  1  0
 17 21  1  0
 18 21  2  0
 19 22  1  0
 20 23  2  0
 20 24  1  0
M  END
