diamond-x0685_1_A-mac-x0303
     RDKit          3D

 28 30  0  0  0  0  0  0  0  0999 V2000
   -2.0890   11.1020   -5.3990 N   0  0  0  0  0  0  0  0  0  0  0  0
   -1.1690   11.1140   -4.2610 C   0  0  0  0  0  0  0  0  0  0  0  0
   -0.2670   12.3330   -4.1550 C   0  0  0  0  0  0  0  0  0  0  0  0
   -1.7220   10.2900   -6.5700 C   0  0  0  0  0  0  0  0  0  0  0  0
   -0.3960    9.5530   -6.4220 C   0  0  0  0  0  0  0  0  0  0  0  0
   -1.6420   11.2640   -7.7510 C   0  0  0  0  0  0  0  0  0  0  0  0
    0.7110   12.1430   -2.6820 S   0  0  0  0  0  0  0  0  0  0  0  0
   -0.0440    8.7180   -7.6530 C   0  0  0  0  0  0  0  0  0  0  0  0
   -1.0070   10.6340   -8.9850 C   0  0  0  0  0  0  0  0  0  0  0  0
    2.2400   12.3430   -3.1060 O   0  0  0  0  0  0  0  0  0  0  0  0
    0.4390   10.6290   -2.1980 O   0  0  0  0  0  0  0  0  0  0  0  0
    0.2490   13.2530   -1.6170 O   0  0  0  0  0  0  0  0  0  0  0  0
   -0.8840    9.1190   -8.8580 C   0  0  0  0  0  0  0  0  0  0  0  0
   -1.1090   13.2910   -1.1790 C   0  0  0  0  0  0  0  0  0  0  0  0
   -1.6070   14.7280   -1.1960 C   0  0  0  0  0  0  0  0  0  0  0  0
   -3.1150   14.8500   -1.0600 C   0  0  0  0  0  0  0  0  0  0  0  0
   -3.9260   15.1860   -2.1640 C   0  0  0  0  0  0  0  0  0  0  0  0
   -3.7170   14.6170    0.1850 C   0  0  0  0  0  0  0  0  0  0  0  0
   -5.1070   14.7070    0.2990 C   0  0  0  0  0  0  0  0  0  0  0  0
   -5.3210   15.2810   -2.0590 C   0  0  0  0  0  0  0  0  0  0  0  0
   -5.8750   15.0290   -0.8120 C   0  0  0  0  0  0  0  0  0  0  0  0
   -5.8970   14.5130    1.3930 N   0  0  0  0  0  0  0  0  0  0  0  0
   -7.1320   14.6980    0.9840 C   0  0  0  0  0  0  0  0  0  0  0  0
   -7.1690   15.0170   -0.3500 N   0  0  0  0  0  0  0  0  0  0  0  0
   -8.5600   14.5590    2.0150 S   0  0  0  0  0  0  0  0  0  0  0  0
   -8.4870   13.0100    2.6670 N   0  0  0  0  0  0  0  0  0  0  0  0
   -8.3410   15.5030    3.0830 O   0  0  0  0  0  0  0  0  0  0  0  0
   -9.6970   14.6430    1.1340 O   0  0  0  0  0  0  0  0  0  0  0  0
  1  2  1  0
  2  3  1  0
  1  4  1  0
  4  5  1  0
  4  6  1  0
  3  7  1  0
  5  8  1  0
  6  9  1  0
  7 10  1  0
  7 11  1  0
  7 12  1  0
  8 13  1  0
  9 13  1  0
 12 14  1  0
 14 15  1  0
 15 16  1  0
 16 17  2  0
 16 18  1  0
 18 19  2  0
 17 20  1  0
 19 21  1  0
 20 21  2  0
 19 22  1  0
 22 23  2  0
 21 24  1  0
 23 24  1  0
 23 25  1  0
 25 26  1  0
 25 27  2  0
 25 28  2  0
M  END
