diamond-x0950_1_A-mac-x0213
     RDKit          3D

 15 16  0  0  0  0  0  0  0  0999 V2000
    2.4250   12.9610   -5.0270 C   0  0  0  0  0  0  0  0  0  0  0  0
    1.5050   11.9830   -4.3430 C   0  0  2  0  0  0  0  0  0  0  0  0
    0.6160   11.4370   -5.3270 O   0  0  0  0  0  0  0  0  0  0  0  0
    0.6320   12.6460   -3.2780 C   0  0  0  0  0  0  0  0  0  0  0  0
   -0.3910   11.7080   -2.9170 O   0  0  0  0  0  0  0  0  0  0  0  0
    1.4070   12.8760   -2.1180 O   0  0  0  0  0  0  0  0  0  0  0  0
    0.1000   13.9270   -3.9560 C   0  0  0  0  0  0  0  0  0  0  0  0
   -1.3680   14.3640   -3.7530 C   0  0  0  0  0  0  0  0  0  0  0  0
    0.8980   15.2160   -3.6840 C   0  0  0  0  0  0  0  0  0  0  0  0
   -1.2910   15.6930   -4.4580 C   0  0  0  0  0  0  0  0  0  0  0  0
    0.0240   16.1820   -4.4110 C   0  0  0  0  0  0  0  0  0  0  0  0
   -2.2900   16.4170   -5.0890 C   0  0  0  0  0  0  0  0  0  0  0  0
    0.3640   17.3920   -4.9870 C   0  0  0  0  0  0  0  0  0  0  0  0
   -1.9510   17.6430   -5.6750 C   0  0  0  0  0  0  0  0  0  0  0  0
   -0.6320   18.1240   -5.6210 C   0  0  0  0  0  0  0  0  0  0  0  0
  2  1  1  6
  2  3  1  0
  2  4  1  0
  4  5  1  0
  4  6  1  0
  4  7  1  0
  7  8  1  0
  7  9  1  0
  8 10  1  0
  9 11  1  0
 10 11  2  0
 10 12  1  0
 11 13  1  0
 12 14  2  0
 13 15  2  0
 14 15  1  0
M  END
