diamond-x0727_0_A-mac-x0116
     RDKit          3D

 30 33  0  0  0  0  0  0  0  0999 V2000
    0.1640   11.4720   -5.4690 N   0  0  0  0  0  0  0  0  0  0  0  0
    0.9090   12.3960   -4.6030 C   0  0  1  0  0  0  0  0  0  0  0  0
    0.6570   13.8320   -5.0280 C   0  0  0  0  0  0  0  0  0  0  0  0
    0.7170   11.1630   -6.7010 C   0  0  0  0  0  0  0  0  0  0  0  0
    1.6610   11.7820   -7.1220 O   0  0  0  0  0  0  0  0  0  0  0  0
    0.4810   12.1980   -3.1330 C   0  0  0  0  0  0  0  0  0  0  0  0
    0.0800    9.9940   -7.4470 C   0  0  0  0  0  0  0  0  0  0  0  0
    0.5370   11.1260   -2.5340 O   0  0  0  0  0  0  0  0  0  0  0  0
    0.0090   13.3850   -2.6190 O   0  0  0  0  0  0  0  0  0  0  0  0
   -1.2150   10.3690   -8.1710 C   0  0  0  0  0  0  0  0  0  0  0  0
   -0.2770    8.8080   -6.5290 C   0  0  0  0  0  0  0  0  0  0  0  0
    0.5260   13.9570   -1.3900 C   0  0  0  0  0  0  0  0  0  0  0  0
   -2.0860    9.1240   -8.0750 C   0  0  0  0  0  0  0  0  0  0  0  0
   -1.7650    8.5650   -6.7010 C   0  0  0  0  0  0  0  0  0  0  0  0
   -0.5300   14.2120   -0.3970 N   0  0  0  0  0  0  0  0  0  0  0  0
   -1.8320   14.5520   -0.6820 C   0  0  0  0  0  0  0  0  0  0  0  0
   -0.4400   14.1620    0.9790 C   0  0  0  0  0  0  0  0  0  0  0  0
   -2.3940   14.7270   -1.8900 N   0  0  0  0  0  0  0  0  0  0  0  0
   -2.4560   14.6750    0.5550 C   0  0  0  0  0  0  0  0  0  0  0  0
   -1.5760   14.4330    1.5830 N   0  0  0  0  0  0  0  0  0  0  0  0
   -3.6990   15.0510   -1.7700 C   0  0  0  0  0  0  0  0  0  0  0  0
   -3.8230   15.0080    0.5610 C   0  0  0  0  0  0  0  0  0  0  0  0
   -4.5590   15.1440    1.7460 N   0  0  0  0  0  0  0  0  0  0  0  0
   -4.4240   15.1950   -0.6420 N   0  0  0  0  0  0  0  0  0  0  0  0
   -5.9690   14.7860    1.6820 C   0  0  0  0  0  0  0  0  0  0  0  0
   -6.3450   13.3470    1.6840 C   0  0  0  0  0  0  0  0  0  0  0  0
   -6.2730   12.6770    0.4950 O   0  0  0  0  0  0  0  0  0  0  0  0
   -6.7880   12.5020    2.6750 C   0  0  0  0  0  0  0  0  0  0  0  0
   -7.0050   11.2580    2.0690 C   0  0  0  0  0  0  0  0  0  0  0  0
   -6.6780   11.4120    0.7430 C   0  0  0  0  0  0  0  0  0  0  0  0
  1  2  1  0
  2  3  1  6
  1  4  1  0
  4  5  2  0
  2  6  1  0
  4  7  1  0
  6  8  2  0
  6  9  1  0
  7 10  1  0
  7 11  1  0
  9 12  1  0
 10 13  1  0
 11 14  1  0
 13 14  1  0
 12 15  1  0
 15 16  1  0
 15 17  1  0
 16 18  2  0
 16 19  1  0
 17 20  2  0
 19 20  1  0
 18 21  1  0
 19 22  2  0
 22 23  1  0
 21 24  2  0
 22 24  1  0
 23 25  1  0
 25 26  1  0
 26 27  1  0
 26 28  2  0
 28 29  1  0
 27 30  1  0
 29 30  2  0
M  END
