diamond-x0722_0_A-diamond-x0128_0_A
     RDKit          3D

 27 29  0  0  0  0  0  0  0  0999 V2000
   -5.3420   15.1970    1.7220 C   0  0  1  0  0  0  0  0  0  0  0  0
   -6.5370   14.9200    2.7780 C   0  0  0  0  0  0  0  0  0  0  0  0
   -7.5040   14.2270    2.3980 O   0  0  0  0  0  0  0  0  0  0  0  0
   -3.9040   14.7040    1.3830 C   0  0  0  0  0  0  0  0  0  0  0  0
   -5.8630   15.2420    0.3390 C   0  0  0  0  0  0  0  0  0  0  0  0
   -6.7800   15.3950    4.0750 N   0  0  0  0  0  0  0  0  0  0  0  0
   -2.7600   14.6970    2.1070 N   0  0  0  0  0  0  0  0  0  0  0  0
   -3.5880   14.1970    0.0600 C   0  0  0  0  0  0  0  0  0  0  0  0
   -5.0180   15.5940   -0.7160 C   0  0  0  0  0  0  0  0  0  0  0  0
   -7.2000   14.9290    0.0720 C   0  0  0  0  0  0  0  0  0  0  0  0
   -4.4810   13.9930   -1.1210 C   0  0  0  0  0  0  0  0  0  0  0  0
   -2.2530   13.9340    0.0370 C   0  0  0  0  0  0  0  0  0  0  0  0
   -1.7890   14.2380    1.2650 N   0  0  0  0  0  0  0  0  0  0  0  0
   -7.8360   15.8940    4.9240 C   0  0  0  0  0  0  0  0  0  0  0  0
   -7.6880   14.9650   -1.2160 C   0  0  0  0  0  0  0  0  0  0  0  0
   -5.5070   15.6160   -2.0070 C   0  0  0  0  0  0  0  0  0  0  0  0
   -0.3940   14.0950    1.6300 C   0  0  0  0  0  0  0  0  0  0  0  0
   -1.3760   13.4310   -1.0500 C   0  0  0  0  0  0  0  0  0  0  0  0
   -5.7230   13.1730   -0.8210 C   0  0  0  0  0  0  0  0  0  0  0  0
   -8.7800   16.8180    4.4290 C   0  0  0  0  0  0  0  0  0  0  0  0
   -8.0340   15.5550    6.2630 C   0  0  0  0  0  0  0  0  0  0  0  0
   -6.8380   15.3050   -2.2580 C   0  0  0  0  0  0  0  0  0  0  0  0
   -6.7200   13.1310   -1.5310 O   0  0  0  0  0  0  0  0  0  0  0  0
   -5.6840   12.4420    0.3290 N   0  0  0  0  0  0  0  0  0  0  0  0
   -9.8090   17.3800    5.1260 N   0  0  0  0  0  0  0  0  0  0  0  0
   -9.0800   16.1120    7.0130 C   0  0  0  0  0  0  0  0  0  0  0  0
   -9.9340   17.0140    6.4120 C   0  0  0  0  0  0  0  0  0  0  0  0
  1  2  1  1
  2  3  2  0
  1  4  1  0
  1  5  1  0
  2  6  1  0
  4  7  2  0
  4  8  1  0
  5  9  2  0
  5 10  1  0
  8 11  1  0
  8 12  2  0
  7 13  1  0
 12 13  1  0
  6 14  1  0
 10 15  2  0
  9 16  1  0
 13 17  1  0
 12 18  1  0
 11 19  1  0
 14 20  2  0
 14 21  1  0
 15 22  1  0
 16 22  2  0
 19 23  2  0
 19 24  1  0
 20 25  1  0
 21 26  2  0
 25 27  2  0
 26 27  1  0
M  END
