diamond-x0685_1_A-diamond-x0900_1_A
     RDKit          3D

 14 14  0  0  0  0  0  0  0  0999 V2000
   -1.4280   10.6560   -4.8940 N   0  0  0  0  0  0  0  0  0  0  0  0
   -1.4650   12.0740   -4.5000 C   0  0  0  0  0  0  0  0  0  0  0  0
   -0.1150   12.6990   -4.1550 C   0  0  0  0  0  0  0  0  0  0  0  0
   -0.7640   10.3020   -6.1630 C   0  0  1  0  0  0  0  0  0  0  0  0
   -0.5630    8.7900   -6.3110 C   0  0  0  0  0  0  0  0  0  0  0  0
   -1.5780   10.8200   -7.3730 C   0  0  0  0  0  0  0  0  0  0  0  0
    0.6400   12.0150   -2.6770 S   0  0  0  0  0  0  0  0  0  0  0  0
    0.1330    8.4190   -7.6120 C   0  0  0  0  0  0  0  0  0  0  0  0
   -1.1620   10.2430   -8.7280 C   0  0  0  0  0  0  0  0  0  0  0  0
    2.2020   12.3090   -2.8430 O   0  0  0  0  0  0  0  0  0  0  0  0
    0.3300   10.4420   -2.5830 O   0  0  0  0  0  0  0  0  0  0  0  0
    0.0740   12.7480   -1.3730 O   0  0  0  0  0  0  0  0  0  0  0  0
   -1.2200   10.9140   -9.7490 O   0  0  0  0  0  0  0  0  0  0  0  0
   -0.6830    8.8160   -8.8230 C   0  0  0  0  0  0  0  0  0  0  0  0
  1  2  1  0
  2  3  1  0
  4  1  1  1
  4  5  1  0
  4  6  1  0
  3  7  1  0
  5  8  1  0
  6  9  1  0
  7 10  1  0
  7 11  1  0
  7 12  1  0
  9 13  2  0
  8 14  1  0
  9 14  1  0
M  END
