diamond-x0849_0_A-mac-x0433
     RDKit          3D

 20 22  0  0  0  0  0  0  0  0999 V2000
   -3.3500   15.3430   -3.0050 Br  0  0  0  0  0  0  0  0  0  0  0  0
   -3.1350   15.2340   -1.1410 C   0  0  0  0  0  0  0  0  0  0  0  0
   -2.0790   14.6480   -0.5400 C   0  0  0  0  0  0  0  0  0  0  0  0
   -4.1490   15.8610   -0.2810 C   0  0  0  0  0  0  0  0  0  0  0  0
   -1.9920   14.5140    0.9470 C   0  0  2  0  0  0  0  0  0  0  0  0
   -4.1560   15.5710    1.0190 C   0  0  0  0  0  0  0  0  0  0  0  0
   -0.9010   14.0780   -1.1270 C   0  0  0  0  0  0  0  0  0  0  0  0
   -3.3030   14.6380    1.4890 N   0  0  0  0  0  0  0  0  0  0  0  0
   -0.9130   15.2060    1.5220 N   0  0  0  0  0  0  0  0  0  0  0  0
    0.2520   14.2920   -0.4630 C   0  0  0  0  0  0  0  0  0  0  0  0
   -3.9390   13.4800    0.9440 C   0  0  0  0  0  0  0  0  0  0  0  0
    0.1350   15.0810    0.7970 C   0  0  0  0  0  0  0  0  0  0  0  0
   -5.1250   14.0310    0.1740 C   0  0  0  0  0  0  0  0  0  0  0  0
   -5.0300   14.3210   -1.1590 N   0  0  0  0  0  0  0  0  0  0  0  0
   -6.2770   14.2270    0.8680 C   0  0  0  0  0  0  0  0  0  0  0  0
   -6.1300   14.8100   -1.7520 C   0  0  0  0  0  0  0  0  0  0  0  0
   -7.3420   14.7260    0.1760 C   0  0  0  0  0  0  0  0  0  0  0  0
   -8.6280   14.9530    0.8940 C   0  0  0  0  0  0  0  0  0  0  0  0
   -6.0550   15.1070   -3.0990 N   0  0  0  0  0  0  0  0  0  0  0  0
   -7.2900   15.0240   -1.1350 N   0  0  0  0  0  0  0  0  0  0  0  0
  1  2  1  0
  2  3  2  0
  2  4  1  0
  3  5  1  0
  4  6  2  0
  3  7  1  0
  5  8  1  0
  6  8  1  0
  5  9  1  1
  7 10  2  0
  8 11  1  0
  9 12  2  0
 10 12  1  0
 11 13  1  0
 13 14  2  0
 13 15  1  0
 14 16  1  0
 15 17  2  0
 17 18  1  0
 16 19  1  0
 16 20  2  0
 17 20  1  0
M  END
