diamond-x0742_0_A-mac-x0282
     RDKit          3D

 16 18  0  0  0  0  0  0  0  0999 V2000
   -5.1780   12.7110   -0.5560 C   0  0  0  0  0  0  0  0  0  0  0  0
   -6.0080   12.1990    0.5970 C   0  0  0  0  0  0  0  0  0  0  0  0
   -4.7670   11.9100   -1.4060 O   0  0  0  0  0  0  0  0  0  0  0  0
   -4.8680   14.2290   -0.6840 C   0  0  2  0  0  0  0  0  0  0  0  0
   -4.9910   14.9590    0.6670 C   0  0  0  0  0  0  0  0  0  0  0  0
   -5.7490   14.7570   -1.8260 C   0  0  0  0  0  0  0  0  0  0  0  0
   -3.5390   14.6540   -1.2910 C   0  0  2  0  0  0  0  0  0  0  0  0
   -3.5790   13.9720   -2.6550 C   0  0  0  0  0  0  0  0  0  0  0  0
   -2.3430   14.4660   -0.4060 C   0  0  0  0  0  0  0  0  0  0  0  0
   -3.8660   14.5190    1.6170 C   0  0  0  0  0  0  0  0  0  0  0  0
   -5.0280   14.2490   -3.0870 C   0  0  0  0  0  0  0  0  0  0  0  0
   -1.0470   14.3510   -0.9210 C   0  0  0  0  0  0  0  0  0  0  0  0
   -2.5090   14.4180    0.9760 C   0  0  0  0  0  0  0  0  0  0  0  0
   -1.4840   14.2810    1.8280 N   0  0  0  0  0  0  0  0  0  0  0  0
    0.0190   14.2000   -0.0480 C   0  0  0  0  0  0  0  0  0  0  0  0
   -0.2580   14.1730    1.3110 C   0  0  0  0  0  0  0  0  0  0  0  0
  1  2  1  0
  1  3  2  0
  4  1  1  1
  4  5  1  0
  4  6  1  0
  4  7  1  0
  7  8  1  6
  7  9  1  0
  5 10  1  0
  6 11  1  0
  8 11  1  0
  9 12  1  0
  9 13  2  0
 10 13  1  0
 13 14  1  0
 12 15  2  0
 14 16  2  0
 15 16  1  0
M  END
