diamond-x0844_0_A-mac-x0115
     RDKit          3D

 24 26  0  0  0  0  0  0  0  0999 V2000
   -7.4710   15.3130   -0.5580 O   0  0  0  0  0  0  0  0  0  0  0  0
   -6.2750   15.0190   -0.5470 C   0  0  0  0  0  0  0  0  0  0  0  0
   -5.6660   14.6500    0.6080 N   0  0  0  0  0  0  0  0  0  0  0  0
   -5.3880   15.0120   -1.7920 C   0  0  0  0  0  0  0  0  0  0  0  0
   -4.9380   13.5140    0.6150 C   0  0  0  0  0  0  0  0  0  0  0  0
   -4.1710   14.0360   -1.7280 C   0  0  2  0  0  0  0  0  0  0  0  0
   -4.2350   13.1830   -0.4800 C   0  0  0  0  0  0  0  0  0  0  0  0
   -2.8830   14.6740   -1.4220 C   0  0  0  0  0  0  0  0  0  0  0  0
   -1.5180   14.8060   -1.6250 C   0  0  0  0  0  0  0  0  0  0  0  0
   -3.1530   15.6280   -0.3860 C   0  0  0  0  0  0  0  0  0  0  0  0
   -0.4300   14.3000   -2.4140 N   0  0  0  0  0  0  0  0  0  0  0  0
   -1.0590   15.7650   -0.5900 C   0  0  1  0  0  0  0  0  0  0  0  0
   -2.2160   16.2510    0.1190 N   0  0  0  0  0  0  0  0  0  0  0  0
   -0.3950   14.3960   -3.8960 C   0  0  0  0  0  0  0  0  0  0  0  0
    0.8290   14.1880   -1.7150 C   0  0  0  0  0  0  0  0  0  0  0  0
   -0.2460   14.9340    0.3430 C   0  0  0  0  0  0  0  0  0  0  0  0
    0.2430   15.6820   -4.4560 C   0  0  0  0  0  0  0  0  0  0  0  0
   -0.4500   14.7730    1.5390 O   0  0  0  0  0  0  0  0  0  0  0  0
    2.3730   13.9180   -2.3250 S   0  0  0  0  0  0  0  0  0  0  0  0
    0.7610   14.3260   -0.3440 N   0  0  0  0  0  0  0  0  0  0  0  0
   -0.7520   16.3050   -5.2790 O   0  0  0  0  0  0  0  0  0  0  0  0
   -0.4330   17.6070   -5.7910 C   0  0  0  0  0  0  0  0  0  0  0  0
   -1.4160   18.5650   -5.1600 C   0  0  0  0  0  0  0  0  0  0  0  0
    0.9970   17.9980   -5.4840 C   0  0  0  0  0  0  0  0  0  0  0  0
  1  2  2  0
  2  3  1  0
  2  4  1  0
  3  5  1  0
  4  6  1  0
  5  7  2  0
  6  7  1  0
  6  8  1  1
  8  9  2  0
  8 10  1  0
  9 11  1  0
  9 12  1  0
 10 13  2  0
 12 13  1  1
 11 14  1  0
 11 15  1  0
 12 16  1  0
 14 17  1  0
 16 18  2  0
 15 19  2  0
 15 20  1  0
 16 20  1  0
 17 21  1  0
 21 22  1  0
 22 23  1  0
 22 24  1  0
M  END
