diamond-x0253_0_A-diamond-x0290_0_A
     RDKit          3D

 29 30  0  0  0  0  0  0  0  0999 V2000
    0.5570   12.2350   -5.6180 N   0  0  0  0  0  0  0  0  0  0  0  0
    1.1860   11.7640   -6.6880 C   0  0  0  0  0  0  0  0  0  0  0  0
    2.3160   12.1420   -6.7910 O   0  0  0  0  0  0  0  0  0  0  0  0
    1.4340   12.5940   -4.5230 C   0  0  0  0  0  0  0  0  0  0  0  0
    0.6340   12.2580   -3.3370 C   0  0  0  0  0  0  0  0  0  0  0  0
    0.5180   10.8130   -7.6300 C   0  0  0  0  0  0  0  0  0  0  0  0
    0.6740   12.8590   -2.2450 N   0  0  0  0  0  0  0  0  0  0  0  0
   -0.2210   11.2380   -3.5300 O   0  0  0  0  0  0  0  0  0  0  0  0
   -0.4590    9.9180   -7.1750 C   0  0  0  0  0  0  0  0  0  0  0  0
    0.8650   10.8010   -8.9870 C   0  0  0  0  0  0  0  0  0  0  0  0
   -0.4380   12.2590   -1.5750 C   0  0  0  0  0  0  0  0  0  0  0  0
   -1.0810    9.0260   -8.0610 C   0  0  0  0  0  0  0  0  0  0  0  0
    0.2520    9.9180   -9.8710 C   0  0  0  0  0  0  0  0  0  0  0  0
   -2.1270    8.0740   -7.5580 C   0  0  0  0  0  0  0  0  0  0  0  0
   -1.5750   12.8370   -2.4330 C   0  0  0  0  0  0  0  0  0  0  0  0
   -0.7150    9.0370   -9.4090 C   0  0  0  0  0  0  0  0  0  0  0  0
   -1.5390   14.3530   -2.3040 C   0  0  0  0  0  0  0  0  0  0  0  0
   -1.5950   14.5060   -0.8400 C   0  0  0  0  0  0  0  0  0  0  0  0
   -0.4500   14.5010   -0.0440 C   0  0  0  0  0  0  0  0  0  0  0  0
   -2.8360   14.6240   -0.2610 C   0  0  0  0  0  0  0  0  0  0  0  0
   -0.6330   14.5970    1.3120 C   0  0  0  0  0  0  0  0  0  0  0  0
   -2.9370   14.7180    1.1000 C   0  0  0  0  0  0  0  0  0  0  0  0
   -4.2290   14.8250    1.5970 N   0  0  0  0  0  0  0  0  0  0  0  0
   -1.8510   14.6940    1.8970 N   0  0  0  0  0  0  0  0  0  0  0  0
   -5.3940   14.5100    0.9580 C   0  0  0  0  0  0  0  0  0  0  0  0
   -5.4200   14.5560   -0.2790 O   0  0  0  0  0  0  0  0  0  0  0  0
   -6.6310   14.1020    1.7730 C   0  0  0  0  0  0  0  0  0  0  0  0
   -7.7740   13.8230    0.8790 N   0  0  0  0  0  0  0  0  0  0  0  0
   -8.6460   14.9740    0.7530 C   0  0  0  0  0  0  0  0  0  0  0  0
  1  2  1  0
  2  3  2  0
  1  4  1  0
  4  5  1  0
  2  6  1  0
  5  7  2  3
  5  8  1  0
  6  9  2  0
  6 10  1  0
  7 11  1  0
  9 12  1  0
 10 13  2  0
 12 14  1  0
 11 15  1  0
 12 16  2  0
 13 16  1  0
 15 17  1  0
 17 18  1  0
 18 19  2  0
 18 20  1  0
 19 21  1  0
 20 22  2  0
 22 23  1  0
 21 24  2  0
 22 24  1  0
 23 25  1  0
 25 26  2  0
 25 27  1  0
 27 28  1  0
 28 29  1  0
M  END
