diamond-x0724_0_A-mac-x0394
     RDKit          3D

 28 30  0  0  0  0  0  0  0  0999 V2000
   -8.6580   13.8110    4.3330 N   0  0  0  0  0  0  0  0  0  0  0  0
   -8.4640   13.9650    5.7670 C   0  0  0  0  0  0  0  0  0  0  0  0
   -8.4830   15.0880    3.6490 C   0  0  0  0  0  0  0  0  0  0  0  0
   -7.8210   14.8460    2.3390 C   0  0  0  0  0  0  0  0  0  0  0  0
   -6.4810   14.9260    2.0590 C   0  0  0  0  0  0  0  0  0  0  0  0
   -8.3880   14.4920    1.0990 C   0  0  0  0  0  0  0  0  0  0  0  0
   -7.4760   14.3640    0.1260 N   0  0  0  0  0  0  0  0  0  0  0  0
   -6.2890   14.6370    0.7360 N   0  0  0  0  0  0  0  0  0  0  0  0
   -5.0450   14.6180    0.0530 C   0  0  0  0  0  0  0  0  0  0  0  0
   -3.8800   14.9390    0.7670 C   0  0  0  0  0  0  0  0  0  0  0  0
   -4.9500   14.2850   -1.3030 C   0  0  0  0  0  0  0  0  0  0  0  0
   -2.6420   14.9270    0.1380 C   0  0  0  0  0  0  0  0  0  0  0  0
   -3.7000   14.2720   -1.9350 C   0  0  0  0  0  0  0  0  0  0  0  0
   -3.5950   13.9090   -3.3880 C   0  0  0  0  0  0  0  0  0  0  0  0
   -2.5510   14.5940   -1.2120 C   0  0  0  0  0  0  0  0  0  0  0  0
   -4.0310   15.0960   -4.2230 C   0  0  0  0  0  0  0  0  0  0  0  0
   -3.1750   15.3350   -5.4610 C   0  0  0  0  0  0  0  0  0  0  0  0
   -1.7030   15.4380   -5.1620 C   0  0  0  0  0  0  0  0  0  0  0  0
   -0.9390   14.2920   -4.8820 C   0  0  0  0  0  0  0  0  0  0  0  0
   -1.0770   16.6770   -5.1680 C   0  0  0  0  0  0  0  0  0  0  0  0
    0.4350   14.3800   -4.6110 C   0  0  0  0  0  0  0  0  0  0  0  0
    0.2790   16.7640   -4.9050 C   0  0  0  0  0  0  0  0  0  0  0  0
    0.9970   18.2980   -4.9350 Cl  0  0  0  0  0  0  0  0  0  0  0  0
    1.2380   13.1340   -4.3130 C   0  0  0  0  0  0  0  0  0  0  0  0
    1.0420   15.6350   -4.6250 C   0  0  0  0  0  0  0  0  0  0  0  0
    0.8480   12.4670   -3.0160 C   0  0  0  0  0  0  0  0  0  0  0  0
    0.2060   11.2960   -3.2200 O   0  0  0  0  0  0  0  0  0  0  0  0
    1.0410   12.8580   -1.8810 O   0  0  0  0  0  0  0  0  0  0  0  0
  1  2  1  0
  1  3  1  0
  3  4  1  0
  4  5  2  0
  4  6  1  0
  6  7  2  0
  5  8  1  0
  7  8  1  0
  8  9  1  0
  9 10  2  0
  9 11  1  0
 10 12  1  0
 11 13  2  0
 13 14  1  0
 12 15  2  0
 13 15  1  0
 14 16  1  0
 16 17  1  0
 17 18  1  0
 18 19  2  0
 18 20  1  0
 19 21  1  0
 20 22  2  0
 22 23  1  0
 21 24  1  0
 21 25  2  0
 22 25  1  0
 24 26  1  0
 26 27  1  0
 26 28  2  0
M  END
