diamond-x0849_0_A-mac-x0380
     RDKit          3D

 19 21  0  0  0  0  0  0  0  0999 V2000
   -3.4580   14.8150   -2.5320 C   0  0  0  0  0  0  0  0  0  0  0  0
   -2.2290   14.3480   -2.8690 O   0  0  0  0  0  0  0  0  0  0  0  0
   -4.3770   14.7710   -3.3240 O   0  0  0  0  0  0  0  0  0  0  0  0
   -3.4890   15.4100   -1.1290 C   0  0  2  0  0  0  0  0  0  0  0  0
   -2.3040   14.9590   -0.2850 C   0  0  0  0  0  0  0  0  0  0  0  0
   -4.8230   15.6230   -0.3600 C   0  0  0  0  0  0  0  0  0  0  0  0
   -2.4890   14.6870    1.0490 C   0  0  0  0  0  0  0  0  0  0  0  0
   -4.9240   14.6830    0.8110 C   0  0  1  0  0  0  0  0  0  0  0  0
   -0.9970   14.8200   -0.8020 C   0  0  0  0  0  0  0  0  0  0  0  0
   -3.7290   14.7840    1.6140 N   0  0  0  0  0  0  0  0  0  0  0  0
   -1.5020   14.3220    1.8690 N   0  0  0  0  0  0  0  0  0  0  0  0
    0.0370   14.4320    0.0390 C   0  0  0  0  0  0  0  0  0  0  0  0
   -5.8770   14.9360    1.8550 N   0  0  0  0  0  0  0  0  0  0  0  0
   -5.2200   13.3930    0.1540 C   0  0  0  0  0  0  0  0  0  0  0  0
   -0.2720   14.1980    1.3630 C   0  0  0  0  0  0  0  0  0  0  0  0
   -7.2240   14.6970    1.8590 C   0  0  0  0  0  0  0  0  0  0  0  0
   -6.8240   12.7130    0.0650 S   0  0  0  0  0  0  0  0  0  0  0  0
   -7.9820   15.3030    2.6040 O   0  0  0  0  0  0  0  0  0  0  0  0
   -7.8760   13.6510    1.0450 C   0  0  0  0  0  0  0  0  0  0  0  0
  1  2  1  0
  1  3  2  0
  4  1  1  6
  4  5  1  0
  4  6  1  0
  5  7  2  0
  8  6  1  6
  5  9  1  0
  7 10  1  0
  8 10  1  0
  7 11  1  0
  9 12  2  0
  8 13  1  0
  8 14  1  0
 11 15  2  0
 12 15  1  0
 13 16  1  0
 14 17  2  0
 16 18  2  0
 16 19  1  0
 17 19  2  0
M  END
