diamond-x0950_0_A-diamond-x0969_0_A
     RDKit          3D

 19 20  0  0  0  0  0  0  0  0999 V2000
    2.9420   12.4670   -4.0930 C   0  0  0  0  0  0  0  0  0  0  0  0
    1.4390   12.6870   -3.9910 C   0  0  1  0  0  0  0  0  0  0  0  0
    0.8620   12.3440   -5.2540 O   0  0  0  0  0  0  0  0  0  0  0  0
    0.8250   11.8390   -2.8590 C   0  0  0  0  0  0  0  0  0  0  0  0
    0.3140   10.7480   -3.0550 O   0  0  0  0  0  0  0  0  0  0  0  0
    0.9210   12.4270   -1.6280 O   0  0  0  0  0  0  0  0  0  0  0  0
    0.0700   13.5420   -1.3440 C   0  0  0  0  0  0  0  0  0  0  0  0
   -1.3150   13.3300   -1.9500 C   0  0  0  0  0  0  0  0  0  0  0  0
   -2.0380   14.6630   -2.1370 C   0  0  0  0  0  0  0  0  0  0  0  0
   -3.2380   14.7680   -1.2290 C   0  0  0  0  0  0  0  0  0  0  0  0
   -4.5010   14.7160   -1.7030 C   0  0  0  0  0  0  0  0  0  0  0  0
   -2.9820   14.9060    0.2050 C   0  0  0  0  0  0  0  0  0  0  0  0
   -5.5970   14.7340   -0.8000 C   0  0  0  0  0  0  0  0  0  0  0  0
   -4.0160   14.9370    1.0550 C   0  0  0  0  0  0  0  0  0  0  0  0
   -6.8960   14.6560   -0.9790 N   0  0  0  0  0  0  0  0  0  0  0  0
   -5.3140   14.8280    0.5520 N   0  0  0  0  0  0  0  0  0  0  0  0
   -6.5540   14.7800    1.1710 C   0  0  0  0  0  0  0  0  0  0  0  0
   -7.4940   14.6830    0.2620 N   0  0  0  0  0  0  0  0  0  0  0  0
   -6.7320   14.8330    2.5070 N   0  0  0  0  0  0  0  0  0  0  0  0
  2  1  1  6
  2  3  1  0
  2  4  1  0
  4  5  2  0
  4  6  1  0
  6  7  1  0
  7  8  1  0
  8  9  1  0
  9 10  1  0
 10 11  2  0
 10 12  1  0
 11 13  1  0
 12 14  2  0
 13 15  2  0
 13 16  1  0
 14 16  1  0
 16 17  1  0
 15 18  1  0
 17 18  2  0
 17 19  1  0
M  END
