diamond-x0910_0_A-mac-x0402
     RDKit          3D

 15 17  0  0  0  0  0  0  0  0999 V2000
   -7.2870   14.7090    2.6410 N   0  0  0  0  0  0  0  0  0  0  0  0
   -6.4090   14.7690    1.6320 C   0  0  0  0  0  0  0  0  0  0  0  0
   -6.6600   14.8910    0.3250 N   0  0  0  0  0  0  0  0  0  0  0  0
   -4.7960   14.6860    2.0720 S   0  0  0  0  0  0  0  0  0  0  0  0
   -5.4460   14.9120   -0.3620 C   0  0  0  0  0  0  0  0  0  0  0  0
   -4.3780   14.7970    0.4790 C   0  0  0  0  0  0  0  0  0  0  0  0
   -5.1450   15.0270   -1.7590 C   0  0  0  0  0  0  0  0  0  0  0  0
   -3.1330   14.7720    0.1030 C   0  0  0  0  0  0  0  0  0  0  0  0
   -3.7690   15.0020   -2.1790 C   0  0  0  0  0  0  0  0  0  0  0  0
   -2.7850   14.8650   -1.1750 C   0  0  0  0  0  0  0  0  0  0  0  0
   -1.3640   14.7840   -0.9770 C   0  0  0  0  0  0  0  0  0  0  0  0
   -0.9960   14.9330    0.3350 N   0  0  0  0  0  0  0  0  0  0  0  0
   -0.2910   14.6040   -1.6940 N   0  0  0  0  0  0  0  0  0  0  0  0
    0.2990   14.8600    0.5220 N   0  0  0  0  0  0  0  0  0  0  0  0
    0.7020   14.6550   -0.7320 C   0  0  0  0  0  0  0  0  0  0  0  0
  1  2  1  0
  2  3  2  0
  2  4  1  0
  3  5  1  0
  4  6  1  0
  5  6  2  0
  5  7  1  0
  6  8  1  0
  7  9  2  0
  8 10  2  0
  9 10  1  0
 10 11  1  0
 11 12  1  0
 11 13  2  0
 12 14  1  0
 13 15  1  0
 14 15  2  0
M  END
