diamond-x0900_1_A-diamond-x0805_0_A
     RDKit          3D

 25 27  0  0  0  0  0  0  0  0999 V2000
   -0.9470    9.6390   -9.7770 O   0  0  0  0  0  0  0  0  0  0  0  0
   -1.0700    9.3390   -8.6010 C   0  0  0  0  0  0  0  0  0  0  0  0
   -0.2270    9.7050   -7.5800 N   0  0  0  0  0  0  0  0  0  0  0  0
   -2.1660    8.5120   -7.9690 C   0  0  0  0  0  0  0  0  0  0  0  0
   -1.7690    8.5000   -6.4900 C   0  0  0  0  0  0  0  0  0  0  0  0
   -1.0430    9.8280   -6.4040 C   0  0  1  0  0  0  0  0  0  0  0  0
   -0.2770   10.0930   -5.1130 C   0  0  0  0  0  0  0  0  0  0  0  0
   -0.9550   10.7630   -3.9250 C   0  0  0  0  0  0  0  0  0  0  0  0
    0.0710   10.8790   -2.9160 O   0  0  0  0  0  0  0  0  0  0  0  0
    0.2920   12.1070   -2.3400 C   0  0  0  0  0  0  0  0  0  0  0  0
    0.2230   12.3260   -1.1460 O   0  0  0  0  0  0  0  0  0  0  0  0
    0.6760   13.2090   -3.2890 C   0  0  1  0  0  0  0  0  0  0  0  0
    1.7540   12.8770   -4.2810 C   0  0  0  0  0  0  0  0  0  0  0  0
   -0.4900   13.8920   -3.9780 C   0  0  1  0  0  0  0  0  0  0  0  0
   -1.7670   13.9050   -3.1510 C   0  0  0  0  0  0  0  0  0  0  0  0
    2.2780   14.0990   -4.7600 O   0  0  0  0  0  0  0  0  0  0  0  0
    0.0530   15.2760   -4.3200 C   0  0  0  0  0  0  0  0  0  0  0  0
   -2.8660   13.1510   -3.5790 C   0  0  0  0  0  0  0  0  0  0  0  0
   -1.8940   14.6450   -1.9690 C   0  0  0  0  0  0  0  0  0  0  0  0
    1.5910   15.3050   -4.3460 C   0  0  0  0  0  0  0  0  0  0  0  0
   -3.0800   14.6420   -1.2250 C   0  0  0  0  0  0  0  0  0  0  0  0
   -4.0490   13.1390   -2.8440 C   0  0  0  0  0  0  0  0  0  0  0  0
   -3.0450   15.4160   -0.0980 O   0  0  0  0  0  0  0  0  0  0  0  0
   -4.1580   13.8830   -1.6680 C   0  0  0  0  0  0  0  0  0  0  0  0
   -4.2380   15.5340    0.6680 C   0  0  0  0  0  0  0  0  0  0  0  0
  1  2  2  0
  2  3  1  0
  2  4  1  0
  4  5  1  0
  3  6  1  0
  5  6  1  0
  6  7  1  1
  7  8  1  0
  8  9  1  0
  9 10  1  0
 10 11  2  0
 12 10  1  6
 12 13  1  0
 12 14  1  0
 14 15  1  1
 13 16  1  0
 14 17  1  0
 15 18  2  0
 15 19  1  0
 16 20  1  0
 17 20  1  0
 19 21  2  0
 18 22  1  0
 21 23  1  0
 21 24  1  0
 22 24  2  0
 23 25  1  0
M  END
