diamond-x0895_0_A-mac-x0115
     RDKit          3D

 23 25  0  0  0  0  0  0  0  0999 V2000
   -1.2310   14.8190    1.2550 N   0  0  0  0  0  0  0  0  0  0  0  0
   -2.4880   14.6100    1.0810 C   0  0  0  0  0  0  0  0  0  0  0  0
   -3.5930   14.5840    2.0680 C   0  0  0  0  0  0  0  0  0  0  0  0
   -0.7150   14.8050   -0.0130 C   0  0  0  0  0  0  0  0  0  0  0  0
   -3.1070   14.3560   -0.0920 N   0  0  0  0  0  0  0  0  0  0  0  0
    0.5730   14.4050   -0.3090 N   0  0  0  0  0  0  0  0  0  0  0  0
   -1.4780   15.1580   -1.0470 C   0  0  0  0  0  0  0  0  0  0  0  0
   -4.6520   15.1130    1.2360 N   0  0  0  0  0  0  0  0  0  0  0  0
   -4.3310   14.9210   -0.0830 C   0  0  0  0  0  0  0  0  0  0  0  0
    1.1220   14.3880   -1.5910 C   0  0  0  0  0  0  0  0  0  0  0  0
   -1.0270   15.1010   -2.3970 C   0  0  0  0  0  0  0  0  0  0  0  0
   -2.7760   15.5890   -1.0390 N   0  0  0  0  0  0  0  0  0  0  0  0
   -5.0140   15.1990   -1.0530 O   0  0  0  0  0  0  0  0  0  0  0  0
    2.7400   13.9850   -1.7510 S   0  0  0  0  0  0  0  0  0  0  0  0
    0.2640   14.7160   -2.6630 N   0  0  0  0  0  0  0  0  0  0  0  0
   -2.0190   15.4370   -3.2250 C   0  0  0  0  0  0  0  0  0  0  0  0
   -3.0830   15.7210   -2.2800 C   0  0  0  0  0  0  0  0  0  0  0  0
    0.6550   14.4950   -4.0720 C   0  0  0  0  0  0  0  0  0  0  0  0
    0.8270   15.8110   -4.8410 C   0  0  0  0  0  0  0  0  0  0  0  0
   -0.4490   16.3660   -5.1570 O   0  0  0  0  0  0  0  0  0  0  0  0
   -0.4060   17.6480   -5.7870 C   0  0  0  0  0  0  0  0  0  0  0  0
   -1.4410   18.5720   -5.1800 C   0  0  0  0  0  0  0  0  0  0  0  0
    1.0020   18.1950   -5.6200 C   0  0  0  0  0  0  0  0  0  0  0  0
  1  2  2  3
  2  3  1  0
  1  4  1  0
  2  5  1  0
  4  6  1  0
  4  7  2  0
  3  8  1  0
  5  9  1  0
  8  9  1  0
  6 10  1  0
  7 11  1  0
  7 12  1  0
  9 13  2  0
 10 14  2  0
 10 15  1  0
 11 15  1  0
 11 16  2  0
 12 17  2  0
 16 17  1  0
 15 18  1  0
 18 19  1  0
 19 20  1  0
 20 21  1  0
 21 22  1  0
 21 23  1  0
M  END
