diamond-x0681_0_A-mac-x0433
     RDKit          3D

 13 14  0  0  0  0  0  0  0  0999 V2000
   -3.9350   15.4330   -3.0800 N   0  0  0  0  0  0  0  0  0  0  0  0
   -3.3980   14.9820   -1.9220 C   0  0  0  0  0  0  0  0  0  0  0  0
   -2.2220   14.6490   -1.8730 O   0  0  0  0  0  0  0  0  0  0  0  0
   -4.3920   14.9350   -0.7730 C   0  0  1  0  0  0  0  0  0  0  0  0
   -5.0290   13.5850   -0.7220 C   0  0  0  0  0  0  0  0  0  0  0  0
   -3.8070   15.4080    0.5590 C   0  0  0  0  0  0  0  0  0  0  0  0
   -5.6660   13.1650    0.3840 N   0  0  0  0  0  0  0  0  0  0  0  0
   -4.5380   14.8740    1.8000 C   0  0  0  0  0  0  0  0  0  0  0  0
   -5.0880   12.6650   -1.6660 N   0  0  0  0  0  0  0  0  0  0  0  0
   -5.7700   13.9340    1.5740 C   0  0  1  0  0  0  0  0  0  0  0  0
   -6.1700   11.9270    0.1650 C   0  0  0  0  0  0  0  0  0  0  0  0
   -5.7990   11.6290   -1.1190 C   0  0  0  0  0  0  0  0  0  0  0  0
   -7.1400   14.6180    1.6500 C   0  0  0  0  0  0  0  0  0  0  0  0
  1  2  1  0
  2  3  2  0
  4  2  1  6
  4  5  1  0
  4  6  1  0
  5  7  1  0
  6  8  1  0
  5  9  2  0
  7 10  1  0
  8 10  1  0
  7 11  1  0
  9 12  1  0
 11 12  2  0
 10 13  1  6
M  END
