diamond-x0438_0_A-mac-x0453
     RDKit          3D

 17 18  0  0  0  0  0  0  0  0999 V2000
   -8.1960   15.3920    3.6060 C   0  0  0  0  0  0  0  0  0  0  0  0
   -9.5230   15.3700    2.4090 S   0  0  0  0  0  0  0  0  0  0  0  0
  -10.7010   14.8490    3.0850 O   0  0  0  0  0  0  0  0  0  0  0  0
   -9.0820   14.1750    1.1510 C   0  0  0  0  0  0  0  0  0  0  0  0
   -9.6050   16.6620    1.7580 O   0  0  0  0  0  0  0  0  0  0  0  0
   -7.7560   14.4690    0.5630 C   0  0  0  0  0  0  0  0  0  0  0  0
   -7.5310   14.9000   -0.7350 N   0  0  0  0  0  0  0  0  0  0  0  0
   -6.6310   14.3520    1.1920 N   0  0  0  0  0  0  0  0  0  0  0  0
   -5.6580   14.7020    0.3050 C   0  0  0  0  0  0  0  0  0  0  0  0
   -6.1700   15.0520   -0.9040 C   0  0  0  0  0  0  0  0  0  0  0  0
   -5.3510   15.4400   -1.9520 C   0  0  0  0  0  0  0  0  0  0  0  0
   -4.3180   14.7140    0.5370 C   0  0  0  0  0  0  0  0  0  0  0  0
   -3.9930   14.2840    1.8860 C   0  0  0  0  0  0  0  0  0  0  0  0
   -3.9620   15.4640   -1.7190 C   0  0  0  0  0  0  0  0  0  0  0  0
   -3.4370   15.1010   -0.4740 C   0  0  0  0  0  0  0  0  0  0  0  0
   -4.9220   13.0740    2.1560 C   0  0  0  0  0  0  0  0  0  0  0  0
   -6.2270   13.4250    2.7430 N   0  0  0  0  0  0  0  0  0  0  0  0
  2  1  1  0
  2  3  2  0
  2  4  1  0
  2  5  2  0
  4  6  1  0
  6  7  1  0
  6  8  2  0
  8  9  1  0
  7 10  1  0
  9 10  2  0
 10 11  1  0
  9 12  1  0
 12 13  1  0
 11 14  2  0
 12 15  2  0
 14 15  1  0
 13 16  1  0
 16 17  1  0
M  END
