diamond-x0864_0_A-mac-x0213
     RDKit          3D

 21 23  0  0  0  0  0  0  0  0999 V2000
    1.4810   11.5810   -7.2470 O   0  0  0  0  0  0  0  0  0  0  0  0
    0.4980   11.1210   -6.7080 C   0  0  0  0  0  0  0  0  0  0  0  0
    0.0050   11.5850   -5.5130 N   0  0  0  0  0  0  0  0  0  0  0  0
   -0.2110    9.9880   -7.3230 C   0  0  0  0  0  0  0  0  0  0  0  0
    0.9150   12.4590   -4.7800 C   0  0  0  0  0  0  0  0  0  0  0  0
   -1.2170   11.1740   -5.0070 C   0  0  0  0  0  0  0  0  0  0  0  0
   -1.3480    9.5520   -6.7820 C   0  0  0  0  0  0  0  0  0  0  0  0
    0.6430   12.7050   -3.2880 C   0  0  0  0  0  0  0  0  0  0  0  0
   -2.2760    8.1160   -7.5230 Br  0  0  0  0  0  0  0  0  0  0  0  0
   -1.8960   10.1850   -5.6050 C   0  0  0  0  0  0  0  0  0  0  0  0
   -0.1710   11.6430   -2.7960 O   0  0  0  0  0  0  0  0  0  0  0  0
    1.8080   12.6210   -2.4890 O   0  0  0  0  0  0  0  0  0  0  0  0
    0.0130   14.0960   -3.1660 C   0  0  0  0  0  0  0  0  0  0  0  0
   -1.3290   14.2460   -3.9460 C   0  0  0  0  0  0  0  0  0  0  0  0
    0.9640   15.1760   -3.7290 C   0  0  0  0  0  0  0  0  0  0  0  0
   -1.2320   15.6160   -4.5490 C   0  0  0  0  0  0  0  0  0  0  0  0
    0.0560   16.1350   -4.4280 C   0  0  0  0  0  0  0  0  0  0  0  0
   -2.2370   16.3480   -5.1680 C   0  0  0  0  0  0  0  0  0  0  0  0
    0.3740   17.3870   -4.9170 C   0  0  0  0  0  0  0  0  0  0  0  0
   -1.9220   17.6140   -5.6670 C   0  0  0  0  0  0  0  0  0  0  0  0
   -0.6270   18.1300   -5.5430 C   0  0  0  0  0  0  0  0  0  0  0  0
  1  2  2  0
  2  3  1  0
  2  4  1  0
  3  5  1  0
  3  6  1  0
  4  7  2  0
  5  8  1  0
  7  9  1  0
  6 10  2  0
  7 10  1  0
  8 11  1  0
  8 12  1  0
  8 13  1  0
 13 14  1  0
 13 15  1  0
 14 16  1  0
 15 17  1  0
 16 17  2  0
 16 18  1  0
 17 19  1  0
 18 20  2  0
 19 21  2  0
 20 21  1  0
M  END
