diamond-x0950_1_A-diamond-x0591_0_A
     RDKit          3D

 21 21  0  0  0  0  0  0  0  0999 V2000
    1.4750   14.1750   -4.4610 C   0  0  0  0  0  0  0  0  0  0  0  0
    1.3900   12.6620   -4.5100 C   0  0  2  0  0  0  0  0  0  0  0  0
    0.3410   12.3720   -5.4170 O   0  0  0  0  0  0  0  0  0  0  0  0
    1.0750   12.1030   -3.1040 C   0  0  0  0  0  0  0  0  0  0  0  0
    0.4500   11.0670   -2.9100 O   0  0  0  0  0  0  0  0  0  0  0  0
    1.5430   12.8690   -2.0900 O   0  0  0  0  0  0  0  0  0  0  0  0
   -0.9180   12.4790   -4.7640 C   0  0  0  0  0  0  0  0  0  0  0  0
   -1.9580   13.1990   -5.5030 N   0  0  0  0  0  0  0  0  0  0  0  0
   -2.4140   14.6100   -5.1030 S   0  0  1  0  0  0  0  0  0  0  0  0
   -0.9680   15.3480   -4.7020 N   0  0  0  0  0  0  0  0  0  0  0  0
   -2.9600   15.5620   -6.0340 O   0  0  0  0  0  0  0  0  0  0  0  0
   -3.4640   14.6220   -3.6860 C   0  0  0  0  0  0  0  0  0  0  0  0
   -2.9780   14.4630   -2.3840 C   0  0  0  0  0  0  0  0  0  0  0  0
   -4.8200   14.8050   -3.9080 C   0  0  0  0  0  0  0  0  0  0  0  0
   -3.8850   14.4940   -1.3080 C   0  0  0  0  0  0  0  0  0  0  0  0
   -5.7110   14.8390   -2.8490 C   0  0  0  0  0  0  0  0  0  0  0  0
   -5.2560   14.6850   -1.5460 C   0  0  0  0  0  0  0  0  0  0  0  0
   -6.2260   14.7210   -0.4100 C   0  0  0  0  0  0  0  0  0  0  0  0
   -5.7490   14.5560    0.8580 N   0  0  0  0  0  0  0  0  0  0  0  0
   -7.4210   14.8920   -0.6520 O   0  0  0  0  0  0  0  0  0  0  0  0
   -6.6780   14.5100    1.9710 C   0  0  0  0  0  0  0  0  0  0  0  0
  2  1  1  1
  2  3  1  0
  2  4  1  0
  4  5  2  0
  4  6  1  0
  3  7  1  0
  7  8  1  0
  8  9  2  0
  9 10  1  1
  9 11  2  0
  9 12  1  0
 12 13  2  0
 12 14  1  0
 13 15  1  0
 14 16  2  0
 15 17  2  0
 16 17  1  0
 17 18  1  0
 18 19  1  0
 18 20  2  0
 19 21  1  0
M  END
