diamond-x0592_0_A-diamond-x0724_0_A
     RDKit          3D

 23 24  0  0  0  0  0  0  0  0999 V2000
   -3.9660   14.1790    1.1760 N   0  0  0  0  0  0  0  0  0  0  0  0
   -3.3450   15.0950    0.2560 C   0  0  1  0  0  0  0  0  0  0  0  0
   -2.3610   14.3190   -0.3990 O   0  0  0  0  0  0  0  0  0  0  0  0
   -4.3110   15.6350   -0.7580 C   0  0  0  0  0  0  0  0  0  0  0  0
   -5.6250   15.4170   -0.9680 C   0  0  0  0  0  0  0  0  0  0  0  0
   -2.8000   13.7030   -1.6100 C   0  0  1  0  0  0  0  0  0  0  0  0
   -6.5970   14.6370   -0.3760 N   0  0  0  0  0  0  0  0  0  0  0  0
   -1.8160   12.5940   -1.8710 C   0  0  0  0  0  0  0  0  0  0  0  0
   -4.1620   12.9310   -1.5500 C   0  0  2  0  0  0  0  0  0  0  0  0
   -7.1570   14.9430    0.8880 N   0  0  0  0  0  0  0  0  0  0  0  0
   -4.5500   12.4800   -0.1920 N   0  0  0  0  0  0  0  0  0  0  0  0
   -3.8950   11.6690   -2.4100 C   0  0  0  0  0  0  0  0  0  0  0  0
   -2.4120   11.4780   -2.3110 C   0  0  0  0  0  0  0  0  0  0  0  0
   -8.4710   14.3010    1.1440 C   0  0  2  0  0  0  0  0  0  0  0  0
   -6.1940   14.7500    1.9830 C   0  0  0  0  0  0  0  0  0  0  0  0
   -5.7910   12.6330    0.3870 C   0  0  0  0  0  0  0  0  0  0  0  0
   -9.0070   14.5410    2.5900 C   0  0  0  0  0  0  0  0  0  0  0  0
   -7.0390   12.6360   -0.1080 C   0  0  0  0  0  0  0  0  0  0  0  0
   -8.3590   12.8440    0.5720 C   0  0  1  0  0  0  0  0  0  0  0  0
   -8.5400   11.7830    1.5750 N   0  0  0  0  0  0  0  0  0  0  0  0
   -8.7410   13.4800    3.6700 C   0  0  0  0  0  0  0  0  0  0  0  0
   -8.1670   14.0090    4.9130 N   0  0  0  0  0  0  0  0  0  0  0  0
   -8.2840   15.4560    5.0310 C   0  0  0  0  0  0  0  0  0  0  0  0
  2  1  1  1
  2  3  1  0
  2  4  1  0
  4  5  2  0
  3  6  1  0
  5  7  1  0
  6  8  1  1
  6  9  1  0
  7 10  1  0
  9 11  1  0
  9 12  1  6
  8 13  2  0
 12 13  1  0
 10 14  1  0
 10 15  1  0
 11 16  1  0
 14 17  1  1
 16 18  2  0
 14 19  1  0
 18 19  1  0
 19 20  1  1
 17 21  1  0
 21 22  1  0
 22 23  1  0
M  END
