diamond-x0290_0_A-diamond-x0926_0_A
     RDKit          3D

 18 19  0  0  0  0  0  0  0  0999 V2000
   -7.8340   13.9450    1.1170 N   0  0  0  0  0  0  0  0  0  0  0  0
   -8.6730   15.0740    0.7680 C   0  0  0  0  0  0  0  0  0  0  0  0
   -6.6220   14.2450    1.9030 C   0  0  0  0  0  0  0  0  0  0  0  0
   -5.2160   14.0560    1.2180 C   0  0  2  0  0  0  0  0  0  0  0  0
   -3.9220   14.1330    1.9200 N   0  0  0  0  0  0  0  0  0  0  0  0
   -4.9270   14.6250   -0.0860 C   0  0  0  0  0  0  0  0  0  0  0  0
   -2.7060   14.2340    1.2010 C   0  0  0  0  0  0  0  0  0  0  0  0
   -3.6130   14.9160   -0.3330 C   0  0  0  0  0  0  0  0  0  0  0  0
   -5.8340   14.8730   -1.0780 C   0  0  0  0  0  0  0  0  0  0  0  0
   -1.6250   14.4250    1.9720 N   0  0  0  0  0  0  0  0  0  0  0  0
   -2.5580   14.1460   -0.1930 C   0  0  0  0  0  0  0  0  0  0  0  0
   -3.2710   15.3980   -1.5410 C   0  0  0  0  0  0  0  0  0  0  0  0
   -5.4620   15.3660   -2.2660 N   0  0  0  0  0  0  0  0  0  0  0  0
   -0.4160   14.5340    1.3790 C   0  0  0  0  0  0  0  0  0  0  0  0
   -1.2860   14.2670   -0.7960 C   0  0  0  0  0  0  0  0  0  0  0  0
   -4.1570   15.6230   -2.4990 N   0  0  0  0  0  0  0  0  0  0  0  0
   -1.1140   14.1850   -2.2860 C   0  0  0  0  0  0  0  0  0  0  0  0
   -0.1930   14.4660    0.0240 C   0  0  0  0  0  0  0  0  0  0  0  0
  1  2  1  0
  1  3  1  0
  4  3  1  1
  4  5  1  0
  4  6  1  0
  5  7  1  0
  6  8  2  0
  6  9  1  0
  7 10  2  0
  7 11  1  0
  8 12  1  0
  9 13  2  0
 10 14  1  0
 11 15  2  0
 12 16  2  0
 13 16  1  0
 15 17  1  0
 14 18  2  0
 15 18  1  0
M  END
