diamond-x0371_0_A-mac-x0404
     RDKit          3D

 34 38  0  0  0  0  0  0  0  0999 V2000
   -7.8540   14.6170    3.0390 N   0  0  0  0  0  0  0  0  0  0  0  0
   -8.6510   15.5360    3.6700 C   0  0  0  0  0  0  0  0  0  0  0  0
   -9.3810   16.3040    3.0450 O   0  0  0  0  0  0  0  0  0  0  0  0
   -8.1860   14.1730    1.7260 C   0  0  0  0  0  0  0  0  0  0  0  0
   -7.0500   14.4530    0.8140 C   0  0  0  0  0  0  0  0  0  0  0  0
   -8.5670   15.5180    5.1080 C   0  0  0  0  0  0  0  0  0  0  0  0
   -5.7410   14.4950    1.2420 N   0  0  0  0  0  0  0  0  0  0  0  0
   -7.1350   14.6850   -0.4730 N   0  0  0  0  0  0  0  0  0  0  0  0
   -8.0080   14.4380    5.7280 O   0  0  0  0  0  0  0  0  0  0  0  0
   -8.9670   16.4370    6.0510 C   0  0  0  0  0  0  0  0  0  0  0  0
   -5.8510   14.8720   -0.9020 C   0  0  0  0  0  0  0  0  0  0  0  0
   -4.9470   14.7630    0.1450 C   0  0  0  0  0  0  0  0  0  0  0  0
   -8.6330   15.8850    7.3150 C   0  0  0  0  0  0  0  0  0  0  0  0
   -8.0490   14.6710    7.0600 C   0  0  0  0  0  0  0  0  0  0  0  0
   -3.5720   14.9140   -0.0410 C   0  0  0  0  0  0  0  0  0  0  0  0
   -5.4060   15.1340   -2.1970 C   0  0  0  0  0  0  0  0  0  0  0  0
   -3.1410   15.1700   -1.3650 C   0  0  0  0  0  0  0  0  0  0  0  0
   -4.0430   15.2830   -2.4600 C   0  0  0  0  0  0  0  0  0  0  0  0
   -3.5900   15.5560   -3.9090 C   0  0  0  0  0  0  0  0  0  0  0  0
   -2.2000   15.2260   -4.2600 C   0  0  0  0  0  0  0  0  0  0  0  0
   -1.2630   16.1870   -4.7390 C   0  0  0  0  0  0  0  0  0  0  0  0
   -1.8620   13.8980   -4.0700 C   0  0  0  0  0  0  0  0  0  0  0  0
    0.0420   15.7440   -4.9700 C   0  0  0  0  0  0  0  0  0  0  0  0
   -0.5890   13.4770   -4.3140 C   0  0  0  0  0  0  0  0  0  0  0  0
   -1.5390   17.5550   -4.9930 C   0  0  0  0  0  0  0  0  0  0  0  0
    0.3530   14.3930   -4.7420 C   0  0  0  0  0  0  0  0  0  0  0  0
   -0.5640   18.4420   -5.4410 C   0  0  0  0  0  0  0  0  0  0  0  0
    1.0020   16.6490   -5.4150 C   0  0  0  0  0  0  0  0  0  0  0  0
    1.6240   13.9490   -4.9400 O   0  0  0  0  0  0  0  0  0  0  0  0
    0.7220   17.9860   -5.6510 C   0  0  0  0  0  0  0  0  0  0  0  0
    1.8140   12.6000   -4.5170 C   0  0  0  0  0  0  0  0  0  0  0  0
    1.1350   12.1700   -3.2090 C   0  0  0  0  0  0  0  0  0  0  0  0
    1.2760   13.0560   -2.2020 O   0  0  0  0  0  0  0  0  0  0  0  0
    0.5120   11.1400   -2.9980 O   0  0  0  0  0  0  0  0  0  0  0  0
  1  2  1  0
  2  3  2  0
  1  4  1  0
  4  5  1  0
  2  6  1  0
  5  7  1  0
  5  8  2  0
  6  9  1  0
  6 10  2  0
  8 11  1  0
  7 12  1  0
 11 12  2  0
 10 13  1  0
  9 14  1  0
 13 14  2  0
 12 15  1  0
 11 16  1  0
 15 17  2  0
 16 18  2  0
 17 18  1  0
 18 19  1  0
 19 20  1  0
 20 21  1  0
 20 22  2  0
 21 23  2  0
 22 24  1  0
 21 25  1  0
 23 26  1  0
 24 26  2  0
 25 27  2  0
 23 28  1  0
 26 29  1  0
 27 30  1  0
 28 30  2  0
 29 31  1  0
 31 32  1  0
 32 33  1  0
 32 34  2  0
M  END
