diamond-x0587_0_A-mac-x0396
     RDKit          3D

 14 14  0  0  0  0  0  0  0  0999 V2000
   -7.8890   14.9430    4.2750 N   0  0  0  0  0  0  0  0  0  0  0  0
   -8.4270   15.0130    2.9680 C   0  0  0  0  0  0  0  0  0  0  0  0
   -9.6300   15.2300    2.7670 O   0  0  0  0  0  0  0  0  0  0  0  0
   -7.4650   14.8240    1.8620 C   0  0  0  0  0  0  0  0  0  0  0  0
   -7.8640   14.5980    0.5870 C   0  0  0  0  0  0  0  0  0  0  0  0
   -6.1510   14.8880    2.1370 C   0  0  0  0  0  0  0  0  0  0  0  0
   -6.9300   14.4480   -0.3460 N   0  0  0  0  0  0  0  0  0  0  0  0
   -5.3040   14.7280    1.1440 N   0  0  0  0  0  0  0  0  0  0  0  0
   -5.6040   14.4990   -0.1470 C   0  0  0  0  0  0  0  0  0  0  0  0
   -4.3570   14.3000   -1.2750 S   0  0  0  0  0  0  0  0  0  0  0  0
   -3.7290   15.9890   -0.7720 F   0  0  0  0  0  0  0  0  0  0  0  0
   -2.5650   14.7470   -1.8100 F   0  0  0  0  0  0  0  0  0  0  0  0
   -5.2510   13.8150   -3.0140 F   0  0  0  0  0  0  0  0  0  0  0  0
   -3.4010   12.8450   -1.0570 N   0  0  0  0  0  0  0  0  0  0  0  0
  1  2  1  0
  2  3  2  0
  2  4  1  0
  4  5  2  0
  4  6  1  0
  5  7  1  0
  6  8  2  0
  7  9  2  0
  8  9  1  0
  9 10  1  0
 10 11  1  0
 10 12  1  0
 10 13  1  0
 10 14  1  0
M  END
