diamond-x0950_0_A-mac-x0387
     RDKit          3D

 18 19  0  0  0  0  0  0  0  0999 V2000
    3.0910   12.3120   -4.4100 C   0  0  0  0  0  0  0  0  0  0  0  0
    1.6040   12.5970   -4.4350 C   0  0  1  0  0  0  0  0  0  0  0  0
    1.0280   12.0060   -5.5990 O   0  0  0  0  0  0  0  0  0  0  0  0
    0.9460   12.0650   -3.1590 C   0  0  0  0  0  0  0  0  0  0  0  0
    0.6130   10.8960   -2.9920 O   0  0  0  0  0  0  0  0  0  0  0  0
    0.7930   13.0630   -2.2670 O   0  0  0  0  0  0  0  0  0  0  0  0
    0.3140   14.3010   -2.8140 C   0  0  0  0  0  0  0  0  0  0  0  0
   -1.0320   14.5940   -2.2030 C   0  0  0  0  0  0  0  0  0  0  0  0
   -1.2140   14.6110   -0.7980 C   0  0  0  0  0  0  0  0  0  0  0  0
   -2.1220   14.8580   -3.0580 C   0  0  0  0  0  0  0  0  0  0  0  0
   -2.4980   14.9030   -0.2770 C   0  0  0  0  0  0  0  0  0  0  0  0
   -0.1810   14.3570    0.1160 C   0  0  0  0  0  0  0  0  0  0  0  0
   -3.3790   15.1400   -2.5390 C   0  0  0  0  0  0  0  0  0  0  0  0
   -2.6540   14.9260    1.1140 C   0  0  0  0  0  0  0  0  0  0  0  0
   -0.4490   14.3940    1.4660 C   0  0  0  0  0  0  0  0  0  0  0  0
   -3.5650   15.1650   -1.1610 C   0  0  0  0  0  0  0  0  0  0  0  0
   -3.8920   15.2330    1.6900 N   0  0  0  0  0  0  0  0  0  0  0  0
   -1.6620   14.6710    1.9740 N   0  0  0  0  0  0  0  0  0  0  0  0
  2  1  1  1
  2  3  1  0
  2  4  1  0
  4  5  2  0
  4  6  1  0
  6  7  1  0
  7  8  1  0
  8  9  2  0
  8 10  1  0
  9 11  1  0
  9 12  1  0
 10 13  2  0
 11 14  1  0
 12 15  2  0
 11 16  2  0
 13 16  1  0
 14 17  1  0
 14 18  2  0
 15 18  1  0
M  END
