diamond-x0864_0_A-mac-x0137
     RDKit          3D

 28 31  0  0  0  0  0  0  0  0999 V2000
    1.2270   12.1690   -6.5870 O   0  0  0  0  0  0  0  0  0  0  0  0
    0.4460   11.2700   -6.3000 C   0  0  0  0  0  0  0  0  0  0  0  0
   -0.0540   10.9890   -5.0240 N   0  0  0  0  0  0  0  0  0  0  0  0
   -0.0400   10.3280   -7.3400 C   0  0  0  0  0  0  0  0  0  0  0  0
    0.4030   11.6190   -3.7790 C   0  0  1  0  0  0  0  0  0  0  0  0
   -1.3060   10.4260   -4.8830 C   0  0  0  0  0  0  0  0  0  0  0  0
   -1.1520    9.6050   -7.1030 C   0  0  0  0  0  0  0  0  0  0  0  0
    1.7010   12.3910   -3.7790 C   0  0  0  0  0  0  0  0  0  0  0  0
   -1.8490    8.3730   -8.3090 Br  0  0  0  0  0  0  0  0  0  0  0  0
   -1.8630    9.7540   -5.8680 C   0  0  0  0  0  0  0  0  0  0  0  0
   -0.6450   12.5730   -3.3760 C   0  0  1  0  0  0  0  0  0  0  0  0
    2.6780   11.8410   -3.0980 O   0  0  0  0  0  0  0  0  0  0  0  0
    1.9050   13.4610   -4.2820 O   0  0  0  0  0  0  0  0  0  0  0  0
    0.0610   13.8240   -2.8990 C   0  0  0  0  0  0  0  0  0  0  0  0
   -1.4900   12.8820   -4.6250 C   0  0  0  0  0  0  0  0  0  0  0  0
   -2.5030   13.9440   -4.3160 C   0  0  1  0  0  0  0  0  0  0  0  0
   -0.9770   14.6780   -2.4220 N   0  0  0  0  0  0  0  0  0  0  0  0
   -3.4830   13.3300   -3.5970 F   0  0  0  0  0  0  0  0  0  0  0  0
   -1.9080   15.1020   -3.5000 C   0  0  0  0  0  0  0  0  0  0  0  0
   -1.2760   14.6890   -1.0770 C   0  0  0  0  0  0  0  0  0  0  0  0
   -0.2760   14.4260   -0.1560 N   0  0  0  0  0  0  0  0  0  0  0  0
   -2.4780   14.9550   -0.5690 C   0  0  0  0  0  0  0  0  0  0  0  0
   -0.5210   14.4030    1.1860 C   0  0  0  0  0  0  0  0  0  0  0  0
   -2.6560   14.9590    0.8970 C   0  0  0  0  0  0  0  0  0  0  0  0
   -3.7730   15.2930   -1.0570 C   0  0  0  0  0  0  0  0  0  0  0  0
   -1.6460   14.6450    1.7520 N   0  0  0  0  0  0  0  0  0  0  0  0
   -3.8610   15.2970    1.2400 N   0  0  0  0  0  0  0  0  0  0  0  0
   -4.5160   15.4890    0.0340 C   0  0  0  0  0  0  0  0  0  0  0  0
  1  2  2  0
  2  3  1  0
  2  4  1  0
  3  5  1  0
  3  6  1  0
  4  7  2  0
  5  8  1  6
  7  9  1  0
  6 10  2  0
  7 10  1  0
  5 11  1  0
  8 12  1  0
  8 13  2  0
 11 14  1  6
 11 15  1  0
 15 16  1  0
 14 17  1  0
 16 18  1  1
 16 19  1  0
 17 19  1  0
 17 20  1  0
 20 21  1  0
 20 22  2  0
 21 23  1  0
 22 24  1  0
 22 25  1  0
 23 26  2  0
 24 26  1  0
 24 27  2  0
 25 28  2  0
 27 28  1  0
M  END
