diamond-x0895_1_A-mac-x0404
     RDKit          3D

 25 27  0  0  0  0  0  0  0  0999 V2000
   -1.6230   14.7060    1.6800 O   0  0  0  0  0  0  0  0  0  0  0  0
   -2.6770   14.5850    1.0620 C   0  0  0  0  0  0  0  0  0  0  0  0
   -2.8730   14.1130   -0.3790 C   0  0  2  0  0  0  0  0  0  0  0  0
   -3.9170   14.8440    1.5530 N   0  0  0  0  0  0  0  0  0  0  0  0
   -1.6830   14.3640   -1.3080 C   0  0  0  0  0  0  0  0  0  0  0  0
   -4.0500   14.9030   -0.6420 N   0  0  0  0  0  0  0  0  0  0  0  0
   -4.7880   14.9050    0.5160 C   0  0  0  0  0  0  0  0  0  0  0  0
   -6.0030   14.9370    0.5920 O   0  0  0  0  0  0  0  0  0  0  0  0
   -0.3100   14.4230   -0.6040 C   0  0  0  0  0  0  0  0  0  0  0  0
    0.8590   13.9590   -1.4780 C   0  0  0  0  0  0  0  0  0  0  0  0
    0.8200   12.5300   -1.5920 O   0  0  0  0  0  0  0  0  0  0  0  0
    0.7850   11.9510   -2.8440 C   0  0  0  0  0  0  0  0  0  0  0  0
    0.2370   10.8740   -3.0350 O   0  0  0  0  0  0  0  0  0  0  0  0
    1.5010   12.7170   -3.9700 C   0  0  0  0  0  0  0  0  0  0  0  0
    1.1790   14.1040   -4.0470 O   0  0  0  0  0  0  0  0  0  0  0  0
   -0.0780   14.4980   -4.4760 C   0  0  0  0  0  0  0  0  0  0  0  0
   -0.2090   15.8560   -4.8370 C   0  0  0  0  0  0  0  0  0  0  0  0
   -1.1800   13.6430   -4.5600 C   0  0  0  0  0  0  0  0  0  0  0  0
   -1.4610   16.3500   -5.2770 C   0  0  0  0  0  0  0  0  0  0  0  0
   -2.4150   14.1380   -4.9950 C   0  0  0  0  0  0  0  0  0  0  0  0
    0.8690   16.7480   -4.7770 C   0  0  0  0  0  0  0  0  0  0  0  0
   -2.5520   15.4780   -5.3470 C   0  0  0  0  0  0  0  0  0  0  0  0
   -1.5900   17.6960   -5.6390 C   0  0  0  0  0  0  0  0  0  0  0  0
    0.7330   18.0830   -5.1420 C   0  0  0  0  0  0  0  0  0  0  0  0
   -0.5000   18.5560   -5.5740 C   0  0  0  0  0  0  0  0  0  0  0  0
  1  2  2  0
  2  3  1  0
  2  4  1  0
  3  5  1  6
  3  6  1  0
  4  7  1  0
  6  7  1  0
  7  8  2  0
  5  9  1  0
  9 10  1  0
 10 11  1  0
 11 12  1  0
 12 13  2  0
 12 14  1  0
 14 15  1  0
 15 16  1  0
 16 17  1  0
 16 18  2  0
 17 19  2  0
 18 20  1  0
 17 21  1  0
 19 22  1  0
 20 22  2  0
 19 23  1  0
 21 24  2  0
 23 25  2  0
 24 25  1  0
M  END
