diamond-x0104_0_A-mac-x0587
     RDKit          3D

 31 33  0  0  0  0  0  0  0  0999 V2000
   -6.7970   14.5020    2.4510 N   0  0  0  0  0  0  0  0  0  0  0  0
   -7.9950   15.0310    2.9150 C   0  0  0  0  0  0  0  0  0  0  0  0
   -7.9370   14.9830    4.3050 N   0  0  0  0  0  0  0  0  0  0  0  0
   -6.1790   14.4090    1.1620 C   0  0  0  0  0  0  0  0  0  0  0  0
   -8.9200   15.4510    2.2270 O   0  0  0  0  0  0  0  0  0  0  0  0
   -4.8810   13.9200    1.0260 C   0  0  0  0  0  0  0  0  0  0  0  0
   -6.8100   14.7890   -0.0360 C   0  0  0  0  0  0  0  0  0  0  0  0
   -4.1960   13.7880   -0.1510 N   0  0  0  0  0  0  0  0  0  0  0  0
   -6.1270   14.6690   -1.2830 C   0  0  0  0  0  0  0  0  0  0  0  0
   -9.0290   15.0410    5.1690 C   0  0  0  0  0  0  0  0  0  0  0  0
   -4.8040   14.1600   -1.3010 C   0  0  0  0  0  0  0  0  0  0  0  0
   -9.1300   15.1870    6.5440 C   0  0  0  0  0  0  0  0  0  0  0  0
  -10.5620   14.9080    4.4280 S   0  0  0  0  0  0  0  0  0  0  0  0
   -4.0830   14.0260   -2.5240 O   0  0  0  0  0  0  0  0  0  0  0  0
  -11.3750   15.0410    5.9400 C   0  0  0  0  0  0  0  0  0  0  0  0
  -10.4860   15.1860    6.9880 C   0  0  0  0  0  0  0  0  0  0  0  0
   -3.0030   14.9590   -2.9120 C   0  0  1  0  0  0  0  0  0  0  0  0
   -1.5050   14.4610   -3.2710 C   0  0  2  0  0  0  0  0  0  0  0  0
   -3.3910   15.8780   -3.9350 O   0  0  0  0  0  0  0  0  0  0  0  0
   -2.9240   15.6920   -1.6730 N   0  0  0  0  0  0  0  0  0  0  0  0
   -0.5020   15.6240   -3.4460 C   0  0  0  0  0  0  0  0  0  0  0  0
   -1.1960   13.3200   -4.7350 S   0  0  0  0  0  0  0  0  0  0  0  0
   -4.1180   15.7440   -0.8500 C   0  0  0  0  0  0  0  0  0  0  0  0
   -1.8170   15.5160   -0.8370 C   0  0  0  0  0  0  0  0  0  0  0  0
   -0.9470   11.6660   -3.9940 C   0  0  0  0  0  0  0  0  0  0  0  0
   -0.6310   15.4830   -1.1210 O   0  0  0  0  0  0  0  0  0  0  0  0
   -3.6050   15.8730    0.5720 C   0  0  0  0  0  0  0  0  0  0  0  0
   -2.2740   15.3700    0.4600 N   0  0  0  0  0  0  0  0  0  0  0  0
    0.2970   11.5240   -3.1280 C   0  0  0  0  0  0  0  0  0  0  0  0
    0.6560   10.4480   -2.6940 O   0  0  0  0  0  0  0  0  0  0  0  0
    0.9850   12.6640   -2.8660 O   0  0  0  0  0  0  0  0  0  0  0  0
  1  2  1  0
  2  3  1  0
  1  4  1  0
  2  5  2  0
  4  6  2  0
  4  7  1  0
  6  8  1  0
  7  9  2  0
  3 10  1  0
  8 11  2  0
  9 11  1  0
 10 12  2  0
 10 13  1  0
 11 14  1  0
 13 15  1  0
 12 16  1  0
 15 16  2  0
 17 14  1  0
 17 18  1  0
 17 19  1  6
 17 20  1  0
 18 21  1  6
 18 22  1  0
 20 23  1  0
 20 24  1  0
 22 25  1  0
 24 26  2  0
 23 27  1  0
 24 28  1  0
 27 28  1  0
 25 29  1  0
 29 30  2  0
 29 31  1  0
M  END
