diamond-x0465_0_A-diamond-x0849_0_A
     RDKit          3D

 25 27  0  0  0  0  0  0  0  0999 V2000
    1.8690   13.3020   -5.2320 C   0  0  0  0  0  0  0  0  0  0  0  0
    0.6040   12.6030   -4.7810 C   0  0  1  0  0  0  0  0  0  0  0  0
    0.6110   11.3600   -5.4470 O   0  0  0  0  0  0  0  0  0  0  0  0
    0.7020   12.5360   -3.2690 C   0  0  0  0  0  0  0  0  0  0  0  0
    0.8540   13.6100   -2.5820 N   0  0  0  0  0  0  0  0  0  0  0  0
    0.6230   11.2710   -2.7830 O   0  0  0  0  0  0  0  0  0  0  0  0
   -0.5400   10.6850   -5.7050 C   0  0  0  0  0  0  0  0  0  0  0  0
    0.9640   13.5770   -1.1530 C   0  0  0  0  0  0  0  0  0  0  0  0
   -0.6980    9.6400   -6.6100 C   0  0  0  0  0  0  0  0  0  0  0  0
   -1.6560   11.1080   -4.9690 C   0  0  0  0  0  0  0  0  0  0  0  0
    0.3250    9.1860   -7.3480 F   0  0  0  0  0  0  0  0  0  0  0  0
   -1.9270    9.0190   -6.7860 C   0  0  0  0  0  0  0  0  0  0  0  0
   -2.8950   10.4900   -5.1420 C   0  0  0  0  0  0  0  0  0  0  0  0
   -0.2140   14.0390   -0.3700 C   0  0  0  0  0  0  0  0  0  0  0  0
   -3.0330    9.4440   -6.0500 C   0  0  0  0  0  0  0  0  0  0  0  0
   -0.2510   14.0960    1.0190 C   0  0  0  0  0  0  0  0  0  0  0  0
   -1.3480   14.4180   -1.0240 C   0  0  0  0  0  0  0  0  0  0  0  0
   -2.4660   14.8180   -0.3030 C   0  0  0  0  0  0  0  0  0  0  0  0
   -1.3030   14.4850    1.7390 N   0  0  0  0  0  0  0  0  0  0  0  0
   -2.3900   14.8310    1.0900 C   0  0  0  0  0  0  0  0  0  0  0  0
   -3.6660   15.2020   -0.8980 C   0  0  0  0  0  0  0  0  0  0  0  0
   -3.8600   15.2080   -2.7850 Br  0  0  0  0  0  0  0  0  0  0  0  0
   -3.4110   15.1850    1.8220 N   0  0  0  0  0  0  0  0  0  0  0  0
   -4.7400   15.5780   -0.1250 C   0  0  0  0  0  0  0  0  0  0  0  0
   -4.5500   15.5440    1.2360 C   0  0  0  0  0  0  0  0  0  0  0  0
  2  1  1  6
  2  3  1  0
  2  4  1  0
  4  5  2  3
  4  6  1  0
  3  7  1  0
  5  8  1  0
  7  9  2  0
  7 10  1  0
  9 11  1  0
  9 12  1  0
 10 13  2  0
  8 14  1  0
 12 15  2  0
 13 15  1  0
 14 16  2  0
 14 17  1  0
 17 18  2  0
 16 19  1  0
 18 20  1  0
 19 20  2  0
 18 21  1  0
 21 22  1  0
 20 23  1  0
 21 24  2  0
 23 25  2  0
 24 25  1  0
M  END
