diamond-x0128_0_A-diamond-x0591_0_A
     RDKit          3D

 29 31  0  0  0  0  0  0  0  0999 V2000
   -6.5830   14.3910    1.9760 N   0  0  0  0  0  0  0  0  0  0  0  0
   -7.6650   15.0460    2.7150 C   0  0  0  0  0  0  0  0  0  0  0  0
   -8.6890   15.4060    2.1310 O   0  0  0  0  0  0  0  0  0  0  0  0
   -6.9690   13.4460    0.9830 N   0  0  0  0  0  0  0  0  0  0  0  0
   -5.6800   14.9010    1.0630 C   0  0  0  0  0  0  0  0  0  0  0  0
   -7.4960   15.2530    4.1010 N   0  0  0  0  0  0  0  0  0  0  0  0
   -6.9580   13.8420   -0.4030 C   0  0  0  0  0  0  0  0  0  0  0  0
   -6.2660   15.2890   -0.1390 C   0  0  0  0  0  0  0  0  0  0  0  0
   -4.3130   15.0080    1.2320 C   0  0  0  0  0  0  0  0  0  0  0  0
   -8.0530   14.1190   -0.8870 O   0  0  0  0  0  0  0  0  0  0  0  0
   -5.5140   15.7730   -1.1720 C   0  0  0  0  0  0  0  0  0  0  0  0
   -3.5500   15.4900    0.1860 C   0  0  0  0  0  0  0  0  0  0  0  0
   -8.3140   15.9680    5.0500 C   0  0  0  0  0  0  0  0  0  0  0  0
   -5.7730   13.9750   -1.3970 C   0  0  0  0  0  0  0  0  0  0  0  0
   -4.1520   15.8680   -1.0140 C   0  0  0  0  0  0  0  0  0  0  0  0
   -9.0290   17.1130    4.6650 C   0  0  0  0  0  0  0  0  0  0  0  0
   -8.4610   15.5980    6.3940 C   0  0  0  0  0  0  0  0  0  0  0  0
   -4.4330   13.5740   -1.1310 C   0  0  0  0  0  0  0  0  0  0  0  0
   -6.0400   14.5320   -2.6710 C   0  0  0  0  0  0  0  0  0  0  0  0
   -9.8230   17.8570    5.4790 N   0  0  0  0  0  0  0  0  0  0  0  0
   -9.2740   16.3480    7.2550 C   0  0  0  0  0  0  0  0  0  0  0  0
   -3.4160   13.7310   -2.1280 C   0  0  0  0  0  0  0  0  0  0  0  0
   -5.0370   14.6780   -3.6460 C   0  0  0  0  0  0  0  0  0  0  0  0
   -9.9290   17.4600    6.7580 C   0  0  0  0  0  0  0  0  0  0  0  0
   -3.7320   14.2830   -3.3890 C   0  0  0  0  0  0  0  0  0  0  0  0
   -2.5190   14.4850   -4.7040 S   0  0  0  0  0  0  0  0  0  0  0  0
   -1.3060   15.4650   -4.0710 N   0  0  0  0  0  0  0  0  0  0  0  0
   -1.8770   13.2090   -4.9160 O   0  0  0  0  0  0  0  0  0  0  0  0
   -3.1340   15.2090   -5.7940 O   0  0  0  0  0  0  0  0  0  0  0  0
  1  2  1  0
  2  3  2  0
  1  4  1  0
  1  5  1  0
  2  6  1  0
  4  7  1  0
  5  8  2  0
  5  9  1  0
  7 10  2  0
  8 11  1  0
  9 12  2  0
  6 13  1  0
  7 14  1  0
 11 15  2  0
 12 15  1  0
 13 16  2  0
 13 17  1  0
 14 18  2  0
 14 19  1  0
 16 20  1  0
 17 21  2  0
 18 22  1  0
 19 23  2  0
 20 24  2  0
 21 24  1  0
 22 25  2  0
 23 25  1  0
 25 26  1  0
 26 27  1  0
 26 28  2  0
 26 29  2  0
M  END
