diamond-x0711_0_A-mac-x0138
     RDKit          3D

 21 22  0  0  0  0  0  0  0  0999 V2000
   -2.5120   13.9070   -2.4880 N   0  0  0  0  0  0  0  0  0  0  0  0
   -1.4910   14.3200   -3.7710 S   0  0  0  0  0  0  0  0  0  0  0  0
   -2.0200   13.2230   -5.0710 C   0  0  0  0  0  0  0  0  0  0  0  0
   -3.4400   14.9100   -1.9190 C   0  0  1  0  0  0  0  0  0  0  0  0
   -1.7510   15.6870   -4.1680 O   0  0  0  0  0  0  0  0  0  0  0  0
   -0.1680   13.8980   -3.3640 O   0  0  0  0  0  0  0  0  0  0  0  0
   -4.8450   14.5680   -2.3750 C   0  0  0  0  0  0  0  0  0  0  0  0
   -3.2890   15.0920   -0.3430 C   0  0  1  0  0  0  0  0  0  0  0  0
   -5.8770   14.3710   -1.5370 C   0  0  0  0  0  0  0  0  0  0  0  0
   -4.6650   15.5680    0.2270 C   0  0  0  0  0  0  0  0  0  0  0  0
   -2.8510   13.8850    0.4460 C   0  0  1  0  0  0  0  0  0  0  0  0
   -2.1030   15.9880   -0.0210 C   0  0  0  0  0  0  0  0  0  0  0  0
   -3.8820   12.8890    0.6040 N   0  0  0  0  0  0  0  0  0  0  0  0
   -5.7140   14.4760   -0.0500 C   0  0  1  0  0  0  0  0  0  0  0  0
   -1.6570   13.3070   -0.1020 N   0  0  0  0  0  0  0  0  0  0  0  0
   -0.7450   15.4880   -0.2870 N   0  0  0  0  0  0  0  0  0  0  0  0
   -7.0430   14.6770    0.7020 C   0  0  0  0  0  0  0  0  0  0  0  0
   -0.5020   14.1330    0.0290 C   0  0  1  0  0  0  0  0  0  0  0  0
   -6.9550   14.6920    2.0730 N   0  0  0  0  0  0  0  0  0  0  0  0
   -8.1390   14.8140    0.1680 O   0  0  0  0  0  0  0  0  0  0  0  0
   -0.2500   14.1770    1.4260 N   0  0  0  0  0  0  0  0  0  0  0  0
  2  1  1  0
  2  3  1  0
  4  1  1  1
  2  5  2  0
  2  6  2  0
  4  7  1  0
  4  8  1  0
  7  9  2  0
  8 10  1  1
  8 11  1  0
  8 12  1  0
 11 13  1  6
  9 14  1  0
 10 14  1  0
 11 15  1  0
 12 16  1  0
 14 17  1  1
 15 18  1  0
 16 18  1  0
 17 19  1  0
 17 20  2  0
 18 21  1  1
M  END
