diamond-x0628_0_A-mac-x0282
     RDKit          3D

 22 24  0  0  0  0  0  0  0  0999 V2000
   -0.8090    9.1110   -7.3480 C   0  0  0  0  0  0  0  0  0  0  0  0
   -0.8070   10.2700   -6.4360 C   0  0  0  0  0  0  0  0  0  0  0  0
   -1.8350   10.5230   -5.5720 N   0  0  0  0  0  0  0  0  0  0  0  0
    0.1960   11.1520   -6.3890 N   0  0  0  0  0  0  0  0  0  0  0  0
   -0.2270   12.0030   -5.4320 N   0  0  0  0  0  0  0  0  0  0  0  0
   -1.4520   11.6200   -4.9460 C   0  0  0  0  0  0  0  0  0  0  0  0
   -2.2090   12.3290   -3.8890 C   0  0  0  0  0  0  0  0  0  0  0  0
    0.6140   13.1380   -5.0700 C   0  0  0  0  0  0  0  0  0  0  0  0
    1.5380   12.9120   -3.8660 C   0  0  0  0  0  0  0  0  0  0  0  0
    0.8820   12.0630   -2.7950 C   0  0  0  0  0  0  0  0  0  0  0  0
    0.3170   11.0050   -3.0150 O   0  0  0  0  0  0  0  0  0  0  0  0
    1.0020   12.5880   -1.5270 O   0  0  0  0  0  0  0  0  0  0  0  0
    0.9710   14.0150   -1.3250 C   0  0  0  0  0  0  0  0  0  0  0  0
   -0.2740   14.3390   -0.5510 C   0  0  0  0  0  0  0  0  0  0  0  0
   -1.4180   14.6280   -1.2810 C   0  0  0  0  0  0  0  0  0  0  0  0
   -0.3610   14.3590    0.8530 C   0  0  0  0  0  0  0  0  0  0  0  0
   -2.5830   14.9160   -0.5790 C   0  0  0  0  0  0  0  0  0  0  0  0
   -1.4680   14.6300    1.5890 N   0  0  0  0  0  0  0  0  0  0  0  0
   -3.9040   15.2490   -0.9480 C   0  0  0  0  0  0  0  0  0  0  0  0
   -2.5290   14.8960    0.8100 C   0  0  0  0  0  0  0  0  0  0  0  0
   -4.6170   15.4180    0.2080 C   0  0  0  0  0  0  0  0  0  0  0  0
   -3.7760   15.2010    1.2680 N   0  0  0  0  0  0  0  0  0  0  0  0
  1  2  1  0
  2  3  1  0
  2  4  2  0
  4  5  1  0
  3  6  2  0
  5  6  1  0
  6  7  1  0
  5  8  1  0
  8  9  1  0
  9 10  1  0
 10 11  2  0
 10 12  1  0
 12 13  1  0
 13 14  1  0
 14 15  2  0
 14 16  1  0
 15 17  1  0
 16 18  2  0
 17 19  1  0
 17 20  2  0
 18 20  1  0
 19 21  2  0
 20 22  1  0
 21 22  1  0
M  END
