diamond-x0681_0_A-mac-x0161
     RDKit          3D

 29 33  0  0  0  0  0  0  0  0999 V2000
   -4.9930   13.2680   -4.6900 N   0  0  0  0  0  0  0  0  0  0  0  0
   -4.5330   13.6910   -3.4360 C   0  0  0  0  0  0  0  0  0  0  0  0
   -3.1990   13.7020   -3.0940 C   0  0  0  0  0  0  0  0  0  0  0  0
   -5.7060   14.1060   -2.4880 C   0  0  1  0  0  0  0  0  0  0  0  0
   -6.1510   12.9530   -1.5960 C   0  0  0  0  0  0  0  0  0  0  0  0
   -5.5100   15.4290   -1.6890 C   0  0  0  0  0  0  0  0  0  0  0  0
   -2.6770   14.1530   -1.7390 C   0  0  2  0  0  0  0  0  0  0  0  0
   -2.2050   13.2090   -4.0300 C   0  0  0  0  0  0  0  0  0  0  0  0
   -6.4530   13.1120   -0.2670 N   0  0  0  0  0  0  0  0  0  0  0  0
   -5.2570   15.1810   -0.1950 C   0  0  0  0  0  0  0  0  0  0  0  0
   -6.3080   11.6890   -1.9420 N   0  0  0  0  0  0  0  0  0  0  0  0
   -3.0200   15.5060   -1.3410 N   0  0  0  0  0  0  0  0  0  0  0  0
   -1.2260   14.0730   -1.7310 N   0  0  0  0  0  0  0  0  0  0  0  0
   -2.1500   11.9550   -4.6240 C   0  0  0  0  0  0  0  0  0  0  0  0
   -1.1000   13.9030   -4.4840 O   0  0  0  0  0  0  0  0  0  0  0  0
   -6.3810   14.3700    0.4170 C   0  0  0  0  0  0  0  0  0  0  0  0
   -6.8120   11.9060    0.2520 C   0  0  0  0  0  0  0  0  0  0  0  0
   -6.7150   11.0380   -0.8040 C   0  0  0  0  0  0  0  0  0  0  0  0
   -2.5120   15.7050   -0.0150 C   0  0  1  0  0  0  0  0  0  0  0  0
   -0.9530   13.8080   -0.3660 C   0  0  2  0  0  0  0  0  0  0  0  0
   -0.3470   13.1110   -5.3450 N   0  0  0  0  0  0  0  0  0  0  0  0
   -0.9990   11.9540   -5.4090 C   0  0  0  0  0  0  0  0  0  0  0  0
   -3.5170   16.3340    0.8200 N   0  0  0  0  0  0  0  0  0  0  0  0
   -0.5710   10.9100   -6.1520 O   0  0  0  0  0  0  0  0  0  0  0  0
   -2.0790   14.3440    0.5140 C   0  0  1  0  0  0  0  0  0  0  0  0
    0.1510   14.5090    0.1890 N   0  0  0  0  0  0  0  0  0  0  0  0
   -0.8600    9.6350   -5.5820 C   0  0  0  0  0  0  0  0  0  0  0  0
   -1.4920   14.2580    1.8440 N   0  0  0  0  0  0  0  0  0  0  0  0
   -0.0720   14.1100    1.5680 C   0  0  0  0  0  0  0  0  0  0  0  0
  1  2  1  0
  2  3  2  3
  4  2  1  1
  4  5  1  0
  4  6  1  0
  7  3  1  6
  3  8  1  0
  5  9  1  0
  6 10  1  0
  5 11  2  0
  7 12  1  0
  7 13  1  0
  8 14  2  0
  8 15  1  0
  9 16  1  0
 10 16  1  0
  9 17  1  0
 11 18  1  0
 17 18  2  0
 12 19  1  0
 20 13  1  6
 15 21  1  0
 14 22  1  0
 21 22  2  0
 19 23  1  1
 22 24  1  0
 19 25  1  0
 20 25  1  0
 20 26  1  0
 24 27  1  0
 25 28  1  1
 26 29  1  0
 28 29  1  0
M  END
