diamond-x0471_0_A-mac-x0282
     RDKit          3D

 21 23  0  0  0  0  0  0  0  0999 V2000
   -8.5210   14.0950    2.9330 N   0  0  0  0  0  0  0  0  0  0  0  0
   -9.0800   15.1150    3.6650 C   0  0  0  0  0  0  0  0  0  0  0  0
   -9.4380   16.1630    3.1400 O   0  0  0  0  0  0  0  0  0  0  0  0
   -8.5730   14.1160    1.4890 C   0  0  0  0  0  0  0  0  0  0  0  0
   -9.2490   14.8460    5.1610 C   0  0  0  0  0  0  0  0  0  0  0  0
   -7.2390   14.5290    0.9500 C   0  0  0  0  0  0  0  0  0  0  0  0
   -9.6210   13.3910    5.4370 C   0  0  0  0  0  0  0  0  0  0  0  0
   -8.0150   15.2660    5.9490 C   0  0  0  0  0  0  0  0  0  0  0  0
   -6.9680   14.5320   -0.4040 N   0  0  0  0  0  0  0  0  0  0  0  0
   -6.1720   14.9330    1.6430 N   0  0  0  0  0  0  0  0  0  0  0  0
   -5.2000   15.2130    0.7110 C   0  0  0  0  0  0  0  0  0  0  0  0
   -5.6820   14.9580   -0.5460 C   0  0  0  0  0  0  0  0  0  0  0  0
   -4.9930   15.0990   -1.7490 C   0  0  0  0  0  0  0  0  0  0  0  0
   -3.7990   15.7240    0.9220 C   0  0  0  0  0  0  0  0  0  0  0  0
   -3.6570   15.1790   -1.6100 C   0  0  0  0  0  0  0  0  0  0  0  0
   -2.9030   15.1570   -0.2500 C   0  0  1  0  0  0  0  0  0  0  0  0
   -1.5140   15.7320   -0.5490 C   0  0  0  0  0  0  0  0  0  0  0  0
   -2.5610   13.7710    0.3230 C   0  0  0  0  0  0  0  0  0  0  0  0
   -0.3870   15.3120    0.0570 C   0  0  0  0  0  0  0  0  0  0  0  0
   -1.7170   13.9630    1.5210 N   0  0  0  0  0  0  0  0  0  0  0  0
   -0.3660   14.2650    1.1040 C   0  0  0  0  0  0  0  0  0  0  0  0
  1  2  1  0
  2  3  2  0
  1  4  1  0
  2  5  1  0
  4  6  1  0
  5  7  1  0
  5  8  1  0
  6  9  1  0
  6 10  2  0
 10 11  1  0
  9 12  1  0
 11 12  2  0
 12 13  1  0
 11 14  1  0
 13 15  2  0
 16 14  1  1
 16 15  1  0
 16 17  1  0
 16 18  1  0
 17 19  2  0
 18 20  1  0
 19 21  1  0
 20 21  1  0
M  END
