diamond-x0905_0_A-mac-x0306
     RDKit          3D

 11 12  0  0  0  0  0  0  0  0999 V2000
   -7.0820   15.3600   -1.3360 O   0  0  0  0  0  0  0  0  0  0  0  0
   -5.8020   15.5480   -0.7190 C   0  0  1  0  0  0  0  0  0  0  0  0
   -5.6940   14.5280    0.4800 C   0  0  0  0  0  0  0  0  0  0  0  0
   -4.7440   15.3950   -1.7660 C   0  0  0  0  0  0  0  0  0  0  0  0
   -4.2500   14.1680    0.7340 C   0  0  0  0  0  0  0  0  0  0  0  0
   -3.5670   14.8380   -1.4940 C   0  0  0  0  0  0  0  0  0  0  0  0
   -6.2330   15.0820    1.7650 N   0  0  0  0  0  0  0  0  0  0  0  0
   -6.6270   13.4320    0.0610 N   0  0  0  0  0  0  0  0  0  0  0  0
   -3.2770   14.3290   -0.1790 C   0  0  0  0  0  0  0  0  0  0  0  0
   -7.5670   13.4470    0.9480 C   0  0  0  0  0  0  0  0  0  0  0  0
   -7.3210   14.4410    1.9820 C   0  0  0  0  0  0  0  0  0  0  0  0
  2  1  1  6
  2  3  1  0
  2  4  1  0
  3  5  1  0
  4  6  2  0
  3  7  1  0
  3  8  1  0
  5  9  2  0
  6  9  1  0
  8 10  2  0
  7 11  2  0
 10 11  1  0
M  END
