diamond-x0926_0_A-mac-x0527
     RDKit          3D

 17 18  0  0  0  0  0  0  0  0999 V2000
   -6.7710   15.0240   -0.3610 O   0  0  0  0  0  0  0  0  0  0  0  0
   -5.5480   15.1580   -0.2890 C   0  0  0  0  0  0  0  0  0  0  0  0
   -4.7940   15.0440    1.0280 C   0  0  0  0  0  0  0  0  0  0  0  0
   -4.8260   15.4080   -1.4120 N   0  0  0  0  0  0  0  0  0  0  0  0
   -3.4680   15.0730   -1.5000 N   0  0  0  0  0  0  0  0  0  0  0  0
   -3.3220   14.9040    0.8610 C   0  0  0  0  0  0  0  0  0  0  0  0
   -2.9230   14.9640   -2.7920 C   0  0  0  0  0  0  0  0  0  0  0  0
   -2.7410   14.9200   -0.3410 C   0  0  0  0  0  0  0  0  0  0  0  0
   -3.5970   15.0920   -3.8070 O   0  0  0  0  0  0  0  0  0  0  0  0
   -1.5660   14.7030   -2.8310 N   0  0  0  0  0  0  0  0  0  0  0  0
   -0.8650   14.8320   -4.0960 C   0  0  0  0  0  0  0  0  0  0  0  0
   -0.8270   13.5160   -4.8360 C   0  0  0  0  0  0  0  0  0  0  0  0
   -1.9870   12.7570   -4.9920 C   0  0  0  0  0  0  0  0  0  0  0  0
    0.3680   13.0290   -5.3780 C   0  0  0  0  0  0  0  0  0  0  0  0
   -1.9620   11.5300   -5.6590 C   0  0  0  0  0  0  0  0  0  0  0  0
    0.3930   11.8060   -6.0500 C   0  0  0  0  0  0  0  0  0  0  0  0
   -0.7710   11.0550   -6.1860 C   0  0  0  0  0  0  0  0  0  0  0  0
  1  2  2  0
  2  3  1  0
  2  4  1  0
  4  5  1  0
  3  6  1  0
  5  7  1  0
  5  8  1  0
  6  8  2  0
  7  9  2  0
  7 10  1  0
 10 11  1  0
 11 12  1  0
 12 13  2  0
 12 14  1  0
 13 15  1  0
 14 16  2  0
 15 17  2  0
 16 17  1  0
M  END
