diamond-x0962_3_A-mac-x0193
     RDKit          3D

 19 20  0  0  0  0  0  0  0  0999 V2000
    1.1720   11.4190   -7.3940 N   0  0  0  0  0  0  0  0  0  0  0  0
    0.4650   10.7210   -8.4470 C   0  0  2  0  0  0  0  0  0  0  0  0
   -0.4490    9.7560   -7.8220 C   0  0  0  0  0  0  0  0  0  0  0  0
    0.4220   11.9810   -6.5470 C   0  0  0  0  0  0  0  0  0  0  0  0
    0.4850   12.7370   -5.4170 N   0  0  0  0  0  0  0  0  0  0  0  0
    1.2060   10.0780   -9.6050 C   0  0  0  0  0  0  0  0  0  0  0  0
    1.5980   12.7990   -4.5000 C   0  0  0  0  0  0  0  0  0  0  0  0
   -0.4560    8.4620   -8.2690 N   0  0  0  0  0  0  0  0  0  0  0  0
   -1.3880    9.7880   -6.8260 C   0  0  0  0  0  0  0  0  0  0  0  0
    1.6680    8.6550   -9.2440 C   0  0  0  0  0  0  0  0  0  0  0  0
    0.2610    9.9300  -10.8060 C   0  0  0  0  0  0  0  0  0  0  0  0
    1.1990   12.1910   -3.1600 C   0  0  0  0  0  0  0  0  0  0  0  0
   -1.3720    7.7790   -7.5460 C   0  0  0  0  0  0  0  0  0  0  0  0
   -1.9560    8.5550   -6.6650 N   0  0  0  0  0  0  0  0  0  0  0  0
    2.4510    8.0380  -10.3860 C   0  0  0  0  0  0  0  0  0  0  0  0
    0.9130    9.2350  -12.0020 C   0  0  0  0  0  0  0  0  0  0  0  0
    0.5250   11.0210   -3.2500 O   0  0  0  0  0  0  0  0  0  0  0  0
    1.4590   12.7170   -2.0960 O   0  0  0  0  0  0  0  0  0  0  0  0
    1.5850    7.9160  -11.6340 C   0  0  0  0  0  0  0  0  0  0  0  0
  2  1  1  1
  2  3  1  0
  1  4  2  3
  4  5  1  0
  2  6  1  0
  5  7  1  0
  3  8  1  0
  3  9  2  0
  6 10  1  0
  6 11  1  0
  7 12  1  0
  8 13  1  0
  9 14  1  0
 13 14  2  0
 10 15  1  0
 11 16  1  0
 12 17  1  0
 12 18  2  0
 15 19  1  0
 16 19  1  0
M  END
