diamond-x0905_0_A-diamond-x0290_0_A
     RDKit          3D

 19 20  0  0  0  0  0  0  0  0999 V2000
   -4.2850   14.5900    0.4710 N   0  0  0  0  0  0  0  0  0  0  0  0
   -4.5680   14.1770    1.5830 C   0  0  0  0  0  0  0  0  0  0  0  0
   -6.0200   13.9770    2.1260 C   0  0  0  0  0  0  0  0  0  0  0  0
   -5.0260   14.8980   -0.4790 C   0  0  0  0  0  0  0  0  0  0  0  0
   -3.4360   13.9130    2.2100 N   0  0  0  0  0  0  0  0  0  0  0  0
   -6.2790   15.0660   -0.2100 N   0  0  0  0  0  0  0  0  0  0  0  0
   -4.3170   14.9710   -1.6340 C   0  0  0  0  0  0  0  0  0  0  0  0
   -7.0570   13.7840    1.0780 N   0  0  0  0  0  0  0  0  0  0  0  0
   -6.9120   15.3450   -1.2940 C   0  0  0  0  0  0  0  0  0  0  0  0
   -4.9810   15.2470   -2.7140 C   0  0  0  0  0  0  0  0  0  0  0  0
   -2.3450   14.1840    1.3410 C   0  0  0  0  0  0  0  0  0  0  0  0
   -8.2480   14.6090    1.2980 C   0  0  0  0  0  0  0  0  0  0  0  0
   -6.3120   15.4320   -2.5300 C   0  0  0  0  0  0  0  0  0  0  0  0
   -1.2090   14.5310    1.9230 N   0  0  0  0  0  0  0  0  0  0  0  0
   -2.4260   14.1040   -0.0620 C   0  0  0  0  0  0  0  0  0  0  0  0
   -0.1520   14.8120    1.1470 C   0  0  0  0  0  0  0  0  0  0  0  0
   -1.3090   14.4010   -0.8590 C   0  0  0  0  0  0  0  0  0  0  0  0
   -1.3590   14.3330   -2.3570 C   0  0  0  0  0  0  0  0  0  0  0  0
   -0.1420   14.7650   -0.2230 C   0  0  0  0  0  0  0  0  0  0  0  0
  1  2  2  3
  2  3  1  0
  1  4  1  0
  2  5  1  0
  4  6  2  0
  4  7  1  0
  3  8  1  0
  6  9  1  0
  7 10  2  0
  5 11  1  0
  8 12  1  0
  9 13  2  0
 10 13  1  0
 11 14  2  0
 11 15  1  0
 14 16  1  0
 15 17  2  0
 17 18  1  0
 16 19  2  0
 17 19  1  0
M  END
