diamond-x0926_0_A-mac-x0182
     RDKit          3D

 22 24  0  0  0  0  0  0  0  0999 V2000
   -6.7810   15.0960   -0.5640 O   0  0  0  0  0  0  0  0  0  0  0  0
   -5.5560   15.0520   -0.4140 C   0  0  0  0  0  0  0  0  0  0  0  0
   -4.9280   14.8620    0.9580 C   0  0  0  0  0  0  0  0  0  0  0  0
   -4.7040   15.1560   -1.4930 N   0  0  0  0  0  0  0  0  0  0  0  0
   -3.2980   15.2830   -1.3340 N   0  0  0  0  0  0  0  0  0  0  0  0
   -3.5310   15.3570    1.0430 C   0  0  0  0  0  0  0  0  0  0  0  0
   -2.5140   14.4060   -2.2200 C   0  0  0  0  0  0  0  0  0  0  0  0
   -2.8160   15.5390   -0.0660 C   0  0  0  0  0  0  0  0  0  0  0  0
   -2.2270   13.0000   -1.6790 C   0  0  0  0  0  0  0  0  0  0  0  0
   -2.5790   11.8720   -2.6490 C   0  0  0  0  0  0  0  0  0  0  0  0
   -1.8570   12.0750   -3.9200 N   0  0  0  0  0  0  0  0  0  0  0  0
   -0.7070   11.1250   -4.2360 S   0  0  2  0  0  0  0  0  0  0  0  0
    0.0630   10.3580   -3.2930 O   0  0  0  0  0  0  0  0  0  0  0  0
    0.4040   12.0980   -5.0410 N   0  0  0  0  0  0  0  0  0  0  0  0
   -1.1010   10.1640   -5.6280 C   0  0  0  0  0  0  0  0  0  0  0  0
    0.7290   11.5620   -6.2610 C   0  0  0  0  0  0  0  0  0  0  0  0
   -0.2360   10.5100   -6.6600 C   0  0  0  0  0  0  0  0  0  0  0  0
   -2.0860    9.2070   -5.7530 C   0  0  0  0  0  0  0  0  0  0  0  0
    1.6940   11.8820   -6.9170 O   0  0  0  0  0  0  0  0  0  0  0  0
   -2.1950    8.5710   -6.9970 C   0  0  0  0  0  0  0  0  0  0  0  0
   -0.3360    9.8830   -7.8940 C   0  0  0  0  0  0  0  0  0  0  0  0
   -1.3270    8.9080   -8.0570 C   0  0  0  0  0  0  0  0  0  0  0  0
  1  2  2  0
  2  3  1  0
  2  4  1  0
  4  5  1  0
  3  6  1  0
  5  7  1  0
  5  8  1  0
  6  8  2  0
  7  9  1  0
  9 10  1  0
 10 11  1  0
 11 12  2  0
 12 13  2  0
 12 14  1  6
 12 15  1  0
 14 16  1  0
 15 17  2  0
 16 17  1  0
 15 18  1  0
 16 19  2  0
 18 20  2  0
 17 21  1  0
 20 22  1  0
 21 22  2  0
M  END
