diamond-x0900_1_A-mac-x0375
     RDKit          3D

 11 11  0  0  0  0  0  0  0  0999 V2000
   -1.1510    9.4130   -9.8530 O   0  0  0  0  0  0  0  0  0  0  0  0
   -0.9680    9.3850   -8.6530 C   0  0  0  0  0  0  0  0  0  0  0  0
    0.0800    9.9350   -7.9830 N   0  0  0  0  0  0  0  0  0  0  0  0
   -1.8500    8.7510   -7.5910 C   0  0  0  0  0  0  0  0  0  0  0  0
   -1.1520    9.1900   -6.2980 C   0  0  0  0  0  0  0  0  0  0  0  0
   -0.4600   10.4550   -6.7900 C   0  0  1  0  0  0  0  0  0  0  0  0
    0.5710   10.9830   -5.9660 O   0  0  0  0  0  0  0  0  0  0  0  0
    0.2870   12.0750   -5.0960 C   0  0  0  0  0  0  0  0  0  0  0  0
    0.7020   11.9450   -3.6190 C   0  0  0  0  0  0  0  0  0  0  0  0
    1.1750   13.0900   -3.0780 O   0  0  0  0  0  0  0  0  0  0  0  0
    0.6260   10.9210   -2.9600 O   0  0  0  0  0  0  0  0  0  0  0  0
  1  2  2  0
  2  3  1  0
  2  4  1  0
  4  5  1  0
  3  6  1  0
  5  6  1  0
  6  7  1  1
  7  8  1  0
  8  9  1  0
  9 10  1  0
  9 11  2  0
M  END
