diamond-x1015_0_A-diamond-x0628_0_A
     RDKit          3D

 20 22  0  0  0  0  0  0  0  0999 V2000
   -1.9800   15.1370   -4.5790 C   0  0  0  0  0  0  0  0  0  0  0  0
   -0.6960   14.5020   -4.0970 C   0  0  2  0  0  0  0  0  0  0  0  0
   -0.8840   13.0640   -3.8710 N   0  0  0  0  0  0  0  0  0  0  0  0
   -0.3570   14.9630   -2.6590 C   0  0  0  0  0  0  0  0  0  0  0  0
    0.0980   16.0180   -2.2760 O   0  0  0  0  0  0  0  0  0  0  0  0
   -0.1930   12.8890   -2.6580 C   0  0  1  0  0  0  0  0  0  0  0  0
   -0.6590   13.9000   -1.8660 N   0  0  0  0  0  0  0  0  0  0  0  0
   -1.0070   12.1040   -4.8650 C   0  0  0  0  0  0  0  0  0  0  0  0
   -0.2800   11.6570   -2.1710 N   0  0  0  0  0  0  0  0  0  0  0  0
    0.0920   11.7480   -5.6230 C   0  0  0  0  0  0  0  0  0  0  0  0
   -2.2120   11.4550   -5.1530 C   0  0  0  0  0  0  0  0  0  0  0  0
   -3.4500   11.7780   -4.3640 C   0  0  0  0  0  0  0  0  0  0  0  0
    1.3560   12.4420   -5.2310 C   0  0  0  0  0  0  0  0  0  0  0  0
    0.7050   11.2960   -2.7730 C   0  0  0  0  0  0  0  0  0  0  0  0
    0.0170   10.7900   -6.6740 C   0  0  0  0  0  0  0  0  0  0  0  0
   -2.3090   10.4890   -6.1840 C   0  0  0  0  0  0  0  0  0  0  0  0
    0.9000   10.0160   -2.5340 O   0  0  0  0  0  0  0  0  0  0  0  0
    1.6300   12.1930   -3.7070 C   0  0  0  0  0  0  0  0  0  0  0  0
   -1.1980   10.1620   -6.9480 C   0  0  0  0  0  0  0  0  0  0  0  0
   -1.3380    8.9940   -8.2070 Cl  0  0  0  0  0  0  0  0  0  0  0  0
  2  1  1  1
  2  3  1  0
  2  4  1  0
  4  5  2  0
  3  6  1  0
  4  7  1  0
  6  7  1  1
  3  8  1  0
  6  9  1  0
  8 10  2  0
  8 11  1  0
 11 12  1  0
 10 13  1  0
  9 14  2  0
 10 15  1  0
 11 16  2  0
 14 17  1  0
 13 18  1  0
 14 18  1  0
 15 19  2  0
 16 19  1  0
 19 20  1  0
M  END
