diamond-x0895_1_A-diamond-x0104_0_A
     RDKit          3D

 17 18  0  0  0  0  0  0  0  0999 V2000
   -1.9930   14.7040    1.8060 O   0  0  0  0  0  0  0  0  0  0  0  0
   -3.1010   14.8800    1.3020 C   0  0  0  0  0  0  0  0  0  0  0  0
   -3.3910   14.9170   -0.1670 C   0  0  0  0  0  0  0  0  0  0  0  0
   -4.3180   15.0780    1.9320 N   0  0  0  0  0  0  0  0  0  0  0  0
   -4.7420   14.3750   -0.1480 N   0  0  0  0  0  0  0  0  0  0  0  0
   -5.3620   14.7120    1.1000 C   0  0  0  0  0  0  0  0  0  0  0  0
   -6.7040   14.6680    1.3390 N   0  0  0  0  0  0  0  0  0  0  0  0
   -5.4040   14.7430   -1.3390 O   0  0  0  0  0  0  0  0  0  0  0  0
   -4.3850   14.9670   -2.3280 C   0  0  0  0  0  0  0  0  0  0  0  0
   -7.6570   14.9650    2.4010 C   0  0  0  0  0  0  0  0  0  0  0  0
   -7.5770   14.7630    3.7920 N   0  0  0  0  0  0  0  0  0  0  0  0
   -8.7490   15.4640    2.0940 O   0  0  0  0  0  0  0  0  0  0  0  0
   -8.6050   14.9040    4.7670 C   0  0  0  0  0  0  0  0  0  0  0  0
   -8.6340   15.0930    6.1470 C   0  0  0  0  0  0  0  0  0  0  0  0
  -10.2100   14.8260    4.1570 S   0  0  0  0  0  0  0  0  0  0  0  0
  -10.9270   15.0390    5.7050 C   0  0  0  0  0  0  0  0  0  0  0  0
   -9.9680   15.1700    6.6830 C   0  0  0  0  0  0  0  0  0  0  0  0
  1  2  2  0
  2  3  1  0
  2  4  1  0
  3  5  1  0
  4  6  1  0
  5  6  1  0
  6  7  2  3
  5  8  1  0
  8  9  1  0
  7 10  1  0
 10 11  1  0
 10 12  2  0
 11 13  1  0
 13 14  2  0
 13 15  1  0
 15 16  1  0
 14 17  1  0
 16 17  2  0
M  END
