diamond-x0729_1_B-diamond-x0091_0_B
     RDKit          3D

 30 32  0  0  0  0  0  0  0  0999 V2000
   19.8410   24.8890    6.1290 C   0  0  0  0  0  0  0  0  0  0  0  0
   19.9110   26.4160    6.2270 C   0  0  1  0  0  0  0  0  0  0  0  0
   20.0870   26.8720    7.6160 N   0  0  0  0  0  0  0  0  0  0  0  0
   20.9870   26.8920    5.2190 C   0  0  1  0  0  0  0  0  0  0  0  0
   20.3760   27.0410    3.8830 C   0  0  0  0  0  0  0  0  0  0  0  0
   18.8300   27.4370    8.6230 S   0  0  2  0  0  0  0  0  0  0  0  0
   21.4850   27.0500    7.9750 C   0  0  0  0  0  0  0  0  0  0  0  0
   21.6370   28.1970    5.6660 C   0  0  0  0  0  0  0  0  0  0  0  0
   19.5020   28.3780    9.4940 O   0  0  0  0  0  0  0  0  0  0  0  0
   19.9010   27.1400    2.8300 N   0  0  0  0  0  0  0  0  0  0  0  0
   18.1020   26.1650    9.0970 N   0  0  0  0  0  0  0  0  0  0  0  0
   17.6770   28.3690    7.6420 C   0  0  0  0  0  0  0  0  0  0  0  0
   22.1420   28.1350    7.1140 C   0  0  0  0  0  0  0  0  0  0  0  0
   17.9270   25.8800   10.5470 C   0  0  0  0  0  0  0  0  0  0  0  0
   17.0180   24.6530   10.6760 C   0  0  0  0  0  0  0  0  0  0  0  0
   16.2940   24.2970   11.9720 C   0  0  2  0  0  0  0  0  0  0  0  0
   16.6840   22.9880   12.5840 C   0  0  0  0  0  0  0  0  0  0  0  0
   15.3060   23.1380   11.9950 C   0  0  1  0  0  0  0  0  0  0  0  0
   14.2370   22.8370   12.9090 N   0  0  0  0  0  0  0  0  0  0  0  0
   13.6750   21.5720   12.7600 C   0  0  0  0  0  0  0  0  0  0  0  0
   12.7680   21.1200   13.7120 N   0  0  0  0  0  0  0  0  0  0  0  0
   13.9820   20.8510   11.8110 O   0  0  0  0  0  0  0  0  0  0  0  0
   12.2100   22.0550   14.6700 C   0  0  0  0  0  0  0  0  0  0  0  0
   12.2110   19.7580   13.7000 C   0  0  0  0  0  0  0  0  0  0  0  0
   13.1570   18.7790   14.3370 C   0  0  0  0  0  0  0  0  0  0  0  0
   12.6820   17.7380   15.0400 N   0  0  0  0  0  0  0  0  0  0  0  0
   14.5760   18.7650   14.3190 C   0  0  0  0  0  0  0  0  0  0  0  0
   13.7890   17.0370   15.4880 O   0  0  0  0  0  0  0  0  0  0  0  0
   14.9180   17.6550   15.0550 C   0  0  0  0  0  0  0  0  0  0  0  0
   16.1940   17.0290   15.4500 C   0  0  0  0  0  0  0  0  0  0  0  0
  2  1  1  1
  2  3  1  0
  2  4  1  0
  4  5  1  6
  3  6  1  0
  3  7  1  0
  4  8  1  0
  6  9  2  0
  5 10  3  0
  6 11  2  0
  6 12  1  6
  7 13  1  0
  8 13  1  0
 11 14  1  0
 14 15  1  0
 16 15  1  6
 16 17  1  0
 16 18  1  0
 17 18  1  0
 18 19  1  1
 19 20  1  0
 20 21  1  0
 20 22  2  0
 21 23  1  0
 21 24  1  0
 24 25  1  0
 25 26  2  0
 25 27  1  0
 26 28  1  0
 27 29  2  0
 28 29  1  0
 29 30  1  0
M  END
