diamond-x0587_0_A-mac-x0455
     RDKit          3D

 24 25  0  0  0  0  0  0  0  0999 V2000
   -7.4710   14.9450    3.8380 N   0  0  0  0  0  0  0  0  0  0  0  0
   -7.9450   14.8980    2.5640 C   0  0  0  0  0  0  0  0  0  0  0  0
   -9.1520   15.0020    2.3490 O   0  0  0  0  0  0  0  0  0  0  0  0
   -6.9720   14.7390    1.4450 C   0  0  0  0  0  0  0  0  0  0  0  0
   -7.3200   14.4470    0.1520 C   0  0  0  0  0  0  0  0  0  0  0  0
   -5.5990   14.8920    1.6350 C   0  0  0  0  0  0  0  0  0  0  0  0
   -6.4240   14.3150   -0.8660 N   0  0  0  0  0  0  0  0  0  0  0  0
   -4.6450   14.7700    0.6480 N   0  0  0  0  0  0  0  0  0  0  0  0
   -5.0870   14.4780   -0.6150 C   0  0  0  0  0  0  0  0  0  0  0  0
   -4.1080   14.3120   -1.8650 C   0  0  0  0  0  0  0  0  0  0  0  0
   -2.6380   14.2050   -1.6920 O   0  0  0  0  0  0  0  0  0  0  0  0
   -4.5060   13.2660   -2.6270 F   0  0  0  0  0  0  0  0  0  0  0  0
   -4.2840   15.3890   -2.6870 F   0  0  0  0  0  0  0  0  0  0  0  0
   -1.6600   14.2340   -2.8490 C   0  0  1  0  0  0  0  0  0  0  0  0
   -1.7540   15.4410   -3.6070 O   0  0  0  0  0  0  0  0  0  0  0  0
   -0.2390   14.3330   -2.1530 C   0  0  0  0  0  0  0  0  0  0  0  0
   -1.4950   13.0510   -3.8640 C   0  0  0  0  0  0  0  0  0  0  0  0
    0.3130   15.3810   -1.8560 O   0  0  0  0  0  0  0  0  0  0  0  0
    0.3690   13.1360   -1.9190 O   0  0  0  0  0  0  0  0  0  0  0  0
   -2.4070   11.9870   -4.0000 C   0  0  0  0  0  0  0  0  0  0  0  0
   -0.3550   13.0160   -4.7240 C   0  0  0  0  0  0  0  0  0  0  0  0
   -2.1960   10.9550   -4.9340 C   0  0  0  0  0  0  0  0  0  0  0  0
   -0.1480   11.9840   -5.6550 C   0  0  0  0  0  0  0  0  0  0  0  0
   -1.0740   10.9510   -5.7580 C   0  0  0  0  0  0  0  0  0  0  0  0
  1  2  1  0
  2  3  2  0
  2  4  1  0
  4  5  2  0
  4  6  1  0
  5  7  1  0
  6  8  2  0
  7  9  2  0
  8  9  1  0
  9 10  1  0
 10 11  1  0
 10 12  1  0
 10 13  1  0
 14 11  1  0
 14 15  1  6
 14 16  1  0
 14 17  1  0
 16 18  2  0
 16 19  1  0
 17 20  2  0
 17 21  1  0
 20 22  1  0
 21 23  2  0
 22 24  2  0
 23 24  1  0
M  END
