diamond-x0631_0_A-mac-x0373
     RDKit          3D

 34 37  0  0  0  0  0  0  0  0999 V2000
   -2.9090    8.4500   -7.9730 C   0  0  0  0  0  0  0  0  0  0  0  0
   -1.4490    8.0650   -7.8030 C   0  0  0  0  0  0  0  0  0  0  0  0
   -0.6350    9.1940   -7.1410 C   0  0  1  0  0  0  0  0  0  0  0  0
   -0.6600    8.9440   -5.6260 C   0  0  0  0  0  0  0  0  0  0  0  0
    0.7240    9.3780   -7.6860 N   0  0  0  0  0  0  0  0  0  0  0  0
   -0.2620   10.1740   -4.8200 C   0  0  0  0  0  0  0  0  0  0  0  0
    1.1440   10.7100   -7.3870 N   0  0  0  0  0  0  0  0  0  0  0  0
    0.8100    9.2580   -9.1490 N   0  0  0  0  0  0  0  0  0  0  0  0
    1.7940   11.1620   -8.5690 N   0  0  0  0  0  0  0  0  0  0  0  0
    0.9030   10.6500   -9.5510 C   0  0  1  0  0  0  0  0  0  0  0  0
   -1.3170   11.1170   -4.4030 C   0  0  0  0  0  0  0  0  0  0  0  0
    1.4130   10.8930  -10.8820 N   0  0  0  0  0  0  0  0  0  0  0  0
   -0.9050   12.2980   -3.8000 C   0  0  0  0  0  0  0  0  0  0  0  0
   -2.6640   10.8460   -4.5840 C   0  0  0  0  0  0  0  0  0  0  0  0
    1.9990    9.8530  -11.6890 C   0  0  2  0  0  0  0  0  0  0  0  0
   -3.6030   11.7620   -4.1430 C   0  0  0  0  0  0  0  0  0  0  0  0
   -1.8270   13.2280   -3.3480 C   0  0  0  0  0  0  0  0  0  0  0  0
    2.7350    8.9610  -10.8570 O   0  0  0  0  0  0  0  0  0  0  0  0
   -1.3840   14.5070   -2.6640 C   0  0  2  0  0  0  0  0  0  0  0  0
    2.9590   10.5210  -12.7060 C   0  0  1  0  0  0  0  0  0  0  0  0
   -3.1870   12.9420   -3.5290 C   0  0  0  0  0  0  0  0  0  0  0  0
    0.0300   14.3760   -2.0980 C   0  0  0  0  0  0  0  0  0  0  0  0
    3.8490    9.5900  -13.3550 O   0  0  0  0  0  0  0  0  0  0  0  0
    2.3050   11.2520  -13.8480 C   0  0  0  0  0  0  0  0  0  0  0  0
   -2.4430   14.9570   -1.6680 C   0  0  0  0  0  0  0  0  0  0  0  0
    0.2690   13.2850   -1.3330 O   0  0  0  0  0  0  0  0  0  0  0  0
    0.9510   15.1530   -2.2730 O   0  0  0  0  0  0  0  0  0  0  0  0
    3.5350   11.5460  -14.6750 C   0  0  0  0  0  0  0  0  0  0  0  0
    4.3530   10.2740  -14.5110 C   0  0  0  0  0  0  0  0  0  0  0  0
   -3.6930   15.4390   -2.0740 C   0  0  0  0  0  0  0  0  0  0  0  0
   -2.1650   14.8760   -0.2940 C   0  0  0  0  0  0  0  0  0  0  0  0
   -4.6430   15.8220   -1.1300 C   0  0  0  0  0  0  0  0  0  0  0  0
   -3.1160   15.2610    0.6450 C   0  0  0  0  0  0  0  0  0  0  0  0
   -4.3500   15.7300    0.2250 C   0  0  0  0  0  0  0  0  0  0  0  0
  1  2  1  0
  3  2  1  6
  3  4  1  0
  3  5  1  0
  4  6  1  0
  5  7  1  0
  5  8  1  0
  7  9  1  0
  8 10  1  0
  9 10  1  0
  6 11  1  0
 10 12  1  6
 11 13  2  0
 11 14  1  0
 12 15  1  0
 14 16  2  0
 13 17  1  0
 15 18  1  1
 17 19  1  0
 15 20  1  0
 16 21  1  0
 17 21  2  0
 19 22  1  1
 20 23  1  0
 20 24  1  6
 19 25  1  0
 22 26  1  0
 22 27  2  0
 24 28  1  0
 23 29  1  0
 28 29  1  0
 25 30  2  0
 25 31  1  0
 30 32  1  0
 31 33  2  0
 32 34  2  0
 33 34  1  0
M  END
