diamond-x0438_0_A-mac-x0347
     RDKit          3D

 22 24  0  0  0  0  0  0  0  0999 V2000
   -8.0330   15.3710    3.7020 C   0  0  0  0  0  0  0  0  0  0  0  0
   -9.3290   15.3090    2.4760 S   0  0  0  0  0  0  0  0  0  0  0  0
  -10.4890   14.7070    3.1120 O   0  0  0  0  0  0  0  0  0  0  0  0
   -8.7940   14.1780    1.2000 C   0  0  0  0  0  0  0  0  0  0  0  0
   -9.4890   16.6070    1.8560 O   0  0  0  0  0  0  0  0  0  0  0  0
   -7.3770   14.3590    0.7730 C   0  0  0  0  0  0  0  0  0  0  0  0
   -6.9870   15.0400   -0.3860 N   0  0  0  0  0  0  0  0  0  0  0  0
   -6.3310   13.8930    1.4130 N   0  0  0  0  0  0  0  0  0  0  0  0
   -5.2700   14.2580    0.6680 C   0  0  0  0  0  0  0  0  0  0  0  0
   -5.6140   14.9700   -0.4440 C   0  0  0  0  0  0  0  0  0  0  0  0
   -4.6220   15.4950   -1.4380 C   0  0  0  0  0  0  0  0  0  0  0  0
   -3.9290   13.9520    0.9400 C   0  0  0  0  0  0  0  0  0  0  0  0
   -3.4000   14.4770   -1.4930 C   0  0  2  0  0  0  0  0  0  0  0  0
   -3.0360   14.0230   -0.0570 C   0  0  0  0  0  0  0  0  0  0  0  0
   -2.0240   14.9710   -1.9760 C   0  0  0  0  0  0  0  0  0  0  0  0
   -3.7370   13.4480   -2.6050 C   0  0  0  0  0  0  0  0  0  0  0  0
   -1.2090   13.8940   -2.6450 C   0  0  2  0  0  0  0  0  0  0  0  0
   -3.2670   13.9260   -3.9460 N   0  0  0  0  0  0  0  0  0  0  0  0
    0.2990   14.0530   -2.5350 C   0  0  0  0  0  0  0  0  0  0  0  0
   -1.7960   13.8060   -4.0380 C   0  0  0  0  0  0  0  0  0  0  0  0
    0.8710   14.6070   -3.6220 O   0  0  0  0  0  0  0  0  0  0  0  0
    0.9860   13.7320   -1.5850 O   0  0  0  0  0  0  0  0  0  0  0  0
  2  1  1  0
  2  3  2  0
  2  4  1  0
  2  5  2  0
  4  6  1  0
  6  7  1  0
  6  8  2  0
  8  9  1  0
  7 10  1  0
  9 10  2  0
 10 11  1  0
  9 12  1  0
 13 11  1  1
 12 14  2  0
 13 14  1  0
 13 15  1  0
 13 16  1  0
 15 17  1  0
 16 18  1  0
 17 19  1  6
 17 20  1  0
 18 20  1  0
 19 21  1  0
 19 22  2  0
M  END
