diamond-x0727_0_A-diamond-x0676_0_B
     RDKit          3D

 28 30  0  0  0  0  0  0  0  0999 V2000
    0.1270   11.9350   -5.6030 N   0  0  0  0  0  0  0  0  0  0  0  0
    1.0760   12.5340   -4.6820 C   0  0  1  0  0  0  0  0  0  0  0  0
    0.9420   14.0480   -4.7680 C   0  0  0  0  0  0  0  0  0  0  0  0
    0.5050   11.1870   -6.6730 C   0  0  0  0  0  0  0  0  0  0  0  0
    1.5680   11.3790   -7.2350 O   0  0  0  0  0  0  0  0  0  0  0  0
    0.8540   12.0130   -3.2440 C   0  0  0  0  0  0  0  0  0  0  0  0
   -0.5190   10.1380   -7.0250 C   0  0  1  0  0  0  0  0  0  0  0  0
    0.2630   10.9750   -2.9660 O   0  0  0  0  0  0  0  0  0  0  0  0
    1.3790   12.8040   -2.2780 O   0  0  0  0  0  0  0  0  0  0  0  0
   -1.0200   10.0580   -8.4670 C   0  0  1  0  0  0  0  0  0  0  0  0
   -0.2100    8.6880   -6.6820 C   0  0  0  0  0  0  0  0  0  0  0  0
    0.1110    9.9270   -9.5190 C   0  0  0  0  0  0  0  0  0  0  0  0
   -1.9650    8.8410   -8.3500 C   0  0  0  0  0  0  0  0  0  0  0  0
   -1.4590    7.9910   -7.1750 C   0  0  0  0  0  0  0  0  0  0  0  0
    0.6390    8.5150   -9.8220 C   0  0  0  0  0  0  0  0  0  0  0  0
    1.5900    8.6560  -10.9090 N   0  0  0  0  0  0  0  0  0  0  0  0
    2.7290    8.0730  -10.8910 C   0  0  0  0  0  0  0  0  0  0  0  0
    3.2350    7.1670   -9.7980 C   0  0  0  0  0  0  0  0  0  0  0  0
    3.7520    8.1330  -11.8220 N   0  0  0  0  0  0  0  0  0  0  0  0
    4.9700    7.6930  -11.2890 N   0  0  0  0  0  0  0  0  0  0  0  0
    4.6990    7.1630  -10.1360 C   0  0  0  0  0  0  0  0  0  0  0  0
    3.8560    9.1850  -12.7790 C   0  0  0  0  0  0  0  0  0  0  0  0
    5.7290    6.6020   -9.2200 C   0  0  0  0  0  0  0  0  0  0  0  0
    2.9550   10.2700  -12.8070 C   0  0  0  0  0  0  0  0  0  0  0  0
    4.8750    9.1880  -13.7430 C   0  0  0  0  0  0  0  0  0  0  0  0
    3.0720   11.3020  -13.7480 C   0  0  0  0  0  0  0  0  0  0  0  0
    4.9960   10.2130  -14.6880 C   0  0  0  0  0  0  0  0  0  0  0  0
    4.0910   11.2720  -14.6870 C   0  0  0  0  0  0  0  0  0  0  0  0
  1  2  1  0
  2  3  1  1
  1  4  1  0
  4  5  2  0
  2  6  1  0
  7  4  1  6
  6  8  2  0
  6  9  1  0
  7 10  1  0
  7 11  1  0
 10 12  1  6
 10 13  1  0
 11 14  1  0
 13 14  1  0
 12 15  1  0
 15 16  1  0
 16 17  2  3
 17 18  1  0
 17 19  1  0
 19 20  1  0
 18 21  1  0
 20 21  2  0
 19 22  1  0
 21 23  1  0
 22 24  2  0
 22 25  1  0
 24 26  1  0
 25 27  2  0
 26 28  2  0
 27 28  1  0
M  END
