diamond-x0742_0_A-mac-x0417
     RDKit          3D

 30 34  0  0  0  0  0  0  0  0999 V2000
   -5.2840   12.6500   -0.5660 C   0  0  0  0  0  0  0  0  0  0  0  0
   -6.2410   11.8670    0.3010 C   0  0  0  0  0  0  0  0  0  0  0  0
   -4.7130   12.0910   -1.5090 O   0  0  0  0  0  0  0  0  0  0  0  0
   -5.1050   14.1570   -0.2370 C   0  0  2  0  0  0  0  0  0  0  0  0
   -4.9680   14.2840    1.2980 C   0  0  0  0  0  0  0  0  0  0  0  0
   -6.2410   14.9560   -0.8930 C   0  0  0  0  0  0  0  0  0  0  0  0
   -3.9640   14.8670   -1.0090 C   0  0  2  0  0  0  0  0  0  0  0  0
   -4.4000   14.6080   -2.4530 C   0  0  0  0  0  0  0  0  0  0  0  0
   -2.6160   14.4940   -0.4460 C   0  0  0  0  0  0  0  0  0  0  0  0
   -3.7070   15.0440    1.7180 C   0  0  0  0  0  0  0  0  0  0  0  0
   -5.9270   14.7700   -2.3820 C   0  0  0  0  0  0  0  0  0  0  0  0
   -1.5090   14.0830   -1.1720 C   0  0  0  0  0  0  0  0  0  0  0  0
   -2.5000   14.5880    0.9430 C   0  0  0  0  0  0  0  0  0  0  0  0
   -1.3810   14.3030    1.6300 N   0  0  0  0  0  0  0  0  0  0  0  0
   -0.3320   13.7760   -0.5080 C   0  0  0  0  0  0  0  0  0  0  0  0
    0.8680   13.3210   -1.2990 C   0  0  0  0  0  0  0  0  0  0  0  0
   -0.3270   13.9010    0.8900 C   0  0  0  0  0  0  0  0  0  0  0  0
    0.7040   13.5270   -2.6940 O   0  0  0  0  0  0  0  0  0  0  0  0
    0.5660   12.4190   -3.4800 C   0  0  0  0  0  0  0  0  0  0  0  0
    0.6780   11.2480   -3.1210 O   0  0  0  0  0  0  0  0  0  0  0  0
    0.2440   12.8830   -4.8760 C   0  0  0  0  0  0  0  0  0  0  0  0
    0.2210   11.8010   -5.8830 C   0  0  0  0  0  0  0  0  0  0  0  0
    1.2470   11.6870   -6.7250 N   0  0  0  0  0  0  0  0  0  0  0  0
   -0.7680   10.8130   -6.1180 C   0  0  0  0  0  0  0  0  0  0  0  0
    0.9380   10.6110   -7.5490 O   0  0  0  0  0  0  0  0  0  0  0  0
   -0.2650   10.0900   -7.1830 C   0  0  0  0  0  0  0  0  0  0  0  0
   -2.0080   10.4460   -5.5740 C   0  0  0  0  0  0  0  0  0  0  0  0
   -0.9120    9.0040   -7.7660 C   0  0  0  0  0  0  0  0  0  0  0  0
   -2.6870    9.3550   -6.1340 C   0  0  0  0  0  0  0  0  0  0  0  0
   -2.1470    8.6490   -7.2120 C   0  0  0  0  0  0  0  0  0  0  0  0
  1  2  1  0
  1  3  2  0
  4  1  1  1
  4  5  1  0
  4  6  1  0
  4  7  1  0
  7  8  1  6
  7  9  1  0
  5 10  1  0
  6 11  1  0
  8 11  1  0
  9 12  1  0
  9 13  2  0
 10 13  1  0
 13 14  1  0
 12 15  2  0
 15 16  1  0
 14 17  2  0
 15 17  1  0
 16 18  1  0
 18 19  1  0
 19 20  2  0
 19 21  1  0
 21 22  1  0
 22 23  2  0
 22 24  1  0
 23 25  1  0
 24 26  2  0
 25 26  1  0
 24 27  1  0
 26 28  1  0
 27 29  2  0
 28 30  2  0
 29 30  1  0
M  END
