diamond-x0253_0_A-diamond-x0722_0_A
     RDKit          3D

 28 29  0  0  0  0  0  0  0  0999 V2000
    0.4420   11.8060   -5.4720 N   0  0  0  0  0  0  0  0  0  0  0  0
    1.0650   11.5560   -6.6410 C   0  0  0  0  0  0  0  0  0  0  0  0
    2.1410   12.0550   -6.8240 O   0  0  0  0  0  0  0  0  0  0  0  0
    1.3120   12.6040   -4.6570 C   0  0  0  0  0  0  0  0  0  0  0  0
    0.9520   12.5260   -3.2140 C   0  0  0  0  0  0  0  0  0  0  0  0
    0.4250   10.6540   -7.6270 C   0  0  0  0  0  0  0  0  0  0  0  0
    1.2660   13.5460   -2.5600 N   0  0  0  0  0  0  0  0  0  0  0  0
    0.3210   11.4120   -2.7800 O   0  0  0  0  0  0  0  0  0  0  0  0
   -0.5480    9.7380   -7.2340 C   0  0  0  0  0  0  0  0  0  0  0  0
    0.8090   10.7260   -8.9710 C   0  0  0  0  0  0  0  0  0  0  0  0
    1.0090   13.8180   -1.2060 C   0  0  0  0  0  0  0  0  0  0  0  0
   -1.1430    8.8950   -8.1780 C   0  0  0  0  0  0  0  0  0  0  0  0
    0.2230    9.8900   -9.9170 C   0  0  0  0  0  0  0  0  0  0  0  0
   -2.1910    7.9130   -7.7510 C   0  0  0  0  0  0  0  0  0  0  0  0
   -0.0830   14.8590   -1.3270 C   0  0  0  0  0  0  0  0  0  0  0  0
   -0.7510    8.9770   -9.5230 C   0  0  0  0  0  0  0  0  0  0  0  0
   -1.4950   14.2700   -1.4800 C   0  0  0  0  0  0  0  0  0  0  0  0
   -2.2300   14.6270   -0.2630 C   0  0  0  0  0  0  0  0  0  0  0  0
   -3.5030   15.1240   -0.0210 C   0  0  0  0  0  0  0  0  0  0  0  0
   -1.6220   14.4980    0.9530 N   0  0  0  0  0  0  0  0  0  0  0  0
   -0.2990   14.0360    1.2850 C   0  0  0  0  0  0  0  0  0  0  0  0
   -4.6220   15.4670   -0.9590 C   0  0  0  0  0  0  0  0  0  0  0  0
   -2.3810   14.8670    1.9380 N   0  0  0  0  0  0  0  0  0  0  0  0
   -3.4890   15.2640    1.3790 C   0  0  0  0  0  0  0  0  0  0  0  0
   -4.5020   15.7990    2.2540 C   0  0  0  0  0  0  0  0  0  0  0  0
   -5.9150   14.7280   -0.6360 C   0  0  0  0  0  0  0  0  0  0  0  0
   -7.0330   15.2020   -0.8310 O   0  0  0  0  0  0  0  0  0  0  0  0
   -5.7790   13.4780   -0.0960 N   0  0  0  0  0  0  0  0  0  0  0  0
  1  2  1  0
  2  3  2  0
  1  4  1  0
  4  5  1  0
  2  6  1  0
  5  7  2  3
  5  8  1  0
  6  9  2  0
  6 10  1  0
  7 11  1  0
  9 12  1  0
 10 13  2  0
 12 14  1  0
 11 15  1  0
 12 16  2  0
 13 16  1  0
 15 17  1  0
 17 18  1  0
 18 19  2  0
 18 20  1  0
 20 21  1  0
 19 22  1  0
 20 23  1  0
 19 24  1  0
 23 24  2  0
 24 25  1  0
 22 26  1  0
 26 27  2  0
 26 28  1  0
M  END
