diamond-x0766_0_A-mac-x0321
     RDKit          3D

 23 25  0  0  0  0  0  0  0  0999 V2000
    0.6470   12.1510   -2.5460 C   0  0  0  0  0  0  0  0  0  0  0  0
    0.2180   11.1350   -3.3110 O   0  0  0  0  0  0  0  0  0  0  0  0
    0.5220   12.1240   -1.3430 O   0  0  0  0  0  0  0  0  0  0  0  0
    1.2700   13.3110   -3.2610 C   0  0  1  0  0  0  0  0  0  0  0  0
    1.1560   13.4220   -4.7740 C   0  0  0  0  0  0  0  0  0  0  0  0
    0.7130   14.6390   -2.7300 C   0  0  1  0  0  0  0  0  0  0  0  0
    1.4400   14.9090   -4.9260 C   0  0  0  0  0  0  0  0  0  0  0  0
    0.5260   15.5540   -3.9230 C   0  0  0  0  0  0  0  0  0  0  0  0
   -0.4120   14.5060   -1.7500 C   0  0  0  0  0  0  0  0  0  0  0  0
   -1.7440   14.6810   -1.9140 C   0  0  0  0  0  0  0  0  0  0  0  0
   -0.1390   14.1460   -0.3870 C   0  0  0  0  0  0  0  0  0  0  0  0
   -2.5700   15.0750   -3.0480 C   0  0  0  0  0  0  0  0  0  0  0  0
   -1.2460   14.0560    0.4100 C   0  0  0  0  0  0  0  0  0  0  0  0
   -2.6360   14.3900   -0.4520 S   0  0  0  0  0  0  0  0  0  0  0  0
   -2.0300   16.2910   -3.4720 O   0  0  0  0  0  0  0  0  0  0  0  0
   -2.5410   14.1540   -4.1230 O   0  0  0  0  0  0  0  0  0  0  0  0
   -3.8760   15.1720   -2.3290 C   0  0  0  0  0  0  0  0  0  0  0  0
   -3.7440   15.3450   -0.9460 C   0  0  0  0  0  0  0  0  0  0  0  0
   -5.1390   15.0960   -2.8720 C   0  0  0  0  0  0  0  0  0  0  0  0
   -4.8270   15.4250   -0.1170 C   0  0  0  0  0  0  0  0  0  0  0  0
   -6.2560   15.1900   -2.0370 C   0  0  0  0  0  0  0  0  0  0  0  0
   -4.5080   15.6030    1.5620 Cl  0  0  0  0  0  0  0  0  0  0  0  0
   -6.1000   15.3500   -0.6570 C   0  0  0  0  0  0  0  0  0  0  0  0
  1  2  1  0
  1  3  2  0
  4  1  1  1
  4  5  1  0
  4  6  1  0
  5  7  1  0
  6  8  1  0
  7  8  1  0
  6  9  1  6
  9 10  2  0
  9 11  1  0
 10 12  1  0
 11 13  2  0
 10 14  1  0
 13 14  1  0
 12 15  1  0
 12 16  1  0
 12 17  1  0
 17 18  2  0
 17 19  1  0
 18 20  1  0
 19 21  2  0
 20 22  1  0
 20 23  2  0
 21 23  1  0
M  END
