diamond-x1012_0_A-mac-x0277
     RDKit          3D

 13 13  0  0  0  0  0  0  0  0999 V2000
   -0.2170   18.1470   -4.7270 N   0  0  0  0  0  0  0  0  0  0  0  0
   -1.1970   17.2270   -4.8060 C   0  0  0  0  0  0  0  0  0  0  0  0
   -2.3620   17.6000   -4.7910 O   0  0  0  0  0  0  0  0  0  0  0  0
   -0.7970   15.9050   -4.8660 N   0  0  0  0  0  0  0  0  0  0  0  0
   -1.7920   14.9470   -4.4370 C   0  0  0  0  0  0  0  0  0  0  0  0
    0.6360   15.5030   -4.8630 C   0  0  0  0  0  0  0  0  0  0  0  0
   -1.3100   14.2330   -3.1950 C   0  0  0  0  0  0  0  0  0  0  0  0
    1.0710   14.2910   -3.9890 C   0  0  2  0  0  0  0  0  0  0  0  0
    2.0520   13.3700   -4.7100 C   0  0  0  0  0  0  0  0  0  0  0  0
   -0.0800   13.4070   -3.5340 C   0  0  1  0  0  0  0  0  0  0  0  0
    0.3600   12.4730   -2.4120 C   0  0  0  0  0  0  0  0  0  0  0  0
    0.4920   11.1920   -2.8280 O   0  0  0  0  0  0  0  0  0  0  0  0
    0.5730   12.7930   -1.2530 O   0  0  0  0  0  0  0  0  0  0  0  0
  1  2  1  0
  2  3  2  0
  2  4  1  0
  4  5  1  0
  4  6  1  0
  5  7  1  0
  6  8  1  0
  8  9  1  6
  7 10  1  0
  8 10  1  0
 10 11  1  1
 11 12  1  0
 11 13  2  0
M  END
