diamond-x0950_1_A-mac-x0139
     RDKit          3D

 18 19  0  0  0  0  0  0  0  0999 V2000
    0.5800   14.0770   -4.5040 C   0  0  0  0  0  0  0  0  0  0  0  0
    1.1980   12.6770   -4.4340 C   0  0  2  0  0  0  0  0  0  0  0  0
    0.5970   11.8700   -5.4630 O   0  0  0  0  0  0  0  0  0  0  0  0
    0.3370   14.8220   -3.1630 C   0  0  0  0  0  0  0  0  0  0  0  0
    0.9630   11.9990   -3.0870 C   0  0  0  0  0  0  0  0  0  0  0  0
   -1.0130   14.6670   -2.5530 N   0  0  0  0  0  0  0  0  0  0  0  0
    0.2800   11.0210   -2.8300 O   0  0  0  0  0  0  0  0  0  0  0  0
    1.6460   12.6410   -2.1120 O   0  0  0  0  0  0  0  0  0  0  0  0
   -2.1180   15.0040   -3.4660 C   0  0  0  0  0  0  0  0  0  0  0  0
   -1.2420   14.7670   -1.1510 C   0  0  0  0  0  0  0  0  0  0  0  0
   -2.4820   14.9230   -0.5990 C   0  0  0  0  0  0  0  0  0  0  0  0
   -0.1100   14.7220   -0.3250 N   0  0  0  0  0  0  0  0  0  0  0  0
   -2.5830   15.0340    0.8780 C   0  0  0  0  0  0  0  0  0  0  0  0
   -0.2790   14.8100    0.9610 C   0  0  0  0  0  0  0  0  0  0  0  0
   -3.8410   15.0440   -1.0160 C   0  0  0  0  0  0  0  0  0  0  0  0
   -1.4590   14.9420    1.6020 N   0  0  0  0  0  0  0  0  0  0  0  0
   -3.8010   15.2280    1.2760 N   0  0  0  0  0  0  0  0  0  0  0  0
   -4.5430   15.2270    0.1120 C   0  0  0  0  0  0  0  0  0  0  0  0
  1  2  1  0
  2  3  1  6
  1  4  1  0
  2  5  1  0
  4  6  1  0
  5  7  2  0
  5  8  1  0
  6  9  1  0
  6 10  1  0
 10 11  2  0
 10 12  1  0
 11 13  1  0
 12 14  2  0
 11 15  1  0
 13 16  1  0
 14 16  1  0
 13 17  2  0
 15 18  2  0
 17 18  1  0
M  END
