diamond-x0724_0_A-diamond-x0626_0_A
     RDKit          3D

 20 21  0  0  0  0  0  0  0  0999 V2000
   -8.1490   13.5810    3.6750 N   0  0  0  0  0  0  0  0  0  0  0  0
   -9.0660   13.4380    4.7970 C   0  0  0  0  0  0  0  0  0  0  0  0
   -8.5070   14.7400    2.8570 C   0  0  0  0  0  0  0  0  0  0  0  0
   -7.8340   14.6670    1.5210 C   0  0  0  0  0  0  0  0  0  0  0  0
   -6.4870   14.7590    1.2370 C   0  0  0  0  0  0  0  0  0  0  0  0
   -8.4100   14.4970    0.2500 C   0  0  0  0  0  0  0  0  0  0  0  0
   -7.5090   14.4870   -0.7440 N   0  0  0  0  0  0  0  0  0  0  0  0
   -6.2940   14.6560   -0.1360 N   0  0  0  0  0  0  0  0  0  0  0  0
   -5.0450   14.7100   -0.8850 C   0  0  0  0  0  0  0  0  0  0  0  0
   -3.7640   14.4110   -0.3140 C   0  0  0  0  0  0  0  0  0  0  0  0
   -5.0960   15.0760   -2.2390 C   0  0  0  0  0  0  0  0  0  0  0  0
   -3.7130   14.0480    1.0300 N   0  0  0  0  0  0  0  0  0  0  0  0
   -2.5950   14.4820   -1.0850 C   0  0  0  0  0  0  0  0  0  0  0  0
   -3.9270   15.1430   -3.0030 C   0  0  0  0  0  0  0  0  0  0  0  0
   -4.7570   14.2450    1.8740 C   0  0  0  0  0  0  0  0  0  0  0  0
   -1.2090   14.1860   -0.5530 C   0  0  0  0  0  0  0  0  0  0  0  0
   -2.6940   14.8500   -2.4330 C   0  0  0  0  0  0  0  0  0  0  0  0
   -5.0440   15.3420    2.3460 O   0  0  0  0  0  0  0  0  0  0  0  0
   -5.5100   12.9400    2.1540 C   0  0  0  0  0  0  0  0  0  0  0  0
   -6.0990   12.2700    0.9220 C   0  0  0  0  0  0  0  0  0  0  0  0
  1  2  1  0
  1  3  1  0
  3  4  1  0
  4  5  2  0
  4  6  1  0
  6  7  2  0
  5  8  1  0
  7  8  1  0
  8  9  1  0
  9 10  2  0
  9 11  1  0
 10 12  1  0
 10 13  1  0
 11 14  2  0
 12 15  1  0
 13 16  1  0
 13 17  2  0
 14 17  1  0
 15 18  2  0
 15 19  1  0
 19 20  1  0
M  END
