diamond-x0727_0_A-mac-x0319
     RDKit          3D

 20 21  0  0  0  0  0  0  0  0999 V2000
    0.1830   11.6070   -5.5370 N   0  0  0  0  0  0  0  0  0  0  0  0
    0.8440   12.5630   -4.5990 C   0  0  2  0  0  0  0  0  0  0  0  0
    2.3330   12.7750   -4.8660 C   0  0  0  0  0  0  0  0  0  0  0  0
    0.7220   11.2130   -6.7380 C   0  0  0  0  0  0  0  0  0  0  0  0
    1.6890   11.7470   -7.1940 O   0  0  0  0  0  0  0  0  0  0  0  0
    0.7310   11.9210   -3.1880 C   0  0  0  0  0  0  0  0  0  0  0  0
    0.0420   10.0350   -7.4430 C   0  0  0  0  0  0  0  0  0  0  0  0
    0.1800   13.9210   -4.6020 C   0  0  0  0  0  0  0  0  0  0  0  0
    0.1400   10.8800   -2.9180 O   0  0  0  0  0  0  0  0  0  0  0  0
    1.3580   12.6090   -2.2150 O   0  0  0  0  0  0  0  0  0  0  0  0
   -1.2790   10.4420   -8.0950 C   0  0  0  0  0  0  0  0  0  0  0  0
   -0.3040    8.8700   -6.4960 C   0  0  0  0  0  0  0  0  0  0  0  0
    0.9880   15.0640   -4.3960 C   0  0  0  0  0  0  0  0  0  0  0  0
   -1.1900   14.1030   -4.8020 C   0  0  0  0  0  0  0  0  0  0  0  0
   -2.1500    9.1960   -8.0360 C   0  0  0  0  0  0  0  0  0  0  0  0
   -1.7550    8.4940   -6.7490 C   0  0  0  0  0  0  0  0  0  0  0  0
    0.4330   16.3310   -4.3980 C   0  0  0  0  0  0  0  0  0  0  0  0
   -1.7370   15.3830   -4.8040 C   0  0  0  0  0  0  0  0  0  0  0  0
    1.2410   17.4070   -4.1940 O   0  0  0  0  0  0  0  0  0  0  0  0
   -0.9250   16.4980   -4.6040 C   0  0  0  0  0  0  0  0  0  0  0  0
  1  2  1  0
  2  3  1  6
  1  4  1  0
  4  5  2  0
  2  6  1  0
  4  7  1  0
  2  8  1  0
  6  9  2  0
  6 10  1  0
  7 11  1  0
  7 12  1  0
  8 13  2  0
  8 14  1  0
 11 15  1  0
 12 16  1  0
 15 16  1  0
 13 17  1  0
 14 18  2  0
 17 19  1  0
 17 20  2  0
 18 20  1  0
M  END
