diamond-x0591_0_A-mac-x0387
     RDKit          3D

 27 29  0  0  0  0  0  0  0  0999 V2000
   -5.7810   14.3410    0.7960 N   0  0  0  0  0  0  0  0  0  0  0  0
   -6.5860   14.3860    1.9960 C   0  0  0  0  0  0  0  0  0  0  0  0
   -5.7230   14.7140    3.2160 C   0  0  0  0  0  0  0  0  0  0  0  0
   -6.2890   14.5580   -0.4600 C   0  0  0  0  0  0  0  0  0  0  0  0
   -7.4580   14.8510   -0.6770 O   0  0  0  0  0  0  0  0  0  0  0  0
   -5.3150   14.4130   -1.5890 C   0  0  0  0  0  0  0  0  0  0  0  0
   -4.2200   14.8350    2.9310 C   0  0  0  0  0  0  0  0  0  0  0  0
   -4.0550   13.7980   -1.4360 C   0  0  0  0  0  0  0  0  0  0  0  0
   -5.6780   14.9080   -2.8430 C   0  0  0  0  0  0  0  0  0  0  0  0
   -3.8400   15.4510    1.6630 N   0  0  0  0  0  0  0  0  0  0  0  0
   -3.1710   13.6920   -2.5280 C   0  0  0  0  0  0  0  0  0  0  0  0
   -4.8010   14.7990   -3.9290 C   0  0  0  0  0  0  0  0  0  0  0  0
   -3.5540   14.2040   -3.7790 C   0  0  0  0  0  0  0  0  0  0  0  0
   -2.5530   15.1230    1.1670 C   0  0  0  0  0  0  0  0  0  0  0  0
   -2.5010   14.1290   -5.2190 S   0  0  0  0  0  0  0  0  0  0  0  0
   -2.3100   15.2890   -0.2030 C   0  0  0  0  0  0  0  0  0  0  0  0
   -1.6030   14.6690    1.9980 N   0  0  0  0  0  0  0  0  0  0  0  0
   -1.1510   15.0680   -4.8410 N   0  0  0  0  0  0  0  0  0  0  0  0
   -1.9820   12.7900   -5.3390 O   0  0  0  0  0  0  0  0  0  0  0  0
   -3.1860   14.8040   -6.2980 O   0  0  0  0  0  0  0  0  0  0  0  0
   -1.0300   14.9760   -0.6990 C   0  0  0  0  0  0  0  0  0  0  0  0
   -0.3890   14.3750    1.4970 C   0  0  0  0  0  0  0  0  0  0  0  0
   -3.2780   15.7520   -1.1050 C   0  0  0  0  0  0  0  0  0  0  0  0
   -0.0560   14.5110    0.1730 C   0  0  0  0  0  0  0  0  0  0  0  0
   -0.7480   15.1330   -2.0570 C   0  0  0  0  0  0  0  0  0  0  0  0
   -2.9840   15.8970   -2.4500 C   0  0  0  0  0  0  0  0  0  0  0  0
   -1.7240   15.5930   -2.9230 C   0  0  0  0  0  0  0  0  0  0  0  0
  1  2  1  0
  2  3  1  0
  1  4  1  0
  4  5  2  0
  4  6  1  0
  3  7  1  0
  6  8  2  0
  6  9  1  0
  7 10  1  0
  8 11  1  0
  9 12  2  0
 11 13  2  0
 12 13  1  0
 10 14  1  0
 13 15  1  0
 14 16  1  0
 14 17  2  0
 15 18  1  0
 15 19  2  0
 15 20  2  0
 16 21  2  0
 17 22  1  0
 16 23  1  0
 21 24  1  0
 22 24  2  0
 21 25  1  0
 23 26  2  0
 25 27  2  0
 26 27  1  0
M  END
