diamond-x0689_0_A-diamond-x1015_0_A
     RDKit          3D

 24 26  0  0  0  0  0  0  0  0999 V2000
   -3.8010   14.4830    1.4480 N   0  0  0  0  0  0  0  0  0  0  0  0
   -4.5720   15.6520    1.2100 C   0  0  0  0  0  0  0  0  0  0  0  0
   -2.5440   14.5250    0.9250 C   0  0  0  0  0  0  0  0  0  0  0  0
   -2.4460   14.5900   -0.3950 N   0  0  0  0  0  0  0  0  0  0  0  0
   -1.5190   14.4950    1.7760 N   0  0  0  0  0  0  0  0  0  0  0  0
   -1.2170   14.6220   -0.8960 C   0  0  0  0  0  0  0  0  0  0  0  0
   -0.2950   14.5330    1.2200 C   0  0  0  0  0  0  0  0  0  0  0  0
   -0.0820   14.5960   -0.1410 C   0  0  0  0  0  0  0  0  0  0  0  0
    1.2260   14.6330   -0.8330 C   0  0  0  0  0  0  0  0  0  0  0  0
    0.9950   14.8290   -2.2420 N   0  0  0  0  0  0  0  0  0  0  0  0
    0.5170   13.7660   -2.7160 C   0  0  0  0  0  0  0  0  0  0  0  0
    0.1130   13.5410   -4.1500 C   0  0  2  0  0  0  0  0  0  0  0  0
    0.2900   12.6560   -1.9860 N   0  0  0  0  0  0  0  0  0  0  0  0
   -1.1930   14.2920   -4.4110 C   0  0  0  0  0  0  0  0  0  0  0  0
   -0.0340   12.0890   -4.0950 N   0  0  0  0  0  0  0  0  0  0  0  0
    0.1490   11.5930   -2.7980 C   0  0  0  0  0  0  0  0  0  0  0  0
    0.1850   10.4320   -2.3810 O   0  0  0  0  0  0  0  0  0  0  0  0
   -0.4660   11.3250   -5.1930 C   0  0  0  0  0  0  0  0  0  0  0  0
    0.0610   11.5270   -6.4680 C   0  0  0  0  0  0  0  0  0  0  0  0
   -1.4440   10.3350   -5.0190 C   0  0  0  0  0  0  0  0  0  0  0  0
   -0.3730   10.7590   -7.5510 C   0  0  0  0  0  0  0  0  0  0  0  0
   -1.8800    9.5650   -6.0960 C   0  0  0  0  0  0  0  0  0  0  0  0
   -1.3420    9.7800   -7.3570 C   0  0  0  0  0  0  0  0  0  0  0  0
   -1.8770    8.8310   -8.6830 Cl  0  0  0  0  0  0  0  0  0  0  0  0
  1  2  1  0
  1  3  1  0
  3  4  2  0
  3  5  1  0
  4  6  1  0
  5  7  2  0
  6  8  2  0
  7  8  1  0
  8  9  1  0
  9 10  1  0
 10 11  2  3
 11 12  1  0
 11 13  1  0
 12 14  1  1
 12 15  1  0
 13 16  1  0
 15 16  1  0
 16 17  2  0
 15 18  1  0
 18 19  2  0
 18 20  1  0
 19 21  1  0
 20 22  2  0
 21 23  2  0
 22 23  1  0
 23 24  1  0
M  END
