diamond-x0574_0_A-mac-x0226
     RDKit          3D

 28 31  0  0  0  0  0  0  0  0999 V2000
    0.0770   14.3020    2.1110 N   0  0  0  0  0  0  0  0  0  0  0  0
   -0.4460   14.2960    0.7960 C   0  0  1  0  0  0  0  0  0  0  0  0
   -1.6440   13.5490    0.6270 N   0  0  0  0  0  0  0  0  0  0  0  0
   -0.9500   15.9260    0.1690 S   0  0  0  0  0  0  0  0  0  0  0  0
   -1.6840   13.1740   -0.7760 C   0  0  0  0  0  0  0  0  0  0  0  0
   -2.7210   14.4140    0.9950 C   0  0  1  0  0  0  0  0  0  0  0  0
   -2.4970   15.1530   -0.3130 C   0  0  1  0  0  0  0  0  0  0  0  0
   -0.3930   12.5390   -1.2650 C   0  0  0  0  0  0  0  0  0  0  0  0
   -4.1550   13.8850    1.1030 C   0  0  0  0  0  0  0  0  0  0  0  0
   -3.6570   15.8380   -0.9220 C   0  0  0  0  0  0  0  0  0  0  0  0
    0.0440   12.7910   -2.5560 O   0  0  0  0  0  0  0  0  0  0  0  0
   -5.1060   15.0730    0.9490 C   0  0  1  0  0  0  0  0  0  0  0  0
   -4.8650   15.7970   -0.3420 C   0  0  0  0  0  0  0  0  0  0  0  0
   -6.4580   14.6250    0.9860 O   0  0  0  0  0  0  0  0  0  0  0  0
    0.3560   11.6010   -3.0740 C   0  0  0  0  0  0  0  0  0  0  0  0
   -6.9540   14.5620    2.3170 C   0  0  0  0  0  0  0  0  0  0  0  0
    0.4170   10.5340   -2.4330 O   0  0  0  0  0  0  0  0  0  0  0  0
    0.5880   11.6940   -4.4670 C   0  0  0  0  0  0  0  0  0  0  0  0
    1.4590   12.5310   -5.1860 C   0  0  0  0  0  0  0  0  0  0  0  0
   -0.0250   10.9350   -5.4140 C   0  0  0  0  0  0  0  0  0  0  0  0
    1.3980   12.3000   -6.4940 N   0  0  0  0  0  0  0  0  0  0  0  0
    0.4760   11.3050   -6.6200 N   0  0  0  0  0  0  0  0  0  0  0  0
    0.1040   10.7360   -7.8550 C   0  0  0  0  0  0  0  0  0  0  0  0
   -1.0450    9.9430   -7.8860 C   0  0  0  0  0  0  0  0  0  0  0  0
    0.8260   10.9230   -9.0310 C   0  0  0  0  0  0  0  0  0  0  0  0
   -1.4530    9.3560   -9.0790 C   0  0  0  0  0  0  0  0  0  0  0  0
    0.4220   10.3400  -10.2180 C   0  0  0  0  0  0  0  0  0  0  0  0
   -0.7180    9.5550  -10.2470 C   0  0  0  0  0  0  0  0  0  0  0  0
  2  1  1  1
  2  3  1  0
  2  4  1  0
  3  5  1  0
  3  6  1  0
  4  7  1  0
  6  7  1  0
  5  8  1  0
  6  9  1  6
  7 10  1  1
  8 11  1  0
  9 12  1  0
 10 13  2  0
 12 13  1  0
 12 14  1  6
 11 15  1  0
 14 16  1  0
 15 17  2  0
 15 18  1  0
 18 19  1  0
 18 20  2  0
 19 21  2  0
 20 22  1  0
 21 22  1  0
 22 23  1  0
 23 24  2  0
 23 25  1  0
 24 26  1  0
 25 27  2  0
 26 28  2  0
 27 28  1  0
M  END
