diamond-x0711_0_A-diamond-x0685_0_A
     RDKit          3D

 16 16  0  0  0  0  0  0  0  0999 V2000
   -1.6390   15.0550   -2.6670 N   0  0  0  0  0  0  0  0  0  0  0  0
   -0.5670   13.8370   -3.0920 S   0  0  0  0  0  0  0  0  0  0  0  0
   -1.6090   12.6890   -3.9660 C   0  0  0  0  0  0  0  0  0  0  0  0
   -2.8010   14.9180   -1.8470 C   0  0  0  0  0  0  0  0  0  0  0  0
    0.3910   14.3850   -4.0260 O   0  0  0  0  0  0  0  0  0  0  0  0
   -0.1370   13.2130   -1.8580 O   0  0  0  0  0  0  0  0  0  0  0  0
   -4.0420   15.1730   -2.4280 C   0  0  0  0  0  0  0  0  0  0  0  0
   -2.7340   14.5570   -0.4960 C   0  0  0  0  0  0  0  0  0  0  0  0
   -5.2120   15.0690   -1.6680 C   0  0  0  0  0  0  0  0  0  0  0  0
   -3.9080   14.4520    0.2700 C   0  0  0  0  0  0  0  0  0  0  0  0
   -5.1550   14.7090   -0.3140 C   0  0  0  0  0  0  0  0  0  0  0  0
   -6.4410   14.6170    0.4450 C   0  0  0  0  0  0  0  0  0  0  0  0
   -6.3760   14.6460    1.8300 N   0  0  0  0  0  0  0  0  0  0  0  0
   -7.5000   14.5280   -0.1740 O   0  0  0  0  0  0  0  0  0  0  0  0
   -7.5660   14.7790    2.6420 C   0  0  0  0  0  0  0  0  0  0  0  0
   -8.0350   13.4260    3.1430 C   0  0  0  0  0  0  0  0  0  0  0  0
  2  1  1  0
  2  3  1  0
  1  4  1  0
  2  5  2  0
  2  6  2  0
  4  7  2  0
  4  8  1  0
  7  9  1  0
  8 10  2  0
  9 11  2  0
 10 11  1  0
 11 12  1  0
 12 13  1  0
 12 14  2  0
 13 15  1  0
 15 16  1  0
M  END
