diamond-x0962_0_A-mac-x0271
     RDKit          3D

 13 14  0  0  0  0  0  0  0  0999 V2000
   -2.8180   15.0370   -2.5300 N   0  0  0  0  0  0  0  0  0  0  0  0
   -3.4680   15.0540   -1.5660 C   0  0  0  0  0  0  0  0  0  0  0  0
   -4.2110   15.0040   -0.3260 C   0  0  0  0  0  0  0  0  0  0  0  0
   -3.4110   14.9500    0.6740 N   0  0  0  0  0  0  0  0  0  0  0  0
   -5.6880   14.9870   -0.1810 C   0  0  0  0  0  0  0  0  0  0  0  0
   -4.0050   14.8600    1.8880 C   0  0  0  0  0  0  0  0  0  0  0  0
   -6.1770   14.8250    1.1600 C   0  0  0  0  0  0  0  0  0  0  0  0
   -6.5860   15.1070   -1.1540 C   0  0  0  0  0  0  0  0  0  0  0  0
   -5.2670   14.7930    2.1280 N   0  0  0  0  0  0  0  0  0  0  0  0
   -7.4840   14.7390    1.4360 C   0  0  0  0  0  0  0  0  0  0  0  0
   -7.9810   15.0700   -0.9050 O   0  0  0  0  0  0  0  0  0  0  0  0
   -8.4770   14.8290    0.3600 C   0  0  0  0  0  0  0  0  0  0  0  0
   -9.6720   14.7130    0.5940 O   0  0  0  0  0  0  0  0  0  0  0  0
  1  2  3  0
  2  3  1  0
  3  4  2  0
  3  5  1  0
  4  6  1  0
  5  7  1  0
  5  8  2  0
  6  9  2  0
  7  9  1  0
  7 10  2  0
  8 11  1  0
 10 12  1  0
 11 12  1  0
 12 13  2  0
M  END
