diamond-x0849_0_A-diamond-x0685_1_A
     RDKit          3D

 25 27  0  0  0  0  0  0  0  0999 V2000
   -3.8410   15.1990   -2.7770 Br  0  0  0  0  0  0  0  0  0  0  0  0
   -3.7140   15.1620   -0.8830 C   0  0  0  0  0  0  0  0  0  0  0  0
   -2.5020   14.9100   -0.2480 C   0  0  0  0  0  0  0  0  0  0  0  0
   -4.8510   15.3870   -0.1430 C   0  0  0  0  0  0  0  0  0  0  0  0
   -2.4710   14.8850    1.1390 C   0  0  0  0  0  0  0  0  0  0  0  0
   -4.7080   15.3420    1.2230 C   0  0  0  0  0  0  0  0  0  0  0  0
   -1.3230   14.6850   -0.9270 C   0  0  0  0  0  0  0  0  0  0  0  0
   -3.5510   15.0980    1.8440 N   0  0  0  0  0  0  0  0  0  0  0  0
   -1.3600   14.6470    1.8100 N   0  0  0  0  0  0  0  0  0  0  0  0
   -0.1570   14.4480   -0.2540 C   0  0  0  0  0  0  0  0  0  0  0  0
    1.0290   14.2290   -1.1130 C   0  0  0  0  0  0  0  0  0  0  0  0
   -0.2320   14.4370    1.1300 C   0  0  0  0  0  0  0  0  0  0  0  0
    0.4590   13.6550   -2.2720 O   0  0  0  0  0  0  0  0  0  0  0  0
    0.9610   12.2830   -2.9170 S   0  0  0  0  0  0  0  0  0  0  0  0
    0.2560   12.3570   -4.5520 C   0  0  0  0  0  0  0  0  0  0  0  0
    2.5460   12.2840   -3.1370 O   0  0  0  0  0  0  0  0  0  0  0  0
    0.4170   10.9210   -2.2150 O   0  0  0  0  0  0  0  0  0  0  0  0
   -1.2310   12.0150   -4.5340 C   0  0  0  0  0  0  0  0  0  0  0  0
   -1.4320   10.6150   -4.9480 N   0  0  0  0  0  0  0  0  0  0  0  0
   -0.8510   10.2870   -6.2640 C   0  0  0  0  0  0  0  0  0  0  0  0
   -0.5610    8.7920   -6.4790 C   0  0  0  0  0  0  0  0  0  0  0  0
   -1.6550   10.9310   -7.4130 C   0  0  0  0  0  0  0  0  0  0  0  0
    0.1290    8.5480   -7.8120 C   0  0  0  0  0  0  0  0  0  0  0  0
   -0.9960   10.6520   -8.7610 C   0  0  0  0  0  0  0  0  0  0  0  0
   -0.6770    9.1640   -8.9580 C   0  0  0  0  0  0  0  0  0  0  0  0
  1  2  1  0
  2  3  2  0
  2  4  1  0
  3  5  1  0
  4  6  2  0
  3  7  1  0
  5  8  2  0
  6  8  1  0
  5  9  1  0
  7 10  2  0
 10 11  1  0
  9 12  2  0
 10 12  1  0
 11 13  1  0
 14 13  1  0
 14 15  1  0
 14 16  1  0
 14 17  1  0
 15 18  1  0
 18 19  1  0
 19 20  1  0
 20 21  1  0
 20 22  1  0
 21 23  1  0
 22 24  1  0
 23 25  1  0
 24 25  1  0
M  END
