diamond-x0797_0_B-diamond-x0417_0_B
     RDKit          3D

 23 25  0  0  0  0  0  0  0  0999 V2000
   -8.0790   30.1690  -14.8160 C   0  0  0  0  0  0  0  0  0  0  0  0
   -6.8960   29.2950  -14.3570 C   0  0  1  0  0  0  0  0  0  0  0  0
   -5.6400   30.0330  -14.8350 C   0  0  0  0  0  0  0  0  0  0  0  0
   -6.9250   29.0420  -12.8410 C   0  0  2  0  0  0  0  0  0  0  0  0
   -5.5610   28.5690  -12.2840 C   0  0  0  0  0  0  0  0  0  0  0  0
   -4.2880   29.5600  -14.3030 C   0  0  1  0  0  0  0  0  0  0  0  0
   -7.9890   27.9820  -12.4000 C   0  0  1  0  0  0  0  0  0  0  0  0
   -4.3320   29.2980  -12.7920 C   0  0  2  0  0  0  0  0  0  0  0  0
   -7.3450   26.5910  -12.3970 C   0  0  2  0  0  0  0  0  0  0  0  0
   -8.5240   28.0940  -10.9960 C   0  0  0  0  0  0  0  0  0  0  0  0
   -3.6360   28.3800  -15.0470 C   0  0  0  0  0  0  0  0  0  0  0  0
   -3.3790   30.7030  -14.7210 C   0  0  0  0  0  0  0  0  0  0  0  0
   -7.3550   25.9290  -13.7520 C   0  0  0  0  0  0  0  0  0  0  0  0
   -3.3010   28.4910  -12.4770 F   0  0  0  0  0  0  0  0  0  0  0  0
   -3.4240   31.8090  -14.2440 O   0  0  0  0  0  0  0  0  0  0  0  0
   -8.3140   26.8480  -10.3230 O   0  0  0  0  0  0  0  0  0  0  0  0
   -8.1480   25.8660  -11.3440 C   0  0  0  0  0  0  0  0  0  0  0  0
   -2.4100   30.3720  -15.8400 C   0  0  1  0  0  0  0  0  0  0  0  0
   -2.8110   28.9460  -16.2050 C   0  0  0  0  0  0  0  0  0  0  0  0
   -8.3070   26.4050  -14.5820 O   0  0  0  0  0  0  0  0  0  0  0  0
   -6.6030   25.0550  -14.1280 O   0  0  0  0  0  0  0  0  0  0  0  0
   -2.6690   31.3430  -16.9210 N   0  0  0  0  0  0  0  0  0  0  0  0
   -1.4590   31.7110  -17.6420 C   0  0  0  0  0  0  0  0  0  0  0  0
  2  1  1  1
  2  3  1  0
  2  4  1  0
  4  5  1  6
  6  3  1  6
  4  7  1  0
  5  8  1  0
  6  8  1  0
  7  9  1  0
  7 10  1  1
  6 11  1  0
  6 12  1  0
  9 13  1  6
  8 14  1  6
 12 15  2  0
 10 16  1  0
  9 17  1  0
 16 17  1  0
 12 18  1  0
 11 19  1  0
 18 19  1  0
 13 20  1  0
 13 21  2  0
 18 22  1  6
 22 23  1  0
M  END
