diamond-x0282_0_A-mac-x0344
     RDKit          3D

 27 29  0  0  0  0  0  0  0  0999 V2000
   -7.0630   13.3670    0.7040 C   0  0  0  0  0  0  0  0  0  0  0  0
   -8.4310   13.5880    0.3670 O   0  0  0  0  0  0  0  0  0  0  0  0
   -6.3350   14.6930    0.5580 C   0  0  0  0  0  0  0  0  0  0  0  0
   -5.3590   15.0190    1.7070 C   0  0  0  0  0  0  0  0  0  0  0  0
   -5.6370   14.8700   -0.7920 C   0  0  0  0  0  0  0  0  0  0  0  0
   -4.1260   14.1400    1.6850 C   0  0  0  0  0  0  0  0  0  0  0  0
   -4.2890   14.1560   -0.8250 C   0  0  0  0  0  0  0  0  0  0  0  0
   -3.5280   14.3720    0.4030 N   0  0  0  0  0  0  0  0  0  0  0  0
   -2.1780   14.4420    0.3060 C   0  0  0  0  0  0  0  0  0  0  0  0
   -1.7390   14.4040   -0.9420 N   0  0  0  0  0  0  0  0  0  0  0  0
   -1.3860   14.5410    1.3830 N   0  0  0  0  0  0  0  0  0  0  0  0
   -0.4370   14.4700   -1.1920 C   0  0  0  0  0  0  0  0  0  0  0  0
   -0.0730   14.6130    1.1080 C   0  0  0  0  0  0  0  0  0  0  0  0
   -0.0900   14.4140   -2.6730 C   0  0  0  0  0  0  0  0  0  0  0  0
    0.4680   14.5830   -0.1750 C   0  0  0  0  0  0  0  0  0  0  0  0
    1.2560   13.9900   -3.0710 N   0  0  0  0  0  0  0  0  0  0  0  0
    1.4060   12.8710   -3.6810 C   0  0  0  0  0  0  0  0  0  0  0  0
    2.6400   12.5910   -4.0630 O   0  0  0  0  0  0  0  0  0  0  0  0
    0.4070   11.7680   -4.0710 C   0  0  0  0  0  0  0  0  0  0  0  0
    0.0370   11.0060   -3.1840 O   0  0  0  0  0  0  0  0  0  0  0  0
    0.0500   11.7600   -5.4040 N   0  0  0  0  0  0  0  0  0  0  0  0
   -0.7100   10.7630   -6.0560 C   0  0  0  0  0  0  0  0  0  0  0  0
   -0.3300   10.1540   -7.2530 C   0  0  0  0  0  0  0  0  0  0  0  0
   -1.9140   10.3710   -5.4540 C   0  0  0  0  0  0  0  0  0  0  0  0
   -1.1400    9.1720   -7.8370 C   0  0  0  0  0  0  0  0  0  0  0  0
   -2.7220    9.3920   -6.0370 C   0  0  0  0  0  0  0  0  0  0  0  0
   -2.3360    8.7910   -7.2310 C   0  0  0  0  0  0  0  0  0  0  0  0
  1  2  1  0
  1  3  1  0
  3  4  1  0
  3  5  1  0
  4  6  1  0
  5  7  1  0
  6  8  1  0
  7  8  1  0
  8  9  1  0
  9 10  2  0
  9 11  1  0
 10 12  1  0
 11 13  2  0
 12 14  1  0
 12 15  2  0
 13 15  1  0
 14 16  1  0
 16 17  2  3
 17 18  1  0
 17 19  1  0
 19 20  2  0
 19 21  1  0
 21 22  1  0
 22 23  2  0
 22 24  1  0
 23 25  1  0
 24 26  2  0
 25 27  2  0
 26 27  1  0
M  END
