diamond-x0685_1_A-mac-x0565
     RDKit          3D

 25 27  0  0  0  0  0  0  0  0999 V2000
   -1.3040   10.9210   -5.0970 N   0  0  0  0  0  0  0  0  0  0  0  0
   -1.1270   12.3680   -4.9560 C   0  0  0  0  0  0  0  0  0  0  0  0
    0.2430   12.7500   -4.4180 C   0  0  0  0  0  0  0  0  0  0  0  0
   -0.7170   10.4230   -6.3380 C   0  0  0  0  0  0  0  0  0  0  0  0
   -0.6340    8.8980   -6.4370 C   0  0  0  0  0  0  0  0  0  0  0  0
   -1.5400   10.9600   -7.5230 C   0  0  0  0  0  0  0  0  0  0  0  0
    0.5830   12.3920   -2.6960 S   0  0  0  0  0  0  0  0  0  0  0  0
    0.0050    8.4750   -7.7600 C   0  0  0  0  0  0  0  0  0  0  0  0
   -1.0050   10.5310   -8.8910 C   0  0  0  0  0  0  0  0  0  0  0  0
    2.1670   12.6310   -2.6060 O   0  0  0  0  0  0  0  0  0  0  0  0
    0.3260   10.8110   -2.4100 O   0  0  0  0  0  0  0  0  0  0  0  0
   -0.2240   13.4190   -1.6710 O   0  0  0  0  0  0  0  0  0  0  0  0
   -0.7350    9.0300   -8.9830 C   0  0  0  0  0  0  0  0  0  0  0  0
   -0.9540   14.5640   -2.1200 N   0  0  0  0  0  0  0  0  0  0  0  0
   -2.3940   14.6910   -2.1280 C   0  0  0  0  0  0  0  0  0  0  0  0
   -0.6500   15.0300   -3.4850 C   0  0  0  0  0  0  0  0  0  0  0  0
   -3.3280   14.6880   -1.0740 C   0  0  0  0  0  0  0  0  0  0  0  0
   -2.8400   14.8480   -3.4330 C   0  0  0  0  0  0  0  0  0  0  0  0
   -1.8150   14.8410   -4.3360 O   0  0  0  0  0  0  0  0  0  0  0  0
   -4.7050   14.8460   -1.4000 C   0  0  0  0  0  0  0  0  0  0  0  0
   -4.1670   14.9950   -3.7650 C   0  0  0  0  0  0  0  0  0  0  0  0
   -5.8060   14.8680   -0.3930 C   0  0  0  0  0  0  0  0  0  0  0  0
   -5.1070   14.9950   -2.7380 C   0  0  0  0  0  0  0  0  0  0  0  0
   -5.3980   14.9290    0.8870 O   0  0  0  0  0  0  0  0  0  0  0  0
   -6.9870   14.8310   -0.7030 O   0  0  0  0  0  0  0  0  0  0  0  0
  1  2  1  0
  2  3  1  0
  1  4  1  0
  4  5  1  0
  4  6  1  0
  3  7  1  0
  5  8  1  0
  6  9  1  0
  7 10  1  0
  7 11  1  0
  7 12  1  0
  8 13  1  0
  9 13  1  0
 12 14  1  0
 14 15  1  0
 14 16  1  0
 15 17  2  0
 15 18  1  0
 16 19  1  0
 18 19  1  0
 17 20  1  0
 18 21  2  0
 20 22  1  0
 20 23  2  0
 21 23  1  0
 22 24  1  0
 22 25  2  0
M  END
