diamond-x0421_0_A-diamond-x0950_1_A
     RDKit          3D

 19 20  0  0  0  0  0  0  0  0999 V2000
   -3.5570   15.0990   -2.7550 N   0  0  0  0  0  0  0  0  0  0  0  0
   -2.7710   14.8230   -1.6690 C   0  0  0  0  0  0  0  0  0  0  0  0
   -1.5220   14.5600   -1.7520 N   0  0  0  0  0  0  0  0  0  0  0  0
   -3.4960   14.8570   -0.4120 C   0  0  0  0  0  0  0  0  0  0  0  0
   -0.6810   14.4800   -2.9270 C   0  0  0  0  0  0  0  0  0  0  0  0
   -2.9500   15.0510    0.8380 C   0  0  0  0  0  0  0  0  0  0  0  0
   -4.8750   14.6840   -0.3110 N   0  0  0  0  0  0  0  0  0  0  0  0
    0.7850   14.4990   -2.4600 C   0  0  0  0  0  0  0  0  0  0  0  0
   -3.9920   14.9900    1.7030 N   0  0  0  0  0  0  0  0  0  0  0  0
   -5.1190   14.7670    0.9830 C   0  0  0  0  0  0  0  0  0  0  0  0
    1.2730   13.1560   -2.2430 O   0  0  0  0  0  0  0  0  0  0  0  0
   -6.5100   14.6290    1.6490 C   0  0  0  0  0  0  0  0  0  0  0  0
    0.9060   12.2020   -3.1380 C   0  0  0  0  0  0  0  0  0  0  0  0
   -7.7540   14.6880    0.8060 C   0  0  0  0  0  0  0  0  0  0  0  0
   -7.3140   13.3840    1.4070 C   0  0  0  0  0  0  0  0  0  0  0  0
    1.3760   12.5180   -4.5670 C   0  0  2  0  0  0  0  0  0  0  0  0
    0.2860   11.1810   -2.8540 O   0  0  0  0  0  0  0  0  0  0  0  0
    1.1000   13.9450   -5.0040 C   0  0  0  0  0  0  0  0  0  0  0  0
    0.7190   11.6540   -5.4980 O   0  0  0  0  0  0  0  0  0  0  0  0
  1  2  1  0
  2  3  2  3
  2  4  1  0
  3  5  1  0
  4  6  2  0
  4  7  1  0
  5  8  1  0
  6  9  1  0
  7 10  2  0
  9 10  1  0
  8 11  1  0
 10 12  1  0
 11 13  1  0
 12 14  1  0
 12 15  1  0
 14 15  1  0
 13 16  1  0
 13 17  2  0
 16 18  1  6
 16 19  1  0
M  END
