diamond-x0104_0_A-mac-x0142
     RDKit          3D

 34 39  0  0  0  0  0  0  0  0999 V2000
   -7.0080   14.4300    2.6230 N   0  0  0  0  0  0  0  0  0  0  0  0
   -8.1360   15.0470    3.1460 C   0  0  0  0  0  0  0  0  0  0  0  0
   -8.0570   15.1320    4.5280 N   0  0  0  0  0  0  0  0  0  0  0  0
   -6.5450   14.4550    1.2900 C   0  0  0  0  0  0  0  0  0  0  0  0
   -9.0700   15.4610    2.4720 O   0  0  0  0  0  0  0  0  0  0  0  0
   -5.2630   14.0920    0.9050 C   0  0  0  0  0  0  0  0  0  0  0  0
   -7.4080   14.8710    0.2710 C   0  0  0  0  0  0  0  0  0  0  0  0
   -4.8110   14.1280   -0.3710 N   0  0  0  0  0  0  0  0  0  0  0  0
   -6.9650   14.9250   -1.0520 C   0  0  0  0  0  0  0  0  0  0  0  0
   -9.1470   15.1140    5.3720 C   0  0  0  0  0  0  0  0  0  0  0  0
   -5.6650   14.5510   -1.3240 C   0  0  0  0  0  0  0  0  0  0  0  0
   -9.2720   15.2160    6.7360 C   0  0  0  0  0  0  0  0  0  0  0  0
  -10.6480   14.9270    4.5900 S   0  0  0  0  0  0  0  0  0  0  0  0
   -5.2470   14.6290   -2.6390 O   0  0  0  0  0  0  0  0  0  0  0  0
  -11.4960   14.9810    6.0790 C   0  0  0  0  0  0  0  0  0  0  0  0
  -10.6390   15.1390    7.1480 C   0  0  0  0  0  0  0  0  0  0  0  0
   -3.9120   15.1280   -2.6920 C   0  0  0  0  0  0  0  0  0  0  0  0
   -3.4870   15.2570   -1.2890 C   0  0  0  0  0  0  0  0  0  0  0  0
   -2.1950   14.9200   -0.7800 C   0  0  0  0  0  0  0  0  0  0  0  0
   -4.1660   15.7110   -0.2160 C   0  0  0  0  0  0  0  0  0  0  0  0
   -2.3690   15.0860    0.6860 C   0  0  0  0  0  0  0  0  0  0  0  0
   -0.9920   14.5710   -1.2770 C   0  0  0  0  0  0  0  0  0  0  0  0
   -3.5060   15.6220    0.9950 N   0  0  0  0  0  0  0  0  0  0  0  0
   -0.7320   14.4290   -2.6550 N   0  0  0  0  0  0  0  0  0  0  0  0
   -0.0090   14.3840   -0.3260 N   0  0  0  0  0  0  0  0  0  0  0  0
   -1.4130   14.7230    1.5670 N   0  0  0  0  0  0  0  0  0  0  0  0
   -1.8110   14.1860   -3.6380 C   0  0  0  0  0  0  0  0  0  0  0  0
    0.5510   14.8230   -3.2540 C   0  0  0  0  0  0  0  0  0  0  0  0
   -0.3070   14.4010    1.0200 C   0  0  0  0  0  0  0  0  0  0  0  0
    0.9440   13.6680   -4.1350 C   0  0  0  0  0  0  0  0  0  0  0  0
   -1.4030   13.1660   -4.7110 C   0  0  0  0  0  0  0  0  0  0  0  0
    2.3850   13.2460   -4.2890 C   0  0  0  0  0  0  0  0  0  0  0  0
    1.4600   12.4400   -3.4230 C   0  0  0  0  0  0  0  0  0  0  0  0
   -0.0150   13.4540   -5.2750 C   0  0  0  0  0  0  0  0  0  0  0  0
  1  2  1  0
  2  3  1  0
  1  4  1  0
  2  5  2  0
  4  6  2  0
  4  7  1  0
  6  8  1  0
  7  9  2  0
  3 10  1  0
  8 11  2  0
  9 11  1  0
 10 12  2  0
 10 13  1  0
 11 14  1  0
 13 15  1  0
 12 16  1  0
 15 16  2  0
 14 17  1  0
 17 18  1  0
 18 19  1  0
 18 20  2  0
 19 21  1  0
 19 22  2  0
 20 23  1  0
 21 23  2  0
 22 24  1  0
 22 25  1  0
 21 26  1  0
 24 27  1  0
 24 28  1  0
 25 29  1  0
 26 29  2  0
 30 28  1  0
 27 31  1  0
 30 32  1  0
 30 33  1  0
 32 33  1  0
 30 34  1  0
 31 34  1  0
M  END
