diamond-x0933_0_A-diamond-x1018_0_A
     RDKit          3D

 11 12  0  0  0  0  0  0  0  0999 V2000
   -6.2430   14.2140    2.0730 N   0  0  0  0  0  0  0  0  0  0  0  0
   -5.2650   14.9180    1.2660 C   0  0  1  0  0  0  0  0  0  0  0  0
   -3.9530   14.3530    1.6130 N   0  0  0  0  0  0  0  0  0  0  0  0
   -5.6070   15.1770   -0.1300 N   0  0  0  0  0  0  0  0  0  0  0  0
   -7.2320   14.7080   -0.5060 Cl  0  0  0  0  0  0  0  0  0  0  0  0
   -4.6240   14.9890   -1.0440 C   0  0  0  0  0  0  0  0  0  0  0  0
   -2.9250   15.0400    0.8050 C   0  0  0  0  0  0  0  0  0  0  0  0
   -3.3290   14.9210   -0.6040 C   0  0  0  0  0  0  0  0  0  0  0  0
   -4.6970   14.8510   -2.3980 N   0  0  0  0  0  0  0  0  0  0  0  0
   -2.5720   14.7350   -1.7210 N   0  0  0  0  0  0  0  0  0  0  0  0
   -3.4420   14.6990   -2.7830 C   0  0  0  0  0  0  0  0  0  0  0  0
  2  1  1  6
  2  3  1  0
  2  4  1  0
  4  5  1  0
  4  6  1  0
  3  7  1  0
  6  8  2  0
  7  8  1  0
  6  9  1  0
  8 10  1  0
  9 11  2  0
 10 11  1  0
M  END
