diamond-x0905_0_A-mac-x0565
     RDKit          3D

 18 20  0  0  0  0  0  0  0  0999 V2000
   -6.4310   14.8290   -0.0480 N   0  0  0  0  0  0  0  0  0  0  0  0
   -6.5160   14.5130   -1.2640 C   0  0  0  0  0  0  0  0  0  0  0  0
   -7.6540   14.1770   -1.8710 O   0  0  0  0  0  0  0  0  0  0  0  0
   -5.1170   15.0910    0.2060 C   0  0  0  0  0  0  0  0  0  0  0  0
   -4.6420   14.6590    1.3710 N   0  0  0  0  0  0  0  0  0  0  0  0
   -4.3560   15.7540   -0.7400 C   0  0  0  0  0  0  0  0  0  0  0  0
   -5.2940   14.5230   -2.1110 C   0  0  0  0  0  0  0  0  0  0  0  0
   -3.3410   14.8920    1.5990 C   0  0  0  0  0  0  0  0  0  0  0  0
   -3.0130   15.9760   -0.4780 C   0  0  0  0  0  0  0  0  0  0  0  0
   -4.0040   14.3180   -1.5690 C   0  0  0  0  0  0  0  0  0  0  0  0
   -5.4480   14.7610   -3.4830 C   0  0  0  0  0  0  0  0  0  0  0  0
   -2.4890   15.5360    0.7200 C   0  0  0  0  0  0  0  0  0  0  0  0
   -2.9250   14.3840   -2.4340 C   0  0  0  0  0  0  0  0  0  0  0  0
   -4.3340   14.8150   -4.3300 C   0  0  0  0  0  0  0  0  0  0  0  0
   -3.0900   14.6290   -3.7750 C   0  0  0  0  0  0  0  0  0  0  0  0
   -1.6080   14.2330   -2.1100 O   0  0  0  0  0  0  0  0  0  0  0  0
   -1.9030   14.6620   -4.4390 O   0  0  0  0  0  0  0  0  0  0  0  0
   -1.0100   14.7600   -3.3130 C   0  0  0  0  0  0  0  0  0  0  0  0
  1  2  2  3
  2  3  1  0
  1  4  1  0
  4  5  2  0
  4  6  1  0
  2  7  1  0
  5  8  1  0
  6  9  2  0
  7 10  2  0
  7 11  1  0
  8 12  2  0
  9 12  1  0
 10 13  1  0
 11 14  2  0
 13 15  2  0
 14 15  1  0
 13 16  1  0
 15 17  1  0
 16 18  1  0
 17 18  1  0
M  END
