diamond-x0711_0_A-mac-x0587
     RDKit          3D

 19 20  0  0  0  0  0  0  0  0999 V2000
   -2.0050   14.7150   -3.1220 C   0  0  0  0  0  0  0  0  0  0  0  0
   -0.3800   13.9510   -3.4210 S   0  0  1  0  0  0  0  0  0  0  0  0
   -0.8400   12.7630   -4.6590 C   0  0  0  0  0  0  0  0  0  0  0  0
   -2.2810   15.6570   -3.8790 O   0  0  0  0  0  0  0  0  0  0  0  0
   -3.0630   14.2860   -2.1300 C   0  0  2  0  0  0  0  0  0  0  0  0
    0.4790   14.9470   -4.0190 O   0  0  0  0  0  0  0  0  0  0  0  0
   -0.0160   12.9660   -2.2780 N   0  0  0  0  0  0  0  0  0  0  0  0
   -4.3430   14.9120   -2.5570 C   0  0  0  0  0  0  0  0  0  0  0  0
   -2.7070   14.6110   -0.7030 C   0  0  0  0  0  0  0  0  0  0  0  0
    0.0090   11.5560   -4.2910 C   0  0  0  0  0  0  0  0  0  0  0  0
    0.1860   11.6520   -2.7860 C   0  0  0  0  0  0  0  0  0  0  0  0
   -1.5340   14.8930   -0.4010 O   0  0  0  0  0  0  0  0  0  0  0  0
   -5.2490   15.3640   -1.7000 C   0  0  0  0  0  0  0  0  0  0  0  0
   -3.8400   14.5600    0.3060 C   0  0  0  0  0  0  0  0  0  0  0  0
    0.4690   10.6760   -2.0870 O   0  0  0  0  0  0  0  0  0  0  0  0
   -5.0900   15.3010   -0.2020 C   0  0  2  0  0  0  0  0  0  0  0  0
   -6.3600   14.6910    0.4060 C   0  0  0  0  0  0  0  0  0  0  0  0
   -6.2900   14.3840    1.7310 N   0  0  0  0  0  0  0  0  0  0  0  0
   -7.3990   14.4850   -0.2170 O   0  0  0  0  0  0  0  0  0  0  0  0
  2  1  1  1
  2  3  1  0
  1  4  2  0
  5  1  1  6
  2  6  2  0
  2  7  2  0
  5  8  1  0
  5  9  1  0
  3 10  1  0
  7 11  1  0
 10 11  1  0
  9 12  2  0
  8 13  2  0
  9 14  1  0
 11 15  2  0
 13 16  1  0
 14 16  1  0
 16 17  1  1
 17 18  1  0
 17 19  2  0
M  END
