diamond-x0253_0_A-mac-x0411
     RDKit          3D

 22 23  0  0  0  0  0  0  0  0999 V2000
    0.2700   11.4010   -5.6140 N   0  0  0  0  0  0  0  0  0  0  0  0
    0.9570   11.4310   -6.8010 C   0  0  0  0  0  0  0  0  0  0  0  0
    2.0310   11.9810   -6.8870 O   0  0  0  0  0  0  0  0  0  0  0  0
    0.5430   12.4350   -4.5820 C   0  0  0  0  0  0  0  0  0  0  0  0
   -0.9270   10.6020   -5.5900 C   0  0  0  0  0  0  0  0  0  0  0  0
    0.6010   12.0260   -3.1100 C   0  0  0  0  0  0  0  0  0  0  0  0
    0.3580   10.7390   -7.9730 C   0  0  0  0  0  0  0  0  0  0  0  0
   -2.1170   11.1320   -5.0440 C   0  0  0  0  0  0  0  0  0  0  0  0
   -0.9920    9.2520   -6.1110 C   0  0  0  0  0  0  0  0  0  0  0  0
    1.1430   12.6890   -2.2330 O   0  0  0  0  0  0  0  0  0  0  0  0
    0.0190   10.8610   -2.7840 O   0  0  0  0  0  0  0  0  0  0  0  0
    0.2870    8.3420   -6.8620 Cl  0  0  0  0  0  0  0  0  0  0  0  0
   -2.2320   12.7350   -4.3890 Cl  0  0  0  0  0  0  0  0  0  0  0  0
   -0.7930    9.9860   -7.7540 C   0  0  0  0  0  0  0  0  0  0  0  0
    0.9050   10.8160   -9.2560 C   0  0  0  0  0  0  0  0  0  0  0  0
   -3.2940   10.3820   -5.0050 C   0  0  0  0  0  0  0  0  0  0  0  0
   -2.1840    8.5320   -6.0490 C   0  0  0  0  0  0  0  0  0  0  0  0
   -1.4070    9.2930   -8.8000 C   0  0  0  0  0  0  0  0  0  0  0  0
    0.2950   10.1290  -10.3020 C   0  0  0  0  0  0  0  0  0  0  0  0
   -3.3250    9.0870   -5.5030 C   0  0  0  0  0  0  0  0  0  0  0  0
   -2.6440    8.4780   -8.5580 C   0  0  0  0  0  0  0  0  0  0  0  0
   -0.8530    9.3710  -10.0770 C   0  0  0  0  0  0  0  0  0  0  0  0
  1  2  1  0
  2  3  2  0
  1  4  1  0
  1  5  1  0
  4  6  1  0
  2  7  1  0
  5  8  2  0
  5  9  1  0
  6 10  2  0
  6 11  1  0
  9 12  1  0
  8 13  1  0
  7 14  2  0
  7 15  1  0
  8 16  1  0
  9 17  2  0
 14 18  1  0
 15 19  2  0
 16 20  2  0
 17 20  1  0
 18 21  1  0
 18 22  2  0
 19 22  1  0
M  END
