diamond-x0104_0_A-diamond-x0724_0_A
     RDKit          3D

 22 24  0  0  0  0  0  0  0  0999 V2000
   -7.4110   14.7250    2.1860 N   0  0  0  0  0  0  0  0  0  0  0  0
   -8.3200   14.9370    3.1810 C   0  0  0  0  0  0  0  0  0  0  0  0
   -8.2890   14.5970    4.6090 N   0  0  0  0  0  0  0  0  0  0  0  0
   -6.5470   14.6380    1.0970 C   0  0  1  0  0  0  0  0  0  0  0  0
   -9.4470   15.5350    2.9400 O   0  0  0  0  0  0  0  0  0  0  0  0
   -5.1110   14.7100    1.3470 C   0  0  0  0  0  0  0  0  0  0  0  0
   -6.8280   13.6600    0.0190 C   0  0  0  0  0  0  0  0  0  0  0  0
   -7.6610   13.4090    5.0440 C   0  0  0  0  0  0  0  0  0  0  0  0
   -4.4240   15.0310    0.1210 N   0  0  0  0  0  0  0  0  0  0  0  0
   -6.0570   13.5730   -0.9890 C   0  0  0  0  0  0  0  0  0  0  0  0
   -9.4120   14.9140    5.4090 C   0  0  0  0  0  0  0  0  0  0  0  0
   -4.8040   14.4440   -1.1260 C   0  0  1  0  0  0  0  0  0  0  0  0
   -9.5320   15.2140    6.7240 C   0  0  0  0  0  0  0  0  0  0  0  0
  -11.0630   14.9870    4.8590 S   0  0  0  0  0  0  0  0  0  0  0  0
   -3.0910   15.3090    0.3880 C   0  0  0  0  0  0  0  0  0  0  0  0
   -4.8510   15.2180   -2.2420 O   0  0  0  0  0  0  0  0  0  0  0  0
  -11.8100   15.3870    6.3260 C   0  0  0  0  0  0  0  0  0  0  0  0
  -10.7680   15.4600    7.2120 C   0  0  0  0  0  0  0  0  0  0  0  0
   -2.0800   14.7090   -0.1890 C   0  0  0  0  0  0  0  0  0  0  0  0
   -3.6640   13.5890   -1.5670 C   0  0  0  0  0  0  0  0  0  0  0  0
   -3.7540   15.2150   -3.0270 C   0  0  0  0  0  0  0  0  0  0  0  0
   -2.4310   13.6990   -1.1610 C   0  0  0  0  0  0  0  0  0  0  0  0
  1  2  1  0
  2  3  1  0
  4  1  1  1
  2  5  2  0
  4  6  1  0
  4  7  1  0
  3  8  1  0
  6  9  1  0
  7 10  2  0
  3 11  1  0
  9 12  1  0
 10 12  1  0
 11 13  2  0
 11 14  1  0
  9 15  1  0
 12 16  1  6
 14 17  1  0
 13 18  1  0
 17 18  2  0
 15 19  2  0
 12 20  1  0
 16 21  1  0
 19 22  1  0
 20 22  2  0
M  END
