diamond-x0592_0_A-mac-x0116
     RDKit          3D

 26 29  0  0  0  0  0  0  0  0999 V2000
   -4.2160   14.9240    0.6690 N   0  0  0  0  0  0  0  0  0  0  0  0
   -4.7940   14.3460   -0.3910 C   0  0  0  0  0  0  0  0  0  0  0  0
   -4.1930   13.6420   -1.2060 O   0  0  0  0  0  0  0  0  0  0  0  0
   -4.4680   14.1750    1.9210 C   0  0  0  0  0  0  0  0  0  0  0  0
   -3.0850   15.1180    0.0510 C   0  0  0  0  0  0  0  0  0  0  0  0
   -6.1180   14.6500   -0.4880 C   0  0  0  0  0  0  0  0  0  0  0  0
   -5.4720   13.0410    1.7730 C   0  0  0  0  0  0  0  0  0  0  0  0
   -3.2520   15.5390   -1.2520 N   0  0  0  0  0  0  0  0  0  0  0  0
   -1.9040   14.9120    0.4930 C   0  0  0  0  0  0  0  0  0  0  0  0
   -6.9370   15.0880   -1.5250 C   0  0  0  0  0  0  0  0  0  0  0  0
   -6.8870   14.5500    0.6030 C   0  0  0  0  0  0  0  0  0  0  0  0
   -5.6500   12.4850    0.5320 O   0  0  0  0  0  0  0  0  0  0  0  0
   -6.3110   12.3950    2.6710 C   0  0  0  0  0  0  0  0  0  0  0  0
   -2.2280   15.7020   -2.0830 C   0  0  0  0  0  0  0  0  0  0  0  0
   -0.8320   15.0850   -0.4680 C   0  0  0  0  0  0  0  0  0  0  0  0
   -1.4020   14.5100    1.6730 N   0  0  0  0  0  0  0  0  0  0  0  0
   -8.1830   15.2490   -1.0880 N   0  0  0  0  0  0  0  0  0  0  0  0
   -8.1010   14.9080    0.2210 N   0  0  0  0  0  0  0  0  0  0  0  0
   -7.0200   11.4120    1.9450 C   0  0  0  0  0  0  0  0  0  0  0  0
   -6.5830   11.5070    0.6520 C   0  0  0  0  0  0  0  0  0  0  0  0
   -1.0060   15.5020   -1.7600 N   0  0  0  0  0  0  0  0  0  0  0  0
    0.2630   14.7300    0.0840 N   0  0  0  0  0  0  0  0  0  0  0  0
   -0.1590   14.4080    1.3810 C   0  0  0  0  0  0  0  0  0  0  0  0
   -9.2090   14.9280    1.1170 C   0  0  0  0  0  0  0  0  0  0  0  0
   -8.7860   14.3640    2.4710 C   0  0  0  0  0  0  0  0  0  0  0  0
   -7.8310   15.2280    3.0880 O   0  0  0  0  0  0  0  0  0  0  0  0
  1  2  1  0
  2  3  2  0
  1  4  1  0
  1  5  1  0
  2  6  1  0
  4  7  1  0
  5  8  1  0
  5  9  2  0
  6 10  1  0
  6 11  2  0
  7 12  1  0
  7 13  2  0
  8 14  1  0
  9 15  1  0
  9 16  1  0
 10 17  2  0
 11 18  1  0
 17 18  1  0
 13 19  1  0
 12 20  1  0
 19 20  2  0
 14 21  2  0
 15 21  1  0
 15 22  2  0
 16 23  2  0
 22 23  1  0
 18 24  1  0
 24 25  1  0
 25 26  1  0
M  END
