diamond-x0681_0_A-mac-x0182
     RDKit          3D

 25 28  0  0  0  0  0  0  0  0999 V2000
   -3.7200   15.5740   -3.0650 N   0  0  0  0  0  0  0  0  0  0  0  0
   -3.6430   14.4800   -2.2500 C   0  0  0  0  0  0  0  0  0  0  0  0
   -3.1970   13.2990   -2.5570 N   0  0  0  0  0  0  0  0  0  0  0  0
   -4.2410   14.7140   -0.8390 C   0  0  1  0  0  0  0  0  0  0  0  0
   -2.7230   12.9240   -3.8940 C   0  0  0  0  0  0  0  0  0  0  0  0
   -5.0390   13.4920   -0.5670 C   0  0  0  0  0  0  0  0  0  0  0  0
   -3.4200   15.1770    0.3800 C   0  0  0  0  0  0  0  0  0  0  0  0
   -1.2930   12.7030   -3.8290 N   0  0  0  0  0  0  0  0  0  0  0  0
   -5.6580   13.3740    0.6060 N   0  0  0  0  0  0  0  0  0  0  0  0
   -4.0800   14.8420    1.7320 C   0  0  0  0  0  0  0  0  0  0  0  0
   -5.2570   12.4510   -1.3440 N   0  0  0  0  0  0  0  0  0  0  0  0
   -5.5410   14.4020    1.5850 C   0  0  0  0  0  0  0  0  0  0  0  0
   -6.3320   12.1970    0.6350 C   0  0  0  0  0  0  0  0  0  0  0  0
   -6.0700   11.6350   -0.5950 C   0  0  0  0  0  0  0  0  0  0  0  0
   -0.5800   11.3800   -4.1320 S   0  0  2  0  0  0  0  0  0  0  0  0
    0.0030   10.4770   -3.1700 O   0  0  0  0  0  0  0  0  0  0  0  0
    0.7260   12.0440   -4.9560 N   0  0  0  0  0  0  0  0  0  0  0  0
   -1.1240   10.4230   -5.5030 C   0  0  0  0  0  0  0  0  0  0  0  0
    0.8270   11.5770   -6.2380 C   0  0  0  0  0  0  0  0  0  0  0  0
   -0.2540   10.6330   -6.5690 C   0  0  0  0  0  0  0  0  0  0  0  0
   -2.2080    9.5680   -5.5930 C   0  0  0  0  0  0  0  0  0  0  0  0
    1.7040   11.8690   -7.0030 O   0  0  0  0  0  0  0  0  0  0  0  0
   -2.4070    8.9060   -6.8180 C   0  0  0  0  0  0  0  0  0  0  0  0
   -0.4430    9.9820   -7.7850 C   0  0  0  0  0  0  0  0  0  0  0  0
   -1.5320    9.1120   -7.9020 C   0  0  0  0  0  0  0  0  0  0  0  0
  1  2  1  0
  2  3  2  3
  4  2  1  6
  3  5  1  0
  4  6  1  0
  4  7  1  0
  5  8  1  0
  6  9  1  0
  7 10  1  0
  6 11  2  0
  9 12  1  0
 10 12  1  0
  9 13  1  0
 11 14  1  0
 13 14  2  0
  8 15  2  0
 15 16  2  0
 15 17  1  6
 15 18  1  0
 17 19  1  0
 18 20  2  0
 19 20  1  0
 18 21  1  0
 19 22  2  0
 21 23  2  0
 20 24  1  0
 23 25  1  0
 24 25  2  0
M  END
