diamond-x0969_0_A-mac-x0263
     RDKit          3D

 15 16  0  0  0  0  0  0  0  0999 V2000
   -6.2830   13.3120    1.8550 N   0  0  0  0  0  0  0  0  0  0  0  0
   -6.3750   14.6720    1.4220 C   0  0  2  0  0  0  0  0  0  0  0  0
   -7.5650   14.8500    0.5730 N   0  0  0  0  0  0  0  0  0  0  0  0
   -5.2540   15.2090    0.6520 N   0  0  0  0  0  0  0  0  0  0  0  0
   -8.9260   14.5130    1.0000 C   0  0  0  0  0  0  0  0  0  0  0  0
   -7.0880   14.6620   -0.8340 N   0  0  0  0  0  0  0  0  0  0  0  0
   -5.7870   15.3870   -0.7030 C   0  0  2  0  0  0  0  0  0  0  0  0
   -3.9140   15.1380    0.9500 C   0  0  0  0  0  0  0  0  0  0  0  0
   -9.4890   15.6800    1.8250 C   0  0  0  0  0  0  0  0  0  0  0  0
   -4.7200   15.0860   -1.7270 C   0  0  0  0  0  0  0  0  0  0  0  0
   -2.9930   14.9970   -0.0070 C   0  0  0  0  0  0  0  0  0  0  0  0
  -10.7280   15.3910    2.6250 C   0  0  0  0  0  0  0  0  0  0  0  0
   -3.4200   14.9120   -1.3910 C   0  0  0  0  0  0  0  0  0  0  0  0
  -11.3580   14.2560    2.2790 O   0  0  0  0  0  0  0  0  0  0  0  0
  -11.1630   16.0990    3.5210 O   0  0  0  0  0  0  0  0  0  0  0  0
  2  1  1  6
  2  3  1  0
  2  4  1  0
  3  5  1  0
  3  6  1  0
  4  7  1  0
  6  7  1  0
  4  8  1  0
  5  9  1  0
  7 10  1  6
  8 11  2  0
  9 12  1  0
 10 13  2  0
 11 13  1  0
 12 14  1  0
 12 15  2  0
M  END
