diamond-x0910_0_A-diamond-x0685_1_A
     RDKit          3D

 19 20  0  0  0  0  0  0  0  0999 V2000
   -2.6910   14.1930   -1.8080 N   0  0  0  0  0  0  0  0  0  0  0  0
   -1.8840   14.4860   -0.7690 C   0  0  0  0  0  0  0  0  0  0  0  0
   -2.2320   14.8080    0.4630 N   0  0  0  0  0  0  0  0  0  0  0  0
   -0.5110   14.4920   -0.8620 N   0  0  0  0  0  0  0  0  0  0  0  0
    0.3200   14.2100   -1.9760 O   0  0  0  0  0  0  0  0  0  0  0  0
   -1.0820   15.0360    1.1840 N   0  0  0  0  0  0  0  0  0  0  0  0
   -0.0670   14.8490    0.3760 C   0  0  0  0  0  0  0  0  0  0  0  0
    0.5450   12.7410   -2.6500 S   0  0  0  0  0  0  0  0  0  0  0  0
   -0.1240   12.7760   -4.3260 C   0  0  0  0  0  0  0  0  0  0  0  0
    2.1020   12.3850   -2.8020 O   0  0  0  0  0  0  0  0  0  0  0  0
   -0.1770   11.5470   -1.8450 O   0  0  0  0  0  0  0  0  0  0  0  0
   -1.3760   11.9290   -4.5380 C   0  0  0  0  0  0  0  0  0  0  0  0
   -0.9720   10.5490   -4.8390 N   0  0  0  0  0  0  0  0  0  0  0  0
   -1.2710   10.0380   -6.1980 C   0  0  0  0  0  0  0  0  0  0  0  0
   -0.1380    9.1560   -6.7290 C   0  0  0  0  0  0  0  0  0  0  0  0
   -1.4870   11.1750   -7.2220 C   0  0  0  0  0  0  0  0  0  0  0  0
   -0.4870    8.4320   -8.0190 C   0  0  0  0  0  0  0  0  0  0  0  0
   -1.0860   10.8220   -8.6660 C   0  0  0  0  0  0  0  0  0  0  0  0
   -1.2150    9.3360   -9.0110 C   0  0  0  0  0  0  0  0  0  0  0  0
  1  2  1  0
  2  3  2  0
  2  4  1  0
  4  5  1  0
  3  6  1  0
  4  7  1  0
  6  7  2  0
  8  5  1  0
  8  9  1  0
  8 10  1  0
  8 11  1  0
  9 12  1  0
 12 13  1  0
 13 14  1  0
 14 15  1  0
 14 16  1  0
 15 17  1  0
 16 18  1  0
 17 19  1  0
 18 19  1  0
M  END
