diamond-x0724_0_A-diamond-x0849_0_A
     RDKit          3D

 20 22  0  0  0  0  0  0  0  0999 V2000
   -8.8140   13.8400    4.3310 N   0  0  0  0  0  0  0  0  0  0  0  0
   -8.6640   13.8620    5.7830 C   0  0  0  0  0  0  0  0  0  0  0  0
   -8.4040   15.1070    3.7220 C   0  0  0  0  0  0  0  0  0  0  0  0
   -7.7570   14.9050    2.3950 C   0  0  0  0  0  0  0  0  0  0  0  0
   -6.4120   14.8310    2.1200 C   0  0  0  0  0  0  0  0  0  0  0  0
   -8.3650   14.7510    1.1240 C   0  0  0  0  0  0  0  0  0  0  0  0
   -7.4730   14.5980    0.1360 N   0  0  0  0  0  0  0  0  0  0  0  0
   -6.2860   14.6530    0.7770 N   0  0  0  0  0  0  0  0  0  0  0  0
   -5.0330   14.5250    0.0510 C   0  0  2  0  0  0  0  0  0  0  0  0
   -3.9780   15.6080    0.2790 C   0  0  0  0  0  0  0  0  0  0  0  0
   -5.1690   14.3390   -1.4540 C   0  0  0  0  0  0  0  0  0  0  0  0
   -2.6090   14.9050    0.1490 C   0  0  1  0  0  0  0  0  0  0  0  0
   -3.7890   14.0190   -2.0170 C   0  0  1  0  0  0  0  0  0  0  0  0
   -3.1510   15.4230   -3.2120 Br  0  0  0  0  0  0  0  0  0  0  0  0
   -2.7480   13.7740   -0.9200 C   0  0  0  0  0  0  0  0  0  0  0  0
   -1.3750   15.7760   -0.2420 C   0  0  0  0  0  0  0  0  0  0  0  0
   -2.3170   14.3070    1.5530 C   0  0  0  0  0  0  0  0  0  0  0  0
   -0.8980   14.0140    1.7370 N   0  0  0  0  0  0  0  0  0  0  0  0
   -0.2050   14.8720   -0.3260 C   0  0  0  0  0  0  0  0  0  0  0  0
   -0.0540   14.0340    0.6730 C   0  0  0  0  0  0  0  0  0  0  0  0
  1  2  1  0
  1  3  1  0
  3  4  1  0
  4  5  2  0
  4  6  1  0
  6  7  2  0
  5  8  1  0
  7  8  1  0
  9  8  1  6
  9 10  1  0
  9 11  1  0
 12 10  1  1
 11 13  1  0
 13 14  1  1
 12 15  1  0
 13 15  1  0
 12 16  1  0
 12 17  1  0
 17 18  1  0
 16 19  1  0
 18 20  1  0
 19 20  2  0
M  END
