diamond-x1015_0_A-diamond-x0900_1_A
     RDKit          3D

 19 21  0  0  0  0  0  0  0  0999 V2000
   -1.2600   14.5900   -4.1550 C   0  0  0  0  0  0  0  0  0  0  0  0
    0.0340   13.8520   -3.8130 C   0  0  2  0  0  0  0  0  0  0  0  0
   -0.1220   12.4110   -3.7480 N   0  0  0  0  0  0  0  0  0  0  0  0
    0.4060   14.1250   -2.3640 C   0  0  0  0  0  0  0  0  0  0  0  0
    0.4810   15.2200   -1.8370 O   0  0  0  0  0  0  0  0  0  0  0  0
    0.2910   11.8930   -2.5140 C   0  0  0  0  0  0  0  0  0  0  0  0
    0.6440   12.9470   -1.7380 N   0  0  0  0  0  0  0  0  0  0  0  0
   -0.5290   11.6250   -4.8220 C   0  0  0  0  0  0  0  0  0  0  0  0
    0.3420   10.7140   -2.1410 O   0  0  0  0  0  0  0  0  0  0  0  0
   -0.0070   11.8200   -6.1070 C   0  0  0  0  0  0  0  0  0  0  0  0
   -1.4660   10.6180   -4.6200 C   0  0  0  0  0  0  0  0  0  0  0  0
   -0.4170   11.0120   -7.1580 C   0  0  0  0  0  0  0  0  0  0  0  0
   -1.8740    9.8140   -5.6600 C   0  0  0  0  0  0  0  0  0  0  0  0
   -1.3510   10.0040   -6.9240 C   0  0  0  0  0  0  0  0  0  0  0  0
   -1.8070    9.0880   -7.9790 C   0  0  1  0  0  0  0  0  0  0  0  0
   -0.7920    9.0520   -9.0990 C   0  0  0  0  0  0  0  0  0  0  0  0
   -1.6500    7.6880   -7.4370 C   0  0  0  0  0  0  0  0  0  0  0  0
    0.3730    8.4640   -8.4050 N   0  0  0  0  0  0  0  0  0  0  0  0
   -0.1390    7.6840   -7.2520 C   0  0  0  0  0  0  0  0  0  0  0  0
  2  1  1  1
  2  3  1  0
  2  4  1  0
  4  5  2  0
  3  6  1  0
  4  7  1  0
  6  7  1  0
  3  8  1  0
  6  9  2  0
  8 10  2  0
  8 11  1  0
 10 12  1  0
 11 13  2  0
 12 14  2  0
 13 14  1  0
 15 14  1  1
 15 16  1  0
 15 17  1  0
 16 18  1  0
 17 19  1  0
 18 19  1  0
M  END
