diamond-x0766_1_B-diamond-x0380_0_B
     RDKit          3D

 19 20  0  0  0  0  0  0  0  0999 V2000
   -7.4250   26.4530  -13.7300 C   0  0  0  0  0  0  0  0  0  0  0  0
   -6.3760   26.0020  -14.4470 O   0  0  0  0  0  0  0  0  0  0  0  0
   -8.5050   26.6220  -14.2620 O   0  0  0  0  0  0  0  0  0  0  0  0
   -7.0810   26.7030  -12.2850 C   0  0  2  0  0  0  0  0  0  0  0  0
   -8.1590   26.2510  -11.2970 C   0  0  0  0  0  0  0  0  0  0  0  0
   -7.0000   28.1940  -12.0180 C   0  0  2  0  0  0  0  0  0  0  0  0
   -9.0800   27.4580  -11.0820 C   0  0  0  0  0  0  0  0  0  0  0  0
   -8.4390   28.6360  -11.8130 C   0  0  0  0  0  0  0  0  0  0  0  0
   -6.1970   28.9250  -13.0590 C   0  0  0  0  0  0  0  0  0  0  0  0
   -5.0930   29.5120  -12.6690 C   0  0  0  0  0  0  0  0  0  0  0  0
   -6.3610   29.1430  -14.4690 C   0  0  0  0  0  0  0  0  0  0  0  0
   -4.6650   29.4500  -11.0850 Cl  0  0  0  0  0  0  0  0  0  0  0  0
   -5.3000   29.8860  -14.9420 C   0  0  0  0  0  0  0  0  0  0  0  0
   -4.1690   30.3080  -13.7930 S   0  0  0  0  0  0  0  0  0  0  0  0
   -4.8640   30.4020  -16.0860 N   0  0  0  0  0  0  0  0  0  0  0  0
   -3.8950   31.3630  -15.9570 C   0  0  0  0  0  0  0  0  0  0  0  0
   -4.0720   32.5130  -15.5870 O   0  0  0  0  0  0  0  0  0  0  0  0
   -2.5040   30.8540  -16.3220 C   0  0  0  0  0  0  0  0  0  0  0  0
   -2.0490   31.5110  -17.5580 N   0  0  0  0  0  0  0  0  0  0  0  0
  1  2  1  0
  1  3  2  0
  4  1  1  6
  4  5  1  0
  4  6  1  0
  5  7  1  0
  6  8  1  0
  7  8  1  0
  6  9  1  6
  9 10  2  0
  9 11  1  0
 10 12  1  0
 11 13  2  0
 10 14  1  0
 13 14  1  0
 13 15  1  0
 15 16  1  0
 16 17  2  0
 16 18  1  0
 18 19  1  0
M  END
