diamond-x0724_0_A-mac-x0193
     RDKit          3D

 31 33  0  0  0  0  0  0  0  0999 V2000
   -8.2200   13.7590    4.4200 N   0  0  0  0  0  0  0  0  0  0  0  0
   -8.6250   13.9440    5.8060 C   0  0  0  0  0  0  0  0  0  0  0  0
   -8.4170   14.9800    3.6570 C   0  0  0  0  0  0  0  0  0  0  0  0
   -7.7250   14.8390    2.3520 C   0  0  0  0  0  0  0  0  0  0  0  0
   -6.3660   14.8630    2.0900 C   0  0  0  0  0  0  0  0  0  0  0  0
   -8.3000   14.6530    1.0770 C   0  0  0  0  0  0  0  0  0  0  0  0
   -7.3930   14.5730    0.1010 N   0  0  0  0  0  0  0  0  0  0  0  0
   -6.1920   14.7090    0.7300 N   0  0  0  0  0  0  0  0  0  0  0  0
   -4.9710   14.6890   -0.0030 C   0  0  0  0  0  0  0  0  0  0  0  0
   -3.7410   14.7680    0.6750 C   0  0  0  0  0  0  0  0  0  0  0  0
   -4.9780   14.5950   -1.3980 C   0  0  0  0  0  0  0  0  0  0  0  0
   -2.5360   14.7460   -0.0410 C   0  0  0  0  0  0  0  0  0  0  0  0
   -3.7750   14.5730   -2.1070 C   0  0  0  0  0  0  0  0  0  0  0  0
   -2.5410   14.6450   -1.4450 C   0  0  0  0  0  0  0  0  0  0  0  0
   -1.2580   14.6090   -2.2600 C   0  0  0  0  0  0  0  0  0  0  0  0
    0.0340   14.6830   -1.4350 C   0  0  0  0  0  0  0  0  0  0  0  0
    1.1630   13.9180   -2.1340 C   0  0  0  0  0  0  0  0  0  0  0  0
    0.8260   12.4970   -2.0790 N   0  0  0  0  0  0  0  0  0  0  0  0
    0.6310   11.8160   -3.1540 C   0  0  0  0  0  0  0  0  0  0  0  0
    0.3010   10.5070   -3.0800 O   0  0  0  0  0  0  0  0  0  0  0  0
    0.7420   12.4000   -4.5700 C   0  0  0  0  0  0  0  0  0  0  0  0
    0.1140   11.5660   -5.6080 N   0  0  0  0  0  0  0  0  0  0  0  0
    0.8270   11.3610   -6.7700 C   0  0  0  0  0  0  0  0  0  0  0  0
    1.9390   11.8190   -6.8860 O   0  0  0  0  0  0  0  0  0  0  0  0
    0.1610   10.5990   -7.7120 N   0  0  0  0  0  0  0  0  0  0  0  0
    0.8230   10.1020   -8.9270 C   0  0  0  0  0  0  0  0  0  0  0  0
    1.3910    8.6920   -8.7040 C   0  0  0  0  0  0  0  0  0  0  0  0
   -0.0990   10.0980  -10.1460 C   0  0  0  0  0  0  0  0  0  0  0  0
    2.1090    8.1010   -9.9260 C   0  0  0  0  0  0  0  0  0  0  0  0
    0.6240    9.5450  -11.3820 C   0  0  0  0  0  0  0  0  0  0  0  0
    1.2460    8.1610  -11.1770 C   0  0  0  0  0  0  0  0  0  0  0  0
  1  2  1  0
  1  3  1  0
  3  4  1  0
  4  5  2  0
  4  6  1  0
  6  7  2  0
  5  8  1  0
  7  8  1  0
  8  9  1  0
  9 10  2  0
  9 11  1  0
 10 12  1  0
 11 13  2  0
 12 14  2  0
 13 14  1  0
 14 15  1  0
 15 16  1  0
 16 17  1  0
 17 18  1  0
 18 19  2  3
 19 20  1  0
 19 21  1  0
 21 22  1  0
 22 23  1  0
 23 24  2  0
 23 25  1  0
 25 26  1  0
 26 27  1  0
 26 28  1  0
 27 29  1  0
 28 30  1  0
 29 31  1  0
 30 31  1  0
M  END
