diamond-x0592_0_A-mac-x0337
     RDKit          3D

 20 21  0  0  0  0  0  0  0  0999 V2000
   -3.0440   14.4220    1.2380 N   0  0  0  0  0  0  0  0  0  0  0  0
   -3.6970   15.1450    0.1020 C   0  0  1  0  0  0  0  0  0  0  0  0
   -3.3550   14.5710   -1.3120 C   0  0  2  0  0  0  0  0  0  0  0  0
   -5.1640   15.0360    0.1110 C   0  0  0  0  0  0  0  0  0  0  0  0
   -1.9640   14.6540   -1.5870 O   0  0  0  0  0  0  0  0  0  0  0  0
   -3.9340   15.5070   -2.2450 N   0  0  0  0  0  0  0  0  0  0  0  0
   -6.0080   15.3880   -0.9840 C   0  0  0  0  0  0  0  0  0  0  0  0
   -6.0240   14.6010    1.0680 C   0  0  0  0  0  0  0  0  0  0  0  0
   -3.9420   13.1580   -1.5140 C   0  0  0  0  0  0  0  0  0  0  0  0
   -7.2960   15.1840   -0.7230 N   0  0  0  0  0  0  0  0  0  0  0  0
   -7.2660   14.7080    0.5340 N   0  0  0  0  0  0  0  0  0  0  0  0
   -3.3090   12.1870   -2.2990 C   0  0  0  0  0  0  0  0  0  0  0  0
   -5.1730   12.7860   -0.9090 C   0  0  0  0  0  0  0  0  0  0  0  0
   -8.4740   14.3600    1.2110 C   0  0  0  0  0  0  0  0  0  0  0  0
   -3.8700   10.9150   -2.4760 C   0  0  0  0  0  0  0  0  0  0  0  0
   -5.7330   11.5180   -1.0870 C   0  0  0  0  0  0  0  0  0  0  0  0
   -8.1600   14.0490    2.6650 C   0  0  0  0  0  0  0  0  0  0  0  0
   -5.0840   10.5720   -1.8760 C   0  0  0  0  0  0  0  0  0  0  0  0
   -7.3040   15.0510    3.2230 O   0  0  0  0  0  0  0  0  0  0  0  0
   -5.6820    9.2050   -2.0710 C   0  0  0  0  0  0  0  0  0  0  0  0
  2  1  1  1
  2  3  1  0
  2  4  1  0
  3  5  1  0
  3  6  1  6
  4  7  1  0
  4  8  2  0
  3  9  1  0
  7 10  2  0
  8 11  1  0
 10 11  1  0
  9 12  2  0
  9 13  1  0
 11 14  1  0
 12 15  1  0
 13 16  2  0
 14 17  1  0
 15 18  2  0
 16 18  1  0
 17 19  1  0
 18 20  1  0
M  END
