diamond-x0628_0_A-mac-x0385
     RDKit          3D

 23 24  0  0  0  0  0  0  0  0999 V2000
   -0.7670    9.0060   -7.2930 C   0  0  0  0  0  0  0  0  0  0  0  0
   -0.8180   10.2050   -6.4340 C   0  0  0  0  0  0  0  0  0  0  0  0
   -1.8310   10.4290   -5.5400 N   0  0  0  0  0  0  0  0  0  0  0  0
    0.1210   11.1540   -6.4660 N   0  0  0  0  0  0  0  0  0  0  0  0
   -0.3290   12.0180   -5.5390 N   0  0  0  0  0  0  0  0  0  0  0  0
   -1.5040   11.5780   -4.9840 C   0  0  0  0  0  0  0  0  0  0  0  0
   -2.2570   12.3010   -3.9340 C   0  0  0  0  0  0  0  0  0  0  0  0
    0.4150   13.2260   -5.2490 C   0  0  0  0  0  0  0  0  0  0  0  0
    1.6960   12.9630   -4.4780 C   0  0  0  0  0  0  0  0  0  0  0  0
    1.4170   12.3140   -3.1480 C   0  0  0  0  0  0  0  0  0  0  0  0
    0.5920   11.4280   -2.9410 O   0  0  0  0  0  0  0  0  0  0  0  0
    2.2430   12.8540   -2.2090 O   0  0  0  0  0  0  0  0  0  0  0  0
    1.7950   14.0760   -1.6090 C   0  0  0  0  0  0  0  0  0  0  0  0
    0.4840   13.7420   -0.9200 C   0  0  0  0  0  0  0  0  0  0  0  0
    0.1260   14.4630    0.3900 C   0  0  0  0  0  0  0  0  0  0  0  0
   -1.3050   14.7910    0.2620 C   0  0  0  0  0  0  0  0  0  0  0  0
   -2.0600   15.1090    1.3250 N   0  0  0  0  0  0  0  0  0  0  0  0
   -1.7180   14.7270   -1.0100 N   0  0  0  0  0  0  0  0  0  0  0  0
   -3.3520   15.3860    1.0350 C   0  0  0  0  0  0  0  0  0  0  0  0
   -2.9910   15.0010   -1.2410 C   0  0  0  0  0  0  0  0  0  0  0  0
   -4.1780   15.7320    2.1040 N   0  0  0  0  0  0  0  0  0  0  0  0
   -3.8700   15.3410   -0.2590 C   0  0  0  0  0  0  0  0  0  0  0  0
   -5.2860   15.6370   -0.6110 C   0  0  0  0  0  0  0  0  0  0  0  0
  1  2  1  0
  2  3  1  0
  2  4  2  0
  4  5  1  0
  3  6  2  0
  5  6  1  0
  6  7  1  0
  5  8  1  0
  8  9  1  0
  9 10  1  0
 10 11  2  0
 10 12  1  0
 12 13  1  0
 13 14  1  0
 14 15  1  0
 15 16  1  0
 16 17  2  0
 16 18  1  0
 17 19  1  0
 18 20  2  0
 19 21  1  0
 19 22  2  0
 20 22  1  0
 22 23  1  0
M  END
