diamond-x0253_0_A-mac-x0204
     RDKit          3D

 23 24  0  0  0  0  0  0  0  0999 V2000
    0.3960   11.8430   -5.4580 N   0  0  0  0  0  0  0  0  0  0  0  0
    1.0830   11.6190   -6.6130 C   0  0  0  0  0  0  0  0  0  0  0  0
    2.1710   12.1380   -6.7360 O   0  0  0  0  0  0  0  0  0  0  0  0
    1.1310   12.5210   -4.4050 C   0  0  0  0  0  0  0  0  0  0  0  0
    0.6720   12.1630   -2.9930 C   0  0  0  0  0  0  0  0  0  0  0  0
    0.4710   10.7100   -7.6150 C   0  0  0  0  0  0  0  0  0  0  0  0
    0.1940   12.9650   -2.1320 N   0  0  0  0  0  0  0  0  0  0  0  0
    0.7730   10.8700   -2.6320 O   0  0  0  0  0  0  0  0  0  0  0  0
   -0.5020    9.7900   -7.2190 C   0  0  0  0  0  0  0  0  0  0  0  0
    0.8580   10.7600   -8.9620 C   0  0  0  0  0  0  0  0  0  0  0  0
    0.0410   14.2400   -2.5780 C   0  0  0  0  0  0  0  0  0  0  0  0
   -1.0870    8.9290   -8.1470 C   0  0  0  0  0  0  0  0  0  0  0  0
    0.2790    9.9030   -9.8910 C   0  0  0  0  0  0  0  0  0  0  0  0
   -2.1300    7.9560   -7.6900 C   0  0  0  0  0  0  0  0  0  0  0  0
    0.6670   15.2270   -2.2140 O   0  0  0  0  0  0  0  0  0  0  0  0
   -0.6930    8.9890   -9.4890 C   0  0  0  0  0  0  0  0  0  0  0  0
   -1.0210   14.3230   -3.6260 C   0  0  0  0  0  0  0  0  0  0  0  0
   -1.3230   15.4880   -4.3360 C   0  0  0  0  0  0  0  0  0  0  0  0
   -1.7570   13.1730   -3.9200 C   0  0  0  0  0  0  0  0  0  0  0  0
   -2.3400   15.4470   -5.2900 C   0  0  0  0  0  0  0  0  0  0  0  0
   -2.7500   13.1110   -4.8480 N   0  0  0  0  0  0  0  0  0  0  0  0
   -2.6800   16.5530   -6.0110 O   0  0  0  0  0  0  0  0  0  0  0  0
   -3.0170   14.2560   -5.5110 C   0  0  0  0  0  0  0  0  0  0  0  0
  1  2  1  0
  2  3  2  0
  1  4  1  0
  4  5  1  0
  2  6  1  0
  5  7  2  3
  5  8  1  0
  6  9  2  0
  6 10  1  0
  7 11  1  0
  9 12  1  0
 10 13  2  0
 12 14  1  0
 11 15  2  0
 12 16  2  0
 13 16  1  0
 11 17  1  0
 17 18  2  0
 17 19  1  0
 18 20  1  0
 19 21  2  0
 20 22  1  0
 20 23  2  0
 21 23  1  0
M  END
