diamond-x0849_0_A-mac-x0404
     RDKit          3D

 27 30  0  0  0  0  0  0  0  0999 V2000
   -3.9220   15.1970   -2.7720 Br  0  0  0  0  0  0  0  0  0  0  0  0
   -3.7330   15.1590   -0.8890 C   0  0  0  0  0  0  0  0  0  0  0  0
   -2.5060   14.8680   -0.3000 C   0  0  0  0  0  0  0  0  0  0  0  0
   -4.8400   15.4220   -0.1120 C   0  0  0  0  0  0  0  0  0  0  0  0
   -2.4360   14.8440    1.0880 C   0  0  0  0  0  0  0  0  0  0  0  0
   -4.6560   15.3710    1.2460 C   0  0  0  0  0  0  0  0  0  0  0  0
   -1.3540   14.6010   -1.0270 C   0  0  0  0  0  0  0  0  0  0  0  0
   -3.4870   15.0910    1.8260 N   0  0  0  0  0  0  0  0  0  0  0  0
   -1.3160   14.5740    1.7210 N   0  0  0  0  0  0  0  0  0  0  0  0
   -0.1790   14.3190   -0.3960 C   0  0  0  0  0  0  0  0  0  0  0  0
    0.9690   14.0440   -1.3110 C   0  0  0  0  0  0  0  0  0  0  0  0
   -0.2210   14.3180    0.9980 C   0  0  0  0  0  0  0  0  0  0  0  0
    0.3040   13.3000   -2.3440 O   0  0  0  0  0  0  0  0  0  0  0  0
    0.8750   12.2280   -2.9580 C   0  0  0  0  0  0  0  0  0  0  0  0
    0.8300   11.0850   -2.5300 O   0  0  0  0  0  0  0  0  0  0  0  0
    1.5120   12.7070   -4.2510 C   0  0  0  0  0  0  0  0  0  0  0  0
    1.3550   14.1100   -4.4430 O   0  0  0  0  0  0  0  0  0  0  0  0
    0.0580   14.5250   -4.7150 C   0  0  0  0  0  0  0  0  0  0  0  0
   -0.1520   15.8810   -4.9860 C   0  0  0  0  0  0  0  0  0  0  0  0
   -1.0070   13.6240   -4.7230 C   0  0  0  0  0  0  0  0  0  0  0  0
   -1.4490   16.3520   -5.2730 C   0  0  0  0  0  0  0  0  0  0  0  0
   -2.2970   14.0930   -5.0050 C   0  0  0  0  0  0  0  0  0  0  0  0
    0.9030   16.7730   -4.9800 C   0  0  0  0  0  0  0  0  0  0  0  0
   -2.5170   15.4470   -5.2770 C   0  0  0  0  0  0  0  0  0  0  0  0
   -1.6310   17.7140   -5.5510 C   0  0  0  0  0  0  0  0  0  0  0  0
    0.7250   18.1220   -5.2550 C   0  0  0  0  0  0  0  0  0  0  0  0
   -0.5530   18.5890   -5.5430 C   0  0  0  0  0  0  0  0  0  0  0  0
  1  2  1  0
  2  3  2  0
  2  4  1  0
  3  5  1  0
  4  6  2  0
  3  7  1  0
  5  8  2  0
  6  8  1  0
  5  9  1  0
  7 10  2  0
 10 11  1  0
  9 12  2  0
 10 12  1  0
 11 13  1  0
 13 14  1  0
 14 15  2  0
 14 16  1  0
 16 17  1  0
 17 18  1  0
 18 19  1  0
 18 20  2  0
 19 21  2  0
 20 22  1  0
 19 23  1  0
 21 24  1  0
 22 24  2  0
 21 25  1  0
 23 26  2  0
 25 27  2  0
 26 27  1  0
M  END
