diamond-x0910_0_A-mac-x0417
     RDKit          3D

 20 22  0  0  0  0  0  0  0  0999 V2000
   -2.6530   14.2840   -1.7460 N   0  0  0  0  0  0  0  0  0  0  0  0
   -1.8890   14.5820   -0.6780 C   0  0  0  0  0  0  0  0  0  0  0  0
   -2.2970   14.9530    0.5110 N   0  0  0  0  0  0  0  0  0  0  0  0
   -0.5180   14.5380   -0.6930 N   0  0  0  0  0  0  0  0  0  0  0  0
    0.3480   14.1640   -1.7900 C   0  0  0  0  0  0  0  0  0  0  0  0
   -1.1880   15.1660    1.2860 N   0  0  0  0  0  0  0  0  0  0  0  0
   -0.1350   14.9220    0.5540 C   0  0  0  0  0  0  0  0  0  0  0  0
   -0.2590   13.0060   -2.4000 O   0  0  0  0  0  0  0  0  0  0  0  0
    0.4250   12.2140   -3.2750 C   0  0  0  0  0  0  0  0  0  0  0  0
    0.9300   11.1640   -2.9410 O   0  0  0  0  0  0  0  0  0  0  0  0
    0.4150   12.8150   -4.6660 C   0  0  0  0  0  0  0  0  0  0  0  0
    0.3040   11.7990   -5.7540 C   0  0  0  0  0  0  0  0  0  0  0  0
    1.2850   11.7370   -6.6560 N   0  0  0  0  0  0  0  0  0  0  0  0
   -0.7090   10.8320   -6.0170 C   0  0  0  0  0  0  0  0  0  0  0  0
    0.9260   10.7220   -7.5370 O   0  0  0  0  0  0  0  0  0  0  0  0
   -0.2610   10.1830   -7.1560 C   0  0  0  0  0  0  0  0  0  0  0  0
   -1.9300   10.4240   -5.4500 C   0  0  0  0  0  0  0  0  0  0  0  0
   -0.9390    9.1430   -7.7890 C   0  0  0  0  0  0  0  0  0  0  0  0
   -2.6390    9.3800   -6.0610 C   0  0  0  0  0  0  0  0  0  0  0  0
   -2.1520    8.7510   -7.2100 C   0  0  0  0  0  0  0  0  0  0  0  0
  1  2  1  0
  2  3  2  0
  2  4  1  0
  4  5  1  0
  3  6  1  0
  4  7  1  0
  6  7  2  0
  5  8  1  0
  8  9  1  0
  9 10  2  0
  9 11  1  0
 11 12  1  0
 12 13  2  0
 12 14  1  0
 13 15  1  0
 14 16  2  0
 15 16  1  0
 14 17  1  0
 16 18  1  0
 17 19  2  0
 18 20  2  0
 19 20  1  0
M  END
