diamond-x0465_0_A-diamond-x0905_0_A
     RDKit          3D

 23 24  0  0  0  0  0  0  0  0999 V2000
    2.0140   13.0740   -4.2300 C   0  0  0  0  0  0  0  0  0  0  0  0
    0.6330   12.3980   -4.1240 C   0  0  1  0  0  0  0  0  0  0  0  0
    0.5590   11.5220   -5.2790 O   0  0  0  0  0  0  0  0  0  0  0  0
    0.4820   11.6610   -2.7570 C   0  0  0  0  0  0  0  0  0  0  0  0
    0.3080   12.1840   -1.5820 N   0  0  0  0  0  0  0  0  0  0  0  0
    0.5180   10.3100   -2.7890 O   0  0  0  0  0  0  0  0  0  0  0  0
   -0.6240   10.8590   -5.5020 C   0  0  0  0  0  0  0  0  0  0  0  0
    0.1870   13.5850   -1.2270 C   0  0  0  0  0  0  0  0  0  0  0  0
   -0.6620    9.8850   -6.5160 C   0  0  0  0  0  0  0  0  0  0  0  0
   -1.7790   11.1080   -4.7680 C   0  0  0  0  0  0  0  0  0  0  0  0
    0.4240    9.6150   -7.2520 F   0  0  0  0  0  0  0  0  0  0  0  0
   -0.6410   13.6110    0.0710 C   0  0  0  0  0  0  0  0  0  0  0  0
   -1.8230    9.1740   -6.7850 C   0  0  0  0  0  0  0  0  0  0  0  0
   -2.9450   10.3950   -5.0400 C   0  0  0  0  0  0  0  0  0  0  0  0
   -1.3440   14.9070    0.3910 C   0  0  0  0  0  0  0  0  0  0  0  0
   -2.9710    9.4290   -6.0430 C   0  0  0  0  0  0  0  0  0  0  0  0
   -2.8300   14.9890    0.0190 C   0  0  0  0  0  0  0  0  0  0  0  0
   -3.8160   14.9150    1.0010 C   0  0  0  0  0  0  0  0  0  0  0  0
   -3.2780   15.1390   -1.3060 C   0  0  0  0  0  0  0  0  0  0  0  0
   -5.1530   14.9710    0.7630 N   0  0  0  0  0  0  0  0  0  0  0  0
   -4.6470   15.2030   -1.5840 C   0  0  0  0  0  0  0  0  0  0  0  0
   -5.5130   15.1120   -0.5200 C   0  0  0  0  0  0  0  0  0  0  0  0
   -6.8550   15.1590   -0.7150 O   0  0  0  0  0  0  0  0  0  0  0  0
  2  1  1  1
  2  3  1  0
  2  4  1  0
  4  5  2  3
  4  6  1  0
  3  7  1  0
  5  8  1  0
  7  9  2  0
  7 10  1  0
  9 11  1  0
  8 12  1  0
  9 13  1  0
 10 14  2  0
 12 15  1  0
 13 16  2  0
 14 16  1  0
 15 17  1  0
 17 18  2  0
 17 19  1  0
 18 20  1  0
 19 21  2  0
 20 22  2  0
 21 22  1  0
 22 23  1  0
M  END
