diamond-x0421_0_A-diamond-x0962_2_B
     RDKit          3D

 17 19  0  0  0  0  0  0  0  0999 V2000
   -3.5870   15.1490   -2.9270 N   0  0  0  0  0  0  0  0  0  0  0  0
   -2.8610   14.9210   -1.7940 C   0  0  0  0  0  0  0  0  0  0  0  0
   -1.6460   14.7720   -1.8210 O   0  0  0  0  0  0  0  0  0  0  0  0
   -3.6870   14.8710   -0.5890 C   0  0  0  0  0  0  0  0  0  0  0  0
   -3.2710   14.8190    0.7250 C   0  0  0  0  0  0  0  0  0  0  0  0
   -5.0720   14.8630   -0.6410 N   0  0  0  0  0  0  0  0  0  0  0  0
   -4.4280   14.7760    1.4590 N   0  0  0  0  0  0  0  0  0  0  0  0
   -5.4950   14.8040    0.6000 C   0  0  0  0  0  0  0  0  0  0  0  0
   -7.0410   14.7800    0.9080 C   0  0  1  0  0  0  0  0  0  0  0  0
   -7.7060   13.5250    1.4010 C   0  0  0  0  0  0  0  0  0  0  0  0
   -7.7560   14.7540    2.2510 C   0  0  2  0  0  0  0  0  0  0  0  0
   -8.9410   15.5750    2.5360 C   0  0  0  0  0  0  0  0  0  0  0  0
   -7.1120   14.6910    3.5730 N   0  0  0  0  0  0  0  0  0  0  0  0
   -9.9780   15.9910    1.6540 C   0  0  0  0  0  0  0  0  0  0  0  0
   -8.9820   15.9560    3.7790 N   0  0  0  0  0  0  0  0  0  0  0  0
   -7.8610   15.4020    4.3570 C   0  0  0  0  0  0  0  0  0  0  0  0
  -10.8260   16.3780    0.9610 N   0  0  0  0  0  0  0  0  0  0  0  0
  1  2  1  0
  2  3  2  0
  2  4  1  0
  4  5  2  0
  4  6  1  0
  5  7  1  0
  6  8  2  0
  7  8  1  0
  9  8  1  1
  9 10  1  0
  9 11  1  0
 11 10  1  6
 11 12  1  0
 11 13  1  0
 12 14  1  0
 12 15  2  0
 13 16  2  0
 15 16  1  0
 14 17  3  0
M  END
