diamond-x0438_0_A-diamond-x0290_0_A
     RDKit          3D

 26 28  0  0  0  0  0  0  0  0999 V2000
   -8.0650   15.6970    4.0310 C   0  0  0  0  0  0  0  0  0  0  0  0
   -8.9850   15.2660    2.5640 S   0  0  0  0  0  0  0  0  0  0  0  0
  -10.1700   14.5540    3.0400 O   0  0  0  0  0  0  0  0  0  0  0  0
   -7.9710   14.0530    1.5990 C   0  0  2  0  0  0  0  0  0  0  0  0
   -9.2350   16.4670    1.8030 O   0  0  0  0  0  0  0  0  0  0  0  0
   -8.8620   13.1850    0.7180 C   0  0  0  0  0  0  0  0  0  0  0  0
   -6.7400   13.3920    2.3140 C   0  0  0  0  0  0  0  0  0  0  0  0
   -6.9160   14.5850    0.7320 C   0  0  0  0  0  0  0  0  0  0  0  0
   -5.4110   13.3990    1.4460 C   0  0  0  0  0  0  0  0  0  0  0  0
   -6.8820   14.6610   -0.6330 N   0  0  0  0  0  0  0  0  0  0  0  0
   -5.8160   14.9950    1.2800 N   0  0  0  0  0  0  0  0  0  0  0  0
   -5.4090   12.9350    0.2960 O   0  0  0  0  0  0  0  0  0  0  0  0
   -4.1680   13.9260    1.8480 N   0  0  0  0  0  0  0  0  0  0  0  0
   -5.0000   15.3160    0.2710 C   0  0  0  0  0  0  0  0  0  0  0  0
   -5.6260   15.1180   -0.9500 C   0  0  0  0  0  0  0  0  0  0  0  0
   -4.9870   15.3590   -2.1460 C   0  0  0  0  0  0  0  0  0  0  0  0
   -3.6930   15.7750    0.3490 C   0  0  0  0  0  0  0  0  0  0  0  0
   -2.9050   14.1210    1.1800 C   0  0  0  0  0  0  0  0  0  0  0  0
   -3.6630   15.8040   -2.0660 C   0  0  0  0  0  0  0  0  0  0  0  0
   -3.0240   16.0110   -0.8410 C   0  0  0  0  0  0  0  0  0  0  0  0
   -1.7830   14.3380    1.9010 N   0  0  0  0  0  0  0  0  0  0  0  0
   -2.8270   14.0910   -0.2250 C   0  0  0  0  0  0  0  0  0  0  0  0
   -0.6020   14.5200    1.2700 C   0  0  0  0  0  0  0  0  0  0  0  0
   -1.5820   14.2930   -0.8680 C   0  0  0  0  0  0  0  0  0  0  0  0
   -1.4610   14.2790   -2.3650 C   0  0  0  0  0  0  0  0  0  0  0  0
   -0.4500   14.5090   -0.0950 C   0  0  0  0  0  0  0  0  0  0  0  0
  2  1  1  0
  2  3  2  0
  2  4  1  0
  2  5  2  0
  4  6  1  6
  4  7  1  0
  4  8  1  0
  7  9  1  0
  8 10  1  0
  8 11  2  0
  9 12  2  0
  9 13  1  0
 11 14  1  0
 10 15  1  0
 14 15  2  0
 15 16  1  0
 14 17  1  0
 13 18  1  0
 16 19  2  0
 17 20  2  0
 19 20  1  0
 18 21  2  0
 18 22  1  0
 21 23  1  0
 22 24  2  0
 24 25  1  0
 23 26  2  0
 24 26  1  0
M  END
