diamond-x0933_0_A-diamond-x0587_0_A
     RDKit          3D

 19 21  0  0  0  0  0  0  0  0999 V2000
   -4.9860   15.3500    2.3120 N   0  0  0  0  0  0  0  0  0  0  0  0
   -4.3520   14.3350    1.5420 C   0  0  2  0  0  0  0  0  0  0  0  0
   -3.5180   15.1020    0.6480 N   0  0  0  0  0  0  0  0  0  0  0  0
   -5.4210   13.7090    0.8460 N   0  0  0  0  0  0  0  0  0  0  0  0
   -3.4010   14.5030   -0.6910 C   0  0  2  0  0  0  0  0  0  0  0  0
   -2.1620   15.2610    1.1430 N   0  0  0  0  0  0  0  0  0  0  0  0
   -5.8020   14.5360   -0.3090 C   0  0  1  0  0  0  0  0  0  0  0  0
   -6.5240   13.4420    1.7890 C   0  0  0  0  0  0  0  0  0  0  0  0
   -2.3330   15.3910   -1.2470 C   0  0  0  0  0  0  0  0  0  0  0  0
   -1.3860   15.5440   -0.0630 C   0  0  0  0  0  0  0  0  0  0  0  0
   -4.7170   14.4700   -1.4240 C   0  0  0  0  0  0  0  0  0  0  0  0
   -7.4450   14.6320    1.7730 C   0  0  2  0  0  0  0  0  0  0  0  0
   -7.1910   14.2580   -0.6890 N   0  0  0  0  0  0  0  0  0  0  0  0
   -8.4190   14.7860    2.9250 C   0  0  0  0  0  0  0  0  0  0  0  0
   -4.7930   13.3240   -2.1490 F   0  0  0  0  0  0  0  0  0  0  0  0
   -4.8450   15.4940   -2.3050 F   0  0  0  0  0  0  0  0  0  0  0  0
   -8.1080   14.6520    0.3930 C   0  0  0  0  0  0  0  0  0  0  0  0
   -7.8660   15.0120    4.1540 N   0  0  0  0  0  0  0  0  0  0  0  0
   -9.6390   14.7450    2.7950 O   0  0  0  0  0  0  0  0  0  0  0  0
  2  1  1  1
  2  3  1  0
  2  4  1  0
  3  5  1  0
  3  6  1  0
  4  7  1  0
  4  8  1  0
  5  9  1  6
  6 10  1  0
  9 10  1  0
  5 11  1  0
  7 11  1  0
  8 12  1  0
  7 13  1  6
 12 14  1  1
 11 15  1  0
 11 16  1  0
 12 17  1  0
 13 17  1  0
 14 18  1  0
 14 19  2  0
M  END
