diamond-x0895_0_A-mac-x0584
     RDKit          3D

 20 23  0  0  0  0  0  0  0  0999 V2000
   -1.9630   13.9830    1.8420 O   0  0  0  0  0  0  0  0  0  0  0  0
   -2.3090   15.0370    1.0000 C   0  0  2  0  0  0  0  0  0  0  0  0
   -3.6460   15.6460    1.4950 C   0  0  0  0  0  0  0  0  0  0  0  0
   -2.5470   14.6680   -0.3450 N   0  0  0  0  0  0  0  0  0  0  0  0
   -1.1840   15.8720    0.9750 N   0  0  0  0  0  0  0  0  0  0  0  0
   -4.5780   15.1150    0.5480 N   0  0  0  0  0  0  0  0  0  0  0  0
   -3.8780   14.9730   -0.6380 C   0  0  0  0  0  0  0  0  0  0  0  0
   -0.0560   15.0480    0.6490 C   0  0  0  0  0  0  0  0  0  0  0  0
   -1.5130   15.0780   -1.2610 C   0  0  2  0  0  0  0  0  0  0  0  0
   -4.4060   15.1150   -1.7230 O   0  0  0  0  0  0  0  0  0  0  0  0
   -1.5960   14.6720   -2.6580 N   0  0  0  0  0  0  0  0  0  0  0  0
   -0.1970   14.7680   -0.7450 N   0  0  0  0  0  0  0  0  0  0  0  0
   -0.2800   14.7160   -3.3120 C   0  0  1  0  0  0  0  0  0  0  0  0
   -2.5260   15.3660   -3.5340 C   0  0  0  0  0  0  0  0  0  0  0  0
    0.5030   13.4130   -3.1090 C   0  0  0  0  0  0  0  0  0  0  0  0
   -0.5270   14.9820   -4.8060 C   0  0  0  0  0  0  0  0  0  0  0  0
   -2.0310   15.1430   -4.9480 C   0  0  0  0  0  0  0  0  0  0  0  0
    1.7170   13.0910   -4.0130 C   0  0  0  0  0  0  0  0  0  0  0  0
   -0.1630   12.0900   -3.5570 C   0  0  0  0  0  0  0  0  0  0  0  0
    1.1640   11.6790   -4.2020 C   0  0  0  0  0  0  0  0  0  0  0  0
  2  1  1  1
  2  3  1  0
  2  4  1  0
  2  5  1  0
  3  6  1  0
  4  7  1  0
  6  7  1  0
  5  8  1  0
  4  9  1  0
  7 10  2  0
  9 11  1  6
  8 12  1  0
  9 12  1  0
 11 13  1  0
 11 14  1  0
 13 15  1  6
 13 16  1  0
 14 17  1  0
 16 17  1  0
 15 18  1  0
 15 19  1  0
 18 20  1  0
 19 20  1  0
M  END
