diamond-x0849_0_A-diamond-x0950_0_A
     RDKit          3D

 18 19  0  0  0  0  0  0  0  0999 V2000
   -3.8570   15.1940   -2.8000 Br  0  0  0  0  0  0  0  0  0  0  0  0
   -3.6810   15.1800   -0.9100 C   0  0  0  0  0  0  0  0  0  0  0  0
   -2.4670   14.8500   -0.3180 C   0  0  0  0  0  0  0  0  0  0  0  0
   -4.7770   15.4950   -0.1330 C   0  0  0  0  0  0  0  0  0  0  0  0
   -2.3980   14.8470    1.0740 C   0  0  0  0  0  0  0  0  0  0  0  0
   -4.5920   15.4570    1.2280 C   0  0  0  0  0  0  0  0  0  0  0  0
   -1.3230   14.5230   -1.0470 C   0  0  0  0  0  0  0  0  0  0  0  0
   -3.4360   15.1440    1.8150 N   0  0  0  0  0  0  0  0  0  0  0  0
   -1.2930   14.5430    1.7080 N   0  0  0  0  0  0  0  0  0  0  0  0
   -0.1600   14.1990   -0.4090 C   0  0  0  0  0  0  0  0  0  0  0  0
    1.0200   13.8440   -1.2670 C   0  0  0  0  0  0  0  0  0  0  0  0
   -0.2130   14.2250    0.9880 C   0  0  0  0  0  0  0  0  0  0  0  0
    0.9480   12.4280   -1.5240 O   0  0  0  0  0  0  0  0  0  0  0  0
    0.8400   11.9380   -2.8050 C   0  0  0  0  0  0  0  0  0  0  0  0
    1.4860   12.7990   -3.9080 C   0  0  1  0  0  0  0  0  0  0  0  0
    0.2830   10.8820   -3.0670 O   0  0  0  0  0  0  0  0  0  0  0  0
    2.9830   12.5480   -4.0000 C   0  0  0  0  0  0  0  0  0  0  0  0
    0.9220   12.4700   -5.1780 O   0  0  0  0  0  0  0  0  0  0  0  0
  1  2  1  0
  2  3  2  0
  2  4  1  0
  3  5  1  0
  4  6  2  0
  3  7  1  0
  5  8  2  0
  6  8  1  0
  5  9  1  0
  7 10  2  0
 10 11  1  0
  9 12  2  0
 10 12  1  0
 11 13  1  0
 13 14  1  0
 14 15  1  0
 14 16  2  0
 15 17  1  6
 15 18  1  0
M  END
