diamond-x0967_0_A-mac-x0228
     RDKit          3D

 13 14  0  0  0  0  0  0  0  0999 V2000
   -1.1230   14.6600   -2.1120 O   0  0  0  0  0  0  0  0  0  0  0  0
   -2.4030   14.7600   -2.5440 C   0  0  0  0  0  0  0  0  0  0  0  0
   -2.6190   14.8200   -3.7440 O   0  0  0  0  0  0  0  0  0  0  0  0
   -3.3770   14.7840   -1.3920 C   0  0  0  0  0  0  0  0  0  0  0  0
   -4.7170   14.6830   -1.6600 N   0  0  0  0  0  0  0  0  0  0  0  0
   -2.8770   14.8970   -0.1070 C   0  0  0  0  0  0  0  0  0  0  0  0
   -5.5760   14.6790   -0.6270 C   0  0  0  0  0  0  0  0  0  0  0  0
   -3.7590   14.8990    0.9550 C   0  0  0  0  0  0  0  0  0  0  0  0
   -6.8860   14.5660   -0.8770 N   0  0  0  0  0  0  0  0  0  0  0  0
   -5.1220   14.7840    0.7020 C   0  0  0  0  0  0  0  0  0  0  0  0
   -6.0410   14.7680    1.7540 C   0  0  0  0  0  0  0  0  0  0  0  0
   -7.7580   14.5490    0.1560 C   0  0  0  0  0  0  0  0  0  0  0  0
   -7.3930   14.6440    1.4820 C   0  0  0  0  0  0  0  0  0  0  0  0
  1  2  1  0
  2  3  2  0
  2  4  1  0
  4  5  2  0
  4  6  1  0
  5  7  1  0
  6  8  2  0
  7  9  2  0
  7 10  1  0
  8 10  1  0
 10 11  2  0
  9 12  1  0
 11 13  1  0
 12 13  2  0
M  END
