diamond-x0895_1_A-mac-x0357
     RDKit          3D

 20 21  0  0  0  0  0  0  0  0999 V2000
   -1.8760   14.7930    1.5740 O   0  0  0  0  0  0  0  0  0  0  0  0
   -3.0120   14.7210    1.0940 C   0  0  0  0  0  0  0  0  0  0  0  0
   -3.4260   14.3920   -0.3410 C   0  0  2  0  0  0  0  0  0  0  0  0
   -4.1870   14.9130    1.7570 N   0  0  0  0  0  0  0  0  0  0  0  0
   -2.5340   14.7930   -1.4620 C   0  0  0  0  0  0  0  0  0  0  0  0
   -4.6630   15.0900   -0.3710 N   0  0  0  0  0  0  0  0  0  0  0  0
   -5.2040   14.9450    0.8610 C   0  0  0  0  0  0  0  0  0  0  0  0
   -6.3940   14.8480    1.0890 O   0  0  0  0  0  0  0  0  0  0  0  0
   -1.0310   14.6230   -1.2510 C   0  0  0  0  0  0  0  0  0  0  0  0
   -0.7520   14.0390   -2.5150 N   0  0  0  0  0  0  0  0  0  0  0  0
    0.2150   13.3090   -2.8010 C   0  0  0  0  0  0  0  0  0  0  0  0
    1.2290   12.9240   -2.0040 O   0  0  0  0  0  0  0  0  0  0  0  0
    0.2240   12.7510   -4.1410 C   0  0  0  0  0  0  0  0  0  0  0  0
    1.3170   12.5340   -4.9470 C   0  0  0  0  0  0  0  0  0  0  0  0
   -1.0570   12.4340   -4.5730 C   0  0  0  0  0  0  0  0  0  0  0  0
    2.7010   12.9050   -4.5020 C   0  0  0  0  0  0  0  0  0  0  0  0
   -1.3130   11.8620   -5.7980 C   0  0  0  0  0  0  0  0  0  0  0  0
    1.0300   11.9550   -6.1840 C   0  0  0  0  0  0  0  0  0  0  0  0
    1.9650   11.6750   -7.0690 O   0  0  0  0  0  0  0  0  0  0  0  0
   -0.2450   11.6140   -6.6160 C   0  0  0  0  0  0  0  0  0  0  0  0
  1  2  2  0
  2  3  1  0
  2  4  1  0
  3  5  1  6
  3  6  1  0
  4  7  1  0
  6  7  1  0
  7  8  2  0
  5  9  1  0
  9 10  1  0
 10 11  2  3
 11 12  1  0
 11 13  1  0
 13 14  2  0
 13 15  1  0
 14 16  1  0
 15 17  2  0
 14 18  1  0
 18 19  1  0
 17 20  1  0
 18 20  2  0
M  END
