diamond-x0792_0_A-diamond-x0905_1_B
     RDKit          3D

 18 19  0  0  0  0  0  0  0  0999 V2000
    9.0840   23.1650   18.6730 C   0  0  0  0  0  0  0  0  0  0  0  0
    9.5440   22.3400   17.5830 O   0  0  0  0  0  0  0  0  0  0  0  0
   10.9730   22.2730   17.3450 C   0  0  0  0  0  0  0  0  0  0  0  0
    8.4720   24.5320   18.2170 C   0  0  2  0  0  0  0  0  0  0  0  0
    7.5750   25.2100   19.2540 C   0  0  0  0  0  0  0  0  0  0  0  0
    7.7970   24.6030   16.8380 C   0  0  0  0  0  0  0  0  0  0  0  0
   11.3440   20.9770   16.5750 C   0  0  0  0  0  0  0  0  0  0  0  0
    6.3460   24.8730   16.6660 N   0  0  0  0  0  0  0  0  0  0  0  0
    6.7780   26.3250   18.5640 C   0  0  1  0  0  0  0  0  0  0  0  0
    7.7250   27.2110   17.7610 C   0  0  0  0  0  0  0  0  0  0  0  0
    5.7310   25.7690   17.6240 C   0  0  0  0  0  0  0  0  0  0  0  0
   12.0500   21.1950   15.2270 C   0  0  0  0  0  0  0  0  0  0  0  0
   12.3440   20.1070   14.4340 N   0  0  0  0  0  0  0  0  0  0  0  0
   12.3850   22.4860   14.8330 C   0  0  0  0  0  0  0  0  0  0  0  0
   13.0370   22.6930   13.6230 C   0  0  0  0  0  0  0  0  0  0  0  0
   12.9800   20.3670   13.2640 C   0  0  0  0  0  0  0  0  0  0  0  0
   13.2670   19.2830   12.4950 O   0  0  0  0  0  0  0  0  0  0  0  0
   13.3460   21.6090   12.8180 C   0  0  0  0  0  0  0  0  0  0  0  0
  1  2  1  0
  2  3  1  0
  4  1  1  1
  4  5  1  0
  4  6  1  0
  3  7  1  0
  6  8  1  0
  5  9  1  0
  9 10  1  6
  8 11  1  0
  9 11  1  0
  7 12  1  0
 12 13  2  0
 12 14  1  0
 14 15  2  0
 13 16  1  0
 16 17  1  0
 15 18  1  0
 16 18  2  0
M  END
