diamond-x1018_0_A-mac-x0277
     RDKit          3D

 24 26  0  0  0  0  0  0  0  0999 V2000
   -8.4350   14.4800    1.0800 Cl  0  0  0  0  0  0  0  0  0  0  0  0
   -6.7900   14.6760    0.5870 C   0  0  0  0  0  0  0  0  0  0  0  0
   -5.7390   14.9340    1.6200 C   0  0  0  0  0  0  0  0  0  0  0  0
   -6.5620   14.5980   -0.6880 N   0  0  0  0  0  0  0  0  0  0  0  0
   -5.2500   14.7650   -0.9840 N   0  0  0  0  0  0  0  0  0  0  0  0
   -4.4670   14.7400    1.2480 C   0  0  0  0  0  0  0  0  0  0  0  0
   -4.8300   14.5950   -2.2860 N   0  0  0  0  0  0  0  0  0  0  0  0
   -4.2090   14.2700   -0.1170 C   0  0  2  0  0  0  0  0  0  0  0  0
   -3.0360   14.7100   -0.8280 N   0  0  0  0  0  0  0  0  0  0  0  0
   -3.4710   14.1590   -2.0970 N   0  0  0  0  0  0  0  0  0  0  0  0
   -2.6450   14.5790   -3.2080 C   0  0  0  0  0  0  0  0  0  0  0  0
   -3.4930   15.2990   -4.2500 C   0  0  0  0  0  0  0  0  0  0  0  0
   -2.6810   15.7110   -5.4610 C   0  0  0  0  0  0  0  0  0  0  0  0
   -1.2230   15.7190   -5.1060 C   0  0  0  0  0  0  0  0  0  0  0  0
   -0.5870   14.4870   -4.8920 C   0  0  0  0  0  0  0  0  0  0  0  0
   -0.4890   16.8930   -4.9730 C   0  0  0  0  0  0  0  0  0  0  0  0
   -1.2140   18.4340   -5.2280 Cl  0  0  0  0  0  0  0  0  0  0  0  0
    0.7620   14.4100   -4.5410 C   0  0  0  0  0  0  0  0  0  0  0  0
    0.8570   16.8340   -4.6250 C   0  0  0  0  0  0  0  0  0  0  0  0
    1.4140   13.0690   -4.3100 C   0  0  0  0  0  0  0  0  0  0  0  0
    1.4780   15.5990   -4.4080 C   0  0  0  0  0  0  0  0  0  0  0  0
    0.9840   12.4200   -3.0100 C   0  0  0  0  0  0  0  0  0  0  0  0
    0.2940   11.2770   -3.2180 O   0  0  0  0  0  0  0  0  0  0  0  0
    1.1830   12.8030   -1.8700 O   0  0  0  0  0  0  0  0  0  0  0  0
  1  2  1  0
  2  3  1  0
  2  4  2  0
  4  5  1  0
  3  6  2  0
  5  7  1  0
  5  8  1  0
  8  6  1  1
  8  9  1  0
  7 10  1  0
  9 10  1  0
 10 11  1  0
 11 12  1  0
 12 13  1  0
 13 14  1  0
 14 15  2  0
 14 16  1  0
 16 17  1  0
 15 18  1  0
 16 19  2  0
 18 20  1  0
 18 21  2  0
 19 21  1  0
 20 22  1  0
 22 23  1  0
 22 24  2  0
M  END
