diamond-x0969_0_A-mac-x0373
     RDKit          3D

 20 22  0  0  0  0  0  0  0  0999 V2000
   -6.5330   14.9120    2.3620 N   0  0  0  0  0  0  0  0  0  0  0  0
   -6.3250   14.8240    1.0320 C   0  0  0  0  0  0  0  0  0  0  0  0
   -7.2620   14.7590    0.1160 N   0  0  0  0  0  0  0  0  0  0  0  0
   -5.0740   14.7940    0.4200 N   0  0  0  0  0  0  0  0  0  0  0  0
   -6.6600   14.6790   -1.1150 N   0  0  0  0  0  0  0  0  0  0  0  0
   -5.3550   14.6910   -0.9300 C   0  0  0  0  0  0  0  0  0  0  0  0
   -3.7650   14.8360    0.9100 C   0  0  0  0  0  0  0  0  0  0  0  0
   -4.2550   14.5980   -1.8430 C   0  0  0  0  0  0  0  0  0  0  0  0
   -2.7160   14.7350    0.0490 C   0  0  0  0  0  0  0  0  0  0  0  0
   -2.9590   14.5860   -1.4070 C   0  0  0  0  0  0  0  0  0  0  0  0
   -1.7270   14.3900   -2.3690 C   0  0  1  0  0  0  0  0  0  0  0  0
   -0.3470   14.2580   -1.6650 C   0  0  0  0  0  0  0  0  0  0  0  0
   -1.9110   13.2010   -3.3230 C   0  0  0  0  0  0  0  0  0  0  0  0
   -0.2180   13.2420   -0.7530 O   0  0  0  0  0  0  0  0  0  0  0  0
    0.6190   14.9750   -1.9150 O   0  0  0  0  0  0  0  0  0  0  0  0
   -1.1800   13.1380   -4.5350 C   0  0  0  0  0  0  0  0  0  0  0  0
   -2.7910   12.1480   -3.0340 C   0  0  0  0  0  0  0  0  0  0  0  0
   -1.3330   12.0550   -5.4100 C   0  0  0  0  0  0  0  0  0  0  0  0
   -2.9390   11.0690   -3.9100 C   0  0  0  0  0  0  0  0  0  0  0  0
   -2.2120   11.0230   -5.0960 C   0  0  0  0  0  0  0  0  0  0  0  0
  1  2  1  0
  2  3  2  0
  2  4  1  0
  3  5  1  0
  4  6  1  0
  5  6  2  0
  4  7  1  0
  6  8  1  0
  7  9  2  0
  8 10  2  0
  9 10  1  0
 10 11  1  0
 11 12  1  1
 11 13  1  0
 12 14  1  0
 12 15  2  0
 13 16  2  0
 13 17  1  0
 16 18  1  0
 17 19  2  0
 18 20  2  0
 19 20  1  0
M  END
