diamond-x0724_0_A-diamond-x0592_0_A
     RDKit          3D

 24 26  0  0  0  0  0  0  0  0999 V2000
   -9.2000   14.9390    3.7720 N   0  0  0  0  0  0  0  0  0  0  0  0
   -8.9910   15.4290    5.1270 C   0  0  0  0  0  0  0  0  0  0  0  0
   -8.0680   14.1870    3.1960 C   0  0  1  0  0  0  0  0  0  0  0  0
   -8.1970   12.6530    3.1610 C   0  0  0  0  0  0  0  0  0  0  0  0
   -7.7130   14.6090    1.8230 C   0  0  0  0  0  0  0  0  0  0  0  0
   -8.2270   12.0630    1.7240 C   0  0  0  0  0  0  0  0  0  0  0  0
   -6.4600   14.6280    1.2970 C   0  0  0  0  0  0  0  0  0  0  0  0
   -8.5320   15.0490    0.7550 C   0  0  0  0  0  0  0  0  0  0  0  0
   -7.8300   15.3080   -0.3600 N   0  0  0  0  0  0  0  0  0  0  0  0
   -6.5450   15.0320   -0.0040 N   0  0  0  0  0  0  0  0  0  0  0  0
   -7.0720   12.3940    0.8920 N   0  0  0  0  0  0  0  0  0  0  0  0
   -5.4220   15.1170   -0.8510 C   0  0  0  0  0  0  0  0  0  0  0  0
   -7.1910   12.5760   -0.4380 N   0  0  0  0  0  0  0  0  0  0  0  0
   -5.7930   12.5530    1.3340 C   0  0  0  0  0  0  0  0  0  0  0  0
   -4.1520   15.1980   -0.2830 C   0  0  0  0  0  0  0  0  0  0  0  0
   -5.5560   15.0920   -2.2440 C   0  0  0  0  0  0  0  0  0  0  0  0
   -5.0180   12.8770    0.2390 C   0  0  0  0  0  0  0  0  0  0  0  0
   -5.9400   12.8670   -0.8320 C   0  0  0  0  0  0  0  0  0  0  0  0
   -3.5980   13.1630    0.1940 C   0  0  0  0  0  0  0  0  0  0  0  0
   -3.0320   15.2310   -1.0960 C   0  0  0  0  0  0  0  0  0  0  0  0
   -4.4210   15.1320   -3.0520 C   0  0  0  0  0  0  0  0  0  0  0  0
   -3.0990   13.7470    1.3280 N   0  0  0  0  0  0  0  0  0  0  0  0
   -2.8710   12.9250   -0.7690 O   0  0  0  0  0  0  0  0  0  0  0  0
   -3.1590   15.1980   -2.4790 C   0  0  0  0  0  0  0  0  0  0  0  0
  1  2  1  0
  1  3  1  0
  3  4  1  6
  3  5  1  0
  4  6  1  0
  5  7  2  0
  5  8  1  0
  8  9  2  0
  7 10  1  0
  9 10  1  0
  6 11  1  0
 10 12  1  0
 11 13  1  0
 11 14  1  0
 12 15  2  0
 12 16  1  0
 14 17  2  0
 13 18  2  0
 17 18  1  0
 17 19  1  0
 15 20  1  0
 16 21  2  0
 19 22  1  0
 19 23  2  0
 20 24  2  0
 21 24  1  0
M  END
