diamond-x0626_0_A-mac-x0346
     RDKit          3D

 13 13  0  0  0  0  0  0  0  0999 V2000
   -4.9730   13.8890    1.1510 N   0  0  0  0  0  0  0  0  0  0  0  0
   -6.1700   14.6360    0.8800 C   0  0  1  0  0  0  0  0  0  0  0  0
   -6.2080   15.2060   -0.5240 N   0  0  0  0  0  0  0  0  0  0  0  0
   -3.8300   14.2140    0.5470 C   0  0  0  0  0  0  0  0  0  0  0  0
   -7.4700   14.0080    1.3890 C   0  0  0  0  0  0  0  0  0  0  0  0
   -2.6460   14.3400    1.0970 N   0  0  0  0  0  0  0  0  0  0  0  0
   -3.9070   14.4850   -1.1270 S   0  0  0  0  0  0  0  0  0  0  0  0
   -8.7150   14.7230    0.8820 C   0  0  0  0  0  0  0  0  0  0  0  0
   -6.9980   14.6670   -1.3130 O   0  0  0  0  0  0  0  0  0  0  0  0
   -2.2530   14.7740   -1.1480 C   0  0  0  0  0  0  0  0  0  0  0  0
   -1.7060   14.6600    0.1430 C   0  0  0  0  0  0  0  0  0  0  0  0
   -0.3000   14.8280    0.6110 C   0  0  0  0  0  0  0  0  0  0  0  0
   -1.7740   15.0510   -2.3440 O   0  0  0  0  0  0  0  0  0  0  0  0
  1  2  1  0
  2  3  1  0
  1  4  1  0
  2  5  1  6
  4  6  2  0
  4  7  1  0
  5  8  1  0
  3  9  2  0
  7 10  1  0
  6 11  1  0
 10 11  2  0
 11 12  1  0
 10 13  1  0
M  END
