diamond-x0626_0_A-diamond-x0722_0_A
     RDKit          3D

 13 14  0  0  0  0  0  0  0  0999 V2000
   -4.9040   14.4110    1.4550 N   0  0  0  0  0  0  0  0  0  0  0  0
   -5.9660   14.2090    0.4730 C   0  0  2  0  0  0  0  0  0  0  0  0
   -5.5360   14.9860   -0.7640 C   0  0  0  0  0  0  0  0  0  0  0  0
   -3.7010   13.7740    0.9730 C   0  0  2  0  0  0  0  0  0  0  0  0
   -7.3470   14.6600    0.9790 C   0  0  0  0  0  0  0  0  0  0  0  0
   -2.7930   13.9110    2.0630 N   0  0  0  0  0  0  0  0  0  0  0  0
   -3.0640   14.5000   -0.2110 C   0  0  1  0  0  0  0  0  0  0  0  0
   -8.4130   13.5830    0.9810 C   0  0  0  0  0  0  0  0  0  0  0  0
   -6.3180   15.1760   -1.6910 O   0  0  0  0  0  0  0  0  0  0  0  0
   -4.0910   15.5180   -0.7680 C   0  0  0  0  0  0  0  0  0  0  0  0
   -1.7250   15.0230    0.4160 C   0  0  1  0  0  0  0  0  0  0  0  0
   -1.4670   14.0970    1.5160 C   0  0  0  0  0  0  0  0  0  0  0  0
   -0.4620   14.9700   -0.4120 C   0  0  0  0  0  0  0  0  0  0  0  0
  1  2  1  0
  2  3  1  0
  4  1  1  1
  2  5  1  1
  4  6  1  0
  4  7  1  0
  5  8  1  0
  3  9  2  0
  3 10  1  0
  7 10  1  1
  7 11  1  0
  6 12  1  0
 11 12  1  0
 11 13  1  6
M  END
