diamond-x0969_0_A-mac-x0417
     RDKit          3D

 26 29  0  0  0  0  0  0  0  0999 V2000
   -6.6950   14.8600    2.4660 N   0  0  0  0  0  0  0  0  0  0  0  0
   -6.4950   14.7930    1.1330 C   0  0  0  0  0  0  0  0  0  0  0  0
   -7.4280   14.7050    0.2120 N   0  0  0  0  0  0  0  0  0  0  0  0
   -5.2460   14.8120    0.5250 N   0  0  0  0  0  0  0  0  0  0  0  0
   -6.8170   14.6570   -1.0210 N   0  0  0  0  0  0  0  0  0  0  0  0
   -5.5150   14.7100   -0.8270 C   0  0  0  0  0  0  0  0  0  0  0  0
   -3.9470   14.9010    1.0400 C   0  0  0  0  0  0  0  0  0  0  0  0
   -4.4090   14.6610   -1.7230 C   0  0  0  0  0  0  0  0  0  0  0  0
   -2.9020   14.8440    0.1970 C   0  0  0  0  0  0  0  0  0  0  0  0
   -3.1410   14.6950   -1.2400 C   0  0  0  0  0  0  0  0  0  0  0  0
   -1.9340   14.5530   -2.1490 C   0  0  0  0  0  0  0  0  0  0  0  0
   -1.0170   13.4120   -1.6900 C   0  0  0  0  0  0  0  0  0  0  0  0
    0.4610   13.8170   -1.7340 C   0  0  0  0  0  0  0  0  0  0  0  0
    1.2640   12.8030   -2.3730 O   0  0  0  0  0  0  0  0  0  0  0  0
    0.6590   11.9740   -3.2740 C   0  0  0  0  0  0  0  0  0  0  0  0
    0.4070   10.7950   -3.0540 O   0  0  0  0  0  0  0  0  0  0  0  0
    0.3500   12.6830   -4.5730 C   0  0  0  0  0  0  0  0  0  0  0  0
    0.2650   11.7300   -5.7150 C   0  0  0  0  0  0  0  0  0  0  0  0
    1.2400   11.7220   -6.6280 N   0  0  0  0  0  0  0  0  0  0  0  0
   -0.7380   10.7690   -6.0130 C   0  0  0  0  0  0  0  0  0  0  0  0
    0.8850   10.7420   -7.5500 O   0  0  0  0  0  0  0  0  0  0  0  0
   -0.2940   10.1740   -7.1810 C   0  0  0  0  0  0  0  0  0  0  0  0
   -1.9470   10.3310   -5.4500 C   0  0  0  0  0  0  0  0  0  0  0  0
   -0.9710    9.1550   -7.8490 C   0  0  0  0  0  0  0  0  0  0  0  0
   -2.6550    9.3070   -6.0950 C   0  0  0  0  0  0  0  0  0  0  0  0
   -2.1730    8.7300   -7.2730 C   0  0  0  0  0  0  0  0  0  0  0  0
  1  2  1  0
  2  3  2  0
  2  4  1  0
  3  5  1  0
  4  6  1  0
  5  6  2  0
  4  7  1  0
  6  8  1  0
  7  9  2  0
  8 10  2  0
  9 10  1  0
 10 11  1  0
 11 12  1  0
 12 13  1  0
 13 14  1  0
 14 15  1  0
 15 16  2  0
 15 17  1  0
 17 18  1  0
 18 19  2  0
 18 20  1  0
 19 21  1  0
 20 22  2  0
 21 22  1  0
 20 23  1  0
 22 24  1  0
 23 25  2  0
 24 26  2  0
 25 26  1  0
M  END
