diamond-x0282_0_A-diamond-x0905_0_A
     RDKit          3D

 14 15  0  0  0  0  0  0  0  0999 V2000
   -7.0700   13.3460    0.5700 C   0  0  0  0  0  0  0  0  0  0  0  0
   -8.4440   13.6040    0.2990 O   0  0  0  0  0  0  0  0  0  0  0  0
   -6.3520   14.6850    0.6080 C   0  0  0  0  0  0  0  0  0  0  0  0
   -5.4110   14.8290    1.8070 C   0  0  0  0  0  0  0  0  0  0  0  0
   -5.6350   15.0560   -0.7000 C   0  0  0  0  0  0  0  0  0  0  0  0
   -4.1340   14.0250    1.6250 C   0  0  0  0  0  0  0  0  0  0  0  0
   -4.3240   14.2950   -0.8820 C   0  0  0  0  0  0  0  0  0  0  0  0
   -3.5460   14.3390    0.3460 N   0  0  0  0  0  0  0  0  0  0  0  0
   -2.1940   14.4720    0.2640 C   0  0  0  0  0  0  0  0  0  0  0  0
   -1.6840   14.5510   -0.9750 N   0  0  0  0  0  0  0  0  0  0  0  0
   -1.4450   14.5180    1.3880 N   0  0  0  0  0  0  0  0  0  0  0  0
   -0.3680   14.6880   -1.1040 C   0  0  0  0  0  0  0  0  0  0  0  0
   -0.1250   14.6510    1.1930 C   0  0  0  0  0  0  0  0  0  0  0  0
    0.4650   14.7460   -0.0490 C   0  0  0  0  0  0  0  0  0  0  0  0
  1  2  1  0
  1  3  1  0
  3  4  1  0
  3  5  1  0
  4  6  1  0
  5  7  1  0
  6  8  1  0
  7  8  1  0
  8  9  1  0
  9 10  2  0
  9 11  1  0
 10 12  1  0
 11 13  2  0
 12 14  2  0
 13 14  1  0
M  END
