diamond-x0689_0_A-diamond-x0574_0_A
     RDKit          3D

 13 14  0  0  0  0  0  0  0  0999 V2000
   -3.3130   15.5720    1.6070 N   0  0  0  0  0  0  0  0  0  0  0  0
   -2.6840   14.5060    0.8820 C   0  0  2  0  0  0  0  0  0  0  0  0
   -1.5210   14.3000    1.7270 N   0  0  0  0  0  0  0  0  0  0  0  0
   -2.5440   14.7560   -0.5420 N   0  0  0  0  0  0  0  0  0  0  0  0
   -3.7450   13.4000    0.9750 C   0  0  0  0  0  0  0  0  0  0  0  0
   -1.3100   14.5970   -1.1430 C   0  0  0  0  0  0  0  0  0  0  0  0
   -0.2160   14.2680    1.0600 C   0  0  0  0  0  0  0  0  0  0  0  0
   -5.0890   13.9920    0.5470 C   0  0  2  0  0  0  0  0  0  0  0  0
   -3.7020   15.1510   -1.1930 C   0  0  0  0  0  0  0  0  0  0  0  0
   -0.1960   14.3700   -0.4350 C   0  0  0  0  0  0  0  0  0  0  0  0
   -4.9270   14.8260   -0.7230 C   0  0  0  0  0  0  0  0  0  0  0  0
   -5.6580   14.8260    1.6720 C   0  0  0  0  0  0  0  0  0  0  0  0
   -7.1240   14.6080    2.0180 C   0  0  0  0  0  0  0  0  0  0  0  0
  2  1  1  1
  2  3  1  0
  2  4  1  0
  2  5  1  0
  4  6  1  0
  3  7  1  0
  5  8  1  0
  4  9  1  0
  6 10  2  0
  7 10  1  0
  8 11  1  0
  9 11  2  0
  8 12  1  1
 12 13  1  0
M  END
