diamond-x0926_0_A-mac-x0190
     RDKit          3D

 12 13  0  0  0  0  0  0  0  0999 V2000
   -6.1080   16.0540   -0.7950 O   0  0  0  0  0  0  0  0  0  0  0  0
   -5.7300   14.7410   -0.5920 C   0  0  2  0  0  0  0  0  0  0  0  0
   -5.2970   14.4080    0.8340 C   0  0  1  0  0  0  0  0  0  0  0  0
   -4.7360   14.3320   -1.5790 N   0  0  0  0  0  0  0  0  0  0  0  0
   -6.9700   14.0040   -0.5920 N   0  0  0  0  0  0  0  0  0  0  0  0
   -3.4120   14.7710   -1.2020 N   0  0  0  0  0  0  0  0  0  0  0  0
   -3.9730   15.0030    1.1530 C   0  0  0  0  0  0  0  0  0  0  0  0
   -7.5870   14.6160    0.6090 C   0  0  2  0  0  0  0  0  0  0  0  0
   -6.4970   14.7450    1.6130 N   0  0  0  0  0  0  0  0  0  0  0  0
   -8.7270   13.7800    1.2230 C   0  0  0  0  0  0  0  0  0  0  0  0
   -3.1310   15.1250    0.1250 C   0  0  0  0  0  0  0  0  0  0  0  0
   -9.4220   14.5970    2.1850 O   0  0  0  0  0  0  0  0  0  0  0  0
  2  1  1  1
  2  3  1  0
  2  4  1  0
  2  5  1  0
  4  6  1  0
  3  7  1  1
  5  8  1  0
  3  9  1  0
  8  9  1  0
  8 10  1  1
  6 11  1  0
  7 11  2  0
 10 12  1  0
M  END
