diamond-x0910_0_A-diamond-x0864_0_A
     RDKit          3D

 19 20  0  0  0  0  0  0  0  0999 V2000
   -2.2500   14.4670   -1.9280 N   0  0  0  0  0  0  0  0  0  0  0  0
   -1.7390   14.5520   -0.6890 C   0  0  0  0  0  0  0  0  0  0  0  0
   -2.3510   15.0200    0.3750 N   0  0  0  0  0  0  0  0  0  0  0  0
   -0.4710   14.1570   -0.3270 N   0  0  0  0  0  0  0  0  0  0  0  0
    0.6170   13.5680   -1.0920 C   0  0  0  0  0  0  0  0  0  0  0  0
   -1.4930   14.9420    1.4330 N   0  0  0  0  0  0  0  0  0  0  0  0
   -0.3830   14.4290    1.0060 C   0  0  0  0  0  0  0  0  0  0  0  0
    0.5480   13.7870   -2.5150 N   0  0  0  0  0  0  0  0  0  0  0  0
    0.5820   12.7960   -3.3280 C   0  0  0  0  0  0  0  0  0  0  0  0
    0.5310   12.8430   -4.8350 C   0  0  0  0  0  0  0  0  0  0  0  0
    0.6800   11.5460   -2.8130 O   0  0  0  0  0  0  0  0  0  0  0  0
   -0.0910   11.6730   -5.4280 N   0  0  0  0  0  0  0  0  0  0  0  0
   -1.2900   11.1740   -4.9540 C   0  0  0  0  0  0  0  0  0  0  0  0
    0.4920   11.2100   -6.5870 C   0  0  0  0  0  0  0  0  0  0  0  0
    1.5170   11.6740   -7.0490 O   0  0  0  0  0  0  0  0  0  0  0  0
   -1.9090   10.1650   -5.5820 C   0  0  0  0  0  0  0  0  0  0  0  0
   -0.1760   10.0790   -7.2620 C   0  0  0  0  0  0  0  0  0  0  0  0
   -1.3160    9.5910   -6.7690 C   0  0  0  0  0  0  0  0  0  0  0  0
   -2.1940    8.1620   -7.5800 Br  0  0  0  0  0  0  0  0  0  0  0  0
  1  2  1  0
  2  3  2  0
  2  4  1  0
  4  5  1  0
  3  6  1  0
  4  7  1  0
  6  7  2  0
  5  8  1  0
  8  9  2  3
  9 10  1  0
  9 11  1  0
 10 12  1  0
 12 13  1  0
 12 14  1  0
 14 15  2  0
 13 16  2  0
 14 17  1  0
 16 18  1  0
 17 18  2  0
 18 19  1  0
M  END
