diamond-x0950_0_A-mac-x0567
     RDKit          3D

 17 18  0  0  0  0  0  0  0  0999 V2000
    2.8230   12.9520   -3.8960 C   0  0  0  0  0  0  0  0  0  0  0  0
    1.3120   12.8130   -3.9720 C   0  0  1  0  0  0  0  0  0  0  0  0
    0.9790   12.3210   -5.2720 O   0  0  0  0  0  0  0  0  0  0  0  0
    0.7470   11.8830   -2.8820 C   0  0  0  0  0  0  0  0  0  0  0  0
    0.1980   10.8210   -3.1430 O   0  0  0  0  0  0  0  0  0  0  0  0
    0.9330   12.3500   -1.6140 O   0  0  0  0  0  0  0  0  0  0  0  0
    0.6570   13.7220   -1.3730 C   0  0  0  0  0  0  0  0  0  0  0  0
    0.2160   13.8720   -0.0060 N   0  0  0  0  0  0  0  0  0  0  0  0
   -1.0310   14.2840    0.3680 C   0  0  0  0  0  0  0  0  0  0  0  0
   -1.4360   14.3970    1.6620 N   0  0  0  0  0  0  0  0  0  0  0  0
   -2.1450   14.6680   -0.3530 C   0  0  0  0  0  0  0  0  0  0  0  0
   -2.7030   14.8160    1.8340 N   0  0  0  0  0  0  0  0  0  0  0  0
   -3.1740   15.0000    0.5990 C   0  0  0  0  0  0  0  0  0  0  0  0
   -2.2620   14.7280   -1.7400 C   0  0  0  0  0  0  0  0  0  0  0  0
   -4.4390   15.4370    0.1790 C   0  0  0  0  0  0  0  0  0  0  0  0
   -3.5460   15.1700   -2.1360 C   0  0  0  0  0  0  0  0  0  0  0  0
   -4.5860   15.5100   -1.2180 C   0  0  0  0  0  0  0  0  0  0  0  0
  2  1  1  6
  2  3  1  0
  2  4  1  0
  4  5  2  0
  4  6  1  0
  6  7  1  0
  7  8  1  0
  8  9  1  0
  9 10  1  0
  9 11  2  0
 10 12  1  0
 11 13  1  0
 12 13  2  0
 11 14  1  0
 13 15  1  0
 14 16  2  0
 15 17  2  0
 16 17  1  0
M  END
