diamond-x0685_0_A-diamond-x0727_0_A
     RDKit          3D

 27 28  0  0  0  0  0  0  0  0999 V2000
   -5.9590   14.6440    2.6300 N   0  0  0  0  0  0  0  0  0  0  0  0
   -7.3740   14.8480    2.9110 C   0  0  0  0  0  0  0  0  0  0  0  0
   -8.0640   13.5120    3.1270 C   0  0  0  0  0  0  0  0  0  0  0  0
   -5.4160   14.8170    1.3610 C   0  0  0  0  0  0  0  0  0  0  0  0
   -4.0310   14.9440    1.2820 C   0  0  0  0  0  0  0  0  0  0  0  0
   -6.2050   14.8540    0.2760 N   0  0  0  0  0  0  0  0  0  0  0  0
   -3.4340   15.1120    0.0430 C   0  0  0  0  0  0  0  0  0  0  0  0
   -5.6050   15.0210   -0.9160 C   0  0  0  0  0  0  0  0  0  0  0  0
   -4.2410   15.1510   -1.0840 C   0  0  0  0  0  0  0  0  0  0  0  0
   -3.6990   15.3120   -2.3790 C   0  0  0  0  0  0  0  0  0  0  0  0
   -3.2520   15.4040   -3.4800 C   0  0  0  0  0  0  0  0  0  0  0  0
   -2.6880   15.4540   -4.8250 C   0  0  0  0  0  0  0  0  0  0  0  0
   -1.7830   14.2390   -5.0120 C   0  0  0  0  0  0  0  0  0  0  0  0
   -0.5070   14.3510   -4.1820 C   0  0  0  0  0  0  0  0  0  0  0  0
    0.7010   13.8410   -4.9690 C   0  0  0  0  0  0  0  0  0  0  0  0
    0.9790   12.3530   -4.7460 C   0  0  2  0  0  0  0  0  0  0  0  0
    0.1360   11.5090   -5.5990 N   0  0  0  0  0  0  0  0  0  0  0  0
    0.7330   11.9470   -3.2920 C   0  0  0  0  0  0  0  0  0  0  0  0
    0.0810   10.9820   -2.9170 O   0  0  0  0  0  0  0  0  0  0  0  0
    0.6740   11.1200   -6.7960 C   0  0  0  0  0  0  0  0  0  0  0  0
    1.3210   12.7690   -2.4030 O   0  0  0  0  0  0  0  0  0  0  0  0
    1.6440   11.6830   -7.2350 O   0  0  0  0  0  0  0  0  0  0  0  0
    0.0440    9.9410   -7.5250 C   0  0  0  0  0  0  0  0  0  0  0  0
   -1.2490   10.3190   -8.2540 C   0  0  0  0  0  0  0  0  0  0  0  0
   -0.3070    8.7570   -6.6060 C   0  0  0  0  0  0  0  0  0  0  0  0
   -2.1650    9.1140   -8.0900 C   0  0  0  0  0  0  0  0  0  0  0  0
   -1.8080    8.5550   -6.7250 C   0  0  0  0  0  0  0  0  0  0  0  0
  1  2  1  0
  2  3  1  0
  1  4  1  0
  4  5  2  0
  4  6  1  0
  5  7  1  0
  6  8  2  0
  7  9  2  0
  8  9  1  0
  9 10  1  0
 10 11  3  0
 11 12  1  0
 12 13  1  0
 13 14  1  0
 14 15  1  0
 16 15  1  1
 16 17  1  0
 16 18  1  0
 18 19  2  0
 17 20  1  0
 18 21  1  0
 20 22  2  0
 20 23  1  0
 23 24  1  0
 23 25  1  0
 24 26  1  0
 25 27  1  0
 26 27  1  0
M  END
