diamond-x0910_0_A-diamond-x0724_0_A
     RDKit          3D

 19 21  0  0  0  0  0  0  0  0999 V2000
   -2.6180   13.0190   -1.7840 N   0  0  0  0  0  0  0  0  0  0  0  0
   -2.4470   13.8960   -0.6400 C   0  0  2  0  0  0  0  0  0  0  0  0
   -1.2040   13.5210    0.0400 N   0  0  0  0  0  0  0  0  0  0  0  0
   -3.6820   13.8820    0.2730 C   0  0  0  0  0  0  0  0  0  0  0  0
   -2.3860   15.3210   -1.1800 C   0  0  2  0  0  0  0  0  0  0  0  0
   -2.2000   16.1460    0.0260 N   0  0  0  0  0  0  0  0  0  0  0  0
   -0.6140   14.4810    0.6380 C   0  0  0  0  0  0  0  0  0  0  0  0
   -3.6610   15.5640   -1.9370 C   0  0  0  0  0  0  0  0  0  0  0  0
   -4.8570   14.5070   -0.0970 C   0  0  0  0  0  0  0  0  0  0  0  0
   -1.0010   15.7840    0.7120 N   0  0  0  0  0  0  0  0  0  0  0  0
   -6.0640   14.5640    0.6870 N   0  0  0  0  0  0  0  0  0  0  0  0
   -4.8240   15.1650   -1.4040 C   0  0  0  0  0  0  0  0  0  0  0  0
   -7.3380   14.3830    0.1860 N   0  0  0  0  0  0  0  0  0  0  0  0
   -6.1740   14.8180    2.0510 C   0  0  0  0  0  0  0  0  0  0  0  0
   -7.5070   14.8090    2.4230 C   0  0  0  0  0  0  0  0  0  0  0  0
   -8.1700   14.5300    1.2160 C   0  0  0  0  0  0  0  0  0  0  0  0
   -8.0840   15.0480    3.7770 C   0  0  0  0  0  0  0  0  0  0  0  0
   -8.7680   13.8490    4.2580 N   0  0  0  0  0  0  0  0  0  0  0  0
   -8.7160   13.7810    5.7140 C   0  0  0  0  0  0  0  0  0  0  0  0
  2  1  1  6
  2  3  1  0
  2  4  1  0
  2  5  1  0
  5  6  1  0
  3  7  2  0
  5  8  1  1
  4  9  2  0
  6 10  1  0
  7 10  1  0
  9 11  1  0
  8 12  2  0
  9 12  1  0
 11 13  1  0
 11 14  1  0
 14 15  2  0
 13 16  2  0
 15 16  1  0
 15 17  1  0
 17 18  1  0
 18 19  1  0
M  END
