diamond-x0689_0_A-mac-x0148
     RDKit          3D

 19 22  0  0  0  0  0  0  0  0999 V2000
   -3.4300   13.6370    1.4580 N   0  0  0  0  0  0  0  0  0  0  0  0
   -4.7920   14.1280    1.4970 C   0  0  0  0  0  0  0  0  0  0  0  0
   -2.5980   14.4420    0.6410 C   0  0  2  0  0  0  0  0  0  0  0  0
   -2.6840   14.2830   -0.8390 N   0  0  0  0  0  0  0  0  0  0  0  0
   -1.2300   14.5870    1.0840 N   0  0  0  0  0  0  0  0  0  0  0  0
   -3.1670   15.7690    0.7040 N   0  0  0  0  0  0  0  0  0  0  0  0
   -1.4980   14.0590   -1.7410 C   0  0  2  0  0  0  0  0  0  0  0  0
   -0.2650   15.0510    0.2130 C   0  0  0  0  0  0  0  0  0  0  0  0
   -3.8770   14.9000   -1.1840 C   0  0  0  0  0  0  0  0  0  0  0  0
   -4.1680   15.7980   -0.2440 C   0  0  0  0  0  0  0  0  0  0  0  0
   -0.3350   14.8500   -1.1240 C   0  0  0  0  0  0  0  0  0  0  0  0
   -2.0380   14.3160   -3.2370 C   0  0  1  0  0  0  0  0  0  0  0  0
   -1.0430   12.5720   -1.7200 C   0  0  0  0  0  0  0  0  0  0  0  0
   -1.8560   15.5440   -4.1130 C   0  0  0  0  0  0  0  0  0  0  0  0
   -1.7540   13.1840   -4.2380 C   0  0  1  0  0  0  0  0  0  0  0  0
    0.0000   12.1510   -2.7680 C   0  0  0  0  0  0  0  0  0  0  0  0
   -2.0970   13.7600   -5.6000 C   0  0  0  0  0  0  0  0  0  0  0  0
   -2.3320   15.1630   -5.4220 O   0  0  0  0  0  0  0  0  0  0  0  0
   -0.3190   12.6670   -4.1670 C   0  0  0  0  0  0  0  0  0  0  0  0
  1  2  1  0
  3  1  1  1
  3  4  1  0
  3  5  1  0
  3  6  1  0
  4  7  1  0
  5  8  1  0
  4  9  1  0
  6 10  1  0
  9 10  2  0
  7 11  1  1
  8 11  2  0
  7 12  1  0
  7 13  1  0
 12 14  1  6
 12 15  1  0
 13 16  1  0
 15 17  1  6
 14 18  1  0
 17 18  1  0
 15 19  1  0
 16 19  1  0
M  END
