diamond-x1012_0_A-diamond-x0742_0_A
     RDKit          3D

 29 32  0  0  0  0  0  0  0  0999 V2000
   -0.3230   18.0740   -4.7080 N   0  0  0  0  0  0  0  0  0  0  0  0
   -1.3010   17.1580   -4.8620 C   0  0  0  0  0  0  0  0  0  0  0  0
   -2.4610   17.5270   -4.7970 O   0  0  0  0  0  0  0  0  0  0  0  0
   -0.9170   15.8550   -5.0640 N   0  0  0  0  0  0  0  0  0  0  0  0
   -1.9000   14.7210   -5.0220 C   0  0  0  0  0  0  0  0  0  0  0  0
    0.5620   15.6600   -5.1500 C   0  0  0  0  0  0  0  0  0  0  0  0
   -1.3180   13.3460   -4.6840 C   0  0  0  0  0  0  0  0  0  0  0  0
    1.0210   14.2070   -5.1950 C   0  0  0  0  0  0  0  0  0  0  0  0
    0.0910   13.5830   -4.2390 C   0  0  0  0  0  0  0  0  0  0  0  0
    0.5000   13.2670   -2.8920 C   0  0  0  0  0  0  0  0  0  0  0  0
    0.4180   11.9710   -2.4770 O   0  0  0  0  0  0  0  0  0  0  0  0
    0.8570   14.2080   -2.1700 N   0  0  0  0  0  0  0  0  0  0  0  0
    1.2030   14.2920   -0.8480 C   0  0  0  0  0  0  0  0  0  0  0  0
   -0.0840   14.3550   -0.1410 C   0  0  0  0  0  0  0  0  0  0  0  0
   -0.2150   14.6050    1.2010 C   0  0  0  0  0  0  0  0  0  0  0  0
   -1.2440   14.1600   -0.8860 C   0  0  0  0  0  0  0  0  0  0  0  0
   -1.3910   14.6820    1.8170 N   0  0  0  0  0  0  0  0  0  0  0  0
   -2.4790   14.2340   -0.2790 C   0  0  0  0  0  0  0  0  0  0  0  0
   -3.7600   14.0290   -1.0450 C   0  0  1  0  0  0  0  0  0  0  0  0
   -2.4870   14.5060    1.0610 C   0  0  0  0  0  0  0  0  0  0  0  0
   -4.9840   13.5450   -0.2010 C   0  0  1  0  0  0  0  0  0  0  0  0
   -4.2440   15.2970   -1.7750 C   0  0  0  0  0  0  0  0  0  0  0  0
   -3.7700   14.6290    1.7450 C   0  0  0  0  0  0  0  0  0  0  0  0
   -5.5200   12.1760   -0.6360 C   0  0  0  0  0  0  0  0  0  0  0  0
   -4.7030   13.5110    1.3180 C   0  0  0  0  0  0  0  0  0  0  0  0
   -6.0940   14.5890   -0.4450 C   0  0  0  0  0  0  0  0  0  0  0  0
   -5.3560   15.8290   -0.8950 C   0  0  0  0  0  0  0  0  0  0  0  0
   -5.0690   11.5770   -1.6140 O   0  0  0  0  0  0  0  0  0  0  0  0
   -6.6370   11.5670    0.1710 C   0  0  0  0  0  0  0  0  0  0  0  0
  1  2  1  0
  2  3  2  0
  2  4  1  0
  4  5  1  0
  4  6  1  0
  5  7  1  0
  6  8  1  0
  7  9  1  0
  8  9  1  0
  9 10  1  0
 10 11  1  0
 10 12  2  3
 12 13  1  0
 13 14  1  0
 14 15  2  0
 14 16  1  0
 15 17  1  0
 16 18  2  0
 18 19  1  0
 17 20  2  0
 18 20  1  0
 19 21  1  0
 19 22  1  1
 20 23  1  0
 21 24  1  6
 21 25  1  0
 23 25  1  0
 21 26  1  0
 22 27  1  0
 26 27  1  0
 24 28  2  0
 24 29  1  0
M  END
