diamond-x0962_2_B-mac-x0180
     RDKit          3D

 21 22  0  0  0  0  0  0  0  0999 V2000
  -11.3010   15.6800    1.7470 N   0  0  0  0  0  0  0  0  0  0  0  0
   -9.9030   16.0690    1.7530 C   0  0  2  0  0  0  0  0  0  0  0  0
   -9.1840   15.4970    0.5360 C   0  0  0  0  0  0  0  0  0  0  0  0
   -9.2260   15.6250    3.0020 C   0  0  0  0  0  0  0  0  0  0  0  0
   -8.0080   14.6050    0.9590 C   0  0  0  0  0  0  0  0  0  0  0  0
   -8.9440   16.4230    4.0870 N   0  0  0  0  0  0  0  0  0  0  0  0
   -8.7370   14.3830    3.3550 C   0  0  0  0  0  0  0  0  0  0  0  0
   -6.8560   14.7380    0.0170 C   0  0  0  0  0  0  0  0  0  0  0  0
   -8.3060   15.6440    5.0140 C   0  0  0  0  0  0  0  0  0  0  0  0
   -8.1740   14.4060    4.5970 N   0  0  0  0  0  0  0  0  0  0  0  0
   -7.0480   14.7540   -1.1990 O   0  0  0  0  0  0  0  0  0  0  0  0
   -5.5690   14.8500    0.4460 N   0  0  0  0  0  0  0  0  0  0  0  0
   -4.3550   14.8490   -0.2450 C   0  0  0  0  0  0  0  0  0  0  0  0
   -3.0790   14.6890    0.2890 C   0  0  0  0  0  0  0  0  0  0  0  0
   -4.4910   15.0280   -1.6310 C   0  0  0  0  0  0  0  0  0  0  0  0
   -1.9580   14.7060   -0.5550 C   0  0  0  0  0  0  0  0  0  0  0  0
   -3.3880   15.0450   -2.4730 C   0  0  0  0  0  0  0  0  0  0  0  0
   -2.1160   14.8820   -1.9380 C   0  0  0  0  0  0  0  0  0  0  0  0
   -0.9270   14.9010   -2.8140 C   0  0  0  0  0  0  0  0  0  0  0  0
   -1.0010   14.9350   -4.0300 O   0  0  0  0  0  0  0  0  0  0  0  0
    0.2360   14.8900   -2.1350 O   0  0  0  0  0  0  0  0  0  0  0  0
  2  1  1  1
  2  3  1  0
  2  4  1  0
  3  5  1  0
  4  6  1  0
  4  7  2  0
  5  8  1  0
  6  9  1  0
  7 10  1  0
  9 10  2  0
  8 11  2  0
  8 12  1  0
 12 13  1  0
 13 14  2  0
 13 15  1  0
 14 16  1  0
 15 17  2  0
 16 18  2  0
 17 18  1  0
 18 19  1  0
 19 20  2  0
 19 21  1  0
M  END
