diamond-x0926_0_A-diamond-x0290_0_A
     RDKit          3D

 19 20  0  0  0  0  0  0  0  0999 V2000
   -6.0060   14.9340    0.0550 N   0  0  0  0  0  0  0  0  0  0  0  0
   -5.7500   14.1790    1.0820 C   0  0  0  0  0  0  0  0  0  0  0  0
   -6.8760   13.5810    1.9370 C   0  0  0  0  0  0  0  0  0  0  0  0
   -4.8310   15.3080   -0.4350 C   0  0  0  0  0  0  0  0  0  0  0  0
   -4.4350   13.8240    1.5450 N   0  0  0  0  0  0  0  0  0  0  0  0
   -3.9760   15.7120    0.5510 C   0  0  0  0  0  0  0  0  0  0  0  0
   -4.5210   15.2630   -1.7340 N   0  0  0  0  0  0  0  0  0  0  0  0
   -8.1200   13.5020    1.1250 N   0  0  0  0  0  0  0  0  0  0  0  0
   -3.2580   15.6270   -2.0870 N   0  0  0  0  0  0  0  0  0  0  0  0
   -2.7130   16.0690    0.2030 C   0  0  0  0  0  0  0  0  0  0  0  0
   -3.0810   14.0300    1.0340 C   0  0  0  0  0  0  0  0  0  0  0  0
   -8.6470   14.8440    0.8640 C   0  0  0  0  0  0  0  0  0  0  0  0
   -2.3910   16.0090   -1.1290 C   0  0  0  0  0  0  0  0  0  0  0  0
   -2.0260   14.3220    1.8620 N   0  0  0  0  0  0  0  0  0  0  0  0
   -2.8360   13.9120   -0.3470 C   0  0  0  0  0  0  0  0  0  0  0  0
   -0.7880   14.4870    1.3290 C   0  0  0  0  0  0  0  0  0  0  0  0
   -1.5400   14.0990   -0.8790 C   0  0  0  0  0  0  0  0  0  0  0  0
   -1.2790   13.9870   -2.3520 C   0  0  0  0  0  0  0  0  0  0  0  0
   -0.4970   14.3910   -0.0090 C   0  0  0  0  0  0  0  0  0  0  0  0
  1  2  2  3
  2  3  1  0
  1  4  1  0
  2  5  1  0
  4  6  2  0
  4  7  1  0
  3  8  1  0
  7  9  2  0
  6 10  1  0
  5 11  1  0
  8 12  1  0
  9 13  1  0
 10 13  2  0
 11 14  2  0
 11 15  1  0
 14 16  1  0
 15 17  2  0
 17 18  1  0
 16 19  2  0
 17 19  1  0
M  END
