diamond-x0950_0_A-diamond-x0837_0_A
     RDKit          3D

 17 17  0  0  0  0  0  0  0  0999 V2000
    2.7690   12.9330   -4.1010 C   0  0  0  0  0  0  0  0  0  0  0  0
    1.2760   12.6820   -4.1850 C   0  0  1  0  0  0  0  0  0  0  0  0
    0.9030   12.0330   -5.3330 O   0  0  0  0  0  0  0  0  0  0  0  0
    0.8460   11.9390   -2.9650 C   0  0  0  0  0  0  0  0  0  0  0  0
    0.3870   10.7900   -3.0700 O   0  0  0  0  0  0  0  0  0  0  0  0
    0.9590   12.5470   -1.7100 O   0  0  0  0  0  0  0  0  0  0  0  0
    1.3400   13.9190   -1.7130 C   0  0  0  0  0  0  0  0  0  0  0  0
    0.1970   14.7760   -2.1020 C   0  0  0  0  0  0  0  0  0  0  0  0
   -1.0420   14.4360   -1.3590 C   0  0  0  0  0  0  0  0  0  0  0  0
   -2.8690   14.6590   -2.3890 I   0  0  0  0  0  0  0  0  0  0  0  0
   -4.2660   14.4670   -0.8210 C   0  0  1  0  0  0  0  0  0  0  0  0
   -3.7340   15.0670    0.4090 C   0  0  0  0  0  0  0  0  0  0  0  0
   -5.6250   14.9390   -1.1040 C   0  0  0  0  0  0  0  0  0  0  0  0
   -4.4700   15.2600    1.4540 C   0  0  0  0  0  0  0  0  0  0  0  0
   -6.4420   14.8550    0.1240 C   0  0  0  0  0  0  0  0  0  0  0  0
   -7.6910   14.7670    0.0180 O   0  0  0  0  0  0  0  0  0  0  0  0
   -5.8330   14.8760    1.4110 N   0  0  0  0  0  0  0  0  0  0  0  0
  2  1  1  1
  2  3  1  0
  2  4  1  0
  4  5  2  0
  4  6  1  0
  6  7  1  0
  7  8  1  0
  8  9  1  0
  9 10  1  0
 11 10  1  6
 11 12  1  0
 11 13  1  0
 12 14  2  0
 13 15  1  0
 15 16  2  0
 14 17  1  0
 15 17  1  0
M  END
