diamond-x0910_0_A-diamond-x0962_1_A
     RDKit          3D

 12 13  0  0  0  0  0  0  0  0999 V2000
   -3.1480   14.7650   -0.4830 C   0  0  0  0  0  0  0  0  0  0  0  0
   -4.3250   14.7720   -0.3900 C   0  0  0  0  0  0  0  0  0  0  0  0
   -5.6490   14.7310    0.0600 C   0  0  0  0  0  0  0  0  0  0  0  0
   -1.7900   14.7540   -0.1910 C   0  0  0  0  0  0  0  0  0  0  0  0
   -1.4110   14.7930    1.1030 N   0  0  0  0  0  0  0  0  0  0  0  0
   -0.7400   14.7160   -0.9700 N   0  0  0  0  0  0  0  0  0  0  0  0
   -0.0940   14.7820    1.2250 N   0  0  0  0  0  0  0  0  0  0  0  0
    0.2810   14.7380   -0.0550 C   0  0  0  0  0  0  0  0  0  0  0  0
   -5.9650   14.5350    1.3820 N   0  0  0  0  0  0  0  0  0  0  0  0
   -6.8550   14.8530   -0.5830 C   0  0  0  0  0  0  0  0  0  0  0  0
   -7.3110   14.5440    1.4930 C   0  0  0  0  0  0  0  0  0  0  0  0
   -7.8850   14.7320    0.3280 N   0  0  0  0  0  0  0  0  0  0  0  0
  1  2  3  0
  2  3  1  0
  1  4  1  0
  4  5  1  0
  4  6  2  0
  5  7  1  0
  6  8  1  0
  7  8  2  0
  3  9  1  0
  3 10  2  0
  9 11  1  0
 10 12  1  0
 11 12  2  0
M  END
