diamond-x1018_0_A-mac-x0319
     RDKit          3D

 22 24  0  0  0  0  0  0  0  0999 V2000
   -8.2400   14.5060    1.1030 Cl  0  0  0  0  0  0  0  0  0  0  0  0
   -6.6290   14.6790    0.4940 C   0  0  0  0  0  0  0  0  0  0  0  0
   -5.5020   14.9570    1.4360 C   0  0  0  0  0  0  0  0  0  0  0  0
   -6.5000   14.5680   -0.7900 N   0  0  0  0  0  0  0  0  0  0  0  0
   -5.2200   14.7180   -1.2170 N   0  0  0  0  0  0  0  0  0  0  0  0
   -4.2530   14.8040    0.9550 C   0  0  0  0  0  0  0  0  0  0  0  0
   -4.9360   14.6370   -2.5680 N   0  0  0  0  0  0  0  0  0  0  0  0
   -4.0530   14.3590   -0.4490 C   0  0  2  0  0  0  0  0  0  0  0  0
   -3.0300   14.9810   -1.2840 N   0  0  0  0  0  0  0  0  0  0  0  0
   -3.4970   14.5280   -2.6110 N   0  0  0  0  0  0  0  0  0  0  0  0
   -2.9990   15.3140   -3.7800 C   0  0  0  0  0  0  0  0  0  0  0  0
   -1.5070   15.1720   -4.0300 C   0  0  0  0  0  0  0  0  0  0  0  0
   -0.7600   16.2830   -4.4330 C   0  0  0  0  0  0  0  0  0  0  0  0
   -0.8470   13.9490   -3.8600 C   0  0  0  0  0  0  0  0  0  0  0  0
    0.5380   13.8340   -4.0750 C   0  0  0  0  0  0  0  0  0  0  0  0
    0.5990   16.1730   -4.6430 C   0  0  0  0  0  0  0  0  0  0  0  0
    1.2140   12.5070   -3.8700 C   0  0  0  0  0  0  0  0  0  0  0  0
    1.2320   17.3110   -5.0240 O   0  0  0  0  0  0  0  0  0  0  0  0
    1.2630   14.9670   -4.4680 C   0  0  0  0  0  0  0  0  0  0  0  0
    0.7870   11.8630   -2.5740 C   0  0  0  0  0  0  0  0  0  0  0  0
    0.5550   10.5450   -2.7220 O   0  0  0  0  0  0  0  0  0  0  0  0
    0.6380   12.3870   -1.4750 O   0  0  0  0  0  0  0  0  0  0  0  0
  1  2  1  0
  2  3  1  0
  2  4  2  0
  4  5  1  0
  3  6  2  0
  5  7  1  0
  5  8  1  0
  8  6  1  1
  8  9  1  0
  7 10  1  0
  9 10  1  0
 10 11  1  0
 11 12  1  0
 12 13  2  0
 12 14  1  0
 14 15  2  0
 13 16  1  0
 15 17  1  0
 16 18  1  0
 15 19  1  0
 16 19  2  0
 17 20  1  0
 20 21  1  0
 20 22  2  0
M  END
