diamond-x0689_0_A-mac-x0224
     RDKit          3D

 18 19  0  0  0  0  0  0  0  0999 V2000
   -3.6340   15.3540    0.3030 N   0  0  0  0  0  0  0  0  0  0  0  0
   -4.7360   14.9070    1.1430 C   0  0  0  0  0  0  0  0  0  0  0  0
   -2.4080   14.7940    0.6050 C   0  0  0  0  0  0  0  0  0  0  0  0
   -3.7160   15.1860   -1.0870 C   0  0  0  0  0  0  0  0  0  0  0  0
   -1.9600   14.1650   -0.4840 N   0  0  0  0  0  0  0  0  0  0  0  0
   -1.7100   14.8400    1.7490 N   0  0  0  0  0  0  0  0  0  0  0  0
   -2.4810   14.9870   -1.7380 C   0  0  0  0  0  0  0  0  0  0  0  0
   -4.8530   15.1790   -1.8870 C   0  0  0  0  0  0  0  0  0  0  0  0
   -0.7960   13.5830   -0.4660 C   0  0  0  0  0  0  0  0  0  0  0  0
   -0.5170   14.2240    1.7090 C   0  0  0  0  0  0  0  0  0  0  0  0
   -2.3320   14.7900   -3.1020 C   0  0  0  0  0  0  0  0  0  0  0  0
   -4.7390   14.9780   -3.2760 C   0  0  0  0  0  0  0  0  0  0  0  0
   -0.9250   14.5970   -3.6010 C   0  0  0  0  0  0  0  0  0  0  0  0
   -0.0340   13.5940    0.6200 C   0  0  0  0  0  0  0  0  0  0  0  0
   -3.4820   14.7880   -3.8750 C   0  0  0  0  0  0  0  0  0  0  0  0
   -3.3860   14.5970   -5.2320 O   0  0  0  0  0  0  0  0  0  0  0  0
    0.0070   14.2950   -2.8690 O   0  0  0  0  0  0  0  0  0  0  0  0
   -0.7450   14.7760   -4.9240 O   0  0  0  0  0  0  0  0  0  0  0  0
  1  2  1  0
  1  3  1  0
  1  4  1  0
  3  5  2  0
  3  6  1  0
  4  7  2  0
  4  8  1  0
  5  9  1  0
  6 10  2  0
  7 11  1  0
  8 12  2  0
 11 13  1  0
  9 14  2  0
 10 14  1  0
 11 15  2  0
 12 15  1  0
 15 16  1  0
 13 17  2  0
 13 18  1  0
M  END
