diamond-x0471_0_A-mac-x0357
     RDKit          3D

 29 31  0  0  0  0  0  0  0  0999 V2000
   -8.9070   13.9760    2.6790 N   0  0  0  0  0  0  0  0  0  0  0  0
   -8.9800   14.9430    3.6570 C   0  0  0  0  0  0  0  0  0  0  0  0
   -9.2650   16.1130    3.4100 O   0  0  0  0  0  0  0  0  0  0  0  0
   -8.9070   14.3140    1.2730 C   0  0  0  0  0  0  0  0  0  0  0  0
   -8.6880   14.4220    5.0630 C   0  0  0  0  0  0  0  0  0  0  0  0
   -7.5030   14.5880    0.8670 C   0  0  0  0  0  0  0  0  0  0  0  0
   -9.8990   13.6700    5.6200 C   0  0  0  0  0  0  0  0  0  0  0  0
   -8.2940   15.5650    5.9970 C   0  0  0  0  0  0  0  0  0  0  0  0
   -7.1020   14.7640   -0.4390 N   0  0  0  0  0  0  0  0  0  0  0  0
   -6.4820   14.7000    1.6840 N   0  0  0  0  0  0  0  0  0  0  0  0
   -5.3900   14.9590    0.9040 C   0  0  0  0  0  0  0  0  0  0  0  0
   -5.7440   15.0040   -0.4370 C   0  0  0  0  0  0  0  0  0  0  0  0
   -4.8180   15.2480   -1.4510 C   0  0  0  0  0  0  0  0  0  0  0  0
   -4.0580   15.1700    1.2840 C   0  0  0  0  0  0  0  0  0  0  0  0
   -3.4800   15.4500   -1.0470 C   0  0  0  0  0  0  0  0  0  0  0  0
   -3.1170   15.4130    0.2960 C   0  0  0  0  0  0  0  0  0  0  0  0
   -2.4160   15.7050   -2.0630 C   0  0  0  0  0  0  0  0  0  0  0  0
   -1.0430   15.1670   -1.6450 C   0  0  0  0  0  0  0  0  0  0  0  0
   -0.8180   14.2890   -2.7610 N   0  0  0  0  0  0  0  0  0  0  0  0
   -0.0500   13.2900   -2.8480 C   0  0  0  0  0  0  0  0  0  0  0  0
    0.7540   12.8750   -1.8500 O   0  0  0  0  0  0  0  0  0  0  0  0
   -0.0160   12.5180   -4.0740 C   0  0  0  0  0  0  0  0  0  0  0  0
    1.0720   12.5180   -4.9410 C   0  0  0  0  0  0  0  0  0  0  0  0
   -1.1840   11.7900   -4.3360 C   0  0  0  0  0  0  0  0  0  0  0  0
    2.3200   13.2960   -4.6390 C   0  0  0  0  0  0  0  0  0  0  0  0
   -1.2930   11.0380   -5.4970 C   0  0  0  0  0  0  0  0  0  0  0  0
    0.9200   11.7580   -6.1010 C   0  0  0  0  0  0  0  0  0  0  0  0
    1.8830   11.6710   -7.0300 O   0  0  0  0  0  0  0  0  0  0  0  0
   -0.2300   11.0290   -6.3830 C   0  0  0  0  0  0  0  0  0  0  0  0
  1  2  1  0
  2  3  2  0
  1  4  1  0
  2  5  1  0
  4  6  1  0
  5  7  1  0
  5  8  1  0
  6  9  1  0
  6 10  2  0
 10 11  1  0
  9 12  1  0
 11 12  2  0
 12 13  1  0
 11 14  1  0
 13 15  2  0
 14 16  2  0
 15 16  1  0
 15 17  1  0
 17 18  1  0
 18 19  1  0
 19 20  2  3
 20 21  1  0
 20 22  1  0
 22 23  2  0
 22 24  1  0
 23 25  1  0
 24 26  2  0
 23 27  1  0
 27 28  1  0
 26 29  1  0
 27 29  2  0
M  END
