diamond-x0724_0_A-diamond-x0465_0_A
     RDKit          3D

 30 32  0  0  0  0  0  0  0  0999 V2000
   -8.6250   13.7220    4.3470 N   0  0  0  0  0  0  0  0  0  0  0  0
   -8.4880   13.8360    5.7910 C   0  0  0  0  0  0  0  0  0  0  0  0
   -8.4000   15.0160    3.7150 C   0  0  0  0  0  0  0  0  0  0  0  0
   -7.7780   14.8140    2.3830 C   0  0  0  0  0  0  0  0  0  0  0  0
   -6.4510   14.9330    2.0480 C   0  0  0  0  0  0  0  0  0  0  0  0
   -8.3870   14.4680    1.1580 C   0  0  0  0  0  0  0  0  0  0  0  0
   -7.5160   14.3840    0.1480 N   0  0  0  0  0  0  0  0  0  0  0  0
   -6.3120   14.6800    0.7110 N   0  0  0  0  0  0  0  0  0  0  0  0
   -5.1030   14.7200   -0.0360 C   0  0  0  0  0  0  0  0  0  0  0  0
   -3.8820   14.7810    0.6500 C   0  0  0  0  0  0  0  0  0  0  0  0
   -5.1130   14.7090   -1.4340 C   0  0  0  0  0  0  0  0  0  0  0  0
   -2.6840   14.8320   -0.0580 C   0  0  0  0  0  0  0  0  0  0  0  0
   -3.9100   14.7610   -2.1390 C   0  0  0  0  0  0  0  0  0  0  0  0
   -2.6940   14.8240   -1.4570 C   0  0  0  0  0  0  0  0  0  0  0  0
   -1.3960   14.8880   -2.2150 C   0  0  0  0  0  0  0  0  0  0  0  0
   -0.8150   13.5310   -2.4360 C   0  0  0  0  0  0  0  0  0  0  0  0
    0.6340   13.4750   -1.9870 C   0  0  0  0  0  0  0  0  0  0  0  0
    0.8710   12.0810   -2.0530 N   0  0  0  0  0  0  0  0  0  0  0  0
    0.9570   11.5200   -3.1850 C   0  0  0  0  0  0  0  0  0  0  0  0
    0.8930   12.2700   -4.5230 C   0  0  1  0  0  0  0  0  0  0  0  0
    1.1080   10.1960   -3.3180 O   0  0  0  0  0  0  0  0  0  0  0  0
    2.2530   12.9270   -4.7710 C   0  0  0  0  0  0  0  0  0  0  0  0
    0.6390   11.4230   -5.6330 O   0  0  0  0  0  0  0  0  0  0  0  0
   -0.5720   10.8000   -5.7090 C   0  0  0  0  0  0  0  0  0  0  0  0
   -0.6190    9.6850   -6.5510 C   0  0  0  0  0  0  0  0  0  0  0  0
   -1.7350   11.1780   -5.0310 C   0  0  0  0  0  0  0  0  0  0  0  0
    0.4760    9.2950   -7.2190 F   0  0  0  0  0  0  0  0  0  0  0  0
   -1.7920    8.9550   -6.7200 C   0  0  0  0  0  0  0  0  0  0  0  0
   -2.9170   10.4470   -5.1970 C   0  0  0  0  0  0  0  0  0  0  0  0
   -2.9460    9.3370   -6.0410 C   0  0  0  0  0  0  0  0  0  0  0  0
  1  2  1  0
  1  3  1  0
  3  4  1  0
  4  5  2  0
  4  6  1  0
  6  7  2  0
  5  8  1  0
  7  8  1  0
  8  9  1  0
  9 10  2  0
  9 11  1  0
 10 12  1  0
 11 13  2  0
 12 14  2  0
 13 14  1  0
 14 15  1  0
 15 16  1  0
 16 17  1  0
 17 18  1  0
 18 19  2  3
 19 20  1  0
 19 21  1  0
 20 22  1  6
 20 23  1  0
 23 24  1  0
 24 25  2  0
 24 26  1  0
 25 27  1  0
 25 28  1  0
 26 29  2  0
 28 30  2  0
 29 30  1  0
M  END
