diamond-x0742_0_A-mac-x0159
     RDKit          3D

 29 33  0  0  0  0  0  0  0  0999 V2000
   -6.1960   12.7330   -0.9390 C   0  0  0  0  0  0  0  0  0  0  0  0
   -7.6650   12.5420   -0.6800 C   0  0  0  0  0  0  0  0  0  0  0  0
   -5.7510   12.6500   -2.0870 O   0  0  0  0  0  0  0  0  0  0  0  0
   -5.2830   12.9790    0.2650 C   0  0  1  0  0  0  0  0  0  0  0  0
   -5.3580   14.2950    1.0420 C   0  0  1  0  0  0  0  0  0  0  0  0
   -5.7560   12.0610    1.4030 C   0  0  0  0  0  0  0  0  0  0  0  0
   -3.8290   12.7790   -0.1410 C   0  0  0  0  0  0  0  0  0  0  0  0
   -6.6760   14.2460    1.8260 C   0  0  0  0  0  0  0  0  0  0  0  0
   -3.0290   14.1010   -0.2680 C   0  0  2  0  0  0  0  0  0  0  0  0
   -4.0860   14.4180    1.9210 C   0  0  0  0  0  0  0  0  0  0  0  0
   -6.9510   12.7640    2.0280 C   0  0  0  0  0  0  0  0  0  0  0  0
   -1.6610   14.3590   -1.0390 C   0  0  1  0  0  0  0  0  0  0  0  0
   -2.8040   14.6700    1.1420 C   0  0  1  0  0  0  0  0  0  0  0  0
   -1.5470   14.1620    1.7490 N   0  0  0  0  0  0  0  0  0  0  0  0
   -0.4600   13.7600   -0.3390 C   0  0  0  0  0  0  0  0  0  0  0  0
   -1.7320   14.4720   -2.5290 N   0  0  0  0  0  0  0  0  0  0  0  0
   -1.7420   15.7820   -0.5900 C   0  0  0  0  0  0  0  0  0  0  0  0
   -0.4690   14.5920   -3.3130 C   0  0  0  0  0  0  0  0  0  0  0  0
   -0.4790   13.7080    0.9930 C   0  0  0  0  0  0  0  0  0  0  0  0
   -3.2470   15.6710   -0.5480 C   0  0  1  0  0  0  0  0  0  0  0  0
   -2.7340   15.5220   -2.8920 C   0  0  0  0  0  0  0  0  0  0  0  0
   -3.9860   16.4160    0.4480 N   0  0  0  0  0  0  0  0  0  0  0  0
   -3.7790   15.7740   -1.8730 N   0  0  0  0  0  0  0  0  0  0  0  0
   -0.2540   15.8740   -4.1090 C   0  0  0  0  0  0  0  0  0  0  0  0
    0.9560   16.5290   -4.2350 C   0  0  0  0  0  0  0  0  0  0  0  0
   -1.3020   16.4910   -4.7970 N   0  0  0  0  0  0  0  0  0  0  0  0
   -0.8690   17.5800   -5.4090 C   0  0  0  0  0  0  0  0  0  0  0  0
    0.7940   17.9280   -5.2120 S   0  0  0  0  0  0  0  0  0  0  0  0
   -1.7210   18.4840   -6.2350 C   0  0  0  0  0  0  0  0  0  0  0  0
  1  2  1  0
  1  3  2  0
  4  1  1  6
  4  5  1  0
  4  6  1  0
  4  7  1  0
  5  8  1  1
  9  7  1  1
  5 10  1  0
  6 11  1  0
  8 11  1  0
  9 12  1  0
  9 13  1  0
 13 10  1  1
 13 14  1  0
 12 15  1  6
 12 16  1  0
 12 17  1  0
 16 18  1  0
 14 19  1  0
 15 19  2  0
 17 20  1  0
 16 21  1  0
 20 22  1  1
 20 23  1  0
 21 23  1  0
 18 24  1  0
 24 25  2  0
 24 26  1  0
 26 27  2  0
 25 28  1  0
 27 28  1  0
 27 29  1  0
M  END
