diamond-x0849_0_A-mac-x0346
     RDKit          3D

 15 16  0  0  0  0  0  0  0  0999 V2000
   -3.5880   14.9990   -2.8740 Br  0  0  0  0  0  0  0  0  0  0  0  0
   -3.6220   14.9240   -0.9630 C   0  0  0  0  0  0  0  0  0  0  0  0
   -2.3770   14.8000   -0.2640 C   0  0  0  0  0  0  0  0  0  0  0  0
   -4.8400   14.9800   -0.2490 C   0  0  0  0  0  0  0  0  0  0  0  0
   -6.2300   15.0820   -0.7960 C   0  0  0  0  0  0  0  0  0  0  0  0
   -2.4360   14.7470    1.1270 C   0  0  0  0  0  0  0  0  0  0  0  0
   -4.7320   14.9250    1.1240 C   0  0  0  0  0  0  0  0  0  0  0  0
   -1.0760   14.7220   -0.8450 C   0  0  0  0  0  0  0  0  0  0  0  0
   -7.2870   14.4980   -0.1120 N   0  0  0  0  0  0  0  0  0  0  0  0
   -6.4340   15.6430   -1.8610 O   0  0  0  0  0  0  0  0  0  0  0  0
   -3.5690   14.8120    1.7860 N   0  0  0  0  0  0  0  0  0  0  0  0
   -1.3690   14.6280    1.8750 N   0  0  0  0  0  0  0  0  0  0  0  0
    0.0470   14.6030   -0.0370 C   0  0  0  0  0  0  0  0  0  0  0  0
   -7.3970   14.7330    1.2800 O   0  0  0  0  0  0  0  0  0  0  0  0
   -0.1710   14.5610    1.3160 C   0  0  0  0  0  0  0  0  0  0  0  0
  1  2  1  0
  2  3  2  0
  2  4  1  0
  4  5  1  0
  3  6  1  0
  4  7  2  0
  3  8  1  0
  5  9  1  0
  5 10  2  0
  6 11  2  0
  7 11  1  0
  6 12  1  0
  8 13  2  0
  9 14  1  0
 12 15  2  0
 13 15  1  0
M  END
