diamond-x1012_0_A-diamond-x0465_0_A
     RDKit          3D

 22 23  0  0  0  0  0  0  0  0999 V2000
   -0.3000   18.3450   -4.8140 N   0  0  0  0  0  0  0  0  0  0  0  0
   -1.3060   17.4530   -4.8100 C   0  0  0  0  0  0  0  0  0  0  0  0
   -2.4360   17.8570   -4.9400 O   0  0  0  0  0  0  0  0  0  0  0  0
   -0.9990   16.1510   -4.6210 N   0  0  0  0  0  0  0  0  0  0  0  0
   -2.0310   15.1430   -4.2350 C   0  0  0  0  0  0  0  0  0  0  0  0
    0.4450   15.9210   -4.3940 C   0  0  0  0  0  0  0  0  0  0  0  0
   -1.5980   14.1580   -3.1510 C   0  0  0  0  0  0  0  0  0  0  0  0
    0.7280   15.0630   -3.1840 C   0  0  0  0  0  0  0  0  0  0  0  0
   -0.1510   13.8630   -3.4390 C   0  0  0  0  0  0  0  0  0  0  0  0
    0.5090   12.5150   -3.3180 C   0  0  0  0  0  0  0  0  0  0  0  0
   -0.2960   11.4280   -2.8950 O   0  0  0  0  0  0  0  0  0  0  0  0
    1.5810   12.6010   -2.3730 O   0  0  0  0  0  0  0  0  0  0  0  0
    1.0090   12.4390   -4.7920 C   0  0  1  0  0  0  0  0  0  0  0  0
    2.4630   12.8650   -4.9310 C   0  0  0  0  0  0  0  0  0  0  0  0
    0.7580   11.2070   -5.4800 O   0  0  0  0  0  0  0  0  0  0  0  0
   -0.5170   10.7210   -5.6530 C   0  0  0  0  0  0  0  0  0  0  0  0
   -0.7150    9.6890   -6.5730 C   0  0  0  0  0  0  0  0  0  0  0  0
   -1.6010   11.2230   -4.9390 C   0  0  0  0  0  0  0  0  0  0  0  0
    0.3210    9.2030   -7.2710 F   0  0  0  0  0  0  0  0  0  0  0  0
   -1.9700    9.1460   -6.7870 C   0  0  0  0  0  0  0  0  0  0  0  0
   -2.8750   10.6800   -5.1500 C   0  0  0  0  0  0  0  0  0  0  0  0
   -3.0580    9.6420   -6.0720 C   0  0  0  0  0  0  0  0  0  0  0  0
  1  2  1  0
  2  3  2  0
  2  4  1  0
  4  5  1  0
  4  6  1  0
  5  7  1  0
  6  8  1  0
  7  9  1  0
  8  9  1  0
  9 10  1  0
 10 11  1  0
 10 12  1  0
 10 13  1  0
 13 14  1  1
 13 15  1  0
 15 16  1  0
 16 17  2  0
 16 18  1  0
 17 19  1  0
 17 20  1  0
 18 21  2  0
 20 22  2  0
 21 22  1  0
M  END
