diamond-x0905_0_A-diamond-x0962_1_A
     RDKit          3D

 13 14  0  0  0  0  0  0  0  0999 V2000
   -6.6390   15.2950   -0.4280 O   0  0  0  0  0  0  0  0  0  0  0  0
   -5.3730   15.9010   -0.6130 C   0  0  1  0  0  0  0  0  0  0  0  0
   -4.6200   15.8420    0.6450 N   0  0  0  0  0  0  0  0  0  0  0  0
   -4.5840   15.2330   -1.7240 C   0  0  0  0  0  0  0  0  0  0  0  0
   -3.3420   15.3360    0.7160 C   0  0  0  0  0  0  0  0  0  0  0  0
   -3.9970   13.9600   -1.1050 C   0  0  1  0  0  0  0  0  0  0  0  0
   -2.9610   14.3940   -0.1250 C   0  0  0  0  0  0  0  0  0  0  0  0
   -5.1620   13.3440   -0.3720 C   0  0  0  0  0  0  0  0  0  0  0  0
   -3.4110   13.0700   -2.1150 N   0  0  0  0  0  0  0  0  0  0  0  0
   -5.2300   13.3320    1.0020 N   0  0  0  0  0  0  0  0  0  0  0  0
   -6.3290   12.7170   -0.7680 C   0  0  0  0  0  0  0  0  0  0  0  0
   -6.3900   12.7210    1.3670 C   0  0  0  0  0  0  0  0  0  0  0  0
   -7.0790   12.3360    0.3200 N   0  0  0  0  0  0  0  0  0  0  0  0
  2  1  1  1
  2  3  1  0
  2  4  1  0
  3  5  1  0
  4  6  1  0
  5  7  2  0
  6  7  1  0
  6  8  1  0
  6  9  1  6
  8 10  1  0
  8 11  2  0
 10 12  1  0
 11 13  1  0
 12 13  2  0
M  END
