diamond-x0438_0_A-diamond-x0844_0_A
     RDKit          3D

 16 17  0  0  0  0  0  0  0  0999 V2000
   -8.3340   15.7850    4.0960 C   0  0  0  0  0  0  0  0  0  0  0  0
   -9.4080   15.3640    2.7380 S   0  0  0  0  0  0  0  0  0  0  0  0
  -10.6780   14.9290    3.2850 O   0  0  0  0  0  0  0  0  0  0  0  0
   -8.6360   13.9720    1.9720 C   0  0  0  0  0  0  0  0  0  0  0  0
   -9.3800   16.4520    1.7820 O   0  0  0  0  0  0  0  0  0  0  0  0
   -7.3500   14.3180    1.3350 C   0  0  0  0  0  0  0  0  0  0  0  0
   -7.3110   14.4260   -0.0350 N   0  0  0  0  0  0  0  0  0  0  0  0
   -6.2250   14.5310    1.9750 N   0  0  0  0  0  0  0  0  0  0  0  0
   -5.3210   14.7330    0.9810 C   0  0  0  0  0  0  0  0  0  0  0  0
   -6.0690   14.7020   -0.2490 C   0  0  0  0  0  0  0  0  0  0  0  0
   -5.4310   14.9660   -1.5230 C   0  0  0  0  0  0  0  0  0  0  0  0
   -3.9990   14.9140    0.9700 C   0  0  0  0  0  0  0  0  0  0  0  0
   -6.1730   15.0890   -2.4630 O   0  0  0  0  0  0  0  0  0  0  0  0
   -3.9380   15.0470   -1.4950 C   0  0  0  0  0  0  0  0  0  0  0  0
   -3.3030   15.0370   -0.3010 C   0  0  0  0  0  0  0  0  0  0  0  0
   -3.0420   15.1280   -3.1210 Br  0  0  0  0  0  0  0  0  0  0  0  0
  2  1  1  0
  2  3  2  0
  2  4  1  0
  2  5  2  0
  4  6  1  0
  6  7  1  0
  6  8  2  0
  8  9  1  0
  7 10  2  0
  9 10  1  0
 10 11  1  0
  9 12  2  0
 11 13  2  0
 11 14  1  0
 12 15  1  0
 14 15  2  0
 14 16  1  0
M  END
