diamond-x0438_0_A-diamond-x0421_0_A
     RDKit          3D

 17 18  0  0  0  0  0  0  0  0999 V2000
   -8.2000   15.5490    3.8820 C   0  0  0  0  0  0  0  0  0  0  0  0
   -9.4250   15.3840    2.5940 S   0  0  0  0  0  0  0  0  0  0  0  0
  -10.6390   14.8940    3.2220 O   0  0  0  0  0  0  0  0  0  0  0  0
   -8.8560   14.0870    1.5110 C   0  0  0  0  0  0  0  0  0  0  0  0
   -9.4900   16.5960    1.8050 O   0  0  0  0  0  0  0  0  0  0  0  0
   -7.4750   14.3240    1.0150 C   0  0  0  0  0  0  0  0  0  0  0  0
   -7.1740   14.4100   -0.3230 N   0  0  0  0  0  0  0  0  0  0  0  0
   -6.3920   14.4640    1.7440 N   0  0  0  0  0  0  0  0  0  0  0  0
   -5.3540   14.6330    0.8650 C   0  0  0  0  0  0  0  0  0  0  0  0
   -5.8210   14.6010   -0.4400 C   0  0  0  0  0  0  0  0  0  0  0  0
   -4.9980   14.7350   -1.5500 C   0  0  0  0  0  0  0  0  0  0  0  0
   -3.9860   14.8160    1.1130 C   0  0  0  0  0  0  0  0  0  0  0  0
   -3.6350   14.8990   -1.2860 C   0  0  0  0  0  0  0  0  0  0  0  0
   -3.1320   14.9460    0.0170 C   0  0  0  0  0  0  0  0  0  0  0  0
   -2.6770   15.0150   -2.3920 C   0  0  0  0  0  0  0  0  0  0  0  0
   -3.1930   15.2700   -3.6250 N   0  0  0  0  0  0  0  0  0  0  0  0
   -1.4750   14.8700   -2.2170 O   0  0  0  0  0  0  0  0  0  0  0  0
  2  1  1  0
  2  3  2  0
  2  4  1  0
  2  5  2  0
  4  6  1  0
  6  7  1  0
  6  8  2  0
  8  9  1  0
  7 10  1  0
  9 10  2  0
 10 11  1  0
  9 12  1  0
 11 13  2  0
 12 14  2  0
 13 14  1  0
 13 15  1  0
 15 16  1  0
 15 17  2  0
M  END
