diamond-x0742_0_A-diamond-x0685_0_A
     RDKit          3D

 21 23  0  0  0  0  0  0  0  0999 V2000
   -5.3270   12.0590   -0.5100 C   0  0  0  0  0  0  0  0  0  0  0  0
   -6.5740   11.3470   -0.0520 C   0  0  0  0  0  0  0  0  0  0  0  0
   -4.6200   11.5770   -1.3990 O   0  0  0  0  0  0  0  0  0  0  0  0
   -5.0320   13.3980    0.1680 C   0  0  2  0  0  0  0  0  0  0  0  0
   -4.5680   13.2890    1.6300 C   0  0  0  0  0  0  0  0  0  0  0  0
   -6.2980   14.2640    0.0870 C   0  0  1  0  0  0  0  0  0  0  0  0
   -4.0920   14.3540   -0.5620 C   0  0  2  0  0  0  0  0  0  0  0  0
   -6.3170   14.9320    1.4060 N   0  0  0  0  0  0  0  0  0  0  0  0
   -4.7710   14.4520   -1.8850 C   0  0  1  0  0  0  0  0  0  0  0  0
   -2.6250   14.3240   -0.2730 C   0  0  0  0  0  0  0  0  0  0  0  0
   -3.5880   14.4270    1.9310 C   0  0  0  0  0  0  0  0  0  0  0  0
   -6.0300   15.1160   -1.2400 C   0  0  0  0  0  0  0  0  0  0  0  0
   -7.5020   14.7810    2.2760 C   0  0  0  0  0  0  0  0  0  0  0  0
   -3.9510   15.2080   -2.8390 C   0  0  0  0  0  0  0  0  0  0  0  0
   -1.5140   14.2660   -1.1220 C   0  0  0  0  0  0  0  0  0  0  0  0
   -2.4160   14.3810    1.0600 C   0  0  0  0  0  0  0  0  0  0  0  0
   -7.7550   13.3200    2.6180 C   0  0  0  0  0  0  0  0  0  0  0  0
   -3.2690   15.7350   -3.6100 N   0  0  0  0  0  0  0  0  0  0  0  0
   -1.2540   14.3990    1.6710 N   0  0  0  0  0  0  0  0  0  0  0  0
   -0.2520   14.2820   -0.5140 C   0  0  0  0  0  0  0  0  0  0  0  0
   -0.2130   14.3540    0.8710 C   0  0  0  0  0  0  0  0  0  0  0  0
  1  2  1  0
  1  3  2  0
  4  1  1  6
  4  5  1  0
  4  6  1  0
  4  7  1  0
  6  8  1  1
  7  9  1  0
  7 10  1  6
  5 11  1  0
  6 12  1  0
  9 12  1  0
  8 13  1  0
  9 14  1  6
 10 15  1  0
 10 16  2  0
 11 16  1  0
 13 17  1  0
 14 18  3  0
 16 19  1  0
 15 20  2  0
 19 21  2  0
 20 21  1  0
M  END
