diamond-x0727_0_A-diamond-x0574_0_A
     RDKit          3D

 28 30  0  0  0  0  0  0  0  0999 V2000
    0.1030   11.9960   -5.6840 N   0  0  0  0  0  0  0  0  0  0  0  0
    1.0480   12.5720   -4.7400 C   0  0  1  0  0  0  0  0  0  0  0  0
    0.7230   14.0550   -4.6290 C   0  0  0  0  0  0  0  0  0  0  0  0
    0.5060   11.1880   -6.7150 C   0  0  0  0  0  0  0  0  0  0  0  0
    1.5720   11.2870   -7.2870 O   0  0  0  0  0  0  0  0  0  0  0  0
    0.9270   11.8690   -3.3700 C   0  0  0  0  0  0  0  0  0  0  0  0
   -0.5620   10.1650   -7.0080 C   0  0  0  0  0  0  0  0  0  0  0  0
    0.1110   10.9890   -3.1370 O   0  0  0  0  0  0  0  0  0  0  0  0
    1.8380   12.2830   -2.4410 O   0  0  0  0  0  0  0  0  0  0  0  0
   -1.0500   10.0630   -8.4360 C   0  0  0  0  0  0  0  0  0  0  0  0
   -0.2470    8.7190   -6.6760 C   0  0  0  0  0  0  0  0  0  0  0  0
    2.4880   13.5540   -2.5590 C   0  0  0  0  0  0  0  0  0  0  0  0
   -1.9840    8.8510   -8.3480 C   0  0  0  0  0  0  0  0  0  0  0  0
   -1.5500    8.0670   -7.0970 C   0  0  0  0  0  0  0  0  0  0  0  0
    1.8870   14.4740   -1.5150 C   0  0  0  0  0  0  0  0  0  0  0  0
    0.7210   13.8210   -0.7960 C   0  0  0  0  0  0  0  0  0  0  0  0
    0.3310   14.3680    0.5100 N   0  0  0  0  0  0  0  0  0  0  0  0
   -0.9610   14.5170    0.5330 C   0  0  0  0  0  0  0  0  0  0  0  0
   -1.8550   14.4890    1.5020 N   0  0  0  0  0  0  0  0  0  0  0  0
   -1.4890   14.7680   -1.0560 S   0  0  0  0  0  0  0  0  0  0  0  0
   -3.0960   14.6700    0.8770 C   0  0  0  0  0  0  0  0  0  0  0  0
   -3.0680   14.8410   -0.5090 C   0  0  0  0  0  0  0  0  0  0  0  0
   -4.3600   14.6930    1.4770 C   0  0  0  0  0  0  0  0  0  0  0  0
   -4.1930   15.0370   -1.2950 C   0  0  0  0  0  0  0  0  0  0  0  0
   -5.5110   14.8770    0.7060 C   0  0  0  0  0  0  0  0  0  0  0  0
   -5.4150   15.0520   -0.6650 C   0  0  0  0  0  0  0  0  0  0  0  0
   -6.7980   14.9060    1.1660 O   0  0  0  0  0  0  0  0  0  0  0  0
   -6.9880   14.6950    2.5560 C   0  0  0  0  0  0  0  0  0  0  0  0
  1  2  1  0
  2  3  1  1
  1  4  1  0
  4  5  2  0
  2  6  1  0
  4  7  1  0
  6  8  2  0
  6  9  1  0
  7 10  1  0
  7 11  1  0
  9 12  1  0
 10 13  1  0
 11 14  1  0
 13 14  1  0
 12 15  1  0
 15 16  1  0
 16 17  1  0
 17 18  1  0
 18 19  2  0
 18 20  1  0
 19 21  1  0
 20 22  1  0
 21 22  2  0
 21 23  1  0
 22 24  1  0
 23 25  2  0
 24 26  2  0
 25 26  1  0
 25 27  1  0
 27 28  1  0
M  END
