diamond-x0676_0_B-mac-x0436
     RDKit          3D

 31 34  0  0  0  0  0  0  0  0999 V2000
    5.8210    6.5470   -9.2390 C   0  0  0  0  0  0  0  0  0  0  0  0
    4.8030    7.1130  -10.1620 C   0  0  0  0  0  0  0  0  0  0  0  0
    5.0900    7.7320  -11.2660 N   0  0  0  0  0  0  0  0  0  0  0  0
    3.3340    7.0180   -9.8840 C   0  0  0  0  0  0  0  0  0  0  0  0
    2.8430    8.0240  -10.8910 C   0  0  0  0  0  0  0  0  0  0  0  0
    3.8720    8.1500  -11.8060 N   0  0  0  0  0  0  0  0  0  0  0  0
    1.7090    8.6000  -10.8430 N   0  0  0  0  0  0  0  0  0  0  0  0
    3.9420    9.1830  -12.7820 C   0  0  0  0  0  0  0  0  0  0  0  0
    0.8320    8.2440   -9.7470 C   0  0  0  0  0  0  0  0  0  0  0  0
    3.0020   10.2390  -12.7890 C   0  0  0  0  0  0  0  0  0  0  0  0
    4.9270    9.2200  -13.7700 C   0  0  0  0  0  0  0  0  0  0  0  0
    0.8760    9.2910   -8.6320 C   0  0  0  0  0  0  0  0  0  0  0  0
    3.0510   11.2740  -13.7290 C   0  0  0  0  0  0  0  0  0  0  0  0
    4.9810   10.2500  -14.7170 C   0  0  0  0  0  0  0  0  0  0  0  0
    4.0440   11.2780  -14.6960 C   0  0  0  0  0  0  0  0  0  0  0  0
   -0.3570    9.1100   -7.7980 C   0  0  0  0  0  0  0  0  0  0  0  0
   -0.7650   10.0030   -6.7900 C   0  0  0  0  0  0  0  0  0  0  0  0
   -1.1250    7.9670   -8.0700 C   0  0  0  0  0  0  0  0  0  0  0  0
   -1.9500    9.7000   -6.0890 C   0  0  0  0  0  0  0  0  0  0  0  0
   -0.0060   11.1590   -6.4990 N   0  0  0  0  0  0  0  0  0  0  0  0
   -2.2860    7.6930   -7.3650 C   0  0  0  0  0  0  0  0  0  0  0  0
   -0.4260   11.9570   -5.5580 C   0  0  0  0  0  0  0  0  0  0  0  0
   -2.3920   10.5570   -5.0820 N   0  0  0  0  0  0  0  0  0  0  0  0
   -2.7030    8.5620   -6.3690 C   0  0  0  0  0  0  0  0  0  0  0  0
    0.3530   13.2100   -5.2130 C   0  0  0  0  0  0  0  0  0  0  0  0
   -1.7050   11.6930   -4.7600 C   0  0  0  0  0  0  0  0  0  0  0  0
    1.5790   12.9340   -4.3460 C   0  0  0  0  0  0  0  0  0  0  0  0
   -2.0600   12.4800   -3.8920 O   0  0  0  0  0  0  0  0  0  0  0  0
    1.2140   12.3920   -2.9780 C   0  0  0  0  0  0  0  0  0  0  0  0
    0.5510   11.2180   -2.9740 O   0  0  0  0  0  0  0  0  0  0  0  0
    1.4920   12.9660   -1.9400 O   0  0  0  0  0  0  0  0  0  0  0  0
  1  2  1  0
  2  3  2  0
  2  4  1  0
  4  5  1  0
  3  6  1  0
  5  6  1  0
  5  7  2  3
  6  8  1  0
  7  9  1  0
  8 10  2  0
  8 11  1  0
  9 12  1  0
 10 13  1  0
 11 14  2  0
 13 15  2  0
 14 15  1  0
 12 16  1  0
 16 17  1  0
 16 18  2  0
 17 19  2  0
 17 20  1  0
 18 21  1  0
 20 22  2  0
 19 23  1  0
 19 24  1  0
 21 24  2  0
 22 25  1  0
 22 26  1  0
 23 26  1  0
 25 27  1  0
 26 28  2  0
 27 29  1  0
 29 30  1  0
 29 31  2  0
M  END
