diamond-x0626_0_A-mac-x1494
     RDKit          3D

 17 18  0  0  0  0  0  0  0  0999 V2000
   -4.8680   14.1090    0.9670 N   0  0  0  0  0  0  0  0  0  0  0  0
   -6.1160   14.4570    0.4970 C   0  0  0  0  0  0  0  0  0  0  0  0
   -6.4330   14.8150   -0.6270 O   0  0  0  0  0  0  0  0  0  0  0  0
   -3.6190   14.4570    0.5070 C   0  0  0  0  0  0  0  0  0  0  0  0
   -7.1640   14.3430    1.5940 C   0  0  0  0  0  0  0  0  0  0  0  0
   -2.5420   14.2850    1.2550 N   0  0  0  0  0  0  0  0  0  0  0  0
   -3.0570   15.1010   -0.8520 S   0  0  0  0  0  0  0  0  0  0  0  0
   -8.5610   14.6550    1.0820 C   0  0  0  0  0  0  0  0  0  0  0  0
   -1.4700   15.2560   -0.6850 C   0  0  0  0  0  0  0  0  0  0  0  0
   -1.3380   14.7160    0.5970 C   0  0  0  0  0  0  0  0  0  0  0  0
   -4.4310   15.2520   -1.7400 C   0  0  0  0  0  0  0  0  0  0  0  0
   -2.9540   15.8040   -2.4800 C   0  0  0  0  0  0  0  0  0  0  0  0
   -0.0800   14.5420    1.3040 C   0  0  0  0  0  0  0  0  0  0  0  0
   -4.5080   14.0040   -2.6250 C   0  0  2  0  0  0  0  0  0  0  0  0
   -3.6280   15.5870   -3.6740 C   0  0  0  0  0  0  0  0  0  0  0  0
   -2.8910   13.2110   -2.8280 Cl  0  0  0  0  0  0  0  0  0  0  0  0
   -4.7000   14.6030   -3.9180 C   0  0  0  0  0  0  0  0  0  0  0  0
  1  2  1  0
  2  3  2  0
  1  4  1  0
  2  5  1  0
  4  6  2  0
  4  7  1  0
  5  8  1  0
  7  9  1  0
  6 10  1  0
  9 10  2  0
  7 11  1  0
  7 12  1  0
 10 13  1  0
 11 14  1  0
 12 15  2  0
 14 16  1  6
 14 17  1  0
 15 17  1  0
M  END
