diamond-x0290_0_A-diamond-x0950_1_A
     RDKit          3D

 21 21  0  0  0  0  0  0  0  0999 V2000
   -7.7530   13.8180    0.9810 N   0  0  0  0  0  0  0  0  0  0  0  0
   -8.5690   14.9880    0.7140 C   0  0  0  0  0  0  0  0  0  0  0  0
   -6.5710   14.1500    1.7920 C   0  0  0  0  0  0  0  0  0  0  0  0
   -5.3670   14.4490    0.8910 C   0  0  0  0  0  0  0  0  0  0  0  0
   -5.4870   14.4780   -0.3410 O   0  0  0  0  0  0  0  0  0  0  0  0
   -4.1350   14.6790    1.4090 N   0  0  0  0  0  0  0  0  0  0  0  0
   -2.8550   14.6360    0.8760 C   0  0  0  0  0  0  0  0  0  0  0  0
   -1.8690   14.6010    1.8070 N   0  0  0  0  0  0  0  0  0  0  0  0
   -2.5720   14.6370   -0.4770 C   0  0  0  0  0  0  0  0  0  0  0  0
   -0.5920   14.5600    1.3870 C   0  0  0  0  0  0  0  0  0  0  0  0
   -1.2370   14.5890   -0.8950 C   0  0  0  0  0  0  0  0  0  0  0  0
   -0.8630   14.5800   -2.3520 C   0  0  0  0  0  0  0  0  0  0  0  0
   -0.2330   14.5590    0.0700 C   0  0  0  0  0  0  0  0  0  0  0  0
    0.6490   14.7580   -2.5480 C   0  0  0  0  0  0  0  0  0  0  0  0
    1.5000   13.8700   -1.6350 C   0  0  0  0  0  0  0  0  0  0  0  0
    1.9530   12.7250   -2.3720 O   0  0  0  0  0  0  0  0  0  0  0  0
    1.0770   12.0870   -3.1850 C   0  0  0  0  0  0  0  0  0  0  0  0
    1.3360   12.4390   -4.6600 C   0  0  2  0  0  0  0  0  0  0  0  0
    0.2020   11.3080   -2.8110 O   0  0  0  0  0  0  0  0  0  0  0  0
    0.9870   13.8620   -5.0390 C   0  0  0  0  0  0  0  0  0  0  0  0
    0.5900   11.5700   -5.5140 O   0  0  0  0  0  0  0  0  0  0  0  0
  1  2  1  0
  1  3  1  0
  3  4  1  0
  4  5  2  0
  4  6  1  0
  6  7  1  0
  7  8  2  0
  7  9  1  0
  8 10  1  0
  9 11  2  0
 11 12  1  0
 10 13  2  0
 11 13  1  0
 12 14  1  0
 14 15  1  0
 15 16  1  0
 16 17  1  0
 17 18  1  0
 17 19  2  0
 18 20  1  1
 18 21  1  0
M  END
