diamond-x0905_0_A-mac-x0284
     RDKit          3D

 17 18  0  0  0  0  0  0  0  0999 V2000
   -7.4660   14.4680   -0.1400 O   0  0  0  0  0  0  0  0  0  0  0  0
   -6.1830   14.7620    0.1790 C   0  0  0  0  0  0  0  0  0  0  0  0
   -5.3770   14.7490   -0.8110 N   0  0  0  0  0  0  0  0  0  0  0  0
   -5.7800   15.0500    1.4330 C   0  0  0  0  0  0  0  0  0  0  0  0
   -4.1060   15.0410   -0.5340 C   0  0  0  0  0  0  0  0  0  0  0  0
   -4.4470   15.3580    1.6690 C   0  0  0  0  0  0  0  0  0  0  0  0
   -3.5750   15.3530    0.6590 C   0  0  0  0  0  0  0  0  0  0  0  0
   -3.3390   14.9840   -1.6740 C   0  0  0  0  0  0  0  0  0  0  0  0
   -1.9890   14.7260   -1.5750 C   0  0  0  0  0  0  0  0  0  0  0  0
   -3.9590   15.1770   -2.8840 C   0  0  0  0  0  0  0  0  0  0  0  0
   -1.2300   14.6570   -2.7180 C   0  0  0  0  0  0  0  0  0  0  0  0
   -3.2300   15.1150   -4.0370 C   0  0  0  0  0  0  0  0  0  0  0  0
    0.2140   14.3760   -2.5350 C   0  0  0  0  0  0  0  0  0  0  0  0
   -1.8700   14.8520   -3.9480 C   0  0  0  0  0  0  0  0  0  0  0  0
   -1.1630   14.7900   -5.1060 O   0  0  0  0  0  0  0  0  0  0  0  0
    0.7940   14.5120   -1.4720 O   0  0  0  0  0  0  0  0  0  0  0  0
    0.8390   13.9510   -3.6420 O   0  0  0  0  0  0  0  0  0  0  0  0
  1  2  1  0
  2  3  2  0
  2  4  1  0
  3  5  1  0
  4  6  2  0
  5  7  2  0
  6  7  1  0
  5  8  1  0
  8  9  2  0
  8 10  1  0
  9 11  1  0
 10 12  2  0
 11 13  1  0
 11 14  2  0
 12 14  1  0
 14 15  1  0
 13 16  2  0
 13 17  1  0
M  END
