diamond-x0128_0_A-mac-x0303
     RDKit          3D

 22 24  0  0  0  0  0  0  0  0999 V2000
   -6.5320   15.0440    2.7050 N   0  0  0  0  0  0  0  0  0  0  0  0
   -7.9210   15.2050    3.0840 C   0  0  1  0  0  0  0  0  0  0  0  0
   -8.8390   14.2590    2.2500 C   0  0  0  0  0  0  0  0  0  0  0  0
   -5.9750   14.8340    1.4800 C   0  0  0  0  0  0  0  0  0  0  0  0
   -8.0310   14.9670    4.5060 N   0  0  0  0  0  0  0  0  0  0  0  0
   -6.5400   14.7350    0.2610 C   0  0  0  0  0  0  0  0  0  0  0  0
   -4.5380   14.7020    1.3820 C   0  0  0  0  0  0  0  0  0  0  0  0
   -8.6070   12.9160    2.4220 N   0  0  0  0  0  0  0  0  0  0  0  0
   -9.7180   14.6570    1.4800 O   0  0  0  0  0  0  0  0  0  0  0  0
   -5.4600   14.4930   -0.7580 C   0  0  1  0  0  0  0  0  0  0  0  0
   -8.6410   15.8710    5.3830 C   0  0  0  0  0  0  0  0  0  0  0  0
   -4.2260   14.5170    0.1160 C   0  0  0  0  0  0  0  0  0  0  0  0
   -5.6390   13.1160   -1.3550 C   0  0  0  0  0  0  0  0  0  0  0  0
   -2.9580   14.3480   -0.4990 C   0  0  0  0  0  0  0  0  0  0  0  0
   -9.1920   17.0730    4.9040 C   0  0  0  0  0  0  0  0  0  0  0  0
   -8.7650   15.6720    6.7560 C   0  0  0  0  0  0  0  0  0  0  0  0
   -5.2360   15.4140   -1.9080 C   0  0  0  0  0  0  0  0  0  0  0  0
   -9.8210   18.0120    5.6510 N   0  0  0  0  0  0  0  0  0  0  0  0
   -9.4040   16.6180    7.5580 C   0  0  0  0  0  0  0  0  0  0  0  0
   -3.9670   15.5630   -2.3560 C   0  0  0  0  0  0  0  0  0  0  0  0
   -2.8460   14.8700   -1.7220 C   0  0  0  0  0  0  0  0  0  0  0  0
   -9.9120   17.7620    6.9650 C   0  0  0  0  0  0  0  0  0  0  0  0
  2  1  1  6
  2  3  1  0
  1  4  1  0
  2  5  1  0
  4  6  2  0
  4  7  1  0
  3  8  1  0
  3  9  2  0
  6 10  1  0
  5 11  1  0
  7 12  2  0
 10 12  1  0
 10 13  1  6
 12 14  1  0
 11 15  2  0
 11 16  1  0
 10 17  1  0
 15 18  1  0
 16 19  2  0
 17 20  2  0
 14 21  2  0
 20 21  1  0
 18 22  2  0
 19 22  1  0
M  END
