diamond-x0905_0_A-diamond-x0587_0_A
     RDKit          3D

 19 20  0  0  0  0  0  0  0  0999 V2000
   -5.4270   16.2050   -0.2100 O   0  0  0  0  0  0  0  0  0  0  0  0
   -4.2870   15.5050   -0.1360 C   0  0  0  0  0  0  0  0  0  0  0  0
   -3.4210   15.9620    0.7560 N   0  0  0  0  0  0  0  0  0  0  0  0
   -4.1180   14.4290   -0.9400 C   0  0  0  0  0  0  0  0  0  0  0  0
   -2.2680   15.2690    0.8350 C   0  0  0  0  0  0  0  0  0  0  0  0
   -2.9240   13.7360   -0.8590 C   0  0  0  0  0  0  0  0  0  0  0  0
   -5.2740   14.1170   -1.7960 C   0  0  0  0  0  0  0  0  0  0  0  0
   -1.9740   14.1670    0.0540 C   0  0  0  0  0  0  0  0  0  0  0  0
   -5.1850   12.8720   -2.3650 F   0  0  0  0  0  0  0  0  0  0  0  0
   -5.4190   15.0230   -2.8240 F   0  0  0  0  0  0  0  0  0  0  0  0
   -6.3130   14.2970   -0.6650 C   0  0  0  0  0  0  0  0  0  0  0  0
   -7.6350   14.5060   -0.8700 N   0  0  0  0  0  0  0  0  0  0  0  0
   -5.7590   14.2450    0.5760 N   0  0  0  0  0  0  0  0  0  0  0  0
   -8.3840   14.6820    0.2560 C   0  0  0  0  0  0  0  0  0  0  0  0
   -6.5410   14.4250    1.6400 C   0  0  0  0  0  0  0  0  0  0  0  0
   -7.8800   14.6560    1.5480 C   0  0  0  0  0  0  0  0  0  0  0  0
   -8.6450   14.8560    2.7820 C   0  0  0  0  0  0  0  0  0  0  0  0
   -7.9610   14.8490    3.9730 N   0  0  0  0  0  0  0  0  0  0  0  0
   -9.8550   15.0360    2.7530 O   0  0  0  0  0  0  0  0  0  0  0  0
  1  2  1  0
  2  3  2  0
  2  4  1  0
  3  5  1  0
  4  6  2  0
  4  7  1  0
  5  8  2  0
  6  8  1  0
  7  9  1  0
  7 10  1  0
  7 11  1  0
 11 12  2  0
 11 13  1  0
 12 14  1  0
 13 15  2  0
 14 16  2  0
 15 16  1  0
 16 17  1  0
 17 18  1  0
 17 19  2  0
M  END
