diamond-x0742_0_A-diamond-x0967_0_A
     RDKit          3D

 21 24  0  0  0  0  0  0  0  0999 V2000
   -5.2480   11.8390   -0.7840 C   0  0  0  0  0  0  0  0  0  0  0  0
   -6.3250   11.4390    0.1980 C   0  0  0  0  0  0  0  0  0  0  0  0
   -4.8370   11.0090   -1.6000 O   0  0  0  0  0  0  0  0  0  0  0  0
   -4.7220   13.3000   -0.8380 C   0  0  2  0  0  0  0  0  0  0  0  0
   -5.0030   14.1190    0.4550 C   0  0  1  0  0  0  0  0  0  0  0  0
   -5.4520   13.7670   -2.1280 C   0  0  0  0  0  0  0  0  0  0  0  0
   -3.3480   13.6950   -1.4350 C   0  0  2  0  0  0  0  0  0  0  0  0
   -3.2690   12.8210   -2.6780 C   0  0  0  0  0  0  0  0  0  0  0  0
   -2.2030   13.9450   -0.5020 C   0  0  0  0  0  0  0  0  0  0  0  0
   -3.7950   14.1520    1.4420 C   0  0  0  0  0  0  0  0  0  0  0  0
   -5.3220   15.5200   -0.0960 C   0  0  0  0  0  0  0  0  0  0  0  0
   -6.1820   13.7030    1.3230 C   0  0  0  0  0  0  0  0  0  0  0  0
   -4.6820   13.0290   -3.2490 C   0  0  0  0  0  0  0  0  0  0  0  0
   -0.8890   13.9790   -0.9620 C   0  0  0  0  0  0  0  0  0  0  0  0
   -2.4230   14.1560    0.8530 C   0  0  0  0  0  0  0  0  0  0  0  0
   -6.6490   15.5760   -0.7680 N   0  0  0  0  0  0  0  0  0  0  0  0
   -7.4250   14.1110    1.0970 C   0  0  0  0  0  0  0  0  0  0  0  0
   -1.4420   14.3770    1.7430 N   0  0  0  0  0  0  0  0  0  0  0  0
    0.1350   14.2170   -0.0630 C   0  0  0  0  0  0  0  0  0  0  0  0
   -7.7920   14.9980   -0.0380 C   0  0  0  0  0  0  0  0  0  0  0  0
   -0.1940   14.4060    1.2670 C   0  0  0  0  0  0  0  0  0  0  0  0
  1  2  1  0
  1  3  2  0
  4  1  1  1
  4  5  1  0
  4  6  1  0
  4  7  1  0
  7  8  1  6
  7  9  1  0
  5 10  1  1
  5 11  1  0
  5 12  1  0
  6 13  1  0
  8 13  1  0
  9 14  1  0
  9 15  2  0
 10 15  1  0
 11 16  1  0
 12 17  2  0
 15 18  1  0
 14 19  2  0
 16 20  1  0
 17 20  1  0
 18 21  2  0
 19 21  1  0
M  END
