diamond-x0933_0_A-diamond-x0628_0_A
     RDKit          3D

 21 22  0  0  0  0  0  0  0  0999 V2000
   -5.9870   14.7070    1.6670 N   0  0  0  0  0  0  0  0  0  0  0  0
   -4.8870   15.2000    0.9130 C   0  0  1  0  0  0  0  0  0  0  0  0
   -3.8020   14.3860    1.3120 N   0  0  0  0  0  0  0  0  0  0  0  0
   -5.2790   14.9460   -0.4320 N   0  0  0  0  0  0  0  0  0  0  0  0
   -4.1920   15.0750   -1.4010 C   0  0  0  0  0  0  0  0  0  0  0  0
   -2.6430   14.5540    0.4450 C   0  0  0  0  0  0  0  0  0  0  0  0
   -2.9890   14.2030   -1.0220 C   0  0  2  0  0  0  0  0  0  0  0  0
   -1.7630   14.2230   -1.9850 C   0  0  0  0  0  0  0  0  0  0  0  0
   -2.0470   13.7960   -3.4490 C   0  0  0  0  0  0  0  0  0  0  0  0
   -2.2020   12.2710   -3.6470 C   0  0  0  0  0  0  0  0  0  0  0  0
   -1.4840   11.6370   -4.8160 C   0  0  0  0  0  0  0  0  0  0  0  0
   -1.8670   10.5120   -5.4050 N   0  0  0  0  0  0  0  0  0  0  0  0
   -0.3430   12.0770   -5.4630 N   0  0  0  0  0  0  0  0  0  0  0  0
    0.4890   13.2420   -5.2360 C   0  0  0  0  0  0  0  0  0  0  0  0
   -0.9390   10.3060   -6.3860 C   0  0  0  0  0  0  0  0  0  0  0  0
    0.0080   11.2400   -6.4590 N   0  0  0  0  0  0  0  0  0  0  0  0
   -0.9720    9.1450   -7.2950 C   0  0  0  0  0  0  0  0  0  0  0  0
    1.6130   12.9780   -4.2480 C   0  0  0  0  0  0  0  0  0  0  0  0
    1.1400   12.2530   -3.0200 C   0  0  0  0  0  0  0  0  0  0  0  0
    0.4670   11.2360   -2.9820 O   0  0  0  0  0  0  0  0  0  0  0  0
    1.5230   12.8580   -1.8860 O   0  0  0  0  0  0  0  0  0  0  0  0
  2  1  1  1
  2  3  1  0
  2  4  1  0
  4  5  1  0
  3  6  1  0
  5  7  1  0
  6  7  1  0
  7  8  1  6
  8  9  1  0
  9 10  1  0
 10 11  1  0
 11 12  2  0
 11 13  1  0
 13 14  1  0
 12 15  1  0
 13 16  1  0
 15 16  2  0
 15 17  1  0
 14 18  1  0
 18 19  1  0
 19 20  2  0
 19 21  1  0
M  END
