diamond-x1015_0_A-mac-x0373
     RDKit          3D

 29 33  0  0  0  0  0  0  0  0999 V2000
   -1.3890   13.6850   -2.6770 C   0  0  0  0  0  0  0  0  0  0  0  0
   -0.4610   13.3850   -1.4930 C   0  0  0  0  0  0  0  0  0  0  0  0
   -0.8780   12.7070   -0.4480 O   0  0  0  0  0  0  0  0  0  0  0  0
   -0.2360   14.0490   -3.6570 C   0  0  2  0  0  0  0  0  0  0  0  0
   -2.0860   12.5960   -3.4340 C   0  0  0  0  0  0  0  0  0  0  0  0
   -2.4750   14.5140   -1.9010 C   0  0  0  0  0  0  0  0  0  0  0  0
    0.7300   13.8070   -1.4320 N   0  0  0  0  0  0  0  0  0  0  0  0
    0.3130   12.7830   -4.2820 N   0  0  0  0  0  0  0  0  0  0  0  0
    0.9580   14.3670   -2.7080 C   0  0  1  0  0  0  0  0  0  0  0  0
   -2.0630   12.6740   -4.8350 C   0  0  0  0  0  0  0  0  0  0  0  0
   -2.7480   11.5300   -2.8330 C   0  0  0  0  0  0  0  0  0  0  0  0
   -3.6360   15.0480   -2.4870 C   0  0  0  0  0  0  0  0  0  0  0  0
   -2.3220   14.7070   -0.5010 C   0  0  0  0  0  0  0  0  0  0  0  0
    1.0550   12.2880   -3.2450 C   0  0  0  0  0  0  0  0  0  0  0  0
    1.8820   13.3500   -3.0190 N   0  0  0  0  0  0  0  0  0  0  0  0
   -0.1980   11.8200   -5.2280 C   0  0  0  0  0  0  0  0  0  0  0  0
   -2.6800   11.7140   -5.6170 C   0  0  0  0  0  0  0  0  0  0  0  0
   -3.3700   10.5640   -3.6140 C   0  0  0  0  0  0  0  0  0  0  0  0
   -4.5830   15.7160   -1.7040 C   0  0  0  0  0  0  0  0  0  0  0  0
   -3.2690   15.3750    0.2650 C   0  0  0  0  0  0  0  0  0  0  0  0
    0.9990   11.2300   -2.6350 O   0  0  0  0  0  0  0  0  0  0  0  0
   -0.0570   12.0250   -6.5950 C   0  0  0  0  0  0  0  0  0  0  0  0
   -0.8430   10.6220   -4.8250 C   0  0  0  0  0  0  0  0  0  0  0  0
   -3.3340   10.6570   -5.0040 C   0  0  0  0  0  0  0  0  0  0  0  0
   -4.3990   15.8750   -0.3400 C   0  0  0  0  0  0  0  0  0  0  0  0
   -0.5290   11.1040   -7.5370 C   0  0  0  0  0  0  0  0  0  0  0  0
   -1.3210    9.6890   -5.7670 C   0  0  0  0  0  0  0  0  0  0  0  0
   -1.1610    9.9390   -7.1230 C   0  0  0  0  0  0  0  0  0  0  0  0
   -1.7370    8.8190   -8.2970 Cl  0  0  0  0  0  0  0  0  0  0  0  0
  1  2  1  0
  2  3  1  0
  1  4  1  0
  1  5  1  0
  1  6  1  0
  2  7  2  0
  4  8  1  6
  4  9  1  0
  9  7  1  1
  5 10  2  0
  5 11  1  0
  6 12  2  0
  6 13  1  0
  8 14  1  0
  9 15  1  0
 14 15  1  0
  8 16  1  0
 10 17  1  0
 11 18  2  0
 12 19  1  0
 13 20  2  0
 14 21  2  0
 16 22  2  0
 16 23  1  0
 17 24  2  0
 18 24  1  0
 19 25  2  0
 20 25  1  0
 22 26  1  0
 23 27  2  0
 26 28  2  0
 27 28  1  0
 28 29  1  0
M  END
