diamond-x0438_0_A-mac-x0472
     RDKit          3D

 29 32  0  0  0  0  0  0  0  0999 V2000
   -8.3930   15.4200    3.8270 C   0  0  0  0  0  0  0  0  0  0  0  0
   -9.5710   15.1980    2.4990 S   0  0  0  0  0  0  0  0  0  0  0  0
  -10.8080   14.7210    3.0910 O   0  0  0  0  0  0  0  0  0  0  0  0
   -8.9380   13.9130    1.4110 C   0  0  0  0  0  0  0  0  0  0  0  0
   -9.5880   16.4340    1.7370 O   0  0  0  0  0  0  0  0  0  0  0  0
   -7.6100   14.3600    0.9670 C   0  0  0  0  0  0  0  0  0  0  0  0
   -7.1580   14.4280   -0.3400 N   0  0  0  0  0  0  0  0  0  0  0  0
   -6.7080   14.7580    1.8060 N   0  0  0  0  0  0  0  0  0  0  0  0
   -5.6330   15.1150    1.0650 C   0  0  0  0  0  0  0  0  0  0  0  0
   -5.8680   14.9210   -0.2920 C   0  0  0  0  0  0  0  0  0  0  0  0
   -4.8690   15.2270   -1.2130 C   0  0  0  0  0  0  0  0  0  0  0  0
   -4.4190   15.6270    1.5220 C   0  0  0  0  0  0  0  0  0  0  0  0
   -4.8440   15.0840   -2.6280 N   0  0  0  0  0  0  0  0  0  0  0  0
   -3.7070   15.7270   -0.7500 C   0  0  0  0  0  0  0  0  0  0  0  0
   -3.4590   15.9400    0.5970 C   0  0  0  0  0  0  0  0  0  0  0  0
   -3.6350   14.1910   -3.0140 S   0  0  1  0  0  0  0  0  0  0  0  0
   -2.9740   14.1530   -4.2950 O   0  0  0  0  0  0  0  0  0  0  0  0
   -2.3890   14.5420   -1.9180 N   0  0  0  0  0  0  0  0  0  0  0  0
   -4.2510   12.5910   -2.6020 C   0  0  0  0  0  0  0  0  0  0  0  0
   -2.4890   14.3480   -0.5760 C   0  0  0  0  0  0  0  0  0  0  0  0
   -3.4910   11.4600   -2.8830 C   0  0  0  0  0  0  0  0  0  0  0  0
   -5.5040   12.4850   -1.9940 C   0  0  0  0  0  0  0  0  0  0  0  0
   -1.5750   14.7770    0.2900 N   0  0  0  0  0  0  0  0  0  0  0  0
   -3.7990   13.5350    0.2060 S   0  0  0  0  0  0  0  0  0  0  0  0
   -4.0020   10.2110   -2.5570 C   0  0  0  0  0  0  0  0  0  0  0  0
   -6.0080   11.2350   -1.6690 C   0  0  0  0  0  0  0  0  0  0  0  0
   -3.0340   13.8630    1.6840 C   0  0  0  0  0  0  0  0  0  0  0  0
   -1.8940   14.5010    1.6010 N   0  0  0  0  0  0  0  0  0  0  0  0
   -5.2560   10.0990   -1.9560 C   0  0  0  0  0  0  0  0  0  0  0  0
  2  1  1  0
  2  3  2  0
  2  4  1  0
  2  5  2  0
  4  6  1  0
  6  7  1  0
  6  8  2  0
  8  9  1  0
  7 10  1  0
  9 10  2  0
 10 11  1  0
  9 12  1  0
 11 13  1  0
 11 14  2  0
 12 15  2  0
 14 15  1  0
 13 16  2  0
 16 17  2  0
 16 18  1  1
 16 19  1  0
 18 20  1  0
 19 21  2  0
 19 22  1  0
 20 23  2  0
 20 24  1  0
 21 25  1  0
 22 26  2  0
 24 27  1  0
 23 28  1  0
 27 28  2  0
 25 29  2  0
 26 29  1  0
M  END
