diamond-x0662_0_A-mac-x0371
     RDKit          3D

 29 31  0  0  0  0  0  0  0  0999 V2000
    5.2680    9.6020  -14.9620 C   0  0  0  0  0  0  0  0  0  0  0  0
    4.2190   10.0140  -14.0590 N   0  0  0  0  0  0  0  0  0  0  0  0
    3.5180   11.1850  -14.0790 C   0  0  0  0  0  0  0  0  0  0  0  0
    3.8500    9.1880  -13.0640 N   0  0  0  0  0  0  0  0  0  0  0  0
    2.6340   11.1160  -13.0230 C   0  0  0  0  0  0  0  0  0  0  0  0
    2.8690    9.8510  -12.4050 C   0  0  0  0  0  0  0  0  0  0  0  0
    2.2100    9.2420  -11.2090 C   0  0  0  0  0  0  0  0  0  0  0  0
    2.3520    8.0480  -10.9920 O   0  0  0  0  0  0  0  0  0  0  0  0
    1.4850   10.1200  -10.4140 N   0  0  0  0  0  0  0  0  0  0  0  0
    0.7110    9.8420   -9.2480 C   0  0  0  0  0  0  0  0  0  0  0  0
   -0.0620    8.7030   -9.0500 C   0  0  0  0  0  0  0  0  0  0  0  0
    0.7180   10.7880   -8.2200 C   0  0  0  0  0  0  0  0  0  0  0  0
   -0.7920    8.5390   -7.8560 C   0  0  0  0  0  0  0  0  0  0  0  0
   -0.0070   10.6650   -7.0120 C   0  0  0  0  0  0  0  0  0  0  0  0
    0.1340   11.8480   -6.0640 C   0  0  0  0  0  0  0  0  0  0  0  0
   -0.7710    9.5100   -6.8370 C   0  0  0  0  0  0  0  0  0  0  0  0
    0.0990   12.0280   -4.6920 C   0  0  0  0  0  0  0  0  0  0  0  0
    0.3240   12.8930   -6.7080 O   0  0  0  0  0  0  0  0  0  0  0  0
   -0.0870   11.1160   -3.4820 C   0  0  0  0  0  0  0  0  0  0  0  0
    0.3190   13.4750   -4.4100 C   0  0  0  0  0  0  0  0  0  0  0  0
    0.1930   11.6910   -2.2740 O   0  0  0  0  0  0  0  0  0  0  0  0
   -0.4580    9.9610   -3.5420 O   0  0  0  0  0  0  0  0  0  0  0  0
   -0.7220   14.4330   -4.3530 C   0  0  0  0  0  0  0  0  0  0  0  0
    1.6230   13.9320   -4.2190 C   0  0  0  0  0  0  0  0  0  0  0  0
    2.9840   12.8720   -4.2560 Cl  0  0  0  0  0  0  0  0  0  0  0  0
   -2.4010   14.0530   -4.5530 Cl  0  0  0  0  0  0  0  0  0  0  0  0
   -0.4420   15.7870   -4.1310 C   0  0  0  0  0  0  0  0  0  0  0  0
    1.8840   15.2760   -3.9940 C   0  0  0  0  0  0  0  0  0  0  0  0
    0.8650   16.2100   -3.9530 C   0  0  0  0  0  0  0  0  0  0  0  0
  1  2  1  0
  2  3  1  0
  2  4  1  0
  3  5  2  0
  4  6  2  0
  5  6  1  0
  6  7  1  0
  7  8  2  0
  7  9  1  0
  9 10  1  0
 10 11  2  0
 10 12  1  0
 11 13  1  0
 12 14  2  0
 14 15  1  0
 13 16  2  0
 14 16  1  0
 15 17  2  3
 15 18  1  0
 17 19  1  0
 17 20  1  0
 19 21  1  0
 19 22  2  0
 20 23  2  0
 20 24  1  0
 24 25  1  0
 23 26  1  0
 23 27  1  0
 24 28  2  0
 27 29  2  0
 28 29  1  0
M  CHG  1  18  -1
M  END
