diamond-x0905_0_A-mac-x0337
     RDKit          3D

 18 19  0  0  0  0  0  0  0  0999 V2000
   -7.0440   13.8960   -0.8550 O   0  0  0  0  0  0  0  0  0  0  0  0
   -6.3380   15.0450   -0.4420 C   0  0  1  0  0  0  0  0  0  0  0  0
   -5.6830   14.7810    0.8560 N   0  0  0  0  0  0  0  0  0  0  0  0
   -5.2520   15.3510   -1.4140 C   0  0  0  0  0  0  0  0  0  0  0  0
   -4.9110   13.5560    0.8040 N   0  0  0  0  0  0  0  0  0  0  0  0
   -4.7500   15.6400    1.3070 C   0  0  0  0  0  0  0  0  0  0  0  0
   -4.0990   15.8890   -0.9820 C   0  0  0  0  0  0  0  0  0  0  0  0
   -3.6580   13.5590   -0.3670 S   0  0  0  0  0  0  0  0  0  0  0  0
   -3.9320   16.1930    0.4460 C   0  0  0  0  0  0  0  0  0  0  0  0
   -2.3850   13.3430    0.2480 O   0  0  0  0  0  0  0  0  0  0  0  0
   -3.7910   14.6500   -1.2840 O   0  0  0  0  0  0  0  0  0  0  0  0
   -4.2290   12.1300   -1.1750 C   0  0  0  0  0  0  0  0  0  0  0  0
   -3.4550   11.4540   -2.1050 C   0  0  0  0  0  0  0  0  0  0  0  0
   -5.5070   11.7080   -0.8250 C   0  0  0  0  0  0  0  0  0  0  0  0
   -3.9820   10.3140   -2.6950 C   0  0  0  0  0  0  0  0  0  0  0  0
   -6.0290   10.5760   -1.4140 C   0  0  0  0  0  0  0  0  0  0  0  0
   -5.2690    9.8700   -2.3500 C   0  0  0  0  0  0  0  0  0  0  0  0
   -5.8330    8.6370   -2.9780 C   0  0  0  0  0  0  0  0  0  0  0  0
  2  1  1  6
  2  3  1  0
  2  4  1  0
  3  5  1  0
  3  6  1  0
  4  7  2  0
  8  5  1  0
  6  9  2  0
  7  9  1  0
  8 10  2  0
  8 11  2  0
  8 12  1  0
 12 13  2  0
 12 14  1  0
 13 15  1  0
 14 16  2  0
 15 17  2  0
 16 17  1  0
 17 18  1  0
M  END
