diamond-x0905_0_A-mac-x0404
     RDKit          3D

 25 27  0  0  0  0  0  0  0  0999 V2000
   -6.9510   15.2650   -0.8560 O   0  0  0  0  0  0  0  0  0  0  0  0
   -5.6150   15.1760   -0.6150 C   0  0  0  0  0  0  0  0  0  0  0  0
   -5.3190   14.9970    0.6770 N   0  0  0  0  0  0  0  0  0  0  0  0
   -4.6930   15.2630   -1.6360 C   0  0  0  0  0  0  0  0  0  0  0  0
   -4.0050   14.8980    0.9760 C   0  0  0  0  0  0  0  0  0  0  0  0
   -3.3420   15.1530   -1.2950 C   0  0  0  0  0  0  0  0  0  0  0  0
   -2.9740   14.9620    0.0510 C   0  0  0  0  0  0  0  0  0  0  0  0
   -1.5400   14.8170    0.5260 C   0  0  0  0  0  0  0  0  0  0  0  0
   -0.8750   13.5780   -0.0550 C   0  0  0  0  0  0  0  0  0  0  0  0
   -0.0160   13.8110   -1.2980 C   0  0  0  0  0  0  0  0  0  0  0  0
    0.8180   12.6540   -1.5120 O   0  0  0  0  0  0  0  0  0  0  0  0
    0.7730   11.9970   -2.7230 C   0  0  0  0  0  0  0  0  0  0  0  0
    0.2640   10.8930   -2.8650 O   0  0  0  0  0  0  0  0  0  0  0  0
    1.4450   12.7500   -3.8850 C   0  0  0  0  0  0  0  0  0  0  0  0
    1.1440   14.1240   -4.0600 O   0  0  0  0  0  0  0  0  0  0  0  0
   -0.1150   14.5190   -4.4700 C   0  0  0  0  0  0  0  0  0  0  0  0
   -0.2300   15.8790   -4.8450 C   0  0  0  0  0  0  0  0  0  0  0  0
   -1.2360   13.6900   -4.5320 C   0  0  0  0  0  0  0  0  0  0  0  0
   -1.4800   16.3860   -5.2750 C   0  0  0  0  0  0  0  0  0  0  0  0
   -2.4640   14.1990   -4.9570 C   0  0  0  0  0  0  0  0  0  0  0  0
    0.8590   16.7520   -4.8080 C   0  0  0  0  0  0  0  0  0  0  0  0
   -2.5870   15.5360   -5.3240 C   0  0  0  0  0  0  0  0  0  0  0  0
   -1.5920   17.7310   -5.6490 C   0  0  0  0  0  0  0  0  0  0  0  0
    0.7430   18.0860   -5.1820 C   0  0  0  0  0  0  0  0  0  0  0  0
   -0.4900   18.5740   -5.6040 C   0  0  0  0  0  0  0  0  0  0  0  0
  1  2  1  0
  2  3  2  0
  2  4  1  0
  3  5  1  0
  4  6  2  0
  5  7  2  0
  6  7  1  0
  7  8  1  0
  8  9  1  0
  9 10  1  0
 10 11  1  0
 11 12  1  0
 12 13  2  0
 12 14  1  0
 14 15  1  0
 15 16  1  0
 16 17  1  0
 16 18  2  0
 17 19  2  0
 18 20  1  0
 17 21  1  0
 19 22  1  0
 20 22  2  0
 19 23  1  0
 21 24  2  0
 23 25  2  0
 24 25  1  0
M  END
