diamond-x0962_0_A-mac-x0455
     RDKit          3D

 18 19  0  0  0  0  0  0  0  0999 V2000
   -2.0670   14.5050   -2.3690 C   0  0  0  0  0  0  0  0  0  0  0  0
   -2.8930   14.6850   -1.5060 C   0  0  0  0  0  0  0  0  0  0  0  0
   -3.7990   14.8840   -0.4340 C   0  0  0  0  0  0  0  0  0  0  0  0
   -0.9580   14.3310   -3.3490 C   0  0  1  0  0  0  0  0  0  0  0  0
   -0.9470   15.5110   -4.1680 O   0  0  0  0  0  0  0  0  0  0  0  0
    0.3770   14.3070   -2.5450 C   0  0  0  0  0  0  0  0  0  0  0  0
   -1.0260   13.0820   -4.2540 C   0  0  0  0  0  0  0  0  0  0  0  0
    1.2570   15.1390   -2.5100 O   0  0  0  0  0  0  0  0  0  0  0  0
    0.5310   13.1870   -1.7900 O   0  0  0  0  0  0  0  0  0  0  0  0
   -3.4360   15.2850    0.8230 N   0  0  0  0  0  0  0  0  0  0  0  0
   -5.1640   14.7360   -0.3820 C   0  0  0  0  0  0  0  0  0  0  0  0
   -2.0880   12.1540   -4.2180 C   0  0  0  0  0  0  0  0  0  0  0  0
    0.0250   12.8300   -5.1730 C   0  0  0  0  0  0  0  0  0  0  0  0
   -4.5710   15.3590    1.5730 C   0  0  0  0  0  0  0  0  0  0  0  0
   -5.6340   15.0300    0.8710 N   0  0  0  0  0  0  0  0  0  0  0  0
   -2.0940   11.0320   -5.0610 C   0  0  0  0  0  0  0  0  0  0  0  0
    0.0140   11.7120   -6.0110 C   0  0  0  0  0  0  0  0  0  0  0  0
   -1.0480   10.8110   -5.9540 C   0  0  0  0  0  0  0  0  0  0  0  0
  1  2  3  0
  2  3  1  0
  4  1  1  0
  4  5  1  6
  4  6  1  0
  4  7  1  0
  6  8  2  0
  6  9  1  0
  3 10  1  0
  3 11  2  0
  7 12  2  0
  7 13  1  0
 10 14  1  0
 11 15  1  0
 14 15  2  0
 12 16  1  0
 13 17  2  0
 16 18  2  0
 17 18  1  0
M  END
