
     RDKit          3D

 13 13  0  0  0  0  0  0  0  0999 V2000
  -16.0140   24.6310    2.6840 N   0  0  0  0  0  0  0  0  0  0  0  0
  -13.8590   24.5320    1.4400 C   0  0  0  0  0  0  0  0  0  0  0  0
  -16.2640   25.8290    4.8070 O   0  0  0  0  0  0  0  0  0  0  0  0
  -15.1310   23.8010    1.8220 C   0  0  2  0  0  0  0  0  0  0  0  0
  -14.4950   21.8680   -0.9520 N   0  0  0  0  0  0  0  0  0  0  0  0
  -14.4390   24.2050    4.5160 O   0  0  0  0  0  0  0  0  0  0  0  0
  -16.8270   23.3090    4.9170 C   0  0  0  0  0  0  0  0  0  0  0  0
  -16.6170   25.8360    2.0470 C   0  0  0  0  0  0  0  0  0  0  0  0
  -17.3580   25.4600    0.7680 C   0  0  0  0  0  0  0  0  0  0  0  0
  -16.4790   24.6130   -0.1510 C   0  0  0  0  0  0  0  0  0  0  0  0
  -15.9540   23.3730    0.5910 C   0  0  1  0  0  0  0  0  0  0  0  0
  -15.1330   22.5420   -0.2940 C   0  0  0  0  0  0  0  0  0  0  0  0
  -15.7980   24.5820    4.2910 S   0  0  2  0  0  0  0  0  0  0  0  0
  1  4  1  0
  1  8  1  0
  1 13  1  0
  4  2  1  6
  4 11  1  0
  8  9  1  0
 13  3  2  0
 13  6  2  0
 13  7  1  1
 11 10  1  0
 11 12  1  6
  5 12  3  0
  9 10  1  0
M  END
