diamond-x0421_0_A-diamond-x0950_0_A
     RDKit          3D

 19 20  0  0  0  0  0  0  0  0999 V2000
   -3.9950   15.2180   -2.7630 N   0  0  0  0  0  0  0  0  0  0  0  0
   -3.0580   15.0250   -1.7870 C   0  0  0  0  0  0  0  0  0  0  0  0
   -1.7990   14.8930   -1.8770 N   0  0  0  0  0  0  0  0  0  0  0  0
   -3.6400   14.9750   -0.4590 C   0  0  0  0  0  0  0  0  0  0  0  0
   -1.2560   14.9510   -3.2210 C   0  0  0  0  0  0  0  0  0  0  0  0
   -2.9800   15.0970    0.7480 C   0  0  0  0  0  0  0  0  0  0  0  0
   -4.9960   14.7870   -0.2490 N   0  0  0  0  0  0  0  0  0  0  0  0
   -0.9440   13.5180   -3.5600 C   0  0  0  0  0  0  0  0  0  0  0  0
   -3.9460   14.9810    1.6940 N   0  0  0  0  0  0  0  0  0  0  0  0
   -5.1340   14.7960    1.0550 C   0  0  0  0  0  0  0  0  0  0  0  0
    0.0200   13.0050   -2.6300 O   0  0  0  0  0  0  0  0  0  0  0  0
   -6.4970   14.6110    1.7670 C   0  0  0  0  0  0  0  0  0  0  0  0
    0.7520   12.0600   -3.2130 C   0  0  0  0  0  0  0  0  0  0  0  0
   -7.7780   14.6650    0.9800 C   0  0  0  0  0  0  0  0  0  0  0  0
   -7.2900   13.3580    1.5420 C   0  0  0  0  0  0  0  0  0  0  0  0
    1.5150   12.7260   -4.3680 C   0  0  1  0  0  0  0  0  0  0  0  0
    0.7540   10.8890   -2.8780 O   0  0  0  0  0  0  0  0  0  0  0  0
    2.9880   12.8590   -4.0240 C   0  0  0  0  0  0  0  0  0  0  0  0
    1.3430   12.0790   -5.6230 O   0  0  0  0  0  0  0  0  0  0  0  0
  1  2  1  0
  2  3  2  3
  2  4  1  0
  3  5  1  0
  4  6  2  0
  4  7  1  0
  5  8  1  0
  6  9  1  0
  7 10  2  0
  9 10  1  0
  8 11  1  0
 10 12  1  0
 11 13  1  0
 12 14  1  0
 12 15  1  0
 14 15  1  0
 13 16  1  0
 13 17  2  0
 16 18  1  1
 16 19  1  0
M  END
