diamond-x1012_0_A-mac-x0385
     RDKit          3D

 23 24  0  0  0  0  0  0  0  0999 V2000
   -0.2890   18.1860   -4.7750 N   0  0  0  0  0  0  0  0  0  0  0  0
   -1.2720   17.2640   -4.8610 C   0  0  0  0  0  0  0  0  0  0  0  0
   -2.4280   17.6360   -4.7780 O   0  0  0  0  0  0  0  0  0  0  0  0
   -0.8870   15.9620   -5.0270 N   0  0  0  0  0  0  0  0  0  0  0  0
   -1.8900   14.9240   -4.7620 C   0  0  0  0  0  0  0  0  0  0  0  0
    0.5120   15.5430   -5.0870 C   0  0  0  0  0  0  0  0  0  0  0  0
   -1.2480   13.6110   -4.3300 C   0  0  0  0  0  0  0  0  0  0  0  0
    0.9430   14.8580   -3.8130 C   0  0  0  0  0  0  0  0  0  0  0  0
   -0.1140   13.8470   -3.3410 C   0  0  0  0  0  0  0  0  0  0  0  0
    0.5920   12.5860   -2.9570 C   0  0  0  0  0  0  0  0  0  0  0  0
    0.3660   11.5030   -3.7170 O   0  0  0  0  0  0  0  0  0  0  0  0
    1.3530   12.6000   -1.9650 N   0  0  0  0  0  0  0  0  0  0  0  0
    1.4050   13.8770   -1.2570 C   0  0  0  0  0  0  0  0  0  0  0  0
    0.4040   13.6880   -0.1190 C   0  0  0  0  0  0  0  0  0  0  0  0
   -0.0030   14.8400    0.7240 C   0  0  0  0  0  0  0  0  0  0  0  0
   -1.4140   14.9970    0.4270 C   0  0  0  0  0  0  0  0  0  0  0  0
   -2.2510   15.2850    1.4130 N   0  0  0  0  0  0  0  0  0  0  0  0
   -1.7290   14.8310   -0.8640 N   0  0  0  0  0  0  0  0  0  0  0  0
   -3.5240   15.4400    1.0490 C   0  0  0  0  0  0  0  0  0  0  0  0
   -3.0080   14.9890   -1.1820 C   0  0  0  0  0  0  0  0  0  0  0  0
   -4.3940   15.7610    2.0890 N   0  0  0  0  0  0  0  0  0  0  0  0
   -3.9690   15.3040   -0.2600 C   0  0  0  0  0  0  0  0  0  0  0  0
   -5.3840   15.4780   -0.6840 C   0  0  0  0  0  0  0  0  0  0  0  0
  1  2  1  0
  2  3  2  0
  2  4  1  0
  4  5  1  0
  4  6  1  0
  5  7  1  0
  6  8  1  0
  7  9  1  0
  8  9  1  0
  9 10  1  0
 10 11  1  0
 10 12  2  3
 12 13  1  0
 13 14  1  0
 14 15  1  0
 15 16  1  0
 16 17  2  0
 16 18  1  0
 17 19  1  0
 18 20  2  0
 19 21  1  0
 19 22  2  0
 20 22  1  0
 22 23  1  0
M  END
