diamond-x0685_0_A-mac-x0567
     RDKit          3D

 16 17  0  0  0  0  0  0  0  0999 V2000
   -6.2340   15.0010    2.4960 N   0  0  0  0  0  0  0  0  0  0  0  0
   -7.6470   14.6760    2.3780 C   0  0  0  0  0  0  0  0  0  0  0  0
   -7.9020   13.3030    2.9770 C   0  0  0  0  0  0  0  0  0  0  0  0
   -5.4200   14.9890    1.3040 C   0  0  1  0  0  0  0  0  0  0  0  0
   -4.2150   14.0670    1.2600 C   0  0  0  0  0  0  0  0  0  0  0  0
   -6.3090   14.7080    0.2140 N   0  0  0  0  0  0  0  0  0  0  0  0
   -3.2890   14.6810    0.2030 C   0  0  1  0  0  0  0  0  0  0  0  0
   -5.5870   14.7840   -1.0530 C   0  0  0  0  0  0  0  0  0  0  0  0
   -4.1470   15.3360   -0.9500 C   0  0  2  0  0  0  0  0  0  0  0  0
   -2.5610   15.6580    1.0570 N   0  0  0  0  0  0  0  0  0  0  0  0
   -2.0960   13.8480   -0.3040 C   0  0  0  0  0  0  0  0  0  0  0  0
   -3.5380   15.2690   -2.2940 C   0  0  0  0  0  0  0  0  0  0  0  0
   -0.9360   14.0570    0.6610 C   0  0  2  0  0  0  0  0  0  0  0  0
   -1.4580   14.9470    1.6530 N   0  0  0  0  0  0  0  0  0  0  0  0
   -3.1180   15.2360   -3.3780 N   0  0  0  0  0  0  0  0  0  0  0  0
    0.2010   14.7080    0.0560 N   0  0  0  0  0  0  0  0  0  0  0  0
  1  2  1  0
  2  3  1  0
  4  1  1  1
  4  5  1  0
  4  6  1  0
  7  5  1  1
  6  8  1  0
  7  9  1  0
  8  9  1  0
  7 10  1  0
  7 11  1  0
  9 12  1  6
 11 13  1  0
 10 14  1  0
 13 14  1  0
 12 15  3  0
 13 16  1  6
M  END
