diamond-x0689_0_A-mac-x0590
     RDKit          3D

 20 23  0  0  0  0  0  0  0  0999 V2000
   -3.4610   14.6770    1.9820 N   0  0  0  0  0  0  0  0  0  0  0  0
   -4.5240   14.8230    0.9660 C   0  0  0  0  0  0  0  0  0  0  0  0
   -3.7940   15.5570   -0.1480 C   0  0  1  0  0  0  0  0  0  0  0  0
   -2.2380   14.9450    1.2370 C   0  0  2  0  0  0  0  0  0  0  0  0
   -2.6090   14.8060   -0.1080 N   0  0  0  0  0  0  0  0  0  0  0  0
   -1.0610   14.2320    1.6070 N   0  0  0  0  0  0  0  0  0  0  0  0
   -1.5530   15.3180   -0.9080 C   0  0  1  0  0  0  0  0  0  0  0  0
   -0.1710   13.9770    0.6010 C   0  0  0  0  0  0  0  0  0  0  0  0
   -4.3410   15.4680   -1.4790 N   0  0  0  0  0  0  0  0  0  0  0  0
   -0.3360   14.4740   -0.6390 C   0  0  0  0  0  0  0  0  0  0  0  0
   -3.3910   14.8670   -2.4180 C   0  0  0  0  0  0  0  0  0  0  0  0
   -2.0560   15.4600   -2.2960 N   0  0  0  0  0  0  0  0  0  0  0  0
   -1.1170   15.0510   -3.3530 C   0  0  0  0  0  0  0  0  0  0  0  0
   -1.4570   13.6630   -3.9040 C   0  0  0  0  0  0  0  0  0  0  0  0
   -0.6880   13.2670   -5.1690 C   0  0  0  0  0  0  0  0  0  0  0  0
    0.4090   12.2370   -4.9140 C   0  0  2  0  0  0  0  0  0  0  0  0
    0.7500   11.9990   -3.4400 C   0  0  0  0  0  0  0  0  0  0  0  0
    1.7150   12.6770   -5.5530 C   0  0  0  0  0  0  0  0  0  0  0  0
    2.6250   12.9860   -4.3880 C   0  0  0  0  0  0  0  0  0  0  0  0
    2.1540   12.2380   -3.2680 O   0  0  0  0  0  0  0  0  0  0  0  0
  1  2  1  0
  3  2  1  1
  4  1  1  1
  3  5  1  0
  4  5  1  0
  4  6  1  0
  5  7  1  0
  6  8  1  0
  3  9  1  0
  7 10  1  6
  8 10  2  0
  9 11  1  0
  7 12  1  0
 11 12  1  0
 12 13  1  0
 13 14  1  0
 14 15  1  0
 16 15  1  1
 16 17  1  0
 16 18  1  0
 18 19  1  0
 17 20  1  0
 19 20  1  0
M  END
