diamond-x0104_0_A-mac-x0546
     RDKit          3D

 34 37  0  0  0  0  0  0  0  0999 V2000
   -6.7920   14.8560    2.8680 N   0  0  0  0  0  0  0  0  0  0  0  0
   -8.0470   15.1220    3.2850 C   0  0  0  0  0  0  0  0  0  0  0  0
   -8.2520   15.1460    4.6300 N   0  0  0  0  0  0  0  0  0  0  0  0
   -6.2760   14.7830    1.5830 C   0  0  0  0  0  0  0  0  0  0  0  0
   -9.0060   15.3450    2.5500 O   0  0  0  0  0  0  0  0  0  0  0  0
   -4.9150   14.9080    1.3360 C   0  0  0  0  0  0  0  0  0  0  0  0
   -7.1330   14.5820    0.5070 C   0  0  0  0  0  0  0  0  0  0  0  0
   -4.3690   14.8360    0.1220 N   0  0  0  0  0  0  0  0  0  0  0  0
   -6.5920   14.5100   -0.7640 C   0  0  0  0  0  0  0  0  0  0  0  0
   -9.3910   15.1030    5.3940 C   0  0  0  0  0  0  0  0  0  0  0  0
   -5.2220   14.6400   -0.8810 C   0  0  0  0  0  0  0  0  0  0  0  0
   -9.4200   15.2050    6.7700 C   0  0  0  0  0  0  0  0  0  0  0  0
  -10.9420   14.9150    4.7350 S   0  0  0  0  0  0  0  0  0  0  0  0
   -4.7040   14.5490   -2.1130 O   0  0  0  0  0  0  0  0  0  0  0  0
  -11.6770   14.9670    6.2760 C   0  0  0  0  0  0  0  0  0  0  0  0
  -10.7490   15.1270    7.2790 C   0  0  0  0  0  0  0  0  0  0  0  0
   -3.3450   14.1400   -2.0860 C   0  0  0  0  0  0  0  0  0  0  0  0
   -2.8230   14.4850   -3.4240 C   0  0  0  0  0  0  0  0  0  0  0  0
   -3.9370   15.2940   -4.0360 C   0  0  0  0  0  0  0  0  0  0  0  0
   -3.4650   15.9300   -5.2540 N   0  0  0  0  0  0  0  0  0  0  0  0
   -4.2480   15.3700   -6.3520 C   0  0  0  0  0  0  0  0  0  0  0  0
   -2.1020   16.0060   -5.3390 C   0  0  0  0  0  0  0  0  0  0  0  0
   -1.3620   14.8870   -5.2090 C   0  0  0  0  0  0  0  0  0  0  0  0
   -1.4190   17.2960   -5.5620 C   0  0  0  0  0  0  0  0  0  0  0  0
    0.1030   14.9240   -5.2880 C   0  0  1  0  0  0  0  0  0  0  0  0
   -0.1100   17.4740   -5.3040 C   0  0  0  0  0  0  0  0  0  0  0  0
    0.5380   16.2680   -4.7730 C   0  0  0  0  0  0  0  0  0  0  0  0
    0.9620   14.1040   -4.4100 C   0  0  0  0  0  0  0  0  0  0  0  0
    0.9530   12.6220   -4.4170 C   0  0  0  0  0  0  0  0  0  0  0  0
    1.4430   16.2520   -3.8740 N   0  0  0  0  0  0  0  0  0  0  0  0
    1.7060   14.9220   -3.6710 C   0  0  0  0  0  0  0  0  0  0  0  0
    0.6070   12.0870   -3.0440 C   0  0  0  0  0  0  0  0  0  0  0  0
    0.9220   12.5920   -1.9810 O   0  0  0  0  0  0  0  0  0  0  0  0
   -0.1160   10.9490   -3.0690 O   0  0  0  0  0  0  0  0  0  0  0  0
  1  2  1  0
  2  3  1  0
  1  4  1  0
  2  5  2  0
  4  6  2  0
  4  7  1  0
  6  8  1  0
  7  9  2  0
  3 10  1  0
  8 11  2  0
  9 11  1  0
 10 12  2  0
 10 13  1  0
 11 14  1  0
 13 15  1  0
 12 16  1  0
 15 16  2  0
 14 17  1  0
 17 18  1  0
 18 19  1  0
 19 20  1  0
 20 21  1  0
 20 22  1  0
 22 23  2  0
 22 24  1  0
 25 23  1  1
 24 26  2  0
 25 27  1  0
 26 27  1  0
 25 28  1  0
 28 29  1  0
 27 30  2  0
 28 31  2  0
 30 31  1  0
 29 32  1  0
 32 33  2  0
 32 34  1  0
M  END
