diamond-x0910_0_A-mac-x0224
     RDKit          3D

 18 19  0  0  0  0  0  0  0  0999 V2000
   -1.8010   16.1290   -0.9420 N   0  0  0  0  0  0  0  0  0  0  0  0
   -1.3280   15.4270    0.1000 C   0  0  0  0  0  0  0  0  0  0  0  0
   -2.0720   14.5640    0.8540 N   0  0  0  0  0  0  0  0  0  0  0  0
   -0.1160   15.4340    0.5580 N   0  0  0  0  0  0  0  0  0  0  0  0
   -3.6490   14.3050    0.5040 S   0  0  1  0  0  0  0  0  0  0  0  0
   -1.3780   14.0040    1.8050 N   0  0  0  0  0  0  0  0  0  0  0  0
   -0.2040   14.5480    1.5930 C   0  0  0  0  0  0  0  0  0  0  0  0
   -4.6710   15.5940    1.0530 C   0  0  0  0  0  0  0  0  0  0  0  0
   -3.2820   14.4510   -1.1720 C   0  0  0  0  0  0  0  0  0  0  0  0
   -1.9760   14.0920   -1.5030 C   0  0  0  0  0  0  0  0  0  0  0  0
   -4.1860   14.8990   -2.1150 C   0  0  0  0  0  0  0  0  0  0  0  0
   -1.5280   14.1820   -2.8070 C   0  0  0  0  0  0  0  0  0  0  0  0
   -3.7460   14.9850   -3.4400 C   0  0  0  0  0  0  0  0  0  0  0  0
   -0.1110   13.7880   -3.0420 C   0  0  0  0  0  0  0  0  0  0  0  0
   -2.4250   14.6320   -3.7820 C   0  0  0  0  0  0  0  0  0  0  0  0
   -2.0920   14.7560   -5.1010 O   0  0  0  0  0  0  0  0  0  0  0  0
    0.7120   13.5100   -2.1840 O   0  0  0  0  0  0  0  0  0  0  0  0
    0.2360   13.7650   -4.3390 O   0  0  0  0  0  0  0  0  0  0  0  0
  1  2  1  0
  2  3  1  0
  2  4  2  0
  3  5  1  0
  3  6  1  0
  4  7  1  0
  6  7  2  0
  5  8  1  1
  5  9  1  0
  9 10  2  0
  9 11  1  0
 10 12  1  0
 11 13  2  0
 12 14  1  0
 12 15  2  0
 13 15  1  0
 15 16  1  0
 14 17  2  0
 14 18  1  0
M  END
