diamond-x0631_0_A-mac-x0223
     RDKit          3D

 32 34  0  0  0  0  0  0  0  0999 V2000
   -2.7030    8.8100   -7.8570 C   0  0  0  0  0  0  0  0  0  0  0  0
   -1.4590    8.0120   -7.4990 C   0  0  0  0  0  0  0  0  0  0  0  0
   -0.4110    8.8220   -6.7150 C   0  0  2  0  0  0  0  0  0  0  0  0
   -1.2120    9.6390   -5.6640 C   0  0  0  0  0  0  0  0  0  0  0  0
    0.4970    9.6900   -7.5120 N   0  0  0  0  0  0  0  0  0  0  0  0
   -0.3960   10.3220   -4.5640 C   0  0  0  0  0  0  0  0  0  0  0  0
    0.0640   11.0330   -7.6000 N   0  0  0  0  0  0  0  0  0  0  0  0
    0.7320    9.2140   -8.8380 N   0  0  0  0  0  0  0  0  0  0  0  0
   -1.1990   11.1090   -3.5420 C   0  0  0  0  0  0  0  0  0  0  0  0
    0.1140   11.4100   -8.9910 N   0  0  0  0  0  0  0  0  0  0  0  0
    1.0070   10.4310   -9.5560 C   0  0  2  0  0  0  0  0  0  0  0  0
    0.8350   10.1760  -10.9560 N   0  0  0  0  0  0  0  0  0  0  0  0
   -0.2640   11.7010   -2.5940 N   0  0  0  0  0  0  0  0  0  0  0  0
    2.0480    9.6080  -11.5290 C   0  0  1  0  0  0  0  0  0  0  0  0
    0.5400   12.6330   -2.9550 C   0  0  0  0  0  0  0  0  0  0  0  0
    2.0800    8.2010  -11.4110 O   0  0  0  0  0  0  0  0  0  0  0  0
    0.5940   13.2080   -4.3630 C   0  0  0  0  0  0  0  0  0  0  0  0
    1.3970   13.1700   -2.0770 O   0  0  0  0  0  0  0  0  0  0  0  0
    2.4730   10.0370  -12.9670 C   0  0  2  0  0  0  0  0  0  0  0  0
    3.8170    9.6070  -13.2500 O   0  0  0  0  0  0  0  0  0  0  0  0
    2.4990   11.5310  -13.2520 C   0  0  0  0  0  0  0  0  0  0  0  0
   -0.1780   14.5050   -4.5150 C   0  0  0  0  0  0  0  0  0  0  0  0
    3.4740   11.6480  -14.4120 C   0  0  0  0  0  0  0  0  0  0  0  0
    4.2520   10.3470  -14.3920 C   0  0  0  0  0  0  0  0  0  0  0  0
   -1.5820   14.4800   -4.5940 C   0  0  0  0  0  0  0  0  0  0  0  0
    0.4910   15.7440   -4.5760 C   0  0  0  0  0  0  0  0  0  0  0  0
   -0.2440   16.9230   -4.7070 C   0  0  0  0  0  0  0  0  0  0  0  0
   -2.3100   15.6630   -4.7250 C   0  0  0  0  0  0  0  0  0  0  0  0
    0.2380   18.1900   -4.7740 O   0  0  0  0  0  0  0  0  0  0  0  0
   -1.6250   16.8640   -4.7770 C   0  0  0  0  0  0  0  0  0  0  0  0
    1.2230   18.3920   -5.7620 C   0  0  0  0  0  0  0  0  0  0  0  0
   -2.3190   18.0360   -4.8910 O   0  0  0  0  0  0  0  0  0  0  0  0
  1  2  1  0
  3  2  1  6
  3  4  1  0
  3  5  1  0
  4  6  1  0
  5  7  1  0
  5  8  1  0
  6  9  1  0
  7 10  1  0
  8 11  1  0
 10 11  1  0
 11 12  1  6
  9 13  1  0
 12 14  1  0
 13 15  2  3
 14 16  1  6
 15 17  1  0
 15 18  1  0
 14 19  1  0
 19 20  1  0
 19 21  1  1
 17 22  1  0
 21 23  1  0
 20 24  1  0
 23 24  1  0
 22 25  2  0
 22 26  1  0
 26 27  2  0
 25 28  1  0
 27 29  1  0
 27 30  1  0
 28 30  2  0
 29 31  1  0
 30 32  1  0
M  END
