diamond-x0737_0_B-diamond-x0905_1_B
     RDKit          3D

 24 25  0  0  0  0  0  0  0  0999 V2000
   15.8280   15.7830   12.0460 N   0  0  0  0  0  0  0  0  0  0  0  0
   16.7920   16.8860   12.1540 C   0  0  0  0  0  0  0  0  0  0  0  0
   16.2070   18.2690   12.4850 C   0  0  0  0  0  0  0  0  0  0  0  0
   16.3050   14.5130   11.7190 C   0  0  0  0  0  0  0  0  0  0  0  0
   17.4250   14.3680   11.2490 O   0  0  0  0  0  0  0  0  0  0  0  0
   15.4130   13.2760   11.9790 C   0  0  1  0  0  0  0  0  0  0  0  0
   14.7920   18.4820   11.9740 C   0  0  0  0  0  0  0  0  0  0  0  0
   14.4410   13.4360   13.1280 C   0  0  2  0  0  0  0  0  0  0  0  0
   14.6900   12.7270   10.7640 C   0  0  0  0  0  0  0  0  0  0  0  0
   15.1910   13.6700   14.4320 C   0  0  0  0  0  0  0  0  0  0  0  0
   14.4280   19.8440   11.7390 O   0  0  0  0  0  0  0  0  0  0  0  0
   13.5960   12.2150   13.3440 N   0  0  0  0  0  0  0  0  0  0  0  0
   13.8910   11.4440   10.9770 C   0  0  0  0  0  0  0  0  0  0  0  0
   12.0510   12.5930   13.8870 S   0  0  0  0  0  0  0  0  0  0  0  0
   13.7300   11.0400   12.4260 C   0  0  0  0  0  0  0  0  0  0  0  0
   13.5970   20.4100   12.6820 C   0  0  0  0  0  0  0  0  0  0  0  0
   12.0330   14.0390   13.9600 O   0  0  0  0  0  0  0  0  0  0  0  0
   11.7270   11.7350   15.0000 O   0  0  0  0  0  0  0  0  0  0  0  0
   11.1250   12.1140   12.4830 C   0  0  0  0  0  0  0  0  0  0  0  0
   12.6730   19.6760   13.3390 N   0  0  0  0  0  0  0  0  0  0  0  0
   13.7940   21.7630   12.8940 C   0  0  0  0  0  0  0  0  0  0  0  0
   11.9200   20.3290   14.2440 C   0  0  0  0  0  0  0  0  0  0  0  0
   13.0050   22.4080   13.8320 C   0  0  0  0  0  0  0  0  0  0  0  0
   12.0480   21.6780   14.5230 C   0  0  0  0  0  0  0  0  0  0  0  0
  1  2  1  0
  2  3  1  0
  1  4  1  0
  4  5  2  0
  6  4  1  6
  3  7  1  0
  6  8  1  0
  6  9  1  0
  8 10  1  1
  7 11  1  0
  8 12  1  0
  9 13  1  0
 12 14  1  0
 12 15  1  0
 13 15  1  0
 11 16  1  0
 14 17  2  0
 14 18  2  0
 14 19  1  0
 16 20  2  0
 16 21  1  0
 20 22  1  0
 21 23  2  0
 22 24  2  0
 23 24  1  0
M  END
