diamond-x0962_0_A-diamond-x0926_0_A
     RDKit          3D

  8  8  0  0  0  0  0  0  0  0999 V2000
   -2.5010   14.7820   -2.5070 N   0  0  0  0  0  0  0  0  0  0  0  0
   -3.1540   14.8790   -1.5530 C   0  0  0  0  0  0  0  0  0  0  0  0
   -3.9310   15.0120   -0.3750 C   0  0  0  0  0  0  0  0  0  0  0  0
   -3.3270   15.2610    0.7440 N   0  0  0  0  0  0  0  0  0  0  0  0
   -5.3860   14.9230   -0.1300 C   0  0  0  0  0  0  0  0  0  0  0  0
   -6.2280   14.7170   -0.9840 O   0  0  0  0  0  0  0  0  0  0  0  0
   -4.3670   15.3300    1.6500 C   0  0  0  0  0  0  0  0  0  0  0  0
   -5.5680   15.1250    1.2020 N   0  0  0  0  0  0  0  0  0  0  0  0
  1  2  3  0
  2  3  1  0
  3  4  2  0
  3  5  1  0
  5  6  2  0
  4  7  1  0
  5  8  1  0
  7  8  2  0
M  END
