diamond-x0471_0_A-diamond-x0969_0_A
     RDKit          3D

 17 18  0  0  0  0  0  0  0  0999 V2000
   -9.0840   14.0600    2.5420 N   0  0  0  0  0  0  0  0  0  0  0  0
   -9.0980   14.9740    3.5820 C   0  0  0  0  0  0  0  0  0  0  0  0
   -9.3780   16.1610    3.4310 O   0  0  0  0  0  0  0  0  0  0  0  0
   -9.1100   14.4580    1.1390 C   0  0  0  0  0  0  0  0  0  0  0  0
   -8.7480   14.4130    4.9630 C   0  0  0  0  0  0  0  0  0  0  0  0
   -7.7190   14.6510    0.6220 C   0  0  0  0  0  0  0  0  0  0  0  0
   -9.9330   13.6460    5.5530 C   0  0  0  0  0  0  0  0  0  0  0  0
   -8.2820   15.5190    5.9150 C   0  0  0  0  0  0  0  0  0  0  0  0
   -7.3120   14.7070   -0.6370 N   0  0  0  0  0  0  0  0  0  0  0  0
   -6.6690   14.8060    1.4620 N   0  0  0  0  0  0  0  0  0  0  0  0
   -6.7990   14.8150    2.8740 N   0  0  0  0  0  0  0  0  0  0  0  0
   -5.5070   14.9630    0.7450 C   0  0  0  0  0  0  0  0  0  0  0  0
   -5.9460   14.9040   -0.5750 C   0  0  0  0  0  0  0  0  0  0  0  0
   -5.0110   15.0450   -1.6100 C   0  0  0  0  0  0  0  0  0  0  0  0
   -4.1640   15.1490    1.1000 C   0  0  0  0  0  0  0  0  0  0  0  0
   -3.6640   15.2310   -1.2820 C   0  0  0  0  0  0  0  0  0  0  0  0
   -3.2520   15.2770    0.0540 C   0  0  0  0  0  0  0  0  0  0  0  0
  1  2  1  0
  2  3  2  0
  1  4  1  0
  2  5  1  0
  4  6  1  0
  5  7  1  0
  5  8  1  0
  6  9  2  0
  6 10  1  0
 10 11  1  0
 10 12  1  0
  9 13  1  0
 12 13  2  0
 13 14  1  0
 12 15  1  0
 14 16  2  0
 15 17  2  0
 16 17  1  0
M  END
