diamond-x0900_0_A-mac-x0380
     RDKit          3D

 14 15  0  0  0  0  0  0  0  0999 V2000
   -6.3820   13.5010   -0.6050 O   0  0  0  0  0  0  0  0  0  0  0  0
   -6.1070   14.8680   -0.6030 C   0  0  2  0  0  0  0  0  0  0  0  0
   -5.2150   15.0580   -1.7260 N   0  0  0  0  0  0  0  0  0  0  0  0
   -5.2610   15.1950    0.6310 C   0  0  2  0  0  0  0  0  0  0  0  0
   -7.7600   15.5390   -0.9210 S   0  0  0  0  0  0  0  0  0  0  0  0
   -3.9280   14.5720    0.2150 C   0  0  0  0  0  0  0  0  0  0  0  0
   -3.8590   15.2650   -1.1550 C   0  0  1  0  0  0  0  0  0  0  0  0
   -5.8660   14.6950    1.8140 N   0  0  0  0  0  0  0  0  0  0  0  0
   -8.0330   14.9820    0.8070 C   0  0  0  0  0  0  0  0  0  0  0  0
   -2.8440   14.8240   -2.2360 C   0  0  0  0  0  0  0  0  0  0  0  0
   -7.1650   14.3710    1.8540 C   0  0  0  0  0  0  0  0  0  0  0  0
   -1.6270   14.4610   -1.7980 O   0  0  0  0  0  0  0  0  0  0  0  0
   -3.0860   14.8110   -3.4430 O   0  0  0  0  0  0  0  0  0  0  0  0
   -7.6890   13.6620    2.7000 O   0  0  0  0  0  0  0  0  0  0  0  0
  2  1  1  1
  2  3  1  0
  2  4  1  0
  2  5  1  0
  4  6  1  6
  3  7  1  0
  6  7  1  0
  4  8  1  0
  5  9  2  0
  7 10  1  6
  8 11  1  0
  9 11  1  0
 10 12  1  0
 10 13  2  0
 11 14  2  0
M  END
