diamond-x1018_0_A-mac-x0132
     RDKit          3D

 10 11  0  0  0  0  0  0  0  0999 V2000
   -8.3550   14.5920    0.9100 Cl  0  0  0  0  0  0  0  0  0  0  0  0
   -6.6820   14.6710    0.4810 C   0  0  0  0  0  0  0  0  0  0  0  0
   -5.6610   14.6410    1.5700 C   0  0  0  0  0  0  0  0  0  0  0  0
   -6.4330   14.7590   -0.7820 N   0  0  0  0  0  0  0  0  0  0  0  0
   -5.1070   14.8160   -1.0380 N   0  0  0  0  0  0  0  0  0  0  0  0
   -4.3680   14.7070    1.2240 C   0  0  0  0  0  0  0  0  0  0  0  0
   -4.6210   14.9100   -2.2820 N   0  0  0  0  0  0  0  0  0  0  0  0
   -4.0540   14.7960   -0.1450 C   0  0  0  0  0  0  0  0  0  0  0  0
   -2.9330   14.8680   -0.8210 N   0  0  0  0  0  0  0  0  0  0  0  0
   -3.3020   14.9400   -2.1460 N   0  0  0  0  0  0  0  0  0  0  0  0
  1  2  1  0
  2  3  1  0
  2  4  2  0
  4  5  1  0
  3  6  2  0
  5  7  1  0
  5  8  1  0
  6  8  1  0
  8  9  2  0
  7 10  2  0
  9 10  1  0
M  END
