diamond-x0727_0_A-diamond-x0282_0_A
     RDKit          3D

 28 30  0  0  0  0  0  0  0  0999 V2000
    0.1690   11.3960   -5.6040 N   0  0  0  0  0  0  0  0  0  0  0  0
    0.9220   12.3490   -4.7950 C   0  0  1  0  0  0  0  0  0  0  0  0
    0.5240   13.7750   -5.1520 C   0  0  0  0  0  0  0  0  0  0  0  0
    0.6920   11.0500   -6.8110 C   0  0  0  0  0  0  0  0  0  0  0  0
    1.6310   11.6570   -7.2530 O   0  0  0  0  0  0  0  0  0  0  0  0
    0.7010   12.0410   -3.3100 C   0  0  0  0  0  0  0  0  0  0  0  0
    0.0840    9.8730   -7.5500 C   0  0  0  0  0  0  0  0  0  0  0  0
    0.1990   11.0010   -2.8800 O   0  0  0  0  0  0  0  0  0  0  0  0
    1.1550   13.0650   -2.5440 O   0  0  0  0  0  0  0  0  0  0  0  0
   -1.2150   10.2490   -8.2710 C   0  0  0  0  0  0  0  0  0  0  0  0
   -0.2470    8.6780   -6.6400 C   0  0  0  0  0  0  0  0  0  0  0  0
    0.3660   14.2770   -2.5660 C   0  0  0  0  0  0  0  0  0  0  0  0
   -2.1640    9.0830   -8.0240 C   0  0  0  0  0  0  0  0  0  0  0  0
   -1.7590    8.5540   -6.6580 C   0  0  0  0  0  0  0  0  0  0  0  0
   -0.2470   14.4140   -1.2100 C   0  0  0  0  0  0  0  0  0  0  0  0
   -1.5690   14.3350   -1.1100 N   0  0  0  0  0  0  0  0  0  0  0  0
    0.5390   14.6030   -0.1360 C   0  0  0  0  0  0  0  0  0  0  0  0
   -0.0870   14.6880    1.0850 C   0  0  0  0  0  0  0  0  0  0  0  0
   -2.1150   14.4340    0.0930 C   0  0  0  0  0  0  0  0  0  0  0  0
   -3.4710   14.3490    0.1400 N   0  0  0  0  0  0  0  0  0  0  0  0
   -1.4110   14.6020    1.2400 N   0  0  0  0  0  0  0  0  0  0  0  0
   -3.9210   14.3400    1.4910 C   0  0  0  0  0  0  0  0  0  0  0  0
   -4.2410   15.0570   -0.8970 C   0  0  0  0  0  0  0  0  0  0  0  0
   -5.2060   15.1150    1.5650 C   0  0  0  0  0  0  0  0  0  0  0  0
   -5.7700   14.8710   -0.7470 C   0  0  0  0  0  0  0  0  0  0  0  0
   -6.1430   14.3740    0.6510 C   0  0  0  0  0  0  0  0  0  0  0  0
   -7.6150   14.4190    1.0730 C   0  0  0  0  0  0  0  0  0  0  0  0
   -8.4990   14.6420   -0.0140 O   0  0  0  0  0  0  0  0  0  0  0  0
  1  2  1  0
  2  3  1  1
  1  4  1  0
  4  5  2  0
  2  6  1  0
  4  7  1  0
  6  8  2  0
  6  9  1  0
  7 10  1  0
  7 11  1  0
  9 12  1  0
 10 13  1  0
 11 14  1  0
 13 14  1  0
 12 15  1  0
 15 16  2  0
 15 17  1  0
 17 18  2  0
 16 19  1  0
 19 20  1  0
 18 21  1  0
 19 21  2  0
 20 22  1  0
 20 23  1  0
 22 24  1  0
 23 25  1  0
 24 26  1  0
 25 26  1  0
 26 27  1  0
 27 28  1  0
M  END
