diamond-x0438_0_A-diamond-x0926_0_A
     RDKit          3D

 15 16  0  0  0  0  0  0  0  0999 V2000
   -8.2520   15.6590    3.9830 C   0  0  0  0  0  0  0  0  0  0  0  0
   -9.3850   15.3280    2.6450 S   0  0  0  0  0  0  0  0  0  0  0  0
  -10.6010   14.8220    3.2500 O   0  0  0  0  0  0  0  0  0  0  0  0
   -8.6950   13.9780    1.7350 C   0  0  0  0  0  0  0  0  0  0  0  0
   -9.4540   16.4890    1.7860 O   0  0  0  0  0  0  0  0  0  0  0  0
   -7.3660   14.3100    1.1740 C   0  0  0  0  0  0  0  0  0  0  0  0
   -7.2520   14.5910   -0.1760 N   0  0  0  0  0  0  0  0  0  0  0  0
   -6.2650   14.3580    1.8780 N   0  0  0  0  0  0  0  0  0  0  0  0
   -5.3050   14.6640    0.9660 C   0  0  0  0  0  0  0  0  0  0  0  0
   -5.9800   14.8170   -0.3030 C   0  0  0  0  0  0  0  0  0  0  0  0
   -5.2250   15.1760   -1.5040 C   0  0  0  0  0  0  0  0  0  0  0  0
   -3.9820   14.8210    1.0560 C   0  0  0  0  0  0  0  0  0  0  0  0
   -5.8210   15.3260   -2.5360 O   0  0  0  0  0  0  0  0  0  0  0  0
   -3.7560   15.3160   -1.3430 C   0  0  0  0  0  0  0  0  0  0  0  0
   -3.2030   15.1390   -0.1270 C   0  0  0  0  0  0  0  0  0  0  0  0
  2  1  1  0
  2  3  2  0
  2  4  1  0
  2  5  2  0
  4  6  1  0
  6  7  1  0
  6  8  2  0
  8  9  1  0
  7 10  2  0
  9 10  1  0
 10 11  1  0
  9 12  2  0
 11 13  2  0
 11 14  1  0
 12 15  1  0
 14 15  2  0
M  END
