diamond-x0574_0_A-diamond-x0895_1_A
     RDKit          3D

 13 14  0  0  0  0  0  0  0  0999 V2000
    0.1310   13.4440    1.6840 N   0  0  0  0  0  0  0  0  0  0  0  0
   -0.8640   14.1540    1.1980 C   0  0  0  0  0  0  0  0  0  0  0  0
   -1.8240   14.5520    1.9210 N   0  0  0  0  0  0  0  0  0  0  0  0
   -0.8560   14.5490   -0.5230 S   0  0  0  0  0  0  0  0  0  0  0  0
   -2.7280   15.2680    1.0260 C   0  0  1  0  0  0  0  0  0  0  0  0
   -2.5460   14.6960   -0.3110 C   0  0  0  0  0  0  0  0  0  0  0  0
   -4.1220   15.2320    1.5270 C   0  0  0  0  0  0  0  0  0  0  0  0
   -3.5370   14.3680   -1.1360 C   0  0  0  0  0  0  0  0  0  0  0  0
   -4.2660   15.5260    2.6710 O   0  0  0  0  0  0  0  0  0  0  0  0
   -5.2460   14.8950    0.5590 C   0  0  0  0  0  0  0  0  0  0  0  0
   -4.9030   14.5190   -0.6880 C   0  0  0  0  0  0  0  0  0  0  0  0
   -6.5940   14.9460    0.8760 O   0  0  0  0  0  0  0  0  0  0  0  0
   -6.9410   14.5960    2.2140 C   0  0  0  0  0  0  0  0  0  0  0  0
  1  2  1  0
  2  3  2  0
  2  4  1  0
  5  3  1  1
  4  6  1  0
  5  6  1  0
  5  7  1  0
  6  8  2  0
  7  9  2  0
  7 10  1  0
  8 11  1  0
 10 11  2  0
 10 12  1  0
 12 13  1  0
M  END
