diamond-x0421_0_A-mac-x1493
     RDKit          3D

 11 12  0  0  0  0  0  0  0  0999 V2000
   -3.7690   15.1220   -2.8610 N   0  0  0  0  0  0  0  0  0  0  0  0
   -2.8960   14.9090   -1.8320 C   0  0  0  0  0  0  0  0  0  0  0  0
   -1.6960   14.7490   -2.0290 O   0  0  0  0  0  0  0  0  0  0  0  0
   -3.5220   14.8910   -0.5150 C   0  0  0  0  0  0  0  0  0  0  0  0
   -2.8810   15.0120    0.7050 C   0  0  0  0  0  0  0  0  0  0  0  0
   -4.8900   14.7400   -0.3200 N   0  0  0  0  0  0  0  0  0  0  0  0
   -3.8660   14.9320    1.6420 N   0  0  0  0  0  0  0  0  0  0  0  0
   -5.0490   14.7680    0.9840 C   0  0  0  0  0  0  0  0  0  0  0  0
   -6.4080   14.6300    1.7160 C   0  0  0  0  0  0  0  0  0  0  0  0
   -7.6890   14.6520    0.9240 C   0  0  0  0  0  0  0  0  0  0  0  0
   -7.1980   13.3660    1.5230 C   0  0  0  0  0  0  0  0  0  0  0  0
  1  2  1  0
  2  3  2  0
  2  4  1  0
  4  5  2  0
  4  6  1  0
  5  7  1  0
  6  8  2  0
  7  8  1  0
  8  9  1  0
  9 10  1  0
  9 11  1  0
 10 11  1  0
M  END
