diamond-x0910_0_A-mac-x0337
     RDKit          3D

 16 17  0  0  0  0  0  0  0  0999 V2000
   -2.7430   14.7990   -1.5350 N   0  0  0  0  0  0  0  0  0  0  0  0
   -3.9260   14.5110   -0.6660 S   0  0  1  0  0  0  0  0  0  0  0  0
   -3.8630   14.6390    0.7610 O   0  0  0  0  0  0  0  0  0  0  0  0
   -1.6290   14.8350   -0.6440 C   0  0  0  0  0  0  0  0  0  0  0  0
   -5.0400   15.7010   -1.0580 N   0  0  0  0  0  0  0  0  0  0  0  0
   -1.7330   14.7390    0.7110 N   0  0  0  0  0  0  0  0  0  0  0  0
   -0.3960   14.9780   -1.0020 N   0  0  0  0  0  0  0  0  0  0  0  0
   -4.5140   12.9320   -1.1070 C   0  0  0  0  0  0  0  0  0  0  0  0
   -0.5290   14.8290    1.2870 N   0  0  0  0  0  0  0  0  0  0  0  0
    0.2360   14.9800    0.2000 C   0  0  0  0  0  0  0  0  0  0  0  0
   -3.7360   12.1360   -1.9490 C   0  0  0  0  0  0  0  0  0  0  0  0
   -5.7370   12.4940   -0.6190 C   0  0  0  0  0  0  0  0  0  0  0  0
   -4.1930   10.8780   -2.3090 C   0  0  0  0  0  0  0  0  0  0  0  0
   -6.1920   11.2320   -0.9820 C   0  0  0  0  0  0  0  0  0  0  0  0
   -5.4230   10.4180   -1.8280 C   0  0  0  0  0  0  0  0  0  0  0  0
   -5.9090    9.0560   -2.2130 C   0  0  0  0  0  0  0  0  0  0  0  0
  1  2  2  0
  2  3  2  0
  1  4  1  0
  2  5  1  6
  4  6  1  0
  4  7  2  0
  2  8  1  0
  6  9  1  0
  7 10  1  0
  9 10  2  0
  8 11  2  0
  8 12  1  0
 11 13  1  0
 12 14  2  0
 13 15  2  0
 14 15  1  0
 15 16  1  0
M  END
