diamond-x0681_0_A-diamond-x0727_0_A
     RDKit          3D

 27 29  0  0  0  0  0  0  0  0999 V2000
   -4.5530   15.3900   -3.0490 N   0  0  0  0  0  0  0  0  0  0  0  0
   -3.5790   14.9670   -2.2000 C   0  0  0  0  0  0  0  0  0  0  0  0
   -2.3770   14.7470   -2.6500 N   0  0  0  0  0  0  0  0  0  0  0  0
   -4.1100   14.8010   -0.7530 C   0  0  1  0  0  0  0  0  0  0  0  0
   -1.2100   14.2890   -1.9160 C   0  0  0  0  0  0  0  0  0  0  0  0
   -4.8920   13.5400   -0.6050 C   0  0  0  0  0  0  0  0  0  0  0  0
   -3.2650   15.1270    0.4880 C   0  0  0  0  0  0  0  0  0  0  0  0
    0.0630   14.3520   -2.7960 C   0  0  0  0  0  0  0  0  0  0  0  0
   -5.5500   13.3590    0.5400 N   0  0  0  0  0  0  0  0  0  0  0  0
   -4.0010   14.7520    1.7880 C   0  0  0  0  0  0  0  0  0  0  0  0
   -5.0760   12.5250   -1.4280 N   0  0  0  0  0  0  0  0  0  0  0  0
   -0.0530   13.8260   -4.2650 C   0  0  0  0  0  0  0  0  0  0  0  0
   -5.4710   14.3490    1.5640 C   0  0  0  0  0  0  0  0  0  0  0  0
   -6.2160   12.1770    0.5020 C   0  0  0  0  0  0  0  0  0  0  0  0
   -5.9080   11.6700   -0.7390 C   0  0  0  0  0  0  0  0  0  0  0  0
    0.7090   12.5140   -4.5440 C   0  0  2  0  0  0  0  0  0  0  0  0
    0.0430   11.6220   -5.5220 N   0  0  0  0  0  0  0  0  0  0  0  0
    0.7810   11.7690   -3.2220 C   0  0  0  0  0  0  0  0  0  0  0  0
    0.1290   10.7840   -2.9020 O   0  0  0  0  0  0  0  0  0  0  0  0
    0.6760   11.2380   -6.6840 C   0  0  0  0  0  0  0  0  0  0  0  0
    1.6740   12.3040   -2.3700 O   0  0  0  0  0  0  0  0  0  0  0  0
    1.6660   11.8110   -7.0780 O   0  0  0  0  0  0  0  0  0  0  0  0
    0.0740   10.0390   -7.4280 C   0  0  0  0  0  0  0  0  0  0  0  0
   -1.2110   10.4270   -8.1600 C   0  0  0  0  0  0  0  0  0  0  0  0
   -0.2960    8.8450   -6.5250 C   0  0  0  0  0  0  0  0  0  0  0  0
   -2.1050    9.2010   -8.0580 C   0  0  0  0  0  0  0  0  0  0  0  0
   -1.7890    8.6140   -6.6950 C   0  0  0  0  0  0  0  0  0  0  0  0
  1  2  1  0
  2  3  2  3
  4  2  1  6
  3  5  1  0
  4  6  1  0
  4  7  1  0
  5  8  1  0
  6  9  1  0
  7 10  1  0
  6 11  2  0
  8 12  1  0
  9 13  1  0
 10 13  1  0
  9 14  1  0
 11 15  1  0
 14 15  2  0
 16 12  1  1
 16 17  1  0
 16 18  1  0
 18 19  2  0
 17 20  1  0
 18 21  1  0
 20 22  2  0
 20 23  1  0
 23 24  1  0
 23 25  1  0
 24 26  1  0
 25 27  1  0
 26 27  1  0
M  END
