diamond-x0282_0_A-mac-x0361
     RDKit          3D

 22 24  0  0  0  0  0  0  0  0999 V2000
   -6.9060   14.5540    0.0130 C   0  0  2  0  0  0  0  0  0  0  0  0
   -7.9500   15.4880    0.1730 O   0  0  0  0  0  0  0  0  0  0  0  0
   -7.6820   13.3970   -0.2670 N   0  0  0  0  0  0  0  0  0  0  0  0
   -6.1190   14.2020    1.2740 C   0  0  0  0  0  0  0  0  0  0  0  0
   -5.8440   14.8190   -1.0610 C   0  0  0  0  0  0  0  0  0  0  0  0
   -5.0810   15.1760    1.8480 C   0  0  0  0  0  0  0  0  0  0  0  0
   -5.3550   12.9330    0.8320 C   0  0  0  0  0  0  0  0  0  0  0  0
   -4.5520   15.1900   -0.6620 C   0  0  0  0  0  0  0  0  0  0  0  0
   -6.0540   14.6880   -2.4420 C   0  0  0  0  0  0  0  0  0  0  0  0
   -3.7300   14.4850    1.9090 C   0  0  0  0  0  0  0  0  0  0  0  0
   -4.1620   13.2390   -0.0930 C   0  0  0  0  0  0  0  0  0  0  0  0
   -3.5280   15.3950   -1.5730 C   0  0  0  0  0  0  0  0  0  0  0  0
   -5.0120   14.9020   -3.3590 C   0  0  0  0  0  0  0  0  0  0  0  0
   -3.3510   14.2280    0.5800 N   0  0  0  0  0  0  0  0  0  0  0  0
   -3.7490   15.2520   -2.9160 C   0  0  0  0  0  0  0  0  0  0  0  0
   -2.7500   15.4470   -3.8290 O   0  0  0  0  0  0  0  0  0  0  0  0
   -2.0350   14.3710    0.3370 C   0  0  0  0  0  0  0  0  0  0  0  0
   -1.5980   14.3490   -0.9270 N   0  0  0  0  0  0  0  0  0  0  0  0
   -1.2530   14.5380    1.4100 N   0  0  0  0  0  0  0  0  0  0  0  0
   -0.3010   14.5210   -1.1360 C   0  0  0  0  0  0  0  0  0  0  0  0
    0.0310   14.7070    1.1420 C   0  0  0  0  0  0  0  0  0  0  0  0
    0.5720   14.7130   -0.1250 C   0  0  0  0  0  0  0  0  0  0  0  0
  1  2  1  0
  1  3  1  6
  1  4  1  0
  1  5  1  0
  4  6  1  0
  4  7  1  0
  5  8  2  0
  5  9  1  0
  6 10  1  0
  7 11  1  0
  8 12  1  0
  9 13  2  0
 10 14  1  0
 11 14  1  0
 12 15  2  0
 13 15  1  0
 15 16  1  0
 14 17  1  0
 17 18  2  0
 17 19  1  0
 18 20  1  0
 19 21  2  0
 20 22  2  0
 21 22  1  0
M  END
