diamond-x0910_1_A-mac-x0588
     RDKit          3D

 22 25  0  0  0  0  0  0  0  0999 V2000
   -8.3820   13.8170    1.0700 N   0  0  0  0  0  0  0  0  0  0  0  0
   -7.2840   14.4420    0.6390 C   0  0  0  0  0  0  0  0  0  0  0  0
   -7.1550   14.9690   -0.6150 N   0  0  0  0  0  0  0  0  0  0  0  0
   -6.1920   14.6510    1.3070 N   0  0  0  0  0  0  0  0  0  0  0  0
   -5.9570   15.5350   -0.7740 N   0  0  0  0  0  0  0  0  0  0  0  0
   -5.4150   15.3120    0.4250 C   0  0  0  0  0  0  0  0  0  0  0  0
   -4.2260   15.6580    0.8300 N   0  0  0  0  0  0  0  0  0  0  0  0
   -3.2830   15.5910   -0.2170 C   0  0  2  0  0  0  0  0  0  0  0  0
   -3.6310   14.5660   -1.1590 N   0  0  0  0  0  0  0  0  0  0  0  0
   -1.8540   15.4330    0.2860 C   0  0  2  0  0  0  0  0  0  0  0  0
   -2.9540   14.8840   -2.3610 C   0  0  0  0  0  0  0  0  0  0  0  0
   -0.9170   15.2860   -0.9380 C   0  0  2  0  0  0  0  0  0  0  0  0
   -1.4810   14.4010    1.2340 N   0  0  0  0  0  0  0  0  0  0  0  0
   -1.5190   14.7680   -2.1750 N   0  0  0  0  0  0  0  0  0  0  0  0
    0.1040   14.3560   -0.4610 N   0  0  0  0  0  0  0  0  0  0  0  0
   -0.0760   14.3160    0.9870 C   0  0  0  0  0  0  0  0  0  0  0  0
   -0.8070   15.0560   -3.4060 C   0  0  0  0  0  0  0  0  0  0  0  0
   -0.4190   16.4920   -3.8250 C   0  0  2  0  0  0  0  0  0  0  0  0
   -1.5030   17.3100   -4.3550 O   0  0  0  0  0  0  0  0  0  0  0  0
    0.7030   16.5200   -4.8370 C   0  0  0  0  0  0  0  0  0  0  0  0
    0.5650   17.9040   -5.4040 C   0  0  0  0  0  0  0  0  0  0  0  0
   -0.9430   18.1180   -5.4020 C   0  0  0  0  0  0  0  0  0  0  0  0
  1  2  1  0
  2  3  1  0
  2  4  2  0
  3  5  1  0
  4  6  1  0
  5  6  2  0
  6  7  1  0
  8  7  1  1
  8  9  1  0
  8 10  1  0
  9 11  1  0
 10 12  1  0
 10 13  1  1
 11 14  1  0
 12 14  1  0
 12 15  1  1
 13 16  1  0
 15 16  1  0
 14 17  1  0
 18 17  1  6
 18 19  1  0
 18 20  1  0
 20 21  1  0
 19 22  1  0
 21 22  1  0
M  END
