diamond-x0371_0_A-mac-x0397
     RDKit          3D

 19 21  0  0  0  0  0  0  0  0999 V2000
   -8.1630   14.5350    3.0720 N   0  0  0  0  0  0  0  0  0  0  0  0
   -8.8350   15.5530    3.6880 C   0  0  0  0  0  0  0  0  0  0  0  0
   -9.4940   16.3820    3.0630 O   0  0  0  0  0  0  0  0  0  0  0  0
   -8.3970   14.2040    1.6990 C   0  0  0  0  0  0  0  0  0  0  0  0
   -7.1540   14.4430    0.9350 C   0  0  0  0  0  0  0  0  0  0  0  0
   -8.6900   15.5400    5.1180 C   0  0  0  0  0  0  0  0  0  0  0  0
   -5.9130   14.5610    1.5240 N   0  0  0  0  0  0  0  0  0  0  0  0
   -7.0680   14.5660   -0.3610 N   0  0  0  0  0  0  0  0  0  0  0  0
   -8.0880   14.4610    5.7040 O   0  0  0  0  0  0  0  0  0  0  0  0
   -9.0570   16.4470    6.0850 C   0  0  0  0  0  0  0  0  0  0  0  0
   -5.7410   14.7600   -0.6190 C   0  0  0  0  0  0  0  0  0  0  0  0
   -4.9890   14.7650    0.5440 C   0  0  0  0  0  0  0  0  0  0  0  0
   -8.6590   15.8950    7.3250 C   0  0  0  0  0  0  0  0  0  0  0  0
   -8.0720   14.6860    7.0390 C   0  0  0  0  0  0  0  0  0  0  0  0
   -3.6090   14.9420    0.5610 C   0  0  0  0  0  0  0  0  0  0  0  0
   -5.0940   14.9350   -1.8160 C   0  0  0  0  0  0  0  0  0  0  0  0
   -6.1560   14.8830   -3.1330 Cl  0  0  0  0  0  0  0  0  0  0  0  0
   -2.9860   15.1160   -0.6820 C   0  0  0  0  0  0  0  0  0  0  0  0
   -3.7170   15.1180   -1.8770 C   0  0  0  0  0  0  0  0  0  0  0  0
  1  2  1  0
  2  3  2  0
  1  4  1  0
  4  5  1  0
  2  6  1  0
  5  7  1  0
  5  8  2  0
  6  9  1  0
  6 10  2  0
  8 11  1  0
  7 12  1  0
 11 12  2  0
 10 13  1  0
  9 14  1  0
 13 14  2  0
 12 15  1  0
 11 16  1  0
 16 17  1  0
 15 18  2  0
 16 19  2  0
 18 19  1  0
M  END
