diamond-x0689_0_A-mac-x0411
     RDKit          3D

 23 24  0  0  0  0  0  0  0  0999 V2000
   -3.4710   15.3510    1.8440 N   0  0  0  0  0  0  0  0  0  0  0  0
   -4.6580   15.4850    1.0470 C   0  0  0  0  0  0  0  0  0  0  0  0
   -2.4650   14.8310    1.0670 C   0  0  0  0  0  0  0  0  0  0  0  0
   -2.6860   14.7730   -0.2440 N   0  0  0  0  0  0  0  0  0  0  0  0
   -1.3480   14.4110    1.6700 N   0  0  0  0  0  0  0  0  0  0  0  0
   -1.7440   14.2370   -1.0020 C   0  0  0  0  0  0  0  0  0  0  0  0
   -0.4120   13.8710    0.8540 C   0  0  0  0  0  0  0  0  0  0  0  0
   -0.5700   13.7440   -0.5290 C   0  0  0  0  0  0  0  0  0  0  0  0
    0.3760   13.1150   -1.5070 C   0  0  0  0  0  0  0  0  0  0  0  0
    1.5180   13.9010   -2.1170 C   0  0  0  0  0  0  0  0  0  0  0  0
    2.0200   13.1050   -3.2130 O   0  0  0  0  0  0  0  0  0  0  0  0
    1.1780   12.2100   -3.8170 C   0  0  0  0  0  0  0  0  0  0  0  0
    0.6570   11.2520   -3.2440 O   0  0  0  0  0  0  0  0  0  0  0  0
    0.9650   12.5310   -5.3040 C   0  0  0  0  0  0  0  0  0  0  0  0
    0.7370   11.4260   -6.2030 O   0  0  0  0  0  0  0  0  0  0  0  0
   -0.4700   10.7420   -6.1330 C   0  0  0  0  0  0  0  0  0  0  0  0
   -1.5970   11.1670   -5.3960 C   0  0  0  0  0  0  0  0  0  0  0  0
   -0.5780    9.5300   -6.8570 C   0  0  0  0  0  0  0  0  0  0  0  0
    0.7040    8.8790   -7.8210 Cl  0  0  0  0  0  0  0  0  0  0  0  0
   -1.6490   12.6250   -4.4680 Cl  0  0  0  0  0  0  0  0  0  0  0  0
   -2.7710   10.4030   -5.3830 C   0  0  0  0  0  0  0  0  0  0  0  0
   -1.7550    8.7800   -6.8310 C   0  0  0  0  0  0  0  0  0  0  0  0
   -2.8490    9.2130   -6.0970 C   0  0  0  0  0  0  0  0  0  0  0  0
  1  2  1  0
  1  3  1  0
  3  4  2  0
  3  5  1  0
  4  6  1  0
  5  7  2  0
  6  8  2  0
  7  8  1  0
  8  9  1  0
  9 10  1  0
 10 11  1  0
 11 12  1  0
 12 13  2  0
 12 14  1  0
 14 15  1  0
 15 16  1  0
 16 17  2  0
 16 18  1  0
 18 19  1  0
 17 20  1  0
 17 21  1  0
 18 22  2  0
 21 23  2  0
 22 23  1  0
M  END
