diamond-x0465_0_A-mac-x0373
     RDKit          3D

 28 30  0  0  0  0  0  0  0  0999 V2000
    2.1680   13.1850   -4.6650 C   0  0  0  0  0  0  0  0  0  0  0  0
    0.7910   12.5430   -4.4970 C   0  0  1  0  0  0  0  0  0  0  0  0
    0.7160   11.4350   -5.3960 O   0  0  0  0  0  0  0  0  0  0  0  0
    0.5960   12.0510   -3.0540 C   0  0  0  0  0  0  0  0  0  0  0  0
    0.3070   12.7180   -1.9880 N   0  0  0  0  0  0  0  0  0  0  0  0
    0.7310   10.7300   -2.8500 O   0  0  0  0  0  0  0  0  0  0  0  0
   -0.3710   10.6110   -5.5770 C   0  0  0  0  0  0  0  0  0  0  0  0
    0.1120   14.0770   -2.1240 C   0  0  0  0  0  0  0  0  0  0  0  0
   -0.5890    9.7720   -6.6750 C   0  0  0  0  0  0  0  0  0  0  0  0
   -1.3300   10.6210   -4.5610 C   0  0  0  0  0  0  0  0  0  0  0  0
    0.2860    9.6960   -7.6850 F   0  0  0  0  0  0  0  0  0  0  0  0
    0.9820   14.8930   -1.8370 O   0  0  0  0  0  0  0  0  0  0  0  0
   -1.2900   14.4660   -2.6770 C   0  0  0  0  0  0  0  0  0  0  0  0
   -1.7220    8.9720   -6.7700 C   0  0  0  0  0  0  0  0  0  0  0  0
   -2.4710    9.8120   -4.6530 C   0  0  0  0  0  0  0  0  0  0  0  0
   -2.6680    8.9900   -5.7590 C   0  0  0  0  0  0  0  0  0  0  0  0
   -1.8680   13.4560   -3.6640 C   0  0  0  0  0  0  0  0  0  0  0  0
   -2.3910   14.8550   -1.6880 C   0  0  0  0  0  0  0  0  0  0  0  0
   -1.4280   13.3700   -4.9940 C   0  0  0  0  0  0  0  0  0  0  0  0
   -2.8810   12.5930   -3.2200 C   0  0  0  0  0  0  0  0  0  0  0  0
   -3.6220   15.3870   -2.1140 C   0  0  0  0  0  0  0  0  0  0  0  0
   -2.1790   14.6800   -0.3050 C   0  0  0  0  0  0  0  0  0  0  0  0
   -1.9930   12.4370   -5.8660 C   0  0  0  0  0  0  0  0  0  0  0  0
   -3.4460   11.6660   -4.0910 C   0  0  0  0  0  0  0  0  0  0  0  0
   -4.6050   15.7360   -1.1940 C   0  0  0  0  0  0  0  0  0  0  0  0
   -3.1710   15.0350    0.6100 C   0  0  0  0  0  0  0  0  0  0  0  0
   -3.0020   11.5890   -5.4140 C   0  0  0  0  0  0  0  0  0  0  0  0
   -4.3760   15.5590    0.1640 C   0  0  0  0  0  0  0  0  0  0  0  0
  2  1  1  1
  2  3  1  0
  2  4  1  0
  4  5  2  3
  4  6  1  0
  3  7  1  0
  5  8  1  0
  7  9  2  0
  7 10  1  0
  9 11  1  0
  8 12  2  0
  8 13  1  0
  9 14  1  0
 10 15  2  0
 14 16  2  0
 15 16  1  0
 13 17  1  0
 13 18  1  0
 17 19  2  0
 17 20  1  0
 18 21  2  0
 18 22  1  0
 19 23  1  0
 20 24  2  0
 21 25  1  0
 22 26  2  0
 23 27  2  0
 24 27  1  0
 25 28  2  0
 26 28  1  0
M  END
