diamond-x0918_1_B-diamond-x0228_0_B
     RDKit          3D

 18 19  0  0  0  0  0  0  0  0999 V2000
   -1.7320   25.1350  -11.7020 N   0  0  0  0  0  0  0  0  0  0  0  0
   -2.7560   25.5280  -12.5340 C   0  0  0  0  0  0  0  0  0  0  0  0
   -2.3480   26.1830  -13.6790 C   0  0  0  0  0  0  0  0  0  0  0  0
   -4.1240   25.3000  -12.2790 C   0  0  0  0  0  0  0  0  0  0  0  0
   -4.5950   24.5690  -11.0260 C   0  0  0  0  0  0  0  0  0  0  0  0
   -5.0290   25.7970  -13.2540 C   0  0  0  0  0  0  0  0  0  0  0  0
   -3.2850   26.6120  -14.5770 C   0  0  0  0  0  0  0  0  0  0  0  0
   -6.4200   25.6510  -13.0560 N   0  0  0  0  0  0  0  0  0  0  0  0
   -4.6120   26.4350  -14.3830 N   0  0  0  0  0  0  0  0  0  0  0  0
   -2.8150   27.3000  -15.8120 C   0  0  0  0  0  0  0  0  0  0  0  0
   -7.4030   24.9950  -13.7480 C   0  0  0  0  0  0  0  0  0  0  0  0
   -8.0270   25.6610  -14.7640 N   0  0  0  0  0  0  0  0  0  0  0  0
   -7.6930   23.8540  -13.4050 O   0  0  0  0  0  0  0  0  0  0  0  0
   -9.3330   25.4170  -15.0100 N   0  0  0  0  0  0  0  0  0  0  0  0
   -9.8350   24.4130  -15.7750 C   0  0  0  0  0  0  0  0  0  0  0  0
  -10.3880   26.1300  -14.5430 C   0  0  0  0  0  0  0  0  0  0  0  0
  -11.1490   24.5010  -15.7800 N   0  0  0  0  0  0  0  0  0  0  0  0
  -11.5010   25.5890  -14.9980 N   0  0  0  0  0  0  0  0  0  0  0  0
  1  2  1  0
  2  3  2  0
  2  4  1  0
  4  5  1  0
  4  6  2  0
  3  7  1  0
  6  8  1  0
  6  9  1  0
  7  9  2  0
  7 10  1  0
  8 11  1  0
 11 12  1  0
 11 13  2  0
 12 14  1  0
 14 15  1  0
 14 16  1  0
 15 17  2  0
 16 18  2  0
 17 18  1  0
M  END
