diamond-x0792_0_A-diamond-x0091_0_B
     RDKit          3D

 26 28  0  0  0  0  0  0  0  0999 V2000
    9.7180   22.1940   18.5230 C   0  0  0  0  0  0  0  0  0  0  0  0
    9.8480   21.4320   17.3200 O   0  0  0  0  0  0  0  0  0  0  0  0
   11.1560   21.0700   16.8720 C   0  0  0  0  0  0  0  0  0  0  0  0
    9.1890   23.6630   18.4600 C   0  0  1  0  0  0  0  0  0  0  0  0
    9.6270   24.4500   17.2350 C   0  0  0  0  0  0  0  0  0  0  0  0
    7.7450   23.9400   18.8830 C   0  0  0  0  0  0  0  0  0  0  0  0
   11.8360   22.0950   15.9520 C   0  0  0  0  0  0  0  0  0  0  0  0
    6.9050   24.7870   18.0050 N   0  0  0  0  0  0  0  0  0  0  0  0
    8.6500   25.5400   16.7700 C   0  0  2  0  0  0  0  0  0  0  0  0
    8.5570   26.7040   17.7330 C   0  0  0  0  0  0  0  0  0  0  0  0
   13.0230   21.4950   15.1980 C   0  0  0  0  0  0  0  0  0  0  0  0
    7.3120   24.9570   16.6480 C   0  0  0  0  0  0  0  0  0  0  0  0
   12.7740   21.0920   13.8020 N   0  0  0  0  0  0  0  0  0  0  0  0
   12.3030   19.7060   13.6170 C   0  0  0  0  0  0  0  0  0  0  0  0
   13.6330   21.5450   12.7970 C   0  0  0  0  0  0  0  0  0  0  0  0
   13.9670   20.8510   11.8390 O   0  0  0  0  0  0  0  0  0  0  0  0
   14.0830   22.8380   12.9670 N   0  0  0  0  0  0  0  0  0  0  0  0
   13.2010   18.7120   14.2960 C   0  0  0  0  0  0  0  0  0  0  0  0
   12.7110   17.6700   14.9830 N   0  0  0  0  0  0  0  0  0  0  0  0
   14.6210   18.7040   14.3260 C   0  0  0  0  0  0  0  0  0  0  0  0
   15.1260   23.4010   12.1600 C   0  0  0  0  0  0  0  0  0  0  0  0
   13.8050   16.9760   15.4680 O   0  0  0  0  0  0  0  0  0  0  0  0
   14.9450   17.5970   15.0740 C   0  0  0  0  0  0  0  0  0  0  0  0
   16.5690   23.1170   12.4810 C   0  0  0  0  0  0  0  0  0  0  0  0
   16.0100   24.4880   12.7180 C   0  0  0  0  0  0  0  0  0  0  0  0
   16.2090   16.9780   15.5100 C   0  0  0  0  0  0  0  0  0  0  0  0
  1  2  1  0
  2  3  1  0
  4  1  1  6
  4  5  1  0
  4  6  1  0
  3  7  1  0
  6  8  1  0
  5  9  1  0
  9 10  1  1
  7 11  1  0
  8 12  1  0
  9 12  1  0
 11 13  1  0
 13 14  1  0
 13 15  1  0
 15 16  2  0
 15 17  1  0
 14 18  1  0
 18 19  2  0
 18 20  1  0
 17 21  1  0
 19 22  1  0
 20 23  2  0
 22 23  1  0
 21 24  1  0
 21 25  1  0
 24 25  1  0
 23 26  1  0
M  END
