diamond-x0253_0_A-mac-x0347
     RDKit          3D

 28 30  0  0  0  0  0  0  0  0999 V2000
    0.3070   11.5510   -5.3900 N   0  0  0  0  0  0  0  0  0  0  0  0
    1.0150   11.5370   -6.5710 C   0  0  0  0  0  0  0  0  0  0  0  0
    2.0520   12.1630   -6.7080 O   0  0  0  0  0  0  0  0  0  0  0  0
    0.8420   12.4060   -4.3650 C   0  0  0  0  0  0  0  0  0  0  0  0
    0.6820   11.9000   -2.9300 C   0  0  0  0  0  0  0  0  0  0  0  0
    0.4530   10.6790   -7.6430 C   0  0  0  0  0  0  0  0  0  0  0  0
    0.6140   12.7870   -2.0310 N   0  0  0  0  0  0  0  0  0  0  0  0
    0.6240   10.5570   -2.7230 O   0  0  0  0  0  0  0  0  0  0  0  0
   -0.5230    9.7600   -7.2520 C   0  0  0  0  0  0  0  0  0  0  0  0
    0.8430   10.7430   -8.9860 C   0  0  0  0  0  0  0  0  0  0  0  0
    0.6040   14.1430   -2.5300 C   0  0  2  0  0  0  0  0  0  0  0  0
   -1.1120    8.9110   -8.1850 C   0  0  0  0  0  0  0  0  0  0  0  0
    0.2600    9.8970   -9.9220 C   0  0  0  0  0  0  0  0  0  0  0  0
   -2.1610    7.9320   -7.7460 C   0  0  0  0  0  0  0  0  0  0  0  0
    1.3450   15.0940   -1.8050 O   0  0  0  0  0  0  0  0  0  0  0  0
   -0.7150    8.9830   -9.5240 C   0  0  0  0  0  0  0  0  0  0  0  0
   -0.8490   14.5490   -2.6960 C   0  0  0  0  0  0  0  0  0  0  0  0
   -1.7250   14.5030   -1.6040 C   0  0  0  0  0  0  0  0  0  0  0  0
   -1.3820   14.9610   -3.9160 C   0  0  0  0  0  0  0  0  0  0  0  0
   -3.0720   14.8480   -1.7470 C   0  0  0  0  0  0  0  0  0  0  0  0
   -2.6780   15.3100   -4.1000 N   0  0  0  0  0  0  0  0  0  0  0  0
   -3.4830   15.2410   -3.0150 C   0  0  0  0  0  0  0  0  0  0  0  0
   -4.0110   14.7990   -0.6270 C   0  0  0  0  0  0  0  0  0  0  0  0
   -3.7190   15.4070    0.6020 C   0  0  0  0  0  0  0  0  0  0  0  0
   -5.2360   14.1320   -0.7700 C   0  0  0  0  0  0  0  0  0  0  0  0
   -4.6280   15.3500    1.6510 C   0  0  0  0  0  0  0  0  0  0  0  0
   -6.1480   14.0720    0.2830 C   0  0  0  0  0  0  0  0  0  0  0  0
   -5.8400   14.6830    1.4890 C   0  0  0  0  0  0  0  0  0  0  0  0
  1  2  1  0
  2  3  2  0
  1  4  1  0
  4  5  1  0
  2  6  1  0
  5  7  2  3
  5  8  1  0
  6  9  2  0
  6 10  1  0
  7 11  1  0
  9 12  1  0
 10 13  2  0
 12 14  1  0
 11 15  1  1
 12 16  2  0
 13 16  1  0
 11 17  1  0
 17 18  2  0
 17 19  1  0
 18 20  1  0
 19 21  2  0
 20 22  2  0
 21 22  1  0
 20 23  1  0
 23 24  2  0
 23 25  1  0
 24 26  1  0
 25 27  2  0
 26 28  2  0
 27 28  1  0
M  END
