diamond-x0438_0_A-diamond-x0253_0_A
     RDKit          3D

 31 33  0  0  0  0  0  0  0  0999 V2000
   -8.1450   15.4820    3.7940 C   0  0  0  0  0  0  0  0  0  0  0  0
   -9.3920   15.3330    2.5250 S   0  0  0  0  0  0  0  0  0  0  0  0
  -10.5820   14.7950    3.1590 O   0  0  0  0  0  0  0  0  0  0  0  0
   -8.8140   14.0970    1.3700 C   0  0  0  0  0  0  0  0  0  0  0  0
   -9.5050   16.5750    1.7930 O   0  0  0  0  0  0  0  0  0  0  0  0
   -7.4290   14.3640    0.9070 C   0  0  0  0  0  0  0  0  0  0  0  0
   -7.1100   14.8050   -0.3600 N   0  0  0  0  0  0  0  0  0  0  0  0
   -6.3470   14.2090    1.6250 N   0  0  0  0  0  0  0  0  0  0  0  0
   -5.2950   14.5410    0.8180 C   0  0  0  0  0  0  0  0  0  0  0  0
   -5.7400   14.9230   -0.4400 C   0  0  0  0  0  0  0  0  0  0  0  0
   -4.8740   15.3120   -1.4580 C   0  0  0  0  0  0  0  0  0  0  0  0
   -3.9290   14.5320    1.1040 C   0  0  0  0  0  0  0  0  0  0  0  0
   -3.5000   15.2910   -1.1560 C   0  0  0  0  0  0  0  0  0  0  0  0
   -3.0140   14.9020    0.1170 C   0  0  0  0  0  0  0  0  0  0  0  0
   -1.5370   14.8600    0.4790 C   0  0  0  0  0  0  0  0  0  0  0  0
   -0.6190   14.7680   -0.7450 C   0  0  0  0  0  0  0  0  0  0  0  0
    0.0210   13.4010   -0.8960 C   0  0  0  0  0  0  0  0  0  0  0  0
    0.7280   13.3370   -2.1690 N   0  0  0  0  0  0  0  0  0  0  0  0
    0.6890   12.3180   -2.9450 C   0  0  0  0  0  0  0  0  0  0  0  0
   -0.0130   11.2260   -2.5610 O   0  0  0  0  0  0  0  0  0  0  0  0
    1.3680   12.2050   -4.2960 C   0  0  0  0  0  0  0  0  0  0  0  0
    0.4360   11.9380   -5.3920 N   0  0  0  0  0  0  0  0  0  0  0  0
    1.0100   11.7360   -6.6170 C   0  0  0  0  0  0  0  0  0  0  0  0
    2.1160   12.1840   -6.7850 O   0  0  0  0  0  0  0  0  0  0  0  0
    0.3130   10.9070   -7.6500 C   0  0  0  0  0  0  0  0  0  0  0  0
   -0.8520   10.1990   -7.3490 C   0  0  0  0  0  0  0  0  0  0  0  0
    0.8390   10.8140   -8.9460 C   0  0  0  0  0  0  0  0  0  0  0  0
   -1.4690    9.3890   -8.3070 C   0  0  0  0  0  0  0  0  0  0  0  0
    0.2250   10.0220   -9.9070 C   0  0  0  0  0  0  0  0  0  0  0  0
   -2.6960    8.6180   -7.9400 C   0  0  0  0  0  0  0  0  0  0  0  0
   -0.9220    9.3070   -9.5900 C   0  0  0  0  0  0  0  0  0  0  0  0
  2  1  1  0
  2  3  2  0
  2  4  1  0
  2  5  2  0
  4  6  1  0
  6  7  1  0
  6  8  2  0
  8  9  1  0
  7 10  1  0
  9 10  2  0
 10 11  1  0
  9 12  1  0
 11 13  2  0
 12 14  2  0
 13 14  1  0
 14 15  1  0
 15 16  1  0
 16 17  1  0
 17 18  1  0
 18 19  2  3
 19 20  1  0
 19 21  1  0
 21 22  1  0
 22 23  1  0
 23 24  2  0
 23 25  1  0
 25 26  2  0
 25 27  1  0
 26 28  1  0
 27 29  2  0
 28 30  1  0
 28 31  2  0
 29 31  1  0
M  END
