diamond-x0864_0_A-mac-x0131
     RDKit          3D

 29 32  0  0  0  0  0  0  0  0999 V2000
    1.4960   11.9670   -6.7920 O   0  0  0  0  0  0  0  0  0  0  0  0
    0.3440   11.5800   -6.6310 C   0  0  0  0  0  0  0  0  0  0  0  0
   -0.6030   12.1170   -5.7450 N   0  0  0  0  0  0  0  0  0  0  0  0
   -0.0980   10.4030   -7.4280 C   0  0  0  0  0  0  0  0  0  0  0  0
   -1.8710   11.5680   -5.6610 C   0  0  0  0  0  0  0  0  0  0  0  0
   -1.3350    9.9010   -7.2770 C   0  0  0  0  0  0  0  0  0  0  0  0
   -0.2500   12.4520   -4.4460 C   0  0  0  0  0  0  0  0  0  0  0  0
   -1.9320    8.4070   -8.2130 Br  0  0  0  0  0  0  0  0  0  0  0  0
   -2.2500   10.5120   -6.3630 C   0  0  0  0  0  0  0  0  0  0  0  0
   -0.6660   13.5280   -3.6930 C   0  0  0  0  0  0  0  0  0  0  0  0
    0.6160   11.8060   -3.5600 C   0  0  0  0  0  0  0  0  0  0  0  0
   -1.5020   14.6920   -3.8260 C   0  0  0  0  0  0  0  0  0  0  0  0
   -0.1530   13.4980   -2.4720 O   0  0  0  0  0  0  0  0  0  0  0  0
    0.6230   12.4480   -2.4040 C   0  0  0  0  0  0  0  0  0  0  0  0
    1.3790   10.7910   -3.6340 O   0  0  0  0  0  0  0  0  0  0  0  0
   -2.2820   14.8510   -2.6170 N   0  0  0  0  0  0  0  0  0  0  0  0
    2.5730   11.3970   -3.7540 C   0  0  0  0  0  0  0  0  0  0  0  0
   -3.6160   14.9980   -2.7010 C   0  0  0  0  0  0  0  0  0  0  0  0
   -1.8670   14.8780   -1.2850 C   0  0  0  0  0  0  0  0  0  0  0  0
    2.9060   12.4080   -3.1490 O   0  0  0  0  0  0  0  0  0  0  0  0
   -4.2750   14.9760   -4.0250 C   0  0  0  0  0  0  0  0  0  0  0  0
   -4.1160   15.1480   -1.4250 C   0  0  0  0  0  0  0  0  0  0  0  0
   -3.0140   15.0680   -0.5140 C   0  0  0  0  0  0  0  0  0  0  0  0
   -0.6110   14.7570   -0.7900 N   0  0  0  0  0  0  0  0  0  0  0  0
   -5.5410   15.3510   -1.0720 C   0  0  0  0  0  0  0  0  0  0  0  0
   -2.8420   15.1390    0.8840 C   0  0  0  0  0  0  0  0  0  0  0  0
   -0.5760   14.8310    0.5630 C   0  0  0  0  0  0  0  0  0  0  0  0
   -3.8980   15.3490    1.7660 N   0  0  0  0  0  0  0  0  0  0  0  0
   -1.6060   15.0100    1.4190 N   0  0  0  0  0  0  0  0  0  0  0  0
  1  2  2  0
  2  3  1  0
  2  4  1  0
  3  5  1  0
  4  6  2  0
  3  7  1  0
  6  8  1  0
  5  9  2  0
  6  9  1  0
  7 10  2  0
  7 11  1  0
 10 12  1  0
 10 13  1  0
 11 14  2  0
 13 14  1  0
 11 15  1  0
 12 16  1  0
 15 17  1  0
 16 18  1  0
 16 19  1  0
 17 20  2  0
 18 21  1  0
 18 22  2  0
 19 23  2  0
 22 23  1  0
 19 24  1  0
 22 25  1  0
 23 26  1  0
 24 27  2  0
 26 28  1  0
 26 29  2  0
 27 29  1  0
M  END
