diamond-x0471_0_A-mac-x0226
     RDKit          3D

 33 36  0  0  0  0  0  0  0  0999 V2000
   -8.6660   14.2150    2.7650 N   0  0  0  0  0  0  0  0  0  0  0  0
   -9.1120   15.1770    3.6390 C   0  0  0  0  0  0  0  0  0  0  0  0
   -9.4700   16.2880    3.2540 O   0  0  0  0  0  0  0  0  0  0  0  0
   -8.6620   14.4690    1.3310 C   0  0  0  0  0  0  0  0  0  0  0  0
   -9.1940   14.8260    5.1250 C   0  0  0  0  0  0  0  0  0  0  0  0
   -7.2470   14.6100    0.8540 C   0  0  0  0  0  0  0  0  0  0  0  0
   -9.6310   13.3790    5.3630 C   0  0  0  0  0  0  0  0  0  0  0  0
   -7.9140   15.1900    5.8610 C   0  0  0  0  0  0  0  0  0  0  0  0
   -6.9190   14.9070   -0.4530 N   0  0  0  0  0  0  0  0  0  0  0  0
   -6.1530   14.4800    1.5730 N   0  0  0  0  0  0  0  0  0  0  0  0
   -5.0830   14.6850    0.7240 C   0  0  0  0  0  0  0  0  0  0  0  0
   -5.5410   14.9580   -0.5540 C   0  0  0  0  0  0  0  0  0  0  0  0
   -4.6710   15.2100   -1.6180 C   0  0  0  0  0  0  0  0  0  0  0  0
   -3.6880   14.6480    0.9810 C   0  0  0  0  0  0  0  0  0  0  0  0
   -3.2890   15.1630   -1.3480 C   0  0  0  0  0  0  0  0  0  0  0  0
   -2.7620   14.8820   -0.0640 C   0  0  0  0  0  0  0  0  0  0  0  0
   -1.2330   14.8130    0.2070 C   0  0  0  0  0  0  0  0  0  0  0  0
   -0.4130   14.0210   -0.8470 C   0  0  0  0  0  0  0  0  0  0  0  0
    0.8560   14.5360   -1.4940 C   0  0  0  0  0  0  0  0  0  0  0  0
    1.5050   13.4240   -2.1990 O   0  0  0  0  0  0  0  0  0  0  0  0
    0.8640   12.2600   -2.6040 C   0  0  0  0  0  0  0  0  0  0  0  0
    0.3990   11.4090   -1.8500 O   0  0  0  0  0  0  0  0  0  0  0  0
    0.8520   12.0960   -4.0570 C   0  0  0  0  0  0  0  0  0  0  0  0
    1.6320   12.7990   -4.9880 C   0  0  0  0  0  0  0  0  0  0  0  0
    0.1040   11.2260   -4.8590 C   0  0  0  0  0  0  0  0  0  0  0  0
    1.4200   12.4190   -6.2490 N   0  0  0  0  0  0  0  0  0  0  0  0
    0.4770   11.4410   -6.1780 N   0  0  0  0  0  0  0  0  0  0  0  0
    0.0330   10.7990   -7.3850 C   0  0  0  0  0  0  0  0  0  0  0  0
   -1.1230   10.0180   -7.4240 C   0  0  0  0  0  0  0  0  0  0  0  0
    0.7670   10.9450   -8.5570 C   0  0  0  0  0  0  0  0  0  0  0  0
   -1.5160    9.4080   -8.6280 C   0  0  0  0  0  0  0  0  0  0  0  0
    0.3840   10.3450   -9.7490 C   0  0  0  0  0  0  0  0  0  0  0  0
   -0.7600    9.5740   -9.7890 C   0  0  0  0  0  0  0  0  0  0  0  0
  1  2  1  0
  2  3  2  0
  1  4  1  0
  2  5  1  0
  4  6  1  0
  5  7  1  0
  5  8  1  0
  6  9  1  0
  6 10  2  0
 10 11  1  0
  9 12  1  0
 11 12  2  0
 12 13  1  0
 11 14  1  0
 13 15  2  0
 14 16  2  0
 15 16  1  0
 16 17  1  0
 17 18  1  0
 18 19  1  0
 19 20  1  0
 20 21  1  0
 21 22  2  0
 21 23  1  0
 23 24  1  0
 23 25  2  0
 24 26  2  0
 25 27  1  0
 26 27  1  0
 27 28  1  0
 28 29  2  0
 28 30  1  0
 29 31  1  0
 30 32  2  0
 31 33  2  0
 32 33  1  0
M  END
