diamond-x0722_0_A-diamond-x0471_0_A
     RDKit          3D

 27 29  0  0  0  0  0  0  0  0999 V2000
   -4.4880   15.1660    2.7220 C   0  0  0  0  0  0  0  0  0  0  0  0
   -3.4270   14.8490    1.7400 C   0  0  0  0  0  0  0  0  0  0  0  0
   -2.2380   14.5730    2.1390 N   0  0  0  0  0  0  0  0  0  0  0  0
   -3.4280   14.7780    0.3680 C   0  0  0  0  0  0  0  0  0  0  0  0
   -2.1550   14.4420   -0.0510 C   0  0  0  0  0  0  0  0  0  0  0  0
   -1.4830   14.3420    1.0920 N   0  0  0  0  0  0  0  0  0  0  0  0
   -4.4170   14.9850   -0.5280 C   0  0  0  0  0  0  0  0  0  0  0  0
   -0.1080   14.0300    1.2830 C   0  0  0  0  0  0  0  0  0  0  0  0
   -1.5270   14.2160   -1.3820 C   0  0  0  0  0  0  0  0  0  0  0  0
   -5.7940   14.9130   -0.2960 C   0  0  0  0  0  0  0  0  0  0  0  0
   -3.8890   15.2780   -1.7280 C   0  0  0  0  0  0  0  0  0  0  0  0
   -6.6720   14.6330    0.7130 N   0  0  0  0  0  0  0  0  0  0  0  0
   -6.6300   15.1580   -1.2820 C   0  0  0  0  0  0  0  0  0  0  0  0
   -4.7060   15.4980   -2.7170 C   0  0  0  0  0  0  0  0  0  0  0  0
   -7.9430   14.7450    0.3200 C   0  0  0  0  0  0  0  0  0  0  0  0
   -7.9550   15.0760   -0.9240 N   0  0  0  0  0  0  0  0  0  0  0  0
   -6.0780   15.4440   -2.4960 C   0  0  0  0  0  0  0  0  0  0  0  0
   -6.4310   14.2700    1.8970 N   0  0  0  0  0  0  0  0  0  0  0  0
   -9.1020   14.4890    1.2480 C   0  0  0  0  0  0  0  0  0  0  0  0
   -6.0200   13.1010    1.6400 C   0  0  0  0  0  0  0  0  0  0  0  0
   -8.6640   14.3570    2.6400 N   0  0  0  0  0  0  0  0  0  0  0  0
   -5.9280   12.6180    0.3700 N   0  0  0  0  0  0  0  0  0  0  0  0
   -9.0690   15.2630    3.6020 C   0  0  0  0  0  0  0  0  0  0  0  0
   -9.2990   16.4310    3.3190 O   0  0  0  0  0  0  0  0  0  0  0  0
   -9.2400   14.7920    5.0510 C   0  0  0  0  0  0  0  0  0  0  0  0
   -9.5570   13.3040    5.1740 C   0  0  0  0  0  0  0  0  0  0  0  0
   -8.0680   15.2160    5.9280 C   0  0  0  0  0  0  0  0  0  0  0  0
  1  2  1  0
  2  3  2  0
  2  4  1  0
  4  5  2  0
  3  6  1  0
  5  6  1  0
  4  7  1  0
  6  8  1  0
  5  9  1  0
  7 10  1  0
  7 11  2  0
 10 12  1  0
 10 13  2  0
 11 14  1  0
 12 15  1  0
 13 16  1  0
 15 16  2  0
 13 17  1  0
 14 17  2  0
 12 18  1  0
 15 19  1  0
 18 20  2  3
 19 21  1  0
 20 22  1  0
 21 23  1  0
 23 24  2  0
 23 25  1  0
 25 26  1  0
 25 27  1  0
M  END
