diamond-x0962_0_A-mac-x0588
     RDKit          3D

 22 25  0  0  0  0  0  0  0  0999 V2000
   -4.6180   12.8230   -1.9010 C   0  0  0  0  0  0  0  0  0  0  0  0
   -5.1260   13.5260   -0.7220 C   0  0  0  0  0  0  0  0  0  0  0  0
   -4.3250   14.2900   -0.0390 N   0  0  0  0  0  0  0  0  0  0  0  0
   -6.3330   13.6300   -0.0530 C   0  0  0  0  0  0  0  0  0  0  0  0
   -4.9920   14.8320    0.9690 C   0  0  0  0  0  0  0  0  0  0  0  0
   -6.2340   14.4680    1.0340 N   0  0  0  0  0  0  0  0  0  0  0  0
   -4.2230   15.5990    1.6070 N   0  0  0  0  0  0  0  0  0  0  0  0
   -3.3080   15.8750    0.5050 C   0  0  2  0  0  0  0  0  0  0  0  0
   -3.9600   15.9320   -0.8380 N   0  0  0  0  0  0  0  0  0  0  0  0
   -2.1120   14.9140    0.4470 C   0  0  1  0  0  0  0  0  0  0  0  0
   -3.2920   15.3900   -2.0340 C   0  0  0  0  0  0  0  0  0  0  0  0
   -1.2310   15.4000   -0.6910 C   0  0  2  0  0  0  0  0  0  0  0  0
   -1.2040   14.9100    1.5810 N   0  0  0  0  0  0  0  0  0  0  0  0
   -1.8620   15.1620   -1.9530 N   0  0  0  0  0  0  0  0  0  0  0  0
   -0.0830   14.5680   -0.4790 N   0  0  0  0  0  0  0  0  0  0  0  0
    0.0610   14.5790    0.9610 C   0  0  0  0  0  0  0  0  0  0  0  0
   -1.0780   15.2590   -3.1820 C   0  0  0  0  0  0  0  0  0  0  0  0
   -0.5080   16.5920   -3.7130 C   0  0  2  0  0  0  0  0  0  0  0  0
   -1.5160   17.4590   -4.3110 O   0  0  0  0  0  0  0  0  0  0  0  0
    0.6290   16.4780   -4.7150 C   0  0  0  0  0  0  0  0  0  0  0  0
    0.5800   17.8130   -5.4000 C   0  0  0  0  0  0  0  0  0  0  0  0
   -0.9110   18.1130   -5.4400 C   0  0  0  0  0  0  0  0  0  0  0  0
  1  2  1  0
  2  3  1  0
  2  4  2  0
  3  5  1  0
  4  6  1  0
  5  6  2  0
  5  7  1  0
  8  7  1  1
  8  9  1  0
  8 10  1  0
  9 11  1  0
 10 12  1  0
 10 13  1  1
 11 14  1  0
 12 14  1  0
 12 15  1  6
 13 16  1  0
 15 16  1  0
 14 17  1  0
 18 17  1  6
 18 19  1  0
 18 20  1  0
 20 21  1  0
 19 22  1  0
 21 22  1  0
M  END
