diamond-x0574_0_A-mac-x0375
     RDKit          3D

 25 27  0  0  0  0  0  0  0  0999 V2000
    0.0510   14.8070    1.4510 N   0  0  0  0  0  0  0  0  0  0  0  0
   -0.2750   14.0960    0.2790 C   0  0  1  0  0  0  0  0  0  0  0  0
   -1.4500   13.3220    0.3720 N   0  0  0  0  0  0  0  0  0  0  0  0
   -0.7020   15.0460   -1.1650 S   0  0  0  0  0  0  0  0  0  0  0  0
   -1.4800   12.7300   -1.0510 C   0  0  0  0  0  0  0  0  0  0  0  0
   -2.4760   14.3890    0.5140 C   0  0  1  0  0  0  0  0  0  0  0  0
   -2.4890   14.6350   -0.9530 C   0  0  1  0  0  0  0  0  0  0  0  0
   -0.7470   13.4580   -2.2210 C   0  0  0  0  0  0  0  0  0  0  0  0
   -3.8820   14.1660    1.1830 C   0  0  0  0  0  0  0  0  0  0  0  0
   -3.5820   15.5190   -1.4160 C   0  0  0  0  0  0  0  0  0  0  0  0
    0.5760   12.9150   -2.4330 O   0  0  0  0  0  0  0  0  0  0  0  0
   -5.1000   14.4720    0.2640 C   0  0  2  0  0  0  0  0  0  0  0  0
   -4.7890   15.4400   -0.8470 C   0  0  0  0  0  0  0  0  0  0  0  0
   -6.2390   15.0050    0.9560 O   0  0  0  0  0  0  0  0  0  0  0  0
    0.6420   11.9630   -3.4040 C   0  0  0  0  0  0  0  0  0  0  0  0
   -6.5150   14.4850    2.2390 C   0  0  0  0  0  0  0  0  0  0  0  0
    0.5110   10.7660   -3.1840 O   0  0  0  0  0  0  0  0  0  0  0  0
    0.8820   12.5760   -4.7830 C   0  0  0  0  0  0  0  0  0  0  0  0
    0.7390   11.5980   -5.8110 O   0  0  0  0  0  0  0  0  0  0  0  0
   -0.4320   10.8960   -5.8940 C   0  0  0  0  0  0  0  0  0  0  0  0
   -0.3840    9.7800   -6.7380 C   0  0  0  0  0  0  0  0  0  0  0  0
   -1.6230   11.1930   -5.2280 C   0  0  0  0  0  0  0  0  0  0  0  0
   -1.5030    8.9690   -6.9150 C   0  0  0  0  0  0  0  0  0  0  0  0
   -2.7470   10.3790   -5.4070 C   0  0  0  0  0  0  0  0  0  0  0  0
   -2.6890    9.2680   -6.2480 C   0  0  0  0  0  0  0  0  0  0  0  0
  2  1  1  1
  2  3  1  0
  2  4  1  0
  3  5  1  0
  3  6  1  0
  4  7  1  0
  6  7  1  0
  5  8  1  0
  6  9  1  6
  7 10  1  1
  8 11  1  0
  9 12  1  0
 10 13  2  0
 12 13  1  0
 12 14  1  1
 11 15  1  0
 14 16  1  0
 15 17  2  0
 15 18  1  0
 18 19  1  0
 19 20  1  0
 20 21  2  0
 20 22  1  0
 21 23  1  0
 22 24  2  0
 23 25  2  0
 24 25  1  0
M  END
