diamond-x0253_0_A-diamond-x0950_0_A
     RDKit          3D

 15 15  0  0  0  0  0  0  0  0999 V2000
    0.4140   12.0340   -5.4150 N   0  0  0  0  0  0  0  0  0  0  0  0
    1.0490   11.7570   -6.5960 C   0  0  0  0  0  0  0  0  0  0  0  0
    2.1890   12.1330   -6.7220 O   0  0  0  0  0  0  0  0  0  0  0  0
    1.1950   12.7090   -4.3650 C   0  0  1  0  0  0  0  0  0  0  0  0
    0.7590   12.2160   -2.9910 C   0  0  0  0  0  0  0  0  0  0  0  0
    2.7040   12.4760   -4.5020 C   0  0  0  0  0  0  0  0  0  0  0  0
    0.3670   10.9410   -7.6700 C   0  0  0  0  0  0  0  0  0  0  0  0
    1.0940   12.7150   -1.9300 O   0  0  0  0  0  0  0  0  0  0  0  0
   -0.0520   11.1430   -3.0150 O   0  0  0  0  0  0  0  0  0  0  0  0
   -0.8050   10.2510   -7.3380 C   0  0  0  0  0  0  0  0  0  0  0  0
    0.8570   10.8210   -8.9790 C   0  0  0  0  0  0  0  0  0  0  0  0
   -1.4570    9.4370   -8.2710 C   0  0  0  0  0  0  0  0  0  0  0  0
    0.2040   10.0240   -9.9170 C   0  0  0  0  0  0  0  0  0  0  0  0
   -2.6920    8.6840   -7.8780 C   0  0  0  0  0  0  0  0  0  0  0  0
   -0.9450    9.3290   -9.5650 C   0  0  0  0  0  0  0  0  0  0  0  0
  1  2  1  0
  2  3  2  0
  1  4  1  0
  4  5  1  0
  4  6  1  6
  2  7  1  0
  5  8  2  0
  5  9  1  0
  7 10  2  0
  7 11  1  0
 10 12  1  0
 11 13  2  0
 12 14  1  0
 12 15  2  0
 13 15  1  0
M  END
