diamond-x0574_0_A-mac-x0228
     RDKit          3D

 23 26  0  0  0  0  0  0  0  0999 V2000
    0.2290   14.0320    2.2160 N   0  0  0  0  0  0  0  0  0  0  0  0
   -0.8060   14.4620    1.5630 C   0  0  0  0  0  0  0  0  0  0  0  0
   -1.9400   14.1410    1.9930 N   0  0  0  0  0  0  0  0  0  0  0  0
   -0.7500   15.4400    0.1640 S   0  0  0  0  0  0  0  0  0  0  0  0
   -2.8980   14.6360    1.2210 C   0  0  0  0  0  0  0  0  0  0  0  0
   -2.4720   15.3920    0.1560 C   0  0  0  0  0  0  0  0  0  0  0  0
   -4.2340   14.4140    1.4370 C   0  0  0  0  0  0  0  0  0  0  0  0
   -3.3840   15.9600   -0.7070 C   0  0  0  0  0  0  0  0  0  0  0  0
   -5.1750   14.9440    0.5840 C   0  0  0  0  0  0  0  0  0  0  0  0
   -4.7480   15.7370   -0.4790 C   0  0  0  0  0  0  0  0  0  0  0  0
   -6.6070   14.5540    0.8350 C   0  0  1  0  0  0  0  0  0  0  0  0
   -7.3640   14.7980   -0.3900 O   0  0  0  0  0  0  0  0  0  0  0  0
   -6.1290   13.1430    0.5920 C   0  0  0  0  0  0  0  0  0  0  0  0
   -7.2860   14.7800    2.2050 C   0  0  0  0  0  0  0  0  0  0  0  0
   -5.3600   13.7150   -0.5760 C   0  0  0  0  0  0  0  0  0  0  0  0
   -6.2040   14.6820   -1.1230 C   0  0  0  0  0  0  0  0  0  0  0  0
   -4.0850   13.4720   -1.1240 C   0  0  0  0  0  0  0  0  0  0  0  0
   -5.8540   15.4070   -2.2320 C   0  0  0  0  0  0  0  0  0  0  0  0
   -3.6890   14.2400   -2.2610 C   0  0  0  0  0  0  0  0  0  0  0  0
   -4.5860   15.1800   -2.8000 C   0  0  0  0  0  0  0  0  0  0  0  0
   -2.3640   14.1390   -2.9450 C   0  0  0  0  0  0  0  0  0  0  0  0
   -1.3210   14.1600   -2.0920 O   0  0  0  0  0  0  0  0  0  0  0  0
   -2.1750   14.0720   -4.1470 O   0  0  0  0  0  0  0  0  0  0  0  0
  1  2  1  0
  2  3  2  0
  2  4  1  0
  3  5  1  0
  4  6  1  0
  5  6  2  0
  5  7  1  0
  6  8  1  0
  7  9  2  0
  8 10  2  0
  9 10  1  0
  9 11  1  0
 11 12  1  0
 11 13  1  0
 11 14  1  1
 13 15  1  0
 12 16  1  0
 15 16  2  0
 15 17  1  0
 16 18  1  0
 17 19  2  0
 18 20  2  0
 19 20  1  0
 19 21  1  0
 21 22  1  0
 21 23  2  0
M  END
