diamond-x0950_1_A-diamond-x0727_0_A
     RDKit          3D

 13 13  0  0  0  0  0  0  0  0999 V2000
    1.1860   14.0660   -4.7200 C   0  0  0  0  0  0  0  0  0  0  0  0
    1.2400   12.5500   -4.6150 C   0  0  2  0  0  0  0  0  0  0  0  0
    0.2050   11.9710   -5.4380 O   0  0  0  0  0  0  0  0  0  0  0  0
    0.9560   12.1120   -3.1710 C   0  0  0  0  0  0  0  0  0  0  0  0
    0.2870   11.1350   -2.8600 O   0  0  0  0  0  0  0  0  0  0  0  0
    1.5180   12.9120   -2.2360 O   0  0  0  0  0  0  0  0  0  0  0  0
    0.5510   11.2930   -6.5750 C   0  0  0  0  0  0  0  0  0  0  0  0
    1.5660   11.4600   -7.2170 O   0  0  0  0  0  0  0  0  0  0  0  0
   -0.5400   10.3020   -6.9160 C   0  0  0  0  0  0  0  0  0  0  0  0
   -1.0100   10.2460   -8.3530 C   0  0  0  0  0  0  0  0  0  0  0  0
   -0.2270    8.8410   -6.6310 C   0  0  0  0  0  0  0  0  0  0  0  0
   -1.9700    9.0540   -8.3090 C   0  0  0  0  0  0  0  0  0  0  0  0
   -1.4750    8.1620   -7.1560 C   0  0  0  0  0  0  0  0  0  0  0  0
  2  1  1  1
  2  3  1  0
  2  4  1  0
  4  5  2  0
  4  6  1  0
  3  7  1  0
  7  8  2  0
  7  9  1  0
  9 10  1  0
  9 11  1  0
 10 12  1  0
 11 13  1  0
 12 13  1  0
M  END
