diamond-x0516_0_A-diamond-x0792_0_A
     RDKit          3D

 22 25  0  0  0  0  0  0  0  0999 V2000
    3.5740   25.2960   17.0720 N   0  0  0  0  0  0  0  0  0  0  0  0
    4.8600   25.6210   17.5940 C   0  0  1  0  0  0  0  0  0  0  0  0
    5.1320   25.2940   19.0640 C   0  0  0  0  0  0  0  0  0  0  0  0
    3.2190   26.0590   15.8910 C   0  0  0  0  0  0  0  0  0  0  0  0
    1.7310   26.0860   15.9020 C   0  0  0  0  0  0  0  0  0  0  0  0
    5.8490   24.8400   16.8690 N   0  0  0  0  0  0  0  0  0  0  0  0
    6.1870   24.3210   19.0790 O   0  0  0  0  0  0  0  0  0  0  0  0
    1.0040   25.5000   14.8680 C   0  0  0  0  0  0  0  0  0  0  0  0
    1.0620   26.7010   16.9810 C   0  0  0  0  0  0  0  0  0  0  0  0
    6.4970   25.6540   15.8740 C   0  0  0  0  0  0  0  0  0  0  0  0
    6.8340   24.6850   17.9110 C   0  0  1  0  0  0  0  0  0  0  0  0
   -0.3620   25.5430   14.9490 C   0  0  0  0  0  0  0  0  0  0  0  0
   -0.3300   26.7310   17.0370 C   0  0  0  0  0  0  0  0  0  0  0  0
    7.7810   26.3020   16.4250 C   0  0  0  0  0  0  0  0  0  0  0  0
    8.1410   24.0770   17.4460 C   0  0  2  0  0  0  0  0  0  0  0  0
   -1.0090   26.1390   16.0020 C   0  0  0  0  0  0  0  0  0  0  0  0
   -1.2230   25.0240   14.0510 O   0  0  0  0  0  0  0  0  0  0  0  0
    9.0830   23.2100   18.3300 C   0  0  0  0  0  0  0  0  0  0  0  0
    8.7990   25.3410   17.0550 C   0  0  0  0  0  0  0  0  0  0  0  0
   -2.3610   26.0620   15.8820 O   0  0  0  0  0  0  0  0  0  0  0  0
   -2.4520   25.5990   14.5210 C   0  0  0  0  0  0  0  0  0  0  0  0
    9.6060   22.0210   17.7360 O   0  0  0  0  0  0  0  0  0  0  0  0
  2  1  1  6
  2  3  1  0
  1  4  1  0
  4  5  1  0
  2  6  1  0
  3  7  1  0
  5  8  2  0
  5  9  1  0
  6 10  1  0
  6 11  1  0
 11  7  1  1
  8 12  1  0
  9 13  2  0
 10 14  1  0
 11 15  1  0
 12 16  2  0
 13 16  1  0
 12 17  1  0
 15 18  1  1
 14 19  1  0
 15 19  1  0
 16 20  1  0
 17 21  1  0
 20 21  1  0
 18 22  1  0
M  END
