diamond-x0969_0_A-diamond-x0591_0_A
     RDKit          3D

 23 25  0  0  0  0  0  0  0  0999 V2000
   -6.5070   14.3830    1.5470 N   0  0  0  0  0  0  0  0  0  0  0  0
   -6.4630   13.0740    1.0670 N   0  0  0  0  0  0  0  0  0  0  0  0
   -6.6620   13.0170   -0.3440 C   0  0  0  0  0  0  0  0  0  0  0  0
   -6.0910   14.9660    0.4570 C   0  0  0  0  0  0  0  0  0  0  0  0
   -6.8460   15.4070   -0.5230 N   0  0  0  0  0  0  0  0  0  0  0  0
   -4.7710   15.1400    0.1960 N   0  0  0  0  0  0  0  0  0  0  0  0
   -7.7660   12.7130   -0.7700 O   0  0  0  0  0  0  0  0  0  0  0  0
   -6.0040   15.8710   -1.4880 N   0  0  0  0  0  0  0  0  0  0  0  0
   -4.7680   15.6890   -1.0610 C   0  0  0  0  0  0  0  0  0  0  0  0
   -3.6200   14.8500    0.9250 C   0  0  0  0  0  0  0  0  0  0  0  0
   -5.6000   13.3640   -1.3770 C   0  0  0  0  0  0  0  0  0  0  0  0
   -3.4990   15.9280   -1.6360 C   0  0  0  0  0  0  0  0  0  0  0  0
   -2.4270   15.1020    0.3880 C   0  0  0  0  0  0  0  0  0  0  0  0
   -4.2360   13.0570   -1.1950 C   0  0  0  0  0  0  0  0  0  0  0  0
   -6.0090   14.0140   -2.5700 C   0  0  0  0  0  0  0  0  0  0  0  0
   -2.3770   15.6550   -0.9510 C   0  0  0  0  0  0  0  0  0  0  0  0
   -3.2970   13.3900   -2.2010 C   0  0  0  0  0  0  0  0  0  0  0  0
   -5.0750   14.3440   -3.5650 C   0  0  0  0  0  0  0  0  0  0  0  0
   -3.7240   14.0320   -3.3870 C   0  0  0  0  0  0  0  0  0  0  0  0
   -2.5580   14.4460   -4.6850 S   0  0  0  0  0  0  0  0  0  0  0  0
   -1.5490   15.5920   -3.9740 N   0  0  0  0  0  0  0  0  0  0  0  0
   -1.7670   13.2710   -4.9600 O   0  0  0  0  0  0  0  0  0  0  0  0
   -3.2590   15.1500   -5.7410 O   0  0  0  0  0  0  0  0  0  0  0  0
  1  2  1  0
  2  3  1  0
  1  4  1  0
  4  5  2  0
  4  6  1  0
  3  7  2  0
  5  8  1  0
  6  9  1  0
  8  9  2  0
  6 10  1  0
  3 11  1  0
  9 12  1  0
 10 13  2  0
 11 14  2  0
 11 15  1  0
 12 16  2  0
 13 16  1  0
 14 17  1  0
 15 18  2  0
 17 19  2  0
 18 19  1  0
 19 20  1  0
 20 21  1  0
 20 22  2  0
 20 23  2  0
M  END
