diamond-x1012_0_A-diamond-x0685_0_A
     RDKit          3D

 24 25  0  0  0  0  0  0  0  0999 V2000
   -0.3670   18.1660   -4.7850 N   0  0  0  0  0  0  0  0  0  0  0  0
   -1.1910   17.0860   -4.8080 C   0  0  0  0  0  0  0  0  0  0  0  0
   -2.4630   17.0810   -4.8260 N   0  0  0  0  0  0  0  0  0  0  0  0
   -0.5010   15.8970   -4.8030 N   0  0  0  0  0  0  0  0  0  0  0  0
   -3.1420   15.7910   -4.8750 C   0  0  0  0  0  0  0  0  0  0  0  0
   -1.1760   14.6360   -5.0960 C   0  0  0  0  0  0  0  0  0  0  0  0
    0.9140   15.7730   -4.4910 C   0  0  0  0  0  0  0  0  0  0  0  0
   -3.3650   15.3730   -3.4890 C   0  0  0  0  0  0  0  0  0  0  0  0
   -1.0300   13.6660   -3.9370 C   0  0  0  0  0  0  0  0  0  0  0  0
    1.1400   14.7640   -3.3550 C   0  0  0  0  0  0  0  0  0  0  0  0
   -3.6900   15.1650   -2.3610 C   0  0  0  0  0  0  0  0  0  0  0  0
    0.4370   13.4100   -3.6070 C   0  0  0  0  0  0  0  0  0  0  0  0
    0.5620   12.4500   -2.4280 C   0  0  0  0  0  0  0  0  0  0  0  0
   -4.2680   15.1060   -1.0710 C   0  0  0  0  0  0  0  0  0  0  0  0
    0.5760   11.1530   -2.8090 O   0  0  0  0  0  0  0  0  0  0  0  0
    0.6290   12.7720   -1.2500 O   0  0  0  0  0  0  0  0  0  0  0  0
   -3.5290   15.1820    0.1030 C   0  0  0  0  0  0  0  0  0  0  0  0
   -5.6340   14.9790   -0.9790 C   0  0  0  0  0  0  0  0  0  0  0  0
   -4.2150   15.1440    1.3150 C   0  0  0  0  0  0  0  0  0  0  0  0
   -6.3140   14.9350    0.1750 N   0  0  0  0  0  0  0  0  0  0  0  0
   -5.6120   15.0280    1.3110 C   0  0  0  0  0  0  0  0  0  0  0  0
   -6.2850   15.0280    2.5370 N   0  0  0  0  0  0  0  0  0  0  0  0
   -7.7110   14.7450    2.5580 C   0  0  0  0  0  0  0  0  0  0  0  0
   -7.9760   13.3480    3.0880 C   0  0  0  0  0  0  0  0  0  0  0  0
  1  2  1  0
  2  3  2  3
  2  4  1  0
  3  5  1  0
  4  6  1  0
  4  7  1  0
  5  8  1  0
  6  9  1  0
  7 10  1  0
  8 11  3  0
  9 12  1  0
 10 12  1  0
 12 13  1  0
 11 14  1  0
 13 15  1  0
 13 16  2  0
 14 17  2  0
 14 18  1  0
 17 19  1  0
 18 20  2  0
 19 21  2  0
 20 21  1  0
 21 22  1  0
 22 23  1  0
 23 24  1  0
M  END
