diamond-x0962_1_A-mac-x0510
     RDKit          3D

 16 18  0  0  0  0  0  0  0  0999 V2000
   -4.5140   13.0350    0.4900 C   0  0  0  0  0  0  0  0  0  0  0  0
   -5.8360   13.5420    0.9070 C   0  0  0  0  0  0  0  0  0  0  0  0
   -6.3820   14.6160    0.3500 N   0  0  0  0  0  0  0  0  0  0  0  0
   -6.7620   13.1430    1.8220 C   0  0  0  0  0  0  0  0  0  0  0  0
   -7.5970   14.8340    0.9250 C   0  0  0  0  0  0  0  0  0  0  0  0
   -7.8620   13.9540    1.8280 N   0  0  0  0  0  0  0  0  0  0  0  0
   -5.7550   15.2400   -0.5910 N   0  0  0  0  0  0  0  0  0  0  0  0
   -4.5160   15.4520   -0.3390 C   0  0  0  0  0  0  0  0  0  0  0  0
   -3.8780   15.1410    0.8610 N   0  0  0  0  0  0  0  0  0  0  0  0
   -3.9370   15.9170   -1.4730 N   0  0  0  0  0  0  0  0  0  0  0  0
   -2.6000   15.0920    0.7810 C   0  0  0  0  0  0  0  0  0  0  0  0
   -2.6710   15.8730   -1.5820 C   0  0  0  0  0  0  0  0  0  0  0  0
   -1.9080   15.3800   -0.4600 C   0  0  0  0  0  0  0  0  0  0  0  0
   -1.6680   14.7680    1.7190 N   0  0  0  0  0  0  0  0  0  0  0  0
   -0.6550   15.1340   -0.3250 N   0  0  0  0  0  0  0  0  0  0  0  0
   -0.5670   14.7780    1.0220 C   0  0  0  0  0  0  0  0  0  0  0  0
  1  2  1  0
  2  3  1  0
  2  4  2  0
  3  5  1  0
  4  6  1  0
  5  6  2  0
  3  7  1  0
  7  8  2  3
  8  9  1  0
  8 10  1  0
  9 11  2  0
 10 12  2  0
 11 13  1  0
 12 13  1  0
 11 14  1  0
 13 15  2  0
 14 16  2  0
 15 16  1  0
M  END
