diamond-x0471_0_A-mac-x0131
     RDKit          3D

 33 37  0  0  0  0  0  0  0  0999 V2000
   -9.7040   13.7020    1.9750 N   0  0  0  0  0  0  0  0  0  0  0  0
   -9.5070   14.8070    2.8300 C   0  0  0  0  0  0  0  0  0  0  0  0
   -9.4250   15.9600    2.4200 O   0  0  0  0  0  0  0  0  0  0  0  0
   -9.4240   13.6990    0.5190 C   0  0  0  0  0  0  0  0  0  0  0  0
   -9.4120   14.5130    4.3430 C   0  0  0  0  0  0  0  0  0  0  0  0
   -8.0090   14.0870    0.4400 C   0  0  0  0  0  0  0  0  0  0  0  0
   -9.3920   13.0210    4.6550 C   0  0  0  0  0  0  0  0  0  0  0  0
   -8.2080   15.2170    4.9880 C   0  0  0  0  0  0  0  0  0  0  0  0
   -7.0630   14.0390   -0.6120 N   0  0  0  0  0  0  0  0  0  0  0  0
   -7.5110   14.5540    1.4970 N   0  0  0  0  0  0  0  0  0  0  0  0
   -6.2650   14.8350    1.2170 C   0  0  0  0  0  0  0  0  0  0  0  0
   -5.8700   14.5510   -0.0830 C   0  0  0  0  0  0  0  0  0  0  0  0
   -4.5010   14.8520   -0.3800 C   0  0  0  0  0  0  0  0  0  0  0  0
   -5.4460   15.3630    2.1390 C   0  0  0  0  0  0  0  0  0  0  0  0
   -3.7360   15.4010    0.6120 C   0  0  0  0  0  0  0  0  0  0  0  0
   -4.2000   15.6450    1.8350 C   0  0  0  0  0  0  0  0  0  0  0  0
   -3.5410   14.7730   -1.4010 C   0  0  0  0  0  0  0  0  0  0  0  0
   -3.4410   14.7280   -2.7850 C   0  0  0  0  0  0  0  0  0  0  0  0
   -2.2490   14.7320   -0.8270 C   0  0  0  0  0  0  0  0  0  0  0  0
   -4.4480   14.7350   -3.8750 C   0  0  0  0  0  0  0  0  0  0  0  0
   -1.3560   14.6750   -1.8350 C   0  0  0  0  0  0  0  0  0  0  0  0
   -2.0530   14.6640   -3.0150 N   0  0  0  0  0  0  0  0  0  0  0  0
   -1.7340   14.7400    0.5020 C   0  0  0  0  0  0  0  0  0  0  0  0
   -2.4800   14.7800    1.6710 N   0  0  0  0  0  0  0  0  0  0  0  0
   -1.3330   14.5770   -4.2640 C   0  0  0  0  0  0  0  0  0  0  0  0
   -0.4160   14.7100    0.6860 N   0  0  0  0  0  0  0  0  0  0  0  0
   -0.0240   14.6350   -1.6980 N   0  0  0  0  0  0  0  0  0  0  0  0
    0.3520   14.6620   -0.4110 C   0  0  0  0  0  0  0  0  0  0  0  0
   -0.9290   13.1580   -4.2570 C   0  0  0  0  0  0  0  0  0  0  0  0
    0.2610   12.4590   -4.1980 C   0  0  0  0  0  0  0  0  0  0  0  0
   -1.9790   12.2940   -4.3040 O   0  0  0  0  0  0  0  0  0  0  0  0
   -1.4750   11.0470   -4.2690 C   0  0  0  0  0  0  0  0  0  0  0  0
   -0.1130   11.0890   -4.2020 C   0  0  0  0  0  0  0  0  0  0  0  0
  1  2  1  0
  2  3  2  0
  1  4  1  0
  2  5  1  0
  4  6  1  0
  5  7  1  0
  5  8  1  0
  6  9  1  0
  6 10  2  0
 10 11  1  0
  9 12  1  0
 11 12  2  0
 12 13  1  0
 11 14  1  0
 13 15  2  0
 14 16  2  0
 15 16  1  0
 13 17  1  0
 17 18  2  0
 17 19  1  0
 18 20  1  0
 19 21  2  0
 18 22  1  0
 21 22  1  0
 19 23  1  0
 23 24  1  0
 22 25  1  0
 23 26  2  0
 21 27  1  0
 26 28  1  0
 27 28  2  0
 25 29  1  0
 29 30  2  0
 29 31  1  0
 31 32  1  0
 30 33  1  0
 32 33  2  0
M  END
