diamond-x0967_0_A-mac-x0179
     RDKit          3D

 28 31  0  0  0  0  0  0  0  0999 V2000
    1.6300   13.0090   -2.2590 O   0  0  0  0  0  0  0  0  0  0  0  0
    1.0140   12.2370   -3.1780 C   0  0  0  0  0  0  0  0  0  0  0  0
    0.7130   11.0900   -2.8940 O   0  0  0  0  0  0  0  0  0  0  0  0
    0.7520   12.8990   -4.5200 C   0  0  0  0  0  0  0  0  0  0  0  0
    0.0280   12.0300   -5.4320 N   0  0  0  0  0  0  0  0  0  0  0  0
    0.7190   11.5000   -6.4870 C   0  0  0  0  0  0  0  0  0  0  0  0
   -1.1530   11.3630   -5.2350 C   0  0  0  0  0  0  0  0  0  0  0  0
    1.7980   11.8230   -6.9070 O   0  0  0  0  0  0  0  0  0  0  0  0
   -2.1040   11.5030   -4.3890 N   0  0  0  0  0  0  0  0  0  0  0  0
   -0.0760   10.4080   -7.0360 C   0  0  0  0  0  0  0  0  0  0  0  0
   -1.2180   10.3150   -6.2700 C   0  0  0  0  0  0  0  0  0  0  0  0
   -2.1570   12.5080   -3.3360 C   0  0  0  0  0  0  0  0  0  0  0  0
    0.1710    9.5660   -8.1050 C   0  0  0  0  0  0  0  0  0  0  0  0
   -2.1850    9.3610   -6.5290 C   0  0  0  0  0  0  0  0  0  0  0  0
   -3.0820   13.6580   -3.7630 C   0  0  0  0  0  0  0  0  0  0  0  0
   -0.7950    8.5950   -8.3870 C   0  0  0  0  0  0  0  0  0  0  0  0
   -1.9620    8.4930   -7.6050 C   0  0  0  0  0  0  0  0  0  0  0  0
   -2.9410   14.9450   -2.9340 C   0  0  0  0  0  0  0  0  0  0  0  0
   -3.6960   14.9030   -1.6280 C   0  0  0  0  0  0  0  0  0  0  0  0
   -5.0400   14.7810   -1.7140 N   0  0  0  0  0  0  0  0  0  0  0  0
   -3.0250   14.9840   -0.4130 C   0  0  0  0  0  0  0  0  0  0  0  0
   -5.7680   14.7290   -0.6010 C   0  0  0  0  0  0  0  0  0  0  0  0
   -3.7700   14.9360    0.7540 C   0  0  0  0  0  0  0  0  0  0  0  0
   -7.0920   14.6000   -0.7180 N   0  0  0  0  0  0  0  0  0  0  0  0
   -5.1590   14.8050    0.6650 C   0  0  0  0  0  0  0  0  0  0  0  0
   -5.9630   14.7450    1.8080 C   0  0  0  0  0  0  0  0  0  0  0  0
   -7.8480   14.5400    0.3990 C   0  0  0  0  0  0  0  0  0  0  0  0
   -7.3360   14.6070    1.6770 C   0  0  0  0  0  0  0  0  0  0  0  0
  1  2  1  0
  2  3  2  0
  2  4  1  0
  4  5  1  0
  5  6  1  0
  5  7  1  0
  6  8  2  0
  7  9  2  3
  6 10  1  0
  7 11  1  0
 10 11  2  0
  9 12  1  0
 10 13  1  0
 11 14  1  0
 12 15  1  0
 13 16  2  0
 14 17  2  0
 16 17  1  0
 15 18  1  0
 18 19  1  0
 19 20  2  0
 19 21  1  0
 20 22  1  0
 21 23  2  0
 22 24  2  0
 22 25  1  0
 23 25  1  0
 25 26  2  0
 24 27  1  0
 26 28  1  0
 27 28  2  0
M  END
