diamond-x0128_0_A-diamond-x0933_0_A
     RDKit          3D

 16 17  0  0  0  0  0  0  0  0999 V2000
   -6.6180   14.7680    2.5060 N   0  0  0  0  0  0  0  0  0  0  0  0
   -7.9160   15.0620    2.8050 C   0  0  0  0  0  0  0  0  0  0  0  0
   -8.8780   14.8890    2.0760 O   0  0  0  0  0  0  0  0  0  0  0  0
   -5.9900   14.8990    1.2520 C   0  0  0  0  0  0  0  0  0  0  0  0
   -8.1970   15.6210    3.9780 N   0  0  0  0  0  0  0  0  0  0  0  0
   -6.7960   14.7500    0.1150 C   0  0  0  0  0  0  0  0  0  0  0  0
   -4.6320   15.1760    1.0910 C   0  0  0  0  0  0  0  0  0  0  0  0
   -6.2530   14.8830   -1.1670 C   0  0  0  0  0  0  0  0  0  0  0  0
   -4.0890   15.3060   -0.1910 C   0  0  0  0  0  0  0  0  0  0  0  0
   -8.6960   16.2030    5.1130 C   0  0  0  0  0  0  0  0  0  0  0  0
   -4.8990   15.1630   -1.3150 C   0  0  0  0  0  0  0  0  0  0  0  0
   -9.3390   17.4230    4.9500 C   0  0  0  0  0  0  0  0  0  0  0  0
   -8.6310   15.6760    6.4040 C   0  0  0  0  0  0  0  0  0  0  0  0
   -9.9090   18.1300    5.9440 N   0  0  0  0  0  0  0  0  0  0  0  0
   -9.2150   16.3890    7.4550 C   0  0  0  0  0  0  0  0  0  0  0  0
   -9.8380   17.5990    7.1750 C   0  0  0  0  0  0  0  0  0  0  0  0
  1  2  1  0
  2  3  2  0
  1  4  1  0
  2  5  1  0
  4  6  2  0
  4  7  1  0
  6  8  1  0
  7  9  2  0
  5 10  1  0
  8 11  2  0
  9 11  1  0
 10 12  2  0
 10 13  1  0
 12 14  1  0
 13 15  2  0
 14 16  2  0
 15 16  1  0
M  END
