diamond-x0727_0_A-mac-x0439
     RDKit          3D

 25 27  0  0  0  0  0  0  0  0999 V2000
    0.2030   11.2350   -5.5770 N   0  0  0  0  0  0  0  0  0  0  0  0
    0.9100   12.2370   -4.7760 C   0  0  1  0  0  0  0  0  0  0  0  0
    0.6770   13.6270   -5.3160 C   0  0  0  0  0  0  0  0  0  0  0  0
    0.7040   10.9910   -6.8310 C   0  0  0  0  0  0  0  0  0  0  0  0
    1.6010   11.6470   -7.2870 O   0  0  0  0  0  0  0  0  0  0  0  0
    0.7390   12.0350   -3.2380 C   0  0  0  0  0  0  0  0  0  0  0  0
    0.0680    9.8260   -7.5690 C   0  0  0  0  0  0  0  0  0  0  0  0
   -0.0810   11.2420   -2.7660 O   0  0  0  0  0  0  0  0  0  0  0  0
    1.6020   12.7710   -2.4490 N   0  0  0  0  0  0  0  0  0  0  0  0
   -1.2460   10.2120   -8.2540 C   0  0  0  0  0  0  0  0  0  0  0  0
   -0.2550    8.6360   -6.6470 C   0  0  0  0  0  0  0  0  0  0  0  0
    1.7760   14.0570   -2.5100 C   0  0  0  0  0  0  0  0  0  0  0  0
   -2.1800    9.0340   -8.0190 C   0  0  0  0  0  0  0  0  0  0  0  0
   -1.7670    8.5100   -6.6550 C   0  0  0  0  0  0  0  0  0  0  0  0
    2.6740   14.7010   -1.7220 O   0  0  0  0  0  0  0  0  0  0  0  0
    1.0530   14.9790   -3.4600 C   0  0  0  0  0  0  0  0  0  0  0  0
   -0.1530   14.7470   -4.0000 C   0  0  0  0  0  0  0  0  0  0  0  0
    1.5870   16.1840   -3.8750 N   0  0  0  0  0  0  0  0  0  0  0  0
   -0.4450   15.8240   -4.9890 C   0  0  2  0  0  0  0  0  0  0  0  0
    0.7280   16.7010   -4.6950 C   0  0  0  0  0  0  0  0  0  0  0  0
   -1.6940   16.5950   -5.1690 C   0  0  0  0  0  0  0  0  0  0  0  0
    0.8130   18.0120   -5.3830 C   0  0  0  0  0  0  0  0  0  0  0  0
   -3.1660   15.7540   -4.9100 Cl  0  0  0  0  0  0  0  0  0  0  0  0
   -1.6420   17.8850   -5.5520 C   0  0  0  0  0  0  0  0  0  0  0  0
   -0.3620   18.5380   -5.7800 C   0  0  0  0  0  0  0  0  0  0  0  0
  1  2  1  0
  2  3  1  6
  1  4  1  0
  4  5  2  0
  2  6  1  0
  4  7  1  0
  6  8  2  0
  6  9  1  0
  7 10  1  0
  7 11  1  0
  9 12  2  3
 10 13  1  0
 11 14  1  0
 13 14  1  0
 12 15  1  0
 12 16  1  0
 16 17  2  0
 16 18  1  0
 19 17  1  1
 18 20  2  0
 19 20  1  0
 19 21  1  0
 20 22  1  0
 21 23  1  0
 21 24  2  0
 22 25  2  0
 24 25  1  0
M  END
