diamond-x0950_1_A-mac-x0159
     RDKit          3D

 25 27  0  0  0  0  0  0  0  0999 V2000
    0.9160   13.7810   -5.1220 C   0  0  0  0  0  0  0  0  0  0  0  0
    1.3020   12.3560   -4.8140 C   0  0  2  0  0  0  0  0  0  0  0  0
    0.6250   11.5150   -5.7500 O   0  0  0  0  0  0  0  0  0  0  0  0
    0.9890   11.9110   -3.3770 C   0  0  0  0  0  0  0  0  0  0  0  0
    0.1060   11.1060   -3.0850 O   0  0  0  0  0  0  0  0  0  0  0  0
    1.8130   12.5030   -2.4910 O   0  0  0  0  0  0  0  0  0  0  0  0
    1.1440   13.4470   -1.6770 C   0  0  0  0  0  0  0  0  0  0  0  0
    0.8630   14.6710   -2.5260 C   0  0  0  0  0  0  0  0  0  0  0  0
   -0.5490   14.8310   -3.1520 C   0  0  1  0  0  0  0  0  0  0  0  0
   -1.6330   14.9990   -2.1330 N   0  0  0  0  0  0  0  0  0  0  0  0
   -0.3360   16.0160   -4.1030 C   0  0  0  0  0  0  0  0  0  0  0  0
   -3.0230   14.9710   -2.5440 C   0  0  0  0  0  0  0  0  0  0  0  0
   -1.3290   14.3400   -0.8750 C   0  0  2  0  0  0  0  0  0  0  0  0
    0.9030   16.6070   -4.2840 C   0  0  0  0  0  0  0  0  0  0  0  0
   -1.3560   16.6020   -4.8580 N   0  0  0  0  0  0  0  0  0  0  0  0
   -4.0020   15.1340   -1.4750 N   0  0  0  0  0  0  0  0  0  0  0  0
   -2.3180   14.5250    0.2860 C   0  0  2  0  0  0  0  0  0  0  0  0
   -0.0410   14.7700   -0.3520 N   0  0  0  0  0  0  0  0  0  0  0  0
   -0.8640   17.6070   -5.5660 C   0  0  0  0  0  0  0  0  0  0  0  0
    0.8120   17.9040   -5.3880 S   0  0  0  0  0  0  0  0  0  0  0  0
   -1.6570   18.4700   -6.4790 C   0  0  0  0  0  0  0  0  0  0  0  0
   -3.5810   15.3330   -0.1020 C   0  0  2  0  0  0  0  0  0  0  0  0
   -1.4860   15.1240    1.3580 N   0  0  0  0  0  0  0  0  0  0  0  0
   -0.1620   14.6290    1.0660 C   0  0  0  0  0  0  0  0  0  0  0  0
   -4.7200   15.0390    0.7390 N   0  0  0  0  0  0  0  0  0  0  0  0
  2  1  1  1
  2  3  1  0
  2  4  1  0
  4  5  2  0
  4  6  1  0
  6  7  1  0
  7  8  1  0
  9  8  1  1
  9 10  1  0
  9 11  1  0
 10 12  1  0
 10 13  1  0
 11 14  2  0
 11 15  1  0
 12 16  1  0
 13 17  1  0
 13 18  1  1
 15 19  2  0
 14 20  1  0
 19 20  1  0
 19 21  1  0
 16 22  1  0
 17 22  1  0
 17 23  1  1
 18 24  1  0
 23 24  1  0
 22 25  1  1
M  END
