diamond-x0471_0_A-diamond-x0711_0_A
     RDKit          3D

 24 25  0  0  0  0  0  0  0  0999 V2000
   -8.7240   14.0310    3.1310 N   0  0  0  0  0  0  0  0  0  0  0  0
   -8.9730   14.9690    4.0700 C   0  0  0  0  0  0  0  0  0  0  0  0
   -9.3530   16.1080    3.7900 O   0  0  0  0  0  0  0  0  0  0  0  0
   -8.6830   14.4530    1.7790 C   0  0  0  0  0  0  0  0  0  0  0  0
   -8.7510   14.4920    5.4870 C   0  0  0  0  0  0  0  0  0  0  0  0
   -7.2590   14.6210    1.4000 C   0  0  0  0  0  0  0  0  0  0  0  0
   -9.9670   13.6990    5.9690 C   0  0  0  0  0  0  0  0  0  0  0  0
   -8.4090   15.6530    6.4050 C   0  0  0  0  0  0  0  0  0  0  0  0
   -6.9510   14.5840    0.1140 N   0  0  0  0  0  0  0  0  0  0  0  0
   -6.1550   14.8170    2.1330 N   0  0  0  0  0  0  0  0  0  0  0  0
   -5.1040   14.9020    1.2250 C   0  0  0  0  0  0  0  0  0  0  0  0
   -5.6140   14.7560    0.0020 C   0  0  0  0  0  0  0  0  0  0  0  0
   -4.9400   14.7710   -1.1260 C   0  0  0  0  0  0  0  0  0  0  0  0
   -3.7050   15.0950    1.3060 C   0  0  0  0  0  0  0  0  0  0  0  0
   -5.9970   14.5420   -2.0440 C   0  0  0  0  0  0  0  0  0  0  0  0
   -3.5310   14.9670   -1.1740 C   0  0  0  0  0  0  0  0  0  0  0  0
   -2.9280   15.1270    0.0980 C   0  0  0  0  0  0  0  0  0  0  0  0
   -2.7360   15.0050   -2.4270 N   0  0  0  0  0  0  0  0  0  0  0  0
   -6.8570   13.5990   -1.5340 N   0  0  0  0  0  0  0  0  0  0  0  0
   -6.1660   15.1010   -3.0720 O   0  0  0  0  0  0  0  0  0  0  0  0
   -1.2040   14.2260   -2.6860 S   0  0  0  0  0  0  0  0  0  0  0  0
   -1.6710   12.9010   -3.7800 C   0  0  0  0  0  0  0  0  0  0  0  0
   -0.3140   15.0950   -3.4400 O   0  0  0  0  0  0  0  0  0  0  0  0
   -0.7540   13.6130   -1.4590 O   0  0  0  0  0  0  0  0  0  0  0  0
  1  2  1  0
  2  3  2  0
  1  4  1  0
  2  5  1  0
  4  6  1  0
  5  7  1  0
  5  8  1  0
  6  9  1  0
  6 10  2  0
 10 11  1  0
  9 12  1  0
 11 12  2  0
 12 13  1  0
 11 14  1  0
 13 15  1  0
 13 16  2  0
 14 17  2  0
 16 17  1  0
 16 18  1  0
 15 19  1  0
 15 20  2  0
 21 18  1  0
 21 22  1  0
 21 23  2  0
 21 24  2  0
M  END
