diamond-x0587_0_A-mac-x0436
     RDKit          3D

 31 33  0  0  0  0  0  0  0  0999 V2000
   -7.8150   14.8460    4.1600 N   0  0  0  0  0  0  0  0  0  0  0  0
   -8.3320   14.9090    2.8990 C   0  0  0  0  0  0  0  0  0  0  0  0
   -9.5340   15.0680    2.7120 O   0  0  0  0  0  0  0  0  0  0  0  0
   -7.4000   14.7900    1.7710 C   0  0  0  0  0  0  0  0  0  0  0  0
   -7.7810   14.5900    0.4660 C   0  0  0  0  0  0  0  0  0  0  0  0
   -6.0400   14.8890    1.9810 C   0  0  0  0  0  0  0  0  0  0  0  0
   -6.9070   14.5020   -0.5530 N   0  0  0  0  0  0  0  0  0  0  0  0
   -5.1170   14.8090    0.9980 N   0  0  0  0  0  0  0  0  0  0  0  0
   -5.5900   14.6190   -0.2550 C   0  0  0  0  0  0  0  0  0  0  0  0
   -4.5960   14.5180   -1.4160 C   0  0  0  0  0  0  0  0  0  0  0  0
   -3.3140   14.8650   -1.0780 F   0  0  0  0  0  0  0  0  0  0  0  0
   -4.6230   13.1870   -1.9410 O   0  0  0  0  0  0  0  0  0  0  0  0
   -4.9190   15.3240   -2.4750 F   0  0  0  0  0  0  0  0  0  0  0  0
   -3.8270   13.0170   -3.1010 C   0  0  0  0  0  0  0  0  0  0  0  0
   -2.8250   11.8970   -2.8450 C   0  0  0  0  0  0  0  0  0  0  0  0
   -1.6850   12.1850   -3.6920 N   0  0  0  0  0  0  0  0  0  0  0  0
   -1.5380   11.5410   -4.7850 C   0  0  0  0  0  0  0  0  0  0  0  0
   -0.3010   11.9400   -5.6130 C   0  0  0  0  0  0  0  0  0  0  0  0
   -2.3320   10.5520   -5.3030 N   0  0  0  0  0  0  0  0  0  0  0  0
    0.4390   13.2130   -5.2430 C   0  0  0  0  0  0  0  0  0  0  0  0
   -1.8210    9.7060   -6.2900 C   0  0  0  0  0  0  0  0  0  0  0  0
    0.1060   11.2160   -6.6130 N   0  0  0  0  0  0  0  0  0  0  0  0
    1.6350   12.9460   -4.3340 C   0  0  0  0  0  0  0  0  0  0  0  0
   -0.6110   10.0470   -6.9300 C   0  0  0  0  0  0  0  0  0  0  0  0
   -2.4920    8.5300   -6.6450 C   0  0  0  0  0  0  0  0  0  0  0  0
    1.2470   12.4060   -2.9810 C   0  0  0  0  0  0  0  0  0  0  0  0
   -0.0960    9.2040   -7.9170 C   0  0  0  0  0  0  0  0  0  0  0  0
   -1.9660    7.6960   -7.6350 C   0  0  0  0  0  0  0  0  0  0  0  0
    0.7770   11.1470   -2.9990 O   0  0  0  0  0  0  0  0  0  0  0  0
    1.3340   13.0140   -1.9300 O   0  0  0  0  0  0  0  0  0  0  0  0
   -0.7710    8.0340   -8.2680 C   0  0  0  0  0  0  0  0  0  0  0  0
  1  2  1  0
  2  3  2  0
  2  4  1  0
  4  5  2  0
  4  6  1  0
  5  7  1  0
  6  8  2  0
  7  9  2  0
  8  9  1  0
  9 10  1  0
 10 11  1  0
 10 12  1  0
 10 13  1  0
 12 14  1  0
 14 15  1  0
 15 16  1  0
 16 17  2  3
 17 18  1  0
 17 19  1  0
 18 20  1  0
 19 21  1  0
 18 22  2  0
 20 23  1  0
 21 24  2  0
 22 24  1  0
 21 25  1  0
 23 26  1  0
 24 27  1  0
 25 28  2  0
 26 29  1  0
 26 30  2  0
 27 31  2  0
 28 31  1  0
M  END
