diamond-x0969_0_A-mac-x0392
     RDKit          3D

 14 15  0  0  0  0  0  0  0  0999 V2000
   -6.4450   14.8150    2.4730 N   0  0  0  0  0  0  0  0  0  0  0  0
   -6.2270   14.7850    1.1390 C   0  0  0  0  0  0  0  0  0  0  0  0
   -7.1610   14.7490    0.2140 N   0  0  0  0  0  0  0  0  0  0  0  0
   -4.9700   14.7940    0.5280 N   0  0  0  0  0  0  0  0  0  0  0  0
   -6.5540   14.7400   -1.0190 N   0  0  0  0  0  0  0  0  0  0  0  0
   -5.2520   14.7660   -0.8300 C   0  0  0  0  0  0  0  0  0  0  0  0
   -3.6590   14.8210    1.0330 C   0  0  0  0  0  0  0  0  0  0  0  0
   -4.1520   14.7640   -1.7390 C   0  0  0  0  0  0  0  0  0  0  0  0
   -2.5850   14.8000    0.1860 C   0  0  0  0  0  0  0  0  0  0  0  0
   -1.2570   14.8020    0.6360 N   0  0  0  0  0  0  0  0  0  0  0  0
   -2.8680   14.7700   -1.2770 C   0  0  0  0  0  0  0  0  0  0  0  0
   -1.7640   14.7430   -2.3100 C   0  0  0  0  0  0  0  0  0  0  0  0
   -1.9930   14.6890   -3.5080 O   0  0  0  0  0  0  0  0  0  0  0  0
   -0.4910   14.7750   -1.8390 O   0  0  0  0  0  0  0  0  0  0  0  0
  1  2  1  0
  2  3  2  0
  2  4  1  0
  3  5  1  0
  4  6  1  0
  5  6  2  0
  4  7  1  0
  6  8  1  0
  7  9  2  0
  9 10  1  0
  8 11  2  0
  9 11  1  0
 11 12  1  0
 12 13  2  0
 12 14  1  0
M  END
