diamond-x0900_0_A-diamond-x0805_0_A
     RDKit          3D

 22 24  0  0  0  0  0  0  0  0999 V2000
   -7.6150   14.7620   -0.2410 O   0  0  0  0  0  0  0  0  0  0  0  0
   -6.4710   14.8540    0.1610 C   0  0  0  0  0  0  0  0  0  0  0  0
   -5.3970   15.1160   -0.6120 N   0  0  0  0  0  0  0  0  0  0  0  0
   -5.9640   14.7160    1.5790 C   0  0  0  0  0  0  0  0  0  0  0  0
   -4.5580   15.3230    1.4660 C   0  0  0  0  0  0  0  0  0  0  0  0
   -4.2390   14.7870    0.1270 C   0  0  2  0  0  0  0  0  0  0  0  0
   -3.2660   15.4600   -0.5240 O   0  0  0  0  0  0  0  0  0  0  0  0
   -2.9530   14.7280   -1.5760 C   0  0  0  0  0  0  0  0  0  0  0  0
   -3.9710   13.9350   -2.1210 C   0  0  0  0  0  0  0  0  0  0  0  0
   -1.7320   14.7180   -2.1110 C   0  0  0  0  0  0  0  0  0  0  0  0
   -3.7140   13.1300   -3.2280 C   0  0  0  0  0  0  0  0  0  0  0  0
   -1.4540   13.9460   -3.1900 C   0  0  0  0  0  0  0  0  0  0  0  0
   -2.4360   13.1360   -3.7730 C   0  0  0  0  0  0  0  0  0  0  0  0
   -0.0570   14.0580   -3.6490 C   0  0  1  0  0  0  0  0  0  0  0  0
    0.6190   12.7660   -3.9960 C   0  0  2  0  0  0  0  0  0  0  0  0
    0.2210   15.1820   -4.5890 C   0  0  0  0  0  0  0  0  0  0  0  0
    0.5910   11.9230   -2.7300 C   0  0  0  0  0  0  0  0  0  0  0  0
    2.0100   13.0700   -4.5590 C   0  0  0  0  0  0  0  0  0  0  0  0
    1.6700   15.5230   -4.4940 C   0  0  0  0  0  0  0  0  0  0  0  0
    0.4610   10.5970   -2.8980 O   0  0  0  0  0  0  0  0  0  0  0  0
    0.6650   12.4140   -1.5990 O   0  0  0  0  0  0  0  0  0  0  0  0
    2.4920   14.3780   -4.1780 O   0  0  0  0  0  0  0  0  0  0  0  0
  1  2  2  0
  2  3  1  0
  2  4  1  0
  4  5  1  0
  3  6  1  0
  5  6  1  0
  6  7  1  6
  7  8  1  0
  8  9  2  0
  8 10  1  0
  9 11  1  0
 10 12  2  0
 11 13  2  0
 12 13  1  0
 14 12  1  6
 14 15  1  0
 14 16  1  0
 15 17  1  1
 15 18  1  0
 16 19  1  0
 17 20  1  0
 17 21  2  0
 18 22  1  0
 19 22  1  0
M  END
