diamond-x0685_1_A-mac-x0392
     RDKit          3D

 22 23  0  0  0  0  0  0  0  0999 V2000
   -1.4940   10.5290   -4.9460 N   0  0  0  0  0  0  0  0  0  0  0  0
   -1.3800   11.9820   -4.7580 C   0  0  0  0  0  0  0  0  0  0  0  0
    0.0670   12.4270   -4.5910 C   0  0  0  0  0  0  0  0  0  0  0  0
   -1.4690   10.0360   -6.3400 C   0  0  0  0  0  0  0  0  0  0  0  0
   -0.1850    9.2720   -6.6660 C   0  0  0  0  0  0  0  0  0  0  0  0
   -1.6280   11.1810   -7.3460 C   0  0  0  0  0  0  0  0  0  0  0  0
    0.6700   12.2030   -2.9160 S   0  0  0  0  0  0  0  0  0  0  0  0
   -0.2320    8.5210   -7.9880 C   0  0  0  0  0  0  0  0  0  0  0  0
   -1.1380   10.7700   -8.7440 C   0  0  0  0  0  0  0  0  0  0  0  0
    2.2640   12.3190   -3.0420 O   0  0  0  0  0  0  0  0  0  0  0  0
    0.2390   10.7130   -2.4320 O   0  0  0  0  0  0  0  0  0  0  0  0
    0.0640   13.3990   -2.0220 O   0  0  0  0  0  0  0  0  0  0  0  0
   -1.1040    9.2560   -8.9970 C   0  0  0  0  0  0  0  0  0  0  0  0
   -0.9800   14.1980   -2.3830 C   0  0  0  0  0  0  0  0  0  0  0  0
   -1.2220   14.5970   -3.5160 O   0  0  0  0  0  0  0  0  0  0  0  0
   -1.7920   14.5060   -1.1870 C   0  0  0  0  0  0  0  0  0  0  0  0
   -1.2160   14.3280    0.0770 C   0  0  0  0  0  0  0  0  0  0  0  0
   -3.1140   14.9660   -1.3110 C   0  0  0  0  0  0  0  0  0  0  0  0
    0.0990   13.8760    0.2670 N   0  0  0  0  0  0  0  0  0  0  0  0
   -3.8210   15.2350   -0.1580 C   0  0  0  0  0  0  0  0  0  0  0  0
   -2.0310   14.6270    1.1530 C   0  0  0  0  0  0  0  0  0  0  0  0
   -3.3040   15.0740    1.0730 N   0  0  0  0  0  0  0  0  0  0  0  0
  1  2  1  0
  2  3  1  0
  1  4  1  0
  4  5  1  0
  4  6  1  0
  3  7  1  0
  5  8  1  0
  6  9  1  0
  7 10  1  0
  7 11  1  0
  7 12  1  0
  8 13  1  0
  9 13  1  0
 12 14  1  0
 14 15  2  0
 14 16  1  0
 16 17  2  0
 16 18  1  0
 17 19  1  0
 18 20  2  0
 17 21  1  0
 20 22  1  0
 21 22  2  0
M  END
