diamond-x0926_0_A-diamond-x0864_0_A
     RDKit          3D

 22 23  0  0  0  0  0  0  0  0999 V2000
   -6.6720   15.0700   -0.3900 O   0  0  0  0  0  0  0  0  0  0  0  0
   -5.4530   15.1790   -0.3550 C   0  0  0  0  0  0  0  0  0  0  0  0
   -4.7100   15.1660    0.9310 C   0  0  0  0  0  0  0  0  0  0  0  0
   -4.6830   15.3100   -1.4880 N   0  0  0  0  0  0  0  0  0  0  0  0
   -3.3040   15.0050   -1.4870 N   0  0  0  0  0  0  0  0  0  0  0  0
   -3.3790   15.3400    0.9440 C   0  0  0  0  0  0  0  0  0  0  0  0
   -2.5870   15.5680   -0.3250 C   0  0  1  0  0  0  0  0  0  0  0  0
   -1.1510   14.9870   -0.3310 C   0  0  0  0  0  0  0  0  0  0  0  0
   -0.3980   15.1120   -1.6860 C   0  0  0  0  0  0  0  0  0  0  0  0
    0.9360   14.3540   -1.8060 C   0  0  0  0  0  0  0  0  0  0  0  0
    0.7680   12.9050   -1.8330 N   0  0  0  0  0  0  0  0  0  0  0  0
    0.5990   12.1740   -2.8890 C   0  0  0  0  0  0  0  0  0  0  0  0
    0.5450   12.7390   -4.3070 C   0  0  0  0  0  0  0  0  0  0  0  0
    0.4490   10.8380   -2.8370 O   0  0  0  0  0  0  0  0  0  0  0  0
   -0.1470   11.8250   -5.2240 N   0  0  0  0  0  0  0  0  0  0  0  0
   -1.3300   11.2230   -4.8270 C   0  0  0  0  0  0  0  0  0  0  0  0
    0.5290   11.4260   -6.3730 C   0  0  0  0  0  0  0  0  0  0  0  0
    1.5720   11.9300   -6.7740 O   0  0  0  0  0  0  0  0  0  0  0  0
   -1.8640   10.2090   -5.5210 C   0  0  0  0  0  0  0  0  0  0  0  0
   -0.0670   10.2940   -7.1320 C   0  0  0  0  0  0  0  0  0  0  0  0
   -1.2040    9.7250   -6.7110 C   0  0  0  0  0  0  0  0  0  0  0  0
   -1.9890    8.2950   -7.6180 Br  0  0  0  0  0  0  0  0  0  0  0  0
  1  2  2  0
  2  3  1  0
  2  4  1  0
  4  5  1  0
  3  6  2  0
  5  7  1  0
  6  7  1  0
  7  8  1  1
  8  9  1  0
  9 10  1  0
 10 11  1  0
 11 12  2  3
 12 13  1  0
 12 14  1  0
 13 15  1  0
 15 16  1  0
 15 17  1  0
 17 18  2  0
 16 19  2  0
 17 20  1  0
 19 21  1  0
 20 21  2  0
 21 22  1  0
M  END
