diamond-x0626_0_A-mac-x0206
     RDKit          3D

 19 20  0  0  0  0  0  0  0  0999 V2000
   -5.1760   13.2330    1.9050 N   0  0  0  0  0  0  0  0  0  0  0  0
   -6.3520   13.9180    2.6020 C   0  0  0  0  0  0  0  0  0  0  0  0
   -7.6470   14.1540    1.7860 C   0  0  1  0  0  0  0  0  0  0  0  0
   -3.9930   13.6190    1.2150 C   0  0  0  0  0  0  0  0  0  0  0  0
   -2.8710   14.1560    1.7640 N   0  0  0  0  0  0  0  0  0  0  0  0
   -3.8160   13.3830   -0.4960 S   0  0  0  0  0  0  0  0  0  0  0  0
   -8.7310   15.1190    2.2540 C   0  0  0  0  0  0  0  0  0  0  0  0
   -2.2240   13.9990   -0.4790 C   0  0  0  0  0  0  0  0  0  0  0  0
   -1.8790   14.3550    0.7900 C   0  0  0  0  0  0  0  0  0  0  0  0
   -6.8870   14.5700    0.6860 C   0  0  0  0  0  0  0  0  0  0  0  0
   -0.5540   14.9080    1.1570 C   0  0  0  0  0  0  0  0  0  0  0  0
   -7.2250   14.5360   -0.6380 C   0  0  0  0  0  0  0  0  0  0  0  0
   -5.6690   15.0190    1.1640 C   0  0  0  0  0  0  0  0  0  0  0  0
   -6.2530   14.9450   -1.5260 C   0  0  0  0  0  0  0  0  0  0  0  0
   -4.7220   15.4230    0.3100 C   0  0  0  0  0  0  0  0  0  0  0  0
   -5.0100   15.3650   -1.0360 C   0  0  0  0  0  0  0  0  0  0  0  0
   -3.9100   15.7500   -1.8980 C   0  0  0  0  0  0  0  0  0  0  0  0
   -2.7260   16.0470   -1.2850 N   0  0  0  0  0  0  0  0  0  0  0  0
   -4.0260   15.7500   -3.1060 O   0  0  0  0  0  0  0  0  0  0  0  0
  1  2  1  0
  2  3  1  0
  1  4  1  0
  4  5  2  0
  4  6  1  0
  3  7  1  1
  6  8  1  0
  5  9  1  0
  8  9  2  0
  3 10  1  0
  9 11  1  0
 10 12  2  0
 10 13  1  0
 12 14  1  0
 13 15  2  0
 14 16  2  0
 15 16  1  0
 16 17  1  0
 17 18  1  0
 17 19  2  0
M  END
