diamond-x0628_0_A-diamond-x0950_1_A
     RDKit          3D

 13 13  0  0  0  0  0  0  0  0999 V2000
   -0.7080    8.9490   -7.0070 C   0  0  0  0  0  0  0  0  0  0  0  0
   -0.9380   10.2820   -6.4220 C   0  0  0  0  0  0  0  0  0  0  0  0
   -2.1840   10.7430   -6.0940 N   0  0  0  0  0  0  0  0  0  0  0  0
    0.0560   11.1410   -6.1670 N   0  0  0  0  0  0  0  0  0  0  0  0
   -0.6170   12.1880   -5.6510 N   0  0  0  0  0  0  0  0  0  0  0  0
   -1.9500   11.9490   -5.6150 C   0  0  0  0  0  0  0  0  0  0  0  0
   -2.9310   12.9300   -5.1100 C   0  0  0  0  0  0  0  0  0  0  0  0
    0.0860   13.3700   -5.2180 C   0  0  0  0  0  0  0  0  0  0  0  0
    1.3390   12.9970   -4.4600 C   0  0  1  0  0  0  0  0  0  0  0  0
    0.9790   12.3350   -3.1150 C   0  0  0  0  0  0  0  0  0  0  0  0
    2.0890   12.2100   -5.3470 O   0  0  0  0  0  0  0  0  0  0  0  0
    0.6470   11.1700   -2.9630 O   0  0  0  0  0  0  0  0  0  0  0  0
    1.0500   13.1850   -2.0640 O   0  0  0  0  0  0  0  0  0  0  0  0
  1  2  1  0
  2  3  1  0
  2  4  2  0
  4  5  1  0
  3  6  2  0
  5  6  1  0
  6  7  1  0
  5  8  1  0
  8  9  1  0
  9 10  1  0
  9 11  1  6
 10 12  2  0
 10 13  1  0
M  END
