diamond-x0290_0_A-diamond-x0592_0_A
     RDKit          3D

 19 22  0  0  0  0  0  0  0  0999 V2000
   -7.6150   13.7870    1.2440 N   0  0  0  0  0  0  0  0  0  0  0  0
   -8.5090   14.8130    0.6950 C   0  0  0  0  0  0  0  0  0  0  0  0
   -6.8820   14.7270    0.1940 N   0  0  0  0  0  0  0  0  0  0  0  0
   -6.4350   14.3630    1.9000 C   0  0  0  0  0  0  0  0  0  0  0  0
   -5.2480   14.4170    0.9570 C   0  0  0  0  0  0  0  0  0  0  0  0
   -5.3960   14.2090   -0.2420 O   0  0  0  0  0  0  0  0  0  0  0  0
   -4.0580   14.7030    1.5350 N   0  0  0  0  0  0  0  0  0  0  0  0
   -4.7450   14.8000   -0.2630 C   0  0  2  0  0  0  0  0  0  0  0  0
   -6.8240   14.9760   -1.1360 N   0  0  0  0  0  0  0  0  0  0  0  0
   -3.2790   14.8360   -0.1090 C   0  0  2  0  0  0  0  0  0  0  0  0
   -2.7880   14.6840    0.9400 C   0  0  0  0  0  0  0  0  0  0  0  0
   -5.5320   15.0020   -1.4090 C   0  0  0  0  0  0  0  0  0  0  0  0
   -6.1780   14.9890   -1.2720 C   0  0  0  0  0  0  0  0  0  0  0  0
   -1.2910   14.6460   -2.5450 C   0  0  0  0  0  0  0  0  0  0  0  0
   -1.7130   14.5770    1.7490 N   0  0  0  0  0  0  0  0  0  0  0  0
   -2.6890   14.7420   -0.4540 C   0  0  2  0  0  0  0  0  0  0  0  0
   -0.5060   14.5480    1.1600 C   0  0  0  0  0  0  0  0  0  0  0  0
   -1.4350   14.6820   -1.0440 C   0  0  0  0  0  0  0  0  0  0  0  0
   -0.3250   14.6060   -0.2100 C   0  0  0  0  0  0  0  0  0  0  0  0
  1  2  1  0
  2  3  1  0
  1  4  1  0
  4  5  1  0
  5  6  2  0
  5  7  1  0
  3  8  1  0
  3  9  1  0
  7 10  1  0
  8 10  1  0
  7 11  1  0
  8 12  1  1
  9 13  1  0
 12 13  2  0
 10 14  1  6
 11 15  1  0
 11 16  1  0
 16 14  1  6
 15 17  1  0
 16 18  1  0
 17 19  2  0
 18 19  1  0
M  END
