diamond-x0900_1_A-mac-x0319
     RDKit          3D

 19 20  0  0  0  0  0  0  0  0999 V2000
   -0.7760    9.8870   -9.6060 O   0  0  0  0  0  0  0  0  0  0  0  0
   -0.9440    9.5540   -8.4450 C   0  0  0  0  0  0  0  0  0  0  0  0
    0.0450    9.4060   -7.4960 N   0  0  0  0  0  0  0  0  0  0  0  0
   -2.2570    9.2260   -7.7890 C   0  0  0  0  0  0  0  0  0  0  0  0
   -1.8270    8.4090   -6.5750 C   0  0  0  0  0  0  0  0  0  0  0  0
   -0.4580    8.9680   -6.2140 C   0  0  2  0  0  0  0  0  0  0  0  0
   -0.4750   10.0470   -5.0800 C   0  0  0  0  0  0  0  0  0  0  0  0
    0.1870   11.4290   -5.3650 C   0  0  0  0  0  0  0  0  0  0  0  0
    0.8220   12.2160   -4.1510 C   0  0  2  0  0  0  0  0  0  0  0  0
    0.5770   11.6610   -2.7100 C   0  0  0  0  0  0  0  0  0  0  0  0
    0.3240   13.6550   -4.2870 C   0  0  0  0  0  0  0  0  0  0  0  0
    0.2420   10.3480   -2.6130 O   0  0  0  0  0  0  0  0  0  0  0  0
    0.6600   12.3280   -1.6730 O   0  0  0  0  0  0  0  0  0  0  0  0
    1.1700   14.7770   -4.1260 C   0  0  0  0  0  0  0  0  0  0  0  0
   -1.0310   13.8660   -4.5840 C   0  0  0  0  0  0  0  0  0  0  0  0
    0.6260   16.0620   -4.2680 C   0  0  0  0  0  0  0  0  0  0  0  0
   -1.5450   15.1510   -4.7230 C   0  0  0  0  0  0  0  0  0  0  0  0
    1.3510   17.2000   -4.1250 O   0  0  0  0  0  0  0  0  0  0  0  0
   -0.7140   16.2460   -4.5660 C   0  0  0  0  0  0  0  0  0  0  0  0
  1  2  2  0
  2  3  1  0
  2  4  1  0
  4  5  1  0
  3  6  1  0
  5  6  1  0
  6  7  1  1
  7  8  1  0
  9  8  1  6
  9 10  1  0
  9 11  1  0
 10 12  1  0
 10 13  2  0
 11 14  2  0
 11 15  1  0
 14 16  1  0
 15 17  2  0
 16 18  1  0
 16 19  2  0
 17 19  1  0
M  END
