diamond-x1015_0_A-mac-x0271
     RDKit          3D

 30 33  0  0  0  0  0  0  0  0999 V2000
   -0.8110   14.0080   -4.8450 C   0  0  0  0  0  0  0  0  0  0  0  0
    0.3730   13.2320   -4.2630 C   0  0  2  0  0  0  0  0  0  0  0  0
   -0.0090   11.8750   -4.0260 N   0  0  0  0  0  0  0  0  0  0  0  0
    0.7030   13.5540   -2.8280 C   0  0  0  0  0  0  0  0  0  0  0  0
    0.5330   14.6090   -2.2070 N   0  0  0  0  0  0  0  0  0  0  0  0
    0.4840   11.4370   -2.7790 C   0  0  0  0  0  0  0  0  0  0  0  0
    1.2220   12.4670   -2.2690 N   0  0  0  0  0  0  0  0  0  0  0  0
   -0.4850   11.1180   -5.1020 C   0  0  0  0  0  0  0  0  0  0  0  0
    0.3200   10.3730   -2.2080 O   0  0  0  0  0  0  0  0  0  0  0  0
   -0.1400   15.5060   -3.0730 C   0  0  0  0  0  0  0  0  0  0  0  0
    0.0430   11.3570   -6.3800 C   0  0  0  0  0  0  0  0  0  0  0  0
   -1.4650   10.1370   -4.9600 C   0  0  0  0  0  0  0  0  0  0  0  0
   -1.6060   15.0710   -2.8270 C   0  0  0  0  0  0  0  0  0  0  0  0
   -0.3960   10.6350   -7.4840 C   0  0  0  0  0  0  0  0  0  0  0  0
   -1.9110    9.4090   -6.0630 C   0  0  0  0  0  0  0  0  0  0  0  0
   -2.6590   15.6350   -3.7790 C   0  0  0  0  0  0  0  0  0  0  0  0
   -1.3740    9.6620   -7.3200 C   0  0  0  0  0  0  0  0  0  0  0  0
   -1.9200    8.7680   -8.6790 Cl  0  0  0  0  0  0  0  0  0  0  0  0
   -3.9950   15.2600   -3.3990 O   0  0  0  0  0  0  0  0  0  0  0  0
   -4.5380   15.1660   -2.1250 C   0  0  0  0  0  0  0  0  0  0  0  0
   -5.9130   15.0800   -1.9150 C   0  0  0  0  0  0  0  0  0  0  0  0
   -3.6900   15.1500   -1.0000 C   0  0  0  0  0  0  0  0  0  0  0  0
   -6.4190   14.9700   -0.6250 C   0  0  0  0  0  0  0  0  0  0  0  0
   -4.2130   15.0410    0.3050 C   0  0  0  0  0  0  0  0  0  0  0  0
   -5.5970   14.9450    0.4900 C   0  0  0  0  0  0  0  0  0  0  0  0
   -7.8230   14.8800   -0.4960 O   0  0  0  0  0  0  0  0  0  0  0  0
   -6.2130   14.8150    1.8050 C   0  0  0  0  0  0  0  0  0  0  0  0
   -8.4390   14.8560    0.7470 C   0  0  0  0  0  0  0  0  0  0  0  0
   -9.6580   14.9130    0.8770 O   0  0  0  0  0  0  0  0  0  0  0  0
   -7.5520   14.7690    1.9170 C   0  0  0  0  0  0  0  0  0  0  0  0
  2  1  1  1
  2  3  1  0
  2  4  1  0
  4  5  2  3
  3  6  1  0
  4  7  1  0
  6  7  1  0
  3  8  1  0
  6  9  2  0
  5 10  1  0
  8 11  2  0
  8 12  1  0
 10 13  1  0
 11 14  1  0
 12 15  2  0
 13 16  1  0
 14 17  2  0
 15 17  1  0
 17 18  1  0
 16 19  1  0
 19 20  1  0
 20 21  2  0
 20 22  1  0
 21 23  1  0
 22 24  2  0
 23 25  2  0
 24 25  1  0
 23 26  1  0
 25 27  1  0
 26 28  1  0
 28 29  2  0
 27 30  2  0
 28 30  1  0
M  END
