diamond-x0438_0_A-mac-x0277
     RDKit          3D

 28 30  0  0  0  0  0  0  0  0999 V2000
   -8.1730   15.5820    3.8980 C   0  0  0  0  0  0  0  0  0  0  0  0
   -9.3870   15.3590    2.6080 S   0  0  0  0  0  0  0  0  0  0  0  0
  -10.5940   14.8560    3.2390 O   0  0  0  0  0  0  0  0  0  0  0  0
   -8.7700   14.0360    1.5890 C   0  0  0  0  0  0  0  0  0  0  0  0
   -9.4700   16.5510    1.7900 O   0  0  0  0  0  0  0  0  0  0  0  0
   -7.4540   14.3330    0.9710 C   0  0  0  0  0  0  0  0  0  0  0  0
   -7.2990   14.5580   -0.3750 N   0  0  0  0  0  0  0  0  0  0  0  0
   -6.2960   14.4060    1.5880 N   0  0  0  0  0  0  0  0  0  0  0  0
   -5.3580   14.6680    0.6180 C   0  0  0  0  0  0  0  0  0  0  0  0
   -5.9720   14.7670   -0.6230 C   0  0  0  0  0  0  0  0  0  0  0  0
   -5.2880   15.0220   -1.8020 C   0  0  0  0  0  0  0  0  0  0  0  0
   -3.9710   14.8290    0.7130 C   0  0  0  0  0  0  0  0  0  0  0  0
   -3.9050   15.1700   -1.7130 C   0  0  0  0  0  0  0  0  0  0  0  0
   -3.2520   15.0770   -0.4650 C   0  0  0  0  0  0  0  0  0  0  0  0
   -3.1150   15.4290   -2.9720 C   0  0  0  0  0  0  0  0  0  0  0  0
   -3.6240   14.7870   -4.2500 C   0  0  0  0  0  0  0  0  0  0  0  0
   -2.8580   15.4240   -5.4170 C   0  0  0  0  0  0  0  0  0  0  0  0
   -1.3830   15.5580   -5.0800 C   0  0  0  0  0  0  0  0  0  0  0  0
   -0.6790   14.3690   -4.8230 C   0  0  0  0  0  0  0  0  0  0  0  0
   -0.6730   16.7720   -5.0030 C   0  0  0  0  0  0  0  0  0  0  0  0
   -1.4160   18.3020   -5.3010 Cl  0  0  0  0  0  0  0  0  0  0  0  0
    0.6800   14.3670   -4.4980 C   0  0  0  0  0  0  0  0  0  0  0  0
    0.6870   16.7780   -4.6780 C   0  0  0  0  0  0  0  0  0  0  0  0
    1.3900   13.0630   -4.2300 C   0  0  0  0  0  0  0  0  0  0  0  0
    1.3590   15.5810   -4.4250 C   0  0  0  0  0  0  0  0  0  0  0  0
    0.9450   12.4120   -2.9400 C   0  0  0  0  0  0  0  0  0  0  0  0
    0.2570   11.2700   -3.1550 O   0  0  0  0  0  0  0  0  0  0  0  0
    1.1310   12.7980   -1.8020 O   0  0  0  0  0  0  0  0  0  0  0  0
  2  1  1  0
  2  3  2  0
  2  4  1  0
  2  5  2  0
  4  6  1  0
  6  7  1  0
  6  8  2  0
  8  9  1  0
  7 10  1  0
  9 10  2  0
 10 11  1  0
  9 12  1  0
 11 13  2  0
 12 14  2  0
 13 14  1  0
 13 15  1  0
 15 16  1  0
 16 17  1  0
 17 18  1  0
 18 19  2  0
 18 20  1  0
 20 21  1  0
 19 22  1  0
 20 23  2  0
 22 24  1  0
 22 25  2  0
 23 25  1  0
 24 26  1  0
 26 27  1  0
 26 28  2  0
M  END
