diamond-x0905_0_A-mac-x0326
     RDKit          3D

 16 17  0  0  0  0  0  0  0  0999 V2000
   -6.8350   14.8700   -1.0420 O   0  0  0  0  0  0  0  0  0  0  0  0
   -5.5140   15.3530   -0.9440 C   0  0  1  0  0  0  0  0  0  0  0  0
   -5.1020   15.0530    0.3980 N   0  0  0  0  0  0  0  0  0  0  0  0
   -4.5890   14.6430   -1.9590 C   0  0  0  0  0  0  0  0  0  0  0  0
   -3.8090   15.3230    0.7200 C   0  0  0  0  0  0  0  0  0  0  0  0
   -3.0750   14.6050   -1.5640 C   0  0  2  0  0  0  0  0  0  0  0  0
   -2.8200   15.1350   -0.1650 C   0  0  0  0  0  0  0  0  0  0  0  0
   -2.1150   15.0680   -2.6770 N   0  0  0  0  0  0  0  0  0  0  0  0
   -2.5710   13.2410   -1.2200 C   0  0  0  0  0  0  0  0  0  0  0  0
   -0.6630   14.7190   -2.4990 C   0  0  1  0  0  0  0  0  0  0  0  0
   -0.8790   13.1340   -1.7260 S   0  0  0  0  0  0  0  0  0  0  0  0
    0.1960   14.6550   -3.7940 C   0  0  0  0  0  0  0  0  0  0  0  0
    0.4790   13.2350   -4.3200 C   0  0  0  0  0  0  0  0  0  0  0  0
    1.0120   12.3260   -3.2430 C   0  0  0  0  0  0  0  0  0  0  0  0
    0.3680   11.1410   -3.1710 O   0  0  0  0  0  0  0  0  0  0  0  0
    1.9280   12.6150   -2.4950 O   0  0  0  0  0  0  0  0  0  0  0  0
  2  1  1  1
  2  3  1  0
  2  4  1  0
  3  5  1  0
  6  4  1  6
  5  7  2  0
  6  7  1  0
  6  8  1  0
  6  9  1  0
  8 10  1  0
  9 11  2  0
 10 11  1  0
 10 12  1  6
 12 13  1  0
 13 14  1  0
 14 15  1  0
 14 16  2  0
M  END
