diamond-x0574_0_A-diamond-x0950_0_A
     RDKit          3D

 20 21  0  0  0  0  0  0  0  0999 V2000
    0.4500   14.6340    1.0460 N   0  0  0  0  0  0  0  0  0  0  0  0
   -0.8830   15.0460    0.9470 C   0  0  2  0  0  0  0  0  0  0  0  0
   -1.6450   13.8800    0.8430 N   0  0  0  0  0  0  0  0  0  0  0  0
   -1.2270   15.8720   -0.6100 S   0  0  0  0  0  0  0  0  0  0  0  0
   -1.3010   13.3330   -0.5380 C   0  0  0  0  0  0  0  0  0  0  0  0
   -2.9130   14.6070    0.7610 C   0  0  1  0  0  0  0  0  0  0  0  0
   -2.7820   14.9490   -0.7090 C   0  0  1  0  0  0  0  0  0  0  0  0
   -0.0220   13.7800   -1.2910 C   0  0  0  0  0  0  0  0  0  0  0  0
   -4.2580   13.9500    1.1370 C   0  0  0  0  0  0  0  0  0  0  0  0
   -3.9340   15.6600   -1.2590 C   0  0  0  0  0  0  0  0  0  0  0  0
    0.7730   12.5910   -1.5050 O   0  0  0  0  0  0  0  0  0  0  0  0
   -5.4560   14.3380    0.2140 C   0  0  2  0  0  0  0  0  0  0  0  0
   -5.1590   15.3810   -0.8310 C   0  0  0  0  0  0  0  0  0  0  0  0
   -6.5790   14.8730    0.9310 O   0  0  0  0  0  0  0  0  0  0  0  0
    0.7280   12.0040   -2.7500 C   0  0  0  0  0  0  0  0  0  0  0  0
   -6.6680   14.5110    2.2920 C   0  0  0  0  0  0  0  0  0  0  0  0
    1.3110   12.8760   -3.8790 C   0  0  1  0  0  0  0  0  0  0  0  0
    0.2790   10.8790   -2.9610 O   0  0  0  0  0  0  0  0  0  0  0  0
    2.8300   12.9410   -3.8370 C   0  0  0  0  0  0  0  0  0  0  0  0
    0.9400   12.3660   -5.1660 O   0  0  0  0  0  0  0  0  0  0  0  0
  2  1  1  6
  2  3  1  0
  2  4  1  0
  3  5  1  0
  3  6  1  0
  4  7  1  0
  6  7  1  0
  5  8  1  0
  6  9  1  6
  7 10  1  1
  8 11  1  0
  9 12  1  0
 10 13  2  0
 12 13  1  0
 12 14  1  1
 11 15  1  0
 14 16  1  0
 15 17  1  0
 15 18  2  0
 17 19  1  6
 17 20  1  0
M  END
