diamond-x0905_1_B-diamond-x0423_0_B
     RDKit          3D

 14 15  0  0  0  0  0  0  0  0999 V2000
   14.8220   19.2070   12.0460 O   0  0  0  0  0  0  0  0  0  0  0  0
   14.0010   20.2560   12.4620 C   0  0  1  0  0  0  0  0  0  0  0  0
   12.8840   19.6620   13.0860 N   0  0  0  0  0  0  0  0  0  0  0  0
   14.6120   21.1670   13.5270 C   0  0  0  0  0  0  0  0  0  0  0  0
   11.9510   20.5720   13.4700 C   0  0  0  0  0  0  0  0  0  0  0  0
   13.7200   22.4270   13.6470 C   0  0  1  0  0  0  0  0  0  0  0  0
   12.2660   21.8750   13.7320 C   0  0  0  0  0  0  0  0  0  0  0  0
   13.9840   23.3150   14.9040 C   0  0  0  0  0  0  0  0  0  0  0  0
   14.1710   23.2810   12.4190 C   0  0  0  0  0  0  0  0  0  0  0  0
   14.3490   24.7800   14.5490 C   0  0  1  0  0  0  0  0  0  0  0  0
   15.5800   23.8820   12.6010 C   0  0  0  0  0  0  0  0  0  0  0  0
   14.2380   25.7370   15.6570 N   0  0  0  0  0  0  0  0  0  0  0  0
   15.6720   24.8180   13.8000 C   0  0  0  0  0  0  0  0  0  0  0  0
   13.1510   26.6960   15.5460 C   0  0  0  0  0  0  0  0  0  0  0  0
  2  1  1  1
  2  3  1  0
  2  4  1  0
  3  5  1  0
  6  4  1  1
  5  7  2  0
  6  7  1  0
  6  8  1  0
  6  9  1  0
  8 10  1  0
  9 11  1  0
 10 12  1  1
 10 13  1  0
 11 13  1  0
 12 14  1  0
M  END
