diamond-x0962_2_B-diamond-x0128_0_A
     RDKit          3D

 22 24  0  0  0  0  0  0  0  0999 V2000
   -9.4650   15.1640    1.1250 N   0  0  0  0  0  0  0  0  0  0  0  0
   -8.8010   15.6490    2.3650 C   0  0  2  0  0  0  0  0  0  0  0  0
   -7.4740   14.9580    2.9690 C   0  0  1  0  0  0  0  0  0  0  0  0
   -9.4010   15.1070    3.5140 C   0  0  0  0  0  0  0  0  0  0  0  0
   -6.1950   15.1220    2.3110 N   0  0  0  0  0  0  0  0  0  0  0  0
   -7.2560   15.5610    4.3300 N   0  0  0  0  0  0  0  0  0  0  0  0
  -10.2110   15.7310    4.3890 N   0  0  0  0  0  0  0  0  0  0  0  0
   -9.2190   13.8370    3.9660 C   0  0  0  0  0  0  0  0  0  0  0  0
  -10.4750   14.8130    5.3460 C   0  0  0  0  0  0  0  0  0  0  0  0
   -9.8870   13.6570    5.1110 N   0  0  0  0  0  0  0  0  0  0  0  0
   -5.8200   15.0610    0.9940 C   0  0  0  0  0  0  0  0  0  0  0  0
   -8.1900   16.2300    5.1920 C   0  0  0  0  0  0  0  0  0  0  0  0
   -6.7450   14.7520   -0.0040 C   0  0  0  0  0  0  0  0  0  0  0  0
   -4.5010   15.3240    0.6310 C   0  0  0  0  0  0  0  0  0  0  0  0
   -8.8220   17.4120    4.6270 C   0  0  0  0  0  0  0  0  0  0  0  0
   -8.4220   15.7190    6.4860 C   0  0  0  0  0  0  0  0  0  0  0  0
   -6.3520   14.7150   -1.3440 C   0  0  0  0  0  0  0  0  0  0  0  0
   -4.1050   15.2860   -0.6990 C   0  0  0  0  0  0  0  0  0  0  0  0
   -9.6640   17.8730    5.6400 N   0  0  0  0  0  0  0  0  0  0  0  0
   -9.2920   16.3130    7.3560 C   0  0  0  0  0  0  0  0  0  0  0  0
   -5.0320   14.9840   -1.6860 C   0  0  0  0  0  0  0  0  0  0  0  0
   -9.8960   17.4050    6.8720 C   0  0  0  0  0  0  0  0  0  0  0  0
  2  1  1  6
  2  3  1  0
  2  4  1  0
  3  5  1  6
  3  6  1  0
  4  7  1  0
  4  8  2  0
  7  9  1  0
  8 10  1  0
  9 10  2  0
  5 11  1  0
  6 12  1  0
 11 13  2  0
 11 14  1  0
 12 15  2  0
 12 16  1  0
 13 17  1  0
 14 18  2  0
 15 19  1  0
 16 20  2  0
 17 21  2  0
 18 21  1  0
 19 22  2  0
 20 22  1  0
M  END
