diamond-x0742_0_A-mac-x0590
     RDKit          3D

 24 27  0  0  0  0  0  0  0  0999 V2000
   -5.4640   12.3480   -1.2330 C   0  0  0  0  0  0  0  0  0  0  0  0
   -6.3260   12.0680   -0.0210 C   0  0  0  0  0  0  0  0  0  0  0  0
   -5.6000   11.6550   -2.2370 O   0  0  0  0  0  0  0  0  0  0  0  0
   -4.3950   13.4690   -1.1900 C   0  0  2  0  0  0  0  0  0  0  0  0
   -4.6370   14.4290    0.0160 C   0  0  2  0  0  0  0  0  0  0  0  0
   -4.1020   14.2870   -2.4860 C   0  0  2  0  0  0  0  0  0  0  0  0
   -3.1640   12.6820   -0.9940 C   0  0  0  0  0  0  0  0  0  0  0  0
   -2.6090   14.4380   -2.9890 C   0  0  0  0  0  0  0  0  0  0  0  0
   -4.4680   15.8010   -0.6230 C   0  0  0  0  0  0  0  0  0  0  0  0
   -2.0340   13.4260   -0.3450 C   0  0  0  0  0  0  0  0  0  0  0  0
   -3.7090   14.1830    1.2320 C   0  0  0  0  0  0  0  0  0  0  0  0
   -4.6720   15.6200   -2.1270 C   0  0  0  0  0  0  0  0  0  0  0  0
   -1.9970   13.2720   -3.8080 C   0  0  0  0  0  0  0  0  0  0  0  0
   -0.7490   13.3880   -0.8420 C   0  0  0  0  0  0  0  0  0  0  0  0
   -2.2910   14.1640    0.7920 C   0  0  0  0  0  0  0  0  0  0  0  0
   -0.7420   13.5270   -4.6820 C   0  0  0  0  0  0  0  0  0  0  0  0
   -1.3530   14.8400    1.4810 N   0  0  0  0  0  0  0  0  0  0  0  0
    0.2370   14.0770   -0.1790 C   0  0  0  0  0  0  0  0  0  0  0  0
   -0.1030   14.7740    0.9640 C   0  0  0  0  0  0  0  0  0  0  0  0
    0.2570   12.3420   -4.7680 C   0  0  2  0  0  0  0  0  0  0  0  0
    0.7720   11.9710   -3.3700 C   0  0  0  0  0  0  0  0  0  0  0  0
    1.5420   12.6700   -5.5230 C   0  0  0  0  0  0  0  0  0  0  0  0
    2.5440   13.0200   -4.4440 C   0  0  0  0  0  0  0  0  0  0  0  0
    2.1750   12.2650   -3.2930 O   0  0  0  0  0  0  0  0  0  0  0  0
  1  2  1  0
  1  3  2  0
  4  1  1  6
  4  5  1  0
  4  6  1  0
  4  7  1  0
  6  8  1  1
  5  9  1  6
  7 10  1  0
  5 11  1  0
  6 12  1  0
  9 12  1  0
  8 13  1  0
 10 14  2  0
 10 15  1  0
 11 15  1  0
 13 16  1  0
 15 17  2  0
 14 18  1  0
 17 19  1  0
 18 19  2  0
 20 16  1  1
 20 21  1  0
 20 22  1  0
 22 23  1  0
 21 24  1  0
 23 24  1  0
M  END
