diamond-x0724_0_A-mac-x0321
     RDKit          3D

 18 19  0  0  0  0  0  0  0  0999 V2000
   -8.7270   13.7530    4.2850 N   0  0  0  0  0  0  0  0  0  0  0  0
   -8.5850   13.7270    5.7350 C   0  0  0  0  0  0  0  0  0  0  0  0
   -8.2520   15.0250    3.7520 C   0  0  0  0  0  0  0  0  0  0  0  0
   -7.7140   14.8290    2.3790 C   0  0  0  0  0  0  0  0  0  0  0  0
   -6.3970   14.8690    1.9780 C   0  0  0  0  0  0  0  0  0  0  0  0
   -8.4030   14.5710    1.1780 C   0  0  0  0  0  0  0  0  0  0  0  0
   -7.5870   14.4680    0.1250 N   0  0  0  0  0  0  0  0  0  0  0  0
   -6.3410   14.6560    0.6120 N   0  0  0  0  0  0  0  0  0  0  0  0
   -5.1650   14.6410   -0.2050 C   0  0  0  0  0  0  0  0  0  0  0  0
   -3.8780   14.8150    0.3190 C   0  0  0  0  0  0  0  0  0  0  0  0
   -5.2880   14.4500   -1.5900 C   0  0  0  0  0  0  0  0  0  0  0  0
   -3.5360   15.0630    1.9660 Cl  0  0  0  0  0  0  0  0  0  0  0  0
   -2.7520   14.7990   -0.5060 C   0  0  0  0  0  0  0  0  0  0  0  0
   -4.1650   14.4350   -2.4180 C   0  0  0  0  0  0  0  0  0  0  0  0
   -2.8990   14.6080   -1.8750 C   0  0  0  0  0  0  0  0  0  0  0  0
   -1.7130   14.5890   -2.7480 C   0  0  0  0  0  0  0  0  0  0  0  0
   -0.5540   14.6020   -2.0630 O   0  0  0  0  0  0  0  0  0  0  0  0
   -1.7870   14.5580   -3.9620 O   0  0  0  0  0  0  0  0  0  0  0  0
  1  2  1  0
  1  3  1  0
  3  4  1  0
  4  5  2  0
  4  6  1  0
  6  7  2  0
  5  8  1  0
  7  8  1  0
  8  9  1  0
  9 10  2  0
  9 11  1  0
 10 12  1  0
 10 13  1  0
 11 14  2  0
 13 15  2  0
 14 15  1  0
 15 16  1  0
 16 17  1  0
 16 18  2  0
M  END
