diamond-x0253_0_A-mac-x0338
     RDKit          3D

 26 27  0  0  0  0  0  0  0  0999 V2000
    0.3440   11.8470   -5.2230 N   0  0  0  0  0  0  0  0  0  0  0  0
    1.0410   11.6670   -6.4120 C   0  0  0  0  0  0  0  0  0  0  0  0
    2.1200   12.2190   -6.5690 O   0  0  0  0  0  0  0  0  0  0  0  0
    0.9910   12.4420   -4.0450 C   0  0  0  0  0  0  0  0  0  0  0  0
    0.6050   11.7750   -2.7010 C   0  0  0  0  0  0  0  0  0  0  0  0
    0.4400   10.7520   -7.4400 C   0  0  0  0  0  0  0  0  0  0  0  0
    0.5050   12.4230   -1.5860 N   0  0  0  0  0  0  0  0  0  0  0  0
    0.3620   10.4430   -2.7140 O   0  0  0  0  0  0  0  0  0  0  0  0
   -0.5430    9.8270   -7.0780 C   0  0  0  0  0  0  0  0  0  0  0  0
    0.8480   10.8020   -8.7850 C   0  0  0  0  0  0  0  0  0  0  0  0
    0.7470   13.8560   -1.4950 C   0  0  0  0  0  0  0  0  0  0  0  0
   -1.1100    8.9700   -8.0330 C   0  0  0  0  0  0  0  0  0  0  0  0
    0.2910    9.9550   -9.7370 C   0  0  0  0  0  0  0  0  0  0  0  0
   -2.1610    7.9880   -7.6130 C   0  0  0  0  0  0  0  0  0  0  0  0
   -0.5720   14.5000   -1.0830 C   0  0  0  0  0  0  0  0  0  0  0  0
   -0.6860    9.0410   -9.3650 C   0  0  0  0  0  0  0  0  0  0  0  0
   -1.5430   14.5820   -2.2690 C   0  0  0  0  0  0  0  0  0  0  0  0
   -2.9880   14.7990   -1.8720 C   0  0  0  0  0  0  0  0  0  0  0  0
   -3.3120   14.8610   -0.5540 N   0  0  0  0  0  0  0  0  0  0  0  0
   -3.9630   14.9230   -2.8590 C   0  0  0  0  0  0  0  0  0  0  0  0
   -4.6460   15.0510   -0.3010 C   0  0  0  0  0  0  0  0  0  0  0  0
   -5.2770   15.1070   -2.5960 N   0  0  0  0  0  0  0  0  0  0  0  0
   -5.0690   15.1250    1.1070 C   0  0  0  0  0  0  0  0  0  0  0  0
   -5.5970   15.1730   -1.2880 C   0  0  0  0  0  0  0  0  0  0  0  0
   -4.0720   15.3660    1.9870 N   0  0  0  0  0  0  0  0  0  0  0  0
   -6.2380   14.9640    1.4470 O   0  0  0  0  0  0  0  0  0  0  0  0
  1  2  1  0
  2  3  2  0
  1  4  1  0
  4  5  1  0
  2  6  1  0
  5  7  2  3
  5  8  1  0
  6  9  2  0
  6 10  1  0
  7 11  1  0
  9 12  1  0
 10 13  2  0
 12 14  1  0
 11 15  1  0
 12 16  2  0
 13 16  1  0
 15 17  1  0
 17 18  1  0
 18 19  2  0
 18 20  1  0
 19 21  1  0
 20 22  2  0
 21 23  1  0
 21 24  2  0
 22 24  1  0
 23 25  1  0
 23 26  2  0
M  END
