diamond-x0465_0_A-mac-x0190
     RDKit          3D

 27 29  0  0  0  0  0  0  0  0999 V2000
    1.9820   13.1250   -4.1420 C   0  0  0  0  0  0  0  0  0  0  0  0
    0.6220   12.4230   -4.0900 C   0  0  1  0  0  0  0  0  0  0  0  0
    0.5840   11.4920   -5.1970 O   0  0  0  0  0  0  0  0  0  0  0  0
    0.4760   11.6390   -2.7480 C   0  0  0  0  0  0  0  0  0  0  0  0
    0.2910   12.1350   -1.5710 N   0  0  0  0  0  0  0  0  0  0  0  0
    0.5250   10.2930   -2.8080 O   0  0  0  0  0  0  0  0  0  0  0  0
   -0.5400   10.7820   -5.5410 C   0  0  0  0  0  0  0  0  0  0  0  0
    0.1550   13.5310   -1.2290 C   0  0  0  0  0  0  0  0  0  0  0  0
   -0.6560    9.7940   -6.5290 C   0  0  0  0  0  0  0  0  0  0  0  0
   -1.6860   11.1070   -4.7990 C   0  0  0  0  0  0  0  0  0  0  0  0
    0.3820    9.4180   -7.2920 F   0  0  0  0  0  0  0  0  0  0  0  0
   -0.9340   13.5790   -0.1470 C   0  0  0  0  0  0  0  0  0  0  0  0
   -1.8640    9.1460   -6.7700 C   0  0  0  0  0  0  0  0  0  0  0  0
   -2.9010   10.4560   -5.0400 C   0  0  0  0  0  0  0  0  0  0  0  0
   -1.6390   14.9080   -0.0810 C   0  0  0  0  0  0  0  0  0  0  0  0
   -2.9920    9.4780   -6.0220 C   0  0  0  0  0  0  0  0  0  0  0  0
   -3.1570   14.9350   -0.2530 C   0  0  0  0  0  0  0  0  0  0  0  0
   -3.7220   15.2880   -1.4940 C   0  0  0  0  0  0  0  0  0  0  0  0
   -4.0150   14.6090    0.8160 C   0  0  0  0  0  0  0  0  0  0  0  0
   -5.4120   14.6320    0.6150 C   0  0  0  0  0  0  0  0  0  0  0  0
   -5.1070   15.3180   -1.7050 C   0  0  0  0  0  0  0  0  0  0  0  0
   -5.9170   14.9800   -0.6290 C   0  0  0  0  0  0  0  0  0  0  0  0
   -6.4450   14.3490    1.4810 N   0  0  0  0  0  0  0  0  0  0  0  0
   -7.5570   14.5090    0.7960 C   0  0  0  0  0  0  0  0  0  0  0  0
   -7.2780   14.8960   -0.4890 N   0  0  0  0  0  0  0  0  0  0  0  0
   -8.9500   14.3160    1.2720 C   0  0  0  0  0  0  0  0  0  0  0  0
   -9.1570   15.1730    2.3870 O   0  0  0  0  0  0  0  0  0  0  0  0
  2  1  1  1
  2  3  1  0
  2  4  1  0
  4  5  2  3
  4  6  1  0
  3  7  1  0
  5  8  1  0
  7  9  2  0
  7 10  1  0
  9 11  1  0
  8 12  1  0
  9 13  1  0
 10 14  2  0
 12 15  1  0
 13 16  2  0
 14 16  1  0
 15 17  1  0
 17 18  2  0
 17 19  1  0
 19 20  2  0
 18 21  1  0
 20 22  1  0
 21 22  2  0
 20 23  1  0
 23 24  2  0
 22 25  1  0
 24 25  1  0
 24 26  1  0
 26 27  1  0
M  END
