diamond-x0685_1_A-mac-x0284
     RDKit          3D

 22 23  0  0  0  0  0  0  0  0999 V2000
   -1.4350   10.6380   -5.0570 N   0  0  0  0  0  0  0  0  0  0  0  0
   -0.9810   12.0370   -4.9740 C   0  0  0  0  0  0  0  0  0  0  0  0
    0.5010   12.1470   -4.6270 C   0  0  0  0  0  0  0  0  0  0  0  0
   -1.4000   10.0550   -6.4020 C   0  0  0  0  0  0  0  0  0  0  0  0
   -0.0970    9.2850   -6.6510 C   0  0  0  0  0  0  0  0  0  0  0  0
   -1.5710   11.1330   -7.4800 C   0  0  0  0  0  0  0  0  0  0  0  0
    0.7220   12.0020   -2.8870 S   0  0  0  0  0  0  0  0  0  0  0  0
   -0.0790    8.5070   -7.9590 C   0  0  0  0  0  0  0  0  0  0  0  0
   -1.1130   10.6390   -8.8570 C   0  0  0  0  0  0  0  0  0  0  0  0
    2.1380   12.6220   -2.5030 O   0  0  0  0  0  0  0  0  0  0  0  0
    0.4400   10.4960   -2.4200 O   0  0  0  0  0  0  0  0  0  0  0  0
   -0.4270   12.8700   -2.3800 N   0  0  0  0  0  0  0  0  0  0  0  0
   -1.0270    9.1120   -8.9860 C   0  0  0  0  0  0  0  0  0  0  0  0
   -0.6080   14.1160   -2.2250 C   0  0  0  0  0  0  0  0  0  0  0  0
   -1.9060   14.6400   -1.8580 C   0  0  0  0  0  0  0  0  0  0  0  0
   -2.3430   14.8740   -0.5670 C   0  0  0  0  0  0  0  0  0  0  0  0
   -2.7400   14.8860   -2.9490 C   0  0  0  0  0  0  0  0  0  0  0  0
   -2.2950   14.6540   -4.2270 O   0  0  0  0  0  0  0  0  0  0  0  0
   -3.6400   15.3640   -0.3620 C   0  0  0  0  0  0  0  0  0  0  0  0
   -4.0190   15.3590   -2.7540 C   0  0  0  0  0  0  0  0  0  0  0  0
   -4.1160   15.6260    1.0300 C   0  0  0  0  0  0  0  0  0  0  0  0
   -4.4710   15.6010   -1.4630 C   0  0  0  0  0  0  0  0  0  0  0  0
  1  2  1  0
  2  3  1  0
  1  4  1  0
  4  5  1  0
  4  6  1  0
  3  7  1  0
  5  8  1  0
  6  9  1  0
  7 10  1  0
  7 11  1  0
  7 12  1  0
  8 13  1  0
  9 13  1  0
 12 14  2  3
 14 15  1  0
 15 16  2  0
 15 17  1  0
 17 18  1  0
 16 19  1  0
 17 20  2  0
 19 21  1  0
 19 22  2  0
 20 22  1  0
M  END
