diamond-x0837_0_A-diamond-x0962_1_A
     RDKit          3D

  9  9  0  0  0  0  0  0  0  0999 V2000
   -7.6830   14.7350    0.2700 O   0  0  0  0  0  0  0  0  0  0  0  0
   -6.4330   14.7340    0.3540 C   0  0  0  0  0  0  0  0  0  0  0  0
   -5.8150   14.9090    1.6250 N   0  0  0  0  0  0  0  0  0  0  0  0
   -5.6200   14.5510   -0.8600 C   0  0  0  0  0  0  0  0  0  0  0  0
   -4.4670   15.3680    1.5950 C   0  0  0  0  0  0  0  0  0  0  0  0
   -4.2640   14.2410   -0.4210 C   0  0  1  0  0  0  0  0  0  0  0  0
   -3.0710   14.7600   -2.2950 I   0  0  0  0  0  0  0  0  0  0  0  0
   -3.6840   15.0500    0.6010 C   0  0  0  0  0  0  0  0  0  0  0  0
   -3.3830   15.5620   -3.6420 C   0  0  0  0  0  0  0  0  0  0  0  0
  1  2  2  0
  2  3  1  0
  2  4  1  0
  3  5  1  0
  4  6  1  0
  6  7  1  6
  5  8  2  0
  6  8  1  0
  7  9  3  0
M  END
