diamond-x0587_0_A-mac-x0394
     RDKit          3D

 27 28  0  0  0  0  0  0  0  0999 V2000
   -7.8780   14.9590    4.1560 N   0  0  0  0  0  0  0  0  0  0  0  0
   -8.3690   14.9130    2.8820 C   0  0  0  0  0  0  0  0  0  0  0  0
   -9.5690   15.0040    2.6620 O   0  0  0  0  0  0  0  0  0  0  0  0
   -7.4140   14.7740    1.7790 C   0  0  0  0  0  0  0  0  0  0  0  0
   -7.7630   14.5580    0.4660 C   0  0  0  0  0  0  0  0  0  0  0  0
   -6.0620   14.8690    2.0200 C   0  0  0  0  0  0  0  0  0  0  0  0
   -6.8630   14.4470   -0.5340 N   0  0  0  0  0  0  0  0  0  0  0  0
   -5.1180   14.7680    1.0630 N   0  0  0  0  0  0  0  0  0  0  0  0
   -5.5540   14.5600   -0.1970 C   0  0  0  0  0  0  0  0  0  0  0  0
   -4.4940   14.4490   -1.2950 C   0  0  0  0  0  0  0  0  0  0  0  0
   -3.2500   14.7910   -0.8420 F   0  0  0  0  0  0  0  0  0  0  0  0
   -4.3600   13.1870   -1.7990 F   0  0  0  0  0  0  0  0  0  0  0  0
   -4.7370   15.3260   -2.3840 O   0  0  0  0  0  0  0  0  0  0  0  0
   -3.6070   15.3050   -3.2310 C   0  0  0  0  0  0  0  0  0  0  0  0
   -4.0240   14.7470   -4.5730 C   0  0  0  0  0  0  0  0  0  0  0  0
   -3.1790   15.3800   -5.6600 C   0  0  0  0  0  0  0  0  0  0  0  0
   -1.7190   15.4600   -5.2740 C   0  0  0  0  0  0  0  0  0  0  0  0
   -0.9800   14.3010   -4.9730 C   0  0  0  0  0  0  0  0  0  0  0  0
   -1.0810   16.6930   -5.2230 C   0  0  0  0  0  0  0  0  0  0  0  0
    0.3840   14.3680   -4.6280 C   0  0  0  0  0  0  0  0  0  0  0  0
    0.2610   16.7590   -4.8850 C   0  0  0  0  0  0  0  0  0  0  0  0
    0.9970   18.2840   -4.8480 Cl  0  0  0  0  0  0  0  0  0  0  0  0
    1.1660   13.1140   -4.3100 C   0  0  0  0  0  0  0  0  0  0  0  0
    0.9990   15.6200   -4.5870 C   0  0  0  0  0  0  0  0  0  0  0  0
    0.8580   12.5080   -2.9520 C   0  0  0  0  0  0  0  0  0  0  0  0
    0.4050   11.2330   -3.0350 O   0  0  0  0  0  0  0  0  0  0  0  0
    0.9840   13.0610   -1.8740 O   0  0  0  0  0  0  0  0  0  0  0  0
  1  2  1  0
  2  3  2  0
  2  4  1  0
  4  5  2  0
  4  6  1  0
  5  7  1  0
  6  8  2  0
  7  9  2  0
  8  9  1  0
  9 10  1  0
 10 11  1  0
 10 12  1  0
 10 13  1  0
 13 14  1  0
 14 15  1  0
 15 16  1  0
 16 17  1  0
 17 18  2  0
 17 19  1  0
 18 20  1  0
 19 21  2  0
 21 22  1  0
 20 23  1  0
 20 24  2  0
 21 24  1  0
 23 25  1  0
 25 26  1  0
 25 27  2  0
M  END
