diamond-x0253_0_A-mac-x0590
     RDKit          3D

 31 34  0  0  0  0  0  0  0  0999 V2000
    0.0980   12.2970   -1.0020 O   0  0  0  0  0  0  0  0  0  0  0  0
    0.0160   11.7780   -2.2950 C   0  0  0  0  0  0  0  0  0  0  0  0
   -1.3790   11.4400   -2.6960 C   0  0  0  0  0  0  0  0  0  0  0  0
    0.6900   10.5380   -2.3140 O   0  0  0  0  0  0  0  0  0  0  0  0
    0.5850   12.8170   -3.2100 C   0  0  2  0  0  0  0  0  0  0  0  0
   -0.0560   12.7520   -4.6030 C   0  0  2  0  0  0  0  0  0  0  0  0
    2.0210   12.6630   -3.2780 O   0  0  0  0  0  0  0  0  0  0  0  0
    1.0860   12.0430   -5.2150 C   0  0  2  0  0  0  0  0  0  0  0  0
    2.2520   12.8400   -4.6500 C   0  0  0  0  0  0  0  0  0  0  0  0
   -0.4580   14.1390   -5.0950 C   0  0  0  0  0  0  0  0  0  0  0  0
    1.3090   11.7810   -6.6420 C   0  0  0  0  0  0  0  0  0  0  0  0
   -1.6740   14.7070   -4.3430 C   0  0  0  0  0  0  0  0  0  0  0  0
    2.2510   12.3500   -7.0320 O   0  0  0  0  0  0  0  0  0  0  0  0
    0.5630   10.8440   -7.5600 C   0  0  0  0  0  0  0  0  0  0  0  0
   -1.3160   15.5700   -3.1140 C   0  0  0  0  0  0  0  0  0  0  0  0
   -0.4100    9.9750   -7.0460 C   0  0  0  0  0  0  0  0  0  0  0  0
    0.8310   10.8110   -8.9380 C   0  0  0  0  0  0  0  0  0  0  0  0
   -2.1940   15.3590   -1.9550 N   0  0  0  0  0  0  0  0  0  0  0  0
   -1.0970    9.0920   -7.8990 C   0  0  0  0  0  0  0  0  0  0  0  0
    0.1530    9.9400   -9.7830 C   0  0  0  0  0  0  0  0  0  0  0  0
   -3.5870   15.1320   -2.2520 C   0  0  0  0  0  0  0  0  0  0  0  0
   -1.6210   14.5400   -0.8970 C   0  0  2  0  0  0  0  0  0  0  0  0
   -2.1370    8.1620   -7.3480 C   0  0  0  0  0  0  0  0  0  0  0  0
   -0.8100    9.0830   -9.2670 C   0  0  0  0  0  0  0  0  0  0  0  0
   -4.4060   15.1170   -1.0310 N   0  0  0  0  0  0  0  0  0  0  0  0
   -2.4350   14.5660    0.4020 C   0  0  2  0  0  0  0  0  0  0  0  0
   -0.2710   14.9760   -0.5290 N   0  0  0  0  0  0  0  0  0  0  0  0
   -3.6730   15.4600    0.1760 C   0  0  2  0  0  0  0  0  0  0  0  0
   -1.5080   15.1140    1.4000 N   0  0  0  0  0  0  0  0  0  0  0  0
   -0.2070   14.7510    0.8980 C   0  0  0  0  0  0  0  0  0  0  0  0
   -4.6830   15.3920    1.2250 N   0  0  0  0  0  0  0  0  0  0  0  0
  2  1  1  0
  2  3  1  0
  2  4  1  0
  5  2  1  1
  5  6  1  0
  5  7  1  0
  6  8  1  0
  7  9  1  0
  8  9  1  0
  6 10  1  6
  8 11  1  6
 10 12  1  0
 11 13  2  0
 11 14  1  0
 12 15  1  0
 14 16  2  0
 14 17  1  0
 15 18  1  0
 16 19  1  0
 17 20  2  0
 18 21  1  0
 18 22  1  0
 19 23  1  0
 19 24  2  0
 20 24  1  0
 21 25  1  0
 22 26  1  0
 22 27  1  1
 25 28  1  0
 26 28  1  0
 26 29  1  1
 27 30  1  0
 29 30  1  0
 28 31  1  1
M  END
