diamond-x0844_0_A-diamond-x0895_0_A
     RDKit          3D

  9  9  0  0  0  0  0  0  0  0999 V2000
   -7.4450   14.7050   -0.2000 O   0  0  0  0  0  0  0  0  0  0  0  0
   -6.2410   14.8700   -0.0290 C   0  0  0  0  0  0  0  0  0  0  0  0
   -5.6740   15.0700    1.1940 N   0  0  0  0  0  0  0  0  0  0  0  0
   -5.3440   14.8680   -1.1970 C   0  0  0  0  0  0  0  0  0  0  0  0
   -4.3970   15.0700    1.3600 C   0  0  0  0  0  0  0  0  0  0  0  0
   -4.0110   14.8470   -1.0900 C   0  0  0  0  0  0  0  0  0  0  0  0
   -2.9200   14.8200   -2.5930 Br  0  0  0  0  0  0  0  0  0  0  0  0
   -3.4190   14.8320    0.2710 C   0  0  0  0  0  0  0  0  0  0  0  0
   -2.2420   14.6250    0.5840 O   0  0  0  0  0  0  0  0  0  0  0  0
  1  2  2  0
  2  3  1  0
  2  4  1  0
  3  5  2  0
  4  6  2  0
  6  7  1  0
  5  8  1  0
  6  8  1  0
  8  9  2  0
M  END
