diamond-x0933_4_B-diamond-x0301_0_B
     RDKit          3D

 20 21  0  0  0  0  0  0  0  0999 V2000
   17.4100   32.8090    8.3470 N   0  0  0  0  0  0  0  0  0  0  0  0
   17.4110   31.4470    7.9280 C   0  0  2  0  0  0  0  0  0  0  0  0
   16.1820   31.2690    7.2210 N   0  0  0  0  0  0  0  0  0  0  0  0
   17.3730   30.7120    9.1550 N   0  0  0  0  0  0  0  0  0  0  0  0
   16.7720   29.3690    8.9980 C   0  0  0  0  0  0  0  0  0  0  0  0
   15.9970   29.8900    6.7440 C   0  0  0  0  0  0  0  0  0  0  0  0
   16.8510   28.9020    7.5420 C   0  0  1  0  0  0  0  0  0  0  0  0
   18.3130   28.7540    7.0420 C   0  0  0  0  0  0  0  0  0  0  0  0
   18.5440   28.7270    5.5810 N   0  0  0  0  0  0  0  0  0  0  0  0
   19.3580   27.7760    4.9480 C   0  0  0  0  0  0  0  0  0  0  0  0
   18.2620   29.9070    4.8980 C   0  0  0  0  0  0  0  0  0  0  0  0
   19.5920   27.7510    3.7370 O   0  0  0  0  0  0  0  0  0  0  0  0
   20.0130   26.6990    5.8270 C   0  0  0  0  0  0  0  0  0  0  0  0
   18.6290   30.1320    3.5840 N   0  0  0  0  0  0  0  0  0  0  0  0
   17.6170   30.9460    5.4130 N   0  0  0  0  0  0  0  0  0  0  0  0
   21.4250   27.1610    6.1900 C   0  0  0  0  0  0  0  0  0  0  0  0
   20.0820   25.3740    5.0780 C   0  0  0  0  0  0  0  0  0  0  0  0
   17.6000   31.7840    4.3910 N   0  0  0  0  0  0  0  0  0  0  0  0
   18.1930   31.3480    3.2710 N   0  0  0  0  0  0  0  0  0  0  0  0
   16.9770   33.0690    4.5180 C   0  0  0  0  0  0  0  0  0  0  0  0
  2  1  1  1
  2  3  1  0
  2  4  1  0
  4  5  1  0
  3  6  1  0
  5  7  1  0
  6  7  1  0
  7  8  1  6
  8  9  1  0
  9 10  1  0
  9 11  1  0
 10 12  2  0
 10 13  1  0
 11 14  1  0
 11 15  2  0
 13 16  1  0
 13 17  1  0
 15 18  1  0
 14 19  2  0
 18 19  1  0
 18 20  1  0
M  END
