diamond-x0685_0_A-mac-x0365
     RDKit          3D

 14 14  0  0  0  0  0  0  0  0999 V2000
   -6.1650   15.0380    2.2630 N   0  0  0  0  0  0  0  0  0  0  0  0
   -7.5660   14.6790    2.5280 C   0  0  0  0  0  0  0  0  0  0  0  0
   -7.7480   13.2660    3.0680 C   0  0  0  0  0  0  0  0  0  0  0  0
   -5.4790   14.2300    1.2480 C   0  0  2  0  0  0  0  0  0  0  0  0
   -4.0200   14.6540    1.2190 C   0  0  0  0  0  0  0  0  0  0  0  0
   -6.2100   14.2730   -0.0420 N   0  0  0  0  0  0  0  0  0  0  0  0
   -7.2750   15.2740   -0.0560 O   0  0  0  0  0  0  0  0  0  0  0  0
   -3.4020   15.1470    0.1630 C   0  0  0  0  0  0  0  0  0  0  0  0
   -5.3830   14.4500   -1.2540 C   0  0  1  0  0  0  0  0  0  0  0  0
   -6.1840   14.9750   -2.2340 F   0  0  0  0  0  0  0  0  0  0  0  0
   -4.1320   15.3450   -1.1420 C   0  0  2  0  0  0  0  0  0  0  0  0
   -3.1660   15.1740   -2.3440 C   0  0  2  0  0  0  0  0  0  0  0  0
   -3.5430   14.1900   -3.3140 N   0  0  0  0  0  0  0  0  0  0  0  0
   -1.8360   14.8570   -1.9320 O   0  0  0  0  0  0  0  0  0  0  0  0
  1  2  1  0
  2  3  1  0
  4  1  1  1
  4  5  1  0
  4  6  1  0
  6  7  1  0
  5  8  2  0
  6  9  1  0
  9 10  1  6
 11  8  1  1
  9 11  1  0
 11 12  1  0
 12 13  1  6
 12 14  1  0
M  END
