diamond-x0496_0_A-mac-x0511
     RDKit          3D

 24 26  0  0  0  0  0  0  0  0999 V2000
    0.9870   41.4090    0.4300 C   0  0  0  0  0  0  0  0  0  0  0  0
    2.4700   41.7510    0.2080 C   0  0  0  0  0  0  0  0  0  0  0  0
    2.5240   42.8600   -0.8690 C   0  0  0  0  0  0  0  0  0  0  0  0
    3.2880   40.5460   -0.2510 C   0  0  0  0  0  0  0  0  0  0  0  0
    3.2300   42.1680    1.5060 C   0  0  2  0  0  0  0  0  0  0  0  0
    4.0120   40.5990   -1.3830 N   0  0  0  0  0  0  0  0  0  0  0  0
    3.2430   39.4780    0.5480 N   0  0  0  0  0  0  0  0  0  0  0  0
    4.1780   43.3280    1.2330 C   0  0  0  0  0  0  0  0  0  0  0  0
    4.0090   41.0330    2.0140 N   0  0  0  0  0  0  0  0  0  0  0  0
    4.7210   39.4950   -1.6910 C   0  0  0  0  0  0  0  0  0  0  0  0
    3.9640   38.3920    0.2090 C   0  0  0  0  0  0  0  0  0  0  0  0
    5.2540   40.7400    1.2690 C   0  0  0  0  0  0  0  0  0  0  0  0
    4.8560   42.9580   -0.0630 C   0  0  1  0  0  0  0  0  0  0  0  0
    3.7860   37.3060    1.2180 C   0  0  0  0  0  0  0  0  0  0  0  0
    4.7440   38.3470   -0.9310 C   0  0  0  0  0  0  0  0  0  0  0  0
    5.5850   44.0870   -0.7000 C   0  0  0  0  0  0  0  0  0  0  0  0
    5.7200   41.7230    0.1610 C   0  0  0  0  0  0  0  0  0  0  0  0
    4.6060   36.4130    1.3610 O   0  0  0  0  0  0  0  0  0  0  0  0
    5.7130   37.0450   -1.4790 Cl  0  0  0  0  0  0  0  0  0  0  0  0
    2.6600   37.3170    1.9990 N   0  0  0  0  0  0  0  0  0  0  0  0
    5.3770   45.4460   -0.6730 C   0  0  0  0  0  0  0  0  0  0  0  0
    6.6860   43.8930   -1.4880 N   0  0  0  0  0  0  0  0  0  0  0  0
    6.4010   45.9790   -1.4720 C   0  0  0  0  0  0  0  0  0  0  0  0
    7.2000   45.0320   -1.9690 N   0  0  0  0  0  0  0  0  0  0  0  0
  2  1  1  0
  2  3  1  0
  2  4  1  0
  5  2  1  6
  4  6  2  0
  4  7  1  0
  5  8  1  0
  5  9  1  0
  6 10  1  0
  7 11  2  0
  9 12  1  0
  8 13  1  0
 11 14  1  0
 10 15  2  0
 11 15  1  0
 13 16  1  1
 12 17  1  0
 13 17  1  0
 14 18  2  0
 15 19  1  0
 14 20  1  0
 16 21  2  0
 16 22  1  0
 21 23  1  0
 22 24  1  0
 23 24  2  0
M  END
