diamond-x0844_0_A-diamond-x0895_1_A
     RDKit          3D

  9  9  0  0  0  0  0  0  0  0999 V2000
   -7.4740   14.7320   -0.1970 O   0  0  0  0  0  0  0  0  0  0  0  0
   -6.2640   14.8660   -0.0360 C   0  0  0  0  0  0  0  0  0  0  0  0
   -5.6800   15.0370    1.1880 N   0  0  0  0  0  0  0  0  0  0  0  0
   -5.3860   14.8520   -1.2150 C   0  0  0  0  0  0  0  0  0  0  0  0
   -4.4040   15.0940    1.3340 C   0  0  0  0  0  0  0  0  0  0  0  0
   -4.0530   14.8910   -1.1300 C   0  0  0  0  0  0  0  0  0  0  0  0
   -2.9850   14.8440   -2.6510 Br  0  0  0  0  0  0  0  0  0  0  0  0
   -3.4360   14.9620    0.2170 C   0  0  0  0  0  0  0  0  0  0  0  0
   -2.2350   14.9200    0.4890 O   0  0  0  0  0  0  0  0  0  0  0  0
  1  2  2  0
  2  3  1  0
  2  4  1  0
  3  5  2  0
  4  6  2  0
  6  7  1  0
  5  8  1  0
  6  8  1  0
  8  9  2  0
M  END
