diamond-x0371_0_A-diamond-x1012_0_A
     RDKit          3D

 32 35  0  0  0  0  0  0  0  0999 V2000
   -8.0980   14.4270    3.0320 N   0  0  0  0  0  0  0  0  0  0  0  0
   -8.7510   15.4680    3.6440 C   0  0  0  0  0  0  0  0  0  0  0  0
   -9.3950   16.3050    3.0110 O   0  0  0  0  0  0  0  0  0  0  0  0
   -8.3840   14.1180    1.6570 C   0  0  0  0  0  0  0  0  0  0  0  0
   -7.1580   14.4660    0.9240 C   0  0  0  0  0  0  0  0  0  0  0  0
   -8.6250   15.4870    5.0780 C   0  0  0  0  0  0  0  0  0  0  0  0
   -5.9680   14.5540    1.5870 N   0  0  0  0  0  0  0  0  0  0  0  0
   -7.0120   14.7260   -0.3630 N   0  0  0  0  0  0  0  0  0  0  0  0
   -8.0480   14.4160    5.7050 O   0  0  0  0  0  0  0  0  0  0  0  0
   -8.9920   16.4250    6.0170 C   0  0  0  0  0  0  0  0  0  0  0  0
   -5.6710   14.9850   -0.5130 C   0  0  0  0  0  0  0  0  0  0  0  0
   -5.0070   14.8840    0.7040 C   0  0  0  0  0  0  0  0  0  0  0  0
   -8.6210   15.9010    7.2790 C   0  0  0  0  0  0  0  0  0  0  0  0
   -8.0490   14.6770    7.0330 C   0  0  0  0  0  0  0  0  0  0  0  0
   -3.6520   15.0900    0.8910 C   0  0  0  0  0  0  0  0  0  0  0  0
   -4.9310   15.3100   -1.6480 C   0  0  0  0  0  0  0  0  0  0  0  0
   -2.9350   15.4090   -0.2450 C   0  0  0  0  0  0  0  0  0  0  0  0
   -3.5530   15.5130   -1.4890 C   0  0  0  0  0  0  0  0  0  0  0  0
   -2.6720   15.8440   -2.6280 C   0  0  0  0  0  0  0  0  0  0  0  0
   -3.3010   15.9730   -3.9980 C   0  0  0  0  0  0  0  0  0  0  0  0
   -2.2910   15.3790   -4.6810 N   0  0  0  0  0  0  0  0  0  0  0  0
   -1.2130   16.0070   -4.7780 C   0  0  0  0  0  0  0  0  0  0  0  0
   -1.1030   17.2930   -4.3150 N   0  0  0  0  0  0  0  0  0  0  0  0
   -0.1340   15.4530   -5.2750 N   0  0  0  0  0  0  0  0  0  0  0  0
   -0.4210   14.0480   -5.5900 C   0  0  0  0  0  0  0  0  0  0  0  0
    1.0830   15.6180   -4.4740 C   0  0  0  0  0  0  0  0  0  0  0  0
   -0.6550   13.2980   -4.2990 C   0  0  0  0  0  0  0  0  0  0  0  0
    1.1720   14.6810   -3.2540 C   0  0  0  0  0  0  0  0  0  0  0  0
    0.6610   13.2620   -3.5520 C   0  0  0  0  0  0  0  0  0  0  0  0
    0.5240   12.4120   -2.3170 C   0  0  0  0  0  0  0  0  0  0  0  0
    0.2170   11.1320   -2.5960 O   0  0  0  0  0  0  0  0  0  0  0  0
    0.6470   12.7720   -1.1640 O   0  0  0  0  0  0  0  0  0  0  0  0
  1  2  1  0
  2  3  2  0
  1  4  1  0
  4  5  1  0
  2  6  1  0
  5  7  1  0
  5  8  2  0
  6  9  1  0
  6 10  2  0
  8 11  1  0
  7 12  1  0
 11 12  2  0
 10 13  1  0
  9 14  1  0
 13 14  2  0
 12 15  1  0
 11 16  1  0
 15 17  2  0
 16 18  2  0
 17 18  1  0
 18 19  1  0
 19 20  1  0
 20 21  1  0
 21 22  2  3
 22 23  1  0
 22 24  1  0
 24 25  1  0
 24 26  1  0
 25 27  1  0
 26 28  1  0
 27 29  1  0
 28 29  1  0
 29 30  1  0
 30 31  1  0
 30 32  2  0
M  END
