diamond-x0910_1_A-diamond-x0724_0_A
     RDKit          3D

 14 15  0  0  0  0  0  0  0  0999 V2000
   -8.2620   13.4260    0.0480 N   0  0  0  0  0  0  0  0  0  0  0  0
   -7.6980   14.6930    0.3510 C   0  0  2  0  0  0  0  0  0  0  0  0
   -7.1870   15.2390   -0.8960 N   0  0  0  0  0  0  0  0  0  0  0  0
   -6.6130   14.4440    1.2290 N   0  0  0  0  0  0  0  0  0  0  0  0
   -6.9480   14.9390    2.5940 C   0  0  0  0  0  0  0  0  0  0  0  0
   -5.8500   15.7490   -0.5760 N   0  0  0  0  0  0  0  0  0  0  0  0
   -5.3930   14.7550    0.3770 C   0  0  0  0  0  0  0  0  0  0  0  0
   -7.3860   13.8280    3.4650 N   0  0  0  0  0  0  0  0  0  0  0  0
   -4.1440   15.2380    1.0770 C   0  0  0  0  0  0  0  0  0  0  0  0
   -4.9980   13.6720   -0.6250 C   0  0  0  0  0  0  0  0  0  0  0  0
   -8.1400   14.2780    4.6450 C   0  0  0  0  0  0  0  0  0  0  0  0
   -2.9470   15.2350    0.4470 C   0  0  0  0  0  0  0  0  0  0  0  0
   -3.8090   13.6840   -1.2570 C   0  0  0  0  0  0  0  0  0  0  0  0
   -2.8090   14.7610   -0.9770 C   0  0  0  0  0  0  0  0  0  0  0  0
  2  1  1  6
  2  3  1  0
  2  4  1  0
  4  5  1  0
  3  6  1  0
  4  7  1  0
  6  7  1  0
  5  8  1  0
  7  9  1  0
  7 10  1  0
  8 11  1  0
  9 12  2  0
 10 13  2  0
 12 14  1  0
 13 14  1  0
M  END
