diamond-x0091_0_B-diamond-x0737_0_B
     RDKit          3D

 32 34  0  0  0  0  0  0  0  0999 V2000
   12.5260   20.9330   13.5320 N   0  0  0  0  0  0  0  0  0  0  0  0
   12.1100   21.8360   14.5950 C   0  0  0  0  0  0  0  0  0  0  0  0
   12.0610   19.5570   13.6740 C   0  0  0  0  0  0  0  0  0  0  0  0
   13.6650   21.1090   12.7770 C   0  0  0  0  0  0  0  0  0  0  0  0
   13.7510   20.8120   11.5910 O   0  0  0  0  0  0  0  0  0  0  0  0
   14.7000   21.6260   13.4920 N   0  0  0  0  0  0  0  0  0  0  0  0
   13.0240   18.6720   14.4150 C   0  0  0  0  0  0  0  0  0  0  0  0
   12.5630   17.7170   15.2320 N   0  0  0  0  0  0  0  0  0  0  0  0
   14.4480   18.6680   14.4000 C   0  0  0  0  0  0  0  0  0  0  0  0
   15.4150   22.7800   13.0990 C   0  0  0  0  0  0  0  0  0  0  0  0
   13.6690   17.0800   15.7560 O   0  0  0  0  0  0  0  0  0  0  0  0
   14.7970   17.6470   15.2600 C   0  0  0  0  0  0  0  0  0  0  0  0
   16.6890   22.7210   12.3000 C   0  0  0  0  0  0  0  0  0  0  0  0
   16.7540   23.0000   13.7640 C   0  0  0  0  0  0  0  0  0  0  0  0
   16.0800   17.0660   15.7340 C   0  0  0  0  0  0  0  0  0  0  0  0
   16.8780   16.4090   14.6130 C   0  0  0  0  0  0  0  0  0  0  0  0
   17.0320   17.2950   13.3810 C   0  0  0  0  0  0  0  0  0  0  0  0
   16.4860   16.7820   12.0530 C   0  0  0  0  0  0  0  0  0  0  0  0
   15.6660   15.5750   12.0840 N   0  0  0  0  0  0  0  0  0  0  0  0
   16.3070   14.3650   11.8320 C   0  0  0  0  0  0  0  0  0  0  0  0
   17.4230   14.3610   11.3300 O   0  0  0  0  0  0  0  0  0  0  0  0
   15.6630   13.0170   12.2190 C   0  0  1  0  0  0  0  0  0  0  0  0
   14.6600   13.0180   13.3930 C   0  0  1  0  0  0  0  0  0  0  0  0
   15.3590   12.0390   11.0700 C   0  0  0  0  0  0  0  0  0  0  0  0
   14.2690   14.4100   13.8670 C   0  0  0  0  0  0  0  0  0  0  0  0
   13.4560   12.1380   13.1790 N   0  0  0  0  0  0  0  0  0  0  0  0
   13.9100   11.6760   10.8590 C   0  0  0  0  0  0  0  0  0  0  0  0
   12.0100   12.6170   13.8290 S   0  0  0  0  0  0  0  0  0  0  0  0
   13.4190   11.0940   12.1400 C   0  0  0  0  0  0  0  0  0  0  0  0
   12.0330   14.0530   13.9490 O   0  0  0  0  0  0  0  0  0  0  0  0
   11.6710   11.7190   14.9110 O   0  0  0  0  0  0  0  0  0  0  0  0
   11.0230   12.2430   12.4350 C   0  0  0  0  0  0  0  0  0  0  0  0
  1  2  1  0
  1  3  1  0
  1  4  1  0
  4  5  2  0
  4  6  1  0
  3  7  1  0
  7  8  2  0
  7  9  1  0
  6 10  1  0
  8 11  1  0
  9 12  2  0
 11 12  1  0
 10 13  1  0
 10 14  1  0
 13 14  1  0
 12 15  1  0
 15 16  1  0
 16 17  1  0
 17 18  1  0
 18 19  1  0
 19 20  1  0
 20 21  2  0
 22 20  1  6
 22 23  1  0
 22 24  1  0
 23 25  1  6
 23 26  1  0
 24 27  1  0
 26 28  1  0
 26 29  1  0
 27 29  1  0
 28 30  2  0
 28 31  2  0
 28 32  1  0
M  END
