diamond-x0371_0_A-mac-x0190
     RDKit          3D

 18 20  0  0  0  0  0  0  0  0999 V2000
   -8.1460   14.5480    2.9690 N   0  0  0  0  0  0  0  0  0  0  0  0
   -8.8270   15.5480    3.6190 C   0  0  0  0  0  0  0  0  0  0  0  0
   -9.5140   16.3700    3.0150 O   0  0  0  0  0  0  0  0  0  0  0  0
   -8.3790   14.2710    1.5790 C   0  0  0  0  0  0  0  0  0  0  0  0
   -7.1350   14.5240    0.8080 C   0  0  0  0  0  0  0  0  0  0  0  0
   -8.6630   15.5280    5.0500 C   0  0  0  0  0  0  0  0  0  0  0  0
   -5.8880   14.4730    1.3900 N   0  0  0  0  0  0  0  0  0  0  0  0
   -7.0410   14.8160   -0.4770 N   0  0  0  0  0  0  0  0  0  0  0  0
   -8.0600   14.4500    5.6320 O   0  0  0  0  0  0  0  0  0  0  0  0
   -9.0150   16.4410    6.0210 C   0  0  0  0  0  0  0  0  0  0  0  0
   -5.6970   14.9510   -0.7210 C   0  0  0  0  0  0  0  0  0  0  0  0
   -4.9580   14.7390    0.4340 C   0  0  0  0  0  0  0  0  0  0  0  0
   -8.6030   15.8850    7.2610 C   0  0  0  0  0  0  0  0  0  0  0  0
   -8.0270   14.6760    6.9640 C   0  0  0  0  0  0  0  0  0  0  0  0
   -3.5730   14.8050    0.4910 C   0  0  0  0  0  0  0  0  0  0  0  0
   -5.0280   15.2530   -1.9110 C   0  0  0  0  0  0  0  0  0  0  0  0
   -2.9260   15.0970   -0.7050 C   0  0  0  0  0  0  0  0  0  0  0  0
   -3.6320   15.3200   -1.8870 C   0  0  0  0  0  0  0  0  0  0  0  0
  1  2  1  0
  2  3  2  0
  1  4  1  0
  4  5  1  0
  2  6  1  0
  5  7  1  0
  5  8  2  0
  6  9  1  0
  6 10  2  0
  8 11  1  0
  7 12  1  0
 11 12  2  0
 10 13  1  0
  9 14  1  0
 13 14  2  0
 12 15  1  0
 11 16  1  0
 15 17  2  0
 16 18  2  0
 17 18  1  0
M  END
