diamond-x0421_0_A-diamond-x1012_0_A
     RDKit          3D

 23 25  0  0  0  0  0  0  0  0999 V2000
   -3.7740   15.3800   -2.7670 N   0  0  0  0  0  0  0  0  0  0  0  0
   -2.9620   14.8750   -1.7840 C   0  0  0  0  0  0  0  0  0  0  0  0
   -1.7410   14.4820   -1.8320 N   0  0  0  0  0  0  0  0  0  0  0  0
   -3.6020   14.8280   -0.4740 C   0  0  0  0  0  0  0  0  0  0  0  0
   -2.9560   14.9240    0.7480 C   0  0  0  0  0  0  0  0  0  0  0  0
   -4.9620   14.6910   -0.2710 N   0  0  0  0  0  0  0  0  0  0  0  0
   -0.9540   14.5960   -3.0640 C   0  0  2  0  0  0  0  0  0  0  0  0
   -3.9350   14.8450    1.6830 N   0  0  0  0  0  0  0  0  0  0  0  0
   -5.1220   14.7040    1.0320 C   0  0  0  0  0  0  0  0  0  0  0  0
   -1.6920   15.0960   -4.2800 C   0  0  0  0  0  0  0  0  0  0  0  0
   -0.1110   13.4410   -3.5300 C   0  0  2  0  0  0  0  0  0  0  0  0
    0.3090   12.5280   -2.3960 C   0  0  0  0  0  0  0  0  0  0  0  0
   -6.4960   14.5740    1.7310 C   0  0  0  0  0  0  0  0  0  0  0  0
    1.0130   14.1140   -4.3490 C   0  0  0  0  0  0  0  0  0  0  0  0
   -0.7600   15.9610   -4.9630 N   0  0  0  0  0  0  0  0  0  0  0  0
   -1.1810   17.2710   -4.8760 C   0  0  0  0  0  0  0  0  0  0  0  0
    0.4140   11.2370   -2.7910 O   0  0  0  0  0  0  0  0  0  0  0  0
    0.5300   12.8080   -1.2310 O   0  0  0  0  0  0  0  0  0  0  0  0
   -7.7720   14.6470    0.9360 C   0  0  0  0  0  0  0  0  0  0  0  0
   -7.3230   13.3380    1.5230 C   0  0  0  0  0  0  0  0  0  0  0  0
    0.6810   15.5750   -4.8100 C   0  0  0  0  0  0  0  0  0  0  0  0
   -0.2430   18.2230   -4.7270 N   0  0  0  0  0  0  0  0  0  0  0  0
   -2.3560   17.6280   -4.8990 O   0  0  0  0  0  0  0  0  0  0  0  0
  1  2  1  0
  2  3  2  3
  2  4  1  0
  4  5  2  0
  4  6  1  0
  7  3  1  1
  5  8  1  0
  6  9  2  0
  8  9  1  0
  7 10  1  0
  7 11  1  0
 11 12  1  1
  9 13  1  0
 11 14  1  0
 10 15  1  0
 15 16  1  0
 12 17  1  0
 12 18  2  0
 13 19  1  0
 13 20  1  0
 19 20  1  0
 14 21  1  0
 15 21  1  0
 16 22  1  0
 16 23  2  0
M  END
