diamond-x0662_0_A-mac-x0344
     RDKit          3D

 28 30  0  0  0  0  0  0  0  0999 V2000
    5.4330    9.5750  -15.1730 C   0  0  0  0  0  0  0  0  0  0  0  0
    4.3930   10.0260  -14.2840 N   0  0  0  0  0  0  0  0  0  0  0  0
    3.7280   11.2230  -14.3150 C   0  0  0  0  0  0  0  0  0  0  0  0
    3.9980    9.2140  -13.2950 N   0  0  0  0  0  0  0  0  0  0  0  0
    2.8390   11.1780  -13.2650 C   0  0  0  0  0  0  0  0  0  0  0  0
    3.0460    9.9070  -12.6590 C   0  0  0  0  0  0  0  0  0  0  0  0
    2.3640    9.3560  -11.4900 C   0  0  0  0  0  0  0  0  0  0  0  0
    2.4570    8.1590  -11.2100 O   0  0  0  0  0  0  0  0  0  0  0  0
    1.6170   10.1460  -10.6540 N   0  0  0  0  0  0  0  0  0  0  0  0
    1.0550    9.8700   -9.3980 C   0  0  0  0  0  0  0  0  0  0  0  0
    0.7390    8.5430   -9.1410 C   0  0  0  0  0  0  0  0  0  0  0  0
    0.7900   10.8130   -8.4210 C   0  0  0  0  0  0  0  0  0  0  0  0
    0.1760    8.1820   -7.9300 C   0  0  0  0  0  0  0  0  0  0  0  0
    0.2230   10.5090   -7.1940 C   0  0  0  0  0  0  0  0  0  0  0  0
   -0.1900   11.5040   -6.0600 C   0  0  1  0  0  0  0  0  0  0  0  0
   -0.0800    9.1480   -6.9700 C   0  0  0  0  0  0  0  0  0  0  0  0
    0.3250   11.3990   -4.5920 C   0  0  0  0  0  0  0  0  0  0  0  0
   -0.4540   12.7440   -6.4390 O   0  0  0  0  0  0  0  0  0  0  0  0
   -1.4000   10.6180   -6.2770 C   0  0  0  0  0  0  0  0  0  0  0  0
    1.1360   12.5720   -3.9930 C   0  0  0  0  0  0  0  0  0  0  0  0
    0.1230   10.4680   -3.8110 O   0  0  0  0  0  0  0  0  0  0  0  0
   -1.8140   10.4780   -7.6070 C   0  0  0  0  0  0  0  0  0  0  0  0
   -2.0820    9.9030   -5.3000 C   0  0  0  0  0  0  0  0  0  0  0  0
    1.6490   13.4150   -4.9040 O   0  0  0  0  0  0  0  0  0  0  0  0
    1.3190   12.7630   -2.8000 O   0  0  0  0  0  0  0  0  0  0  0  0
   -2.8620    9.6560   -7.9580 C   0  0  0  0  0  0  0  0  0  0  0  0
   -3.1450    9.0730   -5.6510 C   0  0  0  0  0  0  0  0  0  0  0  0
   -3.5330    8.9480   -6.9770 C   0  0  0  0  0  0  0  0  0  0  0  0
  1  2  1  0
  2  3  1  0
  2  4  1  0
  3  5  2  0
  4  6  2  0
  5  6  1  0
  6  7  1  0
  7  8  2  0
  7  9  1  0
  9 10  1  0
 10 11  2  0
 10 12  1  0
 11 13  1  0
 12 14  2  0
 14 15  1  0
 13 16  2  0
 14 16  1  0
 15 17  1  0
 15 18  1  6
 15 19  1  0
 17 20  1  0
 17 21  2  0
 19 22  2  0
 19 23  1  0
 20 24  1  0
 20 25  2  0
 22 26  1  0
 23 27  2  0
 26 28  2  0
 27 28  1  0
M  CHG  1  18  -1
M  END
