diamond-x0805_0_A-mac-x0206
     RDKit          3D

 25 27  0  0  0  0  0  0  0  0999 V2000
   -4.6880   15.3860   -0.7370 C   0  0  0  0  0  0  0  0  0  0  0  0
   -3.4610   15.0330   -0.2800 O   0  0  0  0  0  0  0  0  0  0  0  0
   -3.0650   14.3070   -1.3740 C   0  0  0  0  0  0  0  0  0  0  0  0
   -4.9180   15.8220   -1.8450 O   0  0  0  0  0  0  0  0  0  0  0  0
   -5.7610   15.0840    0.1840 C   0  0  0  0  0  0  0  0  0  0  0  0
   -7.0050   14.8120   -0.3780 C   0  0  0  0  0  0  0  0  0  0  0  0
   -5.5880   15.0680    1.5670 C   0  0  0  0  0  0  0  0  0  0  0  0
   -7.1600   14.8260   -1.7360 O   0  0  0  0  0  0  0  0  0  0  0  0
   -3.9740   13.3210   -1.7220 C   0  0  0  0  0  0  0  0  0  0  0  0
   -1.9070   14.5230   -2.0930 C   0  0  0  0  0  0  0  0  0  0  0  0
   -8.0990   14.5270    0.4290 C   0  0  0  0  0  0  0  0  0  0  0  0
   -6.7000   14.7820    2.3770 C   0  0  0  0  0  0  0  0  0  0  0  0
   -3.7230   12.5300   -2.8230 C   0  0  0  0  0  0  0  0  0  0  0  0
   -1.6350   13.7350   -3.2130 C   0  0  0  0  0  0  0  0  0  0  0  0
   -7.9390   14.5150    1.8130 C   0  0  0  0  0  0  0  0  0  0  0  0
   -2.5610   12.7360   -3.5660 C   0  0  0  0  0  0  0  0  0  0  0  0
   -0.3720   13.9620   -4.0160 C   0  0  2  0  0  0  0  0  0  0  0  0
    0.5790   12.7490   -4.0440 C   0  0  2  0  0  0  0  0  0  0  0  0
    0.3350   15.2600   -3.5850 C   0  0  0  0  0  0  0  0  0  0  0  0
    0.5700   12.0370   -2.6980 C   0  0  0  0  0  0  0  0  0  0  0  0
    2.0120   13.1030   -4.4660 C   0  0  0  0  0  0  0  0  0  0  0  0
    1.7060   15.4180   -4.1720 C   0  0  0  0  0  0  0  0  0  0  0  0
    0.4110   10.7040   -2.8270 O   0  0  0  0  0  0  0  0  0  0  0  0
    0.6760   12.5280   -1.5760 O   0  0  0  0  0  0  0  0  0  0  0  0
    2.5100   14.2920   -3.8640 O   0  0  0  0  0  0  0  0  0  0  0  0
  1  2  1  0
  2  3  1  0
  1  4  2  0
  1  5  1  0
  5  6  2  0
  5  7  1  0
  6  8  1  0
  3  9  2  0
  3 10  1  0
  6 11  1  0
  7 12  2  0
  9 13  1  0
 10 14  2  0
 11 15  2  0
 12 15  1  0
 13 16  2  0
 14 16  1  0
 17 14  1  1
 17 18  1  0
 17 19  1  0
 18 20  1  1
 18 21  1  0
 19 22  1  0
 20 23  1  0
 20 24  2  0
 21 25  1  0
 22 25  1  0
M  END
