diamond-x0910_0_A-diamond-x0837_0_A
     RDKit          3D

 13 14  0  0  0  0  0  0  0  0999 V2000
   -2.9800   14.5190   -1.2570 N   0  0  0  0  0  0  0  0  0  0  0  0
   -1.8670   14.6360   -0.5040 C   0  0  0  0  0  0  0  0  0  0  0  0
   -1.9260   14.5170    0.8560 N   0  0  0  0  0  0  0  0  0  0  0  0
   -4.1070   15.3620   -0.8610 C   0  0  2  0  0  0  0  0  0  0  0  0
   -0.6320   14.8710   -0.8570 N   0  0  0  0  0  0  0  0  0  0  0  0
   -3.8700   15.7200    0.5780 C   0  0  0  0  0  0  0  0  0  0  0  0
   -5.4560   14.6870   -1.1290 C   0  0  0  0  0  0  0  0  0  0  0  0
   -0.7190   14.6830    1.4140 N   0  0  0  0  0  0  0  0  0  0  0  0
    0.0270   14.8990    0.3330 C   0  0  0  0  0  0  0  0  0  0  0  0
   -4.6980   15.3970    1.5550 C   0  0  0  0  0  0  0  0  0  0  0  0
   -6.4060   14.6900    0.0520 C   0  0  0  0  0  0  0  0  0  0  0  0
   -7.6270   14.6740   -0.0670 O   0  0  0  0  0  0  0  0  0  0  0  0
   -5.8310   14.7120    1.2870 N   0  0  0  0  0  0  0  0  0  0  0  0
  1  2  1  0
  2  3  1  0
  4  1  1  1
  2  5  2  0
  4  6  1  0
  4  7  1  0
  3  8  1  0
  5  9  1  0
  8  9  2  0
  6 10  2  0
  7 11  1  0
 11 12  2  0
 10 13  1  0
 11 13  1  0
M  END
