diamond-x0371_0_A-diamond-x0626_0_A
     RDKit          3D

 23 26  0  0  0  0  0  0  0  0999 V2000
   -7.3920   14.3350    2.4330 N   0  0  0  0  0  0  0  0  0  0  0  0
   -8.2410   15.2680    3.1500 C   0  0  0  0  0  0  0  0  0  0  0  0
   -8.9890   16.0290    2.5170 O   0  0  0  0  0  0  0  0  0  0  0  0
   -8.0010   13.7780    1.2650 C   0  0  0  0  0  0  0  0  0  0  0  0
   -6.3120   14.6760    1.7220 C   0  0  0  0  0  0  0  0  0  0  0  0
   -5.0260   14.3460    1.7840 N   0  0  0  0  0  0  0  0  0  0  0  0
   -6.4820   15.2320    0.6400 O   0  0  0  0  0  0  0  0  0  0  0  0
   -7.2490   14.1310   -0.0810 C   0  0  0  0  0  0  0  0  0  0  0  0
   -8.2830   15.3310    4.6310 C   0  0  0  0  0  0  0  0  0  0  0  0
   -5.7990   14.4480   -0.3940 C   0  0  0  0  0  0  0  0  0  0  0  0
   -7.8740   14.2520    5.3750 O   0  0  0  0  0  0  0  0  0  0  0  0
   -8.6850   16.3270    5.5270 C   0  0  0  0  0  0  0  0  0  0  0  0
   -4.6480   14.5370    0.4920 C   0  0  0  0  0  0  0  0  0  0  0  0
   -8.1350   14.1290   -1.1630 C   0  0  0  0  0  0  0  0  0  0  0  0
   -7.8240   14.3760   -2.4420 N   0  0  0  0  0  0  0  0  0  0  0  0
   -5.5160   14.6930   -1.7640 C   0  0  0  0  0  0  0  0  0  0  0  0
   -8.5060   15.8230    6.8380 C   0  0  0  0  0  0  0  0  0  0  0  0
   -8.0070   14.5560    6.6910 C   0  0  0  0  0  0  0  0  0  0  0  0
   -3.3100   14.8090    0.0500 C   0  0  0  0  0  0  0  0  0  0  0  0
   -2.0700   14.8700    0.9550 C   0  0  0  0  0  0  0  0  0  0  0  0
   -3.1420   15.0310   -1.3240 C   0  0  0  0  0  0  0  0  0  0  0  0
   -4.2230   14.9820   -2.2010 C   0  0  0  0  0  0  0  0  0  0  0  0
   -6.5400   14.6480   -2.7080 C   0  0  0  0  0  0  0  0  0  0  0  0
  1  2  1  0
  2  3  2  0
  1  4  1  0
  1  5  1  0
  5  6  1  0
  5  7  2  0
  4  8  1  0
  2  9  1  0
  8 10  1  0
  9 11  1  0
  9 12  2  0
  6 13  1  0
 10 13  2  0
  8 14  2  0
 14 15  1  0
 10 16  1  0
 12 17  1  0
 11 18  1  0
 17 18  2  0
 13 19  1  0
 19 20  1  0
 19 21  2  0
 16 22  2  0
 21 22  1  0
 15 23  2  0
 16 23  1  0
M  END
