diamond-x0742_0_A-diamond-x0910_1_A
     RDKit          3D

 17 19  0  0  0  0  0  0  0  0999 V2000
   -5.3960   12.0520   -0.8740 C   0  0  0  0  0  0  0  0  0  0  0  0
   -6.5030   11.6580    0.0750 C   0  0  0  0  0  0  0  0  0  0  0  0
   -5.0940   11.3130   -1.8120 O   0  0  0  0  0  0  0  0  0  0  0  0
   -4.6600   13.3700   -0.6480 C   0  0  2  0  0  0  0  0  0  0  0  0
   -4.8000   13.7250    0.8710 C   0  0  2  0  0  0  0  0  0  0  0  0
   -5.3110   14.5470   -1.4150 C   0  0  0  0  0  0  0  0  0  0  0  0
   -3.2420   13.1220   -1.1880 C   0  0  0  0  0  0  0  0  0  0  0  0
   -5.7170   14.9410    0.9060 C   0  0  1  0  0  0  0  0  0  0  0  0
   -2.1140   13.7140   -0.4010 C   0  0  0  0  0  0  0  0  0  0  0  0
   -3.5260   13.9310    1.6890 C   0  0  0  0  0  0  0  0  0  0  0  0
   -5.3940   15.6690   -0.4070 C   0  0  0  0  0  0  0  0  0  0  0  0
   -7.1250   14.4880    0.9280 N   0  0  0  0  0  0  0  0  0  0  0  0
   -0.8820   13.8970   -1.0150 C   0  0  0  0  0  0  0  0  0  0  0  0
   -2.2450   14.0910    0.9440 C   0  0  0  0  0  0  0  0  0  0  0  0
   -1.2360   14.6110    1.6580 N   0  0  0  0  0  0  0  0  0  0  0  0
    0.1640   14.4330   -0.2920 C   0  0  0  0  0  0  0  0  0  0  0  0
   -0.0660   14.7670    1.0210 C   0  0  0  0  0  0  0  0  0  0  0  0
  1  2  1  0
  1  3  2  0
  4  1  1  1
  4  5  1  0
  4  6  1  0
  4  7  1  0
  5  8  1  0
  7  9  1  0
  5 10  1  6
  6 11  1  0
  8 11  1  0
  8 12  1  6
  9 13  2  0
  9 14  1  0
 10 14  1  0
 14 15  2  0
 13 16  1  0
 15 17  1  0
 16 17  2  0
M  END
