diamond-x0822_0_A-diamond-x0598_0_A
     RDKit          3D

 25 27  0  0  0  0  0  0  0  0999 V2000
    3.3770   26.0500   18.8300 N   0  0  0  0  0  0  0  0  0  0  0  0
    3.7640   27.2050   17.9840 C   0  0  1  0  0  0  0  0  0  0  0  0
    5.2930   27.4510   18.1210 C   0  0  0  0  0  0  0  0  0  0  0  0
    3.3780   26.9050   16.5030 C   0  0  2  0  0  0  0  0  0  0  0  0
    4.3820   27.3790   15.4670 C   0  0  0  0  0  0  0  0  0  0  0  0
    5.9670   26.5090   17.1350 C   0  0  2  0  0  0  0  0  0  0  0  0
    2.0040   27.3230   16.0690 C   0  0  0  0  0  0  0  0  0  0  0  0
    5.7910   26.9520   15.7090 C   0  0  0  0  0  0  0  0  0  0  0  0
    1.5840   28.6440   16.2700 C   0  0  0  0  0  0  0  0  0  0  0  0
    1.1350   26.4250   15.4610 C   0  0  0  0  0  0  0  0  0  0  0  0
    5.0890   25.3690   17.2790 N   0  0  0  0  0  0  0  0  0  0  0  0
    7.3820   25.9260   17.4100 C   0  0  2  0  0  0  0  0  0  0  0  0
    8.5000   26.2180   16.4130 C   0  0  0  0  0  0  0  0  0  0  0  0
    0.3160   29.0490   15.8660 C   0  0  0  0  0  0  0  0  0  0  0  0
   -0.1310   26.8170   15.0570 C   0  0  0  0  0  0  0  0  0  0  0  0
    5.8040   24.4700   16.5060 C   0  0  0  0  0  0  0  0  0  0  0  0
    7.0950   24.4740   17.3040 C   0  0  0  0  0  0  0  0  0  0  0  0
   -0.8470   25.8110   14.4850 O   0  0  0  0  0  0  0  0  0  0  0  0
    8.4670   25.2090   15.3260 N   0  0  0  0  0  0  0  0  0  0  0  0
   -0.5460   28.1310   15.2570 C   0  0  0  0  0  0  0  0  0  0  0  0
   -2.2040   26.0990   14.1860 C   0  0  0  0  0  0  0  0  0  0  0  0
    9.9020   25.0280   14.4690 S   0  0  0  0  0  0  0  0  0  0  0  0
    9.3990   24.4660   12.8930 C   0  0  0  0  0  0  0  0  0  0  0  0
   10.6910   23.9970   15.0980 O   0  0  0  0  0  0  0  0  0  0  0  0
   10.3950   26.3370   14.2190 O   0  0  0  0  0  0  0  0  0  0  0  0
  2  1  1  1
  2  3  1  0
  2  4  1  0
  4  5  1  0
  6  3  1  1
  4  7  1  6
  5  8  1  0
  6  8  1  0
  7  9  2  0
  7 10  1  0
  6 11  1  0
  6 12  1  0
 12 13  1  6
  9 14  1  0
 10 15  2  0
 11 16  1  0
 12 17  1  0
 16 17  1  0
 15 18  1  0
 13 19  1  0
 14 20  2  0
 15 20  1  0
 18 21  1  0
 22 19  1  0
 22 23  1  0
 22 24  2  0
 22 25  2  0
M  END
