diamond-x0592_0_A-mac-x0193
     RDKit          3D

 28 29  0  0  0  0  0  0  0  0999 V2000
   -2.8980   14.7030    1.3200 N   0  0  0  0  0  0  0  0  0  0  0  0
   -3.3280   14.7860    0.0160 C   0  0  0  0  0  0  0  0  0  0  0  0
   -2.4920   14.8100   -0.9540 N   0  0  0  0  0  0  0  0  0  0  0  0
   -4.7600   14.8310   -0.1190 C   0  0  0  0  0  0  0  0  0  0  0  0
   -1.0520   14.7510   -0.7710 C   0  0  0  0  0  0  0  0  0  0  0  0
   -5.5290   15.1910   -1.2510 C   0  0  0  0  0  0  0  0  0  0  0  0
   -5.7000   14.5260    0.8320 C   0  0  0  0  0  0  0  0  0  0  0  0
   -0.6540   13.3030   -0.6940 C   0  0  0  0  0  0  0  0  0  0  0  0
   -6.8470   15.1180   -1.0290 N   0  0  0  0  0  0  0  0  0  0  0  0
   -6.9160   14.7090    0.2530 N   0  0  0  0  0  0  0  0  0  0  0  0
   -8.1920   14.5020    0.9070 C   0  0  0  0  0  0  0  0  0  0  0  0
    0.7050   13.0710   -1.3260 C   0  0  0  0  0  0  0  0  0  0  0  0
   -7.9910   14.0890    2.3630 C   0  0  0  0  0  0  0  0  0  0  0  0
    0.6920   13.3280   -2.7360 N   0  0  0  0  0  0  0  0  0  0  0  0
   -7.2150   15.0500    3.0800 O   0  0  0  0  0  0  0  0  0  0  0  0
    0.5870   12.3230   -3.5120 C   0  0  0  0  0  0  0  0  0  0  0  0
    0.4810   11.0450   -3.0900 O   0  0  0  0  0  0  0  0  0  0  0  0
    0.5790   12.5770   -5.0000 C   0  0  0  0  0  0  0  0  0  0  0  0
    0.0490   11.4890   -5.8020 N   0  0  0  0  0  0  0  0  0  0  0  0
    0.7560   11.2430   -6.9270 C   0  0  0  0  0  0  0  0  0  0  0  0
    1.8760   11.6680   -7.0160 O   0  0  0  0  0  0  0  0  0  0  0  0
    0.0970   10.4960   -7.8700 N   0  0  0  0  0  0  0  0  0  0  0  0
    0.8120   10.0160   -9.0420 C   0  0  0  0  0  0  0  0  0  0  0  0
    1.4090    8.6330   -8.7940 C   0  0  0  0  0  0  0  0  0  0  0  0
   -0.0830    9.9840  -10.2850 C   0  0  0  0  0  0  0  0  0  0  0  0
    2.1520    8.0890  -10.0150 C   0  0  0  0  0  0  0  0  0  0  0  0
    0.6420    9.4610  -11.5260 C   0  0  0  0  0  0  0  0  0  0  0  0
    1.3070    8.1080  -11.2890 C   0  0  0  0  0  0  0  0  0  0  0  0
  1  2  1  0
  2  3  2  3
  2  4  1  0
  3  5  1  0
  4  6  1  0
  4  7  2  0
  5  8  1  0
  6  9  2  0
  7 10  1  0
  9 10  1  0
 10 11  1  0
  8 12  1  0
 11 13  1  0
 12 14  1  0
 13 15  1  0
 14 16  2  3
 16 17  1  0
 16 18  1  0
 18 19  1  0
 19 20  1  0
 20 21  2  0
 20 22  1  0
 22 23  1  0
 23 24  1  0
 23 25  1  0
 24 26  1  0
 25 27  1  0
 26 28  1  0
 27 28  1  0
M  END
