diamond-x0967_0_A-mac-x0365
     RDKit          3D

 15 16  0  0  0  0  0  0  0  0999 V2000
   -1.1780   14.8780   -1.7660 O   0  0  0  0  0  0  0  0  0  0  0  0
   -2.4160   14.8500   -2.3200 C   0  0  0  0  0  0  0  0  0  0  0  0
   -2.5440   15.1000   -3.5080 O   0  0  0  0  0  0  0  0  0  0  0  0
   -3.4950   14.4620   -1.3090 C   0  0  2  0  0  0  0  0  0  0  0  0
   -4.9620   14.9550   -1.4200 C   0  0  1  0  0  0  0  0  0  0  0  0
   -3.0140   14.8510    0.0490 C   0  0  0  0  0  0  0  0  0  0  0  0
   -5.1930   16.2640   -0.9260 O   0  0  0  0  0  0  0  0  0  0  0  0
   -5.4680   14.9090   -2.6930 F   0  0  0  0  0  0  0  0  0  0  0  0
   -5.8480   14.1170   -0.4930 C   0  0  2  0  0  0  0  0  0  0  0  0
   -3.8260   14.6920    1.0920 C   0  0  0  0  0  0  0  0  0  0  0  0
   -7.2800   14.5470   -0.6340 N   0  0  0  0  0  0  0  0  0  0  0  0
   -5.2220   14.1160    0.9570 C   0  0  1  0  0  0  0  0  0  0  0  0
   -6.1360   14.7120    1.9860 C   0  0  0  0  0  0  0  0  0  0  0  0
   -8.0760   14.2460    0.5530 C   0  0  0  0  0  0  0  0  0  0  0  0
   -7.4510   14.7590    1.7950 C   0  0  0  0  0  0  0  0  0  0  0  0
  1  2  1  0
  2  3  2  0
  4  2  1  6
  4  5  1  0
  4  6  1  0
  5  7  1  1
  5  8  1  0
  5  9  1  0
  6 10  2  0
  9 11  1  1
  9 12  1  0
 12 10  1  6
 12 13  1  0
 11 14  1  0
 13 15  2  0
 14 15  1  0
M  END
