diamond-x0962_0_A-mac-x0433
     RDKit          3D

  9  9  0  0  0  0  0  0  0  0999 V2000
   -2.1390   14.9150   -2.3030 N   0  0  0  0  0  0  0  0  0  0  0  0
   -2.9750   14.9950   -1.5050 C   0  0  0  0  0  0  0  0  0  0  0  0
   -4.0320   15.0010   -0.5560 C   0  0  0  0  0  0  0  0  0  0  0  0
   -3.8060   15.0870    0.7960 N   0  0  0  0  0  0  0  0  0  0  0  0
   -5.3740   14.9180   -0.8580 C   0  0  0  0  0  0  0  0  0  0  0  0
   -6.0360   14.8410   -2.0500 N   0  0  0  0  0  0  0  0  0  0  0  0
   -5.0080   15.0350    1.3250 C   0  0  0  0  0  0  0  0  0  0  0  0
   -5.9920   14.9150    0.3710 N   0  0  0  0  0  0  0  0  0  0  0  0
   -7.4160   14.8060    0.6350 C   0  0  0  0  0  0  0  0  0  0  0  0
  1  2  3  0
  2  3  1  0
  3  4  1  0
  3  5  2  0
  5  6  1  0
  4  7  2  0
  5  8  1  0
  7  8  1  0
  8  9  1  0
M  END
