diamond-x0722_0_A-diamond-x0910_0_A
     RDKit          3D

 12 12  0  0  0  0  0  0  0  0999 V2000
   -4.4270   15.7660    2.2570 C   0  0  0  0  0  0  0  0  0  0  0  0
   -3.4360   15.2730    1.3200 C   0  0  0  0  0  0  0  0  0  0  0  0
   -2.2670   14.9130    1.8000 N   0  0  0  0  0  0  0  0  0  0  0  0
   -3.5250   15.1240   -0.0810 C   0  0  0  0  0  0  0  0  0  0  0  0
   -4.7030   15.4360   -0.9580 C   0  0  0  0  0  0  0  0  0  0  0  0
   -2.2690   14.6350   -0.4270 C   0  0  0  0  0  0  0  0  0  0  0  0
   -1.5670   14.5390    0.7500 N   0  0  0  0  0  0  0  0  0  0  0  0
   -0.2130   14.1050    0.9720 C   0  0  0  0  0  0  0  0  0  0  0  0
   -1.6880   14.2680   -1.7380 C   0  0  0  0  0  0  0  0  0  0  0  0
   -5.9770   14.6740   -0.6170 C   0  0  0  0  0  0  0  0  0  0  0  0
   -7.0980   15.1540   -0.7730 O   0  0  0  0  0  0  0  0  0  0  0  0
   -5.8440   13.4110   -0.1180 N   0  0  0  0  0  0  0  0  0  0  0  0
  1  2  1  0
  2  3  2  0
  2  4  1  0
  4  5  1  0
  4  6  2  0
  3  7  1  0
  6  7  1  0
  7  8  1  0
  6  9  1  0
  5 10  1  0
 10 11  2  0
 10 12  1  0
M  END
