diamond-x0465_0_A-diamond-x0933_0_A
     RDKit          3D

 23 24  0  0  0  0  0  0  0  0999 V2000
    2.0570   13.1370   -4.3400 C   0  0  0  0  0  0  0  0  0  0  0  0
    0.6960   12.4380   -4.2020 C   0  0  1  0  0  0  0  0  0  0  0  0
    0.6040   11.4690   -5.2580 O   0  0  0  0  0  0  0  0  0  0  0  0
    0.6010   11.7710   -2.7920 C   0  0  0  0  0  0  0  0  0  0  0  0
    0.6640   12.4220   -1.6740 N   0  0  0  0  0  0  0  0  0  0  0  0
    0.4310   10.4190   -2.7450 O   0  0  0  0  0  0  0  0  0  0  0  0
   -0.5330   10.7720   -5.5720 C   0  0  0  0  0  0  0  0  0  0  0  0
    0.8350   13.8680   -1.6270 C   0  0  0  0  0  0  0  0  0  0  0  0
   -0.6660    9.7720   -6.5460 C   0  0  0  0  0  0  0  0  0  0  0  0
   -1.6610   11.1190   -4.8220 C   0  0  0  0  0  0  0  0  0  0  0  0
    0.3580    9.3800   -7.3160 F   0  0  0  0  0  0  0  0  0  0  0  0
   -0.3170   14.4810   -0.8400 C   0  0  0  0  0  0  0  0  0  0  0  0
   -1.8840    9.1330   -6.7600 C   0  0  0  0  0  0  0  0  0  0  0  0
   -2.8870   10.4790   -5.0360 C   0  0  0  0  0  0  0  0  0  0  0  0
   -1.6980   14.4230   -1.5170 C   0  0  0  0  0  0  0  0  0  0  0  0
   -2.9970    9.4830   -6.0050 C   0  0  0  0  0  0  0  0  0  0  0  0
   -2.9700   14.8520   -0.7570 C   0  0  1  0  0  0  0  0  0  0  0  0
   -4.2430   14.1530   -1.2180 C   0  0  0  0  0  0  0  0  0  0  0  0
   -2.8470   14.8040    0.7760 C   0  0  0  0  0  0  0  0  0  0  0  0
   -5.1810   13.9750   -0.1180 N   0  0  0  0  0  0  0  0  0  0  0  0
   -4.0430   15.2520    1.4910 N   0  0  0  0  0  0  0  0  0  0  0  0
   -5.2290   15.0880    0.7400 C   0  0  2  0  0  0  0  0  0  0  0  0
   -6.1980   14.7080    1.7080 N   0  0  0  0  0  0  0  0  0  0  0  0
  2  1  1  1
  2  3  1  0
  2  4  1  0
  4  5  2  3
  4  6  1  0
  3  7  1  0
  5  8  1  0
  7  9  2  0
  7 10  1  0
  9 11  1  0
  8 12  1  0
  9 13  1  0
 10 14  2  0
 12 15  1  0
 13 16  2  0
 14 16  1  0
 17 15  1  6
 17 18  1  0
 17 19  1  0
 18 20  1  0
 19 21  1  0
 20 22  1  0
 21 22  1  0
 22 23  1  1
M  END
