diamond-x0711_0_A-mac-x0338
     RDKit          3D

 15 15  0  0  0  0  0  0  0  0999 V2000
   -1.7660   15.0410   -3.0100 N   0  0  0  0  0  0  0  0  0  0  0  0
   -0.5050   13.9490   -3.1890 S   0  0  0  0  0  0  0  0  0  0  0  0
   -1.2770   12.6650   -4.1480 C   0  0  0  0  0  0  0  0  0  0  0  0
   -2.8060   14.8970   -2.0480 C   0  0  0  0  0  0  0  0  0  0  0  0
    0.4360   14.6250   -4.0550 O   0  0  0  0  0  0  0  0  0  0  0  0
   -0.0930   13.4010   -1.9160 O   0  0  0  0  0  0  0  0  0  0  0  0
   -4.1130   15.1280   -2.4700 C   0  0  0  0  0  0  0  0  0  0  0  0
   -2.5540   14.5460   -0.7250 C   0  0  0  0  0  0  0  0  0  0  0  0
   -5.1730   15.0110   -1.5720 C   0  0  0  0  0  0  0  0  0  0  0  0
   -3.6140   14.4290    0.1760 C   0  0  0  0  0  0  0  0  0  0  0  0
   -4.9380   14.6570   -0.2280 C   0  0  0  0  0  0  0  0  0  0  0  0
   -6.0360   14.5200    0.7900 C   0  0  0  0  0  0  0  0  0  0  0  0
   -6.2530   13.2150    1.2660 N   0  0  0  0  0  0  0  0  0  0  0  0
   -7.2700   14.9730    0.3310 O   0  0  0  0  0  0  0  0  0  0  0  0
   -5.6510   15.1600    1.9960 N   0  0  0  0  0  0  0  0  0  0  0  0
  2  1  1  0
  2  3  1  0
  1  4  1  0
  2  5  2  0
  2  6  2  0
  4  7  2  0
  4  8  1  0
  7  9  1  0
  8 10  2  0
  9 11  2  0
 10 11  1  0
 11 12  1  0
 12 13  1  0
 12 14  1  0
 12 15  1  0
M  END
