diamond-x0574_0_A-mac-x0180
     RDKit          3D

 17 18  0  0  0  0  0  0  0  0999 V2000
    0.2510   14.0810    2.3810 N   0  0  0  0  0  0  0  0  0  0  0  0
   -0.7270   14.2870    1.5630 C   0  0  0  0  0  0  0  0  0  0  0  0
   -1.9220   14.2950    1.9970 N   0  0  0  0  0  0  0  0  0  0  0  0
   -0.4860   14.5410   -0.0880 S   0  0  0  0  0  0  0  0  0  0  0  0
   -2.7800   14.4760    0.9770 C   0  0  0  0  0  0  0  0  0  0  0  0
   -2.1940   14.6360   -0.2640 C   0  0  0  0  0  0  0  0  0  0  0  0
   -4.1480   14.4940    1.1240 C   0  0  0  0  0  0  0  0  0  0  0  0
   -2.9340   14.8270   -1.4080 C   0  0  0  0  0  0  0  0  0  0  0  0
   -2.1480   14.9810   -2.6920 C   0  0  0  0  0  0  0  0  0  0  0  0
   -4.9760   14.6640    0.0270 C   0  0  0  0  0  0  0  0  0  0  0  0
   -4.3630   14.8420   -1.2570 C   0  0  0  0  0  0  0  0  0  0  0  0
   -6.4650   14.6150    0.3130 C   0  0  1  0  0  0  0  0  0  0  0  0
   -2.6290   15.0540   -3.8070 O   0  0  0  0  0  0  0  0  0  0  0  0
   -0.7980   15.0390   -2.5120 O   0  0  0  0  0  0  0  0  0  0  0  0
   -6.8050   14.7290    1.8140 C   0  0  0  0  0  0  0  0  0  0  0  0
   -7.2320   15.4900   -0.4710 O   0  0  0  0  0  0  0  0  0  0  0  0
   -6.9050   13.3350   -0.1290 N   0  0  0  0  0  0  0  0  0  0  0  0
  1  2  1  0
  2  3  2  0
  2  4  1  0
  3  5  1  0
  4  6  1  0
  5  6  2  0
  5  7  1  0
  6  8  1  0
  8  9  1  0
  7 10  2  0
  8 11  2  0
 10 11  1  0
 10 12  1  0
  9 13  2  0
  9 14  1  0
 12 15  1  1
 12 16  1  0
 12 17  1  0
M  END
