diamond-x0962_2_B-mac-x0396
     RDKit          3D

 17 18  0  0  0  0  0  0  0  0999 V2000
  -11.2280   15.8810    1.5360 N   0  0  0  0  0  0  0  0  0  0  0  0
   -9.7760   15.8210    1.4140 C   0  0  2  0  0  0  0  0  0  0  0  0
   -9.2790   14.9050    0.2560 C   0  0  0  0  0  0  0  0  0  0  0  0
   -9.1670   15.4590    2.7290 C   0  0  0  0  0  0  0  0  0  0  0  0
   -8.9680   16.3530    3.7650 N   0  0  0  0  0  0  0  0  0  0  0  0
   -8.6810   14.2630    3.2200 C   0  0  0  0  0  0  0  0  0  0  0  0
   -7.7810   14.8920    0.0920 C   0  0  0  0  0  0  0  0  0  0  0  0
   -8.3820   15.6720    4.7940 C   0  0  0  0  0  0  0  0  0  0  0  0
   -8.2010   14.4070    4.4930 N   0  0  0  0  0  0  0  0  0  0  0  0
   -7.2420   15.1710   -1.1320 N   0  0  0  0  0  0  0  0  0  0  0  0
   -6.9990   14.6150    1.1930 C   0  0  0  0  0  0  0  0  0  0  0  0
   -5.8760   15.1770   -1.2250 C   0  0  0  0  0  0  0  0  0  0  0  0
   -5.6300   14.6320    1.0580 C   0  0  0  0  0  0  0  0  0  0  0  0
   -5.0450   14.9140   -0.1470 C   0  0  0  0  0  0  0  0  0  0  0  0
   -3.5700   14.8950   -0.1330 C   0  0  0  0  0  0  0  0  0  0  0  0
   -2.9850   14.7370    1.1030 N   0  0  0  0  0  0  0  0  0  0  0  0
   -2.9000   15.0050   -1.1510 O   0  0  0  0  0  0  0  0  0  0  0  0
  2  1  1  1
  2  3  1  0
  2  4  1  0
  4  5  1  0
  4  6  2  0
  3  7  1  0
  5  8  1  0
  6  9  1  0
  8  9  2  0
  7 10  2  0
  7 11  1  0
 10 12  1  0
 11 13  2  0
 12 14  2  0
 13 14  1  0
 14 15  1  0
 15 16  1  0
 15 17  2  0
M  END
