diamond-x0895_0_A-mac-x0138
     RDKit          3D

 12 13  0  0  0  0  0  0  0  0999 V2000
   -1.4300   14.5740    2.0020 O   0  0  0  0  0  0  0  0  0  0  0  0
   -2.3500   14.4800    1.2010 C   0  0  0  0  0  0  0  0  0  0  0  0
   -3.7840   14.9170    1.4330 C   0  0  0  0  0  0  0  0  0  0  0  0
   -2.1390   13.9460   -0.0260 N   0  0  0  0  0  0  0  0  0  0  0  0
   -4.3040   15.6100    0.2470 N   0  0  0  0  0  0  0  0  0  0  0  0
   -3.2250   13.6960   -0.8680 N   0  0  0  0  0  0  0  0  0  0  0  0
   -4.1660   14.7880   -0.9450 C   0  0  1  0  0  0  0  0  0  0  0  0
   -2.7480   13.5830   -2.2290 C   0  0  0  0  0  0  0  0  0  0  0  0
   -5.4120   14.2920   -1.3230 O   0  0  0  0  0  0  0  0  0  0  0  0
   -2.2890   14.9240   -2.4210 N   0  0  0  0  0  0  0  0  0  0  0  0
   -3.5890   15.5550   -2.1440 C   0  0  0  0  0  0  0  0  0  0  0  0
   -1.7710   15.1660   -3.7600 C   0  0  0  0  0  0  0  0  0  0  0  0
  1  2  2  0
  2  3  1  0
  2  4  1  0
  3  5  1  0
  4  6  1  0
  5  7  1  0
  6  7  1  0
  6  8  1  0
  7  9  1  6
  8 10  1  0
  7 11  1  0
 10 11  1  0
 10 12  1  0
M  END
