diamond-x0926_0_A-mac-x0148
     RDKit          3D

 21 24  0  0  0  0  0  0  0  0999 V2000
   -6.5610   15.0080   -0.0080 O   0  0  0  0  0  0  0  0  0  0  0  0
   -5.3940   15.2570   -0.2960 C   0  0  0  0  0  0  0  0  0  0  0  0
   -4.4100   15.8280    0.6530 C   0  0  0  0  0  0  0  0  0  0  0  0
   -4.8900   15.0310   -1.5460 N   0  0  0  0  0  0  0  0  0  0  0  0
   -3.6360   14.4040   -1.7050 N   0  0  0  0  0  0  0  0  0  0  0  0
   -3.1190   15.6270    0.4560 C   0  0  0  0  0  0  0  0  0  0  0  0
   -2.6140   14.7730   -0.6890 C   0  0  1  0  0  0  0  0  0  0  0  0
   -2.4290   13.6650    0.3360 C   0  0  0  0  0  0  0  0  0  0  0  0
   -1.0720   14.5480   -1.2100 C   0  0  1  0  0  0  0  0  0  0  0  0
   -0.4730   14.6370   -2.5910 N   0  0  0  0  0  0  0  0  0  0  0  0
   -0.1390   15.1300   -0.2670 N   0  0  0  0  0  0  0  0  0  0  0  0
   -1.5550   14.1610    1.4210 N   0  0  0  0  0  0  0  0  0  0  0  0
   -1.2580   14.8650   -3.8700 C   0  0  2  0  0  0  0  0  0  0  0  0
    0.4680   13.5200   -2.7430 C   0  0  0  0  0  0  0  0  0  0  0  0
   -0.1970   14.3970    0.9670 C   0  0  0  0  0  0  0  0  0  0  0  0
   -2.7860   14.8920   -3.7850 C   0  0  0  0  0  0  0  0  0  0  0  0
   -1.0490   13.9060   -5.0980 C   0  0  2  0  0  0  0  0  0  0  0  0
   -0.2380   12.3100   -3.3390 C   0  0  0  0  0  0  0  0  0  0  0  0
   -2.4450   13.7420   -5.6890 C   0  0  0  0  0  0  0  0  0  0  0  0
   -3.2410   14.7830   -5.1400 O   0  0  0  0  0  0  0  0  0  0  0  0
   -0.4540   12.5180   -4.8160 C   0  0  0  0  0  0  0  0  0  0  0  0
  1  2  2  0
  2  3  1  0
  2  4  1  0
  4  5  1  0
  3  6  2  0
  5  7  1  0
  7  6  1  1
  7  8  1  0
  7  9  1  0
  9 10  1  6
  9 11  1  0
  8 12  1  0
 10 13  1  0
 10 14  1  0
 11 15  1  0
 12 15  1  0
 13 16  1  1
 13 17  1  0
 14 18  1  0
 17 19  1  1
 16 20  1  0
 19 20  1  0
 17 21  1  0
 18 21  1  0
M  END
