diamond-x0421_0_A-mac-x0142
     RDKit          3D

 24 28  0  0  0  0  0  0  0  0999 V2000
   -4.5040   14.7110   -3.1090 N   0  0  0  0  0  0  0  0  0  0  0  0
   -3.5030   14.9700   -2.2240 C   0  0  0  0  0  0  0  0  0  0  0  0
   -2.6120   15.7640   -2.5260 O   0  0  0  0  0  0  0  0  0  0  0  0
   -3.5800   14.2250   -0.8790 C   0  0  1  0  0  0  0  0  0  0  0  0
   -2.7290   14.9260    0.2070 C   0  0  1  0  0  0  0  0  0  0  0  0
   -4.9760   14.2680   -0.4010 N   0  0  0  0  0  0  0  0  0  0  0  0
   -3.7520   15.4670    1.1330 N   0  0  0  0  0  0  0  0  0  0  0  0
   -4.8140   14.4470    1.0030 C   0  0  1  0  0  0  0  0  0  0  0  0
   -1.7700   14.1920    1.0390 N   0  0  0  0  0  0  0  0  0  0  0  0
   -1.8360   15.8240   -0.6140 C   0  0  0  0  0  0  0  0  0  0  0  0
   -6.1170   14.7330    1.6900 C   0  0  0  0  0  0  0  0  0  0  0  0
   -0.3490   14.5610    0.8610 C   0  0  0  0  0  0  0  0  0  0  0  0
   -1.0200   14.7590   -1.4030 C   0  0  1  0  0  0  0  0  0  0  0  0
   -7.4890   14.6920    1.0320 C   0  0  0  0  0  0  0  0  0  0  0  0
   -7.0610   13.5720    1.9280 C   0  0  0  0  0  0  0  0  0  0  0  0
   -0.6730   15.0050   -2.8360 N   0  0  0  0  0  0  0  0  0  0  0  0
    0.1000   14.4350   -0.5240 N   0  0  0  0  0  0  0  0  0  0  0  0
   -1.6550   14.4630   -3.8350 C   0  0  0  0  0  0  0  0  0  0  0  0
    0.7510   14.9400   -3.2300 C   0  0  0  0  0  0  0  0  0  0  0  0
    1.0830   13.7070   -4.0370 C   0  0  0  0  0  0  0  0  0  0  0  0
   -1.2280   13.2860   -4.7210 C   0  0  0  0  0  0  0  0  0  0  0  0
    2.5040   13.1840   -4.0890 C   0  0  0  0  0  0  0  0  0  0  0  0
    1.4770   12.4620   -3.2750 C   0  0  0  0  0  0  0  0  0  0  0  0
    0.1840   13.4950   -5.2230 C   0  0  0  0  0  0  0  0  0  0  0  0
  1  2  1  0
  2  3  2  0
  4  2  1  6
  4  5  1  0
  4  6  1  0
  5  7  1  0
  6  8  1  0
  7  8  1  0
  5  9  1  0
  5 10  1  6
  8 11  1  6
  9 12  1  0
 10 13  1  0
 11 14  1  0
 11 15  1  0
 14 15  1  0
 13 16  1  6
 12 17  1  0
 13 17  1  0
 16 18  1  0
 16 19  1  0
 20 19  1  0
 18 21  1  0
 20 22  1  0
 20 23  1  0
 22 23  1  0
 20 24  1  0
 21 24  1  0
M  END
