diamond-x0587_0_A-diamond-x0685_1_A
     RDKit          3D

 28 29  0  0  0  0  0  0  0  0999 V2000
   -7.7730   14.8550    4.0860 N   0  0  0  0  0  0  0  0  0  0  0  0
   -8.2500   14.8870    2.8110 C   0  0  0  0  0  0  0  0  0  0  0  0
   -9.4480   15.0210    2.5770 O   0  0  0  0  0  0  0  0  0  0  0  0
   -7.2620   14.7740    1.7300 C   0  0  0  0  0  0  0  0  0  0  0  0
   -7.6450   14.5700    0.4240 C   0  0  0  0  0  0  0  0  0  0  0  0
   -5.9030   14.8740    1.9330 C   0  0  0  0  0  0  0  0  0  0  0  0
   -6.7640   14.4790   -0.6010 N   0  0  0  0  0  0  0  0  0  0  0  0
   -4.9800   14.7910    0.9540 N   0  0  0  0  0  0  0  0  0  0  0  0
   -5.4410   14.5960   -0.3050 C   0  0  0  0  0  0  0  0  0  0  0  0
   -4.4100   14.5090   -1.4460 C   0  0  0  0  0  0  0  0  0  0  0  0
   -3.0850   14.8540   -0.9910 O   0  0  0  0  0  0  0  0  0  0  0  0
   -4.3430   13.2670   -2.0160 F   0  0  0  0  0  0  0  0  0  0  0  0
   -4.7420   15.3420   -2.4840 F   0  0  0  0  0  0  0  0  0  0  0  0
   -2.2380   13.7250   -0.7200 C   0  0  0  0  0  0  0  0  0  0  0  0
   -0.8480   13.9320   -1.3430 C   0  0  0  0  0  0  0  0  0  0  0  0
   -0.0160   12.7610   -1.2990 O   0  0  0  0  0  0  0  0  0  0  0  0
    0.6050   12.0510   -2.6080 S   0  0  0  0  0  0  0  0  0  0  0  0
   -0.1620   12.6710   -4.1100 C   0  0  0  0  0  0  0  0  0  0  0  0
    2.1700   12.3370   -2.8150 O   0  0  0  0  0  0  0  0  0  0  0  0
    0.3250   10.4660   -2.5490 O   0  0  0  0  0  0  0  0  0  0  0  0
   -1.4970   12.0010   -4.4270 C   0  0  0  0  0  0  0  0  0  0  0  0
   -1.3680   10.5980   -4.8570 N   0  0  0  0  0  0  0  0  0  0  0  0
   -0.7050   10.3650   -6.1450 C   0  0  0  0  0  0  0  0  0  0  0  0
   -0.4980    8.8690   -6.4170 C   0  0  0  0  0  0  0  0  0  0  0  0
   -1.5740   10.9820   -7.2660 C   0  0  0  0  0  0  0  0  0  0  0  0
    0.1080    8.6450   -7.8030 C   0  0  0  0  0  0  0  0  0  0  0  0
   -1.0420   10.7100   -8.6780 C   0  0  0  0  0  0  0  0  0  0  0  0
   -0.7500    9.2350   -8.9230 C   0  0  0  0  0  0  0  0  0  0  0  0
  1  2  1  0
  2  3  2  0
  2  4  1  0
  4  5  2  0
  4  6  1  0
  5  7  1  0
  6  8  2  0
  7  9  2  0
  8  9  1  0
  9 10  1  0
 10 11  1  0
 10 12  1  0
 10 13  1  0
 11 14  1  0
 14 15  1  0
 15 16  1  0
 17 16  1  0
 17 18  1  0
 17 19  1  0
 17 20  1  0
 18 21  1  0
 21 22  1  0
 22 23  1  0
 23 24  1  0
 23 25  1  0
 24 26  1  0
 25 27  1  0
 26 28  1  0
 27 28  1  0
M  END
