diamond-x0591_0_A-diamond-x0844_0_A
     RDKit          3D

 21 22  0  0  0  0  0  0  0  0999 V2000
   -8.1910   13.9720   -1.0160 N   0  0  0  0  0  0  0  0  0  0  0  0
   -8.9450   13.9310    0.2280 C   0  0  0  0  0  0  0  0  0  0  0  0
   -6.8900   14.3040   -0.8600 C   0  0  0  0  0  0  0  0  0  0  0  0
   -6.4790   14.7540    0.2380 N   0  0  0  0  0  0  0  0  0  0  0  0
   -5.8110   14.1890   -1.9300 C   0  0  0  0  0  0  0  0  0  0  0  0
   -4.5730   13.5510   -1.6680 C   0  0  0  0  0  0  0  0  0  0  0  0
   -6.0320   14.7370   -3.1930 C   0  0  0  0  0  0  0  0  0  0  0  0
   -5.1580   15.0050    0.3470 C   0  0  0  0  0  0  0  0  0  0  0  0
   -3.5760   13.4860   -2.6650 C   0  0  0  0  0  0  0  0  0  0  0  0
   -5.0430   14.6660   -4.1830 C   0  0  0  0  0  0  0  0  0  0  0  0
   -4.6150   14.9620    1.5550 N   0  0  0  0  0  0  0  0  0  0  0  0
   -4.4640   15.2590   -0.8080 C   0  0  0  0  0  0  0  0  0  0  0  0
   -3.8220   14.0550   -3.9250 C   0  0  0  0  0  0  0  0  0  0  0  0
   -3.3010   15.1710    1.6150 C   0  0  0  0  0  0  0  0  0  0  0  0
   -3.1130   15.4590   -0.7080 C   0  0  0  0  0  0  0  0  0  0  0  0
   -2.6080   14.0220   -5.2310 S   0  0  0  0  0  0  0  0  0  0  0  0
   -2.1070   15.7620   -2.2680 Br  0  0  0  0  0  0  0  0  0  0  0  0
   -2.5000   15.4220    0.5260 C   0  0  0  0  0  0  0  0  0  0  0  0
   -1.3680   15.0230   -4.6780 N   0  0  0  0  0  0  0  0  0  0  0  0
   -2.0230   12.7060   -5.2950 O   0  0  0  0  0  0  0  0  0  0  0  0
   -3.1890   14.6760   -6.3820 O   0  0  0  0  0  0  0  0  0  0  0  0
  1  2  1  0
  1  3  1  0
  3  4  2  3
  3  5  1  0
  5  6  2  0
  5  7  1  0
  4  8  1  0
  6  9  1  0
  7 10  2  0
  8 11  2  0
  8 12  1  0
  9 13  2  0
 10 13  1  0
 11 14  1  0
 12 15  2  0
 13 16  1  0
 15 17  1  0
 14 18  2  0
 15 18  1  0
 16 19  1  0
 16 20  2  0
 16 21  2  0
M  END
