diamond-x0592_0_A-diamond-x1012_0_A
     RDKit          3D

 24 25  0  0  0  0  0  0  0  0999 V2000
   -2.8150   14.9080    0.9770 N   0  0  0  0  0  0  0  0  0  0  0  0
   -3.3670   14.6500   -0.2530 C   0  0  0  0  0  0  0  0  0  0  0  0
   -2.8360   14.2820   -1.3630 N   0  0  0  0  0  0  0  0  0  0  0  0
   -4.8030   14.7940   -0.3050 C   0  0  0  0  0  0  0  0  0  0  0  0
   -1.4130   14.0450   -1.4800 C   0  0  0  0  0  0  0  0  0  0  0  0
   -5.6390   15.2680   -1.3440 C   0  0  0  0  0  0  0  0  0  0  0  0
   -5.6890   14.4720    0.6990 C   0  0  0  0  0  0  0  0  0  0  0  0
   -6.9340   15.2410   -1.0220 N   0  0  0  0  0  0  0  0  0  0  0  0
   -6.9360   14.7510    0.2290 N   0  0  0  0  0  0  0  0  0  0  0  0
   -0.8350   14.4730   -2.8530 C   0  0  2  0  0  0  0  0  0  0  0  0
   -8.1750   14.5660    0.9480 C   0  0  0  0  0  0  0  0  0  0  0  0
   -1.7310   15.0850   -3.9120 C   0  0  0  0  0  0  0  0  0  0  0  0
    0.0490   13.4770   -3.5750 C   0  0  2  0  0  0  0  0  0  0  0  0
   -7.9290   14.0980    2.3720 C   0  0  0  0  0  0  0  0  0  0  0  0
    0.7310   12.5050   -2.6380 C   0  0  0  0  0  0  0  0  0  0  0  0
    1.0430   14.3050   -4.3930 C   0  0  0  0  0  0  0  0  0  0  0  0
   -0.9250   15.9730   -4.7570 N   0  0  0  0  0  0  0  0  0  0  0  0
   -7.1250   15.0400    3.0800 O   0  0  0  0  0  0  0  0  0  0  0  0
   -1.2560   17.3090   -4.8360 C   0  0  0  0  0  0  0  0  0  0  0  0
    0.3880   11.2120   -2.8010 O   0  0  0  0  0  0  0  0  0  0  0  0
    1.5250   12.8030   -1.7740 O   0  0  0  0  0  0  0  0  0  0  0  0
    0.5380   15.7180   -4.7690 C   0  0  0  0  0  0  0  0  0  0  0  0
   -0.2430   18.2000   -4.7900 N   0  0  0  0  0  0  0  0  0  0  0  0
   -2.3920   17.7420   -4.9190 O   0  0  0  0  0  0  0  0  0  0  0  0
  1  2  1  0
  2  3  2  3
  2  4  1  0
  3  5  1  0
  4  6  1  0
  4  7  2  0
  6  8  2  0
  7  9  1  0
  8  9  1  0
 10  5  1  1
  9 11  1  0
 10 12  1  0
 10 13  1  0
 11 14  1  0
 13 15  1  1
 13 16  1  0
 12 17  1  0
 14 18  1  0
 17 19  1  0
 15 20  1  0
 15 21  2  0
 16 22  1  0
 17 22  1  0
 19 23  1  0
 19 24  2  0
M  END
