diamond-x0950_1_A-diamond-x0724_0_A
     RDKit          3D

 23 24  0  0  0  0  0  0  0  0999 V2000
    1.0720   13.9910   -4.6840 C   0  0  0  0  0  0  0  0  0  0  0  0
    1.3480   12.5170   -4.4540 C   0  0  2  0  0  0  0  0  0  0  0  0
    0.6890   11.7620   -5.4720 O   0  0  0  0  0  0  0  0  0  0  0  0
    0.9480   12.0940   -3.0290 C   0  0  0  0  0  0  0  0  0  0  0  0
    0.2930   11.0960   -2.7510 O   0  0  0  0  0  0  0  0  0  0  0  0
    1.4340   12.9820   -2.1100 O   0  0  0  0  0  0  0  0  0  0  0  0
    0.4560   13.4390   -1.1630 C   0  0  0  0  0  0  0  0  0  0  0  0
   -0.1080   14.7740   -1.6110 C   0  0  0  0  0  0  0  0  0  0  0  0
   -1.4230   14.6380   -2.3800 C   0  0  0  0  0  0  0  0  0  0  0  0
   -2.6620   14.6660   -1.5170 C   0  0  0  0  0  0  0  0  0  0  0  0
   -2.5960   14.7300   -0.1130 C   0  0  0  0  0  0  0  0  0  0  0  0
   -3.9120   14.6240   -2.1340 C   0  0  0  0  0  0  0  0  0  0  0  0
   -3.7660   14.7470    0.6580 C   0  0  0  0  0  0  0  0  0  0  0  0
   -5.0780   14.6390   -1.3730 C   0  0  0  0  0  0  0  0  0  0  0  0
   -5.0160   14.6970    0.0210 C   0  0  0  0  0  0  0  0  0  0  0  0
   -6.2320   14.7120    0.7570 N   0  0  0  0  0  0  0  0  0  0  0  0
   -7.4310   14.5750    0.1310 N   0  0  0  0  0  0  0  0  0  0  0  0
   -6.4010   14.8650    2.1170 C   0  0  0  0  0  0  0  0  0  0  0  0
   -7.7590   14.8430    2.3770 C   0  0  0  0  0  0  0  0  0  0  0  0
   -8.3370   14.6550    1.1080 C   0  0  0  0  0  0  0  0  0  0  0  0
   -8.4540   14.9880    3.6830 C   0  0  0  0  0  0  0  0  0  0  0  0
   -8.2570   13.7670    4.4450 N   0  0  0  0  0  0  0  0  0  0  0  0
   -8.7110   13.9290    5.8180 C   0  0  0  0  0  0  0  0  0  0  0  0
  2  1  1  6
  2  3  1  0
  2  4  1  0
  4  5  2  0
  4  6  1  0
  6  7  1  0
  7  8  1  0
  8  9  1  0
  9 10  1  0
 10 11  2  0
 10 12  1  0
 11 13  1  0
 12 14  2  0
 13 15  2  0
 14 15  1  0
 15 16  1  0
 16 17  1  0
 16 18  1  0
 18 19  2  0
 17 20  2  0
 19 20  1  0
 19 21  1  0
 21 22  1  0
 22 23  1  0
M  END
