diamond-x0766_0_A-mac-x0439
     RDKit          3D

 22 25  0  0  0  0  0  0  0  0999 V2000
    0.4940   12.4000   -3.0110 C   0  0  0  0  0  0  0  0  0  0  0  0
    1.6140   12.6280   -2.4910 N   0  0  0  0  0  0  0  0  0  0  0  0
    2.1600   13.9080   -2.8230 C   0  0  1  0  0  0  0  0  0  0  0  0
   -0.0870   11.2170   -2.7480 O   0  0  0  0  0  0  0  0  0  0  0  0
   -0.2300   13.4000   -3.8970 C   0  0  2  0  0  0  0  0  0  0  0  0
    0.7270   14.2900   -4.8210 C   0  0  2  0  0  0  0  0  0  0  0  0
   -0.9410   14.5860   -3.2090 C   0  0  1  0  0  0  0  0  0  0  0  0
    3.4540   14.1120   -2.3220 O   0  0  0  0  0  0  0  0  0  0  0  0
    2.1580   14.1460   -4.3350 C   0  0  0  0  0  0  0  0  0  0  0  0
    0.0900   15.6840   -4.6020 C   0  0  2  0  0  0  0  0  0  0  0  0
   -1.7780   14.5220   -1.9950 C   0  0  0  0  0  0  0  0  0  0  0  0
    0.1940   15.5920   -3.1320 C   0  0  0  0  0  0  0  0  0  0  0  0
   -3.1510   14.4600   -2.0710 C   0  0  0  0  0  0  0  0  0  0  0  0
   -1.3290   14.5360   -0.6380 C   0  0  0  0  0  0  0  0  0  0  0  0
   -1.3620   16.0640   -5.2260 C   0  0  1  0  0  0  0  0  0  0  0  0
    0.2100   16.9470   -5.2470 C   0  0  0  0  0  0  0  0  0  0  0  0
   -2.8440   15.9790   -4.2520 Cl  0  0  0  0  0  0  0  0  0  0  0  0
   -2.3800   14.4890    0.2490 C   0  0  0  0  0  0  0  0  0  0  0  0
   -3.8900   14.4280   -0.5420 S   0  0  0  0  0  0  0  0  0  0  0  0
   -1.4020   17.4890   -6.0380 C   0  0  0  0  0  0  0  0  0  0  0  0
    0.8360   17.9590   -5.5480 C   0  0  0  0  0  0  0  0  0  0  0  0
   -0.3180   18.4190   -6.2010 C   0  0  0  0  0  0  0  0  0  0  0  0
  1  2  2  0
  2  3  1  0
  1  4  1  0
  5  1  1  1
  5  6  1  0
  5  7  1  0
  3  8  1  6
  3  9  1  0
  6  9  1  1
  6 10  1  0
  7 11  1  1
  7 12  1  0
 10 12  1  1
 11 13  2  0
 11 14  1  0
 10 15  1  0
 10 16  1  0
 15 17  1  1
 14 18  2  0
 13 19  1  0
 18 19  1  0
 15 20  1  0
 16 21  2  0
 20 22  2  0
 21 22  1  0
M  END
