diamond-x0852_0_B-mac-x0263
     RDKit          3D

 25 27  0  0  0  0  0  0  0  0999 V2000
   -9.7520   17.7530    7.4740 N   0  0  0  0  0  0  0  0  0  0  0  0
   -9.4540   17.2470    6.4710 C   0  0  0  0  0  0  0  0  0  0  0  0
   -9.1350   16.6500    5.2140 C   0  0  0  0  0  0  0  0  0  0  0  0
   -8.1910   15.6120    5.0970 C   0  0  0  0  0  0  0  0  0  0  0  0
   -9.7900   17.1240    4.0710 C   0  0  0  0  0  0  0  0  0  0  0  0
   -7.5390   15.1360    6.2070 O   0  0  0  0  0  0  0  0  0  0  0  0
   -7.9100   15.0570    3.8590 C   0  0  0  0  0  0  0  0  0  0  0  0
   -9.4990   16.5600    2.8360 C   0  0  0  0  0  0  0  0  0  0  0  0
  -10.1180   17.0020    1.6890 O   0  0  0  0  0  0  0  0  0  0  0  0
   -8.5680   15.5360    2.7320 C   0  0  0  0  0  0  0  0  0  0  0  0
   -9.8120   16.1270    0.6060 C   0  0  0  0  0  0  0  0  0  0  0  0
  -10.1900   14.7320    1.0790 C   0  0  2  0  0  0  0  0  0  0  0  0
  -11.1370   14.8790    2.2670 C   0  0  0  0  0  0  0  0  0  0  0  0
   -9.0010   13.7960    1.3930 C   0  0  0  0  0  0  0  0  0  0  0  0
  -11.8800   13.7830    2.4890 O   0  0  0  0  0  0  0  0  0  0  0  0
  -11.2900   15.8470    3.0000 O   0  0  0  0  0  0  0  0  0  0  0  0
   -7.6760   14.2150    0.8120 C   0  0  0  0  0  0  0  0  0  0  0  0
   -7.5080   14.6590   -0.4800 N   0  0  0  0  0  0  0  0  0  0  0  0
   -6.5240   14.2060    1.4450 N   0  0  0  0  0  0  0  0  0  0  0  0
   -6.1730   14.9360   -0.6680 C   0  0  0  0  0  0  0  0  0  0  0  0
   -5.5870   14.6430    0.5510 C   0  0  0  0  0  0  0  0  0  0  0  0
   -5.4580   15.4000   -1.7650 C   0  0  0  0  0  0  0  0  0  0  0  0
   -4.2050   14.8110    0.7130 C   0  0  0  0  0  0  0  0  0  0  0  0
   -4.0780   15.5590   -1.5900 C   0  0  0  0  0  0  0  0  0  0  0  0
   -3.4630   15.2670   -0.3720 C   0  0  0  0  0  0  0  0  0  0  0  0
  1  2  3  0
  2  3  1  0
  3  4  2  0
  3  5  1  0
  4  6  1  0
  4  7  1  0
  5  8  2  0
  8  9  1  0
  7 10  2  0
  8 10  1  0
  9 11  1  0
 12 11  1  1
 12 13  1  0
 12 14  1  0
 13 15  1  0
 13 16  2  0
 14 17  1  0
 17 18  1  0
 17 19  2  0
 18 20  1  0
 19 21  1  0
 20 21  2  0
 20 22  1  0
 21 23  1  0
 22 24  2  0
 23 25  2  0
 24 25  1  0
M  END
