diamond-x1018_0_A-mac-x0138
     RDKit          3D

 18 20  0  0  0  0  0  0  0  0999 V2000
   -8.4040   14.8350    0.8150 Cl  0  0  0  0  0  0  0  0  0  0  0  0
   -7.3500   13.6760   -0.0220 C   0  0  2  0  0  0  0  0  0  0  0  0
   -6.3230   13.1040    0.9050 C   0  0  0  0  0  0  0  0  0  0  0  0
   -6.8070   14.2510   -1.2700 N   0  0  0  0  0  0  0  0  0  0  0  0
   -5.6160   15.0520   -1.1120 N   0  0  0  0  0  0  0  0  0  0  0  0
   -5.0900   13.5680    0.9090 C   0  0  0  0  0  0  0  0  0  0  0  0
   -4.7510   15.0290   -2.2340 N   0  0  0  0  0  0  0  0  0  0  0  0
   -4.7400   14.6860    0.0070 C   0  0  1  0  0  0  0  0  0  0  0  0
   -3.3020   14.9070   -0.4300 C   0  0  1  0  0  0  0  0  0  0  0  0
   -3.4590   15.5430   -1.8000 N   0  0  0  0  0  0  0  0  0  0  0  0
   -2.4430   15.1240   -2.8010 C   0  0  0  0  0  0  0  0  0  0  0  0
   -2.9030   15.6640    0.9030 C   0  0  1  0  0  0  0  0  0  0  0  0
   -2.3370   13.7280   -0.4850 C   0  0  0  0  0  0  0  0  0  0  0  0
   -3.9980   15.6920    1.8850 N   0  0  0  0  0  0  0  0  0  0  0  0
   -1.8470   15.0140    1.6250 N   0  0  0  0  0  0  0  0  0  0  0  0
   -0.9430   14.1600   -0.3680 N   0  0  0  0  0  0  0  0  0  0  0  0
   -0.6880   14.8510    0.8450 C   0  0  2  0  0  0  0  0  0  0  0  0
    0.0220   13.9040    1.6070 N   0  0  0  0  0  0  0  0  0  0  0  0
  2  1  1  1
  2  3  1  0
  2  4  1  0
  4  5  1  0
  3  6  2  0
  5  7  1  0
  5  8  1  0
  8  6  1  6
  8  9  1  0
  7 10  1  0
  9 10  1  0
 10 11  1  0
  9 12  1  0
  9 13  1  6
 12 14  1  1
 12 15  1  0
 13 16  1  0
 15 17  1  0
 16 17  1  0
 17 18  1  1
M  END
