diamond-x0689_0_A-diamond-x0465_0_A
     RDKit          3D

 22 23  0  0  0  0  0  0  0  0999 V2000
   -3.6150   15.2810    1.7230 N   0  0  0  0  0  0  0  0  0  0  0  0
   -4.7580   15.4010    0.8690 C   0  0  0  0  0  0  0  0  0  0  0  0
   -2.5130   14.8590    1.0170 C   0  0  0  0  0  0  0  0  0  0  0  0
   -2.5720   14.8300   -0.3190 N   0  0  0  0  0  0  0  0  0  0  0  0
   -1.4450   14.5000    1.7280 N   0  0  0  0  0  0  0  0  0  0  0  0
   -1.4870   14.4050   -0.9750 C   0  0  0  0  0  0  0  0  0  0  0  0
   -0.3800   14.0770    1.0260 C   0  0  0  0  0  0  0  0  0  0  0  0
   -0.3410   14.0020   -0.3570 C   0  0  0  0  0  0  0  0  0  0  0  0
    0.8290   13.5150   -1.1460 C   0  0  0  0  0  0  0  0  0  0  0  0
    0.7240   13.6190   -2.5800 N   0  0  0  0  0  0  0  0  0  0  0  0
    0.6360   12.5810   -3.3330 C   0  0  0  0  0  0  0  0  0  0  0  0
    0.5400   12.6040   -4.8500 C   0  0  1  0  0  0  0  0  0  0  0  0
    0.6320   11.3350   -2.7850 O   0  0  0  0  0  0  0  0  0  0  0  0
    1.7660   13.3360   -5.3400 C   0  0  0  0  0  0  0  0  0  0  0  0
    0.6300   11.2820   -5.3760 O   0  0  0  0  0  0  0  0  0  0  0  0
   -0.5730   10.6790   -5.6180 C   0  0  0  0  0  0  0  0  0  0  0  0
   -0.6900    9.6670   -6.5720 C   0  0  0  0  0  0  0  0  0  0  0  0
   -1.6870   11.0860   -4.8910 C   0  0  0  0  0  0  0  0  0  0  0  0
    0.3790    9.2700   -7.2790 F   0  0  0  0  0  0  0  0  0  0  0  0
   -1.9110    9.0540   -6.8060 C   0  0  0  0  0  0  0  0  0  0  0  0
   -2.9190   10.4710   -5.1250 C   0  0  0  0  0  0  0  0  0  0  0  0
   -3.0300    9.4570   -6.0800 C   0  0  0  0  0  0  0  0  0  0  0  0
  1  2  1  0
  1  3  1  0
  3  4  2  0
  3  5  1  0
  4  6  1  0
  5  7  2  0
  6  8  2  0
  7  8  1  0
  8  9  1  0
  9 10  1  0
 10 11  2  3
 11 12  1  0
 11 13  1  0
 12 14  1  6
 12 15  1  0
 15 16  1  0
 16 17  2  0
 16 18  1  0
 17 19  1  0
 17 20  1  0
 18 21  2  0
 20 22  2  0
 21 22  1  0
M  END
