diamond-x0933_1_A-diamond-x0516_0_A
     RDKit          3D

 22 24  0  0  0  0  0  0  0  0999 V2000
    3.1630   23.1870   19.2010 N   0  0  0  0  0  0  0  0  0  0  0  0
    3.3160   24.6060   19.1080 C   0  0  1  0  0  0  0  0  0  0  0  0
    3.8810   25.0010   20.3720 N   0  0  0  0  0  0  0  0  0  0  0  0
    4.1670   25.0790   18.0290 N   0  0  0  0  0  0  0  0  0  0  0  0
    5.5890   24.9150   18.3520 O   0  0  0  0  0  0  0  0  0  0  0  0
    4.1090   26.5320   18.0630 C   0  0  0  0  0  0  0  0  0  0  0  0
    5.0880   25.8520   20.2400 C   0  0  0  0  0  0  0  0  0  0  0  0
    6.3400   25.6950   17.4020 C   0  0  1  0  0  0  0  0  0  0  0  0
    4.9240   27.0070   19.2480 C   0  0  0  0  0  0  0  0  0  0  0  0
    7.7310   25.0960   17.2470 C   0  0  0  0  0  0  0  0  0  0  0  0
    5.5050   25.6830   16.1090 C   0  0  0  0  0  0  0  0  0  0  0  0
    4.3200   26.5780   16.0850 N   0  0  0  0  0  0  0  0  0  0  0  0
    3.3520   26.1890   15.0740 C   0  0  0  0  0  0  0  0  0  0  0  0
    1.8780   26.2860   15.3860 C   0  0  0  0  0  0  0  0  0  0  0  0
    1.0070   25.4440   14.6830 C   0  0  0  0  0  0  0  0  0  0  0  0
    1.3490   27.1840   16.3420 C   0  0  0  0  0  0  0  0  0  0  0  0
   -0.3360   25.5210   14.9400 C   0  0  0  0  0  0  0  0  0  0  0  0
   -0.0350   27.2370   16.5890 C   0  0  0  0  0  0  0  0  0  0  0  0
   -0.8490   26.3890   15.8650 C   0  0  0  0  0  0  0  0  0  0  0  0
   -1.3080   24.7830   14.3440 O   0  0  0  0  0  0  0  0  0  0  0  0
   -2.2040   26.2850   15.9470 O   0  0  0  0  0  0  0  0  0  0  0  0
   -2.4390   25.5940   14.7020 C   0  0  0  0  0  0  0  0  0  0  0  0
  2  1  1  1
  2  3  1  0
  2  4  1  0
  4  5  1  0
  4  6  1  0
  3  7  1  0
  5  8  1  0
  6  9  1  0
  7  9  1  0
  8 10  1  6
  8 11  1  0
 11 12  1  0
 12 13  1  0
 13 14  1  0
 14 15  2  0
 14 16  1  0
 15 17  1  0
 16 18  2  0
 17 19  2  0
 18 19  1  0
 17 20  1  0
 19 21  1  0
 20 22  1  0
 21 22  1  0
M  END
