diamond-x0844_0_A-mac-x0231
     RDKit          3D

 23 25  0  0  0  0  0  0  0  0999 V2000
   -7.5980   14.7810    0.1340 O   0  0  0  0  0  0  0  0  0  0  0  0
   -6.4210   14.8970   -0.2070 C   0  0  0  0  0  0  0  0  0  0  0  0
   -5.4130   14.8350    0.7210 N   0  0  0  0  0  0  0  0  0  0  0  0
   -6.0380   15.1140   -1.6550 C   0  0  0  0  0  0  0  0  0  0  0  0
   -4.1280   14.5210    0.4020 C   0  0  0  0  0  0  0  0  0  0  0  0
   -4.5490   15.3040   -1.9370 C   0  0  2  0  0  0  0  0  0  0  0  0
   -4.2150   14.8350   -3.3040 O   0  0  0  0  0  0  0  0  0  0  0  0
   -3.6710   14.7180   -0.8500 C   0  0  0  0  0  0  0  0  0  0  0  0
   -2.9170   14.7360   -3.6930 C   0  0  0  0  0  0  0  0  0  0  0  0
   -2.0550   15.7660   -4.0610 C   0  0  0  0  0  0  0  0  0  0  0  0
   -2.4550   13.4260   -3.6770 C   0  0  0  0  0  0  0  0  0  0  0  0
   -0.7180   15.4780   -4.3450 C   0  0  0  0  0  0  0  0  0  0  0  0
   -1.1370   13.1370   -3.9720 C   0  0  0  0  0  0  0  0  0  0  0  0
   -0.2650   14.1710   -4.2820 C   0  0  0  0  0  0  0  0  0  0  0  0
    0.2470   16.5370   -4.6870 C   0  0  0  0  0  0  0  0  0  0  0  0
   -0.1040   17.6700   -4.9920 O   0  0  0  0  0  0  0  0  0  0  0  0
    1.1540   13.9310   -4.5160 C   0  0  0  0  0  0  0  0  0  0  0  0
    1.5580   16.1560   -4.6250 N   0  0  0  0  0  0  0  0  0  0  0  0
    1.6390   12.5180   -4.4930 C   0  0  0  0  0  0  0  0  0  0  0  0
    2.0040   14.8760   -4.6520 N   0  0  0  0  0  0  0  0  0  0  0  0
    1.2090   11.9220   -3.1870 C   0  0  0  0  0  0  0  0  0  0  0  0
    0.5060   10.7800   -3.3340 O   0  0  0  0  0  0  0  0  0  0  0  0
    1.4260   12.3750   -2.0760 O   0  0  0  0  0  0  0  0  0  0  0  0
  1  2  2  0
  2  3  1  0
  2  4  1  0
  3  5  1  0
  4  6  1  0
  6  7  1  6
  5  8  2  0
  6  8  1  0
  7  9  1  0
  9 10  2  0
  9 11  1  0
 10 12  1  0
 11 13  2  0
 12 14  2  0
 13 14  1  0
 12 15  1  0
 15 16  2  0
 14 17  1  0
 15 18  1  0
 17 19  1  0
 17 20  2  0
 18 20  1  0
 19 21  1  0
 21 22  1  0
 21 23  2  0
M  END
