diamond-x0766_0_A-mac-x0223
     RDKit          3D

 23 25  0  0  0  0  0  0  0  0999 V2000
    0.2380   12.4090   -3.6020 C   0  0  0  0  0  0  0  0  0  0  0  0
   -0.9740   12.7170   -3.0230 O   0  0  0  0  0  0  0  0  0  0  0  0
    0.3400   10.9990   -3.5770 O   0  0  0  0  0  0  0  0  0  0  0  0
    0.1870   13.0760   -5.0130 C   0  0  0  0  0  0  0  0  0  0  0  0
    1.1260   13.1820   -2.7080 C   0  0  1  0  0  0  0  0  0  0  0  0
    2.4080   13.6240   -3.3740 C   0  0  0  0  0  0  0  0  0  0  0  0
    0.4950   14.5120   -2.2000 C   0  0  1  0  0  0  0  0  0  0  0  0
   -0.4730   14.4470   -5.0010 C   0  0  0  0  0  0  0  0  0  0  0  0
    1.9910   14.9070   -4.0650 C   0  0  0  0  0  0  0  0  0  0  0  0
    0.7060   15.4020   -3.4060 C   0  0  0  0  0  0  0  0  0  0  0  0
   -0.9470   14.5770   -1.6800 C   0  0  0  0  0  0  0  0  0  0  0  0
   -1.8690   14.5170   -4.9270 C   0  0  0  0  0  0  0  0  0  0  0  0
    0.2630   15.6650   -5.0460 C   0  0  0  0  0  0  0  0  0  0  0  0
   -2.1150   14.5860   -2.4470 C   0  0  0  0  0  0  0  0  0  0  0  0
   -1.2970   14.6500   -0.2950 C   0  0  0  0  0  0  0  0  0  0  0  0
   -0.4010   16.9000   -5.0040 C   0  0  0  0  0  0  0  0  0  0  0  0
   -2.5240   15.7490   -4.8910 C   0  0  0  0  0  0  0  0  0  0  0  0
    0.1460   18.1480   -5.0250 O   0  0  0  0  0  0  0  0  0  0  0  0
   -2.6540   14.7140   -0.0720 C   0  0  0  0  0  0  0  0  0  0  0  0
   -3.5480   14.6850   -1.5210 S   0  0  0  0  0  0  0  0  0  0  0  0
   -1.7760   16.9170   -4.9250 C   0  0  0  0  0  0  0  0  0  0  0  0
    1.2790   18.3590   -5.8170 C   0  0  0  0  0  0  0  0  0  0  0  0
   -2.3590   18.1500   -4.8790 O   0  0  0  0  0  0  0  0  0  0  0  0
  1  2  1  0
  1  3  1  0
  1  4  1  0
  5  1  1  6
  5  6  1  0
  5  7  1  0
  4  8  1  0
  6  9  1  0
  7 10  1  0
  9 10  1  0
  7 11  1  6
  8 12  2  0
  8 13  1  0
 11 14  2  0
 11 15  1  0
 13 16  2  0
 12 17  1  0
 16 18  1  0
 15 19  2  0
 14 20  1  0
 19 20  1  0
 16 21  1  0
 17 21  2  0
 18 22  1  0
 21 23  1  0
M  END
