diamond-x0967_0_A-diamond-x0926_0_A
     RDKit          3D

 11 12  0  0  0  0  0  0  0  0999 V2000
   -5.7380   14.7630   -2.6900 O   0  0  0  0  0  0  0  0  0  0  0  0
   -5.1600   14.8360   -1.5730 N   0  0  0  0  0  0  0  0  0  0  0  0
   -5.8970   14.7710   -0.4010 C   0  0  0  0  0  0  0  0  0  0  0  0
   -3.7790   14.9840   -1.5150 C   0  0  0  0  0  0  0  0  0  0  0  0
   -7.2500   14.6210   -0.4960 N   0  0  0  0  0  0  0  0  0  0  0  0
   -5.2240   14.8600    0.8210 C   0  0  0  0  0  0  0  0  0  0  0  0
   -3.1040   15.0670   -0.3050 C   0  0  0  0  0  0  0  0  0  0  0  0
   -6.0020   14.7940    1.9700 C   0  0  0  0  0  0  0  0  0  0  0  0
   -7.9560   14.5540    0.6390 C   0  0  0  0  0  0  0  0  0  0  0  0
   -3.8340   15.0090    0.8720 C   0  0  0  0  0  0  0  0  0  0  0  0
   -7.3800   14.6360    1.8920 C   0  0  0  0  0  0  0  0  0  0  0  0
  1  2  1  0
  2  3  2  0
  2  4  1  0
  3  5  1  0
  3  6  1  0
  4  7  2  0
  6  8  1  0
  5  9  2  0
  6 10  2  0
  7 10  1  0
  8 11  2  0
  9 11  1  0
M  CHG  2   1  -1   2   1
M  END
