diamond-x0950_1_A-mac-x0328
     RDKit          3D

 17 17  0  0  0  0  0  0  0  0999 V2000
    1.0920   13.9270   -4.9150 C   0  0  0  0  0  0  0  0  0  0  0  0
    1.3430   12.4950   -4.4760 C   0  0  2  0  0  0  0  0  0  0  0  0
    0.7160   11.6420   -5.4360 O   0  0  0  0  0  0  0  0  0  0  0  0
    0.8510   12.1600   -3.0550 C   0  0  0  0  0  0  0  0  0  0  0  0
    0.2450   11.1220   -2.7830 O   0  0  0  0  0  0  0  0  0  0  0  0
    1.1710   13.1210   -2.1480 O   0  0  0  0  0  0  0  0  0  0  0  0
    0.4780   14.3730   -2.2860 C   0  0  0  0  0  0  0  0  0  0  0  0
   -0.8240   14.4560   -1.6230 N   0  0  0  0  0  0  0  0  0  0  0  0
   -1.8880   14.7440   -2.2780 C   0  0  0  0  0  0  0  0  0  0  0  0
   -1.7850   14.9640   -3.5990 O   0  0  0  0  0  0  0  0  0  0  0  0
   -3.2770   14.8990   -1.8290 C   0  0  0  0  0  0  0  0  0  0  0  0
   -3.5500   14.8930   -0.4540 C   0  0  0  0  0  0  0  0  0  0  0  0
   -4.3130   15.0510   -2.7530 C   0  0  0  0  0  0  0  0  0  0  0  0
   -4.8640   15.0350    0.0020 C   0  0  0  0  0  0  0  0  0  0  0  0
   -5.6220   15.1920   -2.2940 C   0  0  0  0  0  0  0  0  0  0  0  0
   -5.8880   15.1820   -0.9280 C   0  0  0  0  0  0  0  0  0  0  0  0
   -7.1910   15.3180   -0.5450 O   0  0  0  0  0  0  0  0  0  0  0  0
  2  1  1  6
  2  3  1  0
  2  4  1  0
  4  5  2  0
  4  6  1  0
  6  7  1  0
  7  8  1  0
  8  9  2  3
  9 10  1  0
  9 11  1  0
 11 12  2  0
 11 13  1  0
 12 14  1  0
 13 15  2  0
 14 16  2  0
 15 16  1  0
 16 17  1  0
M  END
