diamond-x1018_0_A-mac-x0283
     RDKit          3D

 11 12  0  0  0  0  0  0  0  0999 V2000
   -8.5270   14.5940    0.6160 Cl  0  0  0  0  0  0  0  0  0  0  0  0
   -6.8180   14.6750    0.3350 C   0  0  0  0  0  0  0  0  0  0  0  0
   -5.9020   14.7060    1.5430 C   0  0  0  0  0  0  0  0  0  0  0  0
   -6.4600   14.7100   -0.9050 N   0  0  0  0  0  0  0  0  0  0  0  0
   -6.5230   14.6970    2.7820 N   0  0  0  0  0  0  0  0  0  0  0  0
   -5.1260   14.7680   -1.0500 N   0  0  0  0  0  0  0  0  0  0  0  0
   -4.5810   14.7560    1.2760 C   0  0  0  0  0  0  0  0  0  0  0  0
   -4.5430   14.8170   -2.2540 N   0  0  0  0  0  0  0  0  0  0  0  0
   -4.1550   14.7910   -0.0690 C   0  0  0  0  0  0  0  0  0  0  0  0
   -2.9780   14.8460   -0.6600 N   0  0  0  0  0  0  0  0  0  0  0  0
   -3.2380   14.8630   -2.0110 N   0  0  0  0  0  0  0  0  0  0  0  0
  1  2  1  0
  2  3  1  0
  2  4  2  0
  3  5  1  0
  4  6  1  0
  3  7  2  0
  6  8  1  0
  6  9  1  0
  7  9  1  0
  9 10  2  0
  8 11  2  0
 10 11  1  0
M  END
