diamond-x0685_1_A-mac-x0365
     RDKit          3D

 23 24  0  0  0  0  0  0  0  0999 V2000
   -1.4290   10.6030   -4.9680 N   0  0  0  0  0  0  0  0  0  0  0  0
   -1.4760   12.0230   -4.5990 C   0  0  0  0  0  0  0  0  0  0  0  0
   -0.1110   12.6010   -4.2550 C   0  0  0  0  0  0  0  0  0  0  0  0
   -0.8440   10.3230   -6.2790 C   0  0  0  0  0  0  0  0  0  0  0  0
   -0.6000    8.8160   -6.5020 C   0  0  0  0  0  0  0  0  0  0  0  0
   -1.5950   10.9610   -7.4510 C   0  0  0  0  0  0  0  0  0  0  0  0
    0.3010   12.3920   -2.5320 S   0  0  0  0  0  0  0  0  0  0  0  0
    0.1030    8.5370   -7.8290 C   0  0  0  0  0  0  0  0  0  0  0  0
   -0.9490   10.6260   -8.7960 C   0  0  0  0  0  0  0  0  0  0  0  0
    1.8830   12.6840   -2.4680 O   0  0  0  0  0  0  0  0  0  0  0  0
    0.0320   10.8320   -2.1810 O   0  0  0  0  0  0  0  0  0  0  0  0
   -0.6150   13.4740   -1.7050 O   0  0  0  0  0  0  0  0  0  0  0  0
   -0.6680    9.1330   -8.9990 C   0  0  0  0  0  0  0  0  0  0  0  0
   -1.4500   14.4030   -2.3090 C   0  0  0  0  0  0  0  0  0  0  0  0
   -1.1360   15.0080   -3.3230 O   0  0  0  0  0  0  0  0  0  0  0  0
   -2.8040   14.6280   -1.6680 C   0  0  0  0  0  0  0  0  0  0  0  0
   -3.9410   14.8170   -2.4740 C   0  0  0  0  0  0  0  0  0  0  0  0
   -2.9660   14.6560   -0.2590 C   0  0  0  0  0  0  0  0  0  0  0  0
   -5.1890   15.0130   -1.8950 C   0  0  0  0  0  0  0  0  0  0  0  0
   -4.2380   14.8580    0.3170 C   0  0  0  0  0  0  0  0  0  0  0  0
   -6.2560   15.1820   -2.6850 F   0  0  0  0  0  0  0  0  0  0  0  0
   -5.3500   15.0320   -0.5180 C   0  0  0  0  0  0  0  0  0  0  0  0
   -6.6090   15.2190   -0.0270 O   0  0  0  0  0  0  0  0  0  0  0  0
  1  2  1  0
  2  3  1  0
  1  4  1  0
  4  5  1  0
  4  6  1  0
  3  7  1  0
  5  8  1  0
  6  9  1  0
  7 10  1  0
  7 11  1  0
  7 12  1  0
  8 13  1  0
  9 13  1  0
 12 14  1  0
 14 15  2  0
 14 16  1  0
 16 17  2  0
 16 18  1  0
 17 19  1  0
 18 20  2  0
 19 21  1  0
 19 22  2  0
 20 22  1  0
 22 23  1  0
M  END
