diamond-x0933_1_A-diamond-x0334_0_A
     RDKit          3D

 21 22  0  0  0  0  0  0  0  0999 V2000
    3.1660   25.1410   18.7600 N   0  0  0  0  0  0  0  0  0  0  0  0
    4.0860   25.1310   17.6710 C   0  0  1  0  0  0  0  0  0  0  0  0
    3.6400   26.0310   16.6830 N   0  0  0  0  0  0  0  0  0  0  0  0
    5.4270   25.4770   18.0610 N   0  0  0  0  0  0  0  0  0  0  0  0
    5.4760   26.6900   18.8780 C   0  0  0  0  0  0  0  0  0  0  0  0
    6.3730   25.5520   16.9450 C   0  0  0  0  0  0  0  0  0  0  0  0
    4.4110   25.9100   15.4540 C   0  0  0  0  0  0  0  0  0  0  0  0
    4.8760   27.9650   18.2050 C   0  0  2  0  0  0  0  0  0  0  0  0
    5.7050   25.1510   15.6550 C   0  0  0  0  0  0  0  0  0  0  0  0
    3.4190   27.9050   17.9350 N   0  0  0  0  0  0  0  0  0  0  0  0
    5.6010   28.2430   16.8760 C   0  0  0  0  0  0  0  0  0  0  0  0
    2.9780   28.2150   16.5630 C   0  0  0  0  0  0  0  0  0  0  0  0
    1.6880   27.4700   16.2810 C   0  0  0  0  0  0  0  0  0  0  0  0
    0.5760   27.7100   17.0880 C   0  0  0  0  0  0  0  0  0  0  0  0
    1.5550   26.5380   15.2390 C   0  0  0  0  0  0  0  0  0  0  0  0
   -0.6330   27.0450   16.8680 C   0  0  0  0  0  0  0  0  0  0  0  0
    0.3330   25.8750   15.0310 C   0  0  0  0  0  0  0  0  0  0  0  0
   -0.7980   26.1090   15.8400 C   0  0  0  0  0  0  0  0  0  0  0  0
   -2.0130   25.4510   15.6330 N   0  0  0  0  0  0  0  0  0  0  0  0
   -3.2350   26.0790   16.1250 C   0  0  0  0  0  0  0  0  0  0  0  0
   -2.1760   24.7790   14.3580 C   0  0  0  0  0  0  0  0  0  0  0  0
  2  1  1  1
  2  3  1  0
  2  4  1  0
  4  5  1  0
  4  6  1  0
  3  7  1  0
  5  8  1  0
  6  9  1  0
  7  9  1  0
  8 10  1  0
  8 11  1  6
 10 12  1  0
 12 13  1  0
 13 14  2  0
 13 15  1  0
 14 16  1  0
 15 17  2  0
 16 18  2  0
 17 18  1  0
 18 19  1  0
 19 20  1  0
 19 21  1  0
M  END
