diamond-x0104_0_A-mac-x0204
     RDKit          3D

 27 29  0  0  0  0  0  0  0  0999 V2000
   -6.7730   14.6710    2.6070 N   0  0  0  0  0  0  0  0  0  0  0  0
   -8.0210   15.0790    3.0760 C   0  0  0  0  0  0  0  0  0  0  0  0
   -7.9970   15.1070    4.4670 N   0  0  0  0  0  0  0  0  0  0  0  0
   -6.1860   14.7400    1.3200 C   0  0  0  0  0  0  0  0  0  0  0  0
   -8.9820   15.3640    2.3710 O   0  0  0  0  0  0  0  0  0  0  0  0
   -4.8050   14.8560    1.1200 C   0  0  0  0  0  0  0  0  0  0  0  0
   -6.9820   14.6880    0.1770 C   0  0  0  0  0  0  0  0  0  0  0  0
   -4.1840   14.9160   -0.0930 N   0  0  0  0  0  0  0  0  0  0  0  0
   -6.3780   14.7520   -1.0840 C   0  0  0  0  0  0  0  0  0  0  0  0
   -9.1040   15.1080    5.2910 C   0  0  0  0  0  0  0  0  0  0  0  0
   -4.9910   14.8620   -1.1710 C   0  0  0  0  0  0  0  0  0  0  0  0
   -9.2470   15.2190    6.6560 C   0  0  0  0  0  0  0  0  0  0  0  0
  -10.6010   14.9360    4.4940 S   0  0  0  0  0  0  0  0  0  0  0  0
   -4.4780   14.9120   -2.4620 O   0  0  0  0  0  0  0  0  0  0  0  0
  -11.4640   15.0080    5.9760 C   0  0  0  0  0  0  0  0  0  0  0  0
  -10.6180   15.1610    7.0540 C   0  0  0  0  0  0  0  0  0  0  0  0
   -3.1180   15.3520   -2.6940 C   0  0  0  0  0  0  0  0  0  0  0  0
   -2.4120   14.5950   -3.8010 C   0  0  0  0  0  0  0  0  0  0  0  0
   -1.1440   13.9600   -3.7100 C   0  0  0  0  0  0  0  0  0  0  0  0
   -3.0720   14.5070   -5.0270 C   0  0  0  0  0  0  0  0  0  0  0  0
   -0.1940   13.9210   -2.5840 C   0  0  0  0  0  0  0  0  0  0  0  0
   -4.2600   15.1350   -5.1950 O   0  0  0  0  0  0  0  0  0  0  0  0
   -2.5380   13.7940   -6.0650 C   0  0  0  0  0  0  0  0  0  0  0  0
   -0.6960   13.2640   -4.8190 C   0  0  0  0  0  0  0  0  0  0  0  0
    0.1950   12.6850   -2.2360 O   0  0  0  0  0  0  0  0  0  0  0  0
    0.2290   14.9280   -2.0440 O   0  0  0  0  0  0  0  0  0  0  0  0
   -1.3680   13.1580   -5.9830 N   0  0  0  0  0  0  0  0  0  0  0  0
  1  2  1  0
  2  3  1  0
  1  4  1  0
  2  5  2  0
  4  6  2  0
  4  7  1  0
  6  8  1  0
  7  9  2  0
  3 10  1  0
  8 11  2  0
  9 11  1  0
 10 12  2  0
 10 13  1  0
 11 14  1  0
 13 15  1  0
 12 16  1  0
 15 16  2  0
 14 17  1  0
 17 18  1  0
 18 19  2  0
 18 20  1  0
 19 21  1  0
 20 22  1  0
 20 23  2  0
 19 24  1  0
 21 25  1  0
 21 26  2  0
 23 27  1  0
 24 27  2  0
M  END
