diamond-x0852_0_B-mac-x0303
     RDKit          3D

 22 24  0  0  0  0  0  0  0  0999 V2000
   -9.5610   17.9680    7.3480 N   0  0  0  0  0  0  0  0  0  0  0  0
   -9.3620   17.4080    6.3480 C   0  0  0  0  0  0  0  0  0  0  0  0
   -9.2100   16.6530    5.1390 C   0  0  0  0  0  0  0  0  0  0  0  0
   -8.3360   15.5610    5.1230 C   0  0  0  0  0  0  0  0  0  0  0  0
   -9.9180   16.9690    4.0150 C   0  0  0  0  0  0  0  0  0  0  0  0
   -7.5900   15.2350    6.2560 O   0  0  0  0  0  0  0  0  0  0  0  0
   -8.2450   14.8200    3.9850 C   0  0  0  0  0  0  0  0  0  0  0  0
   -9.8100   16.2140    2.8700 C   0  0  0  0  0  0  0  0  0  0  0  0
  -10.8510   16.7010    1.3140 Br  0  0  0  0  0  0  0  0  0  0  0  0
   -8.9820   15.1560    2.9210 C   0  0  0  0  0  0  0  0  0  0  0  0
   -8.8960   14.1040    1.4910 S   0  0  0  0  0  0  0  0  0  0  0  0
   -8.6210   12.6350    1.7210 N   0  0  0  0  0  0  0  0  0  0  0  0
   -9.5060   14.8420    0.0920 O   0  0  0  0  0  0  0  0  0  0  0  0
   -7.3520   14.4830    0.7810 C   0  0  0  0  0  0  0  0  0  0  0  0
   -7.2010   14.8100   -0.5020 N   0  0  0  0  0  0  0  0  0  0  0  0
   -6.0960   14.5060    1.2570 N   0  0  0  0  0  0  0  0  0  0  0  0
   -5.9260   15.0010   -0.7970 C   0  0  0  0  0  0  0  0  0  0  0  0
   -5.2040   14.8060    0.3200 C   0  0  0  0  0  0  0  0  0  0  0  0
   -5.3110   15.3370   -2.0000 C   0  0  0  0  0  0  0  0  0  0  0  0
   -3.8380   14.9320    0.2910 C   0  0  0  0  0  0  0  0  0  0  0  0
   -3.9600   15.4620   -2.0630 C   0  0  0  0  0  0  0  0  0  0  0  0
   -3.2380   15.2540   -0.9150 C   0  0  0  0  0  0  0  0  0  0  0  0
  1  2  3  0
  2  3  1  0
  3  4  2  0
  3  5  1  0
  4  6  1  0
  4  7  1  0
  5  8  2  0
  8  9  1  0
  7 10  2  0
  8 10  1  0
 10 11  1  0
 11 12  1  0
 11 13  2  0
 11 14  1  0
 14 15  1  0
 14 16  2  0
 15 17  1  0
 16 18  1  0
 17 18  2  0
 17 19  1  0
 18 20  1  0
 19 21  2  0
 20 22  2  0
 21 22  1  0
M  END
