diamond-x0724_0_A-diamond-x0962_1_A
     RDKit          3D

 16 17  0  0  0  0  0  0  0  0999 V2000
   -8.2730   13.9850    4.3990 N   0  0  0  0  0  0  0  0  0  0  0  0
   -8.6860   14.5500    5.6770 C   0  0  0  0  0  0  0  0  0  0  0  0
   -8.3520   14.9140    3.2640 C   0  0  0  0  0  0  0  0  0  0  0  0
   -7.8620   14.2300    1.9850 C   0  0  2  0  0  0  0  0  0  0  0  0
   -6.3470   14.0700    1.9120 C   0  0  0  0  0  0  0  0  0  0  0  0
   -8.2520   14.8920    0.6510 C   0  0  0  0  0  0  0  0  0  0  0  0
   -7.0850   14.5950   -0.2670 N   0  0  0  0  0  0  0  0  0  0  0  0
   -6.0680   13.8490    0.5020 N   0  0  0  0  0  0  0  0  0  0  0  0
   -6.2590   15.4450   -0.9300 C   0  0  0  0  0  0  0  0  0  0  0  0
   -4.7680   14.1220    0.0430 C   0  0  0  0  0  0  0  0  0  0  0  0
   -5.4110   16.0320   -1.4570 N   0  0  0  0  0  0  0  0  0  0  0  0
   -3.7180   14.5680    0.8610 C   0  0  0  0  0  0  0  0  0  0  0  0
   -4.5020   13.9500   -1.3250 C   0  0  0  0  0  0  0  0  0  0  0  0
   -2.4550   14.8280    0.3170 C   0  0  0  0  0  0  0  0  0  0  0  0
   -3.2520   14.2090   -1.8710 C   0  0  0  0  0  0  0  0  0  0  0  0
   -2.2260   14.6480   -1.0490 C   0  0  0  0  0  0  0  0  0  0  0  0
  1  2  1  0
  1  3  1  0
  4  3  1  1
  4  5  1  0
  4  6  1  0
  6  7  1  0
  5  8  1  0
  7  8  1  0
  7  9  1  0
  8 10  1  0
  9 11  3  0
 10 12  2  0
 10 13  1  0
 12 14  1  0
 13 15  2  0
 14 16  2  0
 15 16  1  0
M  END
