diamond-x0895_0_A-mac-x0231
     RDKit          3D

 24 26  0  0  0  0  0  0  0  0999 V2000
   -1.6790   14.5080    1.7010 O   0  0  0  0  0  0  0  0  0  0  0  0
   -2.7090   14.6650    1.0400 C   0  0  0  0  0  0  0  0  0  0  0  0
   -4.0510   15.2140    1.4980 C   0  0  0  0  0  0  0  0  0  0  0  0
   -2.9060   14.3880   -0.3080 N   0  0  0  0  0  0  0  0  0  0  0  0
   -4.4170   15.8510    0.2600 N   0  0  0  0  0  0  0  0  0  0  0  0
   -4.0850   14.9680   -0.7100 C   0  0  0  0  0  0  0  0  0  0  0  0
   -4.8340   14.7810   -1.7580 N   0  0  0  0  0  0  0  0  0  0  0  0
   -4.6420   13.8330   -2.8820 C   0  0  0  0  0  0  0  0  0  0  0  0
   -4.3100   14.4920   -4.2490 C   0  0  0  0  0  0  0  0  0  0  0  0
   -2.8400   14.4430   -4.4010 C   0  0  0  0  0  0  0  0  0  0  0  0
   -2.0410   15.5960   -4.4660 C   0  0  0  0  0  0  0  0  0  0  0  0
   -2.2800   13.1840   -4.4440 C   0  0  0  0  0  0  0  0  0  0  0  0
   -0.6530   15.4440   -4.5290 C   0  0  0  0  0  0  0  0  0  0  0  0
   -0.9180   13.0400   -4.5070 C   0  0  0  0  0  0  0  0  0  0  0  0
   -0.1150   14.1690   -4.5280 C   0  0  0  0  0  0  0  0  0  0  0  0
    0.2630   16.5940   -4.5740 C   0  0  0  0  0  0  0  0  0  0  0  0
   -0.1430   17.7470   -4.6980 O   0  0  0  0  0  0  0  0  0  0  0  0
    1.3300   14.0380   -4.5150 C   0  0  0  0  0  0  0  0  0  0  0  0
    1.5920   16.2860   -4.4680 N   0  0  0  0  0  0  0  0  0  0  0  0
    1.8760   12.6520   -4.4580 C   0  0  0  0  0  0  0  0  0  0  0  0
    2.1290   15.0390   -4.4690 N   0  0  0  0  0  0  0  0  0  0  0  0
    1.3640   12.0300   -3.1890 C   0  0  0  0  0  0  0  0  0  0  0  0
    0.6530   10.9000   -3.3820 O   0  0  0  0  0  0  0  0  0  0  0  0
    1.5260   12.4580   -2.0620 O   0  0  0  0  0  0  0  0  0  0  0  0
  1  2  2  0
  2  3  1  0
  2  4  1  0
  3  5  1  0
  4  6  1  0
  5  6  1  0
  6  7  2  3
  7  8  1  0
  8  9  1  0
  9 10  1  0
 10 11  2  0
 10 12  1  0
 11 13  1  0
 12 14  2  0
 13 15  2  0
 14 15  1  0
 13 16  1  0
 16 17  2  0
 15 18  1  0
 16 19  1  0
 18 20  1  0
 18 21  2  0
 19 21  1  0
 20 22  1  0
 22 23  1  0
 22 24  2  0
M  END
