diamond-x0421_0_A-mac-x0348
     RDKit          3D

 27 30  0  0  0  0  0  0  0  0999 V2000
   -4.2060   15.2030   -2.6870 N   0  0  0  0  0  0  0  0  0  0  0  0
   -3.0860   14.9590   -1.9560 C   0  0  0  0  0  0  0  0  0  0  0  0
   -1.9040   14.8060   -2.4510 N   0  0  0  0  0  0  0  0  0  0  0  0
   -3.4880   14.9080   -0.5510 C   0  0  0  0  0  0  0  0  0  0  0  0
   -0.6120   14.5480   -1.8250 C   0  0  0  0  0  0  0  0  0  0  0  0
   -2.7760   14.9670    0.6320 C   0  0  0  0  0  0  0  0  0  0  0  0
   -4.8460   14.7790   -0.2760 N   0  0  0  0  0  0  0  0  0  0  0  0
    0.3940   14.6840   -3.0220 C   0  0  1  0  0  0  0  0  0  0  0  0
   -3.7240   14.8720    1.6210 N   0  0  0  0  0  0  0  0  0  0  0  0
   -4.9440   14.7590    1.0200 C   0  0  0  0  0  0  0  0  0  0  0  0
    0.5670   13.3500   -3.7540 C   0  0  0  0  0  0  0  0  0  0  0  0
   -6.2850   14.6240    1.7920 C   0  0  0  0  0  0  0  0  0  0  0  0
   -0.0000   15.7470   -4.0280 C   0  0  0  0  0  0  0  0  0  0  0  0
    0.7900   12.2420   -2.7770 C   0  0  0  0  0  0  0  0  0  0  0  0
   -7.5770   14.6450    1.0190 C   0  0  0  0  0  0  0  0  0  0  0  0
   -7.0930   13.3680    1.6360 C   0  0  0  0  0  0  0  0  0  0  0  0
    0.7330   16.7970   -4.5170 C   0  0  0  0  0  0  0  0  0  0  0  0
   -1.2680   15.8230   -4.6570 C   0  0  0  0  0  0  0  0  0  0  0  0
    1.4550   12.4020   -1.7850 O   0  0  0  0  0  0  0  0  0  0  0  0
    0.1940   11.0730   -3.0690 O   0  0  0  0  0  0  0  0  0  0  0  0
   -0.0270   17.5020   -5.4080 N   0  0  0  0  0  0  0  0  0  0  0  0
   -1.2770   16.9320   -5.5010 C   0  0  0  0  0  0  0  0  0  0  0  0
   -2.4070   15.0160   -4.5550 C   0  0  0  0  0  0  0  0  0  0  0  0
    0.4380   18.6610   -6.1210 C   0  0  0  0  0  0  0  0  0  0  0  0
   -3.5290   15.3280   -5.2710 C   0  0  0  0  0  0  0  0  0  0  0  0
   -2.4190   17.2620   -6.2350 C   0  0  0  0  0  0  0  0  0  0  0  0
   -3.5320   16.4220   -6.0810 C   0  0  0  0  0  0  0  0  0  0  0  0
  1  2  1  0
  2  3  2  3
  2  4  1  0
  3  5  1  0
  4  6  2  0
  4  7  1  0
  8  5  1  1
  6  9  1  0
  7 10  2  0
  9 10  1  0
  8 11  1  0
 10 12  1  0
  8 13  1  0
 11 14  1  0
 12 15  1  0
 12 16  1  0
 15 16  1  0
 13 17  2  0
 13 18  1  0
 14 19  2  0
 14 20  1  0
 17 21  1  0
 18 22  2  0
 21 22  1  0
 18 23  1  0
 21 24  1  0
 23 25  2  0
 22 26  1  0
 25 27  1  0
 26 27  2  0
M  END
