diamond-x0900_0_A-mac-x0387
     RDKit          3D

 16 18  0  0  0  0  0  0  0  0999 V2000
   -7.2170   14.1680   -0.3490 O   0  0  0  0  0  0  0  0  0  0  0  0
   -6.0510   14.4490   -0.1460 C   0  0  0  0  0  0  0  0  0  0  0  0
   -5.3820   15.4060   -0.8120 N   0  0  0  0  0  0  0  0  0  0  0  0
   -5.1040   13.8360    0.8610 C   0  0  0  0  0  0  0  0  0  0  0  0
   -4.0320   14.9350    1.0610 C   0  0  2  0  0  0  0  0  0  0  0  0
   -4.3930   15.9700    0.0310 C   0  0  0  0  0  0  0  0  0  0  0  0
   -2.5890   14.7170    0.7580 C   0  0  0  0  0  0  0  0  0  0  0  0
   -2.2620   14.7030   -0.6000 C   0  0  0  0  0  0  0  0  0  0  0  0
   -1.6730   14.5690    1.7590 N   0  0  0  0  0  0  0  0  0  0  0  0
   -0.9240   14.5380   -0.9550 C   0  0  0  0  0  0  0  0  0  0  0  0
   -0.3870   14.4060    1.3740 C   0  0  0  0  0  0  0  0  0  0  0  0
   -3.2120   14.8520   -1.6400 C   0  0  0  0  0  0  0  0  0  0  0  0
    0.0260   14.3890    0.0490 C   0  0  0  0  0  0  0  0  0  0  0  0
   -0.5660   14.5290   -2.3110 C   0  0  0  0  0  0  0  0  0  0  0  0
   -2.8580   14.8430   -2.9730 C   0  0  0  0  0  0  0  0  0  0  0  0
   -1.5290   14.6810   -3.3160 C   0  0  0  0  0  0  0  0  0  0  0  0
  1  2  2  0
  2  3  1  0
  2  4  1  0
  4  5  1  0
  3  6  1  0
  5  6  1  0
  5  7  1  6
  7  8  1  0
  7  9  2  0
  8 10  2  0
  9 11  1  0
  8 12  1  0
 10 13  1  0
 11 13  2  0
 10 14  1  0
 12 15  2  0
 14 16  2  0
 15 16  1  0
M  END
