diamond-x0587_0_A-mac-x0282
     RDKit          3D

 21 23  0  0  0  0  0  0  0  0999 V2000
   -7.9060   14.8670    4.0010 N   0  0  0  0  0  0  0  0  0  0  0  0
   -8.5260   14.8800    2.7800 C   0  0  0  0  0  0  0  0  0  0  0  0
   -9.7400   15.0020    2.6830 O   0  0  0  0  0  0  0  0  0  0  0  0
   -7.6790   14.7610    1.5900 C   0  0  0  0  0  0  0  0  0  0  0  0
   -8.1030   14.7070    0.2690 C   0  0  0  0  0  0  0  0  0  0  0  0
   -6.3340   14.7060    1.7670 C   0  0  0  0  0  0  0  0  0  0  0  0
   -7.2660   14.6140   -0.8070 N   0  0  0  0  0  0  0  0  0  0  0  0
   -5.4700   14.6160    0.7480 N   0  0  0  0  0  0  0  0  0  0  0  0
   -5.9450   14.5760   -0.5220 C   0  0  0  0  0  0  0  0  0  0  0  0
   -4.8190   14.4950   -1.5570 C   0  0  0  0  0  0  0  0  0  0  0  0
   -4.6630   13.3030   -2.2050 F   0  0  0  0  0  0  0  0  0  0  0  0
   -4.7670   15.4970   -2.4800 F   0  0  0  0  0  0  0  0  0  0  0  0
   -3.8570   14.6610   -0.4470 C   0  0  0  0  0  0  0  0  0  0  0  0
   -4.3480   14.7860    0.8340 C   0  0  0  0  0  0  0  0  0  0  0  0
   -2.4360   14.7250   -0.3460 C   0  0  0  0  0  0  0  0  0  0  0  0
   -2.1920   14.8810    1.0170 C   0  0  0  0  0  0  0  0  0  0  0  0
   -3.3460   14.9110    1.6980 N   0  0  0  0  0  0  0  0  0  0  0  0
   -1.3150   14.6730   -1.1930 C   0  0  0  0  0  0  0  0  0  0  0  0
   -0.0670   14.8020   -0.5850 C   0  0  0  0  0  0  0  0  0  0  0  0
   -1.0500   14.9920    1.6290 N   0  0  0  0  0  0  0  0  0  0  0  0
   -0.0220   14.9610    0.7900 C   0  0  0  0  0  0  0  0  0  0  0  0
  1  2  1  0
  2  3  2  0
  2  4  1  0
  4  5  2  0
  4  6  1  0
  5  7  1  0
  6  8  2  0
  7  9  2  0
  8  9  1  0
  9 10  1  0
 10 11  1  0
 10 12  1  0
 10 13  1  0
 13 14  2  0
 13 15  1  0
 15 16  2  0
 14 17  1  0
 16 17  1  0
 15 18  1  0
 18 19  2  0
 16 20  1  0
 19 21  1  0
 20 21  2  0
M  END
