diamond-x0855_0_A-diamond-x0950_0_A
     RDKit          3D

 12 12  0  0  0  0  0  0  0  0999 V2000
    1.2530   12.9990   -2.3880 O   0  0  0  0  0  0  0  0  0  0  0  0
    0.7320   12.1000   -3.2480 C   0  0  0  0  0  0  0  0  0  0  0  0
    0.4150   12.6590   -4.6140 C   0  0  1  0  0  0  0  0  0  0  0  0
    0.5680   10.9490   -2.8900 O   0  0  0  0  0  0  0  0  0  0  0  0
    1.6980   12.9140   -5.3850 C   0  0  0  0  0  0  0  0  0  0  0  0
   -0.5540   11.8080   -5.2880 N   0  0  0  0  0  0  0  0  0  0  0  0
    2.9040   13.0030   -4.4590 C   0  0  0  0  0  0  0  0  0  0  0  0
   -0.3360   10.7440   -6.1170 C   0  0  0  0  0  0  0  0  0  0  0  0
   -1.8640   12.0500   -5.1050 N   0  0  0  0  0  0  0  0  0  0  0  0
   -1.5740   10.2760   -6.4520 C   0  0  0  0  0  0  0  0  0  0  0  0
   -2.4820   11.1080   -5.8150 C   0  0  0  0  0  0  0  0  0  0  0  0
   -2.0010    8.8260   -7.5370 Br  0  0  0  0  0  0  0  0  0  0  0  0
  1  2  1  0
  2  3  1  0
  2  4  2  0
  3  5  1  6
  3  6  1  0
  5  7  1  0
  6  8  1  0
  6  9  1  0
  8 10  2  0
  9 11  2  0
 10 11  1  0
 10 12  1  0
M  END
