diamond-x0524_0_A-mac-x0584
     RDKit          3D

 36 41  0  0  0  0  0  0  0  0999 V2000
   -0.7100    8.7950   -8.3820 N   0  0  0  0  0  0  0  0  0  0  0  0
   -0.8870    9.2160   -7.0800 C   0  0  0  0  0  0  0  0  0  0  0  0
   -2.0820    8.5970   -6.3720 C   0  0  0  0  0  0  0  0  0  0  0  0
    0.4410    8.7000   -9.1970 C   0  0  0  0  0  0  0  0  0  0  0  0
   -0.1410   10.0580   -6.4740 N   0  0  0  0  0  0  0  0  0  0  0  0
    1.5870    7.9420   -8.9330 C   0  0  0  0  0  0  0  0  0  0  0  0
    0.4240    9.4340  -10.3890 C   0  0  0  0  0  0  0  0  0  0  0  0
   -0.3800   10.4210   -5.0770 C   0  0  0  0  0  0  0  0  0  0  0  0
    2.6690    7.9190   -9.8340 C   0  0  0  0  0  0  0  0  0  0  0  0
    1.4960    9.4120  -11.2830 C   0  0  0  0  0  0  0  0  0  0  0  0
    2.6370    8.6540  -11.0260 C   0  0  0  0  0  0  0  0  0  0  0  0
    0.4450   11.6740   -4.8380 C   0  0  2  0  0  0  0  0  0  0  0  0
    3.6850    8.6630  -11.9600 N   0  0  0  0  0  0  0  0  0  0  0  0
    0.6880   12.2360   -3.4050 C   0  0  0  0  0  0  0  0  0  0  0  0
   -0.3520   12.9420   -5.0970 C   0  0  0  0  0  0  0  0  0  0  0  0
    3.9900    9.5130  -13.0430 C   0  0  0  0  0  0  0  0  0  0  0  0
    0.5600   13.6360   -4.0700 C   0  0  1  0  0  0  0  0  0  0  0  0
    3.2320   10.6800  -13.2510 C   0  0  0  0  0  0  0  0  0  0  0  0
    5.0330    9.2470  -13.9320 C   0  0  0  0  0  0  0  0  0  0  0  0
   -0.0260   14.8730   -3.4010 C   0  0  1  0  0  0  0  0  0  0  0  0
    3.5120   11.5440  -14.3110 C   0  0  0  0  0  0  0  0  0  0  0  0
    5.3160   10.1090  -14.9940 C   0  0  0  0  0  0  0  0  0  0  0  0
   -0.4400   15.8220   -4.5420 C   0  0  0  0  0  0  0  0  0  0  0  0
   -1.2850   14.6470   -2.6690 N   0  0  0  0  0  0  0  0  0  0  0  0
    4.5550   11.2580  -15.1830 C   0  0  0  0  0  0  0  0  0  0  0  0
   -2.4340   14.9380   -3.5540 C   0  0  0  0  0  0  0  0  0  0  0  0
   -1.8640   15.4230   -4.8790 C   0  0  0  0  0  0  0  0  0  0  0  0
   -1.4430   14.6980   -1.2870 C   0  0  0  0  0  0  0  0  0  0  0  0
   -0.3500   14.5030   -0.4620 N   0  0  0  0  0  0  0  0  0  0  0  0
   -2.5940   14.9420   -0.6340 C   0  0  0  0  0  0  0  0  0  0  0  0
   -0.4490   14.5260    0.9020 C   0  0  0  0  0  0  0  0  0  0  0  0
   -2.6100   14.9740    0.8530 C   0  0  0  0  0  0  0  0  0  0  0  0
   -3.9560   15.2210   -0.9620 C   0  0  0  0  0  0  0  0  0  0  0  0
   -1.5020   14.7340    1.6030 N   0  0  0  0  0  0  0  0  0  0  0  0
   -3.7800   15.2540    1.3310 N   0  0  0  0  0  0  0  0  0  0  0  0
   -4.5760   15.3950    0.2100 C   0  0  0  0  0  0  0  0  0  0  0  0
  1  2  1  0
  2  3  1  0
  1  4  1  0
  2  5  2  3
  4  6  2  0
  4  7  1  0
  5  8  1  0
  6  9  1  0
  7 10  2  0
  9 11  2  0
 10 11  1  0
 12  8  1  1
 11 13  1  0
 12 14  1  0
 12 15  1  0
 13 16  1  0
 17 14  1  1
 15 17  1  0
 16 18  2  0
 16 19  1  0
 17 20  1  0
 18 21  1  0
 19 22  2  0
 20 23  1  6
 20 24  1  0
 21 25  2  0
 22 25  1  0
 24 26  1  0
 23 27  1  0
 26 27  1  0
 24 28  1  0
 28 29  1  0
 28 30  2  0
 29 31  1  0
 30 32  1  0
 30 33  1  0
 31 34  2  0
 32 34  1  0
 32 35  2  0
 33 36  2  0
 35 36  1  0
M  END
