diamond-x0438_0_A-diamond-x0969_0_A
     RDKit          3D

 15 16  0  0  0  0  0  0  0  0999 V2000
   -8.3720   15.5700    3.7800 C   0  0  0  0  0  0  0  0  0  0  0  0
   -9.5250   15.4110    2.4230 S   0  0  0  0  0  0  0  0  0  0  0  0
  -10.7550   14.8800    2.9830 O   0  0  0  0  0  0  0  0  0  0  0  0
   -8.9120   14.2020    1.2520 C   0  0  0  0  0  0  0  0  0  0  0  0
   -9.5850   16.6680    1.7160 O   0  0  0  0  0  0  0  0  0  0  0  0
   -7.5510   14.4670    0.7050 C   0  0  0  0  0  0  0  0  0  0  0  0
   -7.2170   14.4430   -0.5720 N   0  0  0  0  0  0  0  0  0  0  0  0
   -6.4640   14.7620    1.4650 N   0  0  0  0  0  0  0  0  0  0  0  0
   -6.4570   14.9090    2.8430 N   0  0  0  0  0  0  0  0  0  0  0  0
   -5.3680   14.9000    0.6740 C   0  0  0  0  0  0  0  0  0  0  0  0
   -5.8630   14.7110   -0.6040 C   0  0  0  0  0  0  0  0  0  0  0  0
   -4.9910   14.8070   -1.6940 C   0  0  0  0  0  0  0  0  0  0  0  0
   -4.0300   15.1660    0.9540 C   0  0  0  0  0  0  0  0  0  0  0  0
   -3.6380   15.0710   -1.4430 C   0  0  0  0  0  0  0  0  0  0  0  0
   -3.1740   15.2370   -0.1380 C   0  0  0  0  0  0  0  0  0  0  0  0
  2  1  1  0
  2  3  2  0
  2  4  1  0
  2  5  2  0
  4  6  1  0
  6  7  2  0
  6  8  1  0
  8  9  1  0
  8 10  1  0
  7 11  1  0
 10 11  2  0
 11 12  1  0
 10 13  1  0
 12 14  2  0
 13 15  2  0
 14 15  1  0
M  END
