diamond-x1015_0_A-mac-x0263
     RDKit          3D

 32 35  0  0  0  0  0  0  0  0999 V2000
   -1.5190   14.2350   -3.6180 C   0  0  0  0  0  0  0  0  0  0  0  0
   -0.1690   13.5440   -3.7940 C   0  0  2  0  0  0  0  0  0  0  0  0
   -0.2820   12.0750   -3.8980 N   0  0  0  0  0  0  0  0  0  0  0  0
    0.6570   13.4720   -2.5110 C   0  0  0  0  0  0  0  0  0  0  0  0
    0.7280   14.0320   -1.3900 N   0  0  0  0  0  0  0  0  0  0  0  0
    0.5380   11.5170   -2.9050 C   0  0  0  0  0  0  0  0  0  0  0  0
    1.4740   12.4660   -2.6850 N   0  0  0  0  0  0  0  0  0  0  0  0
   -0.6330   11.3630   -5.0620 C   0  0  0  0  0  0  0  0  0  0  0  0
    0.4650   10.4380   -2.3210 O   0  0  0  0  0  0  0  0  0  0  0  0
   -0.1840   15.0270   -0.9770 C   0  0  0  0  0  0  0  0  0  0  0  0
   -0.0290   11.6280   -6.3070 C   0  0  0  0  0  0  0  0  0  0  0  0
   -1.5940   10.3530   -5.0010 C   0  0  0  0  0  0  0  0  0  0  0  0
   -0.9830   14.2780    0.0770 C   0  0  0  0  0  0  0  0  0  0  0  0
   -0.3860   10.8960   -7.4430 C   0  0  0  0  0  0  0  0  0  0  0  0
   -1.9520    9.6210   -6.1300 C   0  0  0  0  0  0  0  0  0  0  0  0
   -1.9760   15.0970    0.8680 C   0  0  0  0  0  0  0  0  0  0  0  0
   -1.3470    9.8930   -7.3470 C   0  0  0  0  0  0  0  0  0  0  0  0
   -1.7930    8.9850   -8.7330 Cl  0  0  0  0  0  0  0  0  0  0  0  0
   -3.3600   15.1260    0.2760 C   0  0  0  0  0  0  0  0  0  0  0  0
   -3.7200   15.4390   -1.0610 C   0  0  0  0  0  0  0  0  0  0  0  0
   -4.3410   14.7940    1.1850 C   0  0  0  0  0  0  0  0  0  0  0  0
   -5.6520   14.7660    0.7910 C   0  0  0  0  0  0  0  0  0  0  0  0
   -5.0630   15.4180   -1.4830 C   0  0  0  0  0  0  0  0  0  0  0  0
   -6.0060   15.0700   -0.5110 C   0  0  0  0  0  0  0  0  0  0  0  0
   -6.7280   14.4610    1.5510 N   0  0  0  0  0  0  0  0  0  0  0  0
   -7.7490   14.5670    0.7570 C   0  0  0  0  0  0  0  0  0  0  0  0
   -7.3690   14.9350   -0.5130 N   0  0  0  0  0  0  0  0  0  0  0  0
   -9.1340   14.3270    1.1900 C   0  0  0  0  0  0  0  0  0  0  0  0
   -9.6080   15.4350    2.1090 C   0  0  0  0  0  0  0  0  0  0  0  0
  -10.9580   15.2290    2.7330 C   0  0  0  0  0  0  0  0  0  0  0  0
  -11.6580   14.1770    2.2920 O   0  0  0  0  0  0  0  0  0  0  0  0
  -11.4040   15.9630    3.5990 O   0  0  0  0  0  0  0  0  0  0  0  0
  2  1  1  1
  2  3  1  0
  2  4  1  0
  4  5  2  3
  3  6  1  0
  4  7  1  0
  6  7  1  0
  3  8  1  0
  6  9  2  0
  5 10  1  0
  8 11  2  0
  8 12  1  0
 10 13  1  0
 11 14  1  0
 12 15  2  0
 13 16  1  0
 14 17  2  0
 15 17  1  0
 17 18  1  0
 16 19  1  0
 19 20  2  0
 19 21  1  0
 21 22  2  0
 20 23  1  0
 22 24  1  0
 23 24  2  0
 22 25  1  0
 25 26  2  0
 24 27  1  0
 26 27  1  0
 26 28  1  0
 28 29  1  0
 29 30  1  0
 30 31  1  0
 30 32  2  0
M  END
