diamond-x0837_0_A-diamond-x0592_0_A
     RDKit          3D

 11 11  0  0  0  0  0  0  0  0999 V2000
   -7.6010   14.3830    0.6850 N   0  0  0  0  0  0  0  0  0  0  0  0
   -7.9970   14.1730    2.0740 C   0  0  0  0  0  0  0  0  0  0  0  0
   -7.2870   15.0080    2.9670 O   0  0  0  0  0  0  0  0  0  0  0  0
   -6.3680   14.6880    0.4790 C   0  0  0  0  0  0  0  0  0  0  0  0
   -5.5920   14.7890    1.6030 N   0  0  0  0  0  0  0  0  0  0  0  0
   -5.7070   14.9430   -0.8670 C   0  0  0  0  0  0  0  0  0  0  0  0
   -4.2520   15.3070    1.6660 C   0  0  0  0  0  0  0  0  0  0  0  0
   -4.2450   14.5360   -0.7770 C   0  0  1  0  0  0  0  0  0  0  0  0
   -3.2310   14.7160   -2.7180 I   0  0  0  0  0  0  0  0  0  0  0  0
   -3.5240   15.3320    0.3220 C   0  0  2  0  0  0  0  0  0  0  0  0
   -2.1540   14.8300    0.4850 N   0  0  0  0  0  0  0  0  0  0  0  0
  1  2  1  0
  2  3  1  0
  1  4  2  3
  4  5  1  0
  4  6  1  0
  5  7  1  0
  6  8  1  0
  8  9  1  6
  7 10  1  0
  8 10  1  0
 10 11  1  1
M  END
