diamond-x1015_0_A-diamond-x0662_0_A
     RDKit          3D

 33 36  0  0  0  0  0  0  0  0999 V2000
   -1.8170   14.8380   -4.3990 C   0  0  0  0  0  0  0  0  0  0  0  0
   -0.5230   14.0800   -4.1820 C   0  0  2  0  0  0  0  0  0  0  0  0
   -0.4770   12.6380   -4.3080 N   0  0  0  0  0  0  0  0  0  0  0  0
    0.1520   14.2960   -2.8230 C   0  0  0  0  0  0  0  0  0  0  0  0
    0.6650   15.3290   -2.4150 O   0  0  0  0  0  0  0  0  0  0  0  0
   -0.2030   12.0970   -2.9860 C   0  0  0  0  0  0  0  0  0  0  0  0
    0.0790   13.1290   -2.1400 N   0  0  0  0  0  0  0  0  0  0  0  0
   -1.2320   11.8060   -5.2480 C   0  0  0  0  0  0  0  0  0  0  0  0
   -0.1980   10.9170   -2.6250 O   0  0  0  0  0  0  0  0  0  0  0  0
   -2.3290   12.1720   -5.9710 C   0  0  0  0  0  0  0  0  0  0  0  0
   -0.7580   10.5570   -5.3900 C   0  0  0  0  0  0  0  0  0  0  0  0
    0.3190   10.6390   -4.6510 N   0  0  0  0  0  0  0  0  0  0  0  0
   -2.9090   11.2090   -6.8170 C   0  0  0  0  0  0  0  0  0  0  0  0
   -1.2940    9.5600   -6.1700 C   0  0  0  0  0  0  0  0  0  0  0  0
    1.1930   10.7090   -5.5850 C   0  0  0  0  0  0  0  0  0  0  0  0
   -2.3970    9.9060   -6.9100 C   0  0  0  0  0  0  0  0  0  0  0  0
   -3.1300    8.7480   -7.9560 Cl  0  0  0  0  0  0  0  0  0  0  0  0
    2.3870   10.9980   -5.6530 O   0  0  0  0  0  0  0  0  0  0  0  0
    0.7340   10.2320   -6.9680 C   0  0  0  0  0  0  0  0  0  0  0  0
   -0.1280    9.1230   -7.0040 C   0  0  0  0  0  0  0  0  0  0  0  0
    1.1440   10.7660   -8.1800 C   0  0  0  0  0  0  0  0  0  0  0  0
   -0.5520    8.5680   -8.2140 C   0  0  0  0  0  0  0  0  0  0  0  0
    0.7610   10.1950   -9.4070 C   0  0  0  0  0  0  0  0  0  0  0  0
    1.1950   10.5960  -10.6950 N   0  0  0  0  0  0  0  0  0  0  0  0
   -0.0990    9.1010   -9.4100 C   0  0  0  0  0  0  0  0  0  0  0  0
    1.9980    9.6830  -11.4100 C   0  0  0  0  0  0  0  0  0  0  0  0
    2.1030    8.4980  -11.1040 O   0  0  0  0  0  0  0  0  0  0  0  0
    2.7740   10.1890  -12.5760 C   0  0  0  0  0  0  0  0  0  0  0  0
    2.6980   11.4470  -13.2490 C   0  0  0  0  0  0  0  0  0  0  0  0
    3.7240    9.4120  -13.1510 N   0  0  0  0  0  0  0  0  0  0  0  0
    4.2270   10.1530  -14.1450 N   0  0  0  0  0  0  0  0  0  0  0  0
    3.6450   11.3860  -14.2520 C   0  0  0  0  0  0  0  0  0  0  0  0
    5.2840    9.5990  -14.9620 C   0  0  0  0  0  0  0  0  0  0  0  0
  2  1  1  1
  2  3  1  0
  2  4  1  0
  4  5  2  0
  3  6  1  0
  4  7  1  0
  6  7  1  0
  3  8  1  0
  6  9  2  0
  8 10  2  0
  8 11  1  0
 11 12  1  0
 10 13  1  0
 11 14  2  0
 12 15  2  3
 13 16  2  0
 14 16  1  0
 16 17  1  0
 15 18  1  0
 15 19  1  0
 19 20  2  0
 19 21  1  0
 20 22  1  0
 21 23  2  0
 23 24  1  0
 22 25  2  0
 23 25  1  0
 24 26  1  0
 26 27  2  0
 26 28  1  0
 28 29  1  0
 28 30  2  0
 30 31  1  0
 29 32  2  0
 31 32  1  0
 31 33  1  0
M  CHG  1  18  -1
M  END
