diamond-x0689_0_A-mac-x0397
     RDKit          3D

 19 21  0  0  0  0  0  0  0  0999 V2000
   -3.2420   16.2350    0.8540 N   0  0  0  0  0  0  0  0  0  0  0  0
   -4.2800   15.7280    1.6600 C   0  0  0  0  0  0  0  0  0  0  0  0
   -5.5130   15.1740    1.1420 N   0  0  0  0  0  0  0  0  0  0  0  0
   -2.0990   15.5060    0.6310 C   0  0  0  0  0  0  0  0  0  0  0  0
   -1.6210   15.5510   -0.6060 N   0  0  0  0  0  0  0  0  0  0  0  0
   -1.5280   14.8070    1.6390 N   0  0  0  0  0  0  0  0  0  0  0  0
   -0.5110   14.8740   -0.8710 C   0  0  0  0  0  0  0  0  0  0  0  0
   -0.4010   14.1420    1.3200 C   0  0  0  0  0  0  0  0  0  0  0  0
   -5.7510   14.2390    2.1700 C   0  0  1  0  0  0  0  0  0  0  0  0
   -5.2830   14.3280   -0.0130 C   0  0  2  0  0  0  0  0  0  0  0  0
   -7.0340   13.6100    2.1510 N   0  0  0  0  0  0  0  0  0  0  0  0
    0.1500   14.1450    0.0610 C   0  0  0  0  0  0  0  0  0  0  0  0
   -3.8740   13.9810    0.3970 C   0  0  1  0  0  0  0  0  0  0  0  0
   -4.4030   13.0330    1.8520 S   0  0  0  0  0  0  0  0  0  0  0  0
   -5.4390   14.6830   -1.5210 C   0  0  1  0  0  0  0  0  0  0  0  0
   -6.7700   15.8230   -1.8380 Cl  0  0  0  0  0  0  0  0  0  0  0  0
   -4.1430   15.0700   -2.1950 C   0  0  0  0  0  0  0  0  0  0  0  0
   -3.0230   13.4230   -0.7400 C   0  0  0  0  0  0  0  0  0  0  0  0
   -3.0060   14.4660   -1.8390 C   0  0  0  0  0  0  0  0  0  0  0  0
  1  2  1  0
  2  3  1  0
  1  4  1  0
  4  5  2  0
  4  6  1  0
  5  7  1  0
  6  8  2  0
  3  9  1  0
 10  3  1  1
  9 11  1  6
  7 12  2  0
  8 12  1  0
 10 13  1  0
  9 14  1  0
 13 14  1  0
 10 15  1  0
 15 16  1  1
 15 17  1  0
 13 18  1  6
 17 19  2  0
 18 19  1  0
M  END
