diamond-x0438_0_A-mac-x0228
     RDKit          3D

 17 18  0  0  0  0  0  0  0  0999 V2000
   -8.0810   15.4350    3.7490 C   0  0  0  0  0  0  0  0  0  0  0  0
   -9.3380   15.3380    2.4840 S   0  0  0  0  0  0  0  0  0  0  0  0
  -10.5310   14.7680    3.0900 O   0  0  0  0  0  0  0  0  0  0  0  0
   -8.7590   14.1780    1.2540 C   0  0  0  0  0  0  0  0  0  0  0  0
   -9.4550   16.6160    1.8230 O   0  0  0  0  0  0  0  0  0  0  0  0
   -7.3530   14.3930    0.7950 C   0  0  0  0  0  0  0  0  0  0  0  0
   -6.9990   14.4210   -0.5370 N   0  0  0  0  0  0  0  0  0  0  0  0
   -6.2920   14.5630    1.5510 N   0  0  0  0  0  0  0  0  0  0  0  0
   -5.2230   14.6820    0.6970 C   0  0  0  0  0  0  0  0  0  0  0  0
   -5.6320   14.5950   -0.6270 C   0  0  0  0  0  0  0  0  0  0  0  0
   -4.7470   14.6730   -1.7170 C   0  0  0  0  0  0  0  0  0  0  0  0
   -3.8620   14.8630    0.9830 C   0  0  0  0  0  0  0  0  0  0  0  0
   -3.3780   14.8320   -1.4050 C   0  0  0  0  0  0  0  0  0  0  0  0
   -2.9520   14.9320   -0.0750 C   0  0  0  0  0  0  0  0  0  0  0  0
   -2.3560   14.8800   -2.4960 C   0  0  0  0  0  0  0  0  0  0  0  0
   -1.0970   14.7610   -2.0160 O   0  0  0  0  0  0  0  0  0  0  0  0
   -2.6040   14.9910   -3.6840 O   0  0  0  0  0  0  0  0  0  0  0  0
  2  1  1  0
  2  3  2  0
  2  4  1  0
  2  5  2  0
  4  6  1  0
  6  7  1  0
  6  8  2  0
  8  9  1  0
  7 10  1  0
  9 10  2  0
 10 11  1  0
  9 12  1  0
 11 13  2  0
 12 14  2  0
 13 14  1  0
 13 15  1  0
 15 16  1  0
 15 17  2  0
M  END
