diamond-x0967_0_A-diamond-x0950_1_A
     RDKit          3D

 19 20  0  0  0  0  0  0  0  0999 V2000
    1.0300   14.0020   -4.8470 C   0  0  0  0  0  0  0  0  0  0  0  0
    1.3090   12.5780   -4.4170 C   0  0  2  0  0  0  0  0  0  0  0  0
    0.5440   11.7070   -5.2580 O   0  0  0  0  0  0  0  0  0  0  0  0
    1.0160   12.3160   -2.9340 C   0  0  0  0  0  0  0  0  0  0  0  0
    0.4230   11.3120   -2.5420 O   0  0  0  0  0  0  0  0  0  0  0  0
    1.5120   13.3200   -2.1460 O   0  0  0  0  0  0  0  0  0  0  0  0
    0.7200   13.9200   -1.0940 C   0  0  0  0  0  0  0  0  0  0  0  0
   -0.5340   14.6890   -1.5520 C   0  0  0  0  0  0  0  0  0  0  0  0
   -1.3510   15.3000   -0.3910 C   0  0  0  0  0  0  0  0  0  0  0  0
   -2.8540   15.1260   -0.4470 C   0  0  0  0  0  0  0  0  0  0  0  0
   -3.5490   15.0630   -1.6500 C   0  0  0  0  0  0  0  0  0  0  0  0
   -3.6250   15.0190    0.7120 C   0  0  0  0  0  0  0  0  0  0  0  0
   -5.0190   14.8550    0.6150 C   0  0  0  0  0  0  0  0  0  0  0  0
   -4.8890   14.9070   -1.7590 N   0  0  0  0  0  0  0  0  0  0  0  0
   -5.6240   14.8010   -0.6520 C   0  0  0  0  0  0  0  0  0  0  0  0
   -5.8270   14.7430    1.7510 C   0  0  0  0  0  0  0  0  0  0  0  0
   -6.9480   14.6430   -0.7760 N   0  0  0  0  0  0  0  0  0  0  0  0
   -7.1990   14.5760    1.6170 C   0  0  0  0  0  0  0  0  0  0  0  0
   -7.7060   14.5330    0.3370 C   0  0  0  0  0  0  0  0  0  0  0  0
  2  1  1  6
  2  3  1  0
  2  4  1  0
  4  5  2  0
  4  6  1  0
  6  7  1  0
  7  8  1  0
  8  9  1  0
  9 10  1  0
 10 11  2  0
 10 12  1  0
 12 13  2  0
 11 14  1  0
 13 15  1  0
 14 15  2  0
 13 16  1  0
 15 17  1  0
 16 18  2  0
 17 19  2  0
 18 19  1  0
M  END
