diamond-x0628_0_A-mac-x0137
     RDKit          3D

 27 30  0  0  0  0  0  0  0  0999 V2000
   -1.1160    8.7300   -7.4670 C   0  0  0  0  0  0  0  0  0  0  0  0
   -0.8510    9.9270   -6.6550 C   0  0  0  0  0  0  0  0  0  0  0  0
   -1.6980   10.3560   -5.6780 N   0  0  0  0  0  0  0  0  0  0  0  0
    0.2350   10.6750   -6.8180 N   0  0  0  0  0  0  0  0  0  0  0  0
    0.0830   11.6280   -5.8880 N   0  0  0  0  0  0  0  0  0  0  0  0
   -1.1050   11.4320   -5.1940 C   0  0  0  0  0  0  0  0  0  0  0  0
   -1.6680   12.2550   -4.0930 C   0  0  0  0  0  0  0  0  0  0  0  0
    1.1490   12.6270   -5.8160 C   0  0  0  0  0  0  0  0  0  0  0  0
    1.9540   12.7310   -4.5090 C   0  0  0  0  0  0  0  0  0  0  0  0
   -1.9430   13.6990   -4.5220 C   0  0  1  0  0  0  0  0  0  0  0  0
    1.3190   12.0430   -3.3290 C   0  0  0  0  0  0  0  0  0  0  0  0
   -2.2410   14.5360   -3.2900 C   0  0  0  0  0  0  0  0  0  0  0  0
   -0.7350   14.3210   -5.1940 C   0  0  0  0  0  0  0  0  0  0  0  0
    0.5120   11.1300   -3.3250 O   0  0  0  0  0  0  0  0  0  0  0  0
    1.7510   12.5640   -2.1700 O   0  0  0  0  0  0  0  0  0  0  0  0
   -1.1050   14.4480   -2.3650 N   0  0  0  0  0  0  0  0  0  0  0  0
    0.4520   14.2480   -4.2480 C   0  0  0  0  0  0  0  0  0  0  0  0
    0.1750   14.9240   -2.9190 C   0  0  0  0  0  0  0  0  0  0  0  0
   -1.3230   14.5250   -1.0030 C   0  0  0  0  0  0  0  0  0  0  0  0
   -0.3380   14.2460   -0.0790 N   0  0  0  0  0  0  0  0  0  0  0  0
   -2.5050   14.8980   -0.5140 C   0  0  0  0  0  0  0  0  0  0  0  0
   -0.6010   14.2820    1.2650 C   0  0  0  0  0  0  0  0  0  0  0  0
   -2.7010   14.9780    0.9410 C   0  0  0  0  0  0  0  0  0  0  0  0
   -3.7640   15.3010   -1.0480 C   0  0  0  0  0  0  0  0  0  0  0  0
   -1.7180   14.6190    1.8130 N   0  0  0  0  0  0  0  0  0  0  0  0
   -3.8880   15.4180    1.2460 N   0  0  0  0  0  0  0  0  0  0  0  0
   -4.5080   15.5960    0.0160 C   0  0  0  0  0  0  0  0  0  0  0  0
  1  2  1  0
  2  3  1  0
  2  4  2  0
  4  5  1  0
  3  6  2  0
  5  6  1  0
  6  7  1  0
  5  8  1  0
  8  9  1  0
 10  7  1  1
  9 11  1  0
 10 12  1  0
 10 13  1  0
 11 14  2  0
 11 15  1  0
 12 16  1  0
 13 17  1  0
 16 18  1  0
 17 18  1  0
 16 19  1  0
 19 20  1  0
 19 21  2  0
 20 22  1  0
 21 23  1  0
 21 24  1  0
 22 25  2  0
 23 25  1  0
 23 26  2  0
 24 27  2  0
 26 27  1  0
M  END
