diamond-x0855_0_A-diamond-x0689_0_A
     RDKit          3D

 20 21  0  0  0  0  0  0  0  0999 V2000
    2.4160   12.5280   -3.0000 O   0  0  0  0  0  0  0  0  0  0  0  0
    1.0590   12.5030   -3.3380 C   0  0  0  0  0  0  0  0  0  0  0  0
    0.8120   12.5030   -4.8610 C   0  0  0  0  0  0  0  0  0  0  0  0
    0.6020   11.2390   -2.8420 O   0  0  0  0  0  0  0  0  0  0  0  0
    0.3100   13.6370   -2.6270 C   0  0  0  0  0  0  0  0  0  0  0  0
    0.7920   14.1130   -1.2550 C   0  0  0  0  0  0  0  0  0  0  0  0
   -0.2960   11.6730   -5.2630 N   0  0  0  0  0  0  0  0  0  0  0  0
   -0.2760   10.6900   -6.2110 C   0  0  0  0  0  0  0  0  0  0  0  0
   -1.5080   11.8260   -4.6760 N   0  0  0  0  0  0  0  0  0  0  0  0
   -0.3680   14.3670   -0.3680 C   0  0  0  0  0  0  0  0  0  0  0  0
   -1.5390   10.1780   -6.2290 C   0  0  0  0  0  0  0  0  0  0  0  0
   -2.2680   10.9020   -5.2770 C   0  0  0  0  0  0  0  0  0  0  0  0
   -1.5670   14.6470   -0.9490 C   0  0  0  0  0  0  0  0  0  0  0  0
   -0.3880   14.3510    1.0180 C   0  0  0  0  0  0  0  0  0  0  0  0
   -2.1930    8.7940   -7.2930 Br  0  0  0  0  0  0  0  0  0  0  0  0
   -2.6810   14.8970   -0.2740 N   0  0  0  0  0  0  0  0  0  0  0  0
   -1.4870   14.5950    1.7470 N   0  0  0  0  0  0  0  0  0  0  0  0
   -2.5970   14.8690    1.0540 C   0  0  0  0  0  0  0  0  0  0  0  0
   -3.7340   15.1530    1.7700 N   0  0  0  0  0  0  0  0  0  0  0  0
   -4.8920   15.2230    0.9260 C   0  0  0  0  0  0  0  0  0  0  0  0
  2  1  1  0
  2  3  1  0
  2  4  1  0
  2  5  1  0
  5  6  1  0
  3  7  1  0
  7  8  1  0
  7  9  1  0
  6 10  1  0
  8 11  2  0
  9 12  2  0
 11 12  1  0
 10 13  2  0
 10 14  1  0
 11 15  1  0
 13 16  1  0
 14 17  2  0
 16 18  2  0
 17 18  1  0
 18 19  1  0
 19 20  1  0
M  END
