diamond-x1012_0_A-mac-x0354
     RDKit          3D

 25 27  0  0  0  0  0  0  0  0999 V2000
   -0.4700   18.2960   -4.6750 N   0  0  0  0  0  0  0  0  0  0  0  0
   -1.2790   17.2210   -4.7620 C   0  0  0  0  0  0  0  0  0  0  0  0
   -2.4850   17.3890   -4.6960 O   0  0  0  0  0  0  0  0  0  0  0  0
   -0.6690   16.0000   -4.8900 N   0  0  0  0  0  0  0  0  0  0  0  0
   -1.5370   14.8270   -4.9610 C   0  0  0  0  0  0  0  0  0  0  0  0
    0.7750   15.7810   -4.7710 C   0  0  0  0  0  0  0  0  0  0  0  0
   -1.3370   13.8820   -3.7990 C   0  0  0  0  0  0  0  0  0  0  0  0
    1.1270   14.6450   -3.8160 C   0  0  0  0  0  0  0  0  0  0  0  0
   -0.0750   14.1720   -2.9870 C   0  0  0  0  0  0  0  0  0  0  0  0
    0.2650   12.9470   -2.1630 C   0  0  0  0  0  0  0  0  0  0  0  0
   -0.0130   11.8250   -2.8570 O   0  0  0  0  0  0  0  0  0  0  0  0
    0.6980   12.9590   -1.0300 O   0  0  0  0  0  0  0  0  0  0  0  0
    1.1360   11.2240   -3.3970 C   0  0  0  0  0  0  0  0  0  0  0  0
    1.2390   11.4350   -4.8380 C   0  0  0  0  0  0  0  0  0  0  0  0
    2.1870   12.2570   -5.4550 C   0  0  0  0  0  0  0  0  0  0  0  0
    0.4860   10.9160   -5.8750 C   0  0  0  0  0  0  0  0  0  0  0  0
    1.0190   11.4310   -6.9980 N   0  0  0  0  0  0  0  0  0  0  0  0
    2.0430   12.2510   -6.7580 N   0  0  0  0  0  0  0  0  0  0  0  0
   -0.6400   10.0190   -5.9270 C   0  0  0  0  0  0  0  0  0  0  0  0
    0.5680   11.1590   -8.3500 C   0  0  0  0  0  0  0  0  0  0  0  0
   -0.4620    8.6770   -6.2590 C   0  0  0  0  0  0  0  0  0  0  0  0
   -1.9160   10.5090   -5.6530 C   0  0  0  0  0  0  0  0  0  0  0  0
   -1.5650    7.8280   -6.3150 C   0  0  0  0  0  0  0  0  0  0  0  0
   -3.0140    9.6570   -5.7110 C   0  0  0  0  0  0  0  0  0  0  0  0
   -2.8400    8.3180   -6.0410 C   0  0  0  0  0  0  0  0  0  0  0  0
  1  2  1  0
  2  3  2  0
  2  4  1  0
  4  5  1  0
  4  6  1  0
  5  7  1  0
  6  8  1  0
  7  9  1  0
  8  9  1  0
  9 10  1  0
 10 11  1  0
 10 12  2  0
 11 13  1  0
 13 14  1  0
 14 15  1  0
 14 16  2  0
 16 17  1  0
 15 18  2  0
 17 18  1  0
 16 19  1  0
 17 20  1  0
 19 21  2  0
 19 22  1  0
 21 23  1  0
 22 24  2  0
 23 25  2  0
 24 25  1  0
M  END
