diamond-x0724_0_A-diamond-x0471_0_A
     RDKit          3D

 17 18  0  0  0  0  0  0  0  0999 V2000
   -8.2050   14.0430    4.4980 N   0  0  0  0  0  0  0  0  0  0  0  0
   -8.7310   14.0620    5.8520 C   0  0  0  0  0  0  0  0  0  0  0  0
  -10.1950   13.6630    5.9580 C   0  0  0  0  0  0  0  0  0  0  0  0
   -8.4550   14.9150    3.4840 C   0  0  0  0  0  0  0  0  0  0  0  0
   -9.2890   15.8100    3.6580 O   0  0  0  0  0  0  0  0  0  0  0  0
   -8.4160   15.3850    6.5480 C   0  0  0  0  0  0  0  0  0  0  0  0
   -7.7540   14.7960    2.2450 C   0  0  0  0  0  0  0  0  0  0  0  0
   -6.3980   14.8270    2.0290 C   0  0  0  0  0  0  0  0  0  0  0  0
   -8.3030   14.6210    0.9640 C   0  0  0  0  0  0  0  0  0  0  0  0
   -7.3740   14.5550    0.0130 N   0  0  0  0  0  0  0  0  0  0  0  0
   -6.1950   14.6910    0.6780 N   0  0  0  0  0  0  0  0  0  0  0  0
   -4.9580   14.6930   -0.0060 C   0  0  0  0  0  0  0  0  0  0  0  0
   -3.7450   14.7490    0.6950 C   0  0  0  0  0  0  0  0  0  0  0  0
   -4.9540   14.6450   -1.4050 C   0  0  0  0  0  0  0  0  0  0  0  0
   -2.5430   14.7560   -0.0110 C   0  0  0  0  0  0  0  0  0  0  0  0
   -3.7500   14.6510   -2.1020 C   0  0  0  0  0  0  0  0  0  0  0  0
   -2.5450   14.7080   -1.4060 C   0  0  0  0  0  0  0  0  0  0  0  0
  1  2  1  0
  2  3  1  0
  1  4  1  0
  4  5  2  0
  2  6  1  0
  4  7  1  0
  7  8  2  0
  7  9  1  0
  9 10  2  0
  8 11  1  0
 10 11  1  0
 11 12  1  0
 12 13  2  0
 12 14  1  0
 13 15  1  0
 14 16  2  0
 15 17  2  0
 16 17  1  0
M  END
