diamond-x0766_0_A-diamond-x0905_0_A
     RDKit          3D

 18 20  0  0  0  0  0  0  0  0999 V2000
    0.4120   12.3060   -2.2930 C   0  0  0  0  0  0  0  0  0  0  0  0
    0.2370   11.1580   -2.9740 O   0  0  0  0  0  0  0  0  0  0  0  0
    0.3100   12.3740   -1.0910 O   0  0  0  0  0  0  0  0  0  0  0  0
    0.7560   13.5510   -3.0440 C   0  0  1  0  0  0  0  0  0  0  0  0
    1.5940   13.4410   -4.3060 C   0  0  0  0  0  0  0  0  0  0  0  0
   -0.4220   14.3590   -3.5460 C   0  0  2  0  0  0  0  0  0  0  0  0
    1.5490   14.8980   -4.7740 C   0  0  0  0  0  0  0  0  0  0  0  0
    0.3560   15.5500   -4.0860 C   0  0  0  0  0  0  0  0  0  0  0  0
   -1.5250   14.7270   -2.6010 C   0  0  0  0  0  0  0  0  0  0  0  0
   -2.8760   14.8550   -3.1610 C   0  0  0  0  0  0  0  0  0  0  0  0
   -1.5210   14.9750   -1.2030 C   0  0  0  0  0  0  0  0  0  0  0  0
   -2.8250   15.4070   -0.4700 C   0  0  1  0  0  0  0  0  0  0  0  0
   -3.8700   15.2780   -1.8230 S   0  0  0  0  0  0  0  0  0  0  0  0
   -3.6620   14.6600    0.5570 C   0  0  0  0  0  0  0  0  0  0  0  0
   -5.5620   15.4780   -1.6310 C   0  0  0  0  0  0  0  0  0  0  0  0
   -5.0180   14.5290    0.5500 N   0  0  0  0  0  0  0  0  0  0  0  0
   -5.9090   15.0510   -0.4210 C   0  0  0  0  0  0  0  0  0  0  0  0
   -7.2390   15.0990   -0.0610 O   0  0  0  0  0  0  0  0  0  0  0  0
  1  2  1  0
  1  3  2  0
  4  1  1  6
  4  5  1  0
  4  6  1  0
  5  7  1  0
  6  8  1  0
  7  8  1  0
  6  9  1  1
  9 10  1  0
  9 11  2  0
 12 11  1  6
 10 13  2  0
 12 13  1  0
 12 14  1  0
 13 15  1  0
 14 16  2  0
 15 17  2  0
 16 17  1  0
 17 18  1  0
M  END
