diamond-x0766_0_A-diamond-x0895_1_A
     RDKit          3D

 19 21  0  0  0  0  0  0  0  0999 V2000
    0.6220   12.2750   -2.2080 C   0  0  0  0  0  0  0  0  0  0  0  0
    0.9640   12.2380   -3.5130 O   0  0  0  0  0  0  0  0  0  0  0  0
    0.1250   11.3160   -1.6660 O   0  0  0  0  0  0  0  0  0  0  0  0
    0.9330   13.6020   -1.5840 C   0  0  1  0  0  0  0  0  0  0  0  0
    2.1770   14.2180   -2.1890 C   0  0  0  0  0  0  0  0  0  0  0  0
   -0.1380   14.6830   -1.7530 C   0  0  1  0  0  0  0  0  0  0  0  0
    1.6430   14.9160   -3.4410 C   0  0  0  0  0  0  0  0  0  0  0  0
    0.1350   15.1090   -3.2120 C   0  0  0  0  0  0  0  0  0  0  0  0
   -1.6160   14.3390   -1.3320 C   0  0  2  0  0  0  0  0  0  0  0  0
   -2.6880   15.1110   -2.1020 C   0  0  0  0  0  0  0  0  0  0  0  0
   -1.7960   14.5480    0.2190 C   0  0  0  0  0  0  0  0  0  0  0  0
   -2.9640   14.7010    0.9570 C   0  0  0  0  0  0  0  0  0  0  0  0
   -4.2390   15.3840   -1.2620 S   0  0  0  0  0  0  0  0  0  0  0  0
   -4.3630   14.6810    0.4010 C   0  0  1  0  0  0  0  0  0  0  0  0
   -2.9810   14.2950   -0.5790 C   0  0  0  0  0  0  0  0  0  0  0  0
   -1.8880   14.7410   -0.3010 O   0  0  0  0  0  0  0  0  0  0  0  0
   -3.4830   13.0140   -0.4670 N   0  0  0  0  0  0  0  0  0  0  0  0
   -4.6380   13.2400    0.1380 C   0  0  0  0  0  0  0  0  0  0  0  0
   -5.5850   12.4990    0.3770 O   0  0  0  0  0  0  0  0  0  0  0  0
  1  2  1  0
  1  3  2  0
  4  1  1  6
  4  5  1  0
  4  6  1  0
  5  7  1  0
  6  8  1  6
  7  8  1  0
  6  9  1  0
  9 10  1  6
  9 11  1  0
 11 12  2  0
 10 13  2  0
 14 12  1  6
 13 14  1  0
 13 15  1  6
 15 16  2  0
 15 17  1  0
 14 18  1  0
 17 18  1  0
 18 19  2  0
M  END
