diamond-x0895_0_A-mac-x0441
     RDKit          3D

 27 29  0  0  0  0  0  0  0  0999 V2000
   -1.4400   14.4590    2.0330 O   0  0  0  0  0  0  0  0  0  0  0  0
   -2.3940   14.6180    1.2970 C   0  0  0  0  0  0  0  0  0  0  0  0
   -3.8360   14.7980    1.7340 C   0  0  0  0  0  0  0  0  0  0  0  0
   -2.3430   14.6730   -0.0560 N   0  0  0  0  0  0  0  0  0  0  0  0
   -1.0690   14.8080   -0.7600 C   0  0  0  0  0  0  0  0  0  0  0  0
   -4.3690   15.3810    0.5450 N   0  0  0  0  0  0  0  0  0  0  0  0
   -3.5690   15.0840   -0.5330 C   0  0  0  0  0  0  0  0  0  0  0  0
   -3.9480   15.1750   -1.6870 O   0  0  0  0  0  0  0  0  0  0  0  0
   -0.1690   13.6010   -0.6310 C   0  0  0  0  0  0  0  0  0  0  0  0
    0.8030   13.5020   -1.8090 C   0  0  0  0  0  0  0  0  0  0  0  0
    0.6400   12.1310   -2.2310 N   0  0  0  0  0  0  0  0  0  0  0  0
    0.5050   11.7210   -3.4340 C   0  0  0  0  0  0  0  0  0  0  0  0
    0.3260   10.4110   -3.6330 O   0  0  0  0  0  0  0  0  0  0  0  0
    0.5120   12.5700   -4.6860 C   0  0  0  0  0  0  0  0  0  0  0  0
    0.2300   11.7140   -5.8380 N   0  0  0  0  0  0  0  0  0  0  0  0
    1.0300   11.7600   -6.9510 N   0  0  0  0  0  0  0  0  0  0  0  0
   -0.7790   10.8120   -5.9680 C   0  0  0  0  0  0  0  0  0  0  0  0
    0.4830   10.8430   -7.8010 C   0  0  0  0  0  0  0  0  0  0  0  0
   -0.6400   10.2390   -7.2060 C   0  0  0  0  0  0  0  0  0  0  0  0
   -1.8450   10.4800   -4.9840 C   0  0  0  0  0  0  0  0  0  0  0  0
    0.9410   10.4560   -9.1950 C   0  0  0  0  0  0  0  0  0  0  0  0
   -1.5470    9.1900   -7.7390 C   0  0  0  0  0  0  0  0  0  0  0  0
   -2.9740    9.7200   -5.7030 C   0  0  0  0  0  0  0  0  0  0  0  0
    1.6150    9.2730   -9.1920 F   0  0  0  0  0  0  0  0  0  0  0  0
   -0.1260   10.2470  -10.0040 F   0  0  0  0  0  0  0  0  0  0  0  0
    1.6920   11.3370   -9.8790 F   0  0  0  0  0  0  0  0  0  0  0  0
   -2.4280    8.6100   -6.6190 C   0  0  0  0  0  0  0  0  0  0  0  0
  1  2  2  0
  2  3  1  0
  2  4  1  0
  4  5  1  0
  3  6  1  0
  4  7  1  0
  6  7  1  0
  7  8  2  0
  5  9  1  0
  9 10  1  0
 10 11  1  0
 11 12  2  3
 12 13  1  0
 12 14  1  0
 14 15  1  0
 15 16  1  0
 15 17  1  0
 16 18  2  0
 17 19  2  0
 18 19  1  0
 17 20  1  0
 18 21  1  0
 19 22  1  0
 20 23  1  0
 21 24  1  0
 21 25  1  0
 21 26  1  0
 22 27  1  0
 23 27  1  0
M  END
