diamond-x0910_0_A-diamond-x0471_0_A
     RDKit          3D

 21 23  0  0  0  0  0  0  0  0999 V2000
   -2.4160   12.9580   -1.5990 N   0  0  0  0  0  0  0  0  0  0  0  0
   -1.9480   13.8150   -0.6630 C   0  0  0  0  0  0  0  0  0  0  0  0
   -2.8630   14.7800    0.0710 C   0  0  1  0  0  0  0  0  0  0  0  0
   -0.6990   13.9340   -0.3390 N   0  0  0  0  0  0  0  0  0  0  0  0
   -1.8380   15.4730    0.8930 N   0  0  0  0  0  0  0  0  0  0  0  0
   -0.6930   14.9240    0.5980 C   0  0  0  0  0  0  0  0  0  0  0  0
   -3.5410   15.4760   -1.1050 C   0  0  0  0  0  0  0  0  0  0  0  0
   -3.8700   14.2070    1.0240 C   0  0  0  0  0  0  0  0  0  0  0  0
   -5.2020   14.3530    0.8320 C   0  0  0  0  0  0  0  0  0  0  0  0
   -4.8650   15.6010   -1.3070 C   0  0  0  0  0  0  0  0  0  0  0  0
   -6.2650   13.9400    1.5800 N   0  0  0  0  0  0  0  0  0  0  0  0
   -5.7640   15.0460   -0.3240 C   0  0  0  0  0  0  0  0  0  0  0  0
   -7.0650   15.0340   -0.2670 N   0  0  0  0  0  0  0  0  0  0  0  0
   -7.3130   14.3630    0.9230 C   0  0  0  0  0  0  0  0  0  0  0  0
   -8.7360   14.1560    1.4080 C   0  0  0  0  0  0  0  0  0  0  0  0
   -8.7660   14.0400    2.8620 N   0  0  0  0  0  0  0  0  0  0  0  0
   -9.1410   15.1110    3.6450 C   0  0  0  0  0  0  0  0  0  0  0  0
   -9.3910   16.2070    3.1610 O   0  0  0  0  0  0  0  0  0  0  0  0
   -9.2570   14.8300    5.1460 C   0  0  0  0  0  0  0  0  0  0  0  0
   -9.6380   13.3770    5.4240 C   0  0  0  0  0  0  0  0  0  0  0  0
   -7.9910   15.2340    5.8940 C   0  0  0  0  0  0  0  0  0  0  0  0
  1  2  1  0
  2  3  1  0
  2  4  2  0
  3  5  1  0
  4  6  1  0
  5  6  2  0
  3  7  1  6
  3  8  1  0
  8  9  2  0
  7 10  2  0
  9 11  1  0
  9 12  1  0
 10 12  1  0
 12 13  2  0
 11 14  2  0
 13 14  1  0
 14 15  1  0
 15 16  1  0
 16 17  1  0
 17 18  2  0
 17 19  1  0
 19 20  1  0
 19 21  1  0
M  END
