diamond-x0282_0_A-mac-x0137
     RDKit          3D

 20 22  0  0  0  0  0  0  0  0999 V2000
   -7.5590   14.4050    1.2320 C   0  0  0  0  0  0  0  0  0  0  0  0
   -8.4090   14.6290    0.1170 O   0  0  0  0  0  0  0  0  0  0  0  0
   -6.0830   14.3170    0.8260 C   0  0  0  0  0  0  0  0  0  0  0  0
   -5.1200   14.9760    1.7900 C   0  0  0  0  0  0  0  0  0  0  0  0
   -5.7250   14.8670   -0.5420 C   0  0  0  0  0  0  0  0  0  0  0  0
   -3.8260   14.2160    1.6880 C   0  0  0  0  0  0  0  0  0  0  0  0
   -4.2400   14.6220   -0.8450 C   0  0  0  0  0  0  0  0  0  0  0  0
   -3.3600   14.1900    0.2870 N   0  0  0  0  0  0  0  0  0  0  0  0
   -2.0020   14.2710    0.1080 C   0  0  0  0  0  0  0  0  0  0  0  0
   -1.5720   13.5420   -0.9750 N   0  0  0  0  0  0  0  0  0  0  0  0
   -1.2530   14.9800    0.8830 N   0  0  0  0  0  0  0  0  0  0  0  0
   -0.3440   13.8810   -1.6750 C   0  0  2  0  0  0  0  0  0  0  0  0
    0.0590   15.0230    0.5340 C   0  0  0  0  0  0  0  0  0  0  0  0
    0.5370   14.5510   -0.6320 C   0  0  0  0  0  0  0  0  0  0  0  0
   -0.8160   14.7070   -2.9200 C   0  0  0  0  0  0  0  0  0  0  0  0
    0.4710   12.6370   -2.1290 C   0  0  0  0  0  0  0  0  0  0  0  0
   -1.3850   13.8460   -4.0700 C   0  0  2  0  0  0  0  0  0  0  0  0
   -0.1900   11.7990   -3.2130 C   0  0  0  0  0  0  0  0  0  0  0  0
   -2.6170   13.3660   -3.7300 F   0  0  0  0  0  0  0  0  0  0  0  0
   -0.5170   12.6470   -4.4270 C   0  0  0  0  0  0  0  0  0  0  0  0
  1  2  1  0
  1  3  1  0
  3  4  1  0
  3  5  1  0
  4  6  1  0
  5  7  1  0
  6  8  1  0
  7  8  1  0
  8  9  1  0
  9 10  1  0
  9 11  2  0
 10 12  1  0
 11 13  1  0
 12 14  1  1
 13 14  2  0
 12 15  1  0
 12 16  1  0
 15 17  1  0
 16 18  1  0
 17 19  1  1
 17 20  1  0
 18 20  1  0
M  END
