diamond-x0626_0_A-diamond-x0592_0_A
     RDKit          3D

 20 21  0  0  0  0  0  0  0  0999 V2000
   -4.7180   15.2630    1.9230 N   0  0  0  0  0  0  0  0  0  0  0  0
   -5.8270   15.0550    1.1750 C   0  0  0  0  0  0  0  0  0  0  0  0
   -5.9650   15.4630    0.0100 O   0  0  0  0  0  0  0  0  0  0  0  0
   -3.4840   15.2340    1.3400 C   0  0  0  0  0  0  0  0  0  0  0  0
   -7.0280   14.2620    1.7690 C   0  0  2  0  0  0  0  0  0  0  0  0
   -2.3340   14.8120    1.8110 N   0  0  0  0  0  0  0  0  0  0  0  0
   -3.4580   15.8500   -0.2470 S   0  0  0  0  0  0  0  0  0  0  0  0
   -7.7960   13.6380    0.6360 C   0  0  0  0  0  0  0  0  0  0  0  0
   -7.8610   15.0780    2.6140 O   0  0  0  0  0  0  0  0  0  0  0  0
   -1.7800   15.5380   -0.3330 C   0  0  0  0  0  0  0  0  0  0  0  0
   -1.3610   14.9810    0.8530 C   0  0  0  0  0  0  0  0  0  0  0  0
   -0.0020   14.5590    1.1870 C   0  0  0  0  0  0  0  0  0  0  0  0
   -6.8050   13.8270   -0.3820 N   0  0  0  0  0  0  0  0  0  0  0  0
   -7.0840   14.3300   -1.6030 N   0  0  0  0  0  0  0  0  0  0  0  0
   -5.4940   13.5460   -0.1850 C   0  0  0  0  0  0  0  0  0  0  0  0
   -4.8290   13.8920   -1.3290 C   0  0  0  0  0  0  0  0  0  0  0  0
   -5.8650   14.3690   -2.1770 C   0  0  0  0  0  0  0  0  0  0  0  0
   -3.3980   13.7580   -1.4900 C   0  0  0  0  0  0  0  0  0  0  0  0
   -2.7270   13.3230   -0.3820 N   0  0  0  0  0  0  0  0  0  0  0  0
   -2.7860   14.0260   -2.5140 O   0  0  0  0  0  0  0  0  0  0  0  0
  1  2  1  0
  2  3  2  0
  1  4  1  0
  2  5  1  0
  4  6  2  0
  4  7  1  0
  5  8  1  0
  5  9  1  6
  7 10  1  0
  6 11  1  0
 10 11  2  0
 11 12  1  0
  8 13  1  0
 13 14  1  0
 13 15  1  0
 15 16  2  0
 14 17  2  0
 16 17  1  0
 16 18  1  0
 18 19  1  0
 18 20  2  0
M  END
