diamond-x0805_0_A-mac-x0148
     RDKit          3D

 29 33  0  0  0  0  0  0  0  0999 V2000
   -5.3200   14.6280    0.9910 C   0  0  0  0  0  0  0  0  0  0  0  0
   -5.3310   14.7160   -0.4130 O   0  0  0  0  0  0  0  0  0  0  0  0
   -4.6910   13.8110   -1.2310 C   0  0  0  0  0  0  0  0  0  0  0  0
   -5.0110   12.5200   -1.4040 C   0  0  0  0  0  0  0  0  0  0  0  0
   -3.6070   14.2740   -1.9450 C   0  0  0  0  0  0  0  0  0  0  0  0
   -4.3460   11.6810   -2.2170 C   0  0  0  0  0  0  0  0  0  0  0  0
   -2.9120   13.5270   -2.7430 C   0  0  0  0  0  0  0  0  0  0  0  0
   -3.2520   12.2440   -2.9000 C   0  0  0  0  0  0  0  0  0  0  0  0
   -1.3770   14.2900   -3.6980 S   0  0  0  0  0  0  0  0  0  0  0  0
    0.3600   13.5920   -3.8970 C   0  0  2  0  0  0  0  0  0  0  0  0
   -0.5920   14.5250   -2.0290 C   0  0  2  0  0  0  0  0  0  0  0  0
   -1.5200   13.6440   -5.3910 C   0  0  0  0  0  0  0  0  0  0  0  0
   -2.3030   15.4060   -4.8960 C   0  0  0  0  0  0  0  0  0  0  0  0
    0.8800   12.4610   -3.0580 C   0  0  0  0  0  0  0  0  0  0  0  0
    1.4590   14.5660   -3.8430 C   0  0  0  0  0  0  0  0  0  0  0  0
    0.8220   15.1550   -1.9430 C   0  0  0  0  0  0  0  0  0  0  0  0
   -3.2990   14.6460   -5.6430 C   0  0  0  0  0  0  0  0  0  0  0  0
   -2.7330   13.4600   -5.8450 O   0  0  0  0  0  0  0  0  0  0  0  0
   -0.4800   13.3770   -1.1110 N   0  0  0  0  0  0  0  0  0  0  0  0
   -1.3890   15.3820   -1.1520 C   0  0  2  0  0  0  0  0  0  0  0  0
    0.5100   11.1510   -3.0810 O   0  0  0  0  0  0  0  0  0  0  0  0
    1.7980   12.6290   -2.1880 O   0  0  0  0  0  0  0  0  0  0  0  0
    1.9210   14.4820   -2.5830 O   0  0  0  0  0  0  0  0  0  0  0  0
    0.1370   13.8540    0.0590 C   0  0  0  0  0  0  0  0  0  0  0  0
   -1.4930   15.1340    0.3950 C   0  0  2  0  0  0  0  0  0  0  0  0
   -2.7280   15.8920   -1.2730 C   0  0  0  0  0  0  0  0  0  0  0  0
   -1.0350   13.9940    0.9320 N   0  0  0  0  0  0  0  0  0  0  0  0
   -2.7620   15.5400    0.9480 N   0  0  0  0  0  0  0  0  0  0  0  0
   -3.4670   15.9800   -0.1760 C   0  0  0  0  0  0  0  0  0  0  0  0
  1  2  1  0
  2  3  1  0
  3  4  2  0
  3  5  1  0
  4  6  1  0
  5  7  2  0
  6  8  2  0
  7  8  1  0
  7  9  1  0
  9 10  1  0
  9 11  1  0
  9 12  1  0
  9 13  1  0
 10 14  1  1
 10 15  1  0
 11 16  1  6
 13 17  1  0
 12 18  1  0
 17 18  1  0
 11 19  1  0
 11 20  1  0
 14 21  1  0
 14 22  2  0
 15 23  1  0
 16 23  1  0
 19 24  1  0
 20 25  1  0
 20 26  1  6
 24 27  1  0
 25 27  1  6
 25 28  1  0
 26 29  2  0
 28 29  1  0
M  END
