diamond-x0685_1_A-mac-x0527
     RDKit          3D

 28 30  0  0  0  0  0  0  0  0999 V2000
    0.1920   10.4650   -7.4360 N   0  0  0  0  0  0  0  0  0  0  0  0
   -1.0760   10.1700   -6.8040 C   0  0  0  0  0  0  0  0  0  0  0  0
   -2.0880   10.1940   -7.9530 C   0  0  0  0  0  0  0  0  0  0  0  0
   -0.9150    8.7610   -6.2210 C   0  0  0  0  0  0  0  0  0  0  0  0
   -1.1580   11.3430   -5.9100 C   0  0  0  0  0  0  0  0  0  0  0  0
   -0.4310    7.8560   -7.3600 C   0  0  0  0  0  0  0  0  0  0  0  0
   -1.4650    9.5320   -9.1570 C   0  0  0  0  0  0  0  0  0  0  0  0
   -2.3630   11.8980   -5.4870 C   0  0  0  0  0  0  0  0  0  0  0  0
    0.0200   11.9230   -5.5100 C   0  0  0  0  0  0  0  0  0  0  0  0
   -0.3490    8.5450   -8.7520 C   0  0  0  0  0  0  0  0  0  0  0  0
   -2.3600   13.0390   -4.6960 C   0  0  0  0  0  0  0  0  0  0  0  0
    0.0280   13.0450   -4.7190 C   0  0  0  0  0  0  0  0  0  0  0  0
   -1.1440   13.6270   -4.3190 C   0  0  0  0  0  0  0  0  0  0  0  0
    1.3240   13.5870   -4.3120 C   0  0  0  0  0  0  0  0  0  0  0  0
   -1.1310   14.8760   -3.4930 C   0  0  0  0  0  0  0  0  0  0  0  0
    1.6000   12.7730   -2.7280 S   0  0  0  0  0  0  0  0  0  0  0  0
   -2.0220   14.7190   -2.3990 N   0  0  0  0  0  0  0  0  0  0  0  0
    3.1550   12.4700   -2.7240 O   0  0  0  0  0  0  0  0  0  0  0  0
    0.7460   11.4080   -2.7020 O   0  0  0  0  0  0  0  0  0  0  0  0
    1.1430   13.6900   -1.4820 O   0  0  0  0  0  0  0  0  0  0  0  0
   -3.3180   15.0750   -2.3530 C   0  0  0  0  0  0  0  0  0  0  0  0
   -3.8880   15.4180   -3.3870 O   0  0  0  0  0  0  0  0  0  0  0  0
   -4.0070   15.0280   -1.0610 C   0  0  0  0  0  0  0  0  0  0  0  0
   -5.3860   15.0490   -1.0270 C   0  0  0  0  0  0  0  0  0  0  0  0
   -3.2450   14.9600    0.0570 N   0  0  0  0  0  0  0  0  0  0  0  0
   -6.0710   14.9940    0.1380 N   0  0  0  0  0  0  0  0  0  0  0  0
   -3.9280   14.9080    1.2190 C   0  0  0  0  0  0  0  0  0  0  0  0
   -5.3100   14.9230    1.2600 C   0  0  0  0  0  0  0  0  0  0  0  0
  2  1  1  0
  2  3  1  0
  2  4  1  0
  2  5  1  0
  4  6  1  0
  3  7  1  0
  5  8  2  0
  5  9  1  0
  6 10  1  0
  7 10  1  0
  8 11  1  0
  9 12  2  0
 11 13  2  0
 12 13  1  0
 12 14  1  0
 13 15  1  0
 14 16  1  0
 15 17  1  0
 16 18  1  0
 16 19  1  0
 16 20  1  0
 17 21  1  0
 21 22  2  0
 21 23  1  0
 23 24  2  0
 23 25  1  0
 24 26  1  0
 25 27  2  0
 26 28  2  0
 27 28  1  0
M  END
