diamond-x0681_0_A-diamond-x0689_0_A
     RDKit          3D

 20 22  0  0  0  0  0  0  0  0999 V2000
   -4.8550   15.4300   -2.2100 N   0  0  0  0  0  0  0  0  0  0  0  0
   -3.8740   14.5640   -1.8320 C   0  0  0  0  0  0  0  0  0  0  0  0
   -2.8400   14.4950   -2.5040 O   0  0  0  0  0  0  0  0  0  0  0  0
   -4.1060   13.7030   -0.5780 C   0  0  2  0  0  0  0  0  0  0  0  0
   -5.2030   12.7240   -0.7100 C   0  0  0  0  0  0  0  0  0  0  0  0
   -4.2950   14.5560    0.6760 C   0  0  1  0  0  0  0  0  0  0  0  0
   -3.9620   15.9570    0.4810 C   0  0  0  0  0  0  0  0  0  0  0  0
   -6.0660   12.4540    0.3160 N   0  0  0  0  0  0  0  0  0  0  0  0
   -5.6260   14.4870    1.3950 C   0  0  0  0  0  0  0  0  0  0  0  0
   -5.4980   12.0100   -1.7630 N   0  0  0  0  0  0  0  0  0  0  0  0
   -2.8380   16.0090    1.2650 N   0  0  0  0  0  0  0  0  0  0  0  0
   -6.0160   13.0600    1.5980 C   0  0  0  0  0  0  0  0  0  0  0  0
   -6.9510   11.5350   -0.0950 C   0  0  0  0  0  0  0  0  0  0  0  0
   -6.5850   11.2680   -1.3890 C   0  0  0  0  0  0  0  0  0  0  0  0
   -1.8960   15.1580    0.8000 C   0  0  0  0  0  0  0  0  0  0  0  0
   -1.8620   14.8890   -0.5040 N   0  0  0  0  0  0  0  0  0  0  0  0
   -1.0830   14.6850    1.7120 N   0  0  0  0  0  0  0  0  0  0  0  0
   -0.8920   14.1080   -0.9290 C   0  0  0  0  0  0  0  0  0  0  0  0
   -0.1340   13.8950    1.2450 C   0  0  0  0  0  0  0  0  0  0  0  0
    0.0190   13.5780   -0.0870 C   0  0  0  0  0  0  0  0  0  0  0  0
  1  2  1  0
  2  3  2  0
  4  2  1  6
  4  5  1  0
  4  6  1  0
  6  7  1  6
  5  8  1  0
  6  9  1  0
  5 10  2  0
  7 11  1  0
  8 12  1  0
  9 12  1  0
  8 13  1  0
 10 14  1  0
 13 14  2  0
 11 15  1  0
 15 16  2  0
 15 17  1  0
 16 18  1  0
 17 19  2  0
 18 20  2  0
 19 20  1  0
M  END
