diamond-x0371_0_A-mac-x0453
     RDKit          3D

 21 24  0  0  0  0  0  0  0  0999 V2000
   -7.4960   14.8210    2.5430 N   0  0  0  0  0  0  0  0  0  0  0  0
   -8.4060   15.5420    3.3840 C   0  0  0  0  0  0  0  0  0  0  0  0
   -9.2750   16.2350    2.8480 O   0  0  0  0  0  0  0  0  0  0  0  0
   -8.1200   14.1800    1.4310 C   0  0  0  0  0  0  0  0  0  0  0  0
   -6.1630   14.2900    2.8670 C   0  0  0  0  0  0  0  0  0  0  0  0
   -4.9220   14.8550    2.1420 C   0  0  0  0  0  0  0  0  0  0  0  0
   -7.4850   14.4460    0.0900 C   0  0  0  0  0  0  0  0  0  0  0  0
   -8.3680   15.4900    4.8400 C   0  0  0  0  0  0  0  0  0  0  0  0
   -6.1000   14.7720   -0.2350 C   0  0  0  0  0  0  0  0  0  0  0  0
   -7.8000   14.4110    5.4600 O   0  0  0  0  0  0  0  0  0  0  0  0
   -8.8280   16.3680    5.8080 C   0  0  0  0  0  0  0  0  0  0  0  0
   -4.9350   14.9540    0.6200 C   0  0  0  0  0  0  0  0  0  0  0  0
   -8.4220   14.3370   -0.9420 C   0  0  0  0  0  0  0  0  0  0  0  0
   -8.1780   14.5030   -2.2420 N   0  0  0  0  0  0  0  0  0  0  0  0
   -5.8710   14.9340   -1.6390 C   0  0  0  0  0  0  0  0  0  0  0  0
   -8.5250   15.7950    7.0670 C   0  0  0  0  0  0  0  0  0  0  0  0
   -7.9020   14.6060    6.8020 C   0  0  0  0  0  0  0  0  0  0  0  0
   -3.6800   15.2530    0.0350 C   0  0  0  0  0  0  0  0  0  0  0  0
   -3.5320   15.3820   -1.3360 C   0  0  0  0  0  0  0  0  0  0  0  0
   -4.6180   15.2300   -2.1550 C   0  0  0  0  0  0  0  0  0  0  0  0
   -6.9140   14.7940   -2.5490 C   0  0  0  0  0  0  0  0  0  0  0  0
  1  2  1  0
  2  3  2  0
  1  4  1  0
  1  5  1  0
  5  6  1  0
  4  7  1  0
  2  8  1  0
  7  9  1  0
  8 10  1  0
  8 11  2  0
  6 12  1  0
  9 12  2  0
  7 13  2  0
 13 14  1  0
  9 15  1  0
 11 16  1  0
 10 17  1  0
 16 17  2  0
 12 18  1  0
 18 19  2  0
 15 20  2  0
 19 20  1  0
 14 21  2  0
 15 21  1  0
M  END
