diamond-x1018_0_A-mac-x0392
     RDKit          3D

 18 20  0  0  0  0  0  0  0  0999 V2000
   -8.3510   14.1050    1.0540 Cl  0  0  0  0  0  0  0  0  0  0  0  0
   -6.6310   14.4960    0.8250 C   0  0  1  0  0  0  0  0  0  0  0  0
   -5.7040   13.4640    1.3530 C   0  0  0  0  0  0  0  0  0  0  0  0
   -6.3800   14.7680   -0.5960 N   0  0  0  0  0  0  0  0  0  0  0  0
   -5.0300   15.2900   -0.6840 N   0  0  0  0  0  0  0  0  0  0  0  0
   -4.4250   13.4720    0.9510 C   0  0  0  0  0  0  0  0  0  0  0  0
   -4.5990   15.6420   -1.9780 N   0  0  0  0  0  0  0  0  0  0  0  0
   -3.8920   14.5100   -0.0290 C   0  0  1  0  0  0  0  0  0  0  0  0
   -3.1420   14.0110   -1.1880 N   0  0  0  0  0  0  0  0  0  0  0  0
   -3.7730   14.5480   -2.3990 N   0  0  0  0  0  0  0  0  0  0  0  0
   -3.0890   15.4020    0.8320 N   0  0  0  0  0  0  0  0  0  0  0  0
   -1.6620   14.0170   -1.1850 C   0  0  1  0  0  0  0  0  0  0  0  0
   -1.8300   14.7660    1.2180 C   0  0  0  0  0  0  0  0  0  0  0  0
   -1.0800   14.5450   -2.4970 C   0  0  0  0  0  0  0  0  0  0  0  0
   -0.9040   14.6420    0.0080 C   0  0  1  0  0  0  0  0  0  0  0  0
    0.2620   13.8080    0.3650 N   0  0  0  0  0  0  0  0  0  0  0  0
   -1.6900   14.7470   -3.5340 O   0  0  0  0  0  0  0  0  0  0  0  0
    0.2510   14.7930   -2.4560 O   0  0  0  0  0  0  0  0  0  0  0  0
  2  1  1  6
  2  3  1  0
  2  4  1  0
  4  5  1  0
  3  6  2  0
  5  7  1  0
  5  8  1  0
  8  6  1  1
  8  9  1  0
  7 10  1  0
  9 10  1  0
  8 11  1  0
  9 12  1  0
 11 13  1  0
 12 14  1  6
 12 15  1  0
 13 15  1  0
 15 16  1  1
 14 17  2  0
 14 18  1  0
M  END
