diamond-x0631_0_A-mac-x0326
     RDKit          3D

 33 36  0  0  0  0  0  0  0  0999 V2000
   -2.7530    8.5490   -7.8950 C   0  0  0  0  0  0  0  0  0  0  0  0
   -1.3750    8.1970   -7.3650 C   0  0  0  0  0  0  0  0  0  0  0  0
   -0.7050    9.4070   -6.6840 C   0  0  1  0  0  0  0  0  0  0  0  0
   -0.6160    9.1320   -5.1630 C   0  0  0  0  0  0  0  0  0  0  0  0
    0.5860    9.7870   -7.2960 N   0  0  0  0  0  0  0  0  0  0  0  0
   -0.6270   10.3540   -4.2250 C   0  0  0  0  0  0  0  0  0  0  0  0
    0.6140   11.2100   -7.4080 N   0  0  0  0  0  0  0  0  0  0  0  0
    0.7790    9.2840   -8.6650 N   0  0  0  0  0  0  0  0  0  0  0  0
    0.6400   11.0200   -4.2580 O   0  0  0  0  0  0  0  0  0  0  0  0
    0.4070   11.4660   -8.8240 N   0  0  0  0  0  0  0  0  0  0  0  0
    1.2770   10.4630   -9.3650 C   0  0  2  0  0  0  0  0  0  0  0  0
    1.1120   10.3490  -10.8000 N   0  0  0  0  0  0  0  0  0  0  0  0
    0.8790   12.1730   -3.5740 C   0  0  0  0  0  0  0  0  0  0  0  0
    2.2530    9.7170  -11.4230 C   0  0  1  0  0  0  0  0  0  0  0  0
    1.0090   12.2910   -2.3610 O   0  0  0  0  0  0  0  0  0  0  0  0
    0.9920   13.2810   -4.5920 C   0  0  0  0  0  0  0  0  0  0  0  0
    1.8650    8.4630  -11.9330 O   0  0  0  0  0  0  0  0  0  0  0  0
    0.8810   14.6690   -3.9880 C   0  0  0  0  0  0  0  0  0  0  0  0
    2.9240   10.5510  -12.5650 C   0  0  1  0  0  0  0  0  0  0  0  0
    3.9700    9.7840  -13.2180 O   0  0  0  0  0  0  0  0  0  0  0  0
    2.1010   11.1160  -13.6890 C   0  0  0  0  0  0  0  0  0  0  0  0
   -0.3180   14.7750   -3.0910 C   0  0  0  0  0  0  0  0  0  0  0  0
    3.2390   11.5930  -14.5660 C   0  0  0  0  0  0  0  0  0  0  0  0
    4.2200   10.4310  -14.4770 C   0  0  0  0  0  0  0  0  0  0  0  0
   -1.5470   14.9360   -3.5410 N   0  0  0  0  0  0  0  0  0  0  0  0
   -0.1500   14.6890   -1.3890 S   0  0  0  0  0  0  0  0  0  0  0  0
   -2.4350   14.9970   -2.4830 C   0  0  0  0  0  0  0  0  0  0  0  0
   -1.8550   14.8780   -1.2140 C   0  0  0  0  0  0  0  0  0  0  0  0
   -3.8270   15.1640   -2.5790 C   0  0  0  0  0  0  0  0  0  0  0  0
   -2.6210   14.9220   -0.0350 C   0  0  0  0  0  0  0  0  0  0  0  0
   -4.5900   15.2100   -1.4130 C   0  0  0  0  0  0  0  0  0  0  0  0
   -3.9980   15.0910   -0.1560 C   0  0  0  0  0  0  0  0  0  0  0  0
   -6.2920   15.4130   -1.5210 Cl  0  0  0  0  0  0  0  0  0  0  0  0
  1  2  1  0
  3  2  1  6
  3  4  1  0
  3  5  1  0
  4  6  1  0
  5  7  1  0
  5  8  1  0
  6  9  1  0
  7 10  1  0
  8 11  1  0
 10 11  1  0
 11 12  1  6
  9 13  1  0
 12 14  1  0
 13 15  2  0
 13 16  1  0
 14 17  1  6
 16 18  1  0
 14 19  1  0
 19 20  1  0
 19 21  1  6
 18 22  1  0
 21 23  1  0
 20 24  1  0
 23 24  1  0
 22 25  2  0
 22 26  1  0
 25 27  1  0
 26 28  1  0
 27 28  2  0
 27 29  1  0
 28 30  1  0
 29 31  2  0
 30 32  2  0
 31 32  1  0
 31 33  1  0
M  END
