diamond-x0962_2_B-mac-x0159
     RDKit          3D

 26 29  0  0  0  0  0  0  0  0999 V2000
  -11.3150   16.4190    1.4500 N   0  0  0  0  0  0  0  0  0  0  0  0
  -10.3660   16.0550    2.0050 C   0  0  0  0  0  0  0  0  0  0  0  0
   -9.1550   15.5920    2.5860 C   0  0  0  0  0  0  0  0  0  0  0  0
   -8.7280   15.8840    3.8630 N   0  0  0  0  0  0  0  0  0  0  0  0
   -8.2680   14.8080    1.9290 C   0  0  0  0  0  0  0  0  0  0  0  0
   -7.5560   15.2670    3.9610 C   0  0  0  0  0  0  0  0  0  0  0  0
   -7.2470   14.6020    2.7800 N   0  0  0  0  0  0  0  0  0  0  0  0
   -6.0710   13.8070    2.4090 C   0  0  0  0  0  0  0  0  0  0  0  0
   -4.7940   14.6150    2.0070 C   0  0  0  0  0  0  0  0  0  0  0  0
   -4.8170   15.0070    0.5920 N   0  0  0  0  0  0  0  0  0  0  0  0
   -3.5860   15.3040   -0.1720 C   0  0  2  0  0  0  0  0  0  0  0  0
   -3.9530   15.1380   -1.5830 N   0  0  0  0  0  0  0  0  0  0  0  0
   -2.2360   14.6240    0.2080 C   0  0  1  0  0  0  0  0  0  0  0  0
   -2.8950   15.4180   -2.5500 C   0  0  0  0  0  0  0  0  0  0  0  0
   -1.2470   14.9890   -0.8980 C   0  0  2  0  0  0  0  0  0  0  0  0
   -1.4610   15.0950    1.3580 N   0  0  0  0  0  0  0  0  0  0  0  0
   -1.6970   14.6740   -2.2260 N   0  0  0  0  0  0  0  0  0  0  0  0
   -0.0190   14.4050   -0.4120 N   0  0  0  0  0  0  0  0  0  0  0  0
   -0.1100   14.6130    1.0310 C   0  0  0  0  0  0  0  0  0  0  0  0
   -0.7090   14.6270   -3.3230 C   0  0  0  0  0  0  0  0  0  0  0  0
   -0.3850   15.9020   -4.0840 C   0  0  0  0  0  0  0  0  0  0  0  0
    0.8930   16.4420   -4.1820 C   0  0  0  0  0  0  0  0  0  0  0  0
   -1.3580   16.6390   -4.7610 N   0  0  0  0  0  0  0  0  0  0  0  0
   -0.8130   17.6900   -5.3410 C   0  0  0  0  0  0  0  0  0  0  0  0
    0.8730   17.8710   -5.1180 S   0  0  0  0  0  0  0  0  0  0  0  0
   -1.5500   18.6970   -6.1520 C   0  0  0  0  0  0  0  0  0  0  0  0
  1  2  3  0
  2  3  1  0
  3  4  1  0
  3  5  2  0
  4  6  2  0
  5  7  1  0
  6  7  1  0
  7  8  1  0
  8  9  1  0
  9 10  1  0
 11 10  1  1
 11 12  1  0
 11 13  1  0
 12 14  1  0
 13 15  1  0
 13 16  1  1
 14 17  1  0
 15 17  1  0
 15 18  1  1
 16 19  1  0
 18 19  1  0
 17 20  1  0
 20 21  1  0
 21 22  2  0
 21 23  1  0
 23 24  2  0
 22 25  1  0
 24 25  1  0
 24 26  1  0
M  END
