diamond-x0438_0_A-mac-x0302
     RDKit          3D

 22 23  0  0  0  0  0  0  0  0999 V2000
   -8.2850   15.7690    4.0640 C   0  0  0  0  0  0  0  0  0  0  0  0
   -9.4500   15.4420    2.7550 S   0  0  0  0  0  0  0  0  0  0  0  0
  -10.6880   15.0030    3.3670 O   0  0  0  0  0  0  0  0  0  0  0  0
   -8.7910   14.0270    1.9050 C   0  0  0  0  0  0  0  0  0  0  0  0
   -9.4770   16.5480    1.8200 O   0  0  0  0  0  0  0  0  0  0  0  0
   -7.4670   14.3070    1.3060 C   0  0  0  0  0  0  0  0  0  0  0  0
   -7.3080   14.5020   -0.0330 N   0  0  0  0  0  0  0  0  0  0  0  0
   -6.3140   14.3940    1.9350 N   0  0  0  0  0  0  0  0  0  0  0  0
   -5.3780   14.6370    0.9640 C   0  0  0  0  0  0  0  0  0  0  0  0
   -5.9890   14.7060   -0.2760 C   0  0  0  0  0  0  0  0  0  0  0  0
   -5.3160   14.9300   -1.4470 C   0  0  0  0  0  0  0  0  0  0  0  0
   -3.9910   14.8060    1.0570 C   0  0  0  0  0  0  0  0  0  0  0  0
   -6.0500   14.9740   -2.5890 O   0  0  0  0  0  0  0  0  0  0  0  0
   -3.9140   15.0800   -1.3810 C   0  0  0  0  0  0  0  0  0  0  0  0
   -3.2740   15.0220   -0.1230 C   0  0  0  0  0  0  0  0  0  0  0  0
   -3.0140   15.2820   -2.5510 C   0  0  0  0  0  0  0  0  0  0  0  0
   -1.7290   14.8440   -2.3770 N   0  0  0  0  0  0  0  0  0  0  0  0
   -3.4060   15.7920   -3.5960 O   0  0  0  0  0  0  0  0  0  0  0  0
   -0.8250   14.6060   -3.4820 C   0  0  0  0  0  0  0  0  0  0  0  0
    0.5040   14.1200   -2.9340 C   0  0  0  0  0  0  0  0  0  0  0  0
    1.5500   14.3980   -3.7390 O   0  0  0  0  0  0  0  0  0  0  0  0
    0.6830   13.5310   -1.8790 O   0  0  0  0  0  0  0  0  0  0  0  0
  2  1  1  0
  2  3  2  0
  2  4  1  0
  2  5  2  0
  4  6  1  0
  6  7  1  0
  6  8  2  0
  8  9  1  0
  7 10  1  0
  9 10  2  0
 10 11  1  0
  9 12  1  0
 11 13  1  0
 11 14  2  0
 12 15  2  0
 14 15  1  0
 14 16  1  0
 16 17  1  0
 16 18  2  0
 17 19  1  0
 19 20  1  0
 20 21  1  0
 20 22  2  0
M  END
