diamond-x0626_0_A-mac-x0337
     RDKit          3D

 21 22  0  0  0  0  0  0  0  0999 V2000
   -4.7130   14.2620    1.5180 N   0  0  0  0  0  0  0  0  0  0  0  0
   -5.9110   14.6740    0.9580 C   0  0  0  0  0  0  0  0  0  0  0  0
   -5.8500   15.0720   -0.2950 N   0  0  0  0  0  0  0  0  0  0  0  0
   -3.4510   14.2190    1.0510 C   0  0  0  0  0  0  0  0  0  0  0  0
   -7.1830   14.6090    1.8030 C   0  0  0  0  0  0  0  0  0  0  0  0
   -2.3600   14.8030    1.5180 N   0  0  0  0  0  0  0  0  0  0  0  0
   -3.1680   13.2830   -0.3680 S   0  0  0  0  0  0  0  0  0  0  0  0
   -8.4310   14.7710    0.9430 C   0  0  0  0  0  0  0  0  0  0  0  0
   -4.5370   15.0530   -1.2460 S   0  0  0  0  0  0  0  0  0  0  0  0
   -1.5370   13.7110   -0.3720 C   0  0  0  0  0  0  0  0  0  0  0  0
   -1.2790   14.5130    0.6960 C   0  0  0  0  0  0  0  0  0  0  0  0
    0.0360   15.0590    0.9970 C   0  0  0  0  0  0  0  0  0  0  0  0
   -3.3010   15.4170   -0.6080 O   0  0  0  0  0  0  0  0  0  0  0  0
   -4.7840   15.6790   -2.4820 O   0  0  0  0  0  0  0  0  0  0  0  0
   -4.6830   13.2920   -1.5940 C   0  0  0  0  0  0  0  0  0  0  0  0
   -3.8370   12.5940   -2.4740 C   0  0  0  0  0  0  0  0  0  0  0  0
   -5.7210   12.6180   -0.9340 C   0  0  0  0  0  0  0  0  0  0  0  0
   -4.0580   11.2230   -2.6800 C   0  0  0  0  0  0  0  0  0  0  0  0
   -5.9290   11.2650   -1.1490 C   0  0  0  0  0  0  0  0  0  0  0  0
   -5.1070   10.5560   -2.0250 C   0  0  0  0  0  0  0  0  0  0  0  0
   -5.3520    9.0930   -2.2630 C   0  0  0  0  0  0  0  0  0  0  0  0
  1  2  1  0
  2  3  2  3
  1  4  1  0
  2  5  1  0
  4  6  2  0
  4  7  1  0
  5  8  1  0
  9  3  1  0
  7 10  1  0
  6 11  1  0
 10 11  2  0
 11 12  1  0
  9 13  2  0
  9 14  2  0
  9 15  1  0
 15 16  2  0
 15 17  1  0
 16 18  1  0
 17 19  2  0
 18 20  2  0
 19 20  1  0
 20 21  1  0
M  END
