diamond-x0685_0_A-diamond-x0290_0_A
     RDKit          3D

 22 23  0  0  0  0  0  0  0  0999 V2000
   -5.7980   14.8530    2.0410 N   0  0  0  0  0  0  0  0  0  0  0  0
   -7.1610   14.6630    2.6070 C   0  0  0  0  0  0  0  0  0  0  0  0
   -8.0380   13.6830    1.8500 C   0  0  0  0  0  0  0  0  0  0  0  0
   -5.0150   13.7360    1.9010 C   0  0  0  0  0  0  0  0  0  0  0  0
   -5.5160   15.0800    0.7300 C   0  0  0  0  0  0  0  0  0  0  0  0
   -5.4820   12.6640    1.5360 O   0  0  0  0  0  0  0  0  0  0  0  0
   -3.6610   13.8330    2.0280 N   0  0  0  0  0  0  0  0  0  0  0  0
   -4.1740   15.3210    0.5720 C   0  0  0  0  0  0  0  0  0  0  0  0
   -6.3860   15.0110   -0.2810 N   0  0  0  0  0  0  0  0  0  0  0  0
   -8.7590   14.3750    0.6990 C   0  0  0  0  0  0  0  0  0  0  0  0
   -3.6650   15.4560   -0.6720 C   0  0  0  0  0  0  0  0  0  0  0  0
   -5.8510   15.1580   -1.5170 C   0  0  0  0  0  0  0  0  0  0  0  0
   -2.5820   14.0870    1.1630 C   0  0  0  0  0  0  0  0  0  0  0  0
   -4.4970   15.3640   -1.7420 C   0  0  0  0  0  0  0  0  0  0  0  0
   -1.4600   14.4190    1.8310 N   0  0  0  0  0  0  0  0  0  0  0  0
   -2.5860   14.0200   -0.2320 C   0  0  0  0  0  0  0  0  0  0  0  0
   -3.9160   15.4740   -3.0260 C   0  0  0  0  0  0  0  0  0  0  0  0
   -0.3480   14.6860    1.1330 C   0  0  0  0  0  0  0  0  0  0  0  0
   -1.4080   14.3080   -0.9490 C   0  0  0  0  0  0  0  0  0  0  0  0
   -3.3900   15.5310   -4.0550 N   0  0  0  0  0  0  0  0  0  0  0  0
   -1.3750   14.2520   -2.4430 C   0  0  0  0  0  0  0  0  0  0  0  0
   -0.2660   14.6480   -0.2350 C   0  0  0  0  0  0  0  0  0  0  0  0
  1  2  1  0
  2  3  1  0
  1  4  1  0
  1  5  1  0
  4  6  2  0
  4  7  1  0
  5  8  2  0
  5  9  1  0
  3 10  1  0
  8 11  1  0
  9 12  2  0
  7 13  1  0
 11 14  2  0
 12 14  1  0
 13 15  2  0
 13 16  1  0
 14 17  1  0
 15 18  1  0
 16 19  2  0
 17 20  3  0
 19 21  1  0
 18 22  2  0
 19 22  1  0
M  END
