diamond-x0628_0_A-mac-x0404
     RDKit          3D

 22 24  0  0  0  0  0  0  0  0999 V2000
   -0.6790    9.0350   -7.4530 C   0  0  0  0  0  0  0  0  0  0  0  0
   -0.6700   10.1390   -6.4770 C   0  0  0  0  0  0  0  0  0  0  0  0
   -1.5710   10.2140   -5.4630 N   0  0  0  0  0  0  0  0  0  0  0  0
    0.2170   11.1360   -6.5180 N   0  0  0  0  0  0  0  0  0  0  0  0
   -0.1440   11.8960   -5.4520 N   0  0  0  0  0  0  0  0  0  0  0  0
   -1.2360   11.3160   -4.8220 C   0  0  0  0  0  0  0  0  0  0  0  0
   -1.9630   11.7980   -3.6190 C   0  0  0  0  0  0  0  0  0  0  0  0
    0.6280   13.1280   -5.1700 C   0  0  2  0  0  0  0  0  0  0  0  0
    1.6270   13.1130   -4.0110 C   0  0  0  0  0  0  0  0  0  0  0  0
   -0.4200   14.2600   -5.1780 C   0  0  0  0  0  0  0  0  0  0  0  0
    1.0900   12.3290   -2.8440 C   0  0  0  0  0  0  0  0  0  0  0  0
   -0.2960   15.6960   -5.2470 C   0  0  0  0  0  0  0  0  0  0  0  0
   -1.7140   13.7100   -5.1310 C   0  0  0  0  0  0  0  0  0  0  0  0
    0.6350   11.1970   -2.8500 O   0  0  0  0  0  0  0  0  0  0  0  0
    1.1570   13.0280   -1.7020 O   0  0  0  0  0  0  0  0  0  0  0  0
   -1.5120   16.4450   -5.2810 C   0  0  0  0  0  0  0  0  0  0  0  0
   -2.8530   14.4640   -5.1520 C   0  0  0  0  0  0  0  0  0  0  0  0
    0.8920   16.4590   -5.3010 C   0  0  0  0  0  0  0  0  0  0  0  0
   -2.7520   15.8220   -5.2290 C   0  0  0  0  0  0  0  0  0  0  0  0
   -1.5120   17.8270   -5.3800 C   0  0  0  0  0  0  0  0  0  0  0  0
    0.8670   17.8550   -5.4000 C   0  0  0  0  0  0  0  0  0  0  0  0
   -0.3380   18.5210   -5.4450 C   0  0  0  0  0  0  0  0  0  0  0  0
  1  2  1  0
  2  3  1  0
  2  4  2  0
  4  5  1  0
  3  6  2  0
  5  6  1  0
  6  7  1  0
  5  8  1  0
  8  9  1  1
  8 10  1  0
  9 11  1  0
 10 12  1  0
 10 13  2  0
 11 14  2  0
 11 15  1  0
 12 16  2  0
 13 17  1  0
 12 18  1  0
 16 19  1  0
 17 19  2  0
 16 20  1  0
 18 21  2  0
 20 22  2  0
 21 22  1  0
M  END
