diamond-x0722_0_A-mac-x0587
     RDKit          3D

 21 21  0  0  0  0  0  0  0  0999 V2000
   -4.7120   15.0880    1.7130 C   0  0  0  0  0  0  0  0  0  0  0  0
   -3.5910   15.6100    0.8370 C   0  0  1  0  0  0  0  0  0  0  0  0
   -2.3190   15.0010    1.2380 N   0  0  0  0  0  0  0  0  0  0  0  0
   -3.6790   15.3520   -0.6960 C   0  0  2  0  0  0  0  0  0  0  0  0
   -5.0210   14.9760   -1.3450 C   0  0  0  0  0  0  0  0  0  0  0  0
   -2.3940   14.5510   -1.0980 C   0  0  1  0  0  0  0  0  0  0  0  0
   -1.4790   14.9750    0.0380 N   0  0  0  0  0  0  0  0  0  0  0  0
   -0.3260   14.1530    0.4120 C   0  0  0  0  0  0  0  0  0  0  0  0
   -2.6550   13.0600   -1.1140 C   0  0  0  0  0  0  0  0  0  0  0  0
   -6.1460   14.5280   -0.4590 C   0  0  0  0  0  0  0  0  0  0  0  0
   -1.9120   14.9100   -2.6190 C   0  0  0  0  0  0  0  0  0  0  0  0
   -7.1970   15.1500   -0.3600 O   0  0  0  0  0  0  0  0  0  0  0  0
   -5.9430   13.3640    0.2160 N   0  0  0  0  0  0  0  0  0  0  0  0
   -0.4710   14.6560   -3.1420 C   0  0  2  0  0  0  0  0  0  0  0  0
   -2.7250   15.3800   -3.4380 O   0  0  0  0  0  0  0  0  0  0  0  0
    0.1650   15.9280   -3.7100 C   0  0  0  0  0  0  0  0  0  0  0  0
   -0.4890   13.4790   -4.5710 S   0  0  0  0  0  0  0  0  0  0  0  0
   -0.7160   11.8670   -3.7510 C   0  0  0  0  0  0  0  0  0  0  0  0
    0.4520   11.4740   -2.8600 C   0  0  0  0  0  0  0  0  0  0  0  0
    0.5970   10.3250   -2.4600 O   0  0  0  0  0  0  0  0  0  0  0  0
    1.3080   12.4730   -2.5310 O   0  0  0  0  0  0  0  0  0  0  0  0
  2  1  1  1
  2  3  1  0
  2  4  1  0
  4  5  1  1
  4  6  1  0
  3  7  1  0
  6  7  1  0
  7  8  1  0
  6  9  1  6
  5 10  1  0
  6 11  1  0
 10 12  2  0
 10 13  1  0
 11 14  1  0
 11 15  2  0
 14 16  1  6
 14 17  1  0
 17 18  1  0
 18 19  1  0
 19 20  2  0
 19 21  1  0
M  END
