diamond-x0895_0_A-mac-x0178
     RDKit          3D

 23 24  0  0  0  0  0  0  0  0999 V2000
   -1.5420   14.5630    1.7350 O   0  0  0  0  0  0  0  0  0  0  0  0
   -2.5640   14.7500    1.0760 C   0  0  0  0  0  0  0  0  0  0  0  0
   -3.9760   15.0070    1.5810 C   0  0  0  0  0  0  0  0  0  0  0  0
   -2.6950   14.7660   -0.3050 N   0  0  0  0  0  0  0  0  0  0  0  0
   -4.4860   15.7310    0.4580 N   0  0  0  0  0  0  0  0  0  0  0  0
   -3.9670   15.1450   -0.6290 C   0  0  0  0  0  0  0  0  0  0  0  0
   -4.6170   15.0000   -1.7280 N   0  0  0  0  0  0  0  0  0  0  0  0
   -4.0520   14.3770   -2.9200 C   0  0  0  0  0  0  0  0  0  0  0  0
   -3.0730   15.3640   -3.5110 C   0  0  0  0  0  0  0  0  0  0  0  0
   -3.2850   15.7060   -4.9910 C   0  0  0  0  0  0  0  0  0  0  0  0
   -2.8010   17.0990   -5.1910 N   0  0  0  0  0  0  0  0  0  0  0  0
   -1.4390   17.2960   -5.7060 S   0  0  2  0  0  0  0  0  0  0  0  0
   -1.0200   18.7240   -4.9980 N   0  0  0  0  0  0  0  0  0  0  0  0
   -1.0990   17.5750   -7.0590 O   0  0  0  0  0  0  0  0  0  0  0  0
   -0.6820   15.9330   -4.8880 C   0  0  0  0  0  0  0  0  0  0  0  0
    0.3900   16.1480   -4.0260 C   0  0  0  0  0  0  0  0  0  0  0  0
   -1.1990   14.6470   -5.0960 C   0  0  0  0  0  0  0  0  0  0  0  0
    0.9380   15.0590   -3.3460 C   0  0  0  0  0  0  0  0  0  0  0  0
   -0.6580   13.5650   -4.4220 C   0  0  0  0  0  0  0  0  0  0  0  0
    0.4040   13.7740   -3.5430 C   0  0  0  0  0  0  0  0  0  0  0  0
    0.9560   12.6190   -2.8140 C   0  0  0  0  0  0  0  0  0  0  0  0
    1.9030   12.7460   -2.0750 O   0  0  0  0  0  0  0  0  0  0  0  0
    0.3100   11.4520   -3.0290 O   0  0  0  0  0  0  0  0  0  0  0  0
  1  2  2  0
  2  3  1  0
  2  4  1  0
  3  5  1  0
  4  6  1  0
  5  6  1  0
  6  7  2  3
  7  8  1  0
  8  9  1  0
  9 10  1  0
 10 11  1  0
 11 12  2  0
 12 13  1  1
 12 14  2  0
 12 15  1  0
 15 16  2  0
 15 17  1  0
 16 18  1  0
 17 19  2  0
 18 20  2  0
 19 20  1  0
 20 21  1  0
 21 22  2  0
 21 23  1  0
M  END
