diamond-x0852_0_B-mac-x0271
     RDKit          3D

 23 25  0  0  0  0  0  0  0  0999 V2000
   -9.6000   17.9060    7.2280 N   0  0  0  0  0  0  0  0  0  0  0  0
   -9.4450   17.3570    6.2140 C   0  0  0  0  0  0  0  0  0  0  0  0
   -9.3540   16.6130    5.0020 C   0  0  0  0  0  0  0  0  0  0  0  0
   -8.4810   15.5190    4.8700 C   0  0  0  0  0  0  0  0  0  0  0  0
  -10.1820   16.9940    3.9210 C   0  0  0  0  0  0  0  0  0  0  0  0
   -7.6200   15.0460    5.8250 O   0  0  0  0  0  0  0  0  0  0  0  0
   -8.4560   14.8210    3.6910 C   0  0  0  0  0  0  0  0  0  0  0  0
  -10.1570   16.2860    2.7160 C   0  0  0  0  0  0  0  0  0  0  0  0
  -10.8900   16.4930    1.5430 O   0  0  0  0  0  0  0  0  0  0  0  0
   -9.2810   15.1910    2.6320 C   0  0  0  0  0  0  0  0  0  0  0  0
  -10.2160   15.8980    0.4370 C   0  0  0  0  0  0  0  0  0  0  0  0
   -9.1550   15.2340    1.1030 N   0  0  0  0  0  0  0  0  0  0  0  0
   -8.0250   14.8230    0.7530 C   0  0  0  0  0  0  0  0  0  0  0  0
   -7.1150   14.2480    1.7450 C   0  0  0  0  0  0  0  0  0  0  0  0
   -7.5440   14.9230   -0.5450 O   0  0  0  0  0  0  0  0  0  0  0  0
   -6.1400   14.9600   -0.7320 C   0  0  0  0  0  0  0  0  0  0  0  0
   -5.8290   14.1690    1.5380 C   0  0  0  0  0  0  0  0  0  0  0  0
   -5.6310   15.3450   -1.9590 C   0  0  0  0  0  0  0  0  0  0  0  0
   -5.2830   14.6060    0.3040 C   0  0  0  0  0  0  0  0  0  0  0  0
   -4.2440   15.3710   -2.1160 C   0  0  0  0  0  0  0  0  0  0  0  0
   -3.9100   14.6520    0.1410 C   0  0  0  0  0  0  0  0  0  0  0  0
   -3.7390   15.7340   -3.3250 O   0  0  0  0  0  0  0  0  0  0  0  0
   -3.3840   15.0370   -1.0790 C   0  0  0  0  0  0  0  0  0  0  0  0
  1  2  3  0
  2  3  1  0
  3  4  2  0
  3  5  1  0
  4  6  1  0
  4  7  1  0
  5  8  2  0
  8  9  1  0
  7 10  2  0
  8 10  1  0
  9 11  1  0
 11 12  1  0
 12 13  2  3
 13 14  1  0
 13 15  1  0
 15 16  1  0
 14 17  2  0
 16 18  1  0
 16 19  2  0
 17 19  1  0
 18 20  2  0
 19 21  1  0
 20 22  1  0
 20 23  1  0
 21 23  2  0
M  END
