diamond-x0852_0_B-diamond-x0711_0_A
     RDKit          3D

 26 27  0  0  0  0  0  0  0  0999 V2000
   -9.7340   17.8600    7.1360 N   0  0  0  0  0  0  0  0  0  0  0  0
   -9.4790   17.3220    6.1350 C   0  0  0  0  0  0  0  0  0  0  0  0
   -9.1930   16.5770    4.9500 C   0  0  0  0  0  0  0  0  0  0  0  0
   -8.2800   15.5140    4.9820 C   0  0  0  0  0  0  0  0  0  0  0  0
   -9.8330   16.9040    3.7380 C   0  0  0  0  0  0  0  0  0  0  0  0
   -7.5880   15.1030    6.0910 O   0  0  0  0  0  0  0  0  0  0  0  0
   -8.0240   14.7920    3.8300 C   0  0  0  0  0  0  0  0  0  0  0  0
   -9.5640   16.1690    2.5670 C   0  0  0  0  0  0  0  0  0  0  0  0
  -10.2120   16.5420    1.4170 O   0  0  0  0  0  0  0  0  0  0  0  0
   -8.6610   15.1180    2.6430 C   0  0  0  0  0  0  0  0  0  0  0  0
   -9.6050   16.1350    0.1700 C   0  0  0  0  0  0  0  0  0  0  0  0
   -8.9330   14.7420    0.2420 C   0  0  0  0  0  0  0  0  0  0  0  0
   -7.5990   14.7730   -0.3800 N   0  0  0  0  0  0  0  0  0  0  0  0
   -6.4740   14.6920    0.2740 C   0  0  0  0  0  0  0  0  0  0  0  0
   -6.5160   14.5670    1.6460 N   0  0  0  0  0  0  0  0  0  0  0  0
   -5.1560   14.7560   -0.4030 C   0  0  0  0  0  0  0  0  0  0  0  0
   -5.1630   15.1010   -1.7540 C   0  0  0  0  0  0  0  0  0  0  0  0
   -3.9550   14.4900    0.2630 C   0  0  0  0  0  0  0  0  0  0  0  0
   -3.9640   15.1900   -2.4540 C   0  0  0  0  0  0  0  0  0  0  0  0
   -2.7480   14.5810   -0.4440 C   0  0  0  0  0  0  0  0  0  0  0  0
   -2.7570   14.9350   -1.8010 C   0  0  0  0  0  0  0  0  0  0  0  0
   -1.5410   15.0670   -2.5470 N   0  0  0  0  0  0  0  0  0  0  0  0
   -0.5680   13.7910   -3.0740 S   0  0  0  0  0  0  0  0  0  0  0  0
   -1.7410   12.7540   -3.9170 C   0  0  0  0  0  0  0  0  0  0  0  0
    0.3740   14.3030   -4.0420 O   0  0  0  0  0  0  0  0  0  0  0  0
   -0.1200   13.1160   -1.8750 O   0  0  0  0  0  0  0  0  0  0  0  0
  1  2  3  0
  2  3  1  0
  3  4  2  0
  3  5  1  0
  4  6  1  0
  4  7  1  0
  5  8  2  0
  8  9  1  0
  7 10  2  0
  8 10  1  0
  9 11  1  0
 11 12  1  0
 12 13  1  0
 13 14  2  3
 14 15  1  0
 14 16  1  0
 16 17  2  0
 16 18  1  0
 17 19  1  0
 18 20  2  0
 19 21  2  0
 20 21  1  0
 21 22  1  0
 23 22  1  0
 23 24  1  0
 23 25  2  0
 23 26  2  0
M  END
