diamond-x0864_0_A-mac-x0404
     RDKit          3D

 23 25  0  0  0  0  0  0  0  0999 V2000
    1.4470   12.1340   -6.5340 O   0  0  0  0  0  0  0  0  0  0  0  0
    0.4720   11.4640   -6.2120 C   0  0  0  0  0  0  0  0  0  0  0  0
   -0.2340   11.5980   -5.0130 N   0  0  0  0  0  0  0  0  0  0  0  0
   -0.0110   10.3980   -7.1330 C   0  0  0  0  0  0  0  0  0  0  0  0
    0.1390   12.6130   -4.0180 C   0  0  1  0  0  0  0  0  0  0  0  0
   -1.4140   10.9110   -4.7850 C   0  0  0  0  0  0  0  0  0  0  0  0
   -1.1280    9.7110   -6.8380 C   0  0  0  0  0  0  0  0  0  0  0  0
    1.0450   12.0470   -2.9320 C   0  0  0  0  0  0  0  0  0  0  0  0
   -1.7960    8.3510   -7.9260 Br  0  0  0  0  0  0  0  0  0  0  0  0
    0.6420   13.8340   -4.5420 O   0  0  0  0  0  0  0  0  0  0  0  0
   -1.8670   10.0020   -5.6430 C   0  0  0  0  0  0  0  0  0  0  0  0
    0.6700   10.7730   -2.6290 O   0  0  0  0  0  0  0  0  0  0  0  0
    1.9570   12.6310   -2.3790 O   0  0  0  0  0  0  0  0  0  0  0  0
   -0.4600   14.5560   -4.8600 C   0  0  0  0  0  0  0  0  0  0  0  0
   -0.3680   15.9420   -5.1120 C   0  0  0  0  0  0  0  0  0  0  0  0
   -1.6950   13.9100   -4.9350 C   0  0  0  0  0  0  0  0  0  0  0  0
   -1.5650   16.6270   -5.4420 C   0  0  0  0  0  0  0  0  0  0  0  0
   -2.8430   14.5960   -5.2520 C   0  0  0  0  0  0  0  0  0  0  0  0
    0.8280   16.6830   -5.0630 C   0  0  0  0  0  0  0  0  0  0  0  0
   -2.7830   15.9460   -5.5050 C   0  0  0  0  0  0  0  0  0  0  0  0
   -1.5440   17.9850   -5.7160 C   0  0  0  0  0  0  0  0  0  0  0  0
    0.8300   18.0490   -5.3420 C   0  0  0  0  0  0  0  0  0  0  0  0
   -0.3590   18.6870   -5.6710 C   0  0  0  0  0  0  0  0  0  0  0  0
  1  2  2  0
  2  3  1  0
  2  4  1  0
  3  5  1  0
  3  6  1  0
  4  7  2  0
  5  8  1  0
  7  9  1  0
  5 10  1  6
  6 11  2  0
  7 11  1  0
  8 12  1  0
  8 13  2  0
 10 14  1  0
 14 15  1  0
 14 16  2  0
 15 17  2  0
 16 18  1  0
 15 19  1  0
 17 20  1  0
 18 20  2  0
 17 21  1  0
 19 22  2  0
 21 23  2  0
 22 23  1  0
M  END
