diamond-x0849_0_A-mac-x0411
     RDKit          3D

 26 28  0  0  0  0  0  0  0  0999 V2000
   -3.8500   15.1690   -2.8120 Br  0  0  0  0  0  0  0  0  0  0  0  0
   -3.7150   15.1000   -0.9210 C   0  0  0  0  0  0  0  0  0  0  0  0
   -2.4860   14.8800   -0.3000 C   0  0  0  0  0  0  0  0  0  0  0  0
   -4.8610   15.2700   -0.1670 C   0  0  0  0  0  0  0  0  0  0  0  0
   -2.4610   14.8320    1.0920 C   0  0  0  0  0  0  0  0  0  0  0  0
   -4.7160   15.2020    1.1990 C   0  0  0  0  0  0  0  0  0  0  0  0
   -1.2850   14.7130   -1.0020 C   0  0  0  0  0  0  0  0  0  0  0  0
   -3.5490   14.9870    1.8120 N   0  0  0  0  0  0  0  0  0  0  0  0
   -1.3450   14.6300    1.7500 N   0  0  0  0  0  0  0  0  0  0  0  0
   -0.1080   14.5110   -0.3300 C   0  0  0  0  0  0  0  0  0  0  0  0
    1.1620   14.3450   -1.1220 C   0  0  0  0  0  0  0  0  0  0  0  0
   -0.2110   14.4790    1.0630 C   0  0  0  0  0  0  0  0  0  0  0  0
    0.9210   14.0000   -2.5950 C   0  0  0  0  0  0  0  0  0  0  0  0
    1.5680   12.7450   -2.8870 O   0  0  0  0  0  0  0  0  0  0  0  0
    0.8950   11.9240   -3.7400 C   0  0  0  0  0  0  0  0  0  0  0  0
    0.3460   10.8830   -3.3960 O   0  0  0  0  0  0  0  0  0  0  0  0
    0.9300   12.4640   -5.1710 C   0  0  0  0  0  0  0  0  0  0  0  0
    0.6910   11.4580   -6.1730 O   0  0  0  0  0  0  0  0  0  0  0  0
   -0.5020   10.7580   -6.1180 C   0  0  0  0  0  0  0  0  0  0  0  0
   -1.6410   11.1690   -5.3910 C   0  0  0  0  0  0  0  0  0  0  0  0
   -0.5820    9.5480   -6.8450 C   0  0  0  0  0  0  0  0  0  0  0  0
    0.7270    8.9340   -7.7950 Cl  0  0  0  0  0  0  0  0  0  0  0  0
   -1.7200   12.6210   -4.4610 Cl  0  0  0  0  0  0  0  0  0  0  0  0
   -2.8020   10.3880   -5.3940 C   0  0  0  0  0  0  0  0  0  0  0  0
   -1.7490    8.7810   -6.8350 C   0  0  0  0  0  0  0  0  0  0  0  0
   -2.8580    9.1980   -6.1110 C   0  0  0  0  0  0  0  0  0  0  0  0
  1  2  1  0
  2  3  2  0
  2  4  1  0
  3  5  1  0
  4  6  2  0
  3  7  1  0
  5  8  2  0
  6  8  1  0
  5  9  1  0
  7 10  2  0
 10 11  1  0
  9 12  2  0
 10 12  1  0
 11 13  1  0
 13 14  1  0
 14 15  1  0
 15 16  2  0
 15 17  1  0
 17 18  1  0
 18 19  1  0
 19 20  2  0
 19 21  1  0
 21 22  1  0
 20 23  1  0
 20 24  1  0
 21 25  2  0
 24 26  2  0
 25 26  1  0
M  END
