diamond-x0742_0_A-mac-x0345
     RDKit          3D

 19 21  0  0  0  0  0  0  0  0999 V2000
   -5.3520   12.0020   -0.9400 C   0  0  0  0  0  0  0  0  0  0  0  0
   -6.6460   11.6150   -0.2650 C   0  0  0  0  0  0  0  0  0  0  0  0
   -4.7980   11.1820   -1.6690 O   0  0  0  0  0  0  0  0  0  0  0  0
   -4.7350   13.3950   -0.7550 C   0  0  2  0  0  0  0  0  0  0  0  0
   -4.8380   13.8910    0.7510 C   0  0  2  0  0  0  0  0  0  0  0  0
   -5.4900   14.5010   -1.5870 C   0  0  2  0  0  0  0  0  0  0  0  0
   -3.2740   13.2930   -1.2940 C   0  0  0  0  0  0  0  0  0  0  0  0
   -5.0730   14.8380   -2.9510 N   0  0  0  0  0  0  0  0  0  0  0  0
   -5.8080   12.6860    1.9910 Br  0  0  0  0  0  0  0  0  0  0  0  0
   -5.7970   15.0570    0.6590 C   0  0  1  0  0  0  0  0  0  0  0  0
   -2.1450   13.8060   -0.4470 C   0  0  0  0  0  0  0  0  0  0  0  0
   -3.5870   14.1770    1.5740 C   0  0  0  0  0  0  0  0  0  0  0  0
   -5.4590   15.7150   -0.6720 C   0  0  0  0  0  0  0  0  0  0  0  0
   -7.2950   14.7430    0.8300 C   0  0  0  0  0  0  0  0  0  0  0  0
   -0.8730   13.8830   -1.0120 C   0  0  0  0  0  0  0  0  0  0  0  0
   -2.2910   14.2080    0.8670 C   0  0  0  0  0  0  0  0  0  0  0  0
   -1.2710   14.6580    1.6190 N   0  0  0  0  0  0  0  0  0  0  0  0
    0.1900   14.3450   -0.2590 C   0  0  0  0  0  0  0  0  0  0  0  0
   -0.0680   14.7160    1.0420 C   0  0  0  0  0  0  0  0  0  0  0  0
  1  2  1  0
  1  3  2  0
  4  1  1  1
  4  5  1  0
  4  6  1  0
  4  7  1  0
  6  8  1  6
  5  9  1  1
  5 10  1  0
  7 11  1  0
  5 12  1  0
  6 13  1  0
 10 13  1  0
 10 14  1  6
 11 15  2  0
 11 16  1  0
 12 16  1  0
 16 17  2  0
 15 18  1  0
 17 19  1  0
 18 19  2  0
M  END
