diamond-x0766_0_A-mac-x0437
     RDKit          3D

 24 27  0  0  0  0  0  0  0  0999 V2000
    0.8470   12.6660   -2.9880 C   0  0  0  0  0  0  0  0  0  0  0  0
    1.7470   12.1720   -2.0750 O   0  0  0  0  0  0  0  0  0  0  0  0
   -0.4090   12.1350   -2.5970 O   0  0  0  0  0  0  0  0  0  0  0  0
    1.1360   12.3080   -4.4400 C   0  0  0  0  0  0  0  0  0  0  0  0
    0.9800   14.1720   -2.8770 C   0  0  1  0  0  0  0  0  0  0  0  0
    0.1860   12.8840   -5.4730 C   0  0  0  0  0  0  0  0  0  0  0  0
    1.9570   14.6980   -3.9510 C   0  0  0  0  0  0  0  0  0  0  0  0
   -0.2040   15.1140   -3.0510 C   0  0  1  0  0  0  0  0  0  0  0  0
    1.1380   15.3440   -5.0480 C   0  0  0  0  0  0  0  0  0  0  0  0
   -0.2840   15.4820   -4.5210 C   0  0  0  0  0  0  0  0  0  0  0  0
   -1.4580   14.8680   -2.2710 C   0  0  0  0  0  0  0  0  0  0  0  0
   -0.6810   11.8110   -5.7760 N   0  0  0  0  0  0  0  0  0  0  0  0
   -2.7670   14.8400   -2.7230 C   0  0  0  0  0  0  0  0  0  0  0  0
   -1.4080   14.6360   -0.8550 C   0  0  0  0  0  0  0  0  0  0  0  0
   -1.8920   11.5710   -5.1980 C   0  0  0  0  0  0  0  0  0  0  0  0
   -0.4160   10.8470   -6.6800 C   0  0  0  0  0  0  0  0  0  0  0  0
   -2.6490   14.4540   -0.2970 C   0  0  0  0  0  0  0  0  0  0  0  0
   -3.8900   14.5550   -1.4640 S   0  0  0  0  0  0  0  0  0  0  0  0
   -2.4300   10.4820   -5.6880 N   0  0  0  0  0  0  0  0  0  0  0  0
   -1.5200   10.0180   -6.6100 C   0  0  0  0  0  0  0  0  0  0  0  0
    0.6660   10.6280   -7.5320 C   0  0  0  0  0  0  0  0  0  0  0  0
   -1.5680    8.8870   -7.4290 C   0  0  0  0  0  0  0  0  0  0  0  0
    0.6030    9.4980   -8.3420 C   0  0  0  0  0  0  0  0  0  0  0  0
   -0.4930    8.6380   -8.2940 C   0  0  0  0  0  0  0  0  0  0  0  0
  1  2  1  0
  1  3  1  0
  1  4  1  0
  5  1  1  6
  4  6  1  0
  5  7  1  0
  5  8  1  0
  7  9  1  0
  8 10  1  0
  9 10  1  0
  8 11  1  6
  6 12  1  0
 11 13  2  0
 11 14  1  0
 12 15  1  0
 12 16  1  0
 14 17  2  0
 13 18  1  0
 17 18  1  0
 15 19  2  0
 16 20  2  0
 19 20  1  0
 16 21  1  0
 20 22  1  0
 21 23  2  0
 22 24  2  0
 23 24  1  0
M  END
