diamond-x0910_1_A-mac-x0115
     RDKit          3D

 22 24  0  0  0  0  0  0  0  0999 V2000
   -6.9320   13.8490    0.4870 N   0  0  0  0  0  0  0  0  0  0  0  0
   -5.7920   14.6990    0.6220 C   0  0  2  0  0  0  0  0  0  0  0  0
   -5.7570   15.5950   -0.4910 N   0  0  0  0  0  0  0  0  0  0  0  0
   -4.6080   13.9030    0.3920 N   0  0  0  0  0  0  0  0  0  0  0  0
   -4.3630   16.0230   -0.3820 N   0  0  0  0  0  0  0  0  0  0  0  0
   -3.7340   14.7330   -0.4810 C   0  0  1  0  0  0  0  0  0  0  0  0
   -2.1480   14.5170   -0.5800 C   0  0  2  0  0  0  0  0  0  0  0  0
   -3.9400   14.3940   -1.9380 C   0  0  0  0  0  0  0  0  0  0  0  0
   -1.0800   14.7410    0.4620 C   0  0  0  0  0  0  0  0  0  0  0  0
   -1.7200   15.1880   -1.8710 C   0  0  2  0  0  0  0  0  0  0  0  0
   -2.8420   14.6500   -2.6970 C   0  0  0  0  0  0  0  0  0  0  0  0
   -1.2990   14.9300    1.6650 O   0  0  0  0  0  0  0  0  0  0  0  0
   -0.3580   14.8280   -2.3350 N   0  0  0  0  0  0  0  0  0  0  0  0
    0.2280   14.6880   -0.0490 N   0  0  0  0  0  0  0  0  0  0  0  0
   -0.0960   14.5230   -3.7740 C   0  0  0  0  0  0  0  0  0  0  0  0
    0.6230   14.5850   -1.3780 C   0  0  0  0  0  0  0  0  0  0  0  0
    0.4300   15.7160   -4.6010 C   0  0  0  0  0  0  0  0  0  0  0  0
    2.2280   14.1750   -1.6980 S   0  0  0  0  0  0  0  0  0  0  0  0
   -0.6860   16.3460   -5.2420 O   0  0  0  0  0  0  0  0  0  0  0  0
   -0.4210   17.6360   -5.8100 C   0  0  0  0  0  0  0  0  0  0  0  0
   -1.4180   18.5870   -5.1820 C   0  0  0  0  0  0  0  0  0  0  0  0
    1.0070   18.0850   -5.5600 C   0  0  0  0  0  0  0  0  0  0  0  0
  2  1  1  6
  2  3  1  0
  2  4  1  0
  3  5  1  0
  4  6  1  0
  5  6  1  0
  6  7  1  0
  6  8  1  6
  7  9  1  1
  7 10  1  0
  8 11  2  0
 10 11  1  6
  9 12  2  0
 10 13  1  0
  9 14  1  0
 13 15  1  0
 13 16  1  0
 14 16  1  0
 15 17  1  0
 16 18  2  0
 17 19  1  0
 19 20  1  0
 20 21  1  0
 20 22  1  0
M  END
