diamond-x0662_0_A-mac-x0212
     RDKit          3D

 34 36  0  0  0  0  0  0  0  0999 V2000
    5.2820    9.5960  -15.0760 C   0  0  0  0  0  0  0  0  0  0  0  0
    4.2520   10.0470  -14.1720 N   0  0  0  0  0  0  0  0  0  0  0  0
    3.6040   11.2520  -14.2030 C   0  0  0  0  0  0  0  0  0  0  0  0
    3.8450    9.2410  -13.1760 N   0  0  0  0  0  0  0  0  0  0  0  0
    2.7150   11.2290  -13.1520 C   0  0  0  0  0  0  0  0  0  0  0  0
    2.8960    9.9580  -12.5320 C   0  0  0  0  0  0  0  0  0  0  0  0
    2.2020    9.4040  -11.3430 C   0  0  0  0  0  0  0  0  0  0  0  0
    2.4250    8.2520  -10.9880 O   0  0  0  0  0  0  0  0  0  0  0  0
    1.3380   10.2910  -10.7220 N   0  0  0  0  0  0  0  0  0  0  0  0
    0.5410   10.0530   -9.5800 C   0  0  0  0  0  0  0  0  0  0  0  0
   -0.4990    9.1290   -9.5420 C   0  0  0  0  0  0  0  0  0  0  0  0
    0.8200   10.7890   -8.4250 C   0  0  0  0  0  0  0  0  0  0  0  0
   -1.2340    8.9540   -8.3650 C   0  0  0  0  0  0  0  0  0  0  0  0
    0.1100   10.6390   -7.2320 C   0  0  0  0  0  0  0  0  0  0  0  0
    0.5560   11.5070   -6.0550 C   0  0  0  0  0  0  0  0  0  0  0  0
   -0.9340    9.7010   -7.2180 C   0  0  0  0  0  0  0  0  0  0  0  0
   -0.1150   11.4950   -4.9660 N   0  0  0  0  0  0  0  0  0  0  0  0
    1.6030   12.1190   -6.3230 O   0  0  0  0  0  0  0  0  0  0  0  0
    0.5510   12.3220   -3.9470 C   0  0  0  0  0  0  0  0  0  0  0  0
    0.1590   13.7980   -4.0470 C   0  0  0  0  0  0  0  0  0  0  0  0
   -0.6490   14.0540   -2.8680 N   0  0  0  0  0  0  0  0  0  0  0  0
   -1.8260   14.5120   -2.9440 C   0  0  0  0  0  0  0  0  0  0  0  0
   -2.3080   14.8020   -4.1680 O   0  0  0  0  0  0  0  0  0  0  0  0
   -2.8120   14.7430   -1.9040 C   0  0  0  0  0  0  0  0  0  0  0  0
   -2.4290   14.4830   -0.5860 C   0  0  0  0  0  0  0  0  0  0  0  0
   -4.0960   15.1810   -2.1980 C   0  0  0  0  0  0  0  0  0  0  0  0
   -3.3460   14.6370    0.4380 C   0  0  0  0  0  0  0  0  0  0  0  0
   -5.0210   15.3400   -1.1620 C   0  0  0  0  0  0  0  0  0  0  0  0
   -4.6370   15.0520    0.1550 C   0  0  0  0  0  0  0  0  0  0  0  0
   -5.5010   15.1360    1.2730 N   0  0  0  0  0  0  0  0  0  0  0  0
   -7.0250   14.4710    1.1310 S   0  0  0  0  0  0  0  0  0  0  0  0
   -6.6560   12.7340    1.2780 C   0  0  0  0  0  0  0  0  0  0  0  0
   -7.8830   14.8960    2.2120 O   0  0  0  0  0  0  0  0  0  0  0  0
   -7.4280   14.7240   -0.2420 O   0  0  0  0  0  0  0  0  0  0  0  0
  1  2  1  0
  2  3  1  0
  2  4  1  0
  3  5  2  0
  4  6  2  0
  5  6  1  0
  6  7  1  0
  7  8  2  0
  7  9  1  0
  9 10  1  0
 10 11  2  0
 10 12  1  0
 11 13  1  0
 12 14  2  0
 14 15  1  0
 13 16  2  0
 14 16  1  0
 15 17  2  3
 15 18  1  0
 17 19  1  0
 19 20  1  0
 20 21  1  0
 21 22  2  3
 22 23  1  0
 22 24  1  0
 24 25  2  0
 24 26  1  0
 25 27  1  0
 26 28  2  0
 27 29  2  0
 28 29  1  0
 29 30  1  0
 31 30  1  0
 31 32  1  0
 31 33  2  0
 31 34  2  0
M  CHG  1  18  -1
M  END
