diamond-x0290_0_A-mac-x0131
     RDKit          3D

 22 25  0  0  0  0  0  0  0  0999 V2000
   -7.6090   14.0010    0.5450 N   0  0  0  0  0  0  0  0  0  0  0  0
   -8.6880   14.9780    0.6570 C   0  0  0  0  0  0  0  0  0  0  0  0
   -6.4940   14.3420    1.4500 C   0  0  0  0  0  0  0  0  0  0  0  0
   -5.1410   14.4980    0.7160 C   0  0  0  0  0  0  0  0  0  0  0  0
   -5.1110   14.6010   -0.6140 N   0  0  0  0  0  0  0  0  0  0  0  0
   -4.0750   14.4940    1.6060 N   0  0  0  0  0  0  0  0  0  0  0  0
   -2.7860   14.5400    1.1210 C   0  0  0  0  0  0  0  0  0  0  0  0
   -3.7790   14.6740   -1.1350 C   0  0  0  0  0  0  0  0  0  0  0  0
   -1.6580   14.5040    1.8440 N   0  0  0  0  0  0  0  0  0  0  0  0
   -2.7060   14.6310   -0.2530 C   0  0  0  0  0  0  0  0  0  0  0  0
   -3.2580   14.7690   -2.4180 C   0  0  0  0  0  0  0  0  0  0  0  0
   -3.9310   14.8480   -3.7360 C   0  0  0  0  0  0  0  0  0  0  0  0
   -0.4780   14.5590    1.1710 C   0  0  0  0  0  0  0  0  0  0  0  0
   -1.5090   14.6850   -0.9360 C   0  0  0  0  0  0  0  0  0  0  0  0
   -1.8570   14.7620   -2.2740 N   0  0  0  0  0  0  0  0  0  0  0  0
   -0.3140   14.6500   -0.2150 C   0  0  0  0  0  0  0  0  0  0  0  0
   -0.8740   14.8120   -3.3520 C   0  0  0  0  0  0  0  0  0  0  0  0
   -0.5430   13.4020   -3.6720 C   0  0  0  0  0  0  0  0  0  0  0  0
    0.3770   12.4760   -3.2130 C   0  0  0  0  0  0  0  0  0  0  0  0
   -1.3160   12.8270   -4.6410 O   0  0  0  0  0  0  0  0  0  0  0  0
   -0.9000   11.5480   -4.7920 C   0  0  0  0  0  0  0  0  0  0  0  0
    0.1270   11.2860   -3.9330 C   0  0  0  0  0  0  0  0  0  0  0  0
  1  2  1  0
  1  3  1  0
  3  4  1  0
  4  5  2  0
  4  6  1  0
  6  7  1  0
  5  8  1  0
  7  9  2  0
  7 10  1  0
  8 10  1  0
  8 11  2  0
 11 12  1  0
  9 13  1  0
 10 14  2  0
 11 15  1  0
 14 15  1  0
 13 16  2  0
 14 16  1  0
 15 17  1  0
 17 18  1  0
 18 19  2  0
 18 20  1  0
 20 21  1  0
 19 22  1  0
 21 22  2  0
M  END
