diamond-x0689_0_A-diamond-x0626_0_A
     RDKit          3D

 12 12  0  0  0  0  0  0  0  0999 V2000
   -3.7350   14.3940    1.3240 N   0  0  0  0  0  0  0  0  0  0  0  0
   -4.6940   15.3900    0.9340 C   0  0  0  0  0  0  0  0  0  0  0  0
   -6.0350   14.8030    0.4790 C   0  0  0  0  0  0  0  0  0  0  0  0
   -2.4320   14.5290    0.9070 C   0  0  0  0  0  0  0  0  0  0  0  0
   -2.2670   14.6850   -0.4130 N   0  0  0  0  0  0  0  0  0  0  0  0
   -1.4400   14.4930    1.7840 N   0  0  0  0  0  0  0  0  0  0  0  0
   -6.3000   14.6740   -0.7180 O   0  0  0  0  0  0  0  0  0  0  0  0
   -7.0570   14.3880    1.5220 C   0  0  0  0  0  0  0  0  0  0  0  0
   -1.0010   14.8000   -0.8550 C   0  0  0  0  0  0  0  0  0  0  0  0
   -0.2050   14.6100    1.3010 C   0  0  0  0  0  0  0  0  0  0  0  0
   -8.4720   14.5450    0.9970 C   0  0  0  0  0  0  0  0  0  0  0  0
    0.0900   14.7670   -0.0310 C   0  0  0  0  0  0  0  0  0  0  0  0
  1  2  1  0
  2  3  1  0
  1  4  1  0
  4  5  2  0
  4  6  1  0
  3  7  2  0
  3  8  1  0
  5  9  1  0
  6 10  2  0
  8 11  1  0
  9 12  2  0
 10 12  1  0
M  END
