diamond-x0864_0_A-mac-x0301
     RDKit          3D

 25 27  0  0  0  0  0  0  0  0999 V2000
    1.5490   11.6960   -7.0150 O   0  0  0  0  0  0  0  0  0  0  0  0
    0.4980   11.2580   -6.5740 C   0  0  0  0  0  0  0  0  0  0  0  0
   -0.1220   11.7320   -5.4330 N   0  0  0  0  0  0  0  0  0  0  0  0
   -0.1600   10.1310   -7.2680 C   0  0  0  0  0  0  0  0  0  0  0  0
    0.7240   12.5400   -4.5620 C   0  0  0  0  0  0  0  0  0  0  0  0
   -1.2890   11.1690   -4.9420 C   0  0  0  0  0  0  0  0  0  0  0  0
   -1.2870    9.6100   -6.7760 C   0  0  0  0  0  0  0  0  0  0  0  0
    0.7350   12.1130   -3.0980 C   0  0  0  0  0  0  0  0  0  0  0  0
   -2.1510    8.1840   -7.6140 Br  0  0  0  0  0  0  0  0  0  0  0  0
   -1.8740   10.1420   -5.5690 C   0  0  0  0  0  0  0  0  0  0  0  0
    0.4520   10.8210   -2.8410 O   0  0  0  0  0  0  0  0  0  0  0  0
    0.9810   12.8260   -2.0730 N   0  0  0  0  0  0  0  0  0  0  0  0
    1.3040   14.2360   -2.3040 C   0  0  0  0  0  0  0  0  0  0  0  0
    0.3300   15.0030   -3.0310 O   0  0  0  0  0  0  0  0  0  0  0  0
   -0.9420   14.5340   -3.1480 C   0  0  0  0  0  0  0  0  0  0  0  0
   -1.4080   14.0040   -4.1450 O   0  0  0  0  0  0  0  0  0  0  0  0
   -1.7330   14.7700   -1.9120 C   0  0  0  0  0  0  0  0  0  0  0  0
   -1.2450   14.6190   -0.6190 C   0  0  0  0  0  0  0  0  0  0  0  0
   -3.0740   15.1860   -2.0540 C   0  0  0  0  0  0  0  0  0  0  0  0
   -2.0370   14.8770    0.4920 C   0  0  0  0  0  0  0  0  0  0  0  0
   -3.8730   15.4410   -0.9220 C   0  0  0  0  0  0  0  0  0  0  0  0
   -0.0010   14.2260   -0.2490 O   0  0  0  0  0  0  0  0  0  0  0  0
   -3.3520   15.2880    0.3700 C   0  0  0  0  0  0  0  0  0  0  0  0
   -1.3750   14.6870    1.6730 O   0  0  0  0  0  0  0  0  0  0  0  0
   -0.0610   14.3880    1.1810 C   0  0  0  0  0  0  0  0  0  0  0  0
  1  2  2  0
  2  3  1  0
  2  4  1  0
  3  5  1  0
  3  6  1  0
  4  7  2  0
  5  8  1  0
  7  9  1  0
  6 10  2  0
  7 10  1  0
  8 11  1  0
  8 12  2  3
 12 13  1  0
 13 14  1  0
 14 15  1  0
 15 16  2  0
 15 17  1  0
 17 18  1  0
 17 19  2  0
 18 20  2  0
 19 21  1  0
 18 22  1  0
 20 23  1  0
 21 23  2  0
 20 24  1  0
 22 25  1  0
 24 25  1  0
M  END
