
     RDKit          3D

  7  7  0  0  0  0  0  0  0  0999 V2000
   13.8380   23.1670   13.7750 N   0  0  0  0  0  0  0  0  0  0  0  0
   13.4490   21.8800   13.4220 C   0  0  0  0  0  0  0  0  0  0  0  0
   14.2310   21.0970   12.5670 C   0  0  0  0  0  0  0  0  0  0  0  0
   12.7640   19.2150   12.8490 N   0  0  0  0  0  0  0  0  0  0  0  0
   13.8610   19.7850   12.3190 C   0  0  0  0  0  0  0  0  0  0  0  0
   12.0080   19.9740   13.6630 C   0  0  0  0  0  0  0  0  0  0  0  0
   12.3090   21.2900   13.9740 C   0  0  0  0  0  0  0  0  0  0  0  0
  1  2  1  0
  2  3  2  0
  2  7  1  0
  3  5  1  0
  7  6  2  0
  5  4  2  0
  4  6  1  0
M  END
