diamond-x1015_0_A-diamond-x0685_1_A
     RDKit          3D

 20 21  0  0  0  0  0  0  0  0999 V2000
   -3.1600   14.2710   -4.0760 C   0  0  0  0  0  0  0  0  0  0  0  0
   -1.8130   13.7000   -4.4750 C   0  0  2  0  0  0  0  0  0  0  0  0
   -1.5960   12.2390   -4.1560 N   0  0  0  0  0  0  0  0  0  0  0  0
   -0.7630   14.3840   -3.5920 C   0  0  0  0  0  0  0  0  0  0  0  0
   -0.4680   15.5620   -3.4880 O   0  0  0  0  0  0  0  0  0  0  0  0
   -0.3960   12.2420   -3.5880 C   0  0  0  0  0  0  0  0  0  0  0  0
   -0.2020   13.3920   -2.9170 N   0  0  0  0  0  0  0  0  0  0  0  0
   -1.6670   11.3900   -5.2470 C   0  0  0  0  0  0  0  0  0  0  0  0
    0.5980   11.5400   -3.5050 N   0  0  0  0  0  0  0  0  0  0  0  0
   -0.9760   11.7300   -6.4300 C   0  0  0  0  0  0  0  0  0  0  0  0
   -2.3820   10.1980   -5.2130 C   0  0  0  0  0  0  0  0  0  0  0  0
    1.6410   12.3880   -2.8520 S   0  0  0  0  0  0  0  0  0  0  0  0
   -1.0050   10.8960   -7.5420 C   0  0  0  0  0  0  0  0  0  0  0  0
   -2.4160    9.3580   -6.3220 C   0  0  0  0  0  0  0  0  0  0  0  0
    1.9370   13.8270   -3.7810 C   0  0  0  0  0  0  0  0  0  0  0  0
    2.9660   11.5480   -3.0330 O   0  0  0  0  0  0  0  0  0  0  0  0
    1.1250   12.7310   -1.3770 O   0  0  0  0  0  0  0  0  0  0  0  0
   -1.7280    9.7090   -7.4810 C   0  0  0  0  0  0  0  0  0  0  0  0
   -1.7710    8.6650   -8.8430 Cl  0  0  0  0  0  0  0  0  0  0  0  0
    1.1940   13.7670   -5.1090 C   0  0  0  0  0  0  0  0  0  0  0  0
  2  1  1  1
  2  3  1  0
  2  4  1  0
  4  5  2  0
  3  6  1  0
  4  7  1  0
  6  7  1  0
  3  8  1  0
  6  9  2  3
  8 10  2  0
  8 11  1  0
 12  9  1  0
 10 13  1  0
 11 14  2  0
 12 15  1  0
 12 16  1  0
 12 17  1  0
 13 18  2  0
 14 18  1  0
 18 19  1  0
 15 20  1  0
M  END
