diamond-x0900_0_A-mac-x0204
     RDKit          3D

 19 20  0  0  0  0  0  0  0  0999 V2000
   -7.1620   15.1120   -0.4880 O   0  0  0  0  0  0  0  0  0  0  0  0
   -5.9930   14.9580   -0.1850 C   0  0  0  0  0  0  0  0  0  0  0  0
   -4.9420   14.9170   -1.0650 N   0  0  0  0  0  0  0  0  0  0  0  0
   -5.4110   14.7600    1.2010 C   0  0  0  0  0  0  0  0  0  0  0  0
   -3.9440   15.0970    0.9520 C   0  0  0  0  0  0  0  0  0  0  0  0
   -3.7900   14.4020   -0.3870 C   0  0  2  0  0  0  0  0  0  0  0  0
   -2.5250   14.6030   -1.1940 C   0  0  0  0  0  0  0  0  0  0  0  0
   -1.2260   14.3920   -0.4180 C   0  0  0  0  0  0  0  0  0  0  0  0
   -0.2790   13.4480   -1.1590 C   0  0  0  0  0  0  0  0  0  0  0  0
    0.2060   13.9470   -2.5440 C   0  0  0  0  0  0  0  0  0  0  0  0
    1.2010   13.0400   -2.9620 O   0  0  0  0  0  0  0  0  0  0  0  0
    0.8630   15.1920   -2.4230 O   0  0  0  0  0  0  0  0  0  0  0  0
   -0.8890   14.0100   -3.6070 C   0  0  0  0  0  0  0  0  0  0  0  0
   -1.3050   15.2030   -4.2390 C   0  0  0  0  0  0  0  0  0  0  0  0
   -1.5420   12.8420   -4.0140 C   0  0  0  0  0  0  0  0  0  0  0  0
   -2.3130   15.1660   -5.2020 C   0  0  0  0  0  0  0  0  0  0  0  0
   -2.5220   12.7800   -4.9460 N   0  0  0  0  0  0  0  0  0  0  0  0
   -2.7030   16.3310   -5.8000 O   0  0  0  0  0  0  0  0  0  0  0  0
   -2.8870   13.9470   -5.5200 C   0  0  0  0  0  0  0  0  0  0  0  0
  1  2  2  0
  2  3  1  0
  2  4  1  0
  4  5  1  0
  3  6  1  0
  5  6  1  0
  6  7  1  6
  7  8  1  0
  8  9  1  0
  9 10  1  0
 10 11  1  0
 10 12  1  0
 10 13  1  0
 13 14  2  0
 13 15  1  0
 14 16  1  0
 15 17  2  0
 16 18  1  0
 16 19  2  0
 17 19  1  0
M  END
