diamond-x0895_0_A-mac-x0402
     RDKit          3D

 13 14  0  0  0  0  0  0  0  0999 V2000
   -1.5760   14.7480    1.4160 O   0  0  0  0  0  0  0  0  0  0  0  0
   -2.6990   14.7120    0.9030 C   0  0  0  0  0  0  0  0  0  0  0  0
   -4.0230   14.3950    1.6310 C   0  0  1  0  0  0  0  0  0  0  0  0
   -3.1080   14.9590   -0.4440 N   0  0  0  0  0  0  0  0  0  0  0  0
   -4.6080   15.4430    2.4410 N   0  0  0  0  0  0  0  0  0  0  0  0
   -4.9520   14.2990    0.5630 N   0  0  0  0  0  0  0  0  0  0  0  0
   -4.4450   15.3090   -0.2610 C   0  0  1  0  0  0  0  0  0  0  0  0
   -2.8220   14.0930   -1.5960 C   0  0  2  0  0  0  0  0  0  0  0  0
   -4.4000   16.4630    0.4650 O   0  0  0  0  0  0  0  0  0  0  0  0
   -1.5000   14.7360   -2.6370 Cl  0  0  0  0  0  0  0  0  0  0  0  0
   -4.0270   13.8630   -2.5550 C   0  0  0  0  0  0  0  0  0  0  0  0
   -5.2580   15.6010   -1.4190 C   0  0  0  0  0  0  0  0  0  0  0  0
   -5.0840   14.9310   -2.5300 C   0  0  0  0  0  0  0  0  0  0  0  0
  1  2  2  0
  2  3  1  0
  2  4  1  0
  3  5  1  1
  3  6  1  0
  4  7  1  0
  6  7  1  0
  4  8  1  0
  7  9  1  1
  8 10  1  6
  8 11  1  0
  7 12  1  0
 11 13  1  0
 12 13  2  0
M  END
