diamond-x0681_0_A-mac-x0415
     RDKit          3D

 28 31  0  0  0  0  0  0  0  0999 V2000
   -3.5680   15.8690   -2.7610 N   0  0  0  0  0  0  0  0  0  0  0  0
   -3.8890   14.7000   -2.1960 C   0  0  0  0  0  0  0  0  0  0  0  0
   -3.8410   13.5670   -2.7760 N   0  0  0  0  0  0  0  0  0  0  0  0
   -4.4200   14.7860   -0.7640 C   0  0  1  0  0  0  0  0  0  0  0  0
   -3.4270   13.5380   -4.1780 C   0  0  0  0  0  0  0  0  0  0  0  0
   -5.1320   13.5110   -0.5160 C   0  0  0  0  0  0  0  0  0  0  0  0
   -3.5370   15.1970    0.4140 C   0  0  0  0  0  0  0  0  0  0  0  0
   -4.4200   14.3910   -5.0160 C   0  0  0  0  0  0  0  0  0  0  0  0
   -5.7340   13.3580    0.6730 N   0  0  0  0  0  0  0  0  0  0  0  0
   -4.2030   14.9000    1.7660 C   0  0  0  0  0  0  0  0  0  0  0  0
   -5.2970   12.4590   -1.2840 N   0  0  0  0  0  0  0  0  0  0  0  0
   -3.8160   15.5650   -5.5850 O   0  0  0  0  0  0  0  0  0  0  0  0
   -5.6510   14.4030    1.6380 C   0  0  0  0  0  0  0  0  0  0  0  0
   -6.3400   12.1460    0.7080 C   0  0  0  0  0  0  0  0  0  0  0  0
   -6.0560   11.6020   -0.5270 C   0  0  0  0  0  0  0  0  0  0  0  0
   -2.4810   15.7170   -5.3520 C   0  0  0  0  0  0  0  0  0  0  0  0
   -1.9320   17.0260   -5.7430 C   0  0  0  0  0  0  0  0  0  0  0  0
   -1.6870   14.7610   -4.8140 C   0  0  0  0  0  0  0  0  0  0  0  0
   -0.3100   15.0380   -4.6130 C   0  0  0  0  0  0  0  0  0  0  0  0
   -0.7060   17.4030   -5.3290 C   0  0  0  0  0  0  0  0  0  0  0  0
    0.7420   14.2380   -4.5050 C   0  0  0  0  0  0  0  0  0  0  0  0
    0.0360   16.4660   -4.4450 C   0  0  2  0  0  0  0  0  0  0  0  0
    1.0240   12.7900   -4.5090 C   0  0  0  0  0  0  0  0  0  0  0  0
    1.7870   15.2400   -4.3670 C   0  0  0  0  0  0  0  0  0  0  0  0
    1.4600   16.4920   -4.3760 N   0  0  0  0  0  0  0  0  0  0  0  0
    0.8330   12.1970   -3.1230 C   0  0  0  0  0  0  0  0  0  0  0  0
    0.1300   11.0440   -3.0900 O   0  0  0  0  0  0  0  0  0  0  0  0
    1.2620   12.7030   -2.0960 O   0  0  0  0  0  0  0  0  0  0  0  0
  1  2  1  0
  2  3  2  3
  4  2  1  6
  3  5  1  0
  4  6  1  0
  4  7  1  0
  5  8  1  0
  6  9  1  0
  7 10  1  0
  6 11  2  0
  8 12  1  0
  9 13  1  0
 10 13  1  0
  9 14  1  0
 11 15  1  0
 14 15  2  0
 12 16  1  0
 16 17  1  0
 16 18  2  0
 18 19  1  0
 17 20  2  0
 19 21  2  0
 19 22  1  0
 22 20  1  6
 21 23  1  0
 21 24  1  0
 22 25  1  0
 24 25  2  0
 23 26  1  0
 26 27  1  0
 26 28  2  0
M  END
