diamond-x0722_0_A-diamond-x0371_0_A
     RDKit          3D

 30 33  0  0  0  0  0  0  0  0999 V2000
   -4.2540   13.5230    1.2830 C   0  0  0  0  0  0  0  0  0  0  0  0
   -3.1950   13.8460    0.2730 C   0  0  0  0  0  0  0  0  0  0  0  0
   -1.9550   13.7810    0.7210 N   0  0  0  0  0  0  0  0  0  0  0  0
   -3.2680   14.2350   -1.1430 C   0  0  0  0  0  0  0  0  0  0  0  0
   -4.6030   14.4370   -1.8890 C   0  0  1  0  0  0  0  0  0  0  0  0
   -1.9150   14.3690   -1.4760 C   0  0  0  0  0  0  0  0  0  0  0  0
   -1.2100   14.0920   -0.3200 N   0  0  0  0  0  0  0  0  0  0  0  0
    0.2090   14.1010   -0.0950 C   0  0  0  0  0  0  0  0  0  0  0  0
   -1.2470   14.7400   -2.7410 C   0  0  0  0  0  0  0  0  0  0  0  0
   -5.6910   13.4160   -2.1620 C   0  0  0  0  0  0  0  0  0  0  0  0
   -4.7690   14.8950   -0.5660 C   0  0  0  0  0  0  0  0  0  0  0  0
   -6.7310   13.7240   -2.7470 O   0  0  0  0  0  0  0  0  0  0  0  0
   -5.5460   12.1390   -1.7110 N   0  0  0  0  0  0  0  0  0  0  0  0
   -5.8010   14.7390    0.3110 C   0  0  0  0  0  0  0  0  0  0  0  0
   -3.6210   15.5410   -0.1920 C   0  0  0  0  0  0  0  0  0  0  0  0
   -7.0390   14.1510    0.1690 N   0  0  0  0  0  0  0  0  0  0  0  0
   -5.5940   15.2290    1.5690 C   0  0  0  0  0  0  0  0  0  0  0  0
   -3.4320   16.0340    1.0430 C   0  0  0  0  0  0  0  0  0  0  0  0
   -6.7460   14.9220    2.2220 N   0  0  0  0  0  0  0  0  0  0  0  0
   -7.5840   14.2850    1.3500 C   0  0  0  0  0  0  0  0  0  0  0  0
   -4.4280   15.8810    1.9840 C   0  0  0  0  0  0  0  0  0  0  0  0
   -8.9190   13.8510    1.8090 C   0  0  0  0  0  0  0  0  0  0  0  0
   -8.9900   14.1140    3.2180 N   0  0  0  0  0  0  0  0  0  0  0  0
   -9.1680   15.3850    3.7200 C   0  0  0  0  0  0  0  0  0  0  0  0
   -9.5430   16.3310    3.0250 O   0  0  0  0  0  0  0  0  0  0  0  0
   -8.8790   15.4740    5.1300 C   0  0  0  0  0  0  0  0  0  0  0  0
   -8.3440   14.3830    5.7630 O   0  0  0  0  0  0  0  0  0  0  0  0
   -9.0420   16.4930    6.0390 C   0  0  0  0  0  0  0  0  0  0  0  0
   -8.5850   15.9970    7.2880 C   0  0  0  0  0  0  0  0  0  0  0  0
   -8.1670   14.7100    7.0630 C   0  0  0  0  0  0  0  0  0  0  0  0
  1  2  1  0
  2  3  2  0
  2  4  1  0
  4  5  1  0
  4  6  2  0
  3  7  1  0
  6  7  1  0
  7  8  1  0
  6  9  1  0
  5 10  1  1
  5 11  1  0
 10 12  2  0
 10 13  1  0
 11 14  1  0
 11 15  2  0
 14 16  1  0
 14 17  2  0
 15 18  1  0
 17 19  1  0
 16 20  2  0
 19 20  1  0
 17 21  1  0
 18 21  2  0
 20 22  1  0
 22 23  1  0
 23 24  1  0
 24 25  2  0
 24 26  1  0
 26 27  1  0
 26 28  2  0
 28 29  1  0
 27 30  1  0
 29 30  2  0
M  END
