diamond-x0421_0_A-mac-x0344
     RDKit          3D

 25 27  0  0  0  0  0  0  0  0999 V2000
   -3.4790   15.1340   -2.7670 N   0  0  0  0  0  0  0  0  0  0  0  0
   -2.8310   14.8190   -1.6010 C   0  0  0  0  0  0  0  0  0  0  0  0
   -1.5990   14.4820   -1.5580 N   0  0  0  0  0  0  0  0  0  0  0  0
   -3.6050   14.8640   -0.3770 C   0  0  0  0  0  0  0  0  0  0  0  0
   -0.6550   14.3470   -2.6400 C   0  0  0  0  0  0  0  0  0  0  0  0
   -3.0360   15.0810    0.8610 C   0  0  0  0  0  0  0  0  0  0  0  0
   -4.9670   14.6890   -0.2440 N   0  0  0  0  0  0  0  0  0  0  0  0
    0.5140   13.5200   -2.0910 C   0  0  0  0  0  0  0  0  0  0  0  0
   -4.0560   15.0290    1.7450 N   0  0  0  0  0  0  0  0  0  0  0  0
   -5.1970   14.7880    1.0490 C   0  0  0  0  0  0  0  0  0  0  0  0
    1.6120   13.6460   -3.0340 N   0  0  0  0  0  0  0  0  0  0  0  0
   -6.5940   14.6410    1.6930 C   0  0  0  0  0  0  0  0  0  0  0  0
    1.5770   12.8490   -4.0370 C   0  0  0  0  0  0  0  0  0  0  0  0
   -7.8480   14.6670    0.8660 C   0  0  0  0  0  0  0  0  0  0  0  0
   -7.3700   13.3760    1.4680 C   0  0  0  0  0  0  0  0  0  0  0  0
    2.4810   12.8470   -5.0160 O   0  0  0  0  0  0  0  0  0  0  0  0
    0.4840   11.7850   -4.2450 C   0  0  0  0  0  0  0  0  0  0  0  0
    0.1220   11.1390   -3.2660 O   0  0  0  0  0  0  0  0  0  0  0  0
    0.0730   11.7090   -5.5530 N   0  0  0  0  0  0  0  0  0  0  0  0
   -0.7230   10.7100   -6.1350 C   0  0  0  0  0  0  0  0  0  0  0  0
   -0.3820   10.0510   -7.3160 C   0  0  0  0  0  0  0  0  0  0  0  0
   -1.9160   10.3690   -5.4840 C   0  0  0  0  0  0  0  0  0  0  0  0
   -1.2250    9.0650   -7.8400 C   0  0  0  0  0  0  0  0  0  0  0  0
   -2.7560    9.3840   -6.0090 C   0  0  0  0  0  0  0  0  0  0  0  0
   -2.4100    8.7320   -7.1890 C   0  0  0  0  0  0  0  0  0  0  0  0
  1  2  1  0
  2  3  2  3
  2  4  1  0
  3  5  1  0
  4  6  2  0
  4  7  1  0
  5  8  1  0
  6  9  1  0
  7 10  2  0
  9 10  1  0
  8 11  1  0
 10 12  1  0
 11 13  2  3
 12 14  1  0
 12 15  1  0
 14 15  1  0
 13 16  1  0
 13 17  1  0
 17 18  2  0
 17 19  1  0
 19 20  1  0
 20 21  2  0
 20 22  1  0
 21 23  1  0
 22 24  2  0
 23 25  2  0
 24 25  1  0
M  END
