diamond-x0128_0_A-mac-x0358
     RDKit          3D

 29 31  0  0  0  0  0  0  0  0999 V2000
   -6.4450   14.9540    2.3610 N   0  0  0  0  0  0  0  0  0  0  0  0
   -7.6490   15.1920    3.0140 C   0  0  0  0  0  0  0  0  0  0  0  0
   -8.6670   15.3070    2.3270 O   0  0  0  0  0  0  0  0  0  0  0  0
   -6.0920   14.8280    0.9890 C   0  0  0  0  0  0  0  0  0  0  0  0
   -7.5970   15.3010    4.3840 N   0  0  0  0  0  0  0  0  0  0  0  0
   -7.0200   14.4610    0.0320 C   0  0  0  0  0  0  0  0  0  0  0  0
   -4.7610   15.0800    0.5600 C   0  0  0  0  0  0  0  0  0  0  0  0
   -6.6630   14.3300   -1.3070 C   0  0  0  0  0  0  0  0  0  0  0  0
   -4.3930   14.9480   -0.8130 C   0  0  0  0  0  0  0  0  0  0  0  0
   -8.4240   16.0530    5.2660 C   0  0  0  0  0  0  0  0  0  0  0  0
   -5.3630   14.5540   -1.7730 C   0  0  0  0  0  0  0  0  0  0  0  0
   -9.0900   17.1980    4.8180 C   0  0  0  0  0  0  0  0  0  0  0  0
   -8.6210   15.7080    6.6050 C   0  0  0  0  0  0  0  0  0  0  0  0
   -5.1830   14.3120   -3.2940 C   0  0  0  0  0  0  0  0  0  0  0  0
   -9.8980   17.9750    5.5860 N   0  0  0  0  0  0  0  0  0  0  0  0
   -9.4460   16.4910    7.4170 C   0  0  0  0  0  0  0  0  0  0  0  0
   -4.2160   15.1430   -4.1770 C   0  0  0  0  0  0  0  0  0  0  0  0
  -10.0550   17.6030    6.8690 C   0  0  0  0  0  0  0  0  0  0  0  0
   -2.8940   14.5190   -4.4100 C   0  0  0  0  0  0  0  0  0  0  0  0
   -2.7700   13.1430   -4.6100 C   0  0  0  0  0  0  0  0  0  0  0  0
   -1.7680   15.3380   -4.4030 C   0  0  0  0  0  0  0  0  0  0  0  0
   -1.5120   12.6030   -4.7590 C   0  0  0  0  0  0  0  0  0  0  0  0
   -0.5100   14.7870   -4.5520 C   0  0  0  0  0  0  0  0  0  0  0  0
   -1.4190   11.2490   -4.9320 O   0  0  0  0  0  0  0  0  0  0  0  0
   -0.3750   13.4060   -4.7120 C   0  0  0  0  0  0  0  0  0  0  0  0
    0.9720   12.7920   -4.7910 C   0  0  0  0  0  0  0  0  0  0  0  0
    1.1370   12.1170   -3.4320 C   0  0  0  0  0  0  0  0  0  0  0  0
    1.9050   12.7970   -2.5550 O   0  0  0  0  0  0  0  0  0  0  0  0
    0.6020   11.0620   -3.1080 O   0  0  0  0  0  0  0  0  0  0  0  0
  1  2  1  0
  2  3  2  0
  1  4  1  0
  2  5  1  0
  4  6  2  0
  4  7  1  0
  6  8  1  0
  7  9  2  0
  5 10  1  0
  8 11  2  0
  9 11  1  0
 10 12  2  0
 10 13  1  0
 11 14  1  0
 12 15  1  0
 13 16  2  0
 14 17  1  0
 15 18  2  0
 16 18  1  0
 17 19  1  0
 19 20  2  0
 19 21  1  0
 20 22  1  0
 21 23  2  0
 22 24  1  0
 22 25  2  0
 23 25  1  0
 25 26  1  0
 26 27  1  0
 27 28  1  0
 27 29  2  0
M  END
