diamond-x0722_0_A-diamond-x0905_0_A
     RDKit          3D

 18 19  0  0  0  0  0  0  0  0999 V2000
   -5.1810   14.7790    2.1280 C   0  0  0  0  0  0  0  0  0  0  0  0
   -3.9270   14.4710    1.3900 C   0  0  0  0  0  0  0  0  0  0  0  0
   -2.7180   14.7700    1.9100 N   0  0  0  0  0  0  0  0  0  0  0  0
   -3.8130   13.8590    0.1140 C   0  0  0  0  0  0  0  0  0  0  0  0
   -4.9290   13.3510   -0.7820 C   0  0  0  0  0  0  0  0  0  0  0  0
   -2.4340   13.8330   -0.1210 C   0  0  0  0  0  0  0  0  0  0  0  0
   -1.8350   14.3740    0.9810 N   0  0  0  0  0  0  0  0  0  0  0  0
   -0.4100   14.5380    1.2000 C   0  0  0  0  0  0  0  0  0  0  0  0
   -1.6530   13.3400   -1.2810 C   0  0  0  0  0  0  0  0  0  0  0  0
   -6.3480   13.9650   -0.6620 C   0  0  0  0  0  0  0  0  0  0  0  0
   -6.5390   15.2210   -0.7220 N   0  0  0  0  0  0  0  0  0  0  0  0
   -7.4120   13.1310   -0.5010 N   0  0  0  0  0  0  0  0  0  0  0  0
   -5.2390   15.5400   -0.8050 C   0  0  0  0  0  0  0  0  0  0  0  0
   -4.7240   15.8930    0.3630 N   0  0  0  0  0  0  0  0  0  0  0  0
   -4.5450   15.4420   -1.9850 C   0  0  0  0  0  0  0  0  0  0  0  0
   -3.4210   16.1490    0.3760 C   0  0  0  0  0  0  0  0  0  0  0  0
   -3.1890   15.7150   -1.9470 C   0  0  0  0  0  0  0  0  0  0  0  0
   -2.6140   16.0690   -0.7370 C   0  0  0  0  0  0  0  0  0  0  0  0
  1  2  1  0
  2  3  2  0
  2  4  1  0
  4  5  1  0
  4  6  2  0
  3  7  1  0
  6  7  1  0
  7  8  1  0
  6  9  1  0
  5 10  1  0
 10 11  2  3
 10 12  1  0
 11 13  1  0
 13 14  2  0
 13 15  1  0
 14 16  1  0
 15 17  2  0
 16 18  2  0
 17 18  1  0
M  END
