diamond-x0689_0_A-mac-x0358
     RDKit          3D

 20 21  0  0  0  0  0  0  0  0999 V2000
   -3.5710   15.3910    1.7510 N   0  0  0  0  0  0  0  0  0  0  0  0
   -4.8510   14.9480    1.2610 C   0  0  0  0  0  0  0  0  0  0  0  0
   -2.5000   14.9440    1.0110 C   0  0  0  0  0  0  0  0  0  0  0  0
   -2.5640   14.9130   -0.3240 N   0  0  0  0  0  0  0  0  0  0  0  0
   -1.4360   14.5620    1.7150 N   0  0  0  0  0  0  0  0  0  0  0  0
   -1.4760   14.4700   -0.9840 C   0  0  0  0  0  0  0  0  0  0  0  0
   -0.3770   14.1260    1.0190 C   0  0  0  0  0  0  0  0  0  0  0  0
   -0.3320   14.0540   -0.3620 C   0  0  0  0  0  0  0  0  0  0  0  0
    0.8570   13.5500   -1.1100 C   0  0  0  0  0  0  0  0  0  0  0  0
    0.7510   13.7250   -2.5030 O   0  0  0  0  0  0  0  0  0  0  0  0
    0.7830   12.5530   -3.2050 C   0  0  0  0  0  0  0  0  0  0  0  0
    0.7880   11.4270   -2.7170 O   0  0  0  0  0  0  0  0  0  0  0  0
    0.7820   12.9010   -4.6660 C   0  0  0  0  0  0  0  0  0  0  0  0
   -0.5570   13.4790   -5.0080 C   0  0  0  0  0  0  0  0  0  0  0  0
   -1.6080   12.6320   -5.3640 C   0  0  0  0  0  0  0  0  0  0  0  0
   -0.7820   14.8640   -4.9680 C   0  0  0  0  0  0  0  0  0  0  0  0
   -1.3730   11.2820   -5.3910 O   0  0  0  0  0  0  0  0  0  0  0  0
   -2.8650   13.1410   -5.6810 C   0  0  0  0  0  0  0  0  0  0  0  0
   -2.0430   15.3830   -5.2810 C   0  0  0  0  0  0  0  0  0  0  0  0
   -3.0820   14.5210   -5.6390 C   0  0  0  0  0  0  0  0  0  0  0  0
  1  2  1  0
  1  3  1  0
  3  4  2  0
  3  5  1  0
  4  6  1  0
  5  7  2  0
  6  8  2  0
  7  8  1  0
  8  9  1  0
  9 10  1  0
 10 11  1  0
 11 12  2  0
 11 13  1  0
 13 14  1  0
 14 15  2  0
 14 16  1  0
 15 17  1  0
 15 18  1  0
 16 19  2  0
 18 20  2  0
 19 20  1  0
M  END
