diamond-x0926_0_A-diamond-x0591_0_A
     RDKit          3D

 20 21  0  0  0  0  0  0  0  0999 V2000
   -6.3300   14.6540   -0.6410 C   0  0  1  0  0  0  0  0  0  0  0  0
   -6.8300   13.5200    0.1230 N   0  0  0  0  0  0  0  0  0  0  0  0
   -7.1110   13.8230    1.5240 C   0  0  0  0  0  0  0  0  0  0  0  0
   -7.3330   15.6520   -0.7060 O   0  0  0  0  0  0  0  0  0  0  0  0
   -5.0420   15.1090   -0.0240 C   0  0  0  0  0  0  0  0  0  0  0  0
   -5.4570   14.5160   -1.8770 C   0  0  0  0  0  0  0  0  0  0  0  0
   -4.7290   15.1380    1.3030 C   0  0  0  0  0  0  0  0  0  0  0  0
   -4.1470   15.4700   -0.9770 N   0  0  0  0  0  0  0  0  0  0  0  0
   -4.1360   14.0300   -1.6640 C   0  0  0  0  0  0  0  0  0  0  0  0
   -5.8320   14.8660   -3.1650 C   0  0  0  0  0  0  0  0  0  0  0  0
   -2.8950   15.8480   -0.6570 N   0  0  0  0  0  0  0  0  0  0  0  0
   -3.4530   15.5240    1.6380 C   0  0  0  0  0  0  0  0  0  0  0  0
   -3.2180   13.9300   -2.7000 C   0  0  0  0  0  0  0  0  0  0  0  0
   -4.9080   14.7620   -4.2120 C   0  0  0  0  0  0  0  0  0  0  0  0
   -2.5690   15.8630    0.6380 C   0  0  0  0  0  0  0  0  0  0  0  0
   -3.6140   14.3120   -3.9690 C   0  0  0  0  0  0  0  0  0  0  0  0
   -2.4730   14.2400   -5.3140 S   0  0  0  0  0  0  0  0  0  0  0  0
   -1.2510   15.2840   -4.7990 N   0  0  0  0  0  0  0  0  0  0  0  0
   -1.8760   12.9290   -5.3420 O   0  0  0  0  0  0  0  0  0  0  0  0
   -3.1210   14.8480   -6.4520 O   0  0  0  0  0  0  0  0  0  0  0  0
  1  2  1  0
  2  3  1  0
  1  4  1  6
  1  5  1  0
  1  6  1  0
  5  7  2  0
  5  8  1  0
  6  9  2  0
  6 10  1  0
  8 11  2  0
  7 12  1  0
  9 13  1  0
 10 14  2  0
 11 15  1  0
 12 15  2  0
 13 16  2  0
 14 16  1  0
 16 17  1  0
 17 18  1  0
 17 19  2  0
 17 20  2  0
M  END
