diamond-x0681_0_A-diamond-x0592_0_A
     RDKit          3D

 17 18  0  0  0  0  0  0  0  0999 V2000
   -4.0470   15.3500   -3.1420 N   0  0  0  0  0  0  0  0  0  0  0  0
   -3.5080   14.8000   -2.0270 C   0  0  0  0  0  0  0  0  0  0  0  0
   -2.3290   14.4510   -2.0310 O   0  0  0  0  0  0  0  0  0  0  0  0
   -4.4520   14.6620   -0.8490 C   0  0  1  0  0  0  0  0  0  0  0  0
   -5.3400   13.4880   -0.9250 C   0  0  0  0  0  0  0  0  0  0  0  0
   -3.8130   14.4950    0.5070 C   0  0  1  0  0  0  0  0  0  0  0  0
   -2.5160   15.2300    0.6670 C   0  0  0  0  0  0  0  0  0  0  0  0
   -6.0560   13.1170    0.1690 N   0  0  0  0  0  0  0  0  0  0  0  0
   -4.9110   14.8690    1.5000 C   0  0  0  0  0  0  0  0  0  0  0  0
   -5.5760   12.6890   -1.9300 N   0  0  0  0  0  0  0  0  0  0  0  0
   -1.5950   14.6220    1.5830 N   0  0  0  0  0  0  0  0  0  0  0  0
   -6.0570   13.7980    1.4330 C   0  0  1  0  0  0  0  0  0  0  0  0
   -6.7710   12.0200   -0.1430 C   0  0  0  0  0  0  0  0  0  0  0  0
   -6.4650   11.7660   -1.4490 C   0  0  0  0  0  0  0  0  0  0  0  0
   -7.5110   14.3480    1.5250 C   0  0  0  0  0  0  0  0  0  0  0  0
   -8.0360   14.4890    2.9330 C   0  0  0  0  0  0  0  0  0  0  0  0
   -7.1590   15.3080    3.6670 O   0  0  0  0  0  0  0  0  0  0  0  0
  1  2  1  0
  2  3  2  0
  4  2  1  6
  4  5  1  0
  4  6  1  0
  6  7  1  6
  5  8  1  0
  6  9  1  0
  5 10  2  0
  7 11  1  0
  8 12  1  0
  9 12  1  0
  8 13  1  0
 10 14  1  0
 13 14  2  0
 12 15  1  6
 15 16  1  0
 16 17  1  0
M  END
