diamond-x0685_0_A-diamond-x0689_0_A
     RDKit          3D

 18 19  0  0  0  0  0  0  0  0999 V2000
   -6.0840   14.7040    2.4940 N   0  0  0  0  0  0  0  0  0  0  0  0
   -7.4920   14.7980    2.8650 C   0  0  0  0  0  0  0  0  0  0  0  0
   -8.0750   13.4190    3.1250 C   0  0  0  0  0  0  0  0  0  0  0  0
   -5.7190   14.8320    1.1360 C   0  0  0  0  0  0  0  0  0  0  0  0
   -4.3700   15.0440    0.8390 C   0  0  0  0  0  0  0  0  0  0  0  0
   -6.6260   14.7520    0.1350 N   0  0  0  0  0  0  0  0  0  0  0  0
   -3.9670   15.1630   -0.4580 C   0  0  0  0  0  0  0  0  0  0  0  0
   -6.1680   14.8750   -1.1510 C   0  0  0  0  0  0  0  0  0  0  0  0
   -3.3680   15.1360    1.7100 N   0  0  0  0  0  0  0  0  0  0  0  0
   -4.8350   15.0770   -1.4710 C   0  0  0  0  0  0  0  0  0  0  0  0
   -2.1530   14.7580    1.2560 C   0  0  0  0  0  0  0  0  0  0  0  0
   -4.2950   15.1920   -2.7830 C   0  0  0  0  0  0  0  0  0  0  0  0
   -2.0360   14.8470   -0.0810 N   0  0  0  0  0  0  0  0  0  0  0  0
   -1.2180   14.3470    2.0350 N   0  0  0  0  0  0  0  0  0  0  0  0
   -3.7830   15.2630   -3.8180 N   0  0  0  0  0  0  0  0  0  0  0  0
   -0.8790   14.4910   -0.6330 C   0  0  0  0  0  0  0  0  0  0  0  0
   -0.0930   13.9970    1.4640 C   0  0  0  0  0  0  0  0  0  0  0  0
    0.1570   14.0450    0.1110 C   0  0  0  0  0  0  0  0  0  0  0  0
  1  2  1  0
  2  3  1  0
  1  4  1  0
  4  5  2  0
  4  6  1  0
  5  7  1  0
  6  8  2  0
  5  9  1  0
  7 10  2  0
  8 10  1  0
  9 11  1  0
 10 12  1  0
 11 13  2  0
 11 14  1  0
 12 15  3  0
 13 16  1  0
 14 17  2  0
 16 18  2  0
 17 18  1  0
M  END
