diamond-x0685_0_A-diamond-x0662_0_A
     RDKit          3D

 32 34  0  0  0  0  0  0  0  0999 V2000
   -6.3460   15.0390    2.5360 N   0  0  0  0  0  0  0  0  0  0  0  0
   -7.7470   14.6540    2.4870 C   0  0  0  0  0  0  0  0  0  0  0  0
   -7.9710   13.2640    3.0730 C   0  0  0  0  0  0  0  0  0  0  0  0
   -5.5790   15.0500    1.3760 C   0  0  0  0  0  0  0  0  0  0  0  0
   -4.1960   15.1850    1.4110 C   0  0  0  0  0  0  0  0  0  0  0  0
   -6.2700   14.9380    0.2280 N   0  0  0  0  0  0  0  0  0  0  0  0
   -3.4920   15.2150    0.2210 C   0  0  0  0  0  0  0  0  0  0  0  0
   -5.5630   14.9750   -0.9220 C   0  0  0  0  0  0  0  0  0  0  0  0
   -4.1880   15.1140   -0.9740 C   0  0  0  0  0  0  0  0  0  0  0  0
   -3.5040   15.1500   -2.2100 C   0  0  0  0  0  0  0  0  0  0  0  0
   -2.8790   15.2010   -3.2250 C   0  0  0  0  0  0  0  0  0  0  0  0
   -2.0490   15.2330   -4.4310 C   0  0  0  0  0  0  0  0  0  0  0  0
   -2.0580   13.8690   -5.1070 C   0  0  0  0  0  0  0  0  0  0  0  0
   -1.1210   12.8250   -4.4800 C   0  0  0  0  0  0  0  0  0  0  0  0
   -1.0460   11.8180   -5.5080 N   0  0  0  0  0  0  0  0  0  0  0  0
    0.0340   11.5260   -6.1260 C   0  0  0  0  0  0  0  0  0  0  0  0
    1.1850   11.9730   -5.9750 O   0  0  0  0  0  0  0  0  0  0  0  0
    0.0090   10.5410   -7.2460 C   0  0  0  0  0  0  0  0  0  0  0  0
   -0.8050    9.4170   -7.1680 C   0  0  0  0  0  0  0  0  0  0  0  0
    0.7840   10.7580   -8.3810 C   0  0  0  0  0  0  0  0  0  0  0  0
   -0.8380    8.5240   -8.2360 C   0  0  0  0  0  0  0  0  0  0  0  0
    0.7580    9.8750   -9.4590 C   0  0  0  0  0  0  0  0  0  0  0  0
    1.5710   10.1890  -10.5720 N   0  0  0  0  0  0  0  0  0  0  0  0
   -0.0610    8.7540   -9.3760 C   0  0  0  0  0  0  0  0  0  0  0  0
    2.2850    9.3010  -11.3540 C   0  0  0  0  0  0  0  0  0  0  0  0
    2.3940    8.1000  -11.1000 O   0  0  0  0  0  0  0  0  0  0  0  0
    2.9490    9.8970  -12.5470 C   0  0  0  0  0  0  0  0  0  0  0  0
    2.7440   11.1630  -13.1850 C   0  0  0  0  0  0  0  0  0  0  0  0
    3.9100    9.2140  -13.1890 N   0  0  0  0  0  0  0  0  0  0  0  0
    4.3000   10.0140  -14.1860 N   0  0  0  0  0  0  0  0  0  0  0  0
    3.6340   11.1980  -14.2340 C   0  0  0  0  0  0  0  0  0  0  0  0
    5.3480    9.5560  -15.0680 C   0  0  0  0  0  0  0  0  0  0  0  0
  1  2  1  0
  2  3  1  0
  1  4  1  0
  4  5  2  0
  4  6  1  0
  5  7  1  0
  6  8  2  0
  7  9  2  0
  8  9  1  0
  9 10  1  0
 10 11  3  0
 11 12  1  0
 12 13  1  0
 13 14  1  0
 14 15  1  0
 15 16  2  3
 16 17  1  0
 16 18  1  0
 18 19  2  0
 18 20  1  0
 19 21  1  0
 20 22  2  0
 22 23  1  0
 21 24  2  0
 22 24  1  0
 23 25  1  0
 25 26  2  0
 25 27  1  0
 27 28  1  0
 27 29  2  0
 29 30  1  0
 28 31  2  0
 30 31  1  0
 30 32  1  0
M  CHG  1  17  -1
M  END
