diamond-x0849_0_A-diamond-x0805_0_A
     RDKit          3D

 28 31  0  0  0  0  0  0  0  0999 V2000
   -2.4870   15.9120   -2.8830 Br  0  0  0  0  0  0  0  0  0  0  0  0
   -2.8670   15.4930   -1.0440 C   0  0  0  0  0  0  0  0  0  0  0  0
   -1.8720   15.2320   -0.1840 C   0  0  0  0  0  0  0  0  0  0  0  0
   -4.1480   15.4410   -0.6320 C   0  0  0  0  0  0  0  0  0  0  0  0
   -4.9830   15.6510   -1.6650 N   0  0  0  0  0  0  0  0  0  0  0  0
   -2.2210   14.9210    1.1270 C   0  0  0  0  0  0  0  0  0  0  0  0
   -4.4310   15.1590    0.6840 C   0  0  0  0  0  0  0  0  0  0  0  0
   -0.5570   15.2570   -0.5830 C   0  0  0  0  0  0  0  0  0  0  0  0
   -6.3560   15.4400   -1.2240 C   0  0  0  0  0  0  0  0  0  0  0  0
   -3.4680   14.9000    1.5740 N   0  0  0  0  0  0  0  0  0  0  0  0
   -1.3030   14.6240    1.9870 N   0  0  0  0  0  0  0  0  0  0  0  0
    0.3920   14.9520    0.3040 C   0  0  0  0  0  0  0  0  0  0  0  0
   -4.3510   14.6870   -2.5260 C   0  0  0  0  0  0  0  0  0  0  0  0
   -0.0350   14.6320    1.5750 C   0  0  0  0  0  0  0  0  0  0  0  0
   -4.9210   13.6400   -3.2240 C   0  0  0  0  0  0  0  0  0  0  0  0
   -2.9290   14.8200   -2.6570 C   0  0  0  0  0  0  0  0  0  0  0  0
   -4.1130   12.7820   -3.9990 C   0  0  0  0  0  0  0  0  0  0  0  0
   -2.0850   13.9820   -3.4240 C   0  0  0  0  0  0  0  0  0  0  0  0
   -2.7170   12.9450   -4.1020 C   0  0  0  0  0  0  0  0  0  0  0  0
   -0.5670   14.3210   -3.4240 C   0  0  1  0  0  0  0  0  0  0  0  0
    0.4960   13.2000   -3.3320 C   0  0  1  0  0  0  0  0  0  0  0  0
   -0.1170   15.2700   -4.5440 C   0  0  0  0  0  0  0  0  0  0  0  0
    0.2350   12.0450   -2.4180 C   0  0  0  0  0  0  0  0  0  0  0  0
    1.0850   12.8730   -4.6890 C   0  0  0  0  0  0  0  0  0  0  0  0
    1.4020   15.2630   -4.7070 C   0  0  0  0  0  0  0  0  0  0  0  0
    0.0900   10.8570   -3.0380 O   0  0  0  0  0  0  0  0  0  0  0  0
    0.1670   12.1490   -1.2160 O   0  0  0  0  0  0  0  0  0  0  0  0
    1.8610   13.9820   -5.1530 O   0  0  0  0  0  0  0  0  0  0  0  0
  1  2  1  0
  2  3  2  0
  2  4  1  0
  4  5  1  0
  3  6  1  0
  4  7  2  0
  3  8  1  0
  5  9  1  0
  6 10  2  0
  7 10  1  0
  6 11  1  0
  8 12  2  0
  5 13  1  0
 11 14  2  0
 12 14  1  0
 13 15  2  0
 13 16  1  0
 15 17  1  0
 16 18  2  0
 17 19  2  0
 18 19  1  0
 20 18  1  6
 20 21  1  0
 20 22  1  0
 21 23  1  6
 21 24  1  0
 22 25  1  0
 23 26  1  0
 23 27  2  0
 24 28  1  0
 25 28  1  0
M  END
