diamond-x0421_0_A-mac-x0204
     RDKit          3D

 22 24  0  0  0  0  0  0  0  0999 V2000
   -3.1400   15.0930   -2.8040 N   0  0  0  0  0  0  0  0  0  0  0  0
   -2.5850   14.9320   -1.5550 C   0  0  0  0  0  0  0  0  0  0  0  0
   -1.3860   14.8370   -1.0700 N   0  0  0  0  0  0  0  0  0  0  0  0
   -3.5070   14.8840   -0.4470 C   0  0  0  0  0  0  0  0  0  0  0  0
   -0.0560   14.8920   -1.6840 C   0  0  0  0  0  0  0  0  0  0  0  0
   -3.0560   14.9730    0.8450 C   0  0  0  0  0  0  0  0  0  0  0  0
   -4.8930   14.7530   -0.4760 N   0  0  0  0  0  0  0  0  0  0  0  0
    0.2110   14.0370   -2.9210 C   0  0  0  0  0  0  0  0  0  0  0  0
   -4.1570   14.8910    1.5970 N   0  0  0  0  0  0  0  0  0  0  0  0
   -5.2280   14.7610    0.7980 C   0  0  0  0  0  0  0  0  0  0  0  0
    0.5390   12.7170   -2.5190 O   0  0  0  0  0  0  0  0  0  0  0  0
    1.4090   14.5510   -3.4920 O   0  0  0  0  0  0  0  0  0  0  0  0
   -6.6420   14.6320    1.4120 C   0  0  0  0  0  0  0  0  0  0  0  0
   -0.9360   14.0390   -3.9120 C   0  0  0  0  0  0  0  0  0  0  0  0
   -7.8540   14.6460    0.5290 C   0  0  0  0  0  0  0  0  0  0  0  0
   -7.4100   13.3640    1.1830 C   0  0  0  0  0  0  0  0  0  0  0  0
   -1.3840   15.2300   -4.5010 C   0  0  0  0  0  0  0  0  0  0  0  0
   -1.5960   12.8690   -4.2810 C   0  0  0  0  0  0  0  0  0  0  0  0
   -2.4400   15.2090   -5.4040 C   0  0  0  0  0  0  0  0  0  0  0  0
   -2.6280   12.8170   -5.1610 N   0  0  0  0  0  0  0  0  0  0  0  0
   -2.8980   16.3500   -5.9900 O   0  0  0  0  0  0  0  0  0  0  0  0
   -3.0260   13.9910   -5.7020 C   0  0  0  0  0  0  0  0  0  0  0  0
  1  2  1  0
  2  3  2  3
  2  4  1  0
  3  5  1  0
  4  6  2  0
  4  7  1  0
  5  8  1  0
  6  9  1  0
  7 10  2  0
  9 10  1  0
  8 11  1  0
  8 12  1  0
 10 13  1  0
  8 14  1  0
 13 15  1  0
 13 16  1  0
 15 16  1  0
 14 17  2  0
 14 18  1  0
 17 19  1  0
 18 20  2  0
 19 21  1  0
 19 22  2  0
 20 22  1  0
M  END
