diamond-x0895_0_A-mac-x0360
     RDKit          3D

 18 19  0  0  0  0  0  0  0  0999 V2000
   -1.7100   14.4800    2.2680 O   0  0  0  0  0  0  0  0  0  0  0  0
   -2.6210   14.9340    1.5810 C   0  0  0  0  0  0  0  0  0  0  0  0
   -3.9920   15.4350    1.9580 C   0  0  0  0  0  0  0  0  0  0  0  0
   -2.5070   15.0900    0.2310 N   0  0  0  0  0  0  0  0  0  0  0  0
   -4.2660   16.3120    0.8160 N   0  0  0  0  0  0  0  0  0  0  0  0
   -3.8080   15.4550   -0.1160 C   0  0  0  0  0  0  0  0  0  0  0  0
   -4.2380   14.9450   -1.0820 N   0  0  0  0  0  0  0  0  0  0  0  0
   -3.3810   13.9500   -1.7250 S   0  0  0  0  0  0  0  0  0  0  0  0
   -3.4580   14.4460   -3.1760 N   0  0  0  0  0  0  0  0  0  0  0  0
   -2.5000   12.8040   -1.9050 O   0  0  0  0  0  0  0  0  0  0  0  0
   -4.6220   12.7500   -1.1320 C   0  0  0  0  0  0  0  0  0  0  0  0
   -4.6320   11.6810   -1.9250 C   0  0  0  0  0  0  0  0  0  0  0  0
   -5.4280   12.9110   -0.0440 C   0  0  0  0  0  0  0  0  0  0  0  0
   -5.5070   10.6800   -1.6390 C   0  0  0  0  0  0  0  0  0  0  0  0
   -6.3340   11.8820    0.2590 C   0  0  0  0  0  0  0  0  0  0  0  0
   -7.4020   11.9970    1.6300 Cl  0  0  0  0  0  0  0  0  0  0  0  0
   -5.5560    9.2600   -2.6420 Cl  0  0  0  0  0  0  0  0  0  0  0  0
   -6.3530   10.7730   -0.5650 C   0  0  0  0  0  0  0  0  0  0  0  0
  1  2  2  0
  2  3  1  0
  2  4  1  0
  3  5  1  0
  4  6  1  0
  5  6  1  0
  6  7  2  3
  7  8  1  0
  8  9  1  0
  8 10  2  0
  8 11  1  0
 11 12  2  0
 11 13  1  0
 12 14  1  0
 13 15  2  0
 15 16  1  0
 14 17  1  0
 14 18  2  0
 15 18  1  0
M  END
