diamond-x0628_0_A-mac-x0138
     RDKit          3D

 25 27  0  0  0  0  0  0  0  0999 V2000
   -0.8400    8.9150   -7.3650 C   0  0  0  0  0  0  0  0  0  0  0  0
   -0.8120   10.1270   -6.5270 C   0  0  0  0  0  0  0  0  0  0  0  0
   -1.7830   10.4050   -5.6040 N   0  0  0  0  0  0  0  0  0  0  0  0
    0.1630   11.0370   -6.6080 N   0  0  0  0  0  0  0  0  0  0  0  0
   -0.2140   11.9340   -5.6820 N   0  0  0  0  0  0  0  0  0  0  0  0
   -1.3860   11.5470   -5.0810 C   0  0  0  0  0  0  0  0  0  0  0  0
   -2.0870   12.2960   -4.0140 C   0  0  0  0  0  0  0  0  0  0  0  0
    0.6100   13.1150   -5.4560 C   0  0  0  0  0  0  0  0  0  0  0  0
    1.7220   12.9010   -4.4300 C   0  0  0  0  0  0  0  0  0  0  0  0
   -1.0930   13.0850   -3.1730 C   0  0  0  0  0  0  0  0  0  0  0  0
    1.2510   12.1690   -3.2000 C   0  0  0  0  0  0  0  0  0  0  0  0
   -1.3290   14.5870   -3.2000 C   0  0  0  0  0  0  0  0  0  0  0  0
    0.5460   11.1680   -3.1930 O   0  0  0  0  0  0  0  0  0  0  0  0
    1.6710   12.7340   -2.0550 O   0  0  0  0  0  0  0  0  0  0  0  0
   -2.2970   14.8700   -2.1860 N   0  0  0  0  0  0  0  0  0  0  0  0
   -3.5840   15.2670   -2.3810 C   0  0  0  0  0  0  0  0  0  0  0  0
   -2.0640   14.7750   -0.8440 C   0  0  0  0  0  0  0  0  0  0  0  0
   -4.2070   15.4410   -1.2400 N   0  0  0  0  0  0  0  0  0  0  0  0
   -3.2650   15.1410   -0.2760 C   0  0  0  0  0  0  0  0  0  0  0  0
   -0.9270   14.4140   -0.2050 N   0  0  0  0  0  0  0  0  0  0  0  0
   -3.2960   15.1390    1.1150 C   0  0  0  0  0  0  0  0  0  0  0  0
   -1.0760   14.4430    1.1300 C   0  0  0  0  0  0  0  0  0  0  0  0
   -4.4270   15.4930    1.8240 N   0  0  0  0  0  0  0  0  0  0  0  0
    0.0110   14.0970    1.9470 N   0  0  0  0  0  0  0  0  0  0  0  0
   -2.1780   14.7810    1.7980 N   0  0  0  0  0  0  0  0  0  0  0  0
  1  2  1  0
  2  3  1  0
  2  4  2  0
  4  5  1  0
  3  6  2  0
  5  6  1  0
  6  7  1  0
  5  8  1  0
  8  9  1  0
  7 10  1  0
  9 11  1  0
 10 12  1  0
 11 13  2  0
 11 14  1  0
 12 15  1  0
 15 16  1  0
 15 17  1  0
 16 18  2  0
 17 19  2  0
 18 19  1  0
 17 20  1  0
 19 21  1  0
 20 22  2  0
 21 23  1  0
 22 24  1  0
 21 25  2  0
 22 25  1  0
M  END
