diamond-x0895_1_A-mac-x0412
     RDKit          3D

 12 13  0  0  0  0  0  0  0  0999 V2000
   -2.1640   14.7660    1.7630 O   0  0  0  0  0  0  0  0  0  0  0  0
   -3.0010   14.8340    0.8680 C   0  0  0  0  0  0  0  0  0  0  0  0
   -2.7370   14.7160   -0.6150 C   0  0  0  0  0  0  0  0  0  0  0  0
   -4.3830   15.0290    0.8990 N   0  0  0  0  0  0  0  0  0  0  0  0
   -3.9120   13.9830   -1.1010 N   0  0  0  0  0  0  0  0  0  0  0  0
   -4.9500   14.3970   -0.1910 C   0  0  1  0  0  0  0  0  0  0  0  0
   -5.2660   14.8310    1.9910 C   0  0  0  0  0  0  0  0  0  0  0  0
   -5.5420   13.2340    0.3160 O   0  0  0  0  0  0  0  0  0  0  0  0
   -6.0510   15.2080   -0.7480 C   0  0  0  0  0  0  0  0  0  0  0  0
   -6.6740   14.7790    1.5740 N   0  0  0  0  0  0  0  0  0  0  0  0
   -7.1140   14.9320    0.2660 C   0  0  0  0  0  0  0  0  0  0  0  0
   -8.3010   14.8470   -0.0270 O   0  0  0  0  0  0  0  0  0  0  0  0
  1  2  2  0
  2  3  1  0
  2  4  1  0
  3  5  1  0
  4  6  1  0
  5  6  1  0
  4  7  1  0
  6  8  1  1
  6  9  1  0
  7 10  1  0
  9 11  1  0
 10 11  1  0
 11 12  2  0
M  END
