diamond-x0592_0_A-diamond-x0681_0_A
     RDKit          3D

 17 18  0  0  0  0  0  0  0  0999 V2000
   -2.7820   14.5320    0.7090 N   0  0  0  0  0  0  0  0  0  0  0  0
   -3.6010   15.1900   -0.3500 C   0  0  1  0  0  0  0  0  0  0  0  0
   -3.0780   14.9040   -1.7700 C   0  0  0  0  0  0  0  0  0  0  0  0
   -5.1060   15.0560   -0.1430 C   0  0  1  0  0  0  0  0  0  0  0  0
   -3.9230   15.3070   -2.7600 N   0  0  0  0  0  0  0  0  0  0  0  0
   -2.0110   14.3750   -2.0400 O   0  0  0  0  0  0  0  0  0  0  0  0
   -6.0280   15.6990   -1.1530 C   0  0  0  0  0  0  0  0  0  0  0  0
   -5.9050   13.7940    0.0690 C   0  0  2  0  0  0  0  0  0  0  0  0
   -7.3600   15.3410   -0.6280 N   0  0  0  0  0  0  0  0  0  0  0  0
   -7.0290   14.5710    0.5830 N   0  0  0  0  0  0  0  0  0  0  0  0
   -5.1000   12.7200    0.8280 C   0  0  0  0  0  0  0  0  0  0  0  0
   -6.3730   12.9740   -1.1090 C   0  0  0  0  0  0  0  0  0  0  0  0
   -8.1990   13.9680    1.2170 C   0  0  0  0  0  0  0  0  0  0  0  0
   -4.5540   12.0240   -0.3620 N   0  0  0  0  0  0  0  0  0  0  0  0
   -5.5440   11.9650   -1.2940 C   0  0  0  0  0  0  0  0  0  0  0  0
   -8.1160   13.9960    2.7480 C   0  0  0  0  0  0  0  0  0  0  0  0
   -7.2650   15.0300    3.2310 O   0  0  0  0  0  0  0  0  0  0  0  0
  2  1  1  1
  2  3  1  0
  2  4  1  0
  3  5  1  0
  3  6  2  0
  4  7  1  6
  4  8  1  0
  7  9  1  0
  8 10  1  0
  9 10  1  0
  8 11  1  1
  8 12  1  0
 10 13  1  0
 11 14  1  0
 12 15  2  0
 14 15  1  0
 13 16  1  0
 16 17  1  0
M  END
