diamond-x0421_0_A-mac-x0373
     RDKit          3D

 20 22  0  0  0  0  0  0  0  0999 V2000
   -4.1120   13.9170   -2.5150 N   0  0  0  0  0  0  0  0  0  0  0  0
   -2.9810   14.1230   -1.7160 C   0  0  0  0  0  0  0  0  0  0  0  0
   -1.7370   13.7910   -2.1920 C   0  0  0  0  0  0  0  0  0  0  0  0
   -3.4170   14.6310   -0.4390 C   0  0  0  0  0  0  0  0  0  0  0  0
   -0.3950   13.9440   -1.5470 C   0  0  0  0  0  0  0  0  0  0  0  0
   -2.8390   15.2850    0.6120 C   0  0  0  0  0  0  0  0  0  0  0  0
   -4.7480   14.3690   -0.1800 N   0  0  0  0  0  0  0  0  0  0  0  0
   -1.7340   13.0760   -3.4790 C   0  0  0  0  0  0  0  0  0  0  0  0
    0.1830   12.7580   -1.2240 O   0  0  0  0  0  0  0  0  0  0  0  0
    0.2130   14.9840   -1.3370 O   0  0  0  0  0  0  0  0  0  0  0  0
   -3.8570   15.4140    1.5270 N   0  0  0  0  0  0  0  0  0  0  0  0
   -4.9740   14.8380    1.0070 C   0  0  0  0  0  0  0  0  0  0  0  0
   -0.9720   13.3320   -4.6290 C   0  0  0  0  0  0  0  0  0  0  0  0
   -2.6240   11.9950   -3.4730 C   0  0  0  0  0  0  0  0  0  0  0  0
   -6.3450   14.7360    1.7320 C   0  0  0  0  0  0  0  0  0  0  0  0
   -1.1240   12.4880   -5.7430 C   0  0  0  0  0  0  0  0  0  0  0  0
   -2.7730   11.1680   -4.5680 C   0  0  0  0  0  0  0  0  0  0  0  0
   -7.6240   14.6870    0.9320 C   0  0  0  0  0  0  0  0  0  0  0  0
   -7.1120   13.4480    1.6030 C   0  0  0  0  0  0  0  0  0  0  0  0
   -2.0200   11.4120   -5.7080 C   0  0  0  0  0  0  0  0  0  0  0  0
  1  2  1  0
  2  3  2  3
  2  4  1  0
  3  5  1  0
  4  6  2  0
  4  7  1  0
  3  8  1  0
  5  9  1  0
  5 10  2  0
  6 11  1  0
  7 12  2  0
 11 12  1  0
  8 13  2  0
  8 14  1  0
 12 15  1  0
 13 16  1  0
 14 17  2  0
 15 18  1  0
 15 19  1  0
 18 19  1  0
 16 20  2  0
 17 20  1  0
M  END
