diamond-x0727_0_A-diamond-x0685_1_A
     RDKit          3D

 15 15  0  0  0  0  0  0  0  0999 V2000
    0.1870   11.8630   -5.4520 N   0  0  0  0  0  0  0  0  0  0  0  0
    1.1040   12.6270   -4.5880 C   0  0  1  0  0  0  0  0  0  0  0  0
    1.0110   14.1210   -4.9050 C   0  0  0  0  0  0  0  0  0  0  0  0
    0.4870   11.1740   -6.6090 C   0  0  0  0  0  0  0  0  0  0  0  0
   -1.2340   12.0890   -5.2010 C   0  0  0  0  0  0  0  0  0  0  0  0
    1.5070   11.3980   -7.2520 O   0  0  0  0  0  0  0  0  0  0  0  0
    0.8840   12.3360   -3.0560 C   0  0  0  0  0  0  0  0  0  0  0  0
   -0.4710   10.0970   -7.0680 C   0  0  0  0  0  0  0  0  0  0  0  0
    0.4200   11.0220   -2.8670 O   0  0  0  0  0  0  0  0  0  0  0  0
    2.0560   12.5190   -2.3360 O   0  0  0  0  0  0  0  0  0  0  0  0
   -0.0580   13.1920   -2.4570 O   0  0  0  0  0  0  0  0  0  0  0  0
   -0.9850   10.0620   -8.4820 C   0  0  0  0  0  0  0  0  0  0  0  0
   -0.1960    8.6460   -6.7460 C   0  0  0  0  0  0  0  0  0  0  0  0
   -2.0180    8.9370   -8.3430 C   0  0  0  0  0  0  0  0  0  0  0  0
   -1.4860    8.0080   -7.2350 C   0  0  0  0  0  0  0  0  0  0  0  0
  1  2  1  0
  2  3  1  1
  1  4  1  0
  1  5  1  0
  4  6  2  0
  2  7  1  0
  4  8  1  0
  7  9  1  0
  7 10  1  0
  7 11  1  0
  8 12  1  0
  8 13  1  0
 12 14  1  0
 13 15  1  0
 14 15  1  0
M  END
