diamond-x0282_0_A-mac-x1493
     RDKit          3D

 21 23  0  0  0  0  0  0  0  0999 V2000
   -7.7110   13.5150    1.4400 C   0  0  0  0  0  0  0  0  0  0  0  0
   -8.9380   13.7370    0.7320 O   0  0  0  0  0  0  0  0  0  0  0  0
   -6.7100   14.5240    0.9310 C   0  0  1  0  0  0  0  0  0  0  0  0
   -5.6420   14.9330    1.9250 C   0  0  0  0  0  0  0  0  0  0  0  0
   -5.8890   14.1100   -0.2910 C   0  0  2  0  0  0  0  0  0  0  0  0
   -4.4250   14.5430    1.5580 C   0  0  0  0  0  0  0  0  0  0  0  0
   -4.4750   13.7810    0.2780 C   0  0  2  0  0  0  0  0  0  0  0  0
   -6.0470   14.9710   -1.4830 N   0  0  0  0  0  0  0  0  0  0  0  0
   -3.3220   13.8890   -0.7280 C   0  0  2  0  0  0  0  0  0  0  0  0
   -4.9820   14.7330   -2.4420 C   0  0  0  0  0  0  0  0  0  0  0  0
   -3.2130   12.5490   -1.4460 C   0  0  0  0  0  0  0  0  0  0  0  0
   -1.9650   14.2820   -0.1650 C   0  0  0  0  0  0  0  0  0  0  0  0
   -3.6170   14.9630   -1.8110 C   0  0  2  0  0  0  0  0  0  0  0  0
   -2.5770   14.9380   -2.9220 C   0  0  0  0  0  0  0  0  0  0  0  0
   -1.1670   14.7450   -1.1190 N   0  0  0  0  0  0  0  0  0  0  0  0
   -1.6180   14.1860    1.1290 N   0  0  0  0  0  0  0  0  0  0  0  0
   -1.3480   14.5390   -2.5270 O   0  0  0  0  0  0  0  0  0  0  0  0
   -2.7860   15.2400   -4.0820 O   0  0  0  0  0  0  0  0  0  0  0  0
    0.0260   15.1610   -0.7870 C   0  0  0  0  0  0  0  0  0  0  0  0
   -0.3850   14.6200    1.4090 C   0  0  0  0  0  0  0  0  0  0  0  0
    0.4650   15.1360    0.4720 C   0  0  0  0  0  0  0  0  0  0  0  0
  1  2  1  0
  3  1  1  1
  3  4  1  0
  3  5  1  0
  4  6  2  0
  5  7  1  0
  7  6  1  1
  5  8  1  6
  7  9  1  0
  8 10  1  0
  9 11  1  6
  9 12  1  0
  9 13  1  0
 10 13  1  0
 13 14  1  6
 12 15  2  0
 12 16  1  0
 14 17  1  0
 14 18  2  0
 15 19  1  0
 16 20  2  0
 19 21  2  0
 20 21  1  0
M  END
