diamond-x0724_0_A-mac-x0223
     RDKit          3D

 29 31  0  0  0  0  0  0  0  0999 V2000
   -8.2580   13.7990    4.4220 N   0  0  0  0  0  0  0  0  0  0  0  0
   -8.7140   13.9800    5.7940 C   0  0  0  0  0  0  0  0  0  0  0  0
   -8.4460   15.0180    3.6520 C   0  0  0  0  0  0  0  0  0  0  0  0
   -7.7460   14.8640    2.3470 C   0  0  0  0  0  0  0  0  0  0  0  0
   -6.3870   14.8510    2.1020 C   0  0  0  0  0  0  0  0  0  0  0  0
   -8.3120   14.7010    1.0690 C   0  0  0  0  0  0  0  0  0  0  0  0
   -7.3960   14.6020    0.1020 N   0  0  0  0  0  0  0  0  0  0  0  0
   -6.1990   14.7000    0.7440 N   0  0  0  0  0  0  0  0  0  0  0  0
   -4.9650   14.6460    0.0410 C   0  0  0  0  0  0  0  0  0  0  0  0
   -3.7570   14.7330    0.7580 C   0  0  0  0  0  0  0  0  0  0  0  0
   -4.9220   14.5070   -1.3500 C   0  0  0  0  0  0  0  0  0  0  0  0
   -2.5340   14.6690    0.0900 C   0  0  0  0  0  0  0  0  0  0  0  0
   -3.6960   14.4440   -2.0130 C   0  0  0  0  0  0  0  0  0  0  0  0
   -2.4870   14.5180   -1.3040 C   0  0  0  0  0  0  0  0  0  0  0  0
   -1.1690   14.4270   -2.0390 C   0  0  0  0  0  0  0  0  0  0  0  0
    0.0180   13.9570   -1.1890 C   0  0  0  0  0  0  0  0  0  0  0  0
    0.9730   13.2540   -2.0160 O   0  0  0  0  0  0  0  0  0  0  0  0
    0.5050   12.5330   -3.0820 C   0  0  0  0  0  0  0  0  0  0  0  0
    0.7040   13.2710   -4.4010 C   0  0  0  0  0  0  0  0  0  0  0  0
   -0.0080   11.4220   -2.9960 O   0  0  0  0  0  0  0  0  0  0  0  0
   -0.1250   14.5280   -4.5420 C   0  0  0  0  0  0  0  0  0  0  0  0
   -1.5270   14.4650   -4.6330 C   0  0  0  0  0  0  0  0  0  0  0  0
    0.5060   15.7810   -4.5810 C   0  0  0  0  0  0  0  0  0  0  0  0
   -0.2520   16.9430   -4.7030 C   0  0  0  0  0  0  0  0  0  0  0  0
   -2.2860   15.6330   -4.7550 C   0  0  0  0  0  0  0  0  0  0  0  0
    0.2400   18.2050   -4.7490 O   0  0  0  0  0  0  0  0  0  0  0  0
   -1.6320   16.8600   -4.7850 C   0  0  0  0  0  0  0  0  0  0  0  0
    1.2270   18.4260   -5.7280 C   0  0  0  0  0  0  0  0  0  0  0  0
   -2.3200   18.0380   -4.8910 O   0  0  0  0  0  0  0  0  0  0  0  0
  1  2  1  0
  1  3  1  0
  3  4  1  0
  4  5  2  0
  4  6  1  0
  6  7  2  0
  5  8  1  0
  7  8  1  0
  8  9  1  0
  9 10  2  0
  9 11  1  0
 10 12  1  0
 11 13  2  0
 12 14  2  0
 13 14  1  0
 14 15  1  0
 15 16  1  0
 16 17  1  0
 17 18  1  0
 18 19  1  0
 18 20  2  0
 19 21  1  0
 21 22  2  0
 21 23  1  0
 23 24  2  0
 22 25  1  0
 24 26  1  0
 24 27  1  0
 25 27  2  0
 26 28  1  0
 27 29  1  0
M  END
