diamond-x0910_0_A-mac-x0116
     RDKit          3D

 17 19  0  0  0  0  0  0  0  0999 V2000
   -1.7500   13.0060   -1.4400 N   0  0  0  0  0  0  0  0  0  0  0  0
   -1.7890   14.3250   -0.9140 C   0  0  1  0  0  0  0  0  0  0  0  0
   -2.3450   14.4890    0.4220 N   0  0  0  0  0  0  0  0  0  0  0  0
   -0.3360   14.6850   -0.8440 N   0  0  0  0  0  0  0  0  0  0  0  0
   -2.4350   14.9960   -2.0020 N   0  0  0  0  0  0  0  0  0  0  0  0
   -1.3500   15.0880    1.1710 N   0  0  0  0  0  0  0  0  0  0  0  0
   -0.2290   15.0830    0.3960 C   0  0  0  0  0  0  0  0  0  0  0  0
   -3.6190   15.4130   -1.7590 C   0  0  0  0  0  0  0  0  0  0  0  0
   -3.6580   14.8790    0.4440 C   0  0  0  0  0  0  0  0  0  0  0  0
   -4.3260   14.7880    1.6310 N   0  0  0  0  0  0  0  0  0  0  0  0
   -4.3080   15.3150   -0.5890 N   0  0  0  0  0  0  0  0  0  0  0  0
   -5.7700   14.6250    1.7070 C   0  0  0  0  0  0  0  0  0  0  0  0
   -6.2590   13.2170    1.7040 C   0  0  0  0  0  0  0  0  0  0  0  0
   -6.2350   12.5530    0.5100 O   0  0  0  0  0  0  0  0  0  0  0  0
   -6.7630   12.3960    2.6880 C   0  0  0  0  0  0  0  0  0  0  0  0
   -7.0640   11.1680    2.0680 C   0  0  0  0  0  0  0  0  0  0  0  0
   -6.7240   11.3130    0.7450 C   0  0  0  0  0  0  0  0  0  0  0  0
  2  1  1  6
  2  3  1  0
  2  4  1  0
  2  5  1  0
  3  6  1  0
  4  7  2  0
  6  7  1  0
  5  8  2  0
  3  9  1  0
  9 10  1  0
  8 11  1  0
  9 11  2  0
 10 12  1  0
 12 13  1  0
 13 14  1  0
 13 15  2  0
 15 16  1  0
 14 17  1  0
 16 17  2  0
M  END
