diamond-x0587_0_A-diamond-x0438_0_A
     RDKit          3D

 19 20  0  0  0  0  0  0  0  0999 V2000
   -7.8520   15.0770    3.9360 N   0  0  0  0  0  0  0  0  0  0  0  0
   -8.2660   14.4680    2.6690 C   0  0  1  0  0  0  0  0  0  0  0  0
   -9.5950   15.0180    2.3020 N   0  0  0  0  0  0  0  0  0  0  0  0
   -7.1990   14.6100    1.6190 C   0  0  0  0  0  0  0  0  0  0  0  0
  -10.4710   14.9200    3.4640 O   0  0  0  0  0  0  0  0  0  0  0  0
   -9.4340   16.4280    2.0020 O   0  0  0  0  0  0  0  0  0  0  0  0
   -7.6150   14.6110    0.1930 C   0  0  0  0  0  0  0  0  0  0  0  0
   -5.8780   14.7440    1.8080 C   0  0  0  0  0  0  0  0  0  0  0  0
   -6.8810   14.6540   -0.8680 N   0  0  0  0  0  0  0  0  0  0  0  0
   -4.9450   14.8520    0.7990 N   0  0  0  0  0  0  0  0  0  0  0  0
   -5.4130   14.6970   -0.6060 C   0  0  1  0  0  0  0  0  0  0  0  0
   -3.5780   14.8760    0.9810 C   0  0  0  0  0  0  0  0  0  0  0  0
   -4.6620   13.5830   -1.4000 C   0  0  0  0  0  0  0  0  0  0  0  0
   -4.6860   15.6770   -1.4500 C   0  0  0  0  0  0  0  0  0  0  0  0
   -2.7880   15.4140    0.0400 C   0  0  0  0  0  0  0  0  0  0  0  0
   -3.3430   13.5640   -1.0760 F   0  0  0  0  0  0  0  0  0  0  0  0
   -5.1520   12.3390   -1.3220 F   0  0  0  0  0  0  0  0  0  0  0  0
   -4.6940   13.9520   -2.7120 F   0  0  0  0  0  0  0  0  0  0  0  0
   -3.4100   15.9750   -1.1430 C   0  0  0  0  0  0  0  0  0  0  0  0
  2  1  1  1
  2  3  1  0
  2  4  1  0
  3  5  1  0
  3  6  1  0
  4  7  1  0
  4  8  2  0
  7  9  2  0
  8 10  1  0
 11  9  1  0
 10 11  1  0
 10 12  1  0
 11 13  1  6
 11 14  1  0
 12 15  2  0
 13 16  1  0
 13 17  1  0
 13 18  1  0
 14 19  2  0
 15 19  1  0
M  END
