diamond-x0371_0_A-mac-x0284
     RDKit          3D

 22 24  0  0  0  0  0  0  0  0999 V2000
   -7.7360   14.7880    2.8660 N   0  0  0  0  0  0  0  0  0  0  0  0
   -8.5570   15.5580    3.6510 C   0  0  0  0  0  0  0  0  0  0  0  0
   -9.3650   16.2900    3.0710 O   0  0  0  0  0  0  0  0  0  0  0  0
   -7.9590   14.4390    1.4930 C   0  0  0  0  0  0  0  0  0  0  0  0
   -6.7120   14.5970    0.6810 C   0  0  0  0  0  0  0  0  0  0  0  0
   -8.4840   15.5050    5.0910 C   0  0  0  0  0  0  0  0  0  0  0  0
   -5.4340   14.4530    1.1890 N   0  0  0  0  0  0  0  0  0  0  0  0
   -6.6670   14.8790   -0.6050 N   0  0  0  0  0  0  0  0  0  0  0  0
   -7.9580   14.4240    5.7360 O   0  0  0  0  0  0  0  0  0  0  0  0
   -8.8900   16.4360    6.0280 C   0  0  0  0  0  0  0  0  0  0  0  0
   -5.3380   14.8980   -0.9470 C   0  0  0  0  0  0  0  0  0  0  0  0
   -4.5290   14.6360    0.1510 C   0  0  0  0  0  0  0  0  0  0  0  0
   -8.5910   15.8920    7.3000 C   0  0  0  0  0  0  0  0  0  0  0  0
   -8.0230   14.6660    7.0650 C   0  0  0  0  0  0  0  0  0  0  0  0
   -3.1100   14.5830    0.0610 C   0  0  0  0  0  0  0  0  0  0  0  0
   -4.7480   15.1320   -2.2010 C   0  0  0  0  0  0  0  0  0  0  0  0
   -2.5100   14.8000   -1.2330 C   0  0  0  0  0  0  0  0  0  0  0  0
   -3.3440   15.0730   -2.3300 C   0  0  0  0  0  0  0  0  0  0  0  0
   -2.7730   15.2810   -3.5750 O   0  0  0  0  0  0  0  0  0  0  0  0
   -0.9960   14.7300   -1.4680 C   0  0  0  0  0  0  0  0  0  0  0  0
   -0.0870   14.6970   -0.6630 O   0  0  0  0  0  0  0  0  0  0  0  0
   -0.6650   14.6930   -2.7890 O   0  0  0  0  0  0  0  0  0  0  0  0
  1  2  1  0
  2  3  2  0
  1  4  1  0
  4  5  1  0
  2  6  1  0
  5  7  1  0
  5  8  2  0
  6  9  1  0
  6 10  2  0
  8 11  1  0
  7 12  1  0
 11 12  2  0
 10 13  1  0
  9 14  1  0
 13 14  2  0
 12 15  1  0
 11 16  1  0
 15 17  2  0
 16 18  2  0
 17 18  1  0
 18 19  1  0
 17 20  1  0
 20 21  2  0
 20 22  1  0
M  END
