diamond-x0722_0_A-mac-x0137
     RDKit          3D

 23 25  0  0  0  0  0  0  0  0999 V2000
   -4.3270   15.8970    2.4140 C   0  0  0  0  0  0  0  0  0  0  0  0
   -3.2850   15.3710    1.5140 C   0  0  0  0  0  0  0  0  0  0  0  0
   -2.0990   15.0350    1.9960 N   0  0  0  0  0  0  0  0  0  0  0  0
   -3.5180   15.2240    0.0770 C   0  0  0  0  0  0  0  0  0  0  0  0
   -4.7540   15.5440   -0.7060 C   0  0  0  0  0  0  0  0  0  0  0  0
   -1.3550   14.6460    0.8170 C   0  0  2  0  0  0  0  0  0  0  0  0
   -2.3400   14.7480   -0.2730 C   0  0  0  0  0  0  0  0  0  0  0  0
   -0.5680   13.4430    1.0020 C   0  0  0  0  0  0  0  0  0  0  0  0
   -5.9300   14.6250   -0.4280 C   0  0  0  0  0  0  0  0  0  0  0  0
   -1.8470   14.3470   -1.5080 C   0  0  0  0  0  0  0  0  0  0  0  0
   -0.1790   15.4200    0.3710 C   0  0  0  0  0  0  0  0  0  0  0  0
   -7.0940   14.9500   -0.6480 O   0  0  0  0  0  0  0  0  0  0  0  0
   -5.6480   13.3950    0.0830 N   0  0  0  0  0  0  0  0  0  0  0  0
   -2.7970   13.6130   -2.3610 C   0  0  0  0  0  0  0  0  0  0  0  0
    0.1920   15.3860   -0.8720 N   0  0  0  0  0  0  0  0  0  0  0  0
   -0.5840   14.6680   -1.7790 C   0  0  0  0  0  0  0  0  0  0  0  0
   -0.0540   14.2960   -2.9960 N   0  0  0  0  0  0  0  0  0  0  0  0
   -0.8690   14.4920   -4.2090 C   0  0  0  0  0  0  0  0  0  0  0  0
    0.9920   13.2660   -3.0660 C   0  0  0  0  0  0  0  0  0  0  0  0
   -1.4260   13.1850   -4.7910 C   0  0  2  0  0  0  0  0  0  0  0  0
    0.5500   11.9710   -3.7540 C   0  0  0  0  0  0  0  0  0  0  0  0
   -2.7870   13.2080   -4.6430 F   0  0  0  0  0  0  0  0  0  0  0  0
   -0.9360   11.9210   -4.0890 C   0  0  0  0  0  0  0  0  0  0  0  0
  1  2  1  0
  2  3  2  0
  2  4  1  0
  4  5  1  0
  3  6  1  0
  4  7  2  0
  6  7  1  0
  6  8  1  1
  5  9  1  0
  7 10  1  0
  6 11  1  0
  9 12  2  0
  9 13  1  0
 10 14  1  0
 11 15  2  0
 10 16  2  0
 15 16  1  0
 16 17  1  0
 17 18  1  0
 17 19  1  0
 18 20  1  0
 19 21  1  0
 20 22  1  1
 20 23  1  0
 21 23  1  0
M  END
