diamond-x0104_0_A-mac-x0302
     RDKit          3D

 22 23  0  0  0  0  0  0  0  0999 V2000
   -6.7190   14.8040    2.6830 N   0  0  0  0  0  0  0  0  0  0  0  0
   -7.9730   15.0820    3.1300 C   0  0  0  0  0  0  0  0  0  0  0  0
   -8.1620   15.1050    4.4880 N   0  0  0  0  0  0  0  0  0  0  0  0
   -6.1800   14.7530    1.3850 C   0  0  0  0  0  0  0  0  0  0  0  0
   -8.9550   15.3140    2.4290 O   0  0  0  0  0  0  0  0  0  0  0  0
   -4.8160   14.8080    1.1290 C   0  0  0  0  0  0  0  0  0  0  0  0
   -7.0380   14.6410    0.2840 C   0  0  0  0  0  0  0  0  0  0  0  0
   -4.2670   14.7530   -0.1060 N   0  0  0  0  0  0  0  0  0  0  0  0
   -6.4980   14.5870   -1.0040 C   0  0  0  0  0  0  0  0  0  0  0  0
   -9.2880   15.0870    5.2800 C   0  0  0  0  0  0  0  0  0  0  0  0
   -5.1160   14.6430   -1.1500 C   0  0  0  0  0  0  0  0  0  0  0  0
   -9.2940   15.2020    6.6560 C   0  0  0  0  0  0  0  0  0  0  0  0
  -10.8650   14.9120    4.6600 S   0  0  0  0  0  0  0  0  0  0  0  0
   -4.6260   14.5740   -2.4410 O   0  0  0  0  0  0  0  0  0  0  0  0
  -11.5640   14.9880    6.2100 C   0  0  0  0  0  0  0  0  0  0  0  0
  -10.6170   15.1450    7.1970 C   0  0  0  0  0  0  0  0  0  0  0  0
   -3.3900   15.2490   -2.6500 C   0  0  0  0  0  0  0  0  0  0  0  0
   -2.2370   14.3530   -2.4410 N   0  0  0  0  0  0  0  0  0  0  0  0
   -1.1010   14.6000   -3.3600 C   0  0  0  0  0  0  0  0  0  0  0  0
    0.2190   14.0610   -2.8280 C   0  0  0  0  0  0  0  0  0  0  0  0
    1.2280   14.1000   -3.7230 O   0  0  0  0  0  0  0  0  0  0  0  0
    0.4100   13.6170   -1.7050 O   0  0  0  0  0  0  0  0  0  0  0  0
  1  2  1  0
  2  3  1  0
  1  4  1  0
  2  5  2  0
  4  6  2  0
  4  7  1  0
  6  8  1  0
  7  9  2  0
  3 10  1  0
  8 11  2  0
  9 11  1  0
 10 12  2  0
 10 13  1  0
 11 14  1  0
 13 15  1  0
 12 16  1  0
 15 16  2  0
 14 17  1  0
 17 18  1  0
 18 19  1  0
 19 20  1  0
 20 21  1  0
 20 22  2  0
M  END
