diamond-x0950_0_A-mac-x0319
     RDKit          3D

 13 13  0  0  0  0  0  0  0  0999 V2000
    2.9250   12.6220   -4.3150 C   0  0  0  0  0  0  0  0  0  0  0  0
    1.3930   12.6390   -4.3060 C   0  0  1  0  0  0  0  0  0  0  0  0
    0.9400   11.8440   -5.4250 O   0  0  0  0  0  0  0  0  0  0  0  0
    0.9470   11.9130   -3.0150 C   0  0  0  0  0  0  0  0  0  0  0  0
    0.6840   13.9730   -4.4100 C   0  0  0  0  0  0  0  0  0  0  0  0
    0.5320   10.7740   -2.9210 O   0  0  0  0  0  0  0  0  0  0  0  0
    1.0680   12.7370   -1.9360 O   0  0  0  0  0  0  0  0  0  0  0  0
    1.3380   15.2030   -4.2350 C   0  0  0  0  0  0  0  0  0  0  0  0
   -0.6960   13.9850   -4.6920 C   0  0  0  0  0  0  0  0  0  0  0  0
    0.6180   16.3910   -4.3420 C   0  0  0  0  0  0  0  0  0  0  0  0
   -1.4000   15.1830   -4.7990 C   0  0  0  0  0  0  0  0  0  0  0  0
    1.2800   17.5640   -4.1620 O   0  0  0  0  0  0  0  0  0  0  0  0
   -0.7390   16.3900   -4.6240 C   0  0  0  0  0  0  0  0  0  0  0  0
  2  1  1  1
  2  3  1  0
  2  4  1  0
  2  5  1  0
  4  6  2  0
  4  7  1  0
  5  8  2  0
  5  9  1  0
  8 10  1  0
  9 11  2  0
 10 12  1  0
 10 13  2  0
 11 13  1  0
M  END
