diamond-x0962_2_B-mac-x0397
     RDKit          3D

 18 20  0  0  0  0  0  0  0  0999 V2000
  -11.6030   16.1590    1.4820 N   0  0  0  0  0  0  0  0  0  0  0  0
  -10.6570   15.9560    2.1060 C   0  0  0  0  0  0  0  0  0  0  0  0
   -9.4470   15.6660    2.7690 C   0  0  0  0  0  0  0  0  0  0  0  0
   -9.1360   16.0660    4.0510 N   0  0  0  0  0  0  0  0  0  0  0  0
   -8.4490   14.9560    2.1950 C   0  0  0  0  0  0  0  0  0  0  0  0
   -7.9210   15.5830    4.2370 C   0  0  0  0  0  0  0  0  0  0  0  0
   -7.4890   14.9150    3.1180 N   0  0  0  0  0  0  0  0  0  0  0  0
   -6.3080   14.3080    2.9290 N   0  0  0  0  0  0  0  0  0  0  0  0
   -5.4930   14.4620    1.8450 C   0  0  0  0  0  0  0  0  0  0  0  0
   -5.9780   14.7550    0.6650 N   0  0  0  0  0  0  0  0  0  0  0  0
   -3.7750   14.2920    1.8560 S   0  0  0  0  0  0  0  0  0  0  0  0
   -4.9670   14.8480   -0.2880 C   0  0  0  0  0  0  0  0  0  0  0  0
   -3.6830   14.6200    0.1930 C   0  0  0  0  0  0  0  0  0  0  0  0
   -5.0940   15.1340   -1.6510 C   0  0  0  0  0  0  0  0  0  0  0  0
   -2.5460   14.6680   -0.6300 C   0  0  0  0  0  0  0  0  0  0  0  0
   -6.6900   15.3990   -2.1940 Cl  0  0  0  0  0  0  0  0  0  0  0  0
   -3.9920   15.1910   -2.5010 C   0  0  0  0  0  0  0  0  0  0  0  0
   -2.7230   14.9560   -1.9850 C   0  0  0  0  0  0  0  0  0  0  0  0
  1  2  3  0
  2  3  1  0
  3  4  1  0
  3  5  2  0
  4  6  2  0
  5  7  1  0
  6  7  1  0
  7  8  1  0
  8  9  1  0
  9 10  2  0
  9 11  1  0
 10 12  1  0
 11 13  1  0
 12 13  2  0
 12 14  1  0
 13 15  1  0
 14 16  1  0
 14 17  2  0
 15 18  2  0
 17 18  1  0
M  END
