diamond-x0962_2_B-diamond-x0895_0_A
     RDKit          3D

 16 17  0  0  0  0  0  0  0  0999 V2000
  -11.5070   16.3490    1.4460 N   0  0  0  0  0  0  0  0  0  0  0  0
  -10.5580   16.0310    2.0210 C   0  0  0  0  0  0  0  0  0  0  0  0
   -9.3360   15.6350    2.6070 C   0  0  0  0  0  0  0  0  0  0  0  0
   -8.9440   15.8830    3.9080 N   0  0  0  0  0  0  0  0  0  0  0  0
   -8.3940   14.9610    1.9180 C   0  0  0  0  0  0  0  0  0  0  0  0
   -7.7360   15.3500    3.9830 C   0  0  0  0  0  0  0  0  0  0  0  0
   -7.3830   14.7890    2.7700 N   0  0  0  0  0  0  0  0  0  0  0  0
   -6.1500   14.1300    2.4010 C   0  0  0  0  0  0  0  0  0  0  0  0
   -5.8400   14.1680    0.8900 C   0  0  0  0  0  0  0  0  0  0  0  0
   -4.7340   15.0550    0.5270 N   0  0  0  0  0  0  0  0  0  0  0  0
   -3.8510   15.5990    1.5200 C   0  0  0  0  0  0  0  0  0  0  0  0
   -3.9720   14.9170   -0.6110 C   0  0  0  0  0  0  0  0  0  0  0  0
   -4.3340   15.1010   -1.7580 O   0  0  0  0  0  0  0  0  0  0  0  0
   -2.5920   14.8370    1.1160 C   0  0  0  0  0  0  0  0  0  0  0  0
   -2.7340   14.5360   -0.2050 N   0  0  0  0  0  0  0  0  0  0  0  0
   -1.6300   14.5430    1.8150 O   0  0  0  0  0  0  0  0  0  0  0  0
  1  2  3  0
  2  3  1  0
  3  4  1  0
  3  5  2  0
  4  6  2  0
  5  7  1  0
  6  7  1  0
  7  8  1  0
  8  9  1  0
  9 10  1  0
 10 11  1  0
 10 12  1  0
 12 13  2  0
 11 14  1  0
 12 15  1  0
 14 15  1  0
 14 16  2  0
M  END
