diamond-x0962_2_B-diamond-x0421_0_A
     RDKit          3D

 17 19  0  0  0  0  0  0  0  0999 V2000
  -10.8830   16.3730    0.9920 N   0  0  0  0  0  0  0  0  0  0  0  0
  -10.0740   15.9950    1.7370 C   0  0  0  0  0  0  0  0  0  0  0  0
   -9.0190   15.6180    2.6210 C   0  0  0  0  0  0  0  0  0  0  0  0
   -9.0470   16.0190    3.8580 N   0  0  0  0  0  0  0  0  0  0  0  0
   -7.8280   14.8150    2.3380 C   0  0  1  0  0  0  0  0  0  0  0  0
   -7.8990   15.5040    4.4220 C   0  0  0  0  0  0  0  0  0  0  0  0
   -7.1440   14.7990    3.6380 N   0  0  0  0  0  0  0  0  0  0  0  0
   -7.7750   13.5530    1.5370 C   0  0  0  0  0  0  0  0  0  0  0  0
   -7.1170   14.7770    0.9850 C   0  0  2  0  0  0  0  0  0  0  0  0
   -5.5770   14.8250    0.6750 C   0  0  0  0  0  0  0  0  0  0  0  0
   -4.5090   14.8450    1.5190 N   0  0  0  0  0  0  0  0  0  0  0  0
   -5.1580   14.8560   -0.5720 N   0  0  0  0  0  0  0  0  0  0  0  0
   -3.7730   14.8940   -0.5470 C   0  0  0  0  0  0  0  0  0  0  0  0
   -3.3560   14.8910    0.7730 C   0  0  0  0  0  0  0  0  0  0  0  0
   -2.9660   14.9250   -1.7710 C   0  0  0  0  0  0  0  0  0  0  0  0
   -3.6550   15.1240   -2.9380 N   0  0  0  0  0  0  0  0  0  0  0  0
   -1.7440   14.7760   -1.8070 O   0  0  0  0  0  0  0  0  0  0  0  0
  1  2  3  0
  2  3  1  0
  3  4  2  0
  3  5  1  0
  4  6  1  0
  5  7  1  0
  6  7  2  0
  5  8  1  1
  5  9  1  0
  8  9  1  0
  9 10  1  1
 10 11  1  0
 10 12  2  0
 12 13  1  0
 11 14  1  0
 13 14  2  0
 13 15  1  0
 15 16  1  0
 15 17  2  0
M  END
