diamond-x0421_0_A-mac-x0131
     RDKit          3D

 26 30  0  0  0  0  0  0  0  0999 V2000
   -4.6860   12.1840   -1.7880 C   0  0  0  0  0  0  0  0  0  0  0  0
   -4.8550   13.0680   -0.6300 C   0  0  0  0  0  0  0  0  0  0  0  0
   -3.8980   13.7780   -0.0220 C   0  0  0  0  0  0  0  0  0  0  0  0
   -6.0670   13.2800   -0.0110 N   0  0  0  0  0  0  0  0  0  0  0  0
   -4.4970   14.4610    0.9770 N   0  0  0  0  0  0  0  0  0  0  0  0
   -5.8180   14.1350    0.9730 C   0  0  0  0  0  0  0  0  0  0  0  0
   -6.9630   14.6030    1.9000 C   0  0  0  0  0  0  0  0  0  0  0  0
   -3.7020   15.2470    1.6910 N   0  0  0  0  0  0  0  0  0  0  0  0
   -8.3380   14.9230    1.3900 C   0  0  0  0  0  0  0  0  0  0  0  0
   -8.0970   13.6610    2.1710 C   0  0  0  0  0  0  0  0  0  0  0  0
   -2.5230   15.0320    1.0180 C   0  0  0  0  0  0  0  0  0  0  0  0
   -2.5100   15.0200   -0.4110 C   0  0  0  0  0  0  0  0  0  0  0  0
   -1.3910   14.8010    1.6820 N   0  0  0  0  0  0  0  0  0  0  0  0
   -3.4560   15.2130   -1.5040 C   0  0  0  0  0  0  0  0  0  0  0  0
   -1.2780   14.7560   -1.0030 C   0  0  0  0  0  0  0  0  0  0  0  0
   -0.2890   14.5770    0.9790 C   0  0  0  0  0  0  0  0  0  0  0  0
   -4.9140   15.5340   -1.4440 C   0  0  0  0  0  0  0  0  0  0  0  0
   -2.7510   15.0410   -2.6820 C   0  0  0  0  0  0  0  0  0  0  0  0
   -1.4400   14.7650   -2.3660 N   0  0  0  0  0  0  0  0  0  0  0  0
   -0.1280   14.5290   -0.3530 N   0  0  0  0  0  0  0  0  0  0  0  0
   -0.3850   14.5100   -3.3280 C   0  0  0  0  0  0  0  0  0  0  0  0
   -0.3240   13.0440   -3.5330 C   0  0  0  0  0  0  0  0  0  0  0  0
    0.5710   12.0360   -3.2350 C   0  0  0  0  0  0  0  0  0  0  0  0
   -1.4140   12.5150   -4.1630 O   0  0  0  0  0  0  0  0  0  0  0  0
   -1.2180   11.1800   -4.2630 C   0  0  0  0  0  0  0  0  0  0  0  0
   -0.0150   10.8360   -3.7060 C   0  0  0  0  0  0  0  0  0  0  0  0
  1  2  1  0
  2  3  2  0
  2  4  1  0
  3  5  1  0
  4  6  2  0
  5  6  1  0
  6  7  1  0
  5  8  1  0
  7  9  1  0
  7 10  1  0
  9 10  1  0
  8 11  1  0
 11 12  1  0
 11 13  2  0
 12 14  1  0
 12 15  2  0
 13 16  1  0
 14 17  1  0
 14 18  2  0
 15 19  1  0
 18 19  1  0
 15 20  1  0
 16 20  2  0
 19 21  1  0
 21 22  1  0
 22 23  2  0
 22 24  1  0
 24 25  1  0
 23 26  1  0
 25 26  2  0
M  END
