diamond-x0685_0_A-mac-x0231
     RDKit          3D

 26 28  0  0  0  0  0  0  0  0999 V2000
   -6.0750   14.7460    2.6830 N   0  0  0  0  0  0  0  0  0  0  0  0
   -7.5020   14.8340    2.9530 C   0  0  0  0  0  0  0  0  0  0  0  0
   -8.0480   13.4300    3.1240 C   0  0  0  0  0  0  0  0  0  0  0  0
   -5.6360   14.8770    1.3840 C   0  0  0  0  0  0  0  0  0  0  0  0
   -4.3090   15.1230    1.0700 C   0  0  0  0  0  0  0  0  0  0  0  0
   -6.5980   14.7440    0.4480 N   0  0  0  0  0  0  0  0  0  0  0  0
   -3.9640   15.2300   -0.2720 C   0  0  0  0  0  0  0  0  0  0  0  0
   -6.2410   14.8550   -0.8460 C   0  0  0  0  0  0  0  0  0  0  0  0
   -4.9590   15.0890   -1.2550 C   0  0  0  0  0  0  0  0  0  0  0  0
   -4.5840   15.1760   -2.6200 C   0  0  0  0  0  0  0  0  0  0  0  0
   -3.9080   15.0730   -3.5730 C   0  0  0  0  0  0  0  0  0  0  0  0
   -2.6570   14.7690   -4.0160 C   0  0  0  0  0  0  0  0  0  0  0  0
   -1.7710   15.7780   -4.2610 C   0  0  0  0  0  0  0  0  0  0  0  0
   -2.3360   13.4260   -4.0960 C   0  0  0  0  0  0  0  0  0  0  0  0
   -0.4760   15.4300   -4.5100 C   0  0  0  0  0  0  0  0  0  0  0  0
   -1.0420   13.0780   -4.3560 C   0  0  0  0  0  0  0  0  0  0  0  0
   -0.1130   14.0900   -4.5200 C   0  0  0  0  0  0  0  0  0  0  0  0
    0.5360   16.4530   -4.7160 C   0  0  0  0  0  0  0  0  0  0  0  0
    0.2580   17.6110   -5.0150 O   0  0  0  0  0  0  0  0  0  0  0  0
    1.2920   13.7780   -4.6500 C   0  0  0  0  0  0  0  0  0  0  0  0
    1.7960   15.9940   -4.5320 N   0  0  0  0  0  0  0  0  0  0  0  0
    1.7080   12.3390   -4.6480 C   0  0  0  0  0  0  0  0  0  0  0  0
    2.1840   14.6930   -4.6180 N   0  0  0  0  0  0  0  0  0  0  0  0
    1.3720   11.8590   -3.2600 C   0  0  0  0  0  0  0  0  0  0  0  0
    0.9040   10.6080   -3.1850 O   0  0  0  0  0  0  0  0  0  0  0  0
    1.4830   12.5090   -2.2320 O   0  0  0  0  0  0  0  0  0  0  0  0
  1  2  1  0
  2  3  1  0
  1  4  1  0
  4  5  2  0
  4  6  1  0
  5  7  1  0
  6  8  2  0
  7  9  2  0
  8  9  1  0
  9 10  1  0
 10 11  3  0
 11 12  1  0
 12 13  2  0
 12 14  1  0
 13 15  1  0
 14 16  2  0
 15 17  2  0
 16 17  1  0
 15 18  1  0
 18 19  2  0
 17 20  1  0
 18 21  1  0
 20 22  1  0
 20 23  2  0
 21 23  1  0
 22 24  1  0
 24 25  1  0
 24 26  2  0
M  END
