diamond-x0104_0_A-diamond-x0421_0_A
     RDKit          3D

 22 25  0  0  0  0  0  0  0  0999 V2000
   -6.5760   14.8630    2.6180 N   0  0  0  0  0  0  0  0  0  0  0  0
   -7.9080   14.9990    3.0350 C   0  0  0  0  0  0  0  0  0  0  0  0
   -7.9760   15.0050    4.4220 N   0  0  0  0  0  0  0  0  0  0  0  0
   -6.0920   14.2920    1.3330 C   0  0  2  0  0  0  0  0  0  0  0  0
   -8.8470   15.1060    2.2590 O   0  0  0  0  0  0  0  0  0  0  0  0
   -4.6960   14.8810    0.9180 C   0  0  0  0  0  0  0  0  0  0  0  0
   -7.2340   14.4400    0.2570 C   0  0  1  0  0  0  0  0  0  0  0  0
   -6.0540   12.7910    1.4690 C   0  0  0  0  0  0  0  0  0  0  0  0
   -4.4730   14.8660   -0.5330 N   0  0  0  0  0  0  0  0  0  0  0  0
   -6.8110   14.6280   -1.2110 C   0  0  0  0  0  0  0  0  0  0  0  0
   -9.1200   15.0330    5.2090 C   0  0  0  0  0  0  0  0  0  0  0  0
   -7.1370   12.1910    0.9720 C   0  0  0  0  0  0  0  0  0  0  0  0
   -8.0980   13.1790    0.4150 C   0  0  0  0  0  0  0  0  0  0  0  0
   -3.2520   14.8710   -1.2180 C   0  0  0  0  0  0  0  0  0  0  0  0
   -5.4880   15.3330   -1.3950 C   0  0  2  0  0  0  0  0  0  0  0  0
   -9.1610   15.1710    6.5820 C   0  0  0  0  0  0  0  0  0  0  0  0
  -10.6830   14.8910    4.5480 S   0  0  0  0  0  0  0  0  0  0  0  0
   -3.5810   15.0330   -2.6730 C   0  0  0  0  0  0  0  0  0  0  0  0
   -5.0120   15.0850   -2.7100 O   0  0  0  0  0  0  0  0  0  0  0  0
   -2.1200   14.7660   -0.7800 O   0  0  0  0  0  0  0  0  0  0  0  0
  -11.4280   15.0130    6.0860 C   0  0  0  0  0  0  0  0  0  0  0  0
  -10.4980   15.1590    7.0900 C   0  0  0  0  0  0  0  0  0  0  0  0
  1  2  1  0
  2  3  1  0
  4  1  1  1
  2  5  2  0
  4  6  1  0
  4  7  1  0
  4  8  1  0
  6  9  1  0
  7 10  1  6
  3 11  1  0
  8 12  2  0
  7 13  1  0
 12 13  1  0
  9 14  1  0
  9 15  1  0
 15 10  1  1
 11 16  2  0
 11 17  1  0
 14 18  1  0
 15 19  1  0
 18 19  1  0
 14 20  2  0
 17 21  1  0
 16 22  1  0
 21 22  2  0
M  END
