diamond-x0662_0_A-mac-x0576
     RDKit          3D

 34 37  0  0  0  0  0  0  0  0999 V2000
    5.3530    9.5700  -15.0510 C   0  0  0  0  0  0  0  0  0  0  0  0
    4.3030   10.0160  -14.1650 N   0  0  0  0  0  0  0  0  0  0  0  0
    3.6380   11.2130  -14.2090 C   0  0  0  0  0  0  0  0  0  0  0  0
    3.9030    9.2100  -13.1760 N   0  0  0  0  0  0  0  0  0  0  0  0
    2.7420   11.1720  -13.1640 C   0  0  0  0  0  0  0  0  0  0  0  0
    2.9390    9.9000  -12.5360 C   0  0  0  0  0  0  0  0  0  0  0  0
    2.2440    9.3290  -11.3450 C   0  0  0  0  0  0  0  0  0  0  0  0
    2.4150    8.1650  -11.0190 O   0  0  0  0  0  0  0  0  0  0  0  0
    1.4370   10.2440  -10.6850 N   0  0  0  0  0  0  0  0  0  0  0  0
    0.6900   10.0640   -9.4920 C   0  0  0  0  0  0  0  0  0  0  0  0
   -0.2570    9.0330   -9.4980 C   0  0  0  0  0  0  0  0  0  0  0  0
    0.8280   10.8300   -8.3310 C   0  0  0  0  0  0  0  0  0  0  0  0
   -1.0420    8.7810   -8.3720 C   0  0  0  0  0  0  0  0  0  0  0  0
    0.0530   10.6060   -7.1840 C   0  0  0  0  0  0  0  0  0  0  0  0
    0.1710   11.4280   -5.9010 C   0  0  0  0  0  0  0  0  0  0  0  0
   -0.8880    9.5630   -7.2210 C   0  0  0  0  0  0  0  0  0  0  0  0
   -0.7710   11.3400   -5.0190 N   0  0  0  0  0  0  0  0  0  0  0  0
    1.2220   12.0970   -5.9110 O   0  0  0  0  0  0  0  0  0  0  0  0
   -0.5850   12.1670   -3.8250 C   0  0  0  0  0  0  0  0  0  0  0  0
   -0.2560   13.5900   -4.2950 C   0  0  0  0  0  0  0  0  0  0  0  0
   -0.3180   14.6700   -3.2120 C   0  0  0  0  0  0  0  0  0  0  0  0
   -1.6190   14.8260   -2.5630 N   0  0  0  0  0  0  0  0  0  0  0  0
   -1.7010   14.8270   -1.2780 C   0  0  0  0  0  0  0  0  0  0  0  0
   -0.6550   14.6880   -0.4050 N   0  0  0  0  0  0  0  0  0  0  0  0
   -3.1010   15.0190   -0.6490 C   0  0  2  0  0  0  0  0  0  0  0  0
   -0.8840   14.1040    0.8630 C   0  0  1  0  0  0  0  0  0  0  0  0
   -3.2050   14.2110    0.6440 C   0  0  1  0  0  0  0  0  0  0  0  0
   -4.2040   14.6890   -1.5650 N   0  0  0  0  0  0  0  0  0  0  0  0
    0.0910   14.2660    1.9040 N   0  0  0  0  0  0  0  0  0  0  0  0
   -2.0970   14.4100    1.5500 N   0  0  0  0  0  0  0  0  0  0  0  0
   -4.3760   14.6770    1.3240 N   0  0  0  0  0  0  0  0  0  0  0  0
   -5.4080   15.2350   -0.9020 C   0  0  0  0  0  0  0  0  0  0  0  0
   -5.5210   14.9020    0.6080 C   0  0  0  0  0  0  0  0  0  0  0  0
   -6.6180   14.8320    1.1680 O   0  0  0  0  0  0  0  0  0  0  0  0
  1  2  1  0
  2  3  1  0
  2  4  1  0
  3  5  2  0
  4  6  2  0
  5  6  1  0
  6  7  1  0
  7  8  2  0
  7  9  1  0
  9 10  1  0
 10 11  2  0
 10 12  1  0
 11 13  1  0
 12 14  2  0
 14 15  1  0
 13 16  2  0
 14 16  1  0
 15 17  2  3
 15 18  1  0
 17 19  1  0
 19 20  1  0
 20 21  1  0
 21 22  1  0
 22 23  2  3
 23 24  1  0
 23 25  1  0
 24 26  1  0
 25 27  1  0
 25 28  1  6
 26 29  1  1
 26 30  1  0
 27 30  1  1
 27 31  1  0
 28 32  1  0
 31 33  1  0
 32 33  1  0
 33 34  2  0
M  CHG  1  18  -1
M  END
