diamond-x0689_0_A-mac-x0333
     RDKit          3D

 18 20  0  0  0  0  0  0  0  0999 V2000
   -3.1560   14.2960    2.0410 N   0  0  0  0  0  0  0  0  0  0  0  0
   -4.1730   15.2580    1.7600 C   0  0  0  0  0  0  0  0  0  0  0  0
   -4.4510   15.1970    0.3230 C   0  0  0  0  0  0  0  0  0  0  0  0
   -2.0740   14.3650    1.2150 C   0  0  0  0  0  0  0  0  0  0  0  0
   -2.2000   13.9300   -0.0470 N   0  0  0  0  0  0  0  0  0  0  0  0
   -0.9730   14.8660    1.7060 N   0  0  0  0  0  0  0  0  0  0  0  0
   -1.1140   14.0380   -0.8360 C   0  0  0  0  0  0  0  0  0  0  0  0
    0.0760   14.9620    0.8960 C   0  0  0  0  0  0  0  0  0  0  0  0
   -5.7240   15.0110   -0.0690 C   0  0  0  0  0  0  0  0  0  0  0  0
   -3.4670   15.3140   -0.6640 C   0  0  0  0  0  0  0  0  0  0  0  0
    0.0760   14.5600   -0.4070 C   0  0  0  0  0  0  0  0  0  0  0  0
   -3.8060   15.2420   -2.0150 C   0  0  0  0  0  0  0  0  0  0  0  0
   -6.0690   14.9420   -1.3820 C   0  0  0  0  0  0  0  0  0  0  0  0
   -6.7760   14.8720    0.7780 O   0  0  0  0  0  0  0  0  0  0  0  0
   -2.8550   15.3500   -3.0000 O   0  0  0  0  0  0  0  0  0  0  0  0
   -5.1320   15.0540   -2.3920 C   0  0  0  0  0  0  0  0  0  0  0  0
   -7.4010   14.7530   -1.5340 O   0  0  0  0  0  0  0  0  0  0  0  0
   -7.8460   14.7550   -0.1650 C   0  0  0  0  0  0  0  0  0  0  0  0
  1  2  1  0
  2  3  1  0
  1  4  1  0
  4  5  2  0
  4  6  1  0
  5  7  1  0
  6  8  2  0
  3  9  1  0
  3 10  2  0
  7 11  2  0
  8 11  1  0
 10 12  1  0
  9 13  2  0
  9 14  1  0
 12 15  1  0
 12 16  2  0
 13 16  1  0
 13 17  1  0
 14 18  1  0
 17 18  1  0
M  END
