diamond-x0421_0_A-mac-x0555
     RDKit          3D

 12 13  0  0  0  0  0  0  0  0999 V2000
   -3.7100   15.1640   -3.0170 N   0  0  0  0  0  0  0  0  0  0  0  0
   -2.8650   14.9400   -1.9630 C   0  0  0  0  0  0  0  0  0  0  0  0
   -1.6620   14.8150   -2.1660 O   0  0  0  0  0  0  0  0  0  0  0  0
   -3.4870   14.8520   -0.6440 C   0  0  0  0  0  0  0  0  0  0  0  0
   -2.8430   14.7410    0.5790 C   0  0  0  0  0  0  0  0  0  0  0  0
   -4.8620   14.8650   -0.4550 N   0  0  0  0  0  0  0  0  0  0  0  0
   -3.8470   14.6810    1.4870 N   0  0  0  0  0  0  0  0  0  0  0  0
   -5.0310   14.7600    0.8390 C   0  0  0  0  0  0  0  0  0  0  0  0
   -6.3890   14.7220    1.5790 C   0  0  1  0  0  0  0  0  0  0  0  0
   -7.6620   14.6850    0.7750 C   0  0  0  0  0  0  0  0  0  0  0  0
   -7.2790   13.5150    1.6320 C   0  0  2  0  0  0  0  0  0  0  0  0
   -8.0680   13.2500    2.8400 N   0  0  0  0  0  0  0  0  0  0  0  0
  1  2  1  0
  2  3  2  0
  2  4  1  0
  4  5  2  0
  4  6  1  0
  5  7  1  0
  6  8  2  0
  7  8  1  0
  9  8  1  6
  9 10  1  0
  9 11  1  0
 10 11  1  0
 11 12  1  1
M  END
