diamond-x0950_1_A-mac-x0397
     RDKit          3D

 20 21  0  0  0  0  0  0  0  0999 V2000
    1.1110   13.9670   -4.7930 C   0  0  0  0  0  0  0  0  0  0  0  0
    1.3690   12.5000   -4.5210 C   0  0  2  0  0  0  0  0  0  0  0  0
    0.6720   11.7320   -5.5090 O   0  0  0  0  0  0  0  0  0  0  0  0
    0.9520   12.0680   -3.1050 C   0  0  0  0  0  0  0  0  0  0  0  0
    0.2610   11.0820   -2.8660 O   0  0  0  0  0  0  0  0  0  0  0  0
    1.4470   12.9020   -2.1600 O   0  0  0  0  0  0  0  0  0  0  0  0
    0.4530   13.5600   -1.3720 C   0  0  0  0  0  0  0  0  0  0  0  0
    0.0430   14.8590   -2.0600 C   0  0  0  0  0  0  0  0  0  0  0  0
   -1.2460   14.7580   -2.9070 C   0  0  0  0  0  0  0  0  0  0  0  0
   -2.5340   14.8380   -2.1200 C   0  0  0  0  0  0  0  0  0  0  0  0
   -3.7860   14.8700   -2.7510 C   0  0  0  0  0  0  0  0  0  0  0  0
   -2.4660   14.8820   -0.7260 C   0  0  0  0  0  0  0  0  0  0  0  0
   -3.6480   14.9490   -0.0040 C   0  0  0  0  0  0  0  0  0  0  0  0
   -4.9470   14.9320   -1.9780 C   0  0  0  0  0  0  0  0  0  0  0  0
   -6.5210   14.9680   -2.6400 Cl  0  0  0  0  0  0  0  0  0  0  0  0
   -4.9030   14.9640   -0.5910 C   0  0  0  0  0  0  0  0  0  0  0  0
   -3.8370   15.0240    1.6700 S   0  0  0  0  0  0  0  0  0  0  0  0
   -5.5480   15.0220    1.4970 C   0  0  0  0  0  0  0  0  0  0  0  0
   -5.9740   15.0040    0.2790 N   0  0  0  0  0  0  0  0  0  0  0  0
   -6.3930   15.0360    2.5440 N   0  0  0  0  0  0  0  0  0  0  0  0
  2  1  1  6
  2  3  1  0
  2  4  1  0
  4  5  2  0
  4  6  1  0
  6  7  1  0
  7  8  1  0
  8  9  1  0
  9 10  1  0
 10 11  2  0
 10 12  1  0
 12 13  2  0
 11 14  1  0
 14 15  1  0
 13 16  1  0
 14 16  2  0
 13 17  1  0
 17 18  1  0
 16 19  1  0
 18 19  2  0
 18 20  1  0
M  END
