diamond-x0722_0_A-mac-x0344
     RDKit          3D

 26 27  0  0  0  0  0  0  0  0999 V2000
   -4.8660   15.1730    2.2180 C   0  0  0  0  0  0  0  0  0  0  0  0
   -3.6790   14.9510    1.3780 C   0  0  0  0  0  0  0  0  0  0  0  0
   -2.5290   14.6470    1.9500 N   0  0  0  0  0  0  0  0  0  0  0  0
   -3.5720   15.0130   -0.0300 C   0  0  0  0  0  0  0  0  0  0  0  0
   -4.6700   15.3350   -1.0010 C   0  0  0  0  0  0  0  0  0  0  0  0
   -2.2330   14.7060   -0.2800 C   0  0  0  0  0  0  0  0  0  0  0  0
   -1.6610   14.5060    0.9540 N   0  0  0  0  0  0  0  0  0  0  0  0
   -0.2960   14.1770    1.2910 C   0  0  0  0  0  0  0  0  0  0  0  0
   -1.4770   14.5980   -1.5710 C   0  0  0  0  0  0  0  0  0  0  0  0
   -5.9940   14.6620   -0.6710 C   0  0  0  0  0  0  0  0  0  0  0  0
   -7.0790   15.2180   -0.8200 O   0  0  0  0  0  0  0  0  0  0  0  0
   -5.9410   13.3850   -0.1870 N   0  0  0  0  0  0  0  0  0  0  0  0
   -1.0050   13.1650   -1.8410 C   0  0  0  0  0  0  0  0  0  0  0  0
    0.4920   12.9560   -1.5810 C   0  0  0  0  0  0  0  0  0  0  0  0
    1.2820   13.4810   -2.6790 N   0  0  0  0  0  0  0  0  0  0  0  0
    1.2650   12.9400   -3.8340 C   0  0  0  0  0  0  0  0  0  0  0  0
    1.9600   13.3670   -4.9000 O   0  0  0  0  0  0  0  0  0  0  0  0
    0.4080   11.6900   -4.1430 C   0  0  0  0  0  0  0  0  0  0  0  0
    0.0710   10.9470   -3.2330 O   0  0  0  0  0  0  0  0  0  0  0  0
    0.1120   11.5650   -5.4870 N   0  0  0  0  0  0  0  0  0  0  0  0
   -0.7660   10.6340   -6.0600 C   0  0  0  0  0  0  0  0  0  0  0  0
   -0.3900   10.0420   -7.2760 C   0  0  0  0  0  0  0  0  0  0  0  0
   -1.9820   10.2730   -5.4810 C   0  0  0  0  0  0  0  0  0  0  0  0
   -1.2240    9.1070   -7.8920 C   0  0  0  0  0  0  0  0  0  0  0  0
   -2.8140    9.3380   -6.0990 C   0  0  0  0  0  0  0  0  0  0  0  0
   -2.4370    8.7520   -7.3050 C   0  0  0  0  0  0  0  0  0  0  0  0
  1  2  1  0
  2  3  2  0
  2  4  1  0
  4  5  1  0
  4  6  2  0
  3  7  1  0
  6  7  1  0
  7  8  1  0
  6  9  1  0
  5 10  1  0
 10 11  2  0
 10 12  1  0
  9 13  1  0
 13 14  1  0
 14 15  1  0
 15 16  2  3
 16 17  1  0
 16 18  1  0
 18 19  2  0
 18 20  1  0
 20 21  1  0
 21 22  2  0
 21 23  1  0
 22 24  1  0
 23 25  2  0
 24 26  2  0
 25 26  1  0
M  END
