diamond-x0626_0_A-mac-x0417
     RDKit          3D

 27 29  0  0  0  0  0  0  0  0999 V2000
   -4.8950   14.9200    1.5000 N   0  0  0  0  0  0  0  0  0  0  0  0
   -6.0440   14.7370    0.7510 C   0  0  0  0  0  0  0  0  0  0  0  0
   -6.1750   14.8400   -0.4650 O   0  0  0  0  0  0  0  0  0  0  0  0
   -3.6700   14.8380    0.9070 C   0  0  0  0  0  0  0  0  0  0  0  0
   -7.2170   14.3710    1.6420 C   0  0  0  0  0  0  0  0  0  0  0  0
   -2.4590   14.6620    1.4200 N   0  0  0  0  0  0  0  0  0  0  0  0
   -3.7890   14.9930   -0.7880 S   0  0  0  0  0  0  0  0  0  0  0  0
   -8.5580   14.6180    0.9690 C   0  0  0  0  0  0  0  0  0  0  0  0
   -2.1060   14.7960   -0.8890 C   0  0  0  0  0  0  0  0  0  0  0  0
   -1.5600   14.6350    0.3650 C   0  0  0  0  0  0  0  0  0  0  0  0
   -0.1050   14.4370    0.5670 C   0  0  0  0  0  0  0  0  0  0  0  0
    0.4150   13.8080   -0.7410 C   0  0  0  0  0  0  0  0  0  0  0  0
    1.5920   14.4900   -1.4390 C   0  0  0  0  0  0  0  0  0  0  0  0
    2.4940   13.5540   -2.2470 C   0  0  0  0  0  0  0  0  0  0  0  0
    1.9350   13.2250   -3.5150 O   0  0  0  0  0  0  0  0  0  0  0  0
    0.9480   12.2960   -3.5930 C   0  0  0  0  0  0  0  0  0  0  0  0
    0.8160   11.3000   -2.8850 O   0  0  0  0  0  0  0  0  0  0  0  0
    0.0360   12.6790   -4.7210 C   0  0  0  0  0  0  0  0  0  0  0  0
    0.0910   11.7020   -5.8270 C   0  0  0  0  0  0  0  0  0  0  0  0
    1.1220   11.6930   -6.6760 N   0  0  0  0  0  0  0  0  0  0  0  0
   -0.8560   10.7080   -6.1320 C   0  0  0  0  0  0  0  0  0  0  0  0
    0.8440   10.6670   -7.5750 O   0  0  0  0  0  0  0  0  0  0  0  0
   -0.3370   10.0800   -7.2450 C   0  0  0  0  0  0  0  0  0  0  0  0
   -2.0770   10.2700   -5.6020 C   0  0  0  0  0  0  0  0  0  0  0  0
   -0.9540    9.0190   -7.8970 C   0  0  0  0  0  0  0  0  0  0  0  0
   -2.7270    9.2020   -6.2300 C   0  0  0  0  0  0  0  0  0  0  0  0
   -2.1750    8.5890   -7.3560 C   0  0  0  0  0  0  0  0  0  0  0  0
  1  2  1  0
  2  3  2  0
  1  4  1  0
  2  5  1  0
  4  6  2  0
  4  7  1  0
  5  8  1  0
  7  9  1  0
  6 10  1  0
  9 10  2  0
 10 11  1  0
 11 12  1  0
 12 13  1  0
 13 14  1  0
 14 15  1  0
 15 16  1  0
 16 17  2  0
 16 18  1  0
 18 19  1  0
 19 20  2  0
 19 21  1  0
 20 22  1  0
 21 23  2  0
 22 23  1  0
 21 24  1  0
 23 25  1  0
 24 26  2  0
 25 27  2  0
 26 27  1  0
M  END
