diamond-x0592_0_A-mac-x0228
     RDKit          3D

 17 18  0  0  0  0  0  0  0  0999 V2000
   -2.9540   15.2200    0.9960 N   0  0  0  0  0  0  0  0  0  0  0  0
   -3.5660   15.2420   -0.3690 C   0  0  1  0  0  0  0  0  0  0  0  0
   -2.4080   14.9550   -1.3950 C   0  0  0  0  0  0  0  0  0  0  0  0
   -4.7290   14.2220   -0.4600 C   0  0  2  0  0  0  0  0  0  0  0  0
   -1.2540   14.5190   -0.8740 O   0  0  0  0  0  0  0  0  0  0  0  0
   -2.4490   15.0850   -2.6290 O   0  0  0  0  0  0  0  0  0  0  0  0
   -5.8160   14.5350   -1.4850 C   0  0  1  0  0  0  0  0  0  0  0  0
   -5.6350   14.0600    0.8010 C   0  0  0  0  0  0  0  0  0  0  0  0
   -4.0260   13.0070   -1.0450 C   0  0  0  0  0  0  0  0  0  0  0  0
   -6.8920   15.2190   -0.7740 N   0  0  0  0  0  0  0  0  0  0  0  0
   -7.0170   14.2530    0.2910 N   0  0  0  0  0  0  0  0  0  0  0  0
   -3.6290   13.2870   -2.4840 C   0  0  0  0  0  0  0  0  0  0  0  0
   -5.2710   15.1580   -2.7160 C   0  0  0  0  0  0  0  0  0  0  0  0
   -8.1480   14.5280    1.1960 C   0  0  0  0  0  0  0  0  0  0  0  0
   -4.1950   14.2700   -3.2490 C   0  0  0  0  0  0  0  0  0  0  0  0
   -7.8710   14.1470    2.6520 C   0  0  0  0  0  0  0  0  0  0  0  0
   -7.0960   15.1460    3.3020 O   0  0  0  0  0  0  0  0  0  0  0  0
  2  1  1  1
  2  3  1  0
  2  4  1  0
  3  5  1  0
  3  6  2  0
  4  7  1  0
  4  8  1  1
  4  9  1  0
  7 10  1  0
  8 11  1  0
 10 11  1  0
  9 12  1  0
  7 13  1  6
 11 14  1  0
 12 15  2  0
 13 15  1  0
 14 16  1  0
 16 17  1  0
M  END
