diamond-x0626_0_A-mac-x0358
     RDKit          3D

 24 25  0  0  0  0  0  0  0  0999 V2000
   -4.8630   14.8890    1.4450 N   0  0  0  0  0  0  0  0  0  0  0  0
   -6.0670   14.7140    0.8160 C   0  0  0  0  0  0  0  0  0  0  0  0
   -6.1320   14.8540   -0.4100 O   0  0  0  0  0  0  0  0  0  0  0  0
   -3.6490   14.8400    0.8340 C   0  0  0  0  0  0  0  0  0  0  0  0
   -7.2910   14.3620    1.6430 C   0  0  0  0  0  0  0  0  0  0  0  0
   -2.4310   14.6970    1.3460 N   0  0  0  0  0  0  0  0  0  0  0  0
   -3.7850   14.9850   -0.8550 S   0  0  0  0  0  0  0  0  0  0  0  0
   -8.5880   14.6480    0.9020 C   0  0  0  0  0  0  0  0  0  0  0  0
   -2.0970   14.8420   -0.9690 C   0  0  0  0  0  0  0  0  0  0  0  0
   -1.5340   14.7000    0.2820 C   0  0  0  0  0  0  0  0  0  0  0  0
   -0.0660   14.5480    0.4540 C   0  0  0  0  0  0  0  0  0  0  0  0
    0.4180   13.7860   -0.7960 C   0  0  0  0  0  0  0  0  0  0  0  0
    1.6520   14.2170   -1.5630 C   0  0  0  0  0  0  0  0  0  0  0  0
    2.0720   13.0610   -2.3160 O   0  0  0  0  0  0  0  0  0  0  0  0
    1.1060   12.4110   -3.0560 C   0  0  0  0  0  0  0  0  0  0  0  0
    0.4600   11.4480   -2.6540 O   0  0  0  0  0  0  0  0  0  0  0  0
    0.9950   13.0500   -4.4300 C   0  0  0  0  0  0  0  0  0  0  0  0
   -0.3950   13.5190   -4.8120 C   0  0  0  0  0  0  0  0  0  0  0  0
   -1.3890   12.6120   -5.2140 C   0  0  0  0  0  0  0  0  0  0  0  0
   -0.7160   14.8840   -4.7740 C   0  0  0  0  0  0  0  0  0  0  0  0
   -1.0890   11.2800   -5.2520 O   0  0  0  0  0  0  0  0  0  0  0  0
   -2.6660   13.0530   -5.5680 C   0  0  0  0  0  0  0  0  0  0  0  0
   -1.9930   15.3290   -5.1250 C   0  0  0  0  0  0  0  0  0  0  0  0
   -2.9690   14.4130   -5.5230 C   0  0  0  0  0  0  0  0  0  0  0  0
  1  2  1  0
  2  3  2  0
  1  4  1  0
  2  5  1  0
  4  6  2  0
  4  7  1  0
  5  8  1  0
  7  9  1  0
  6 10  1  0
  9 10  2  0
 10 11  1  0
 11 12  1  0
 12 13  1  0
 13 14  1  0
 14 15  1  0
 15 16  2  0
 15 17  1  0
 17 18  1  0
 18 19  2  0
 18 20  1  0
 19 21  1  0
 19 22  1  0
 20 23  2  0
 22 24  2  0
 23 24  1  0
M  END
