diamond-x0128_0_A-mac-x0188
     RDKit          3D

 29 32  0  0  0  0  0  0  0  0999 V2000
   -6.7210   14.9140    2.5560 N   0  0  0  0  0  0  0  0  0  0  0  0
   -7.9480   15.3150    3.0170 C   0  0  0  0  0  0  0  0  0  0  0  0
   -8.9110   15.6600    2.3440 O   0  0  0  0  0  0  0  0  0  0  0  0
   -6.1960   14.8640    1.2560 C   0  0  0  0  0  0  0  0  0  0  0  0
   -7.8710   15.2560    4.3890 N   0  0  0  0  0  0  0  0  0  0  0  0
   -6.9130   14.8540    0.0540 C   0  0  0  0  0  0  0  0  0  0  0  0
   -4.8190   14.8180    1.2190 C   0  0  0  0  0  0  0  0  0  0  0  0
   -6.2310   14.7750   -1.1730 C   0  0  0  0  0  0  0  0  0  0  0  0
   -4.1350   14.7310    0.0260 C   0  0  0  0  0  0  0  0  0  0  0  0
   -8.5680   16.0450    5.3280 C   0  0  0  0  0  0  0  0  0  0  0  0
   -4.8260   14.6980   -1.2050 C   0  0  0  0  0  0  0  0  0  0  0  0
   -9.2020   17.2120    4.8920 C   0  0  0  0  0  0  0  0  0  0  0  0
   -8.6760   15.7440    6.6800 C   0  0  0  0  0  0  0  0  0  0  0  0
   -2.7610   14.6590    0.0670 C   0  0  0  0  0  0  0  0  0  0  0  0
   -9.9080   18.0520    5.6820 N   0  0  0  0  0  0  0  0  0  0  0  0
   -9.3960   16.5920    7.5230 C   0  0  0  0  0  0  0  0  0  0  0  0
   -4.0780   14.5650   -2.4030 C   0  0  0  0  0  0  0  0  0  0  0  0
   -2.0410   14.5180   -1.0920 C   0  0  0  0  0  0  0  0  0  0  0  0
   -9.9880   17.7220    6.9840 C   0  0  0  0  0  0  0  0  0  0  0  0
   -2.6740   14.4530   -2.3290 C   0  0  0  0  0  0  0  0  0  0  0  0
   -1.7920   14.2280   -3.4640 C   0  0  0  0  0  0  0  0  0  0  0  0
   -2.2310   14.1340   -4.7310 N   0  0  0  0  0  0  0  0  0  0  0  0
   -0.3810   14.0410   -3.4060 C   0  0  0  0  0  0  0  0  0  0  0  0
    0.5410   14.0520   -2.3040 C   0  0  0  0  0  0  0  0  0  0  0  0
   -0.0140   13.8100   -4.7030 C   0  0  0  0  0  0  0  0  0  0  0  0
   -1.1120   13.8710   -5.5010 O   0  0  0  0  0  0  0  0  0  0  0  0
    1.2860   13.5200   -5.3380 C   0  0  0  0  0  0  0  0  0  0  0  0
    1.2660   14.9890   -2.0160 O   0  0  0  0  0  0  0  0  0  0  0  0
    0.5740   12.9280   -1.5670 O   0  0  0  0  0  0  0  0  0  0  0  0
  1  2  1  0
  2  3  2  0
  1  4  1  0
  2  5  1  0
  4  6  2  0
  4  7  1  0
  6  8  1  0
  7  9  2  0
  5 10  1  0
  8 11  2  0
  9 11  1  0
 10 12  2  0
 10 13  1  0
  9 14  1  0
 12 15  1  0
 13 16  2  0
 11 17  1  0
 14 18  2  0
 15 19  2  0
 16 19  1  0
 17 20  2  0
 18 20  1  0
 20 21  1  0
 21 22  2  0
 21 23  1  0
 23 24  1  0
 23 25  2  0
 22 26  1  0
 25 26  1  0
 25 27  1  0
 24 28  2  0
 24 29  1  0
M  END
