diamond-x0421_0_A-mac-x0361
     RDKit          3D

 20 22  0  0  0  0  0  0  0  0999 V2000
   -0.6610   14.8460   -1.1410 N   0  0  0  0  0  0  0  0  0  0  0  0
   -2.0010   14.8300   -1.3340 C   0  0  0  0  0  0  0  0  0  0  0  0
   -2.4540   14.9450   -2.5070 N   0  0  0  0  0  0  0  0  0  0  0  0
   -2.8040   14.6860   -0.1270 C   0  0  0  0  0  0  0  0  0  0  0  0
   -2.4110   14.9950    1.1440 C   0  0  0  0  0  0  0  0  0  0  0  0
   -4.1000   14.2110   -0.1060 N   0  0  0  0  0  0  0  0  0  0  0  0
   -3.8240   14.8900   -2.6090 C   0  0  0  0  0  0  0  0  0  0  0  0
   -3.4840   14.7150    1.9350 N   0  0  0  0  0  0  0  0  0  0  0  0
   -4.4800   14.2440    1.1380 C   0  0  0  0  0  0  0  0  0  0  0  0
   -4.6720   15.1770   -1.5290 C   0  0  0  0  0  0  0  0  0  0  0  0
   -4.3470   14.5230   -3.8270 C   0  0  0  0  0  0  0  0  0  0  0  0
   -5.8820   13.8010    1.6340 C   0  0  0  0  0  0  0  0  0  0  0  0
   -6.0560   15.0760   -1.6930 C   0  0  0  0  0  0  0  0  0  0  0  0
   -5.7130   14.4310   -3.9940 C   0  0  0  0  0  0  0  0  0  0  0  0
   -7.0560   15.3340   -0.6290 C   0  0  0  0  0  0  0  0  0  0  0  0
   -6.8790   13.1810    0.6790 C   0  0  0  0  0  0  0  0  0  0  0  0
   -6.1710   12.3250    1.6800 C   0  0  0  0  0  0  0  0  0  0  0  0
   -6.5640   14.7040   -2.9330 C   0  0  0  0  0  0  0  0  0  0  0  0
   -6.7890   14.8940    0.6300 N   0  0  0  0  0  0  0  0  0  0  0  0
   -8.1120   15.9060   -0.8440 O   0  0  0  0  0  0  0  0  0  0  0  0
  1  2  1  0
  2  3  2  3
  2  4  1  0
  4  5  2  0
  4  6  1  0
  3  7  1  0
  5  8  1  0
  6  9  2  0
  8  9  1  0
  7 10  2  0
  7 11  1  0
  9 12  1  0
 10 13  1  0
 11 14  2  0
 13 15  1  0
 12 16  1  0
 12 17  1  0
 16 17  1  0
 13 18  2  0
 14 18  1  0
 15 19  1  0
 15 20  2  0
M  END
