diamond-x0950_0_A-diamond-x0905_0_A
     RDKit          3D

 16 16  0  0  0  0  0  0  0  0999 V2000
    2.9400   12.5130   -4.0620 C   0  0  0  0  0  0  0  0  0  0  0  0
    1.4440   12.7920   -3.9650 C   0  0  1  0  0  0  0  0  0  0  0  0
    0.8770   12.4800   -5.2410 O   0  0  0  0  0  0  0  0  0  0  0  0
    0.7870   11.9860   -2.8140 C   0  0  0  0  0  0  0  0  0  0  0  0
    0.2430   10.9030   -2.9640 O   0  0  0  0  0  0  0  0  0  0  0  0
    0.8890   12.6120   -1.5840 O   0  0  0  0  0  0  0  0  0  0  0  0
    0.0700   13.7700   -1.3020 C   0  0  0  0  0  0  0  0  0  0  0  0
   -0.7670   13.5570   -0.0350 C   0  0  0  0  0  0  0  0  0  0  0  0
   -1.5160   14.7680    0.5300 C   0  0  0  0  0  0  0  0  0  0  0  0
   -2.9580   14.9250    0.0690 C   0  0  0  0  0  0  0  0  0  0  0  0
   -3.9890   14.8660    1.0010 C   0  0  0  0  0  0  0  0  0  0  0  0
   -3.3320   15.1270   -1.2690 C   0  0  0  0  0  0  0  0  0  0  0  0
   -5.3020   14.9800    0.7050 N   0  0  0  0  0  0  0  0  0  0  0  0
   -4.6810   15.2540   -1.6070 C   0  0  0  0  0  0  0  0  0  0  0  0
   -5.6020   15.1680   -0.5830 C   0  0  0  0  0  0  0  0  0  0  0  0
   -6.9330   15.2690   -0.8250 O   0  0  0  0  0  0  0  0  0  0  0  0
  2  1  1  6
  2  3  1  0
  2  4  1  0
  4  5  2  0
  4  6  1  0
  6  7  1  0
  7  8  1  0
  8  9  1  0
  9 10  1  0
 10 11  2  0
 10 12  1  0
 11 13  1  0
 12 14  2  0
 13 15  2  0
 14 15  1  0
 15 16  1  0
M  END
