diamond-x0814_0_B-diamond-x0142_0_A
     RDKit          3D

 31 33  0  0  0  0  0  0  0  0999 V2000
   14.9910   12.1860   14.1890 C   0  0  1  0  0  0  0  0  0  0  0  0
   16.3440   12.7360   14.6340 C   0  0  0  0  0  0  0  0  0  0  0  0
   14.2250   12.9250   13.0530 C   0  0  2  0  0  0  0  0  0  0  0  0
   15.0770   10.7530   13.6840 C   0  0  0  0  0  0  0  0  0  0  0  0
   13.0270   12.1090   12.6750 N   0  0  0  0  0  0  0  0  0  0  0  0
   14.8870   13.4030   11.7470 C   0  0  1  0  0  0  0  0  0  0  0  0
   14.4490    9.6920   14.3420 C   0  0  0  0  0  0  0  0  0  0  0  0
   15.7830   10.4890   12.5090 C   0  0  0  0  0  0  0  0  0  0  0  0
   16.0060   14.4400   11.7830 C   0  0  0  0  0  0  0  0  0  0  0  0
   11.5160   12.4760   13.1360 S   0  0  0  0  0  0  0  0  0  0  0  0
   13.1770   10.9720   11.7490 C   0  0  0  0  0  0  0  0  0  0  0  0
   15.1850   12.1810   10.8650 C   0  0  0  0  0  0  0  0  0  0  0  0
   14.5120    8.3970   13.8210 C   0  0  0  0  0  0  0  0  0  0  0  0
   15.8450    9.2000   11.9870 C   0  0  0  0  0  0  0  0  0  0  0  0
   11.4460   13.8860   12.8330 O   0  0  0  0  0  0  0  0  0  0  0  0
   17.2880   14.0750   11.5470 N   0  0  0  0  0  0  0  0  0  0  0  0
   10.5640   11.5160   12.6030 O   0  0  0  0  0  0  0  0  0  0  0  0
   15.7720   15.6250   12.0250 O   0  0  0  0  0  0  0  0  0  0  0  0
   11.7630   12.1990   14.8850 C   0  0  0  0  0  0  0  0  0  0  0  0
   13.8940   11.4350   10.5100 C   0  0  0  0  0  0  0  0  0  0  0  0
   15.2060    8.1440   12.6350 C   0  0  0  0  0  0  0  0  0  0  0  0
   15.3100    6.8790   12.0280 N   0  0  0  0  0  0  0  0  0  0  0  0
   15.0020    6.5180   10.7160 C   0  0  0  0  0  0  0  0  0  0  0  0
   14.7510    5.1510   10.6910 N   0  0  0  0  0  0  0  0  0  0  0  0
   14.9600    7.2690    9.7300 O   0  0  0  0  0  0  0  0  0  0  0  0
   14.9660    4.2510    9.6320 C   0  0  0  0  0  0  0  0  0  0  0  0
   15.7840    4.5070    8.5450 C   0  0  0  0  0  0  0  0  0  0  0  0
   14.3050    3.0220    9.6950 C   0  0  0  0  0  0  0  0  0  0  0  0
   15.9060    3.5320    7.5650 C   0  0  0  0  0  0  0  0  0  0  0  0
   14.4910    2.1140    8.6670 C   0  0  0  0  0  0  0  0  0  0  0  0
   15.2760    2.3410    7.6010 N   0  0  0  0  0  0  0  0  0  0  0  0
  1  2  1  6
  1  3  1  0
  1  4  1  0
  3  5  1  6
  3  6  1  0
  4  7  2  0
  4  8  1  0
  6  9  1  1
  5 10  1  0
  5 11  1  0
  6 12  1  0
  7 13  1  0
  8 14  2  0
 10 15  2  0
  9 16  1  0
 10 17  2  0
  9 18  2  0
 10 19  1  0
 11 20  1  0
 12 20  1  0
 13 21  2  0
 14 21  1  0
 21 22  1  0
 22 23  1  0
 23 24  1  0
 23 25  2  0
 24 26  1  0
 26 27  2  0
 26 28  1  0
 27 29  1  0
 28 30  2  0
 29 31  2  0
 30 31  1  0
M  END
