diamond-x0681_0_A-mac-x0163
     RDKit          3D

 28 32  0  0  0  0  0  0  0  0999 V2000
   -3.2300   15.5790   -2.6760 N   0  0  0  0  0  0  0  0  0  0  0  0
   -3.3110   14.6220   -1.5940 C   0  0  2  0  0  0  0  0  0  0  0  0
   -3.3410   13.3650   -2.2740 O   0  0  0  0  0  0  0  0  0  0  0  0
   -4.6460   14.7960   -0.8340 C   0  0  1  0  0  0  0  0  0  0  0  0
   -2.0960   14.6250   -0.6740 C   0  0  0  0  0  0  0  0  0  0  0  0
   -5.3300   13.4900   -0.5270 C   0  0  0  0  0  0  0  0  0  0  0  0
   -4.4560   15.7230    0.4030 C   0  0  0  0  0  0  0  0  0  0  0  0
   -2.2810   14.6910    0.7280 C   0  0  0  0  0  0  0  0  0  0  0  0
   -0.7660   14.5580   -1.0730 C   0  0  0  0  0  0  0  0  0  0  0  0
   -3.5360   14.7550    1.3400 N   0  0  0  0  0  0  0  0  0  0  0  0
   -6.0220   13.3090    0.6230 N   0  0  0  0  0  0  0  0  0  0  0  0
   -4.8450   15.0920    1.7580 C   0  0  0  0  0  0  0  0  0  0  0  0
   -5.3690   12.4070   -1.2720 N   0  0  0  0  0  0  0  0  0  0  0  0
    0.2290   14.5750   -0.1750 N   0  0  0  0  0  0  0  0  0  0  0  0
   -1.3120   14.6980    1.6150 N   0  0  0  0  0  0  0  0  0  0  0  0
   -0.3940   14.4660   -2.4450 N   0  0  0  0  0  0  0  0  0  0  0  0
   -6.1490   14.3200    1.6290 C   0  0  0  0  0  0  0  0  0  0  0  0
   -6.5350   12.0530    0.6280 C   0  0  0  0  0  0  0  0  0  0  0  0
   -6.1190   11.5110   -0.5630 C   0  0  0  0  0  0  0  0  0  0  0  0
   -0.1090   14.6480    1.1190 C   0  0  0  0  0  0  0  0  0  0  0  0
    0.8110   15.2620   -2.7710 C   0  0  0  0  0  0  0  0  0  0  0  0
   -0.3820   13.2050   -3.1730 C   0  0  0  0  0  0  0  0  0  0  0  0
    1.4020   14.9160   -4.1540 C   0  0  0  0  0  0  0  0  0  0  0  0
    0.9360   12.3760   -2.9490 C   0  0  0  0  0  0  0  0  0  0  0  0
   -1.1570   11.9960   -2.5580 C   0  0  0  0  0  0  0  0  0  0  0  0
   -0.7190   13.5900   -4.6220 C   0  0  0  0  0  0  0  0  0  0  0  0
    0.3560   14.5100   -5.1880 C   0  0  0  0  0  0  0  0  0  0  0  0
    0.0880   11.1070   -2.7490 C   0  0  0  0  0  0  0  0  0  0  0  0
  2  1  1  6
  2  3  1  0
  2  4  1  0
  2  5  1  0
  4  6  1  0
  4  7  1  1
  5  8  2  0
  5  9  1  0
  8 10  1  0
  6 11  1  0
  7 12  1  0
  6 13  2  0
  9 14  2  0
  8 15  1  0
  9 16  1  0
 11 17  1  0
 12 17  1  0
 11 18  1  0
 13 19  1  0
 18 19  2  0
 14 20  1  0
 15 20  2  0
 16 21  1  0
 22 16  1  0
 21 23  1  0
 22 24  1  0
 22 25  1  0
 22 26  1  0
 23 27  1  0
 26 27  1  0
 24 28  1  0
 25 28  1  0
M  END
