diamond-x0685_0_A-mac-x0116
     RDKit          3D

 20 22  0  0  0  0  0  0  0  0999 V2000
   -6.0960   14.0490    2.3790 N   0  0  0  0  0  0  0  0  0  0  0  0
   -7.1210   14.8540    3.0370 C   0  0  0  0  0  0  0  0  0  0  0  0
   -8.2140   13.9540    3.5900 C   0  0  0  0  0  0  0  0  0  0  0  0
   -5.2660   14.6930    1.4050 C   0  0  1  0  0  0  0  0  0  0  0  0
   -6.5020   12.8320    2.0520 C   0  0  0  0  0  0  0  0  0  0  0  0
   -3.9460   13.8580    1.1740 C   0  0  0  0  0  0  0  0  0  0  0  0
   -5.9710   14.9830    0.1640 N   0  0  0  0  0  0  0  0  0  0  0  0
   -6.4360   12.4600    0.7410 O   0  0  0  0  0  0  0  0  0  0  0  0
   -7.0130   11.8170    2.8030 C   0  0  0  0  0  0  0  0  0  0  0  0
   -3.0200   14.4860    0.0920 C   0  0  2  0  0  0  0  0  0  0  0  0
   -5.1210   15.6820   -0.7540 C   0  0  0  0  0  0  0  0  0  0  0  0
   -7.2910   10.7670    1.9130 C   0  0  0  0  0  0  0  0  0  0  0  0
   -6.9150   11.2050    0.6680 C   0  0  0  0  0  0  0  0  0  0  0  0
   -3.9380   14.8010   -1.1330 C   0  0  1  0  0  0  0  0  0  0  0  0
   -1.8350   13.6460   -0.4550 C   0  0  0  0  0  0  0  0  0  0  0  0
   -2.2450   15.5220    0.8350 N   0  0  0  0  0  0  0  0  0  0  0  0
   -3.3020   15.2270   -2.3890 C   0  0  0  0  0  0  0  0  0  0  0  0
   -0.7020   14.5690   -0.4980 N   0  0  0  0  0  0  0  0  0  0  0  0
   -0.8350   15.1350    0.8100 C   0  0  0  0  0  0  0  0  0  0  0  0
   -2.8650   15.4830   -3.4320 N   0  0  0  0  0  0  0  0  0  0  0  0
  1  2  1  0
  2  3  1  0
  4  1  1  1
  1  5  1  0
  4  6  1  0
  4  7  1  0
  5  8  1  0
  5  9  2  0
 10  6  1  1
  7 11  1  0
  9 12  1  0
  8 13  1  0
 12 13  2  0
 10 14  1  0
 11 14  1  0
 10 15  1  0
 10 16  1  0
 14 17  1  6
 15 18  1  0
 16 19  1  0
 18 19  1  0
 17 20  3  0
M  END
