diamond-x0371_0_A-mac-x0455
     RDKit          3D

 30 33  0  0  0  0  0  0  0  0999 V2000
   -8.3400   14.6050    2.6470 N   0  0  0  0  0  0  0  0  0  0  0  0
   -8.9380   15.5760    3.4390 C   0  0  0  0  0  0  0  0  0  0  0  0
   -9.6330   16.4410    2.9100 O   0  0  0  0  0  0  0  0  0  0  0  0
   -8.4870   14.6440    1.1950 C   0  0  0  0  0  0  0  0  0  0  0  0
   -7.1270   14.6490    0.5850 C   0  0  0  0  0  0  0  0  0  0  0  0
   -8.7090   15.5160    4.8770 C   0  0  0  0  0  0  0  0  0  0  0  0
   -6.0630   14.8170    1.4060 N   0  0  0  0  0  0  0  0  0  0  0  0
   -6.7370   14.5080   -0.6850 N   0  0  0  0  0  0  0  0  0  0  0  0
   -8.1050   14.4040    5.4020 O   0  0  0  0  0  0  0  0  0  0  0  0
   -8.9840   16.3950    5.9130 C   0  0  0  0  0  0  0  0  0  0  0  0
   -5.3430   14.5660   -0.6480 C   0  0  0  0  0  0  0  0  0  0  0  0
   -4.9360   14.7710    0.6700 C   0  0  0  0  0  0  0  0  0  0  0  0
   -8.5300   15.7880    7.1100 C   0  0  0  0  0  0  0  0  0  0  0  0
   -7.9990   14.5760    6.7450 C   0  0  0  0  0  0  0  0  0  0  0  0
   -3.6400   14.8840    1.0840 C   0  0  0  0  0  0  0  0  0  0  0  0
   -4.3300   14.4470   -1.6620 C   0  0  0  0  0  0  0  0  0  0  0  0
   -2.6870   14.7510    0.1180 C   0  0  0  0  0  0  0  0  0  0  0  0
   -2.9670   14.5240   -1.2240 C   0  0  0  0  0  0  0  0  0  0  0  0
   -1.6190   14.3750   -1.9270 C   0  0  0  0  0  0  0  0  0  0  0  0
   -1.1290   14.4060   -3.3900 C   0  0  1  0  0  0  0  0  0  0  0  0
   -1.4730   15.6200   -4.0910 O   0  0  0  0  0  0  0  0  0  0  0  0
    0.3600   14.5070   -2.9520 C   0  0  0  0  0  0  0  0  0  0  0  0
   -1.1800   13.1380   -4.2670 C   0  0  0  0  0  0  0  0  0  0  0  0
    1.1520   15.4140   -3.0440 O   0  0  0  0  0  0  0  0  0  0  0  0
    0.7730   13.3530   -2.3450 O   0  0  0  0  0  0  0  0  0  0  0  0
   -2.2280   12.2000   -4.2320 C   0  0  0  0  0  0  0  0  0  0  0  0
   -0.1130   12.8800   -5.1660 C   0  0  0  0  0  0  0  0  0  0  0  0
   -2.2080   11.0630   -5.0520 C   0  0  0  0  0  0  0  0  0  0  0  0
   -0.0940   11.7480   -5.9820 C   0  0  0  0  0  0  0  0  0  0  0  0
   -1.1440   10.8360   -5.9260 C   0  0  0  0  0  0  0  0  0  0  0  0
  1  2  1  0
  2  3  2  0
  1  4  1  0
  4  5  1  0
  2  6  1  0
  5  7  1  0
  5  8  2  0
  6  9  1  0
  6 10  2  0
  8 11  1  0
  7 12  1  0
 11 12  2  0
 10 13  1  0
  9 14  1  0
 13 14  2  0
 12 15  1  0
 11 16  1  0
 15 17  2  0
 16 18  2  0
 17 18  1  0
 18 19  1  0
 19 20  1  0
 20 21  1  6
 20 22  1  0
 20 23  1  0
 22 24  2  0
 22 25  1  0
 23 26  2  0
 23 27  1  0
 26 28  1  0
 27 29  2  0
 28 30  2  0
 29 30  1  0
M  END
