diamond-x0574_0_A-mac-x0193
     RDKit          3D

 28 30  0  0  0  0  0  0  0  0999 V2000
   -0.0350   14.2170    2.0770 N   0  0  0  0  0  0  0  0  0  0  0  0
   -0.4750   14.3970    0.7250 C   0  0  1  0  0  0  0  0  0  0  0  0
   -1.3550   13.3990    0.2390 N   0  0  0  0  0  0  0  0  0  0  0  0
   -1.3810   15.9130    0.4120 S   0  0  0  0  0  0  0  0  0  0  0  0
   -1.0610   13.2340   -1.1740 C   0  0  0  0  0  0  0  0  0  0  0  0
   -2.7560   13.8090    0.2430 C   0  0  2  0  0  0  0  0  0  0  0  0
   -2.5880   15.0350   -0.6130 C   0  0  1  0  0  0  0  0  0  0  0  0
    0.3880   13.0670   -1.6290 C   0  0  0  0  0  0  0  0  0  0  0  0
   -3.6780   14.1620    1.4320 C   0  0  0  0  0  0  0  0  0  0  0  0
   -3.8620   15.7050   -0.9580 C   0  0  0  0  0  0  0  0  0  0  0  0
    0.3750   11.6900   -1.9670 N   0  0  0  0  0  0  0  0  0  0  0  0
   -5.0770   14.5440    0.8870 C   0  0  2  0  0  0  0  0  0  0  0  0
   -4.9890   15.4790   -0.2840 C   0  0  0  0  0  0  0  0  0  0  0  0
   -5.9460   15.1850    1.8040 O   0  0  0  0  0  0  0  0  0  0  0  0
    0.4200   11.3180   -3.1910 C   0  0  0  0  0  0  0  0  0  0  0  0
   -6.9870   14.3680    2.3120 C   0  0  0  0  0  0  0  0  0  0  0  0
    0.3240   10.0180   -3.4420 O   0  0  0  0  0  0  0  0  0  0  0  0
    0.5540   12.2280   -4.4190 C   0  0  0  0  0  0  0  0  0  0  0  0
    0.0260   11.5840   -5.6310 N   0  0  0  0  0  0  0  0  0  0  0  0
    0.7990   11.4030   -6.7540 C   0  0  0  0  0  0  0  0  0  0  0  0
    1.9250   11.8520   -6.8130 O   0  0  0  0  0  0  0  0  0  0  0  0
    0.1420   10.6730   -7.7310 N   0  0  0  0  0  0  0  0  0  0  0  0
    0.8020   10.1700   -8.9400 C   0  0  0  0  0  0  0  0  0  0  0  0
    1.3440    8.7740   -8.6960 C   0  0  0  0  0  0  0  0  0  0  0  0
   -0.1110   10.1420  -10.1770 C   0  0  0  0  0  0  0  0  0  0  0  0
    2.0560    8.1850   -9.9190 C   0  0  0  0  0  0  0  0  0  0  0  0
    0.5940    9.5780  -11.4200 C   0  0  0  0  0  0  0  0  0  0  0  0
    1.1890    8.2040  -11.1770 C   0  0  0  0  0  0  0  0  0  0  0  0
  2  1  1  1
  2  3  1  0
  2  4  1  0
  3  5  1  0
  3  6  1  0
  4  7  1  0
  6  7  1  0
  5  8  1  0
  6  9  1  1
  7 10  1  1
  8 11  1  0
  9 12  1  0
 10 13  2  0
 12 13  1  0
 12 14  1  1
 11 15  2  3
 14 16  1  0
 15 17  1  0
 15 18  1  0
 18 19  1  0
 19 20  1  0
 20 21  2  0
 20 22  1  0
 22 23  1  0
 23 24  1  0
 23 25  1  0
 24 26  1  0
 25 27  1  0
 26 28  1  0
 27 28  1  0
M  END
