diamond-x0727_0_A-diamond-x0766_0_A
     RDKit          3D

 23 25  0  0  0  0  0  0  0  0999 V2000
    0.2850   11.0870   -5.6790 N   0  0  0  0  0  0  0  0  0  0  0  0
    1.0350   12.0840   -4.9320 C   0  0  1  0  0  0  0  0  0  0  0  0
    1.1000   13.3200   -5.7870 C   0  0  0  0  0  0  0  0  0  0  0  0
    0.6860   10.8540   -6.9570 C   0  0  0  0  0  0  0  0  0  0  0  0
    1.5440   11.5430   -7.4410 O   0  0  0  0  0  0  0  0  0  0  0  0
    0.5230   12.3010   -3.5050 C   0  0  0  0  0  0  0  0  0  0  0  0
    0.0610    9.7070   -7.7060 C   0  0  0  0  0  0  0  0  0  0  0  0
   -0.1840   11.1780   -2.9740 O   0  0  0  0  0  0  0  0  0  0  0  0
    1.5780   12.5640   -2.5960 O   0  0  0  0  0  0  0  0  0  0  0  0
   -1.2620   10.1270   -8.3600 C   0  0  0  0  0  0  0  0  0  0  0  0
   -0.2530    8.4940   -6.8200 C   0  0  0  0  0  0  0  0  0  0  0  0
   -0.3440   13.5090   -3.7630 C   0  0  2  0  0  0  0  0  0  0  0  0
   -2.2830    9.0780   -7.9360 C   0  0  0  0  0  0  0  0  0  0  0  0
   -1.7540    8.5440   -6.6150 C   0  0  0  0  0  0  0  0  0  0  0  0
    0.0930   14.2060   -5.0670 C   0  0  0  0  0  0  0  0  0  0  0  0
   -0.2150   14.6240   -2.7280 C   0  0  1  0  0  0  0  0  0  0  0  0
    1.0780   15.2640   -4.6030 C   0  0  0  0  0  0  0  0  0  0  0  0
    0.2020   15.8580   -3.5430 C   0  0  0  0  0  0  0  0  0  0  0  0
   -1.4960   14.7240   -1.9540 C   0  0  0  0  0  0  0  0  0  0  0  0
   -2.7530   14.8760   -2.5170 C   0  0  0  0  0  0  0  0  0  0  0  0
   -1.5780   14.6750   -0.5270 C   0  0  0  0  0  0  0  0  0  0  0  0
   -2.8670   14.7940   -0.0680 C   0  0  0  0  0  0  0  0  0  0  0  0
   -3.9900   14.9650   -1.3450 S   0  0  0  0  0  0  0  0  0  0  0  0
  1  2  1  0
  2  3  1  6
  1  4  1  0
  4  5  2  0
  2  6  1  0
  4  7  1  0
  6  8  1  0
  6  9  1  0
  7 10  1  0
  7 11  1  0
 12  6  1  1
 10 13  1  0
 11 14  1  0
 13 14  1  0
 12 15  1  0
 12 16  1  0
 15 17  1  0
 16 18  1  0
 17 18  1  0
 16 19  1  6
 19 20  2  0
 19 21  1  0
 21 22  2  0
 20 23  1  0
 22 23  1  0
M  END
