
     RDKit          3D

 13 14  0  0  0  0  0  0  0  0999 V2000
   -7.0510   26.7400  -13.7100 C   0  0  0  0  0  0  0  0  0  0  0  0
   -8.2720   27.0410  -14.0780 O   0  0  0  0  0  0  0  0  0  0  0  0
   -6.7540   26.8380  -12.2320 C   0  0  2  0  0  0  0  0  0  0  0  0
   -6.1910   26.4640  -14.4880 O   0  0  0  0  0  0  0  0  0  0  0  0
   -7.8680   26.3400  -11.2910 C   0  0  0  0  0  0  0  0  0  0  0  0
   -8.5710   27.5940  -10.7780 C   0  0  0  0  0  0  0  0  0  0  0  0
   -7.8330   28.7920  -11.3490 C   0  0  0  0  0  0  0  0  0  0  0  0
   -6.4500   28.2610  -11.7470 C   0  0  2  0  0  0  0  0  0  0  0  0
   -5.7460   29.0630  -12.8060 C   0  0  0  0  0  0  0  0  0  0  0  0
   -4.3940   29.2160  -12.8620 C   0  0  0  0  0  0  0  0  0  0  0  0
   -5.5020   30.3130  -14.7640 C   0  0  0  0  0  0  0  0  0  0  0  0
   -6.3800   29.7110  -13.9060 C   0  0  0  0  0  0  0  0  0  0  0  0
   -3.9100   30.1050  -14.2200 S   0  0  0  0  0  0  0  0  0  0  0  0
  1  2  2  0
  3  1  1  6
  1  4  1  0
  3  5  1  0
  3  8  1  0
  5  6  1  0
  8  7  1  0
  8  9  1  6
  6  7  1  0
  9 10  2  0
  9 12  1  0
 10 13  1  0
 12 11  2  0
 13 11  1  0
M  END
