diamond-x0628_0_A-mac-x0226
     RDKit          3D

 23 25  0  0  0  0  0  0  0  0999 V2000
   -2.1110   10.1770   -7.3400 C   0  0  0  0  0  0  0  0  0  0  0  0
   -1.8300   11.3300   -6.4680 C   0  0  0  0  0  0  0  0  0  0  0  0
   -2.8270   11.9710   -5.8030 N   0  0  0  0  0  0  0  0  0  0  0  0
   -0.6090   11.8390   -6.2570 N   0  0  0  0  0  0  0  0  0  0  0  0
   -0.8680   12.8580   -5.3940 N   0  0  0  0  0  0  0  0  0  0  0  0
   -2.2040   12.9250   -5.1400 C   0  0  0  0  0  0  0  0  0  0  0  0
   -2.8330   13.9240   -4.2500 C   0  0  0  0  0  0  0  0  0  0  0  0
    0.2180   13.7040   -4.8740 C   0  0  0  0  0  0  0  0  0  0  0  0
    0.3830   13.8610   -3.3290 C   0  0  0  0  0  0  0  0  0  0  0  0
    0.6330   12.6090   -2.4990 C   0  0  0  0  0  0  0  0  0  0  0  0
    0.8260   11.5050   -3.0610 N   0  0  0  0  0  0  0  0  0  0  0  0
    0.6210   12.8140   -1.1680 O   0  0  0  0  0  0  0  0  0  0  0  0
    0.7930   11.5620   -4.4940 C   0  0  1  0  0  0  0  0  0  0  0  0
    2.1380   12.0650   -5.0250 C   0  0  0  0  0  0  0  0  0  0  0  0
    0.6310   10.1950   -5.1360 C   0  0  0  0  0  0  0  0  0  0  0  0
    2.2810   11.4550   -6.3460 N   0  0  0  0  0  0  0  0  0  0  0  0
    1.2830   10.4640   -6.4180 N   0  0  0  0  0  0  0  0  0  0  0  0
    0.7900   10.0930   -7.6620 C   0  0  0  0  0  0  0  0  0  0  0  0
   -0.1990    9.1200   -7.8380 C   0  0  0  0  0  0  0  0  0  0  0  0
    1.2870   10.7040   -8.8170 C   0  0  0  0  0  0  0  0  0  0  0  0
   -0.6740    8.7830   -9.1160 C   0  0  0  0  0  0  0  0  0  0  0  0
    0.8240   10.3800  -10.0940 C   0  0  0  0  0  0  0  0  0  0  0  0
   -0.1640    9.4140  -10.2430 C   0  0  0  0  0  0  0  0  0  0  0  0
  1  2  1  0
  2  3  1  0
  2  4  2  0
  4  5  1  0
  3  6  2  0
  5  6  1  0
  6  7  1  0
  5  8  1  0
  8  9  1  0
  9 10  1  0
 10 11  2  3
 10 12  1  0
 13 11  1  1
 13 14  1  0
 13 15  1  0
 14 16  1  0
 15 17  1  0
 16 17  1  0
 17 18  1  0
 18 19  2  0
 18 20  1  0
 19 21  1  0
 20 22  2  0
 21 23  2  0
 22 23  1  0
M  END
