diamond-x0969_0_A-mac-x0231
     RDKit          3D

 26 29  0  0  0  0  0  0  0  0999 V2000
   -5.8860   14.9950    2.5010 N   0  0  0  0  0  0  0  0  0  0  0  0
   -6.2750   14.8470    1.2320 C   0  0  0  0  0  0  0  0  0  0  0  0
   -7.4970   14.6070    0.8190 N   0  0  0  0  0  0  0  0  0  0  0  0
   -5.4170   14.9500    0.1480 N   0  0  0  0  0  0  0  0  0  0  0  0
   -7.4800   14.5560   -0.5450 N   0  0  0  0  0  0  0  0  0  0  0  0
   -6.2540   14.7620   -0.9320 C   0  0  0  0  0  0  0  0  0  0  0  0
   -4.0430   15.1840    0.0010 C   0  0  0  0  0  0  0  0  0  0  0  0
   -5.7190   14.8160   -2.2150 C   0  0  0  0  0  0  0  0  0  0  0  0
   -3.5220   15.2210   -1.2620 C   0  0  0  0  0  0  0  0  0  0  0  0
   -4.4350   15.0300   -2.4310 C   0  0  0  0  0  0  0  0  0  0  0  0
   -4.0270   15.0620   -3.9120 C   0  0  0  0  0  0  0  0  0  0  0  0
   -2.6610   14.6550   -4.1370 C   0  0  0  0  0  0  0  0  0  0  0  0
   -1.7490   15.6730   -4.2840 C   0  0  0  0  0  0  0  0  0  0  0  0
   -2.3000   13.3210   -4.1760 C   0  0  0  0  0  0  0  0  0  0  0  0
   -0.4340   15.3590   -4.4280 C   0  0  0  0  0  0  0  0  0  0  0  0
   -0.9690   13.0050   -4.3240 C   0  0  0  0  0  0  0  0  0  0  0  0
   -0.0400   14.0350   -4.4270 C   0  0  0  0  0  0  0  0  0  0  0  0
    0.5590   16.4180   -4.5580 C   0  0  0  0  0  0  0  0  0  0  0  0
    0.2440   17.5850   -4.7840 O   0  0  0  0  0  0  0  0  0  0  0  0
    1.3810   13.7710   -4.5040 C   0  0  0  0  0  0  0  0  0  0  0  0
    1.8350   15.9930   -4.4030 N   0  0  0  0  0  0  0  0  0  0  0  0
    1.8150   12.3440   -4.5090 C   0  0  0  0  0  0  0  0  0  0  0  0
    2.2600   14.7050   -4.4690 N   0  0  0  0  0  0  0  0  0  0  0  0
    1.3920   11.8150   -3.1720 C   0  0  0  0  0  0  0  0  0  0  0  0
    0.9280   10.5570   -3.1790 O   0  0  0  0  0  0  0  0  0  0  0  0
    1.4340   12.4260   -2.1210 O   0  0  0  0  0  0  0  0  0  0  0  0
  1  2  1  0
  2  3  2  0
  2  4  1  0
  3  5  1  0
  4  6  1  0
  5  6  2  0
  4  7  1  0
  6  8  1  0
  7  9  2  0
  8 10  2  0
  9 10  1  0
 10 11  1  0
 11 12  1  0
 12 13  2  0
 12 14  1  0
 13 15  1  0
 14 16  2  0
 15 17  2  0
 16 17  1  0
 15 18  1  0
 18 19  2  0
 17 20  1  0
 18 21  1  0
 20 22  1  0
 20 23  2  0
 21 23  1  0
 22 24  1  0
 24 25  1  0
 24 26  2  0
M  END
