diamond-x0253_0_A-mac-x0365
     RDKit          3D

 26 27  0  0  0  0  0  0  0  0999 V2000
    0.2630   11.9130   -5.3920 N   0  0  0  0  0  0  0  0  0  0  0  0
    1.0410   11.6640   -6.5050 C   0  0  0  0  0  0  0  0  0  0  0  0
    2.1530   12.1440   -6.6260 O   0  0  0  0  0  0  0  0  0  0  0  0
    0.7320   12.8350   -4.3660 C   0  0  0  0  0  0  0  0  0  0  0  0
    0.6870   12.2300   -2.9590 C   0  0  0  0  0  0  0  0  0  0  0  0
    0.4460   10.7390   -7.5220 C   0  0  0  0  0  0  0  0  0  0  0  0
    0.6690   12.9260   -1.8860 N   0  0  0  0  0  0  0  0  0  0  0  0
    0.6590   10.8870   -2.9360 O   0  0  0  0  0  0  0  0  0  0  0  0
   -0.5310    9.8170   -7.1390 C   0  0  0  0  0  0  0  0  0  0  0  0
    0.8520   10.7760   -8.8670 C   0  0  0  0  0  0  0  0  0  0  0  0
    0.6240   14.3830   -1.8440 C   0  0  0  0  0  0  0  0  0  0  0  0
   -1.1010    8.9440   -8.0750 C   0  0  0  0  0  0  0  0  0  0  0  0
    0.2910    9.9110   -9.8040 C   0  0  0  0  0  0  0  0  0  0  0  0
   -2.1490    7.9640   -7.6470 C   0  0  0  0  0  0  0  0  0  0  0  0
   -0.6410   14.9230   -1.3930 O   0  0  0  0  0  0  0  0  0  0  0  0
   -0.6810    9.0010   -9.4100 C   0  0  0  0  0  0  0  0  0  0  0  0
   -1.6560   14.8390   -2.2980 C   0  0  0  0  0  0  0  0  0  0  0  0
   -1.5250   14.7280   -3.5040 O   0  0  0  0  0  0  0  0  0  0  0  0
   -3.0010   14.9090   -1.6490 C   0  0  0  0  0  0  0  0  0  0  0  0
   -4.1550   15.0240   -2.4270 C   0  0  0  0  0  0  0  0  0  0  0  0
   -3.1110   14.8550   -0.2430 C   0  0  0  0  0  0  0  0  0  0  0  0
   -5.3930   15.0770   -1.8090 C   0  0  0  0  0  0  0  0  0  0  0  0
   -4.3710   14.9110    0.3650 C   0  0  0  0  0  0  0  0  0  0  0  0
   -6.4990   15.1830   -2.5510 F   0  0  0  0  0  0  0  0  0  0  0  0
   -5.5060   15.0180   -0.4280 C   0  0  0  0  0  0  0  0  0  0  0  0
   -6.7300   15.0630    0.1660 O   0  0  0  0  0  0  0  0  0  0  0  0
  1  2  1  0
  2  3  2  0
  1  4  1  0
  4  5  1  0
  2  6  1  0
  5  7  2  3
  5  8  1  0
  6  9  2  0
  6 10  1  0
  7 11  1  0
  9 12  1  0
 10 13  2  0
 12 14  1  0
 11 15  1  0
 12 16  2  0
 13 16  1  0
 15 17  1  0
 17 18  2  0
 17 19  1  0
 19 20  2  0
 19 21  1  0
 20 22  1  0
 21 23  2  0
 22 24  1  0
 22 25  2  0
 23 25  1  0
 25 26  1  0
M  END
