diamond-x0662_0_A-mac-x0472
     RDKit          3D

 35 38  0  0  0  0  0  0  0  0999 V2000
    5.2990    9.5700  -15.1290 C   0  0  0  0  0  0  0  0  0  0  0  0
    4.2810   10.0390  -14.2230 N   0  0  0  0  0  0  0  0  0  0  0  0
    3.6320   11.2370  -14.2610 C   0  0  0  0  0  0  0  0  0  0  0  0
    3.9000    9.2450  -13.2180 N   0  0  0  0  0  0  0  0  0  0  0  0
    2.7730   11.2070  -13.1940 C   0  0  0  0  0  0  0  0  0  0  0  0
    2.9680    9.9360  -12.5530 C   0  0  0  0  0  0  0  0  0  0  0  0
    2.2530    9.4910  -11.3440 C   0  0  0  0  0  0  0  0  0  0  0  0
    2.3430    8.2910  -11.0410 O   0  0  0  0  0  0  0  0  0  0  0  0
    1.5020   10.2220  -10.4550 N   0  0  0  0  0  0  0  0  0  0  0  0
    0.6410    9.9830   -9.3770 C   0  0  0  0  0  0  0  0  0  0  0  0
   -0.3370    9.0000   -9.3300 C   0  0  0  0  0  0  0  0  0  0  0  0
    0.7870   10.8160   -8.2390 C   0  0  0  0  0  0  0  0  0  0  0  0
   -1.1480    8.8390   -8.2000 C   0  0  0  0  0  0  0  0  0  0  0  0
   -0.0280   10.6650   -7.1000 C   0  0  0  0  0  0  0  0  0  0  0  0
    0.1410   11.5690   -5.9040 C   0  0  0  0  0  0  0  0  0  0  0  0
   -0.9980    9.6650   -7.0900 C   0  0  0  0  0  0  0  0  0  0  0  0
   -0.7780   11.7900   -5.0210 N   0  0  0  0  0  0  0  0  0  0  0  0
    1.2920   12.0330   -5.9320 O   0  0  0  0  0  0  0  0  0  0  0  0
   -0.5910   12.6700   -3.8590 C   0  0  0  0  0  0  0  0  0  0  0  0
   -1.1190   14.0990   -4.1020 C   0  0  0  0  0  0  0  0  0  0  0  0
   -2.6060   14.1530   -4.0390 N   0  0  0  0  0  0  0  0  0  0  0  0
   -3.3590   14.2970   -2.7090 S   0  0  2  0  0  0  0  0  0  0  0  0
   -4.3530   15.3230   -2.4620 O   0  0  0  0  0  0  0  0  0  0  0  0
   -2.2030   14.6520   -1.5520 N   0  0  0  0  0  0  0  0  0  0  0  0
   -4.1130   12.7290   -2.3170 C   0  0  0  0  0  0  0  0  0  0  0  0
   -2.5880   14.7930   -0.2670 C   0  0  0  0  0  0  0  0  0  0  0  0
   -3.4770   11.5390   -2.6820 C   0  0  0  0  0  0  0  0  0  0  0  0
   -5.3430   12.6960   -1.6470 C   0  0  0  0  0  0  0  0  0  0  0  0
   -1.9180   14.4880    0.8260 N   0  0  0  0  0  0  0  0  0  0  0  0
   -4.1530   15.4590    0.0630 S   0  0  0  0  0  0  0  0  0  0  0  0
   -4.0710   10.3140   -2.3840 C   0  0  0  0  0  0  0  0  0  0  0  0
   -5.9350   11.4630   -1.3490 C   0  0  0  0  0  0  0  0  0  0  0  0
   -3.8050   15.2740    1.7220 C   0  0  0  0  0  0  0  0  0  0  0  0
   -2.6230   14.7650    1.9740 N   0  0  0  0  0  0  0  0  0  0  0  0
   -5.2980   10.2770   -1.7210 C   0  0  0  0  0  0  0  0  0  0  0  0
  1  2  1  0
  2  3  1  0
  2  4  1  0
  3  5  2  0
  4  6  2  0
  5  6  1  0
  6  7  1  0
  7  8  2  0
  7  9  1  0
  9 10  1  0
 10 11  2  0
 10 12  1  0
 11 13  1  0
 12 14  2  0
 14 15  1  0
 13 16  2  0
 14 16  1  0
 15 17  2  3
 15 18  1  0
 17 19  1  0
 19 20  1  0
 20 21  1  0
 21 22  2  0
 22 23  2  0
 22 24  1  1
 22 25  1  0
 24 26  1  0
 25 27  2  0
 25 28  1  0
 26 29  2  0
 26 30  1  0
 27 31  1  0
 28 32  2  0
 30 33  1  0
 29 34  1  0
 33 34  2  0
 31 35  2  0
 32 35  1  0
M  CHG  1  18  -1
M  END
