diamond-x0685_0_A-mac-x0319
     RDKit          3D

 23 24  0  0  0  0  0  0  0  0999 V2000
   -5.9830   14.9430    2.5700 N   0  0  0  0  0  0  0  0  0  0  0  0
   -7.0210   13.9310    2.6650 C   0  0  0  0  0  0  0  0  0  0  0  0
   -8.1460   14.3830    3.5640 C   0  0  0  0  0  0  0  0  0  0  0  0
   -5.3390   14.9860    1.3500 C   0  0  0  0  0  0  0  0  0  0  0  0
   -3.9590   15.0720    1.2020 C   0  0  0  0  0  0  0  0  0  0  0  0
   -6.1830   14.9420    0.3060 N   0  0  0  0  0  0  0  0  0  0  0  0
   -3.4340   15.1260   -0.0850 C   0  0  0  0  0  0  0  0  0  0  0  0
   -5.6500   14.9980   -0.9230 C   0  0  0  0  0  0  0  0  0  0  0  0
   -4.3020   15.0940   -1.1710 C   0  0  0  0  0  0  0  0  0  0  0  0
   -3.8470   15.1540   -2.5130 C   0  0  0  0  0  0  0  0  0  0  0  0
   -3.4480   15.1610   -3.6410 C   0  0  0  0  0  0  0  0  0  0  0  0
   -2.8410   15.1310   -4.9720 C   0  0  0  0  0  0  0  0  0  0  0  0
   -1.3760   15.0750   -4.6900 C   0  0  0  0  0  0  0  0  0  0  0  0
   -0.6540   16.2540   -4.5920 C   0  0  0  0  0  0  0  0  0  0  0  0
   -0.7290   13.8520   -4.5000 C   0  0  0  0  0  0  0  0  0  0  0  0
    0.6290   13.7860   -4.1960 C   0  0  0  0  0  0  0  0  0  0  0  0
    0.6880   16.2060   -4.3000 C   0  0  0  0  0  0  0  0  0  0  0  0
    1.2690   12.4310   -3.9650 C   0  0  0  0  0  0  0  0  0  0  0  0
    1.3670   17.3730   -4.1980 O   0  0  0  0  0  0  0  0  0  0  0  0
    1.3540   14.9910   -4.0980 C   0  0  0  0  0  0  0  0  0  0  0  0
    0.9190   11.8630   -2.5920 C   0  0  0  0  0  0  0  0  0  0  0  0
    0.5890   10.5360   -2.5990 O   0  0  0  0  0  0  0  0  0  0  0  0
    0.8980   12.4490   -1.5220 O   0  0  0  0  0  0  0  0  0  0  0  0
  1  2  1  0
  2  3  1  0
  1  4  1  0
  4  5  2  0
  4  6  1  0
  5  7  1  0
  6  8  2  0
  7  9  2  0
  8  9  1  0
  9 10  1  0
 10 11  3  0
 11 12  1  0
 12 13  1  0
 13 14  2  0
 13 15  1  0
 15 16  2  0
 14 17  1  0
 16 18  1  0
 17 19  1  0
 16 20  1  0
 17 20  2  0
 18 21  1  0
 21 22  1  0
 21 23  2  0
M  END
