diamond-x0591_0_A-mac-x0223
     RDKit          3D

 27 28  0  0  0  0  0  0  0  0999 V2000
   -5.7450   14.6710    1.0310 N   0  0  0  0  0  0  0  0  0  0  0  0
   -6.6020   14.5600    2.1800 C   0  0  0  0  0  0  0  0  0  0  0  0
   -6.3350   14.8250   -0.1920 C   0  0  0  0  0  0  0  0  0  0  0  0
   -7.5190   15.0980   -0.3370 O   0  0  0  0  0  0  0  0  0  0  0  0
   -5.4990   14.6290   -1.3880 C   0  0  0  0  0  0  0  0  0  0  0  0
   -4.1490   14.2380   -1.3560 C   0  0  0  0  0  0  0  0  0  0  0  0
   -6.1440   14.8510   -2.5930 C   0  0  0  0  0  0  0  0  0  0  0  0
   -3.4630   14.0700   -2.5640 C   0  0  0  0  0  0  0  0  0  0  0  0
   -5.4740   14.6830   -3.7790 C   0  0  0  0  0  0  0  0  0  0  0  0
   -4.1570   14.2970   -3.7600 C   0  0  0  0  0  0  0  0  0  0  0  0
   -3.4120   14.1260   -5.3310 S   0  0  0  0  0  0  0  0  0  0  0  0
   -2.9120   15.6870   -5.3330 N   0  0  0  0  0  0  0  0  0  0  0  0
   -2.2950   13.2020   -5.2890 O   0  0  0  0  0  0  0  0  0  0  0  0
   -4.3870   14.0890   -6.3790 O   0  0  0  0  0  0  0  0  0  0  0  0
   -1.6140   15.7910   -4.9740 C   0  0  0  0  0  0  0  0  0  0  0  0
   -1.0790   17.0160   -4.8030 C   0  0  0  0  0  0  0  0  0  0  0  0
   -0.8960   14.6170   -4.8100 C   0  0  0  0  0  0  0  0  0  0  0  0
   -1.8650   18.1480   -4.9570 O   0  0  0  0  0  0  0  0  0  0  0  0
    0.2470   17.0950   -4.4780 C   0  0  0  0  0  0  0  0  0  0  0  0
    0.4340   14.6720   -4.4650 C   0  0  0  0  0  0  0  0  0  0  0  0
    0.7020   18.3330   -4.3760 O   0  0  0  0  0  0  0  0  0  0  0  0
    1.2130   13.3900   -4.2860 C   0  0  0  0  0  0  0  0  0  0  0  0
    1.0090   15.9320   -4.3040 C   0  0  0  0  0  0  0  0  0  0  0  0
    1.2510   18.6540   -5.6330 C   0  0  0  0  0  0  0  0  0  0  0  0
    0.7350   12.5550   -3.1170 C   0  0  0  0  0  0  0  0  0  0  0  0
    0.1820   11.4670   -3.1280 O   0  0  0  0  0  0  0  0  0  0  0  0
    0.9910   13.1660   -1.9440 O   0  0  0  0  0  0  0  0  0  0  0  0
  1  2  1  0
  1  3  1  0
  3  4  2  0
  3  5  1  0
  5  6  2  0
  5  7  1  0
  6  8  1  0
  7  9  2  0
  8 10  2  0
  9 10  1  0
 10 11  1  0
 11 12  1  0
 11 13  2  0
 11 14  2  0
 12 15  1  0
 15 16  2  0
 15 17  1  0
 16 18  1  0
 16 19  1  0
 17 20  2  0
 19 21  1  0
 20 22  1  0
 19 23  2  0
 20 23  1  0
 21 24  1  0
 22 25  1  0
 25 26  2  0
 25 27  1  0
M  END
