diamond-x0591_0_A-mac-x0433
     RDKit          3D

 22 23  0  0  0  0  0  0  0  0999 V2000
   -5.0040   12.6340    0.7370 N   0  0  0  0  0  0  0  0  0  0  0  0
   -5.3080   13.6590    1.6640 C   0  0  0  0  0  0  0  0  0  0  0  0
   -5.8890   14.5200    0.6880 C   0  0  0  0  0  0  0  0  0  0  0  0
   -5.6130   12.8870   -0.4890 C   0  0  0  0  0  0  0  0  0  0  0  0
   -6.8140   12.7060   -0.6890 O   0  0  0  0  0  0  0  0  0  0  0  0
   -4.7630   13.4110   -1.6000 C   0  0  0  0  0  0  0  0  0  0  0  0
   -3.3740   13.2790   -1.5790 C   0  0  0  0  0  0  0  0  0  0  0  0
   -5.3860   14.0430   -2.6970 C   0  0  0  0  0  0  0  0  0  0  0  0
   -5.1650   15.3650   -0.1030 C   0  0  0  0  0  0  0  0  0  0  0  0
   -7.2370   14.4630    0.5190 C   0  0  0  0  0  0  0  0  0  0  0  0
   -3.6800   15.4930    0.0260 C   0  0  0  0  0  0  0  0  0  0  0  0
   -2.6070   13.7540   -2.6460 C   0  0  0  0  0  0  0  0  0  0  0  0
   -4.6210   14.5200   -3.7630 C   0  0  0  0  0  0  0  0  0  0  0  0
   -5.7810   16.0960   -1.0260 N   0  0  0  0  0  0  0  0  0  0  0  0
   -7.8770   15.1710   -0.3740 N   0  0  0  0  0  0  0  0  0  0  0  0
   -3.2370   14.3650   -3.7330 C   0  0  0  0  0  0  0  0  0  0  0  0
   -7.1080   15.9480   -1.1040 C   0  0  0  0  0  0  0  0  0  0  0  0
   -2.2670   14.9360   -5.1030 S   0  0  0  0  0  0  0  0  0  0  0  0
   -7.7750   16.6550   -2.0060 N   0  0  0  0  0  0  0  0  0  0  0  0
   -1.0160   15.7830   -4.3690 N   0  0  0  0  0  0  0  0  0  0  0  0
   -1.6900   13.7620   -5.7080 O   0  0  0  0  0  0  0  0  0  0  0  0
   -3.0310   15.8970   -5.8630 O   0  0  0  0  0  0  0  0  0  0  0  0
  1  2  1  0
  2  3  1  0
  1  4  1  0
  4  5  2  0
  4  6  1  0
  6  7  2  0
  6  8  1  0
  3  9  2  0
  3 10  1  0
  9 11  1  0
  7 12  1  0
  8 13  2  0
  9 14  1  0
 10 15  2  0
 12 16  2  0
 13 16  1  0
 14 17  2  0
 15 17  1  0
 16 18  1  0
 17 19  1  0
 18 20  1  0
 18 21  2  0
 18 22  2  0
M  END
