diamond-x0895_1_A-mac-x0439
     RDKit          3D

 23 25  0  0  0  0  0  0  0  0999 V2000
   -1.7040   14.8170    1.6770 O   0  0  0  0  0  0  0  0  0  0  0  0
   -2.7320   14.8630    1.0050 C   0  0  0  0  0  0  0  0  0  0  0  0
   -2.8380   14.9610   -0.5240 C   0  0  1  0  0  0  0  0  0  0  0  0
   -3.9890   14.8330    1.5220 N   0  0  0  0  0  0  0  0  0  0  0  0
   -2.2880   13.7170   -1.2180 C   0  0  0  0  0  0  0  0  0  0  0  0
   -4.2790   15.0440   -0.6570 N   0  0  0  0  0  0  0  0  0  0  0  0
   -4.9170   14.8940    0.5450 C   0  0  0  0  0  0  0  0  0  0  0  0
   -6.1230   14.8250    0.6950 O   0  0  0  0  0  0  0  0  0  0  0  0
   -0.7850   13.5080   -1.0020 C   0  0  0  0  0  0  0  0  0  0  0  0
   -0.1160   12.6400   -2.0770 C   0  0  0  0  0  0  0  0  0  0  0  0
    1.2920   13.0000   -2.1760 N   0  0  0  0  0  0  0  0  0  0  0  0
    1.6320   14.0840   -2.7510 C   0  0  0  0  0  0  0  0  0  0  0  0
    2.9680   14.3100   -2.7430 O   0  0  0  0  0  0  0  0  0  0  0  0
    0.8790   15.1890   -3.4290 C   0  0  0  0  0  0  0  0  0  0  0  0
   -0.4640   15.3020   -3.4490 C   0  0  0  0  0  0  0  0  0  0  0  0
    1.5030   16.2080   -4.0940 N   0  0  0  0  0  0  0  0  0  0  0  0
   -0.8420   16.5730   -4.1330 C   0  0  1  0  0  0  0  0  0  0  0  0
    0.5550   16.9840   -4.5080 C   0  0  0  0  0  0  0  0  0  0  0  0
   -1.7520   16.7460   -5.2990 C   0  0  0  0  0  0  0  0  0  0  0  0
    0.7290   18.2230   -5.2880 C   0  0  0  0  0  0  0  0  0  0  0  0
   -3.1350   15.7330   -5.4460 Cl  0  0  0  0  0  0  0  0  0  0  0  0
   -1.4850   17.7010   -6.2070 C   0  0  0  0  0  0  0  0  0  0  0  0
   -0.3000   18.5350   -6.0980 C   0  0  0  0  0  0  0  0  0  0  0  0
  1  2  2  0
  2  3  1  0
  2  4  1  0
  3  5  1  6
  3  6  1  0
  4  7  1  0
  6  7  1  0
  7  8  2  0
  5  9  1  0
  9 10  1  0
 10 11  1  0
 11 12  2  3
 12 13  1  0
 12 14  1  0
 14 15  2  0
 14 16  1  0
 17 15  1  6
 16 18  2  0
 17 18  1  0
 17 19  1  0
 18 20  1  0
 19 21  1  0
 19 22  2  0
 20 23  2  0
 22 23  1  0
M  END
