diamond-x0711_0_A-mac-x0375
     RDKit          3D

 24 25  0  0  0  0  0  0  0  0999 V2000
   -1.3060   14.9620   -1.9660 N   0  0  0  0  0  0  0  0  0  0  0  0
   -0.6880   14.0790   -3.2760 S   0  0  1  0  0  0  0  0  0  0  0  0
   -2.0770   13.3640   -4.1080 C   0  0  0  0  0  0  0  0  0  0  0  0
   -2.6370   14.8750   -1.4680 C   0  0  0  0  0  0  0  0  0  0  0  0
   -0.1410   15.1150   -4.1260 O   0  0  0  0  0  0  0  0  0  0  0  0
    0.1240   12.9720   -2.6400 N   0  0  0  0  0  0  0  0  0  0  0  0
   -3.7760   15.1630   -2.2350 C   0  0  0  0  0  0  0  0  0  0  0  0
   -2.8010   14.4970   -0.1330 C   0  0  0  0  0  0  0  0  0  0  0  0
    0.5500   11.9890   -3.5350 C   0  0  0  0  0  0  0  0  0  0  0  0
   -5.0590   15.0740   -1.6670 C   0  0  0  0  0  0  0  0  0  0  0  0
   -4.0670   14.4070    0.4350 C   0  0  0  0  0  0  0  0  0  0  0  0
    0.5890   10.8130   -3.1860 O   0  0  0  0  0  0  0  0  0  0  0  0
    0.9410   12.4580   -4.9610 C   0  0  0  0  0  0  0  0  0  0  0  0
   -5.2030   14.6940   -0.3230 C   0  0  0  0  0  0  0  0  0  0  0  0
   -6.5290   14.5810    0.3480 C   0  0  0  0  0  0  0  0  0  0  0  0
    0.8220   11.4420   -5.9660 O   0  0  0  0  0  0  0  0  0  0  0  0
   -6.5750   14.6640    1.7220 N   0  0  0  0  0  0  0  0  0  0  0  0
   -7.5580   14.4260   -0.2910 O   0  0  0  0  0  0  0  0  0  0  0  0
   -0.3580   10.7470   -6.0120 C   0  0  0  0  0  0  0  0  0  0  0  0
   -0.3820    9.6280   -6.8420 C   0  0  0  0  0  0  0  0  0  0  0  0
   -1.4940   11.0980   -5.2910 C   0  0  0  0  0  0  0  0  0  0  0  0
   -1.5410    8.8600   -6.9500 C   0  0  0  0  0  0  0  0  0  0  0  0
   -2.6560   10.3310   -5.4000 C   0  0  0  0  0  0  0  0  0  0  0  0
   -2.6800    9.2130   -6.2290 C   0  0  0  0  0  0  0  0  0  0  0  0
  2  1  1  0
  2  3  1  6
  1  4  1  0
  2  5  2  0
  2  6  2  0
  4  7  2  0
  4  8  1  0
  6  9  1  0
  7 10  1  0
  8 11  2  0
  9 12  2  0
  9 13  1  0
 10 14  2  0
 11 14  1  0
 14 15  1  0
 13 16  1  0
 15 17  1  0
 15 18  2  0
 16 19  1  0
 19 20  2  0
 19 21  1  0
 20 22  1  0
 21 23  2  0
 22 24  2  0
 23 24  1  0
M  END
