diamond-x0228_1_A-diamond-x0598_0_A
     RDKit          3D

 23 24  0  0  0  0  0  0  0  0999 V2000
    2.5090   26.4230   15.8440 N   0  0  0  0  0  0  0  0  0  0  0  0
    3.8400   26.5570   16.0990 C   0  0  0  0  0  0  0  0  0  0  0  0
    4.6500   25.4740   16.0790 N   0  0  0  0  0  0  0  0  0  0  0  0
    1.4670   27.3710   15.6860 C   0  0  0  0  0  0  0  0  0  0  0  0
    4.2640   27.6850   16.3520 O   0  0  0  0  0  0  0  0  0  0  0  0
    0.1850   27.1230   15.1630 C   0  0  0  0  0  0  0  0  0  0  0  0
    1.7920   28.6780   16.1020 C   0  0  0  0  0  0  0  0  0  0  0  0
   -0.1030   25.8440   14.7710 O   0  0  0  0  0  0  0  0  0  0  0  0
   -0.7280   28.1870   15.0650 C   0  0  0  0  0  0  0  0  0  0  0  0
    0.8810   29.7360   16.0030 C   0  0  0  0  0  0  0  0  0  0  0  0
    5.7410   25.4850   16.8780 N   0  0  0  0  0  0  0  0  0  0  0  0
   -1.4530   25.5180   14.4470 C   0  0  0  0  0  0  0  0  0  0  0  0
    1.2650   31.1160   16.4510 C   0  0  0  0  0  0  0  0  0  0  0  0
   -0.3840   29.4790   15.4790 C   0  0  0  0  0  0  0  0  0  0  0  0
    5.7600   25.8460   18.1870 C   0  0  0  0  0  0  0  0  0  0  0  0
    7.0400   25.1470   16.5650 C   0  0  0  0  0  0  0  0  0  0  0  0
    6.9870   25.7370   18.6420 N   0  0  0  0  0  0  0  0  0  0  0  0
    7.7900   25.2930   17.6140 N   0  0  0  0  0  0  0  0  0  0  0  0
    7.6560   24.6880   15.3490 N   0  0  0  0  0  0  0  0  0  0  0  0
    9.2840   25.1980   15.2250 S   0  0  0  0  0  0  0  0  0  0  0  0
   10.3770   24.0150   16.0020 C   0  0  0  0  0  0  0  0  0  0  0  0
    9.4830   26.3370   16.0090 O   0  0  0  0  0  0  0  0  0  0  0  0
    9.5400   25.3110   13.8080 O   0  0  0  0  0  0  0  0  0  0  0  0
  1  2  1  0
  2  3  1  0
  1  4  1  0
  2  5  2  0
  4  6  2  0
  4  7  1  0
  6  8  1  0
  6  9  1  0
  7 10  2  0
  3 11  1  0
  8 12  1  0
 10 13  1  0
  9 14  2  0
 10 14  1  0
 11 15  1  0
 11 16  1  0
 15 17  2  0
 16 18  2  0
 17 18  1  0
 16 19  1  0
 20 19  1  0
 20 21  1  0
 20 22  2  0
 20 23  2  0
M  END
