diamond-x0967_0_A-diamond-x0471_0_A
     RDKit          3D

 17 18  0  0  0  0  0  0  0  0999 V2000
   -9.3640   14.0370    2.5380 N   0  0  0  0  0  0  0  0  0  0  0  0
   -9.1840   14.9760    3.5420 C   0  0  0  0  0  0  0  0  0  0  0  0
   -9.3300   16.1810    3.3570 O   0  0  0  0  0  0  0  0  0  0  0  0
   -9.1420   14.3660    1.1350 C   0  0  0  0  0  0  0  0  0  0  0  0
   -8.7960   14.4160    4.9130 C   0  0  0  0  0  0  0  0  0  0  0  0
   -7.6670   14.5410    0.9060 C   0  0  0  0  0  0  0  0  0  0  0  0
   -9.9540   13.6530    5.5520 C   0  0  0  0  0  0  0  0  0  0  0  0
   -8.2810   15.5180    5.8370 C   0  0  0  0  0  0  0  0  0  0  0  0
   -7.1640   14.5870   -0.3680 N   0  0  0  0  0  0  0  0  0  0  0  0
   -6.8770   14.6510    2.0260 C   0  0  0  0  0  0  0  0  0  0  0  0
   -5.8360   14.7430   -0.5250 C   0  0  0  0  0  0  0  0  0  0  0  0
   -5.5290   14.8150    1.8570 C   0  0  0  0  0  0  0  0  0  0  0  0
   -4.9880   14.8600    0.5900 C   0  0  0  0  0  0  0  0  0  0  0  0
   -5.3250   14.7860   -1.7550 N   0  0  0  0  0  0  0  0  0  0  0  0
   -3.9910   14.9360   -1.9020 C   0  0  0  0  0  0  0  0  0  0  0  0
   -3.6120   15.0150    0.4230 C   0  0  0  0  0  0  0  0  0  0  0  0
   -3.0990   15.0500   -0.8550 C   0  0  0  0  0  0  0  0  0  0  0  0
  1  2  1  0
  2  3  2  0
  1  4  1  0
  2  5  1  0
  4  6  1  0
  5  7  1  0
  5  8  1  0
  6  9  2  0
  6 10  1  0
  9 11  1  0
 10 12  2  0
 11 13  2  0
 12 13  1  0
 11 14  1  0
 14 15  2  0
 13 16  1  0
 15 17  1  0
 16 17  2  0
M  END
