diamond-x0905_0_A-diamond-x0724_0_A
     RDKit          3D

 14 15  0  0  0  0  0  0  0  0999 V2000
   -6.9460   15.4420   -1.2520 O   0  0  0  0  0  0  0  0  0  0  0  0
   -5.6660   15.5800   -0.6150 C   0  0  1  0  0  0  0  0  0  0  0  0
   -5.5980   14.5600    0.5870 C   0  0  2  0  0  0  0  0  0  0  0  0
   -4.6150   15.4290   -1.6620 C   0  0  0  0  0  0  0  0  0  0  0  0
   -4.2180   13.9580    0.7290 C   0  0  0  0  0  0  0  0  0  0  0  0
   -3.5010   14.7360   -1.4590 C   0  0  0  0  0  0  0  0  0  0  0  0
   -6.7450   13.6360    0.2620 N   0  0  0  0  0  0  0  0  0  0  0  0
   -6.0050   15.0970    1.9250 C   0  0  0  0  0  0  0  0  0  0  0  0
   -3.2670   14.0630   -0.2120 C   0  0  0  0  0  0  0  0  0  0  0  0
   -7.2150   14.6940    2.3310 C   0  0  0  0  0  0  0  0  0  0  0  0
   -7.5980   13.8050    1.2440 C   0  0  0  0  0  0  0  0  0  0  0  0
   -8.0010   15.0020    3.5570 C   0  0  0  0  0  0  0  0  0  0  0  0
   -8.5790   13.8370    4.2340 N   0  0  0  0  0  0  0  0  0  0  0  0
   -8.4890   13.9540    5.6900 C   0  0  0  0  0  0  0  0  0  0  0  0
  2  1  1  6
  2  3  1  0
  2  4  1  0
  3  5  1  1
  4  6  2  0
  3  7  1  0
  3  8  1  0
  5  9  2  0
  6  9  1  0
  8 10  2  0
  7 11  2  0
 10 11  1  0
 10 12  1  0
 12 13  1  0
 13 14  1  0
M  END
