diamond-x0662_0_A-mac-x0397
     RDKit          3D

 32 35  0  0  0  0  0  0  0  0999 V2000
    5.3250    9.5780  -15.0340 C   0  0  0  0  0  0  0  0  0  0  0  0
    4.2800   10.0230  -14.1390 N   0  0  0  0  0  0  0  0  0  0  0  0
    3.6080   11.2090  -14.1820 C   0  0  0  0  0  0  0  0  0  0  0  0
    3.8920    9.2150  -13.1360 N   0  0  0  0  0  0  0  0  0  0  0  0
    2.7190   11.1760  -13.1310 C   0  0  0  0  0  0  0  0  0  0  0  0
    2.9250    9.9140  -12.4970 C   0  0  0  0  0  0  0  0  0  0  0  0
    2.2400    9.3550  -11.3010 C   0  0  0  0  0  0  0  0  0  0  0  0
    2.3710    8.1700  -11.0340 O   0  0  0  0  0  0  0  0  0  0  0  0
    1.5110   10.2880  -10.5790 N   0  0  0  0  0  0  0  0  0  0  0  0
    0.7260   10.0950   -9.4180 C   0  0  0  0  0  0  0  0  0  0  0  0
   -0.2130    9.0600   -9.4670 C   0  0  0  0  0  0  0  0  0  0  0  0
    0.8180   10.8520   -8.2400 C   0  0  0  0  0  0  0  0  0  0  0  0
   -1.0340    8.7920   -8.3720 C   0  0  0  0  0  0  0  0  0  0  0  0
    0.0020   10.6100   -7.1210 C   0  0  0  0  0  0  0  0  0  0  0  0
    0.1630   11.4980   -5.8760 C   0  0  0  0  0  0  0  0  0  0  0  0
   -0.9270    9.5620   -7.2110 C   0  0  0  0  0  0  0  0  0  0  0  0
   -0.7910   11.4780   -5.0020 N   0  0  0  0  0  0  0  0  0  0  0  0
    1.2340   12.1360   -5.9010 O   0  0  0  0  0  0  0  0  0  0  0  0
   -0.6350   12.3310   -3.8230 C   0  0  0  0  0  0  0  0  0  0  0  0
   -1.5290   13.5630   -4.0120 C   0  0  0  0  0  0  0  0  0  0  0  0
   -1.3410   14.6030   -2.8960 C   0  0  0  0  0  0  0  0  0  0  0  0
   -2.5830   14.7230   -2.0300 C   0  0  0  0  0  0  0  0  0  0  0  0
   -3.8360   14.9060   -2.6270 C   0  0  0  0  0  0  0  0  0  0  0  0
   -2.4770   14.6450   -0.6270 C   0  0  0  0  0  0  0  0  0  0  0  0
   -3.6500   14.7520    0.1400 C   0  0  0  0  0  0  0  0  0  0  0  0
   -4.9700   15.0030   -1.8270 C   0  0  0  0  0  0  0  0  0  0  0  0
   -6.5470   15.2140   -2.4450 Cl  0  0  0  0  0  0  0  0  0  0  0  0
   -4.9030   14.9260   -0.4390 C   0  0  0  0  0  0  0  0  0  0  0  0
   -3.8440   14.6980    1.8360 S   0  0  0  0  0  0  0  0  0  0  0  0
   -5.5430   14.8990    1.6570 C   0  0  0  0  0  0  0  0  0  0  0  0
   -5.9630   15.0040    0.4410 N   0  0  0  0  0  0  0  0  0  0  0  0
   -6.4030   14.9520    2.6870 N   0  0  0  0  0  0  0  0  0  0  0  0
  1  2  1  0
  2  3  1  0
  2  4  1  0
  3  5  2  0
  4  6  2  0
  5  6  1  0
  6  7  1  0
  7  8  2  0
  7  9  1  0
  9 10  1  0
 10 11  2  0
 10 12  1  0
 11 13  1  0
 12 14  2  0
 14 15  1  0
 13 16  2  0
 14 16  1  0
 15 17  2  3
 15 18  1  0
 17 19  1  0
 19 20  1  0
 20 21  1  0
 21 22  1  0
 22 23  2  0
 22 24  1  0
 24 25  2  0
 23 26  1  0
 26 27  1  0
 25 28  1  0
 26 28  2  0
 25 29  1  0
 29 30  1  0
 28 31  1  0
 30 31  2  0
 30 32  1  0
M  CHG  1  18  -1
M  END
