diamond-x0591_0_A-mac-x0436
     RDKit          3D

 29 31  0  0  0  0  0  0  0  0999 V2000
   -5.9270   14.7090    1.1300 N   0  0  0  0  0  0  0  0  0  0  0  0
   -6.9830   14.5690    2.2160 C   0  0  0  0  0  0  0  0  0  0  0  0
   -6.1300   14.8450   -0.1080 C   0  0  0  0  0  0  0  0  0  0  0  0
   -7.4350   15.1000   -0.4760 O   0  0  0  0  0  0  0  0  0  0  0  0
   -5.2500   14.7580   -1.3280 C   0  0  0  0  0  0  0  0  0  0  0  0
   -3.9310   14.5260   -1.2110 C   0  0  0  0  0  0  0  0  0  0  0  0
   -5.8900   14.9210   -2.5270 C   0  0  0  0  0  0  0  0  0  0  0  0
   -3.1550   14.4330   -2.3910 C   0  0  0  0  0  0  0  0  0  0  0  0
   -5.0760   14.8130   -3.6400 C   0  0  0  0  0  0  0  0  0  0  0  0
   -3.7360   14.5740   -3.6150 C   0  0  0  0  0  0  0  0  0  0  0  0
   -2.8780   14.4460   -5.1330 S   0  0  0  0  0  0  0  0  0  0  0  0
   -1.5690   15.1800   -4.6110 N   0  0  0  0  0  0  0  0  0  0  0  0
   -2.1310   13.0920   -5.3060 N   0  0  0  0  0  0  0  0  0  0  0  0
   -3.0360   15.6870   -6.1460 O   0  0  0  0  0  0  0  0  0  0  0  0
   -1.5320   12.0910   -5.4440 C   0  0  0  0  0  0  0  0  0  0  0  0
   -0.2360   12.1910   -5.7320 C   0  0  0  0  0  0  0  0  0  0  0  0
   -2.1750   10.8560   -5.3520 N   0  0  0  0  0  0  0  0  0  0  0  0
    0.6040   13.3740   -5.2990 C   0  0  0  0  0  0  0  0  0  0  0  0
   -1.7160    9.9260   -6.2880 C   0  0  0  0  0  0  0  0  0  0  0  0
    0.3370   11.1830   -6.4840 N   0  0  0  0  0  0  0  0  0  0  0  0
    1.8020   12.8840   -4.4500 C   0  0  0  0  0  0  0  0  0  0  0  0
   -0.4920   10.1350   -6.8110 C   0  0  0  0  0  0  0  0  0  0  0  0
   -2.5190    8.8520   -6.6350 C   0  0  0  0  0  0  0  0  0  0  0  0
    1.2830   12.3790   -3.1350 C   0  0  0  0  0  0  0  0  0  0  0  0
    0.0630    9.2350   -7.7870 C   0  0  0  0  0  0  0  0  0  0  0  0
   -1.9920    7.9610   -7.5860 C   0  0  0  0  0  0  0  0  0  0  0  0
    0.6820   11.1200   -3.0410 O   0  0  0  0  0  0  0  0  0  0  0  0
    1.4030   13.0870   -2.1170 O   0  0  0  0  0  0  0  0  0  0  0  0
   -0.7610    8.2040   -8.0920 C   0  0  0  0  0  0  0  0  0  0  0  0
  1  2  1  0
  1  3  1  0
  3  4  2  0
  3  5  1  0
  5  6  2  0
  5  7  1  0
  6  8  1  0
  7  9  2  0
  8 10  2  0
  9 10  1  0
 10 11  1  0
 11 12  1  0
 11 13  1  0
 11 14  2  0
 13 15  2  3
 15 16  1  0
 15 17  1  0
 16 18  1  0
 17 19  1  0
 16 20  2  0
 18 21  1  0
 19 22  2  0
 20 22  1  0
 19 23  1  0
 21 24  1  0
 22 25  1  0
 23 26  2  0
 24 27  1  0
 24 28  2  0
 25 29  2  0
 26 29  1  0
M  END
