diamond-x0766_0_A-diamond-x0524_0_A
     RDKit          3D

 33 36  0  0  0  0  0  0  0  0999 V2000
    0.6980   12.2720   -2.6600 C   0  0  0  0  0  0  0  0  0  0  0  0
   -0.1580   11.2390   -2.4010 O   0  0  0  0  0  0  0  0  0  0  0  0
   -1.1080   10.9900   -3.4420 C   0  0  0  0  0  0  0  0  0  0  0  0
    1.7760   12.4260   -2.1250 O   0  0  0  0  0  0  0  0  0  0  0  0
    0.1920   13.2700   -3.6750 C   0  0  2  0  0  0  0  0  0  0  0  0
    1.2670   13.6080   -4.7260 C   0  0  0  0  0  0  0  0  0  0  0  0
   -0.0780   14.5840   -2.9460 C   0  0  1  0  0  0  0  0  0  0  0  0
   -0.3310   10.7630   -4.7300 C   0  0  0  0  0  0  0  0  0  0  0  0
    1.4580   15.1270   -4.6600 C   0  0  0  0  0  0  0  0  0  0  0  0
    0.2160   15.6600   -3.9760 C   0  0  0  0  0  0  0  0  0  0  0  0
   -1.4000   14.6760   -2.2280 C   0  0  0  0  0  0  0  0  0  0  0  0
   -0.9130   11.3850   -5.9980 C   0  0  0  0  0  0  0  0  0  0  0  0
   -2.6680   14.8060   -2.7740 C   0  0  0  0  0  0  0  0  0  0  0  0
   -1.4690   14.6360   -0.7970 C   0  0  0  0  0  0  0  0  0  0  0  0
   -0.4970   10.5650   -7.1190 N   0  0  0  0  0  0  0  0  0  0  0  0
   -2.7530   14.7410   -0.3190 C   0  0  0  0  0  0  0  0  0  0  0  0
   -3.8920   14.8880   -1.5810 S   0  0  0  0  0  0  0  0  0  0  0  0
   -0.9310    9.3700   -7.2710 C   0  0  0  0  0  0  0  0  0  0  0  0
   -0.5750    8.5200   -8.2940 N   0  0  0  0  0  0  0  0  0  0  0  0
   -1.9230    8.7690   -6.2870 C   0  0  0  0  0  0  0  0  0  0  0  0
    0.5210    8.5370   -9.1760 C   0  0  0  0  0  0  0  0  0  0  0  0
    1.6740    7.7670   -9.0240 C   0  0  0  0  0  0  0  0  0  0  0  0
    0.4530    9.3790  -10.2920 C   0  0  0  0  0  0  0  0  0  0  0  0
    2.7200    7.8330   -9.9550 C   0  0  0  0  0  0  0  0  0  0  0  0
    1.4940    9.4470  -11.2220 C   0  0  0  0  0  0  0  0  0  0  0  0
    2.6420    8.6730  -11.0690 C   0  0  0  0  0  0  0  0  0  0  0  0
    3.7020    8.7120  -11.9830 N   0  0  0  0  0  0  0  0  0  0  0  0
    3.9740    9.5760  -13.0570 C   0  0  0  0  0  0  0  0  0  0  0  0
    3.2350   10.7390  -13.3090 C   0  0  0  0  0  0  0  0  0  0  0  0
    5.0310    9.2640  -13.9160 C   0  0  0  0  0  0  0  0  0  0  0  0
    3.5450   11.5660  -14.3890 C   0  0  0  0  0  0  0  0  0  0  0  0
    5.3440   10.0900  -14.9990 C   0  0  0  0  0  0  0  0  0  0  0  0
    4.5980   11.2400  -15.2320 C   0  0  0  0  0  0  0  0  0  0  0  0
  1  2  1  0
  2  3  1  0
  1  4  2  0
  5  1  1  1
  5  6  1  0
  5  7  1  0
  3  8  1  0
  6  9  1  0
  7 10  1  0
  9 10  1  0
  7 11  1  6
  8 12  1  0
 11 13  2  0
 11 14  1  0
 12 15  1  0
 14 16  2  0
 13 17  1  0
 16 17  1  0
 15 18  2  3
 18 19  1  0
 18 20  1  0
 19 21  1  0
 21 22  2  0
 21 23  1  0
 22 24  1  0
 23 25  2  0
 24 26  2  0
 25 26  1  0
 26 27  1  0
 27 28  1  0
 28 29  2  0
 28 30  1  0
 29 31  1  0
 30 32  2  0
 31 33  2  0
 32 33  1  0
M  END
