diamond-x0711_0_A-mac-x0301
     RDKit          3D

 18 19  0  0  0  0  0  0  0  0999 V2000
   -1.5200   14.9270   -2.5190 N   0  0  0  0  0  0  0  0  0  0  0  0
   -0.3820   13.9560   -3.2780 S   0  0  0  0  0  0  0  0  0  0  0  0
   -1.3860   12.8400   -4.2420 C   0  0  0  0  0  0  0  0  0  0  0  0
   -2.6190   14.2940   -1.7640 C   0  0  2  0  0  0  0  0  0  0  0  0
    0.3070   14.8260   -4.2030 O   0  0  0  0  0  0  0  0  0  0  0  0
    0.3200   13.1960   -2.2720 O   0  0  0  0  0  0  0  0  0  0  0  0
   -3.9100   14.8210   -2.3390 C   0  0  0  0  0  0  0  0  0  0  0  0
   -2.4100   14.5590   -0.2340 C   0  0  1  0  0  0  0  0  0  0  0  0
   -4.9390   15.2470   -1.6050 C   0  0  0  0  0  0  0  0  0  0  0  0
   -3.7630   14.5120    0.5490 C   0  0  0  0  0  0  0  0  0  0  0  0
   -1.5390   13.5670    0.3960 O   0  0  0  0  0  0  0  0  0  0  0  0
   -1.5880   15.8040    0.0100 C   0  0  0  0  0  0  0  0  0  0  0  0
   -4.9470   15.2610   -0.1050 C   0  0  2  0  0  0  0  0  0  0  0  0
   -0.2310   15.3670   -0.1110 O   0  0  0  0  0  0  0  0  0  0  0  0
   -0.2740   14.1930    0.6590 C   0  0  0  0  0  0  0  0  0  0  0  0
   -6.2950   14.7330    0.4260 C   0  0  0  0  0  0  0  0  0  0  0  0
   -6.4280   14.6590    1.7880 N   0  0  0  0  0  0  0  0  0  0  0  0
   -7.2420   14.4010   -0.2850 O   0  0  0  0  0  0  0  0  0  0  0  0
  2  1  1  0
  2  3  1  0
  4  1  1  6
  2  5  2  0
  2  6  2  0
  4  7  1  0
  4  8  1  0
  7  9  2  0
  8 10  1  1
  8 11  1  0
  8 12  1  0
  9 13  1  0
 10 13  1  0
 12 14  1  0
 11 15  1  0
 14 15  1  0
 13 16  1  1
 16 17  1  0
 16 18  2  0
M  END
