diamond-x0727_0_A-diamond-x0962_3_A
     RDKit          3D

 13 13  0  0  0  0  0  0  0  0999 V2000
    0.1470   11.9140   -5.6020 N   0  0  0  0  0  0  0  0  0  0  0  0
    1.1110   12.5510   -4.7280 C   0  0  1  0  0  0  0  0  0  0  0  0
    0.9600   14.0590   -4.8000 C   0  0  0  0  0  0  0  0  0  0  0  0
    0.4930   11.1780   -6.6900 C   0  0  0  0  0  0  0  0  0  0  0  0
    1.5320   11.3210   -7.3110 O   0  0  0  0  0  0  0  0  0  0  0  0
    0.8460   12.0380   -3.3150 C   0  0  0  0  0  0  0  0  0  0  0  0
   -0.5610   10.1510   -7.0220 C   0  0  0  0  0  0  0  0  0  0  0  0
    0.2590   11.0050   -3.0140 O   0  0  0  0  0  0  0  0  0  0  0  0
    1.3300   12.8450   -2.3540 O   0  0  0  0  0  0  0  0  0  0  0  0
   -1.0470   10.0800   -8.4530 C   0  0  0  0  0  0  0  0  0  0  0  0
   -0.2200    8.7060   -6.7180 C   0  0  0  0  0  0  0  0  0  0  0  0
   -1.9870    8.8780   -8.3800 C   0  0  0  0  0  0  0  0  0  0  0  0
   -1.4790    8.0130   -7.2130 C   0  0  0  0  0  0  0  0  0  0  0  0
  1  2  1  0
  2  3  1  1
  1  4  1  0
  4  5  2  0
  2  6  1  0
  4  7  1  0
  6  8  2  0
  6  9  1  0
  7 10  1  0
  7 11  1  0
 10 12  1  0
 11 13  1  0
 12 13  1  0
M  END
