diamond-x0855_0_A-mac-x0137
     RDKit          3D

 26 29  0  0  0  0  0  0  0  0999 V2000
    1.7970   12.2130   -2.4290 O   0  0  0  0  0  0  0  0  0  0  0  0
    0.7810   11.3940   -2.7980 C   0  0  0  0  0  0  0  0  0  0  0  0
   -0.1650   12.0760   -3.6910 C   0  0  2  0  0  0  0  0  0  0  0  0
    0.7030   10.2490   -2.4030 O   0  0  0  0  0  0  0  0  0  0  0  0
   -0.8770   11.2280   -4.6260 N   0  0  0  0  0  0  0  0  0  0  0  0
    0.3560   13.3450   -4.2530 C   0  0  2  0  0  0  0  0  0  0  0  0
   -0.4250   10.6400   -5.7770 C   0  0  0  0  0  0  0  0  0  0  0  0
   -2.1660   10.9660   -4.3630 N   0  0  0  0  0  0  0  0  0  0  0  0
    0.5210   14.3520   -3.1000 C   0  0  0  0  0  0  0  0  0  0  0  0
   -0.6800   13.7540   -5.2790 C   0  0  0  0  0  0  0  0  0  0  0  0
   -1.5070    9.9490   -6.2550 C   0  0  0  0  0  0  0  0  0  0  0  0
   -2.5450   10.1840   -5.3610 C   0  0  0  0  0  0  0  0  0  0  0  0
   -1.9900   13.8010   -4.5200 C   0  0  2  0  0  0  0  0  0  0  0  0
   -0.8170   14.6250   -2.5200 N   0  0  0  0  0  0  0  0  0  0  0  0
   -1.6450    8.8880   -7.7740 Br  0  0  0  0  0  0  0  0  0  0  0  0
   -3.0520   13.9970   -5.3270 F   0  0  0  0  0  0  0  0  0  0  0  0
   -1.8690   14.9220   -3.5160 C   0  0  0  0  0  0  0  0  0  0  0  0
   -1.1290   14.6470   -1.1510 C   0  0  0  0  0  0  0  0  0  0  0  0
   -0.1600   14.4030   -0.1920 N   0  0  0  0  0  0  0  0  0  0  0  0
   -2.3560   14.9230   -0.6470 C   0  0  0  0  0  0  0  0  0  0  0  0
   -0.4430   14.3900    1.1500 C   0  0  0  0  0  0  0  0  0  0  0  0
   -2.5650   14.9480    0.8180 C   0  0  0  0  0  0  0  0  0  0  0  0
   -3.6550   15.2600   -1.1510 C   0  0  0  0  0  0  0  0  0  0  0  0
   -1.5790   14.6370    1.6950 N   0  0  0  0  0  0  0  0  0  0  0  0
   -3.7720   15.3020    1.1420 N   0  0  0  0  0  0  0  0  0  0  0  0
   -4.4100   15.4800   -0.0680 C   0  0  0  0  0  0  0  0  0  0  0  0
  1  2  1  0
  3  2  1  6
  2  4  2  0
  3  5  1  0
  3  6  1  0
  5  7  1  0
  5  8  1  0
  6  9  1  1
  6 10  1  0
  7 11  2  0
  8 12  2  0
 11 12  1  0
 10 13  1  0
  9 14  1  0
 11 15  1  0
 13 16  1  6
 13 17  1  0
 14 17  1  0
 14 18  1  0
 18 19  1  0
 18 20  2  0
 19 21  1  0
 20 22  1  0
 20 23  1  0
 21 24  2  0
 22 24  1  0
 22 25  2  0
 23 26  2  0
 25 26  1  0
M  END
