diamond-x0855_0_A-mac-x0402
     RDKit          3D

 23 25  0  0  0  0  0  0  0  0999 V2000
    1.7610   12.9730   -2.4760 O   0  0  0  0  0  0  0  0  0  0  0  0
    1.0120   12.1430   -3.2220 C   0  0  0  0  0  0  0  0  0  0  0  0
    0.5360   12.6910   -4.5410 C   0  0  2  0  0  0  0  0  0  0  0  0
    0.7610   11.0270   -2.8010 O   0  0  0  0  0  0  0  0  0  0  0  0
    0.1690   14.1800   -4.3650 C   0  0  0  0  0  0  0  0  0  0  0  0
   -0.4820   11.8030   -5.0940 N   0  0  0  0  0  0  0  0  0  0  0  0
   -0.6690   14.5000   -3.1060 C   0  0  0  0  0  0  0  0  0  0  0  0
   -0.3110   10.8510   -6.0680 C   0  0  0  0  0  0  0  0  0  0  0  0
   -1.7550   11.8600   -4.6400 N   0  0  0  0  0  0  0  0  0  0  0  0
   -2.0850   14.9400   -3.4870 C   0  0  0  0  0  0  0  0  0  0  0  0
   -1.5370   10.2670   -6.2300 C   0  0  0  0  0  0  0  0  0  0  0  0
   -2.3930   10.9170   -5.3380 C   0  0  0  0  0  0  0  0  0  0  0  0
   -2.0140    8.8850   -7.3860 Br  0  0  0  0  0  0  0  0  0  0  0  0
   -3.1420   14.9540   -2.3970 C   0  0  0  0  0  0  0  0  0  0  0  0
   -4.4620   15.0750   -2.8120 C   0  0  0  0  0  0  0  0  0  0  0  0
   -2.8490   14.8530   -1.0150 C   0  0  0  0  0  0  0  0  0  0  0  0
   -3.9290   14.8810   -0.1060 C   0  0  0  0  0  0  0  0  0  0  0  0
   -5.5110   15.1000   -1.9070 C   0  0  0  0  0  0  0  0  0  0  0  0
   -5.2470   14.9990   -0.5420 C   0  0  0  0  0  0  0  0  0  0  0  0
   -3.9460   14.7890    1.6120 S   0  0  0  0  0  0  0  0  0  0  0  0
   -5.6670   14.9130    1.6000 C   0  0  0  0  0  0  0  0  0  0  0  0
   -6.2100   15.0100    0.4300 N   0  0  0  0  0  0  0  0  0  0  0  0
   -6.4290   14.9210    2.7050 N   0  0  0  0  0  0  0  0  0  0  0  0
  1  2  1  0
  2  3  1  0
  2  4  2  0
  3  5  1  1
  3  6  1  0
  5  7  1  0
  6  8  1  0
  6  9  1  0
  7 10  1  0
  8 11  2  0
  9 12  2  0
 11 12  1  0
 11 13  1  0
 10 14  1  0
 14 15  2  0
 14 16  1  0
 16 17  2  0
 15 18  1  0
 17 19  1  0
 18 19  2  0
 17 20  1  0
 20 21  1  0
 19 22  1  0
 21 22  2  0
 21 23  1  0
M  END
