diamond-x0844_0_A-mac-x0159
     RDKit          3D

 24 27  0  0  0  0  0  0  0  0999 V2000
   -7.7360   14.9640    0.2020 O   0  0  0  0  0  0  0  0  0  0  0  0
   -6.5330   14.9180   -0.0500 C   0  0  0  0  0  0  0  0  0  0  0  0
   -5.5780   15.2190    0.8740 N   0  0  0  0  0  0  0  0  0  0  0  0
   -5.9950   14.4930   -1.3750 C   0  0  0  0  0  0  0  0  0  0  0  0
   -4.3230   14.5140    0.7970 C   0  0  1  0  0  0  0  0  0  0  0  0
   -5.0990   13.2810   -1.1640 C   0  0  1  0  0  0  0  0  0  0  0  0
   -3.6080   13.3350   -2.4320 Br  0  0  0  0  0  0  0  0  0  0  0  0
   -4.6280   13.1380    0.2980 C   0  0  0  0  0  0  0  0  0  0  0  0
   -3.2760   14.9870   -0.2060 C   0  0  1  0  0  0  0  0  0  0  0  0
   -3.6830   15.8380   -1.3100 N   0  0  0  0  0  0  0  0  0  0  0  0
   -1.9050   15.3660    0.2370 C   0  0  2  0  0  0  0  0  0  0  0  0
   -2.8100   15.6320   -2.4800 C   0  0  0  0  0  0  0  0  0  0  0  0
   -1.1390   14.7730   -0.9180 C   0  0  1  0  0  0  0  0  0  0  0  0
   -1.3310   14.7230    1.3930 N   0  0  0  0  0  0  0  0  0  0  0  0
   -1.3780   15.5320   -2.1380 N   0  0  0  0  0  0  0  0  0  0  0  0
    0.2030   14.9120   -0.4150 N   0  0  0  0  0  0  0  0  0  0  0  0
    0.0360   14.5160    0.9830 C   0  0  0  0  0  0  0  0  0  0  0  0
   -0.6350   14.9670   -3.2690 C   0  0  0  0  0  0  0  0  0  0  0  0
   -0.2690   16.1120   -4.1490 C   0  0  0  0  0  0  0  0  0  0  0  0
    1.0010   16.5940   -4.3610 C   0  0  0  0  0  0  0  0  0  0  0  0
   -1.2710   16.7910   -4.8380 N   0  0  0  0  0  0  0  0  0  0  0  0
   -0.7440   17.7650   -5.5440 C   0  0  0  0  0  0  0  0  0  0  0  0
    0.9540   17.9230   -5.4350 S   0  0  0  0  0  0  0  0  0  0  0  0
   -1.5130   18.7000   -6.4040 C   0  0  0  0  0  0  0  0  0  0  0  0
  1  2  2  0
  2  3  1  0
  2  4  1  0
  3  5  1  0
  4  6  1  0
  6  7  1  6
  5  8  1  6
  6  8  1  0
  5  9  1  0
  9 10  1  1
  9 11  1  0
 10 12  1  0
 11 13  1  0
 11 14  1  1
 12 15  1  0
 13 15  1  0
 13 16  1  1
 14 17  1  0
 16 17  1  0
 15 18  1  0
 18 19  1  0
 19 20  2  0
 19 21  1  0
 21 22  2  0
 20 23  1  0
 22 23  1  0
 22 24  1  0
M  END
