diamond-x0722_0_A-mac-x0394
     RDKit          3D

 25 26  0  0  0  0  0  0  0  0999 V2000
   -4.4970   15.7220    2.2350 C   0  0  0  0  0  0  0  0  0  0  0  0
   -3.4640   15.2590    1.3350 C   0  0  0  0  0  0  0  0  0  0  0  0
   -2.3200   14.9020    1.8680 N   0  0  0  0  0  0  0  0  0  0  0  0
   -3.4800   15.1390   -0.0690 C   0  0  0  0  0  0  0  0  0  0  0  0
   -4.6280   15.4560   -0.9840 C   0  0  0  0  0  0  0  0  0  0  0  0
   -2.1950   14.6850   -0.3590 C   0  0  0  0  0  0  0  0  0  0  0  0
   -1.5580   14.5630    0.8560 N   0  0  0  0  0  0  0  0  0  0  0  0
   -0.2180   14.1400    1.1670 C   0  0  0  0  0  0  0  0  0  0  0  0
   -1.5340   14.3750   -1.6590 C   0  0  0  0  0  0  0  0  0  0  0  0
   -5.9090   14.7130   -0.6270 C   0  0  0  0  0  0  0  0  0  0  0  0
   -7.0300   15.1850   -0.8010 O   0  0  0  0  0  0  0  0  0  0  0  0
   -5.7660   13.4670   -0.0830 N   0  0  0  0  0  0  0  0  0  0  0  0
   -0.0180   14.1910   -1.5020 C   0  0  0  0  0  0  0  0  0  0  0  0
    0.1760   12.7660   -1.6690 N   0  0  0  0  0  0  0  0  0  0  0  0
    0.6590   12.3370   -2.7770 C   0  0  0  0  0  0  0  0  0  0  0  0
    0.7380   11.0040   -2.8700 O   0  0  0  0  0  0  0  0  0  0  0  0
    1.1500   13.0880   -4.0200 C   0  0  0  0  0  0  0  0  0  0  0  0
    0.3660   14.3330   -4.4020 C   0  0  0  0  0  0  0  0  0  0  0  0
   -1.0100   14.2620   -4.6690 C   0  0  0  0  0  0  0  0  0  0  0  0
    0.9950   15.5890   -4.5020 C   0  0  0  0  0  0  0  0  0  0  0  0
   -1.7290   15.4080   -5.0210 C   0  0  0  0  0  0  0  0  0  0  0  0
    0.2490   16.7170   -4.8570 C   0  0  0  0  0  0  0  0  0  0  0  0
    0.9870   18.2460   -4.9900 Cl  0  0  0  0  0  0  0  0  0  0  0  0
   -3.4080   15.2990   -5.3480 Cl  0  0  0  0  0  0  0  0  0  0  0  0
   -1.1040   16.6350   -5.1150 C   0  0  0  0  0  0  0  0  0  0  0  0
  1  2  1  0
  2  3  2  0
  2  4  1  0
  4  5  1  0
  4  6  2  0
  3  7  1  0
  6  7  1  0
  7  8  1  0
  6  9  1  0
  5 10  1  0
 10 11  2  0
 10 12  1  0
  9 13  1  0
 13 14  1  0
 14 15  2  3
 15 16  1  0
 15 17  1  0
 17 18  1  0
 18 19  2  0
 18 20  1  0
 19 21  1  0
 20 22  2  0
 22 23  1  0
 21 24  1  0
 21 25  2  0
 22 25  1  0
M  END
