diamond-x0626_0_A-diamond-x0910_1_A
     RDKit          3D

 16 17  0  0  0  0  0  0  0  0999 V2000
   -4.7230   14.0210    1.6110 N   0  0  0  0  0  0  0  0  0  0  0  0
   -5.8790   13.5890    1.0320 C   0  0  0  0  0  0  0  0  0  0  0  0
   -5.7990   12.6380    0.2660 O   0  0  0  0  0  0  0  0  0  0  0  0
   -3.5050   14.2620    1.0350 C   0  0  0  0  0  0  0  0  0  0  0  0
   -7.1770   14.3310    1.2080 C   0  0  2  0  0  0  0  0  0  0  0  0
   -2.3380   14.4500    1.6100 N   0  0  0  0  0  0  0  0  0  0  0  0
   -3.5210   14.3130   -0.6780 S   0  0  0  0  0  0  0  0  0  0  0  0
   -8.4630   13.5210    1.1090 C   0  0  0  0  0  0  0  0  0  0  0  0
   -1.8430   14.6020   -0.6730 C   0  0  0  0  0  0  0  0  0  0  0  0
   -1.3870   14.6400    0.6240 C   0  0  0  0  0  0  0  0  0  0  0  0
   -6.8320   15.0570    0.0190 C   0  0  0  0  0  0  0  0  0  0  0  0
    0.0020   14.8600    1.0140 C   0  0  0  0  0  0  0  0  0  0  0  0
   -7.5830   15.4120   -1.0070 N   0  0  0  0  0  0  0  0  0  0  0  0
   -5.5200   15.3990   -0.0320 N   0  0  0  0  0  0  0  0  0  0  0  0
   -6.6570   16.0190   -1.7630 N   0  0  0  0  0  0  0  0  0  0  0  0
   -5.4340   15.9970   -1.1640 C   0  0  0  0  0  0  0  0  0  0  0  0
  1  2  1  0
  2  3  2  0
  1  4  1  0
  2  5  1  0
  4  6  2  0
  4  7  1  0
  5  8  1  6
  7  9  1  0
  6 10  1  0
  9 10  2  0
  5 11  1  0
 10 12  1  0
 11 13  2  0
 11 14  1  0
 13 15  1  0
 14 16  2  0
 15 16  1  0
M  END
