diamond-x0727_0_A-mac-x0455
     RDKit          3D

 24 25  0  0  0  0  0  0  0  0999 V2000
    0.3420   11.5320   -5.5080 N   0  0  0  0  0  0  0  0  0  0  0  0
    1.1130   12.3360   -4.5520 C   0  0  1  0  0  0  0  0  0  0  0  0
    1.0710   13.8250   -4.8960 C   0  0  0  0  0  0  0  0  0  0  0  0
    0.7720   11.1290   -6.7370 C   0  0  0  0  0  0  0  0  0  0  0  0
    1.6940   11.7540   -7.1900 O   0  0  0  0  0  0  0  0  0  0  0  0
    0.6120   12.0020   -3.1280 C   0  0  0  0  0  0  0  0  0  0  0  0
    0.1670    9.9190   -7.4560 C   0  0  0  0  0  0  0  0  0  0  0  0
    0.1430   10.9030   -2.8400 O   0  0  0  0  0  0  0  0  0  0  0  0
    0.7800   13.0460   -2.2760 O   0  0  0  0  0  0  0  0  0  0  0  0
   -1.0160   10.2380   -8.3780 C   0  0  0  0  0  0  0  0  0  0  0  0
   -0.3340    8.8260   -6.4890 C   0  0  0  0  0  0  0  0  0  0  0  0
    0.2570   14.2790   -2.5400 C   0  0  0  0  0  0  0  0  0  0  0  0
   -1.9060    9.0020   -8.3270 C   0  0  0  0  0  0  0  0  0  0  0  0
   -1.7420    8.4470   -6.9170 C   0  0  0  0  0  0  0  0  0  0  0  0
   -1.2010   14.2550   -3.0980 C   0  0  1  0  0  0  0  0  0  0  0  0
    0.8290   15.3440   -2.3730 O   0  0  0  0  0  0  0  0  0  0  0  0
   -2.1530   14.3610   -1.9010 C   0  0  0  0  0  0  0  0  0  0  0  0
   -1.4200   15.4670   -3.8450 O   0  0  0  0  0  0  0  0  0  0  0  0
   -1.4920   13.1090   -4.0680 C   0  0  0  0  0  0  0  0  0  0  0  0
   -1.9930   11.8580   -3.6680 C   0  0  0  0  0  0  0  0  0  0  0  0
   -1.2530   13.3030   -5.4440 C   0  0  0  0  0  0  0  0  0  0  0  0
   -2.2430   10.8510   -4.5990 C   0  0  0  0  0  0  0  0  0  0  0  0
   -1.5050   12.3000   -6.3680 C   0  0  0  0  0  0  0  0  0  0  0  0
   -2.0020   11.0720   -5.9480 C   0  0  0  0  0  0  0  0  0  0  0  0
  1  2  1  0
  2  3  1  6
  1  4  1  0
  4  5  2  0
  2  6  1  0
  4  7  1  0
  6  8  2  0
  6  9  1  0
  7 10  1  0
  7 11  1  0
  9 12  1  0
 10 13  1  0
 11 14  1  0
 13 14  1  0
 12 15  1  0
 12 16  2  0
 15 17  1  1
 15 18  1  0
 15 19  1  0
 19 20  2  0
 19 21  1  0
 20 22  1  0
 21 23  2  0
 22 24  2  0
 23 24  1  0
M  END
