diamond-x1012_0_A-mac-x0137
     RDKit          3D

 21 23  0  0  0  0  0  0  0  0999 V2000
   -0.1640   18.1810   -4.6160 N   0  0  0  0  0  0  0  0  0  0  0  0
   -1.1940   17.3090   -4.5750 C   0  0  0  0  0  0  0  0  0  0  0  0
   -2.3200   17.7360   -4.7730 O   0  0  0  0  0  0  0  0  0  0  0  0
   -0.9050   16.0030   -4.2920 N   0  0  0  0  0  0  0  0  0  0  0  0
   -1.8470   15.3860   -3.3850 C   0  0  1  0  0  0  0  0  0  0  0  0
    0.4260   15.4080   -4.2680 C   0  0  0  0  0  0  0  0  0  0  0  0
   -2.5070   14.3900   -4.0720 F   0  0  0  0  0  0  0  0  0  0  0  0
   -1.2260   14.7110   -2.1000 C   0  0  1  0  0  0  0  0  0  0  0  0
    0.3980   13.9070   -3.9450 C   0  0  0  0  0  0  0  0  0  0  0  0
   -0.6620   13.4530   -2.8840 C   0  0  1  0  0  0  0  0  0  0  0  0
   -0.1050   15.4230   -1.3600 N   0  0  0  0  0  0  0  0  0  0  0  0
   -2.4590   14.9140   -1.1160 C   0  0  2  0  0  0  0  0  0  0  0  0
    0.0320   12.4020   -2.0830 C   0  0  0  0  0  0  0  0  0  0  0  0
    0.0810   15.0040    0.0510 C   0  0  0  0  0  0  0  0  0  0  0  0
   -2.2470   14.6540    0.4100 C   0  0  1  0  0  0  0  0  0  0  0  0
   -3.9130   14.6060   -1.2970 C   0  0  0  0  0  0  0  0  0  0  0  0
    0.0950   11.2030   -2.6900 O   0  0  0  0  0  0  0  0  0  0  0  0
    0.5130   12.5770   -0.9970 O   0  0  0  0  0  0  0  0  0  0  0  0
   -1.0660   15.3100    0.8830 N   0  0  0  0  0  0  0  0  0  0  0  0
   -3.5930   14.9290    0.9350 N   0  0  0  0  0  0  0  0  0  0  0  0
   -4.4890   14.6520   -0.0820 C   0  0  0  0  0  0  0  0  0  0  0  0
  1  2  1  0
  2  3  2  0
  2  4  1  0
  4  5  1  0
  4  6  1  0
  5  7  1  6
  5  8  1  0
  6  9  1  0
  8 10  1  0
  9 10  1  0
  8 11  1  1
  8 12  1  0
 10 13  1  1
 11 14  1  0
 12 15  1  0
 12 16  1  6
 13 17  1  0
 13 18  2  0
 14 19  1  0
 15 19  1  1
 15 20  1  0
 16 21  2  0
 20 21  1  0
M  END
