diamond-x0895_0_A-mac-x0496
     RDKit          3D

 19 20  0  0  0  0  0  0  0  0999 V2000
   -1.7820   14.5970    1.9990 O   0  0  0  0  0  0  0  0  0  0  0  0
   -2.7500   14.6960    1.2570 C   0  0  0  0  0  0  0  0  0  0  0  0
   -4.0040   15.5390    1.4330 C   0  0  0  0  0  0  0  0  0  0  0  0
   -2.8490   14.0180    0.0840 N   0  0  0  0  0  0  0  0  0  0  0  0
   -4.8610   15.0690    0.3340 N   0  0  0  0  0  0  0  0  0  0  0  0
   -4.0310   14.3450   -0.6370 C   0  0  1  0  0  0  0  0  0  0  0  0
   -3.5100   15.0020   -1.9700 C   0  0  0  0  0  0  0  0  0  0  0  0
   -6.2340   14.7950    0.4060 C   0  0  0  0  0  0  0  0  0  0  0  0
   -6.8150   14.5790    1.6390 N   0  0  0  0  0  0  0  0  0  0  0  0
   -6.9040   14.7590   -0.6260 O   0  0  0  0  0  0  0  0  0  0  0  0
   -2.3040   15.1560   -2.1960 O   0  0  0  0  0  0  0  0  0  0  0  0
   -4.4130   15.3620   -2.9090 O   0  0  0  0  0  0  0  0  0  0  0  0
   -8.2370   14.1820    1.7530 C   0  0  0  0  0  0  0  0  0  0  0  0
   -9.0630   15.2410    2.4260 C   0  0  0  0  0  0  0  0  0  0  0  0
  -10.3000   15.5280    1.9120 O   0  0  0  0  0  0  0  0  0  0  0  0
   -8.7730   15.9680    3.4820 N   0  0  0  0  0  0  0  0  0  0  0  0
   -9.8890   16.7510    3.6270 C   0  0  0  0  0  0  0  0  0  0  0  0
  -10.8500   16.5330    2.7220 N   0  0  0  0  0  0  0  0  0  0  0  0
  -10.0080   17.7540    4.7070 C   0  0  0  0  0  0  0  0  0  0  0  0
  1  2  2  0
  2  3  1  0
  2  4  1  0
  3  5  1  0
  4  6  1  0
  5  6  1  0
  6  7  1  6
  5  8  1  0
  8  9  1  0
  8 10  2  0
  7 11  2  0
  7 12  1  0
  9 13  1  0
 13 14  1  0
 14 15  1  0
 14 16  2  0
 16 17  1  0
 15 18  1  0
 17 18  2  0
 17 19  1  0
M  END
