diamond-x0837_0_A-mac-x0255
     RDKit          3D

 22 24  0  0  0  0  0  0  0  0999 V2000
   -7.0900   14.5490    0.0650 O   0  0  0  0  0  0  0  0  0  0  0  0
   -5.8730   14.8160   -0.0610 C   0  0  0  0  0  0  0  0  0  0  0  0
   -5.0240   14.8190    1.1060 N   0  0  0  0  0  0  0  0  0  0  0  0
   -5.2050   15.1680   -1.3680 C   0  0  0  0  0  0  0  0  0  0  0  0
   -3.6110   14.9740    0.9080 C   0  0  0  0  0  0  0  0  0  0  0  0
   -3.8400   14.5320   -1.5090 C   0  0  1  0  0  0  0  0  0  0  0  0
   -2.8620   15.2310   -3.3340 I   0  0  0  0  0  0  0  0  0  0  0  0
   -3.0680   14.8400   -0.2920 C   0  0  0  0  0  0  0  0  0  0  0  0
   -1.1710   14.4020   -4.5500 C   0  0  0  0  0  0  0  0  0  0  0  0
    0.3240   14.9620   -4.3500 C   0  0  0  0  0  0  0  0  0  0  0  0
    0.1870   13.7150   -4.1150 C   0  0  0  0  0  0  0  0  0  0  0  0
   -0.2580   16.0370   -4.7450 C   0  0  0  0  0  0  0  0  0  0  0  0
    1.1420   12.6310   -3.6590 C   0  0  0  0  0  0  0  0  0  0  0  0
   -1.5110   15.6520   -5.0050 C   0  0  0  0  0  0  0  0  0  0  0  0
   -1.4580   13.9040   -4.5960 S   0  0  0  0  0  0  0  0  0  0  0  0
    0.1380   17.3820   -4.9460 C   0  0  0  0  0  0  0  0  0  0  0  0
    0.7330   11.9790   -2.3980 C   0  0  0  0  0  0  0  0  0  0  0  0
   -0.7750   18.2590   -5.4080 C   0  0  0  0  0  0  0  0  0  0  0  0
   -2.4480   16.5950   -5.4860 C   0  0  0  0  0  0  0  0  0  0  0  0
    0.6400   12.6210   -1.1940 O   0  0  0  0  0  0  0  0  0  0  0  0
    0.4610   10.7480   -2.4210 O   0  0  0  0  0  0  0  0  0  0  0  0
   -2.0740   17.9310   -5.6960 C   0  0  0  0  0  0  0  0  0  0  0  0
  1  2  2  0
  2  3  1  0
  2  4  1  0
  3  5  1  0
  4  6  1  0
  6  7  1  6
  5  8  2  0
  6  8  1  0
  7  9  1  0
  9 10  1  0
 10 11  2  0
 10 12  1  0
 11 13  1  0
 12 14  2  0
 11 15  1  0
 14 15  1  0
 12 16  1  0
 13 17  1  0
 16 18  2  0
 14 19  1  0
 17 20  1  0
 17 21  2  0
 18 22  1  0
 19 22  2  0
M  END
