diamond-x0626_0_A-diamond-x0628_0_A
     RDKit          3D

 25 26  0  0  0  0  0  0  0  0999 V2000
   -5.0280   14.7560    1.4050 N   0  0  0  0  0  0  0  0  0  0  0  0
   -6.2210   14.6400    0.7670 C   0  0  0  0  0  0  0  0  0  0  0  0
   -6.2660   14.8010   -0.4570 O   0  0  0  0  0  0  0  0  0  0  0  0
   -3.8090   14.7790    0.8260 C   0  0  0  0  0  0  0  0  0  0  0  0
   -7.4540   14.3280    1.5840 C   0  0  0  0  0  0  0  0  0  0  0  0
   -2.6280   14.7710    1.3960 N   0  0  0  0  0  0  0  0  0  0  0  0
   -3.8670   14.8220   -0.8770 S   0  0  0  0  0  0  0  0  0  0  0  0
   -8.7250   14.6980    0.8410 C   0  0  0  0  0  0  0  0  0  0  0  0
   -2.1690   14.8350   -0.8910 C   0  0  0  0  0  0  0  0  0  0  0  0
   -1.6860   14.8150    0.3990 C   0  0  0  0  0  0  0  0  0  0  0  0
   -0.2780   14.8420    0.7820 C   0  0  0  0  0  0  0  0  0  0  0  0
    0.6240   14.2070   -0.2530 C   0  0  0  0  0  0  0  0  0  0  0  0
    0.1410   13.7580   -1.6070 C   0  0  0  0  0  0  0  0  0  0  0  0
    1.2190   12.9180   -2.0490 O   0  0  0  0  0  0  0  0  0  0  0  0
    1.0000   12.1810   -3.1520 C   0  0  0  0  0  0  0  0  0  0  0  0
    0.4440   11.0930   -3.1590 O   0  0  0  0  0  0  0  0  0  0  0  0
    1.5540   12.9010   -4.3490 C   0  0  0  0  0  0  0  0  0  0  0  0
    0.4580   13.1620   -5.3580 C   0  0  0  0  0  0  0  0  0  0  0  0
   -0.3300   11.9770   -5.6110 N   0  0  0  0  0  0  0  0  0  0  0  0
    0.0920   11.0890   -6.5250 N   0  0  0  0  0  0  0  0  0  0  0  0
   -1.5100   11.5810   -5.0380 C   0  0  0  0  0  0  0  0  0  0  0  0
   -2.2340   12.3410   -3.9940 C   0  0  0  0  0  0  0  0  0  0  0  0
   -1.8720   10.4310   -5.5700 N   0  0  0  0  0  0  0  0  0  0  0  0
   -0.8710   10.1650   -6.4670 C   0  0  0  0  0  0  0  0  0  0  0  0
   -0.8540    8.9530   -7.3040 C   0  0  0  0  0  0  0  0  0  0  0  0
  1  2  1  0
  2  3  2  0
  1  4  1  0
  2  5  1  0
  4  6  2  0
  4  7  1  0
  5  8  1  0
  7  9  1  0
  6 10  1  0
  9 10  2  0
 10 11  1  0
 11 12  1  0
 12 13  1  0
 13 14  1  0
 14 15  1  0
 15 16  2  0
 15 17  1  0
 17 18  1  0
 18 19  1  0
 19 20  1  0
 19 21  1  0
 21 22  1  0
 21 23  2  0
 20 24  2  0
 23 24  1  0
 24 25  1  0
M  END
