diamond-x0282_0_A-mac-x0564
     RDKit          3D

 28 32  0  0  0  0  0  0  0  0999 V2000
   -7.8100   14.3770    1.4990 C   0  0  0  0  0  0  0  0  0  0  0  0
   -8.4070   14.5430    0.2170 O   0  0  0  0  0  0  0  0  0  0  0  0
   -6.3420   13.9630    1.3620 C   0  0  0  0  0  0  0  0  0  0  0  0
   -5.4320   14.6000    2.4180 C   0  0  0  0  0  0  0  0  0  0  0  0
   -5.7830   14.2280   -0.0370 C   0  0  0  0  0  0  0  0  0  0  0  0
   -3.9730   14.1920    2.2340 C   0  0  0  0  0  0  0  0  0  0  0  0
   -4.3560   13.7090   -0.1430 C   0  0  0  0  0  0  0  0  0  0  0  0
   -3.5570   14.3900    0.8600 N   0  0  0  0  0  0  0  0  0  0  0  0
   -2.1890   14.4600    0.6640 C   0  0  0  0  0  0  0  0  0  0  0  0
   -1.6770   14.4430   -0.5780 N   0  0  0  0  0  0  0  0  0  0  0  0
   -1.4180   14.5390    1.7570 N   0  0  0  0  0  0  0  0  0  0  0  0
   -0.3500   14.5120   -0.6800 C   0  0  0  0  0  0  0  0  0  0  0  0
   -0.1140   14.6160    1.5360 C   0  0  0  0  0  0  0  0  0  0  0  0
    0.3350   14.4560   -1.8630 N   0  0  0  0  0  0  0  0  0  0  0  0
    0.4290   14.6180    0.3020 C   0  0  0  0  0  0  0  0  0  0  0  0
   -0.3840   14.5540   -2.8470 C   0  0  0  0  0  0  0  0  0  0  0  0
   -1.7520   14.7650   -2.6410 C   0  0  0  0  0  0  0  0  0  0  0  0
    0.0340   14.4650   -4.1450 N   0  0  0  0  0  0  0  0  0  0  0  0
   -2.6820   14.5320   -3.5690 C   0  0  0  0  0  0  0  0  0  0  0  0
   -0.9050   14.2270   -4.9930 C   0  0  0  0  0  0  0  0  0  0  0  0
   -2.2950   15.2300   -1.4960 O   0  0  0  0  0  0  0  0  0  0  0  0
   -2.2650   14.0690   -4.7650 N   0  0  0  0  0  0  0  0  0  0  0  0
   -3.6270   15.2980   -1.7090 C   0  0  0  0  0  0  0  0  0  0  0  0
   -3.9240   14.8580   -2.9980 C   0  0  0  0  0  0  0  0  0  0  0  0
   -5.2580   14.8450   -3.3930 C   0  0  0  0  0  0  0  0  0  0  0  0
   -4.5690   15.7420   -0.7850 C   0  0  0  0  0  0  0  0  0  0  0  0
   -6.2320   15.2790   -2.4880 C   0  0  0  0  0  0  0  0  0  0  0  0
   -5.8940   15.7190   -1.2160 C   0  0  0  0  0  0  0  0  0  0  0  0
  1  2  1  0
  1  3  1  0
  3  4  1  0
  3  5  1  0
  4  6  1  0
  5  7  1  0
  6  8  1  0
  7  8  1  0
  8  9  1  0
  9 10  2  0
  9 11  1  0
 10 12  1  0
 11 13  2  0
 12 14  1  0
 12 15  2  0
 13 15  1  0
 14 16  2  3
 16 17  1  0
 16 18  1  0
 17 19  2  0
 18 20  2  0
 17 21  1  0
 19 22  1  0
 20 22  1  0
 21 23  1  0
 19 24  1  0
 23 24  2  0
 24 25  1  0
 23 26  1  0
 25 27  2  0
 26 28  2  0
 27 28  1  0
M  END
