diamond-x0766_0_A-mac-x0282
     RDKit          3D

 20 23  0  0  0  0  0  0  0  0999 V2000
    0.2010   12.2950   -2.6240 C   0  0  0  0  0  0  0  0  0  0  0  0
   -0.2730   11.0400   -2.7180 O   0  0  0  0  0  0  0  0  0  0  0  0
    0.6840   12.6590   -1.5660 O   0  0  0  0  0  0  0  0  0  0  0  0
    0.0260   13.0890   -3.9050 C   0  0  2  0  0  0  0  0  0  0  0  0
    1.3680   13.2880   -4.6240 C   0  0  0  0  0  0  0  0  0  0  0  0
   -0.4630   14.5610   -3.8810 C   0  0  2  0  0  0  0  0  0  0  0  0
    1.9670   14.4930   -3.8990 C   0  0  0  0  0  0  0  0  0  0  0  0
    0.7870   15.2780   -3.3430 C   0  0  0  0  0  0  0  0  0  0  0  0
   -1.7720   15.1510   -3.2700 C   0  0  1  0  0  0  0  0  0  0  0  0
   -3.1200   14.4140   -3.2000 C   0  0  0  0  0  0  0  0  0  0  0  0
   -1.7370   15.8550   -1.8420 C   0  0  0  0  0  0  0  0  0  0  0  0
   -2.1410   14.8730   -0.7300 C   0  0  2  0  0  0  0  0  0  0  0  0
   -3.5600   14.2630   -1.5460 S   0  0  0  0  0  0  0  0  0  0  0  0
   -4.3820   13.9310   -0.0640 C   0  0  0  0  0  0  0  0  0  0  0  0
   -2.5830   15.3180    0.6680 C   0  0  1  0  0  0  0  0  0  0  0  0
   -1.1210   13.8110   -0.7720 C   0  0  0  0  0  0  0  0  0  0  0  0
   -3.6110   14.3500    0.9840 N   0  0  0  0  0  0  0  0  0  0  0  0
   -0.1910   13.8450    0.1500 C   0  0  0  0  0  0  0  0  0  0  0  0
   -1.5870   15.0790    1.6800 N   0  0  0  0  0  0  0  0  0  0  0  0
   -0.2330   14.8860    1.1820 C   0  0  0  0  0  0  0  0  0  0  0  0
  1  2  1  0
  1  3  2  0
  4  1  1  1
  4  5  1  0
  4  6  1  0
  5  7  1  0
  6  8  1  1
  7  8  1  0
  6  9  1  0
  9 10  1  1
  9 11  1  0
 12 11  1  6
 10 13  2  0
 12 13  1  0
 13 14  2  0
 12 15  1  0
 12 16  1  0
 14 17  1  0
 15 17  1  1
 16 18  2  0
 15 19  1  0
 18 20  1  0
 19 20  1  0
M  END
