diamond-x0766_0_A-mac-x0455
     RDKit          3D

 23 25  0  0  0  0  0  0  0  0999 V2000
    0.0810   12.7570   -2.3380 S   0  0  0  0  0  0  0  0  0  0  0  0
   -0.5230   12.7500   -1.1680 O   0  0  0  0  0  0  0  0  0  0  0  0
    1.0470   12.0970   -3.5300 O   0  0  0  0  0  0  0  0  0  0  0  0
   -1.1730   12.8140   -3.3520 C   0  0  1  0  0  0  0  0  0  0  0  0
    0.7640   11.2200   -1.6860 O   0  0  0  0  0  0  0  0  0  0  0  0
    0.9590   13.9890   -2.4040 C   0  0  1  0  0  0  0  0  0  0  0  0
   -2.5080   12.5480   -2.6240 C   0  0  0  0  0  0  0  0  0  0  0  0
   -1.4650   14.0820   -3.9550 O   0  0  0  0  0  0  0  0  0  0  0  0
    1.8960   14.0810   -3.6420 C   0  0  0  0  0  0  0  0  0  0  0  0
    0.0590   15.1930   -2.5810 C   0  0  1  0  0  0  0  0  0  0  0  0
   -1.0980   12.0390   -4.5590 C   0  0  0  0  0  0  0  0  0  0  0  0
    1.5650   15.3780   -4.3050 C   0  0  0  0  0  0  0  0  0  0  0  0
    0.1080   15.6630   -3.9750 C   0  0  0  0  0  0  0  0  0  0  0  0
   -1.2940   14.9890   -1.9640 C   0  0  0  0  0  0  0  0  0  0  0  0
   -2.0910   11.1000   -4.7680 C   0  0  0  0  0  0  0  0  0  0  0  0
   -0.0990   12.2030   -5.4750 C   0  0  0  0  0  0  0  0  0  0  0  0
   -2.5000   15.0690   -2.6440 C   0  0  0  0  0  0  0  0  0  0  0  0
   -1.3770   14.7230   -0.6410 C   0  0  0  0  0  0  0  0  0  0  0  0
   -2.0950   10.3210   -5.8710 C   0  0  0  0  0  0  0  0  0  0  0  0
   -0.1070   11.4150   -6.5850 C   0  0  0  0  0  0  0  0  0  0  0  0
   -2.6230   14.5680   -0.1080 C   0  0  0  0  0  0  0  0  0  0  0  0
   -3.6720   14.7900   -1.4300 S   0  0  0  0  0  0  0  0  0  0  0  0
   -1.0810   10.4650   -6.8190 C   0  0  0  0  0  0  0  0  0  0  0  0
  1  2  1  0
  1  3  2  0
  1  4  1  0
  1  5  1  0
  6  1  1  6
  4  7  1  1
  4  8  1  0
  6  9  1  0
  6 10  1  0
  4 11  1  0
  9 12  1  0
 10 13  1  0
 12 13  1  0
 10 14  1  6
 11 15  2  0
 11 16  1  0
 14 17  2  0
 14 18  1  0
 15 19  1  0
 16 20  2  0
 18 21  2  0
 17 22  1  0
 21 22  1  0
 19 23  2  0
 20 23  1  0
M  END
