diamond-x0727_0_A-mac-x0223
     RDKit          3D

 22 23  0  0  0  0  0  0  0  0999 V2000
    0.0610   11.5330   -5.5760 N   0  0  0  0  0  0  0  0  0  0  0  0
    0.9270   12.2410   -4.6230 C   0  0  1  0  0  0  0  0  0  0  0  0
    1.1520   13.6890   -5.0020 C   0  0  0  0  0  0  0  0  0  0  0  0
    0.6470   11.1590   -6.7690 C   0  0  0  0  0  0  0  0  0  0  0  0
    1.6280   11.7290   -7.1770 O   0  0  0  0  0  0  0  0  0  0  0  0
    0.4580   12.0130   -3.1930 C   0  0  0  0  0  0  0  0  0  0  0  0
    0.0120    9.9820   -7.4940 C   0  0  0  0  0  0  0  0  0  0  0  0
   -0.2890   11.1220   -2.8220 O   0  0  0  0  0  0  0  0  0  0  0  0
    0.9680   12.8980   -2.3190 O   0  0  0  0  0  0  0  0  0  0  0  0
   -1.3010   10.3330   -8.1930 C   0  0  0  0  0  0  0  0  0  0  0  0
   -0.3070    8.7950   -6.5680 C   0  0  0  0  0  0  0  0  0  0  0  0
    0.0790   14.7290   -4.9130 C   0  0  0  0  0  0  0  0  0  0  0  0
   -2.1460    9.0740   -8.0840 C   0  0  0  0  0  0  0  0  0  0  0  0
   -1.7890    8.5120   -6.7210 C   0  0  0  0  0  0  0  0  0  0  0  0
   -1.3090   14.5050   -4.7900 C   0  0  0  0  0  0  0  0  0  0  0  0
    0.5680   16.0240   -4.9740 C   0  0  0  0  0  0  0  0  0  0  0  0
   -0.2790   17.0930   -4.9260 C   0  0  0  0  0  0  0  0  0  0  0  0
   -2.1780   15.6070   -4.7400 C   0  0  0  0  0  0  0  0  0  0  0  0
    0.0940   18.3910   -4.9860 O   0  0  0  0  0  0  0  0  0  0  0  0
   -1.6300   16.8860   -4.8150 C   0  0  0  0  0  0  0  0  0  0  0  0
    1.2660   18.5830   -5.7490 C   0  0  0  0  0  0  0  0  0  0  0  0
   -2.4080   17.9980   -4.7780 O   0  0  0  0  0  0  0  0  0  0  0  0
  1  2  1  0
  2  3  1  6
  1  4  1  0
  4  5  2  0
  2  6  1  0
  4  7  1  0
  6  8  2  0
  6  9  1  0
  7 10  1  0
  7 11  1  0
  3 12  1  0
 10 13  1  0
 11 14  1  0
 13 14  1  0
 12 15  2  0
 12 16  1  0
 16 17  2  0
 15 18  1  0
 17 19  1  0
 17 20  1  0
 18 20  2  0
 19 21  1  0
 20 22  1  0
M  END
