diamond-x1015_0_A-diamond-x0895_1_A
     RDKit          3D

 24 26  0  0  0  0  0  0  0  0999 V2000
   -1.3310   14.3780   -4.2360 C   0  0  0  0  0  0  0  0  0  0  0  0
   -0.0200   13.6960   -3.8500 C   0  0  2  0  0  0  0  0  0  0  0  0
   -0.0740   12.2290   -3.8870 N   0  0  0  0  0  0  0  0  0  0  0  0
    0.2130   13.8820   -2.3550 C   0  0  0  0  0  0  0  0  0  0  0  0
   -0.0490   14.9580   -1.6960 N   0  0  0  0  0  0  0  0  0  0  0  0
    0.3090   11.6950   -2.6430 C   0  0  0  0  0  0  0  0  0  0  0  0
    0.7220   12.7340   -1.8720 N   0  0  0  0  0  0  0  0  0  0  0  0
   -0.4750   11.4580   -5.0100 C   0  0  0  0  0  0  0  0  0  0  0  0
    0.3000   10.5210   -2.2620 O   0  0  0  0  0  0  0  0  0  0  0  0
    0.1960   15.0380   -0.2320 C   0  0  0  0  0  0  0  0  0  0  0  0
    0.0860   11.6700   -6.2820 C   0  0  0  0  0  0  0  0  0  0  0  0
   -1.4440   10.4520   -4.8830 C   0  0  0  0  0  0  0  0  0  0  0  0
   -0.4640   13.9120    0.5800 C   0  0  0  0  0  0  0  0  0  0  0  0
   -0.3100   10.9000   -7.3840 C   0  0  0  0  0  0  0  0  0  0  0  0
   -1.8420    9.6810   -5.9810 C   0  0  0  0  0  0  0  0  0  0  0  0
   -1.5180   14.3960    1.5070 N   0  0  0  0  0  0  0  0  0  0  0  0
   -1.2740    9.9070   -7.2260 C   0  0  0  0  0  0  0  0  0  0  0  0
   -1.7640    8.9570   -8.5710 Cl  0  0  0  0  0  0  0  0  0  0  0  0
   -2.6690   14.6620    0.9930 C   0  0  0  0  0  0  0  0  0  0  0  0
   -2.9800   14.5360   -0.4930 C   0  0  0  0  0  0  0  0  0  0  0  0
   -3.7910   15.0790    1.6420 N   0  0  0  0  0  0  0  0  0  0  0  0
   -4.3440   14.9590   -0.4900 N   0  0  0  0  0  0  0  0  0  0  0  0
   -4.8440   14.9610    0.7880 C   0  0  0  0  0  0  0  0  0  0  0  0
   -6.0230   14.8640    1.0750 O   0  0  0  0  0  0  0  0  0  0  0  0
  2  1  1  1
  2  3  1  0
  2  4  1  0
  4  5  2  3
  3  6  1  0
  4  7  1  0
  6  7  1  0
  3  8  1  0
  6  9  2  0
  5 10  1  0
  8 11  2  0
  8 12  1  0
 10 13  1  0
 11 14  1  0
 12 15  2  0
 13 16  1  0
 14 17  2  0
 15 17  1  0
 17 18  1  0
 16 19  2  3
 19 20  1  0
 19 21  1  0
 20 22  1  0
 21 23  1  0
 22 23  1  0
 23 24  2  0
M  END
