diamond-x0689_0_A-diamond-x1012_0_A
     RDKit          3D

 21 22  0  0  0  0  0  0  0  0999 V2000
   -3.7490   15.4200    1.6800 N   0  0  0  0  0  0  0  0  0  0  0  0
   -4.9440   14.9540    1.0400 C   0  0  0  0  0  0  0  0  0  0  0  0
   -2.5800   14.9400    1.1360 C   0  0  0  0  0  0  0  0  0  0  0  0
   -2.5570   14.9160   -0.1900 N   0  0  0  0  0  0  0  0  0  0  0  0
   -1.5720   14.5430    1.9190 N   0  0  0  0  0  0  0  0  0  0  0  0
   -1.4340   14.4660   -0.7440 C   0  0  0  0  0  0  0  0  0  0  0  0
   -0.4600   14.1030    1.3240 C   0  0  0  0  0  0  0  0  0  0  0  0
   -0.3420   14.0420   -0.0340 C   0  0  0  0  0  0  0  0  0  0  0  0
    0.8150   13.5660   -0.7840 C   0  0  0  0  0  0  0  0  0  0  0  0
    0.5770   13.8800   -2.0800 N   0  0  0  0  0  0  0  0  0  0  0  0
    0.3150   13.0800   -2.9700 C   0  0  0  0  0  0  0  0  0  0  0  0
    0.2800   11.7370   -2.7930 O   0  0  0  0  0  0  0  0  0  0  0  0
   -0.0150   13.7190   -4.2190 C   0  0  0  0  0  0  0  0  0  0  0  0
   -1.2860   13.3900   -4.9030 C   0  0  0  0  0  0  0  0  0  0  0  0
    1.0750   14.3420   -5.0140 C   0  0  0  0  0  0  0  0  0  0  0  0
   -1.8710   14.7720   -5.1550 C   0  0  0  0  0  0  0  0  0  0  0  0
    0.5990   15.7790   -5.1370 C   0  0  0  0  0  0  0  0  0  0  0  0
   -0.8950   15.9240   -5.1140 N   0  0  0  0  0  0  0  0  0  0  0  0
   -1.3500   17.1970   -4.9020 C   0  0  0  0  0  0  0  0  0  0  0  0
   -0.4300   18.1860   -4.9220 N   0  0  0  0  0  0  0  0  0  0  0  0
   -2.5100   17.4890   -4.7020 O   0  0  0  0  0  0  0  0  0  0  0  0
  1  2  1  0
  1  3  1  0
  3  4  2  0
  3  5  1  0
  4  6  1  0
  5  7  2  0
  6  8  2  0
  7  8  1  0
  8  9  1  0
  9 10  1  0
 10 11  2  3
 11 12  1  0
 11 13  1  0
 13 14  1  0
 13 15  1  0
 14 16  1  0
 15 17  1  0
 16 18  1  0
 17 18  1  0
 18 19  1  0
 19 20  1  0
 19 21  2  0
M  END
