diamond-x0969_0_A-diamond-x0933_0_A
     RDKit          3D

 10 11  0  0  0  0  0  0  0  0999 V2000
   -6.8000   14.7040    2.5710 N   0  0  0  0  0  0  0  0  0  0  0  0
   -6.6010   14.7380    1.2350 C   0  0  0  0  0  0  0  0  0  0  0  0
   -7.5340   14.6450    0.3140 N   0  0  0  0  0  0  0  0  0  0  0  0
   -5.3670   14.8910    0.6210 N   0  0  0  0  0  0  0  0  0  0  0  0
   -6.9410   14.7380   -0.9220 N   0  0  0  0  0  0  0  0  0  0  0  0
   -5.6500   14.8850   -0.7400 C   0  0  0  0  0  0  0  0  0  0  0  0
   -4.0770   15.0280    1.1330 C   0  0  0  0  0  0  0  0  0  0  0  0
   -4.5660   15.0280   -1.6430 C   0  0  0  0  0  0  0  0  0  0  0  0
   -3.0520   15.1530    0.2780 C   0  0  0  0  0  0  0  0  0  0  0  0
   -3.3190   15.1520   -1.1540 C   0  0  0  0  0  0  0  0  0  0  0  0
  1  2  1  0
  2  3  2  0
  2  4  1  0
  3  5  1  0
  4  6  1  0
  5  6  2  0
  4  7  1  0
  6  8  1  0
  7  9  2  0
  8 10  2  0
  9 10  1  0
M  END
