diamond-x0711_0_A-diamond-x0933_0_A
     RDKit          3D

 14 14  0  0  0  0  0  0  0  0999 V2000
   -1.5460   15.0570   -2.5520 N   0  0  0  0  0  0  0  0  0  0  0  0
   -0.5640   13.8050   -3.0740 S   0  0  0  0  0  0  0  0  0  0  0  0
   -1.6830   12.7630   -3.9830 C   0  0  0  0  0  0  0  0  0  0  0  0
   -2.7770   14.9280   -1.8340 C   0  0  0  0  0  0  0  0  0  0  0  0
    0.3170   14.4300   -4.0380 O   0  0  0  0  0  0  0  0  0  0  0  0
   -0.0330   13.0830   -1.9390 O   0  0  0  0  0  0  0  0  0  0  0  0
   -3.9950   15.1640   -2.4740 C   0  0  0  0  0  0  0  0  0  0  0  0
   -2.7640   14.5780   -0.4790 C   0  0  0  0  0  0  0  0  0  0  0  0
   -5.1970   15.0580   -1.7690 C   0  0  0  0  0  0  0  0  0  0  0  0
   -3.9660   14.4710    0.2300 C   0  0  0  0  0  0  0  0  0  0  0  0
   -5.1920   14.7120   -0.4140 C   0  0  0  0  0  0  0  0  0  0  0  0
   -6.4580   14.5920    0.3690 C   0  0  0  0  0  0  0  0  0  0  0  0
   -6.4060   14.6760    1.7370 N   0  0  0  0  0  0  0  0  0  0  0  0
   -7.5340   14.4380   -0.1930 O   0  0  0  0  0  0  0  0  0  0  0  0
  2  1  1  0
  2  3  1  0
  1  4  1  0
  2  5  2  0
  2  6  2  0
  4  7  2  0
  4  8  1  0
  7  9  1  0
  8 10  2  0
  9 11  2  0
 10 11  1  0
 11 12  1  0
 12 13  1  0
 12 14  2  0
M  END
