diamond-x0855_0_A-diamond-x0837_0_A
     RDKit          3D

 21 22  0  0  0  0  0  0  0  0999 V2000
    1.6800   12.9240   -2.3740 O   0  0  0  0  0  0  0  0  0  0  0  0
    0.9420   12.1930   -3.2830 C   0  0  0  0  0  0  0  0  0  0  0  0
    0.4580   12.7060   -4.5590 C   0  0  2  0  0  0  0  0  0  0  0  0
    0.6720   11.0100   -2.9800 O   0  0  0  0  0  0  0  0  0  0  0  0
   -0.0680   14.1060   -4.4900 C   0  0  0  0  0  0  0  0  0  0  0  0
   -0.5020   11.7830   -5.1160 N   0  0  0  0  0  0  0  0  0  0  0  0
    0.0160   14.8330   -3.1750 C   0  0  0  0  0  0  0  0  0  0  0  0
   -0.3270   10.8410   -6.0580 C   0  0  0  0  0  0  0  0  0  0  0  0
   -1.7540   11.7770   -4.7040 N   0  0  0  0  0  0  0  0  0  0  0  0
   -0.9980   14.2530   -2.1740 C   0  0  0  0  0  0  0  0  0  0  0  0
   -1.5440   10.2100   -6.2290 C   0  0  0  0  0  0  0  0  0  0  0  0
   -2.4120   10.8210   -5.3690 C   0  0  0  0  0  0  0  0  0  0  0  0
   -2.0070    8.7820   -7.3910 Br  0  0  0  0  0  0  0  0  0  0  0  0
   -3.0250   14.6460   -2.7160 I   0  0  0  0  0  0  0  0  0  0  0  0
   -4.1840   15.3410   -1.0460 C   0  0  2  0  0  0  0  0  0  0  0  0
   -3.4760   15.0620    0.2240 C   0  0  0  0  0  0  0  0  0  0  0  0
   -5.5420   14.7360   -1.1110 C   0  0  0  0  0  0  0  0  0  0  0  0
   -4.1260   14.8200    1.3400 C   0  0  0  0  0  0  0  0  0  0  0  0
   -6.2710   14.7580    0.1780 C   0  0  0  0  0  0  0  0  0  0  0  0
   -7.5080   14.7380    0.2080 O   0  0  0  0  0  0  0  0  0  0  0  0
   -5.5410   14.8020    1.4010 N   0  0  0  0  0  0  0  0  0  0  0  0
  1  2  1  0
  2  3  1  0
  2  4  2  0
  3  5  1  1
  3  6  1  0
  5  7  1  0
  6  8  1  0
  6  9  1  0
  7 10  1  0
  8 11  2  0
  9 12  2  0
 11 12  1  0
 11 13  1  0
 10 14  1  0
 15 14  1  6
 15 16  1  0
 15 17  1  0
 16 18  2  0
 17 19  1  0
 19 20  2  0
 18 21  1  0
 19 21  1  0
M  END
