diamond-x0864_0_A-mac-x0116
     RDKit          3D

 29 32  0  0  0  0  0  0  0  0999 V2000
    1.4980   11.7360   -7.0050 O   0  0  0  0  0  0  0  0  0  0  0  0
    0.4950   11.2270   -6.5290 C   0  0  0  0  0  0  0  0  0  0  0  0
   -0.0680   11.6310   -5.3390 N   0  0  0  0  0  0  0  0  0  0  0  0
   -0.1550   10.1050   -7.2310 C   0  0  0  0  0  0  0  0  0  0  0  0
    0.4670   12.8610   -4.7830 C   0  0  0  0  0  0  0  0  0  0  0  0
   -1.2960   11.1460   -4.9080 C   0  0  0  0  0  0  0  0  0  0  0  0
   -1.3040    9.6080   -6.7610 C   0  0  0  0  0  0  0  0  0  0  0  0
    0.5710   12.8560   -3.2790 C   0  0  0  0  0  0  0  0  0  0  0  0
   -2.1640    8.1840   -7.6030 Br  0  0  0  0  0  0  0  0  0  0  0  0
   -1.9140   10.1660   -5.5800 C   0  0  0  0  0  0  0  0  0  0  0  0
    0.6930   11.6170   -2.7300 O   0  0  0  0  0  0  0  0  0  0  0  0
    0.5580   13.8810   -2.5020 N   0  0  0  0  0  0  0  0  0  0  0  0
    0.6710   13.8560   -1.0580 C   0  0  0  0  0  0  0  0  0  0  0  0
   -0.4940   14.1700   -0.2440 N   0  0  0  0  0  0  0  0  0  0  0  0
   -1.7700   14.5160   -0.6290 C   0  0  0  0  0  0  0  0  0  0  0  0
   -0.4790   14.1520    1.1290 C   0  0  0  0  0  0  0  0  0  0  0  0
   -2.2820   14.6770   -1.8630 N   0  0  0  0  0  0  0  0  0  0  0  0
   -2.4520   14.6660    0.5680 C   0  0  0  0  0  0  0  0  0  0  0  0
   -1.6370   14.4430    1.6520 N   0  0  0  0  0  0  0  0  0  0  0  0
   -3.5910   15.0120   -1.8060 C   0  0  0  0  0  0  0  0  0  0  0  0
   -3.8060   15.0000    0.5100 C   0  0  0  0  0  0  0  0  0  0  0  0
   -4.5290   15.1300    1.6960 N   0  0  0  0  0  0  0  0  0  0  0  0
   -4.3690   15.1780   -0.7140 N   0  0  0  0  0  0  0  0  0  0  0  0
   -5.9380   14.7630    1.6540 C   0  0  0  0  0  0  0  0  0  0  0  0
   -6.3240   13.3230    1.6650 C   0  0  0  0  0  0  0  0  0  0  0  0
   -6.2480   12.6460    0.4810 O   0  0  0  0  0  0  0  0  0  0  0  0
   -6.7770   12.4860    2.6590 C   0  0  0  0  0  0  0  0  0  0  0  0
   -6.9940   11.2360    2.0590 C   0  0  0  0  0  0  0  0  0  0  0  0
   -6.6580   11.3820    0.7340 C   0  0  0  0  0  0  0  0  0  0  0  0
  1  2  2  0
  2  3  1  0
  2  4  1  0
  3  5  1  0
  3  6  1  0
  4  7  2  0
  5  8  1  0
  7  9  1  0
  6 10  2  0
  7 10  1  0
  8 11  1  0
  8 12  2  3
 12 13  1  0
 13 14  1  0
 14 15  1  0
 14 16  1  0
 15 17  2  0
 15 18  1  0
 16 19  2  0
 18 19  1  0
 17 20  1  0
 18 21  2  0
 21 22  1  0
 20 23  2  0
 21 23  1  0
 22 24  1  0
 24 25  1  0
 25 26  1  0
 25 27  2  0
 27 28  1  0
 26 29  1  0
 28 29  2  0
M  END
