diamond-x0371_0_A-diamond-x0950_0_A
     RDKit          3D

 27 29  0  0  0  0  0  0  0  0999 V2000
   -8.0700   14.4970    3.0050 N   0  0  0  0  0  0  0  0  0  0  0  0
   -8.7500   15.5120    3.6410 C   0  0  0  0  0  0  0  0  0  0  0  0
   -9.4140   16.3230    2.9920 O   0  0  0  0  0  0  0  0  0  0  0  0
   -8.3310   14.2280    1.6160 C   0  0  0  0  0  0  0  0  0  0  0  0
   -7.0630   14.4680    0.8870 C   0  0  0  0  0  0  0  0  0  0  0  0
   -8.6330   15.5350    5.0800 C   0  0  0  0  0  0  0  0  0  0  0  0
   -5.8600   14.3180    1.5150 N   0  0  0  0  0  0  0  0  0  0  0  0
   -6.9080   14.8330   -0.3760 N   0  0  0  0  0  0  0  0  0  0  0  0
   -8.0540   14.4580    5.6940 O   0  0  0  0  0  0  0  0  0  0  0  0
   -8.9960   16.4560    6.0460 C   0  0  0  0  0  0  0  0  0  0  0  0
   -5.5460   14.9150   -0.5590 C   0  0  0  0  0  0  0  0  0  0  0  0
   -4.8730   14.5960    0.6140 C   0  0  0  0  0  0  0  0  0  0  0  0
   -8.6190   15.9060    7.2960 C   0  0  0  0  0  0  0  0  0  0  0  0
   -8.0480   14.6900    7.0260 C   0  0  0  0  0  0  0  0  0  0  0  0
   -3.4920   14.5870    0.7420 C   0  0  0  0  0  0  0  0  0  0  0  0
   -4.8040   15.2510   -1.6970 C   0  0  0  0  0  0  0  0  0  0  0  0
   -2.7470   14.9160   -0.3940 C   0  0  0  0  0  0  0  0  0  0  0  0
   -3.4050   15.2460   -1.6020 C   0  0  0  0  0  0  0  0  0  0  0  0
   -1.2330   14.9120   -0.2950 C   0  0  0  0  0  0  0  0  0  0  0  0
   -0.5960   13.5550   -0.2920 C   0  0  0  0  0  0  0  0  0  0  0  0
    0.5340   13.5690   -1.3060 C   0  0  0  0  0  0  0  0  0  0  0  0
    0.8680   12.2190   -1.5960 O   0  0  0  0  0  0  0  0  0  0  0  0
    0.7390   11.8070   -2.8940 C   0  0  0  0  0  0  0  0  0  0  0  0
    1.3320   12.7740   -3.9390 C   0  0  1  0  0  0  0  0  0  0  0  0
    0.2030   10.7550   -3.2100 O   0  0  0  0  0  0  0  0  0  0  0  0
    2.8450   12.8980   -3.8570 C   0  0  0  0  0  0  0  0  0  0  0  0
    1.0000   12.3380   -5.2610 O   0  0  0  0  0  0  0  0  0  0  0  0
  1  2  1  0
  2  3  2  0
  1  4  1  0
  4  5  1  0
  2  6  1  0
  5  7  1  0
  5  8  2  0
  6  9  1  0
  6 10  2  0
  8 11  1  0
  7 12  1  0
 11 12  2  0
 10 13  1  0
  9 14  1  0
 13 14  2  0
 12 15  1  0
 11 16  1  0
 15 17  2  0
 16 18  2  0
 17 18  1  0
 17 19  1  0
 19 20  1  0
 20 21  1  0
 21 22  1  0
 22 23  1  0
 23 24  1  0
 23 25  2  0
 24 26  1  6
 24 27  1  0
M  END
