diamond-x0910_0_A-diamond-x0895_0_A
     RDKit          3D

 12 13  0  0  0  0  0  0  0  0999 V2000
   -2.4890   14.6320   -1.2560 N   0  0  0  0  0  0  0  0  0  0  0  0
   -1.2720   14.7300   -0.7830 C   0  0  0  0  0  0  0  0  0  0  0  0
   -1.1280   15.0650    0.5240 N   0  0  0  0  0  0  0  0  0  0  0  0
   -3.2900   14.6170   -0.2690 C   0  0  0  0  0  0  0  0  0  0  0  0
   -0.1130   14.5740   -1.3270 N   0  0  0  0  0  0  0  0  0  0  0  0
   -3.0540   14.6660    1.2160 C   0  0  0  0  0  0  0  0  0  0  0  0
   -4.7530   14.5580   -0.4660 C   0  0  0  0  0  0  0  0  0  0  0  0
   -2.0120   14.4140    1.8130 O   0  0  0  0  0  0  0  0  0  0  0  0
    0.1400   15.1390    0.8770 N   0  0  0  0  0  0  0  0  0  0  0  0
    0.7160   14.8360   -0.2910 C   0  0  0  0  0  0  0  0  0  0  0  0
   -5.2500   15.3680    0.6510 N   0  0  0  0  0  0  0  0  0  0  0  0
   -4.3650   15.0860    1.8010 C   0  0  0  0  0  0  0  0  0  0  0  0
  1  2  1  0
  2  3  1  0
  1  4  2  3
  2  5  2  0
  4  6  1  0
  4  7  1  0
  6  8  2  0
  3  9  1  0
  5 10  1  0
  9 10  2  0
  7 11  1  0
  6 12  1  0
 11 12  1  0
M  END
