diamond-x0926_0_A-diamond-x0628_0_A
     RDKit          3D

 21 22  0  0  0  0  0  0  0  0999 V2000
   -6.5670   15.0540   -0.5290 O   0  0  0  0  0  0  0  0  0  0  0  0
   -5.3400   15.1760   -0.4380 C   0  0  0  0  0  0  0  0  0  0  0  0
   -4.6430   15.2700    0.9180 C   0  0  0  0  0  0  0  0  0  0  0  0
   -4.5520   15.2180   -1.5680 N   0  0  0  0  0  0  0  0  0  0  0  0
   -3.1900   14.8570   -1.5040 N   0  0  0  0  0  0  0  0  0  0  0  0
   -3.1930   14.9540    0.8910 C   0  0  0  0  0  0  0  0  0  0  0  0
   -2.4920   14.6470   -2.7970 C   0  0  0  0  0  0  0  0  0  0  0  0
   -2.5680   14.7740   -0.2740 C   0  0  0  0  0  0  0  0  0  0  0  0
   -1.9520   13.2120   -2.9770 C   0  0  0  0  0  0  0  0  0  0  0  0
   -2.6040   12.4530   -4.1450 C   0  0  0  0  0  0  0  0  0  0  0  0
   -1.6870   11.6970   -5.0670 C   0  0  0  0  0  0  0  0  0  0  0  0
   -1.9750   10.5250   -5.6130 N   0  0  0  0  0  0  0  0  0  0  0  0
   -0.4300   12.0700   -5.5030 N   0  0  0  0  0  0  0  0  0  0  0  0
    0.3670   13.2460   -5.2160 C   0  0  0  0  0  0  0  0  0  0  0  0
   -0.8780   10.2250   -6.3680 C   0  0  0  0  0  0  0  0  0  0  0  0
    0.0870   11.1420   -6.3300 N   0  0  0  0  0  0  0  0  0  0  0  0
   -0.7620    8.9870   -7.1660 C   0  0  0  0  0  0  0  0  0  0  0  0
    1.5690   12.9680   -4.3300 C   0  0  0  0  0  0  0  0  0  0  0  0
    1.1750   12.2600   -3.0660 C   0  0  0  0  0  0  0  0  0  0  0  0
    0.5230   11.2330   -2.9680 O   0  0  0  0  0  0  0  0  0  0  0  0
    1.6300   12.8950   -1.9700 O   0  0  0  0  0  0  0  0  0  0  0  0
  1  2  2  0
  2  3  1  0
  2  4  1  0
  4  5  1  0
  3  6  1  0
  5  7  1  0
  5  8  1  0
  6  8  2  0
  7  9  1  0
  9 10  1  0
 10 11  1  0
 11 12  2  0
 11 13  1  0
 13 14  1  0
 12 15  1  0
 13 16  1  0
 15 16  2  0
 15 17  1  0
 14 18  1  0
 18 19  1  0
 19 20  2  0
 19 21  1  0
M  END
