diamond-x0766_0_A-diamond-x0962_0_A
     RDKit          3D

 19 21  0  0  0  0  0  0  0  0999 V2000
    0.3660   12.2200   -2.3110 C   0  0  0  0  0  0  0  0  0  0  0  0
   -0.1110   11.1040   -2.8850 O   0  0  0  0  0  0  0  0  0  0  0  0
    0.3570   12.3910   -1.1130 O   0  0  0  0  0  0  0  0  0  0  0  0
    0.9420   13.2450   -3.2270 C   0  0  1  0  0  0  0  0  0  0  0  0
    0.7040   13.1770   -4.7140 C   0  0  0  0  0  0  0  0  0  0  0  0
    0.5390   14.6950   -2.8550 C   0  0  1  0  0  0  0  0  0  0  0  0
    1.4100   14.4560   -5.0590 C   0  0  0  0  0  0  0  0  0  0  0  0
    0.8480   15.4910   -4.1150 C   0  0  0  0  0  0  0  0  0  0  0  0
   -0.8440   14.9540   -2.3570 C   0  0  0  0  0  0  0  0  0  0  0  0
   -2.0550   14.7330   -2.8860 C   0  0  0  0  0  0  0  0  0  0  0  0
   -0.9880   15.5790   -1.0650 C   0  0  0  0  0  0  0  0  0  0  0  0
   -2.2710   15.7590   -0.7930 C   0  0  0  0  0  0  0  0  0  0  0  0
   -3.0920   15.2170   -1.9260 C   0  0  2  0  0  0  0  0  0  0  0  0
   -4.0000   14.1280   -1.4370 C   0  0  0  0  0  0  0  0  0  0  0  0
   -4.6180   14.5020   -0.1630 C   0  0  0  0  0  0  0  0  0  0  0  0
   -3.9070   14.9810    0.9050 N   0  0  0  0  0  0  0  0  0  0  0  0
   -5.9150   14.4780    0.2420 C   0  0  0  0  0  0  0  0  0  0  0  0
   -4.8020   15.2250    1.8920 C   0  0  0  0  0  0  0  0  0  0  0  0
   -6.0250   14.9240    1.5230 N   0  0  0  0  0  0  0  0  0  0  0  0
  1  2  1  0
  1  3  2  0
  4  1  1  1
  4  5  1  0
  4  6  1  0
  5  7  1  0
  6  8  1  0
  7  8  1  0
  6  9  1  6
  9 10  2  0
  9 11  1  0
 11 12  2  0
 10 13  1  0
 12 13  1  0
 13 14  1  1
 14 15  1  0
 15 16  1  0
 15 17  2  0
 16 18  1  0
 17 19  1  0
 18 19  2  0
M  END
