diamond-x0962_3_A-mac-x0188
     RDKit          3D

 24 26  0  0  0  0  0  0  0  0999 V2000
    1.9770   11.1010   -8.2130 N   0  0  0  0  0  0  0  0  0  0  0  0
    0.5950   11.1940   -7.8210 C   0  0  2  0  0  0  0  0  0  0  0  0
    0.4010   12.0210   -6.5440 C   0  0  0  0  0  0  0  0  0  0  0  0
   -0.0940    9.8960   -7.7660 C   0  0  0  0  0  0  0  0  0  0  0  0
    1.5470   12.8410   -5.9700 C   0  0  0  0  0  0  0  0  0  0  0  0
    0.2620    8.7340   -8.4050 N   0  0  0  0  0  0  0  0  0  0  0  0
   -1.2320    9.5730   -7.0710 C   0  0  0  0  0  0  0  0  0  0  0  0
    1.5040   13.1020   -4.5020 C   0  0  0  0  0  0  0  0  0  0  0  0
   -0.6680    7.7890   -8.0680 C   0  0  0  0  0  0  0  0  0  0  0  0
   -1.5830    8.2730   -7.2610 N   0  0  0  0  0  0  0  0  0  0  0  0
    0.1440   13.5260   -4.1090 C   0  0  0  0  0  0  0  0  0  0  0  0
   -0.8550   13.4410   -5.0310 O   0  0  0  0  0  0  0  0  0  0  0  0
   -0.3510   14.0160   -2.9410 C   0  0  0  0  0  0  0  0  0  0  0  0
    0.4740   14.2320   -1.7850 C   0  0  0  0  0  0  0  0  0  0  0  0
   -2.0370   13.8680   -4.4680 N   0  0  0  0  0  0  0  0  0  0  0  0
   -1.7360   14.2070   -3.2010 C   0  0  0  0  0  0  0  0  0  0  0  0
    0.7920   15.3300   -1.3790 O   0  0  0  0  0  0  0  0  0  0  0  0
    0.9290   13.1400   -1.1390 O   0  0  0  0  0  0  0  0  0  0  0  0
   -2.7670   14.6810   -2.2930 C   0  0  0  0  0  0  0  0  0  0  0  0
   -4.0150   15.0940   -2.7600 C   0  0  0  0  0  0  0  0  0  0  0  0
   -2.4980   14.7100   -0.9210 C   0  0  0  0  0  0  0  0  0  0  0  0
   -4.9830   15.5310   -1.8530 C   0  0  0  0  0  0  0  0  0  0  0  0
   -3.4640   15.1470   -0.0200 C   0  0  0  0  0  0  0  0  0  0  0  0
   -4.7030   15.5560   -0.4900 C   0  0  0  0  0  0  0  0  0  0  0  0
  2  1  1  1
  2  3  1  0
  2  4  1  0
  3  5  1  0
  4  6  1  0
  4  7  2  0
  5  8  1  0
  6  9  1  0
  7 10  1  0
  9 10  2  0
  8 11  1  0
 11 12  1  0
 11 13  2  0
 13 14  1  0
 12 15  1  0
 13 16  1  0
 15 16  2  0
 14 17  2  0
 14 18  1  0
 16 19  1  0
 19 20  2  0
 19 21  1  0
 20 22  1  0
 21 23  2  0
 22 24  2  0
 23 24  1  0
M  END
