diamond-x0766_0_A-mac-x0360
     RDKit          3D

 24 26  0  0  0  0  0  0  0  0999 V2000
    0.4740   12.3260   -2.6630 C   0  0  0  0  0  0  0  0  0  0  0  0
    0.0710   11.0430   -2.5770 O   0  0  0  0  0  0  0  0  0  0  0  0
    1.1280   12.8450   -1.7820 O   0  0  0  0  0  0  0  0  0  0  0  0
    0.0280   12.9770   -3.9520 C   0  0  2  0  0  0  0  0  0  0  0  0
    1.2490   13.1880   -4.8670 C   0  0  0  0  0  0  0  0  0  0  0  0
   -0.5020   14.4200   -3.7720 C   0  0  2  0  0  0  0  0  0  0  0  0
    1.6700   14.6450   -4.6610 C   0  0  0  0  0  0  0  0  0  0  0  0
    0.7970   15.1950   -3.5710 C   0  0  0  0  0  0  0  0  0  0  0  0
   -1.5000   14.7930   -2.7220 C   0  0  0  0  0  0  0  0  0  0  0  0
   -2.8350   14.6060   -2.5810 C   0  0  0  0  0  0  0  0  0  0  0  0
   -0.9960   15.5290   -1.5900 C   0  0  0  0  0  0  0  0  0  0  0  0
   -1.9860   15.8540   -0.7860 C   0  0  0  0  0  0  0  0  0  0  0  0
   -3.2760   15.3630   -1.3440 C   0  0  2  0  0  0  0  0  0  0  0  0
   -4.0470   14.5840    0.0560 S   0  0  0  0  0  0  0  0  0  0  0  0
   -5.1100   15.4880    0.4360 O   0  0  0  0  0  0  0  0  0  0  0  0
   -2.9970   14.2950    1.0120 O   0  0  0  0  0  0  0  0  0  0  0  0
   -4.8760   13.0620   -0.3040 C   0  0  0  0  0  0  0  0  0  0  0  0
   -4.5600   12.2180   -1.3720 C   0  0  0  0  0  0  0  0  0  0  0  0
   -5.9010   12.7570    0.5860 C   0  0  0  0  0  0  0  0  0  0  0  0
   -5.3140   11.0520   -1.5250 C   0  0  0  0  0  0  0  0  0  0  0  0
   -6.6310   11.6020    0.4160 C   0  0  0  0  0  0  0  0  0  0  0  0
   -7.8960   11.2410    1.5240 Cl  0  0  0  0  0  0  0  0  0  0  0  0
   -4.9730    9.9670   -2.8130 Cl  0  0  0  0  0  0  0  0  0  0  0  0
   -6.3490   10.7420   -0.6390 C   0  0  0  0  0  0  0  0  0  0  0  0
  1  2  1  0
  1  3  2  0
  4  1  1  1
  4  5  1  0
  4  6  1  0
  5  7  1  0
  6  8  1  0
  7  8  1  0
  6  9  1  1
  9 10  2  0
  9 11  1  0
 11 12  2  0
 10 13  1  0
 12 13  1  0
 13 14  1  1
 14 15  2  0
 14 16  2  0
 14 17  1  0
 17 18  2  0
 17 19  1  0
 18 20  1  0
 19 21  2  0
 21 22  1  0
 20 23  1  0
 20 24  2  0
 21 24  1  0
M  END
