diamond-x0864_0_A-diamond-x0895_1_A
     RDKit          3D

 22 23  0  0  0  0  0  0  0  0999 V2000
    1.5520   11.5820   -7.1110 O   0  0  0  0  0  0  0  0  0  0  0  0
    0.4940   11.1990   -6.6520 C   0  0  0  0  0  0  0  0  0  0  0  0
   -0.0970   11.7470   -5.5340 N   0  0  0  0  0  0  0  0  0  0  0  0
   -0.2110   10.0750   -7.2910 C   0  0  0  0  0  0  0  0  0  0  0  0
    0.7180   12.7360   -4.8490 C   0  0  0  0  0  0  0  0  0  0  0  0
   -1.2300   11.1990   -4.9520 C   0  0  0  0  0  0  0  0  0  0  0  0
   -1.3210    9.5830   -6.7390 C   0  0  0  0  0  0  0  0  0  0  0  0
    0.6890   12.6640   -3.3420 C   0  0  0  0  0  0  0  0  0  0  0  0
   -2.2400    8.1580   -7.5140 Br  0  0  0  0  0  0  0  0  0  0  0  0
   -1.8450   10.1500   -5.5140 C   0  0  0  0  0  0  0  0  0  0  0  0
    0.5860   11.4340   -2.7870 O   0  0  0  0  0  0  0  0  0  0  0  0
    0.7510   13.6620   -2.5520 N   0  0  0  0  0  0  0  0  0  0  0  0
    0.6990   13.4910   -1.1250 C   0  0  0  0  0  0  0  0  0  0  0  0
   -0.4870   14.2520   -0.5480 C   0  0  0  0  0  0  0  0  0  0  0  0
   -0.3890   14.5230    0.9560 C   0  0  0  0  0  0  0  0  0  0  0  0
   -1.6920   14.5760    1.6150 N   0  0  0  0  0  0  0  0  0  0  0  0
   -2.8190   14.6370    0.9840 C   0  0  0  0  0  0  0  0  0  0  0  0
   -2.9980   14.6450   -0.5310 C   0  0  0  0  0  0  0  0  0  0  0  0
   -4.0550   14.6920    1.5480 N   0  0  0  0  0  0  0  0  0  0  0  0
   -4.3460   15.1270   -0.5960 N   0  0  0  0  0  0  0  0  0  0  0  0
   -4.9860   14.8810    0.5880 C   0  0  0  0  0  0  0  0  0  0  0  0
   -6.1940   14.8350    0.7370 O   0  0  0  0  0  0  0  0  0  0  0  0
  1  2  2  0
  2  3  1  0
  2  4  1  0
  3  5  1  0
  3  6  1  0
  4  7  2  0
  5  8  1  0
  7  9  1  0
  6 10  2  0
  7 10  1  0
  8 11  1  0
  8 12  2  3
 12 13  1  0
 13 14  1  0
 14 15  1  0
 15 16  1  0
 16 17  2  3
 17 18  1  0
 17 19  1  0
 18 20  1  0
 19 21  1  0
 20 21  1  0
 21 22  2  0
M  END
