diamond-x0371_0_A-mac-x0206
     RDKit          3D

 22 24  0  0  0  0  0  0  0  0999 V2000
   -7.9350   14.4380    2.8520 N   0  0  0  0  0  0  0  0  0  0  0  0
   -8.6600   15.3780    3.5570 C   0  0  0  0  0  0  0  0  0  0  0  0
   -9.3710   16.1520    2.9040 O   0  0  0  0  0  0  0  0  0  0  0  0
   -7.9490   14.1630    1.4140 C   0  0  0  0  0  0  0  0  0  0  0  0
   -6.6280   14.5830    0.8190 C   0  0  0  0  0  0  0  0  0  0  0  0
   -8.5890   15.4360    5.0060 C   0  0  0  0  0  0  0  0  0  0  0  0
   -5.5860   14.8070    1.5610 N   0  0  0  0  0  0  0  0  0  0  0  0
   -6.3670   14.8110   -0.6950 C   0  0  1  0  0  0  0  0  0  0  0  0
   -8.0830   14.3950    5.7310 O   0  0  0  0  0  0  0  0  0  0  0  0
   -8.9720   16.4390    5.8780 C   0  0  0  0  0  0  0  0  0  0  0  0
   -5.7330   13.7270   -1.5290 C   0  0  0  0  0  0  0  0  0  0  0  0
   -7.2680   15.6810   -1.3580 O   0  0  0  0  0  0  0  0  0  0  0  0
   -4.9920   15.2620   -0.6250 C   0  0  0  0  0  0  0  0  0  0  0  0
   -4.5760   15.2080    0.6820 C   0  0  0  0  0  0  0  0  0  0  0  0
   -8.6810   15.9770    7.1880 C   0  0  0  0  0  0  0  0  0  0  0  0
   -8.1390   14.7270    7.0390 C   0  0  0  0  0  0  0  0  0  0  0  0
   -4.5280   13.2960   -0.9920 N   0  0  0  0  0  0  0  0  0  0  0  0
   -6.1380   13.3080   -2.5860 O   0  0  0  0  0  0  0  0  0  0  0  0
   -3.2870   15.5250    0.9920 C   0  0  0  0  0  0  0  0  0  0  0  0
   -4.1910   15.6310   -1.6770 C   0  0  0  0  0  0  0  0  0  0  0  0
   -2.4330   15.9000   -0.0540 C   0  0  0  0  0  0  0  0  0  0  0  0
   -2.8860   15.9530   -1.3780 C   0  0  0  0  0  0  0  0  0  0  0  0
  1  2  1  0
  2  3  2  0
  1  4  1  0
  4  5  1  0
  2  6  1  0
  5  7  2  0
  5  8  1  0
  6  9  1  0
  6 10  2  0
  8 11  1  0
  8 12  1  6
  8 13  1  0
  7 14  1  0
 13 14  2  0
 10 15  1  0
  9 16  1  0
 15 16  2  0
 11 17  1  0
 11 18  2  0
 14 19  1  0
 13 20  1  0
 19 21  2  0
 20 22  2  0
 21 22  1  0
M  END
