diamond-x0574_0_A-mac-x0255
     RDKit          3D

 26 29  0  0  0  0  0  0  0  0999 V2000
   -0.0250   13.9100    2.0600 N   0  0  0  0  0  0  0  0  0  0  0  0
   -0.2930   13.7300    0.6830 C   0  0  1  0  0  0  0  0  0  0  0  0
   -1.5480   13.2140    0.3060 N   0  0  0  0  0  0  0  0  0  0  0  0
   -0.5330   15.3040    0.0340 S   0  0  0  0  0  0  0  0  0  0  0  0
   -1.4880   13.1580   -1.1810 C   0  0  0  0  0  0  0  0  0  0  0  0
   -2.5130   14.0320    1.0880 C   0  0  1  0  0  0  0  0  0  0  0  0
   -2.3780   15.2800    0.3180 C   0  0  2  0  0  0  0  0  0  0  0  0
   -0.0870   13.1550   -1.6440 O   0  0  0  0  0  0  0  0  0  0  0  0
   -4.0090   13.6940    1.3520 C   0  0  0  0  0  0  0  0  0  0  0  0
   -3.2520   15.2690   -0.9220 C   0  0  0  0  0  0  0  0  0  0  0  0
    0.3000   12.2170   -2.5870 C   0  0  0  0  0  0  0  0  0  0  0  0
   -5.0610   14.0730    0.2900 C   0  0  2  0  0  0  0  0  0  0  0  0
   -4.4710   14.7260   -0.9180 C   0  0  0  0  0  0  0  0  0  0  0  0
   -6.0330   14.9760    0.8450 O   0  0  0  0  0  0  0  0  0  0  0  0
    0.0390   11.0160   -2.5260 O   0  0  0  0  0  0  0  0  0  0  0  0
    1.1110   12.8420   -3.7140 C   0  0  0  0  0  0  0  0  0  0  0  0
   -6.5570   14.5570    2.1050 C   0  0  0  0  0  0  0  0  0  0  0  0
    0.4960   14.1200   -4.1970 C   0  0  0  0  0  0  0  0  0  0  0  0
    1.1170   15.3270   -4.4640 C   0  0  0  0  0  0  0  0  0  0  0  0
   -1.1820   14.2060   -4.4880 S   0  0  0  0  0  0  0  0  0  0  0  0
    0.2060   16.3370   -4.9110 C   0  0  0  0  0  0  0  0  0  0  0  0
   -1.1070   15.8540   -4.9700 C   0  0  0  0  0  0  0  0  0  0  0  0
    0.4350   17.6800   -5.2810 C   0  0  0  0  0  0  0  0  0  0  0  0
   -2.1780   16.6680   -5.3810 C   0  0  0  0  0  0  0  0  0  0  0  0
   -0.6240   18.4890   -5.6920 C   0  0  0  0  0  0  0  0  0  0  0  0
   -1.9140   17.9900   -5.7420 C   0  0  0  0  0  0  0  0  0  0  0  0
  2  1  1  1
  2  3  1  0
  2  4  1  0
  3  5  1  0
  3  6  1  0
  4  7  1  0
  6  7  1  0
  5  8  1  0
  6  9  1  6
  7 10  1  6
  8 11  1  0
  9 12  1  0
 10 13  2  0
 12 13  1  0
 12 14  1  1
 11 15  2  0
 11 16  1  0
 14 17  1  0
 16 18  1  0
 18 19  2  0
 18 20  1  0
 19 21  1  0
 20 22  1  0
 21 22  2  0
 21 23  1  0
 22 24  1  0
 23 25  2  0
 24 26  2  0
 25 26  1  0
M  END
