diamond-x0681_0_A-diamond-x0900_0_A
     RDKit          3D

 13 14  0  0  0  0  0  0  0  0999 V2000
   -3.8230   15.3960   -3.0750 N   0  0  0  0  0  0  0  0  0  0  0  0
   -3.2490   14.9180   -1.9410 C   0  0  0  0  0  0  0  0  0  0  0  0
   -2.0910   14.5320   -1.9340 O   0  0  0  0  0  0  0  0  0  0  0  0
   -4.2000   14.9220   -0.7630 C   0  0  1  0  0  0  0  0  0  0  0  0
   -4.8940   13.6030   -0.6720 C   0  0  0  0  0  0  0  0  0  0  0  0
   -3.6530   15.3700    0.6090 C   0  0  0  0  0  0  0  0  0  0  0  0
   -5.7480   13.4480    0.3480 N   0  0  0  0  0  0  0  0  0  0  0  0
   -4.5880   14.9480    1.7510 C   0  0  0  0  0  0  0  0  0  0  0  0
   -4.8340   12.5290   -1.4340 N   0  0  0  0  0  0  0  0  0  0  0  0
   -5.9230   14.4740    1.2220 C   0  0  0  0  0  0  0  0  0  0  0  0
   -6.2940   12.1990    0.2690 C   0  0  0  0  0  0  0  0  0  0  0  0
   -5.7140   11.6450   -0.8490 C   0  0  0  0  0  0  0  0  0  0  0  0
   -7.0520   14.8930    1.4120 O   0  0  0  0  0  0  0  0  0  0  0  0
  1  2  1  0
  2  3  2  0
  4  2  1  6
  4  5  1  0
  4  6  1  0
  5  7  1  0
  6  8  1  0
  5  9  2  0
  7 10  1  0
  8 10  1  0
  7 11  1  0
  9 12  1  0
 11 12  2  0
 10 13  2  0
M  END
