diamond-x0128_0_A-mac-x0402
     RDKit          3D

 20 22  0  0  0  0  0  0  0  0999 V2000
   -6.5370   14.8180    2.6140 N   0  0  0  0  0  0  0  0  0  0  0  0
   -7.7850   15.1630    3.0060 C   0  0  0  0  0  0  0  0  0  0  0  0
   -8.7350   15.4610    2.2860 O   0  0  0  0  0  0  0  0  0  0  0  0
   -6.0260   14.4340    1.3150 C   0  0  1  0  0  0  0  0  0  0  0  0
   -7.9050   15.1550    4.3610 N   0  0  0  0  0  0  0  0  0  0  0  0
   -6.9490   14.8070    0.1750 C   0  0  0  0  0  0  0  0  0  0  0  0
   -4.5370   14.8550    1.1700 C   0  0  0  0  0  0  0  0  0  0  0  0
   -6.4710   14.8900   -1.0690 C   0  0  0  0  0  0  0  0  0  0  0  0
   -4.2360   15.3950   -0.2310 C   0  0  2  0  0  0  0  0  0  0  0  0
   -8.5890   15.9750    5.2840 C   0  0  0  0  0  0  0  0  0  0  0  0
   -5.0310   14.6090   -1.2550 C   0  0  2  0  0  0  0  0  0  0  0  0
   -9.1980   17.1510    4.8340 C   0  0  0  0  0  0  0  0  0  0  0  0
   -8.7120   15.6960    6.6440 C   0  0  0  0  0  0  0  0  0  0  0  0
   -2.7870   15.2630   -0.7200 C   0  0  0  0  0  0  0  0  0  0  0  0
   -9.8880   18.0140    5.6150 N   0  0  0  0  0  0  0  0  0  0  0  0
   -9.4160   16.5680    7.4770 C   0  0  0  0  0  0  0  0  0  0  0  0
   -4.3770   14.9730   -2.5700 C   0  0  0  0  0  0  0  0  0  0  0  0
   -2.9030   14.8700   -2.2030 C   0  0  1  0  0  0  0  0  0  0  0  0
   -1.8380   15.7760   -3.2870 Cl  0  0  0  0  0  0  0  0  0  0  0  0
   -9.9820   17.7050    6.9210 C   0  0  0  0  0  0  0  0  0  0  0  0
  1  2  1  0
  2  3  2  0
  4  1  1  1
  2  5  1  0
  4  6  1  0
  4  7  1  0
  6  8  2  0
  9  7  1  1
  5 10  1  0
 11  8  1  6
  9 11  1  0
 10 12  2  0
 10 13  1  0
  9 14  1  0
 12 15  1  0
 13 16  2  0
 11 17  1  0
 14 18  1  0
 17 18  1  0
 18 19  1  6
 15 20  2  0
 16 20  1  0
M  END
