diamond-x0895_0_A-diamond-x0685_1_A
     RDKit          3D

 22 23  0  0  0  0  0  0  0  0999 V2000
   -1.4790   14.5730    1.7900 O   0  0  0  0  0  0  0  0  0  0  0  0
   -2.4560   14.7390    1.0700 C   0  0  0  0  0  0  0  0  0  0  0  0
   -3.8720   14.9560    1.5510 C   0  0  0  0  0  0  0  0  0  0  0  0
   -2.5140   14.7630   -0.3050 N   0  0  0  0  0  0  0  0  0  0  0  0
   -1.7100   13.9280   -1.1810 C   0  0  0  0  0  0  0  0  0  0  0  0
   -4.3840   15.6810    0.4450 N   0  0  0  0  0  0  0  0  0  0  0  0
   -3.7440   15.2280   -0.6770 C   0  0  0  0  0  0  0  0  0  0  0  0
   -4.2370   15.2370   -1.7900 O   0  0  0  0  0  0  0  0  0  0  0  0
   -0.2660   13.7930   -0.7120 C   0  0  0  0  0  0  0  0  0  0  0  0
    0.6280   13.6480   -1.8240 O   0  0  0  0  0  0  0  0  0  0  0  0
    0.7730   12.3180   -2.7330 S   0  0  0  0  0  0  0  0  0  0  0  0
   -0.0420   12.6280   -4.2990 C   0  0  0  0  0  0  0  0  0  0  0  0
    2.3180   12.1790   -3.1460 O   0  0  0  0  0  0  0  0  0  0  0  0
    0.2130   10.9310   -2.1010 O   0  0  0  0  0  0  0  0  0  0  0  0
   -1.4250   12.0040   -4.4100 C   0  0  0  0  0  0  0  0  0  0  0  0
   -1.3090   10.5950   -4.8270 N   0  0  0  0  0  0  0  0  0  0  0  0
   -0.7960   10.3560   -6.1850 C   0  0  0  0  0  0  0  0  0  0  0  0
   -0.5880    8.8540   -6.4510 C   0  0  0  0  0  0  0  0  0  0  0  0
   -1.5980   11.0140   -7.3160 C   0  0  0  0  0  0  0  0  0  0  0  0
    0.0740    8.5910   -7.8030 C   0  0  0  0  0  0  0  0  0  0  0  0
   -1.0010   10.7000   -8.6950 C   0  0  0  0  0  0  0  0  0  0  0  0
   -0.7210    9.2160   -8.9430 C   0  0  0  0  0  0  0  0  0  0  0  0
  1  2  2  0
  2  3  1  0
  2  4  1  0
  4  5  1  0
  3  6  1  0
  4  7  1  0
  6  7  1  0
  7  8  2  0
  5  9  1  0
  9 10  1  0
 11 10  1  0
 11 12  1  0
 11 13  1  0
 11 14  1  0
 12 15  1  0
 15 16  1  0
 16 17  1  0
 17 18  1  0
 17 19  1  0
 18 20  1  0
 19 21  1  0
 20 22  1  0
 21 22  1  0
M  END
