diamond-x0962_2_B-diamond-x0574_0_A
     RDKit          3D

 19 21  0  0  0  0  0  0  0  0999 V2000
  -10.6340   16.4250    0.8680 N   0  0  0  0  0  0  0  0  0  0  0  0
   -9.9220   16.1280    1.7310 C   0  0  0  0  0  0  0  0  0  0  0  0
   -9.1060   15.7920    2.8370 C   0  0  0  0  0  0  0  0  0  0  0  0
   -9.3010   16.2680    4.1090 N   0  0  0  0  0  0  0  0  0  0  0  0
   -7.9990   14.9760    2.9180 C   0  0  0  0  0  0  0  0  0  0  0  0
   -7.2740   14.1790    1.8740 C   0  0  0  0  0  0  0  0  0  0  0  0
   -8.3340   15.7330    4.9020 C   0  0  0  0  0  0  0  0  0  0  0  0
   -7.5490   14.9540    4.2150 N   0  0  0  0  0  0  0  0  0  0  0  0
   -6.7570   14.9440    0.7580 O   0  0  0  0  0  0  0  0  0  0  0  0
   -5.4090   14.8860    0.4920 C   0  0  0  0  0  0  0  0  0  0  0  0
   -4.4480   14.6120    1.4360 C   0  0  0  0  0  0  0  0  0  0  0  0
   -5.0190   15.1200   -0.8290 C   0  0  0  0  0  0  0  0  0  0  0  0
   -3.0990   14.5530    1.0820 C   0  0  0  0  0  0  0  0  0  0  0  0
   -3.6650   15.0670   -1.2160 C   0  0  0  0  0  0  0  0  0  0  0  0
   -2.7110   14.7710   -0.2280 C   0  0  0  0  0  0  0  0  0  0  0  0
   -2.0930   14.2810    1.9580 N   0  0  0  0  0  0  0  0  0  0  0  0
   -0.9640   14.2650    1.3630 C   0  0  0  0  0  0  0  0  0  0  0  0
   -0.9890   14.6010   -0.3130 S   0  0  0  0  0  0  0  0  0  0  0  0
    0.1240   13.9950    2.0640 N   0  0  0  0  0  0  0  0  0  0  0  0
  1  2  3  0
  2  3  1  0
  3  4  1  0
  3  5  2  0
  5  6  1  0
  4  7  1  0
  5  8  1  0
  7  8  2  0
  6  9  1  0
  9 10  1  0
 10 11  2  0
 10 12  1  0
 11 13  1  0
 12 14  2  0
 13 15  2  0
 14 15  1  0
 13 16  1  0
 16 17  2  0
 15 18  1  0
 17 18  1  0
 17 19  1  0
M  END
