diamond-x0727_0_A-diamond-x0969_0_A
     RDKit          3D

 26 28  0  0  0  0  0  0  0  0999 V2000
    0.1390   11.7880   -5.4830 N   0  0  0  0  0  0  0  0  0  0  0  0
    1.0830   12.5030   -4.6480 C   0  0  1  0  0  0  0  0  0  0  0  0
    0.8900   13.9940   -4.8690 C   0  0  0  0  0  0  0  0  0  0  0  0
    0.5010   11.1740   -6.6570 C   0  0  0  0  0  0  0  0  0  0  0  0
    1.5140   11.4170   -7.2840 O   0  0  0  0  0  0  0  0  0  0  0  0
    0.8020   12.0840   -3.1880 C   0  0  0  0  0  0  0  0  0  0  0  0
   -0.5520   10.1580   -7.0170 C   0  0  0  0  0  0  0  0  0  0  0  0
    0.1980   11.0560   -2.8780 O   0  0  0  0  0  0  0  0  0  0  0  0
    1.3180   12.9710   -2.2860 O   0  0  0  0  0  0  0  0  0  0  0  0
   -1.0000   10.0900   -8.4610 C   0  0  0  0  0  0  0  0  0  0  0  0
   -0.2330    8.7040   -6.7190 C   0  0  0  0  0  0  0  0  0  0  0  0
    0.7110   14.2790   -2.1210 C   0  0  0  0  0  0  0  0  0  0  0  0
   -1.9400    8.8840   -8.4230 C   0  0  0  0  0  0  0  0  0  0  0  0
   -1.5060    8.0430   -7.2090 C   0  0  0  0  0  0  0  0  0  0  0  0
   -0.5880   14.1750   -1.3110 C   0  0  0  0  0  0  0  0  0  0  0  0
   -1.8790   14.5340   -2.0820 C   0  0  0  0  0  0  0  0  0  0  0  0
   -3.1060   14.6870   -1.1910 C   0  0  0  0  0  0  0  0  0  0  0  0
   -4.3690   14.6430   -1.6880 C   0  0  0  0  0  0  0  0  0  0  0  0
   -2.8940   14.8550    0.2510 C   0  0  0  0  0  0  0  0  0  0  0  0
   -5.4890   14.6950   -0.8110 C   0  0  0  0  0  0  0  0  0  0  0  0
   -3.9520   14.9180    1.0720 C   0  0  0  0  0  0  0  0  0  0  0  0
   -6.7890   14.6290   -1.0160 N   0  0  0  0  0  0  0  0  0  0  0  0
   -5.2390   14.8130    0.5450 N   0  0  0  0  0  0  0  0  0  0  0  0
   -6.4900   14.7930    1.1400 C   0  0  0  0  0  0  0  0  0  0  0  0
   -7.4140   14.6880    0.2100 N   0  0  0  0  0  0  0  0  0  0  0  0
   -6.6990   14.8780    2.4710 N   0  0  0  0  0  0  0  0  0  0  0  0
  1  2  1  0
  2  3  1  1
  1  4  1  0
  4  5  2  0
  2  6  1  0
  4  7  1  0
  6  8  2  0
  6  9  1  0
  7 10  1  0
  7 11  1  0
  9 12  1  0
 10 13  1  0
 11 14  1  0
 13 14  1  0
 12 15  1  0
 15 16  1  0
 16 17  1  0
 17 18  2  0
 17 19  1  0
 18 20  1  0
 19 21  2  0
 20 22  2  0
 20 23  1  0
 21 23  1  0
 23 24  1  0
 22 25  1  0
 24 25  2  0
 24 26  1  0
M  END
