diamond-x0895_1_A-diamond-x0722_0_A
     RDKit          3D

 11 11  0  0  0  0  0  0  0  0999 V2000
   -1.7200   14.8280    1.6600 O   0  0  0  0  0  0  0  0  0  0  0  0
   -2.8020   14.8260    1.0760 C   0  0  0  0  0  0  0  0  0  0  0  0
   -3.0310   14.9630   -0.4380 C   0  0  1  0  0  0  0  0  0  0  0  0
   -4.0740   14.6990    1.6250 N   0  0  0  0  0  0  0  0  0  0  0  0
   -4.3990   15.3200    2.8830 C   0  0  0  0  0  0  0  0  0  0  0  0
   -1.9180   14.3630   -1.2770 C   0  0  0  0  0  0  0  0  0  0  0  0
   -4.2570   14.2350   -0.5330 N   0  0  0  0  0  0  0  0  0  0  0  0
   -4.9460   14.5290    0.6020 C   0  0  0  0  0  0  0  0  0  0  0  0
   -6.2160   14.6100    0.5550 N   0  0  0  0  0  0  0  0  0  0  0  0
   -6.8400   14.4120   -0.6250 C   0  0  0  0  0  0  0  0  0  0  0  0
   -7.5400   15.2320   -1.1940 O   0  0  0  0  0  0  0  0  0  0  0  0
  1  2  2  0
  2  3  1  0
  2  4  1  0
  4  5  1  0
  3  6  1  6
  3  7  1  0
  4  8  1  0
  7  8  1  0
  8  9  2  3
  9 10  1  0
 10 11  2  0
M  END
