diamond-x0895_0_A-diamond-x0864_0_A
     RDKit          3D

 22 23  0  0  0  0  0  0  0  0999 V2000
   -1.4420   14.6050    1.9330 O   0  0  0  0  0  0  0  0  0  0  0  0
   -2.4030   14.8200    1.2150 C   0  0  0  0  0  0  0  0  0  0  0  0
   -3.8410   14.9100    1.6820 C   0  0  0  0  0  0  0  0  0  0  0  0
   -2.3920   15.0340   -0.1350 N   0  0  0  0  0  0  0  0  0  0  0  0
   -1.1870   15.3650   -0.8730 C   0  0  0  0  0  0  0  0  0  0  0  0
   -4.4410   15.5250    0.5450 N   0  0  0  0  0  0  0  0  0  0  0  0
   -3.6660   15.2910   -0.5620 C   0  0  0  0  0  0  0  0  0  0  0  0
   -4.1050   15.3130   -1.6970 O   0  0  0  0  0  0  0  0  0  0  0  0
    0.0530   14.5770   -0.4350 C   0  0  0  0  0  0  0  0  0  0  0  0
    0.8090   13.9210   -1.5970 C   0  0  0  0  0  0  0  0  0  0  0  0
    0.6040   12.4670   -1.5680 N   0  0  0  0  0  0  0  0  0  0  0  0
    0.5260   11.7870   -2.6680 C   0  0  0  0  0  0  0  0  0  0  0  0
    0.6260   12.4260   -4.0600 C   0  0  0  0  0  0  0  0  0  0  0  0
    0.3490   10.4410   -2.6250 O   0  0  0  0  0  0  0  0  0  0  0  0
   -0.1380   11.6790   -5.0710 N   0  0  0  0  0  0  0  0  0  0  0  0
   -1.3610   11.1220   -4.7470 C   0  0  0  0  0  0  0  0  0  0  0  0
    0.4830   11.4170   -6.2870 C   0  0  0  0  0  0  0  0  0  0  0  0
    1.4610   12.0370   -6.6860 O   0  0  0  0  0  0  0  0  0  0  0  0
   -1.9100   10.1740   -5.5230 C   0  0  0  0  0  0  0  0  0  0  0  0
   -0.0810   10.3090   -7.0980 C   0  0  0  0  0  0  0  0  0  0  0  0
   -1.2240    9.7260   -6.7120 C   0  0  0  0  0  0  0  0  0  0  0  0
   -1.9870    8.3180   -7.6720 Br  0  0  0  0  0  0  0  0  0  0  0  0
  1  2  2  0
  2  3  1  0
  2  4  1  0
  4  5  1  0
  3  6  1  0
  4  7  1  0
  6  7  1  0
  7  8  2  0
  5  9  1  0
  9 10  1  0
 10 11  1  0
 11 12  2  3
 12 13  1  0
 12 14  1  0
 13 15  1  0
 15 16  1  0
 15 17  1  0
 17 18  2  0
 16 19  2  0
 17 20  1  0
 19 21  1  0
 20 21  2  0
 21 22  1  0
M  END
