diamond-x0591_0_A-diamond-x0910_1_A
     RDKit          3D

 19 20  0  0  0  0  0  0  0  0999 V2000
   -6.4720   12.5590    0.0280 N   0  0  0  0  0  0  0  0  0  0  0  0
   -5.9790   13.1600    1.2460 C   0  0  0  0  0  0  0  0  0  0  0  0
   -5.3360   14.4270    0.8280 C   0  0  0  0  0  0  0  0  0  0  0  0
   -6.8040   13.3640   -1.0430 C   0  0  0  0  0  0  0  0  0  0  0  0
   -7.9430   13.7920   -1.1990 O   0  0  0  0  0  0  0  0  0  0  0  0
   -5.7240   13.7230   -2.0260 C   0  0  0  0  0  0  0  0  0  0  0  0
   -4.3670   13.5400   -1.6820 C   0  0  0  0  0  0  0  0  0  0  0  0
   -6.0360   14.2430   -3.2920 C   0  0  0  0  0  0  0  0  0  0  0  0
   -5.7880   15.1530   -0.2040 N   0  0  0  0  0  0  0  0  0  0  0  0
   -4.2370   14.9440    1.4500 N   0  0  0  0  0  0  0  0  0  0  0  0
   -3.3470   13.8690   -2.5910 C   0  0  0  0  0  0  0  0  0  0  0  0
   -5.0220   14.5680   -4.1960 C   0  0  0  0  0  0  0  0  0  0  0  0
   -4.9220   16.1600   -0.2190 N   0  0  0  0  0  0  0  0  0  0  0  0
   -4.0040   16.0290    0.7750 C   0  0  0  0  0  0  0  0  0  0  0  0
   -3.6860   14.3810   -3.8470 C   0  0  0  0  0  0  0  0  0  0  0  0
   -2.4310   14.8010   -5.0280 S   0  0  0  0  0  0  0  0  0  0  0  0
   -1.2360   15.5060   -4.0890 N   0  0  0  0  0  0  0  0  0  0  0  0
   -1.8550   13.5830   -5.5490 O   0  0  0  0  0  0  0  0  0  0  0  0
   -2.9300   15.8470   -5.8890 O   0  0  0  0  0  0  0  0  0  0  0  0
  1  2  1  0
  2  3  1  0
  1  4  1  0
  4  5  2  0
  4  6  1  0
  6  7  2  0
  6  8  1  0
  3  9  2  0
  3 10  1  0
  7 11  1  0
  8 12  2  0
  9 13  1  0
 10 14  2  0
 13 14  1  0
 11 15  2  0
 12 15  1  0
 15 16  1  0
 16 17  1  0
 16 18  2  0
 16 19  2  0
M  END
