diamond-x0910_1_A-mac-x0347
     RDKit          3D

 14 15  0  0  0  0  0  0  0  0999 V2000
   -7.0680   13.9140    0.6040 N   0  0  0  0  0  0  0  0  0  0  0  0
   -5.8830   14.3470    0.1030 C   0  0  0  0  0  0  0  0  0  0  0  0
   -5.3310   13.8880   -0.9990 N   0  0  0  0  0  0  0  0  0  0  0  0
   -5.1970   15.3110    0.7540 N   0  0  0  0  0  0  0  0  0  0  0  0
   -4.0350   14.6540   -1.1780 C   0  0  1  0  0  0  0  0  0  0  0  0
   -4.1380   15.5270    0.0520 C   0  0  0  0  0  0  0  0  0  0  0  0
   -2.7120   13.7800   -1.1840 C   0  0  0  0  0  0  0  0  0  0  0  0
   -4.1090   15.4310   -2.4950 C   0  0  0  0  0  0  0  0  0  0  0  0
   -1.5530   14.4260   -2.0330 C   0  0  1  0  0  0  0  0  0  0  0  0
   -3.4660   14.7460   -3.6240 N   0  0  0  0  0  0  0  0  0  0  0  0
   -0.1960   13.7110   -2.0460 C   0  0  0  0  0  0  0  0  0  0  0  0
   -2.0090   14.6830   -3.4810 C   0  0  0  0  0  0  0  0  0  0  0  0
    0.5870   14.1000   -3.0960 O   0  0  0  0  0  0  0  0  0  0  0  0
    0.2160   12.8800   -1.2380 O   0  0  0  0  0  0  0  0  0  0  0  0
  1  2  1  0
  2  3  2  0
  2  4  1  0
  5  3  1  0
  4  6  2  0
  5  6  1  1
  5  7  1  0
  5  8  1  0
  7  9  1  0
  8 10  1  0
  9 11  1  6
  9 12  1  0
 10 12  1  0
 11 13  1  0
 11 14  2  0
M  END
