diamond-x0689_0_A-mac-x0385
     RDKit          3D

  8  8  0  0  0  0  0  0  0  0999 V2000
   -3.7040   15.1190    1.5550 N   0  0  0  0  0  0  0  0  0  0  0  0
   -4.7810   15.2680    0.6150 C   0  0  0  0  0  0  0  0  0  0  0  0
   -2.4840   14.8020    0.9800 C   0  0  0  0  0  0  0  0  0  0  0  0
   -2.3280   14.7990   -0.3550 N   0  0  0  0  0  0  0  0  0  0  0  0
   -1.5120   14.5200    1.8400 N   0  0  0  0  0  0  0  0  0  0  0  0
   -1.1010   14.5030   -0.8240 C   0  0  0  0  0  0  0  0  0  0  0  0
   -0.3110   14.2330    1.3300 C   0  0  0  0  0  0  0  0  0  0  0  0
   -0.0370   14.2110   -0.0150 C   0  0  0  0  0  0  0  0  0  0  0  0
  1  2  1  0
  1  3  1  0
  3  4  2  0
  3  5  1  0
  4  6  1  0
  5  7  2  0
  6  8  2  0
  7  8  1  0
M  END
