diamond-x0253_0_A-diamond-x0742_0_A
     RDKit          3D

 31 34  0  0  0  0  0  0  0  0999 V2000
    0.2170   12.0210   -5.6270 N   0  0  0  0  0  0  0  0  0  0  0  0
    0.9380   11.6470   -6.7100 C   0  0  0  0  0  0  0  0  0  0  0  0
    2.1090   11.9510   -6.7590 O   0  0  0  0  0  0  0  0  0  0  0  0
    0.7820   13.1260   -4.9100 C   0  0  0  0  0  0  0  0  0  0  0  0
    0.7590   12.8870   -3.4270 C   0  0  0  0  0  0  0  0  0  0  0  0
    0.2840   10.8210   -7.7680 C   0  0  0  0  0  0  0  0  0  0  0  0
    0.9310   13.7760   -2.5390 N   0  0  0  0  0  0  0  0  0  0  0  0
    0.5280   11.6070   -3.0230 O   0  0  0  0  0  0  0  0  0  0  0  0
   -0.8750   10.0910   -7.4840 C   0  0  0  0  0  0  0  0  0  0  0  0
    0.8280   10.7490   -9.0530 C   0  0  0  0  0  0  0  0  0  0  0  0
    0.8870   13.4610   -1.1440 C   0  0  0  0  0  0  0  0  0  0  0  0
   -1.4710    9.2820   -8.4460 C   0  0  0  0  0  0  0  0  0  0  0  0
    0.2350    9.9520  -10.0260 C   0  0  0  0  0  0  0  0  0  0  0  0
   -2.6960    8.4920   -8.1000 C   0  0  0  0  0  0  0  0  0  0  0  0
   -0.9080    9.2180   -9.7230 C   0  0  0  0  0  0  0  0  0  0  0  0
   -0.3410   13.8790   -0.4110 C   0  0  0  0  0  0  0  0  0  0  0  0
   -0.3580   14.0080    0.9860 C   0  0  0  0  0  0  0  0  0  0  0  0
   -1.5150   14.1480   -1.0840 C   0  0  0  0  0  0  0  0  0  0  0  0
   -1.4260   14.3750    1.7160 N   0  0  0  0  0  0  0  0  0  0  0  0
   -2.6280   14.5230   -0.3630 C   0  0  0  0  0  0  0  0  0  0  0  0
   -3.9580   14.8440   -0.9450 C   0  0  2  0  0  0  0  0  0  0  0  0
   -2.5410   14.6230    1.0060 C   0  0  0  0  0  0  0  0  0  0  0  0
   -5.1300   14.1070   -0.2640 C   0  0  1  0  0  0  0  0  0  0  0  0
   -4.3010   14.8130   -2.4320 C   0  0  0  0  0  0  0  0  0  0  0  0
   -3.7780   15.0350    1.7270 C   0  0  0  0  0  0  0  0  0  0  0  0
   -5.4260   12.6050   -0.5450 C   0  0  0  0  0  0  0  0  0  0  0  0
   -5.0380   14.2690    1.2770 C   0  0  0  0  0  0  0  0  0  0  0  0
   -6.2500   14.8890   -0.9490 C   0  0  0  0  0  0  0  0  0  0  0  0
   -5.8410   14.7920   -2.4250 C   0  0  0  0  0  0  0  0  0  0  0  0
   -4.9080   12.0240   -1.5120 O   0  0  0  0  0  0  0  0  0  0  0  0
   -6.3580   11.8380    0.3530 C   0  0  0  0  0  0  0  0  0  0  0  0
  1  2  1  0
  2  3  2  0
  1  4  1  0
  4  5  1  0
  2  6  1  0
  5  7  2  3
  5  8  1  0
  6  9  2  0
  6 10  1  0
  7 11  1  0
  9 12  1  0
 10 13  2  0
 12 14  1  0
 12 15  2  0
 13 15  1  0
 11 16  1  0
 16 17  2  0
 16 18  1  0
 17 19  1  0
 18 20  2  0
 20 21  1  0
 19 22  2  0
 20 22  1  0
 21 23  1  0
 21 24  1  6
 22 25  1  0
 23 26  1  1
 23 27  1  0
 25 27  1  0
 23 28  1  0
 24 29  1  0
 28 29  1  0
 26 30  2  0
 26 31  1  0
M  END
