diamond-x0962_2_B-diamond-x0852_0_B
     RDKit          3D

 10 10  0  0  0  0  0  0  0  0999 V2000
  -10.7070   16.7950    1.3920 N   0  0  0  0  0  0  0  0  0  0  0  0
  -10.0180   16.3220    2.1970 C   0  0  0  0  0  0  0  0  0  0  0  0
   -9.1610   15.7050    3.1310 C   0  0  0  0  0  0  0  0  0  0  0  0
   -8.8820   16.0410    4.4550 N   0  0  0  0  0  0  0  0  0  0  0  0
   -8.4040   14.5840    2.8820 C   0  0  0  0  0  0  0  0  0  0  0  0
   -9.3700   17.1280    5.3380 C   0  0  0  0  0  0  0  0  0  0  0  0
   -7.9820   15.1050    4.8830 C   0  0  0  0  0  0  0  0  0  0  0  0
   -7.6830   14.2220    3.9770 N   0  0  0  0  0  0  0  0  0  0  0  0
   -7.4490   15.0580    6.0860 O   0  0  0  0  0  0  0  0  0  0  0  0
   -9.7400   17.9330    6.1010 N   0  0  0  0  0  0  0  0  0  0  0  0
  1  2  3  0
  2  3  1  0
  3  4  1  0
  3  5  2  0
  4  6  1  0
  4  7  1  0
  5  8  1  0
  7  8  2  0
  7  9  1  0
  6 10  3  0
M  END
