diamond-x0852_0_B-mac-x0123
     RDKit          3D

 22 25  0  0  0  0  0  0  0  0999 V2000
   -9.6350   17.3630    7.1370 N   0  0  0  0  0  0  0  0  0  0  0  0
   -9.2230   16.7980    6.2040 C   0  0  0  0  0  0  0  0  0  0  0  0
   -8.7020   16.1440    4.9790 C   0  0  1  0  0  0  0  0  0  0  0  0
   -8.9310   14.6250    5.0040 C   0  0  2  0  0  0  0  0  0  0  0  0
   -9.3840   16.7880    3.7950 C   0  0  0  0  0  0  0  0  0  0  0  0
   -8.0410   14.0770    5.9690 O   0  0  0  0  0  0  0  0  0  0  0  0
   -8.7680   13.8600    3.6430 C   0  0  0  0  0  0  0  0  0  0  0  0
   -9.4970   15.8490    2.5850 C   0  0  1  0  0  0  0  0  0  0  0  0
  -10.1980   16.7300    0.9690 Br  0  0  0  0  0  0  0  0  0  0  0  0
   -8.3960   14.7500    2.4160 C   0  0  1  0  0  0  0  0  0  0  0  0
   -6.8470   14.8220    2.6870 C   0  0  0  0  0  0  0  0  0  0  0  0
   -8.4680   14.0540    0.9990 C   0  0  0  0  0  0  0  0  0  0  0  0
   -7.1240   14.3590    0.3380 C   0  0  0  0  0  0  0  0  0  0  0  0
   -6.1440   14.7670    1.3670 C   0  0  0  0  0  0  0  0  0  0  0  0
   -4.8780   15.0030    0.9640 C   0  0  0  0  0  0  0  0  0  0  0  0
   -6.8860   14.2490   -0.9470 N   0  0  0  0  0  0  0  0  0  0  0  0
   -3.8390   15.3720    1.7870 N   0  0  0  0  0  0  0  0  0  0  0  0
   -4.5980   14.8810   -0.4190 N   0  0  0  0  0  0  0  0  0  0  0  0
   -5.5870   14.5210   -1.3410 C   0  0  0  0  0  0  0  0  0  0  0  0
   -5.0410   14.5000   -2.5460 N   0  0  0  0  0  0  0  0  0  0  0  0
   -3.4100   15.0820   -1.0570 N   0  0  0  0  0  0  0  0  0  0  0  0
   -3.7390   14.8410   -2.3210 C   0  0  0  0  0  0  0  0  0  0  0  0
  1  2  3  0
  3  2  1  1
  3  4  1  0
  3  5  1  0
  4  6  1  1
  4  7  1  0
  5  8  1  0
  8  9  1  6
 10  7  1  1
  8 10  1  0
 10 11  1  0
 10 12  1  0
 12 13  1  0
 11 14  1  0
 13 14  1  0
 14 15  2  0
 13 16  2  0
 15 17  1  0
 15 18  1  0
 16 19  1  0
 18 19  1  0
 19 20  2  0
 18 21  1  0
 20 22  1  0
 21 22  2  0
M  END
