diamond-x1018_0_A-diamond-x0969_0_A
     RDKit          3D

 11 12  0  0  0  0  0  0  0  0999 V2000
   -8.5160   14.6060    0.6200 Cl  0  0  0  0  0  0  0  0  0  0  0  0
   -6.8060   14.6760    0.3270 C   0  0  0  0  0  0  0  0  0  0  0  0
   -5.8810   14.7230    1.5320 C   0  0  0  0  0  0  0  0  0  0  0  0
   -6.4590   14.6930   -0.9150 N   0  0  0  0  0  0  0  0  0  0  0  0
   -6.4890   14.7260    2.7750 N   0  0  0  0  0  0  0  0  0  0  0  0
   -5.1240   14.7490   -1.0630 N   0  0  0  0  0  0  0  0  0  0  0  0
   -4.5620   14.7710    1.2580 C   0  0  0  0  0  0  0  0  0  0  0  0
   -4.5460   14.7770   -2.2700 N   0  0  0  0  0  0  0  0  0  0  0  0
   -4.1420   14.7870   -0.0920 C   0  0  0  0  0  0  0  0  0  0  0  0
   -2.9730   14.8330   -0.6870 N   0  0  0  0  0  0  0  0  0  0  0  0
   -3.2410   14.8280   -2.0390 N   0  0  0  0  0  0  0  0  0  0  0  0
  1  2  1  0
  2  3  1  0
  2  4  2  0
  3  5  1  0
  4  6  1  0
  3  7  2  0
  6  8  1  0
  6  9  1  0
  7  9  1  0
  9 10  2  0
  8 11  2  0
 10 11  1  0
M  END
