diamond-x0421_0_A-mac-x0415
     RDKit          3D

 27 30  0  0  0  0  0  0  0  0999 V2000
   -3.7010   15.1000   -2.7470 N   0  0  0  0  0  0  0  0  0  0  0  0
   -2.8270   14.9280   -1.7140 C   0  0  0  0  0  0  0  0  0  0  0  0
   -1.5640   14.7930   -1.9240 N   0  0  0  0  0  0  0  0  0  0  0  0
   -3.4910   14.9260   -0.4220 C   0  0  0  0  0  0  0  0  0  0  0  0
   -0.5560   14.6150   -0.8710 C   0  0  0  0  0  0  0  0  0  0  0  0
   -2.9220   15.0970    0.8240 C   0  0  0  0  0  0  0  0  0  0  0  0
   -4.8640   14.7340   -0.2960 N   0  0  0  0  0  0  0  0  0  0  0  0
    0.7050   13.9420   -1.3920 C   0  0  0  0  0  0  0  0  0  0  0  0
   -3.9490   15.0060    1.7050 N   0  0  0  0  0  0  0  0  0  0  0  0
   -5.0880   14.7870    1.0000 C   0  0  0  0  0  0  0  0  0  0  0  0
    0.4320   12.5120   -1.4670 N   0  0  0  0  0  0  0  0  0  0  0  0
   -6.4690   14.6200    1.6850 C   0  0  0  0  0  0  0  0  0  0  0  0
    0.5340   11.8910   -2.5850 C   0  0  0  0  0  0  0  0  0  0  0  0
   -7.7270   14.6410    0.8600 C   0  0  0  0  0  0  0  0  0  0  0  0
   -7.2370   13.3500    1.4520 C   0  0  0  0  0  0  0  0  0  0  0  0
    0.2700   10.5590   -2.6050 O   0  0  0  0  0  0  0  0  0  0  0  0
    0.9340   12.4860   -3.9540 C   0  0  0  0  0  0  0  0  0  0  0  0
    0.8300   13.9520   -4.2500 C   0  0  0  0  0  0  0  0  0  0  0  0
    1.8270   14.9860   -3.9240 C   0  0  0  0  0  0  0  0  0  0  0  0
   -0.1160   14.7220   -4.8220 C   0  0  0  0  0  0  0  0  0  0  0  0
    1.5740   16.2190   -4.2540 N   0  0  0  0  0  0  0  0  0  0  0  0
    0.3360   16.1310   -4.9750 C   0  0  2  0  0  0  0  0  0  0  0  0
   -1.4240   14.4230   -5.3280 C   0  0  0  0  0  0  0  0  0  0  0  0
   -0.7060   17.1590   -4.7730 C   0  0  0  0  0  0  0  0  0  0  0  0
   -2.3270   15.4390   -5.4120 C   0  0  0  0  0  0  0  0  0  0  0  0
   -4.0470   15.1460   -6.0600 Br  0  0  0  0  0  0  0  0  0  0  0  0
   -1.9760   16.8060   -4.9980 C   0  0  0  0  0  0  0  0  0  0  0  0
  1  2  1  0
  2  3  2  3
  2  4  1  0
  3  5  1  0
  4  6  2  0
  4  7  1  0
  5  8  1  0
  6  9  1  0
  7 10  2  0
  9 10  1  0
  8 11  1  0
 10 12  1  0
 11 13  2  3
 12 14  1  0
 12 15  1  0
 14 15  1  0
 13 16  1  0
 13 17  1  0
 17 18  1  0
 18 19  1  0
 18 20  2  0
 19 21  2  0
 20 22  1  0
 21 22  1  0
 20 23  1  0
 22 24  1  1
 23 25  2  0
 25 26  1  0
 24 27  2  0
 25 27  1  0
M  END
