diamond-x0969_0_A-diamond-x0864_0_A
     RDKit          3D

 25 27  0  0  0  0  0  0  0  0999 V2000
   -6.7820   14.8600    2.5750 N   0  0  0  0  0  0  0  0  0  0  0  0
   -6.6380   14.7990    1.2350 C   0  0  0  0  0  0  0  0  0  0  0  0
   -7.5980   14.6770    0.3480 N   0  0  0  0  0  0  0  0  0  0  0  0
   -5.4150   14.8670    0.5900 N   0  0  0  0  0  0  0  0  0  0  0  0
   -7.0280   14.6550   -0.9040 N   0  0  0  0  0  0  0  0  0  0  0  0
   -5.7290   14.7600   -0.7540 C   0  0  0  0  0  0  0  0  0  0  0  0
   -4.1090   15.0030    1.0640 C   0  0  0  0  0  0  0  0  0  0  0  0
   -4.6620   14.7610   -1.6810 C   0  0  0  0  0  0  0  0  0  0  0  0
   -3.0990   14.9960    0.1880 C   0  0  0  0  0  0  0  0  0  0  0  0
   -3.3960   14.8480   -1.2370 C   0  0  0  0  0  0  0  0  0  0  0  0
   -2.2420   14.7570   -2.1840 C   0  0  0  0  0  0  0  0  0  0  0  0
   -1.5270   13.4390   -2.0450 C   0  0  0  0  0  0  0  0  0  0  0  0
   -0.1050   13.6180   -1.5220 C   0  0  0  0  0  0  0  0  0  0  0  0
    0.4830   12.3300   -1.7190 N   0  0  0  0  0  0  0  0  0  0  0  0
    0.6870   11.9060   -2.9160 C   0  0  0  0  0  0  0  0  0  0  0  0
    0.3840   12.7030   -4.1890 C   0  0  0  0  0  0  0  0  0  0  0  0
    1.1880   10.7040   -3.1560 O   0  0  0  0  0  0  0  0  0  0  0  0
   -0.3280   11.8790   -5.1740 N   0  0  0  0  0  0  0  0  0  0  0  0
   -1.4130   11.1260   -4.7590 C   0  0  0  0  0  0  0  0  0  0  0  0
    0.3040   11.6310   -6.3890 C   0  0  0  0  0  0  0  0  0  0  0  0
    1.4030   12.0710   -6.7050 O   0  0  0  0  0  0  0  0  0  0  0  0
   -2.0010   10.2430   -5.5750 C   0  0  0  0  0  0  0  0  0  0  0  0
   -0.4110   10.7320   -7.3340 C   0  0  0  0  0  0  0  0  0  0  0  0
   -1.5040   10.0650   -6.9190 C   0  0  0  0  0  0  0  0  0  0  0  0
   -2.4150    8.8680   -8.0200 Br  0  0  0  0  0  0  0  0  0  0  0  0
  1  2  1  0
  2  3  2  0
  2  4  1  0
  3  5  1  0
  4  6  1  0
  5  6  2  0
  4  7  1  0
  6  8  1  0
  7  9  2  0
  8 10  2  0
  9 10  1  0
 10 11  1  0
 11 12  1  0
 12 13  1  0
 13 14  1  0
 14 15  2  3
 15 16  1  0
 15 17  1  0
 16 18  1  0
 18 19  1  0
 18 20  1  0
 20 21  2  0
 19 22  2  0
 20 23  1  0
 22 24  1  0
 23 24  2  0
 24 25  1  0
M  END
