diamond-x0900_1_A-mac-x0344
     RDKit          3D

 12 12  0  0  0  0  0  0  0  0999 V2000
   -0.7520    9.8230   -9.6200 O   0  0  0  0  0  0  0  0  0  0  0  0
   -0.9110    9.5770   -8.4340 C   0  0  0  0  0  0  0  0  0  0  0  0
    0.0940    9.3800   -7.5100 N   0  0  0  0  0  0  0  0  0  0  0  0
   -2.2280    9.4320   -7.7190 C   0  0  0  0  0  0  0  0  0  0  0  0
   -1.8290    9.1190   -6.2770 C   0  0  0  0  0  0  0  0  0  0  0  0
   -0.3720    9.5460   -6.1680 C   0  0  2  0  0  0  0  0  0  0  0  0
   -0.1450   10.9260   -5.7060 N   0  0  0  0  0  0  0  0  0  0  0  0
    0.1670   11.2280   -4.3670 C   0  0  0  0  0  0  0  0  0  0  0  0
    0.9620   12.5520   -4.0870 C   0  0  0  0  0  0  0  0  0  0  0  0
   -0.1310   10.5130   -3.4310 O   0  0  0  0  0  0  0  0  0  0  0  0
    1.3250   13.2610   -5.1520 O   0  0  0  0  0  0  0  0  0  0  0  0
    1.2360   12.9060   -2.9480 O   0  0  0  0  0  0  0  0  0  0  0  0
  1  2  2  0
  2  3  1  0
  2  4  1  0
  4  5  1  0
  3  6  1  0
  5  6  1  0
  6  7  1  6
  7  8  1  0
  8  9  1  0
  8 10  2  0
  9 11  1  0
  9 12  2  0
M  END
