diamond-x0918_2_A-diamond-x0142_0_A
     RDKit          3D

 18 19  0  0  0  0  0  0  0  0999 V2000
   15.0230    5.2920   10.8090 N   0  0  0  0  0  0  0  0  0  0  0  0
   14.7750    6.6290   10.7380 C   0  0  0  0  0  0  0  0  0  0  0  0
   14.4810    7.1930   11.9480 N   0  0  0  0  0  0  0  0  0  0  0  0
   15.0100    4.3490    9.7760 C   0  0  0  0  0  0  0  0  0  0  0  0
   14.7930    7.3460    9.7220 O   0  0  0  0  0  0  0  0  0  0  0  0
   15.6040    4.7110    8.5760 C   0  0  0  0  0  0  0  0  0  0  0  0
   14.4440    3.0900    9.8940 C   0  0  0  0  0  0  0  0  0  0  0  0
   15.6040    3.7890    7.5420 C   0  0  0  0  0  0  0  0  0  0  0  0
   14.4960    2.2410    8.8020 C   0  0  0  0  0  0  0  0  0  0  0  0
   14.8060    8.4290   12.5180 C   0  0  0  0  0  0  0  0  0  0  0  0
   15.0630    2.5630    7.6250 N   0  0  0  0  0  0  0  0  0  0  0  0
   14.4770    8.6090   13.8640 C   0  0  0  0  0  0  0  0  0  0  0  0
   15.4270    9.4700   11.8290 C   0  0  0  0  0  0  0  0  0  0  0  0
   14.7590    9.8110   14.5170 C   0  0  0  0  0  0  0  0  0  0  0  0
   15.7110   10.6730   12.4810 C   0  0  0  0  0  0  0  0  0  0  0  0
   15.3780   10.8520   13.8260 C   0  0  0  0  0  0  0  0  0  0  0  0
   15.7060   12.0690   14.3470 O   0  0  0  0  0  0  0  0  0  0  0  0
   15.3610   12.2950   15.7080 C   0  0  0  0  0  0  0  0  0  0  0  0
  1  2  1  0
  2  3  1  0
  1  4  1  0
  2  5  2  0
  4  6  2  0
  4  7  1  0
  6  8  1  0
  7  9  2  0
  3 10  1  0
  8 11  2  0
  9 11  1  0
 10 12  2  0
 10 13  1  0
 12 14  1  0
 13 15  2  0
 14 16  2  0
 15 16  1  0
 16 17  1  0
 17 18  1  0
M  END
