diamond-x0626_0_A-mac-x0576
     RDKit          3D

 17 18  0  0  0  0  0  0  0  0999 V2000
   -5.0560   13.9550    2.5070 N   0  0  0  0  0  0  0  0  0  0  0  0
   -3.6900   14.3830    2.4470 C   0  0  0  0  0  0  0  0  0  0  0  0
   -3.5520   15.2590    1.3420 N   0  0  0  0  0  0  0  0  0  0  0  0
   -4.9400   15.4800    0.9800 N   0  0  0  0  0  0  0  0  0  0  0  0
   -2.7710   14.5990    0.2730 C   0  0  1  0  0  0  0  0  0  0  0  0
   -3.4340   14.4780   -1.1600 C   0  0  2  0  0  0  0  0  0  0  0  0
   -1.3250   15.1410    0.1060 C   0  0  1  0  0  0  0  0  0  0  0  0
   -4.8270   16.0740   -0.3030 C   0  0  0  0  0  0  0  0  0  0  0  0
   -0.2950   14.4930    1.0320 C   0  0  0  0  0  0  0  0  0  0  0  0
   -2.3190   15.0130   -2.0280 C   0  0  0  0  0  0  0  0  0  0  0  0
   -4.8350   15.0460   -1.3480 C   0  0  2  0  0  0  0  0  0  0  0  0
   -0.9770   14.8830   -1.3630 C   0  0  0  0  0  0  0  0  0  0  0  0
   -2.4470   15.4920   -3.1380 O   0  0  0  0  0  0  0  0  0  0  0  0
   -5.9370   14.1220   -1.1490 O   0  0  0  0  0  0  0  0  0  0  0  0
   -5.9930   13.4090    0.0910 C   0  0  0  0  0  0  0  0  0  0  0  0
   -7.0450   14.0310    1.0420 C   0  0  0  0  0  0  0  0  0  0  0  0
   -8.3240   14.4780    0.3450 C   0  0  0  0  0  0  0  0  0  0  0  0
  1  2  1  0
  2  3  1  0
  3  4  1  0
  5  3  1  1
  5  6  1  0
  5  7  1  0
  4  8  1  0
  7  9  1  1
  6 10  1  6
  6 11  1  0
  8 11  1  0
  7 12  1  0
 10 12  1  0
 10 13  2  0
 11 14  1  1
 14 15  1  0
 15 16  1  0
 16 17  1  0
M  END
