diamond-x1012_0_A-diamond-x0253_0_A
     RDKit          3D

 23 24  0  0  0  0  0  0  0  0999 V2000
   -0.2770   18.3050   -4.7820 N   0  0  0  0  0  0  0  0  0  0  0  0
   -1.2700   17.4000   -4.8200 C   0  0  0  0  0  0  0  0  0  0  0  0
   -2.4120   17.7980   -4.8890 O   0  0  0  0  0  0  0  0  0  0  0  0
   -0.9090   16.0870   -4.7580 N   0  0  0  0  0  0  0  0  0  0  0  0
   -1.8850   15.0140   -4.4470 C   0  0  0  0  0  0  0  0  0  0  0  0
    0.5340   15.7990   -4.7670 C   0  0  0  0  0  0  0  0  0  0  0  0
   -1.4150   14.0590   -3.3500 C   0  0  0  0  0  0  0  0  0  0  0  0
    0.9160   14.9400   -3.5790 C   0  0  0  0  0  0  0  0  0  0  0  0
    0.0370   13.6950   -3.6410 C   0  0  0  0  0  0  0  0  0  0  0  0
    0.6430   12.4530   -2.9700 C   0  0  0  0  0  0  0  0  0  0  0  0
   -0.3370   11.5320   -2.5090 O   0  0  0  0  0  0  0  0  0  0  0  0
    1.4220   12.8690   -1.8610 O   0  0  0  0  0  0  0  0  0  0  0  0
    1.4470   11.8210   -4.1180 C   0  0  0  0  0  0  0  0  0  0  0  0
    0.5920   11.6350   -5.3080 N   0  0  0  0  0  0  0  0  0  0  0  0
    1.1340   11.6290   -6.5640 C   0  0  0  0  0  0  0  0  0  0  0  0
    2.1600   12.2350   -6.7390 O   0  0  0  0  0  0  0  0  0  0  0  0
    0.4700   10.8240   -7.6480 C   0  0  0  0  0  0  0  0  0  0  0  0
   -0.6530   10.0720   -7.2990 C   0  0  0  0  0  0  0  0  0  0  0  0
    0.9090   10.7700   -8.9790 C   0  0  0  0  0  0  0  0  0  0  0  0
   -1.3140    9.2660   -8.2290 C   0  0  0  0  0  0  0  0  0  0  0  0
    0.2530    9.9770   -9.9170 C   0  0  0  0  0  0  0  0  0  0  0  0
   -2.5010    8.4570   -7.8050 C   0  0  0  0  0  0  0  0  0  0  0  0
   -0.8540    9.2220   -9.5420 C   0  0  0  0  0  0  0  0  0  0  0  0
  1  2  1  0
  2  3  2  0
  2  4  1  0
  4  5  1  0
  4  6  1  0
  5  7  1  0
  6  8  1  0
  7  9  1  0
  8  9  1  0
  9 10  1  0
 10 11  1  0
 10 12  1  0
 10 13  1  0
 13 14  1  0
 14 15  1  0
 15 16  2  0
 15 17  1  0
 17 18  2  0
 17 19  1  0
 18 20  1  0
 19 21  2  0
 20 22  1  0
 20 23  2  0
 21 23  1  0
M  END
