diamond-x0681_0_A-diamond-x0926_0_A
     RDKit          3D

 13 14  0  0  0  0  0  0  0  0999 V2000
   -3.8400   15.3960   -3.0720 N   0  0  0  0  0  0  0  0  0  0  0  0
   -3.2530   14.9190   -1.9470 C   0  0  0  0  0  0  0  0  0  0  0  0
   -2.0950   14.5320   -1.9580 O   0  0  0  0  0  0  0  0  0  0  0  0
   -4.1850   14.9280   -0.7540 C   0  0  1  0  0  0  0  0  0  0  0  0
   -4.8850   13.6090   -0.6580 C   0  0  0  0  0  0  0  0  0  0  0  0
   -3.6150   15.3750    0.6070 C   0  0  0  0  0  0  0  0  0  0  0  0
   -5.7170   13.4540    0.3780 N   0  0  0  0  0  0  0  0  0  0  0  0
   -4.5260   14.9530    1.7640 C   0  0  0  0  0  0  0  0  0  0  0  0
   -4.8440   12.5430   -1.4280 N   0  0  0  0  0  0  0  0  0  0  0  0
   -5.8730   14.4700    1.2670 C   0  0  0  0  0  0  0  0  0  0  0  0
   -6.2700   12.2060    0.3010 C   0  0  0  0  0  0  0  0  0  0  0  0
   -5.7160   11.6600   -0.8330 C   0  0  0  0  0  0  0  0  0  0  0  0
   -6.9910   14.8820    1.4940 O   0  0  0  0  0  0  0  0  0  0  0  0
  1  2  1  0
  2  3  2  0
  4  2  1  6
  4  5  1  0
  4  6  1  0
  5  7  1  0
  6  8  1  0
  5  9  2  0
  7 10  1  0
  8 10  1  0
  7 11  1  0
  9 12  1  0
 11 12  2  0
 10 13  2  0
M  END
