diamond-x0926_0_A-mac-x0555
     RDKit          3D

 12 13  0  0  0  0  0  0  0  0999 V2000
   -6.2490   16.1350   -0.8180 O   0  0  0  0  0  0  0  0  0  0  0  0
   -5.7170   14.8490   -0.7810 C   0  0  2  0  0  0  0  0  0  0  0  0
   -5.0690   14.6130    0.5860 C   0  0  1  0  0  0  0  0  0  0  0  0
   -4.7330   14.7890   -1.8670 N   0  0  0  0  0  0  0  0  0  0  0  0
   -6.8550   14.0300   -1.0590 N   0  0  0  0  0  0  0  0  0  0  0  0
   -3.3970   15.1920   -1.4740 N   0  0  0  0  0  0  0  0  0  0  0  0
   -3.9080   15.5240    0.8320 C   0  0  0  0  0  0  0  0  0  0  0  0
   -6.1090   14.4620    1.6950 C   0  0  0  0  0  0  0  0  0  0  0  0
   -7.9630   14.3100   -0.1250 C   0  0  0  0  0  0  0  0  0  0  0  0
   -3.1430   15.7480   -0.2300 C   0  0  0  0  0  0  0  0  0  0  0  0
   -7.6000   14.5580    1.3660 C   0  0  1  0  0  0  0  0  0  0  0  0
   -8.3040   13.6220    2.2540 N   0  0  0  0  0  0  0  0  0  0  0  0
  2  1  1  1
  2  3  1  0
  2  4  1  0
  2  5  1  0
  4  6  1  0
  3  7  1  1
  3  8  1  0
  5  9  1  0
  6 10  1  0
  7 10  2  0
  8 11  1  0
  9 11  1  0
 11 12  1  1
M  END
