diamond-x0282_0_A-mac-x0277
     RDKit          3D

 27 29  0  0  0  0  0  0  0  0999 V2000
   -7.3450   13.3750    0.4110 C   0  0  0  0  0  0  0  0  0  0  0  0
   -8.6860   13.7620    0.1400 O   0  0  0  0  0  0  0  0  0  0  0  0
   -6.5350   14.6230    0.7040 C   0  0  0  0  0  0  0  0  0  0  0  0
   -5.5520   14.4420    1.8620 C   0  0  0  0  0  0  0  0  0  0  0  0
   -5.8710   15.1800   -0.5700 C   0  0  0  0  0  0  0  0  0  0  0  0
   -4.2400   15.2080    1.7530 C   0  0  0  0  0  0  0  0  0  0  0  0
   -4.4370   14.7100   -0.7060 C   0  0  0  0  0  0  0  0  0  0  0  0
   -3.6470   15.1060    0.4490 N   0  0  0  0  0  0  0  0  0  0  0  0
   -2.3810   14.6450    0.4700 C   0  0  0  0  0  0  0  0  0  0  0  0
   -2.0480   13.8780   -0.5460 N   0  0  0  0  0  0  0  0  0  0  0  0
   -1.5370   14.9580    1.4740 N   0  0  0  0  0  0  0  0  0  0  0  0
   -0.8250   13.4000   -0.5790 C   0  0  0  0  0  0  0  0  0  0  0  0
   -0.3100   14.4650    1.3840 C   0  0  0  0  0  0  0  0  0  0  0  0
   -0.4410   12.5000   -1.7010 C   0  0  0  0  0  0  0  0  0  0  0  0
    0.0790   13.6840    0.3600 C   0  0  0  0  0  0  0  0  0  0  0  0
    0.3110   13.1680   -2.6800 N   0  0  0  0  0  0  0  0  0  0  0  0
    0.7630   12.5070   -3.6260 C   0  0  0  0  0  0  0  0  0  0  0  0
    0.5260   11.1880   -3.6220 O   0  0  0  0  0  0  0  0  0  0  0  0
    1.4800   13.1180   -4.7490 C   0  0  0  0  0  0  0  0  0  0  0  0
    0.7810   14.4490   -4.8360 C   0  0  0  0  0  0  0  0  0  0  0  0
   -0.6000   14.4980   -5.0830 C   0  0  0  0  0  0  0  0  0  0  0  0
    1.4640   15.6370   -4.6590 C   0  0  0  0  0  0  0  0  0  0  0  0
   -1.2720   15.7230   -5.1580 C   0  0  0  0  0  0  0  0  0  0  0  0
    0.8050   16.8680   -4.7380 C   0  0  0  0  0  0  0  0  0  0  0  0
   -2.9720   15.6980   -5.4670 Cl  0  0  0  0  0  0  0  0  0  0  0  0
   -0.5640   16.9090   -4.9920 C   0  0  0  0  0  0  0  0  0  0  0  0
   -1.3300   18.4500   -5.0960 Cl  0  0  0  0  0  0  0  0  0  0  0  0
  1  2  1  0
  1  3  1  0
  3  4  1  0
  3  5  1  0
  4  6  1  0
  5  7  1  0
  6  8  1  0
  7  8  1  0
  8  9  1  0
  9 10  2  0
  9 11  1  0
 10 12  1  0
 11 13  2  0
 12 14  1  0
 12 15  2  0
 13 15  1  0
 14 16  1  0
 16 17  2  3
 17 18  1  0
 17 19  1  0
 19 20  1  0
 20 21  2  0
 20 22  1  0
 21 23  1  0
 22 24  2  0
 23 25  1  0
 23 26  2  0
 24 26  1  0
 26 27  1  0
M  END
