diamond-x0290_0_A-mac-x0213
     RDKit          3D

 25 27  0  0  0  0  0  0  0  0999 V2000
   -7.8160   13.8050    1.1070 N   0  0  0  0  0  0  0  0  0  0  0  0
   -8.5840   14.9720    0.6950 C   0  0  0  0  0  0  0  0  0  0  0  0
   -6.5950   14.1370    1.8700 C   0  0  0  0  0  0  0  0  0  0  0  0
   -5.4030   14.5400    0.9910 C   0  0  0  0  0  0  0  0  0  0  0  0
   -5.5300   14.7090   -0.2260 O   0  0  0  0  0  0  0  0  0  0  0  0
   -4.1430   14.7080    1.5050 N   0  0  0  0  0  0  0  0  0  0  0  0
   -2.9250   14.6410    0.8520 C   0  0  0  0  0  0  0  0  0  0  0  0
   -1.7760   14.6660    1.5730 N   0  0  0  0  0  0  0  0  0  0  0  0
   -2.9280   14.5460   -0.5010 C   0  0  0  0  0  0  0  0  0  0  0  0
   -0.6110   14.6060    0.8510 C   0  0  0  0  0  0  0  0  0  0  0  0
   -1.7740   14.4720   -1.2480 C   0  0  0  0  0  0  0  0  0  0  0  0
   -2.1280   14.3590   -2.7320 C   0  0  0  0  0  0  0  0  0  0  0  0
   -0.5480   14.5080   -0.5540 C   0  0  0  0  0  0  0  0  0  0  0  0
   -1.1930   14.2930   -3.9640 C   0  0  2  0  0  0  0  0  0  0  0  0
    0.2960   13.8900   -3.8420 C   0  0  2  0  0  0  0  0  0  0  0  0
   -1.0840   15.6650   -4.5580 C   0  0  0  0  0  0  0  0  0  0  0  0
    0.5620   12.8340   -2.7970 C   0  0  0  0  0  0  0  0  0  0  0  0
    0.2040   16.1790   -4.4000 C   0  0  0  0  0  0  0  0  0  0  0  0
    1.0950   15.1990   -3.6800 C   0  0  0  0  0  0  0  0  0  0  0  0
   -2.0870   16.3910   -5.1900 C   0  0  0  0  0  0  0  0  0  0  0  0
   -0.0100   11.6360   -3.0740 O   0  0  0  0  0  0  0  0  0  0  0  0
    1.2200   13.0020   -1.7950 O   0  0  0  0  0  0  0  0  0  0  0  0
   -1.7790   17.6590   -5.6740 C   0  0  0  0  0  0  0  0  0  0  0  0
    0.5110   17.4400   -4.8810 C   0  0  0  0  0  0  0  0  0  0  0  0
   -0.4870   18.1780   -5.5200 C   0  0  0  0  0  0  0  0  0  0  0  0
  1  2  1  0
  1  3  1  0
  3  4  1  0
  4  5  2  0
  4  6  1  0
  6  7  1  0
  7  8  2  0
  7  9  1  0
  8 10  1  0
  9 11  2  0
 11 12  1  0
 10 13  2  0
 11 13  1  0
 14 12  1  1
 14 15  1  0
 14 16  1  0
 15 17  1  1
 16 18  2  0
 15 19  1  0
 18 19  1  0
 16 20  1  0
 17 21  1  0
 17 22  2  0
 20 23  2  0
 18 24  1  0
 23 25  1  0
 24 25  2  0
M  END
