diamond-x0969_0_A-diamond-x0282_0_A
     RDKit          3D

 17 19  0  0  0  0  0  0  0  0999 V2000
   -7.1610   13.5720    1.9860 N   0  0  0  0  0  0  0  0  0  0  0  0
   -6.7470   14.0720    0.7890 C   0  0  0  0  0  0  0  0  0  0  0  0
   -7.5940   14.3660   -0.2430 N   0  0  0  0  0  0  0  0  0  0  0  0
   -5.5010   14.3990    0.3320 C   0  0  0  0  0  0  0  0  0  0  0  0
   -6.9600   14.8650   -1.3310 N   0  0  0  0  0  0  0  0  0  0  0  0
   -5.6750   14.8900   -0.9650 C   0  0  0  0  0  0  0  0  0  0  0  0
   -4.2000   14.3150    1.0250 C   0  0  2  0  0  0  0  0  0  0  0  0
   -4.6540   15.4600    1.8880 C   0  0  0  0  0  0  0  0  0  0  0  0
   -4.5520   15.3430   -1.7080 C   0  0  0  0  0  0  0  0  0  0  0  0
   -2.8970   14.5160    0.0560 C   0  0  2  0  0  0  0  0  0  0  0  0
   -6.0370   15.2230    2.2800 O   0  0  0  0  0  0  0  0  0  0  0  0
   -3.2820   15.1950   -1.2610 C   0  0  0  0  0  0  0  0  0  0  0  0
   -2.3180   13.2730   -0.4330 N   0  0  0  0  0  0  0  0  0  0  0  0
   -1.8790   15.2560    0.8410 N   0  0  0  0  0  0  0  0  0  0  0  0
   -0.9960   13.4590   -1.0450 C   0  0  0  0  0  0  0  0  0  0  0  0
   -0.5140   15.0150    0.7190 C   0  0  0  0  0  0  0  0  0  0  0  0
   -0.0400   14.1680   -0.1720 C   0  0  0  0  0  0  0  0  0  0  0  0
  1  2  1  0
  2  3  1  0
  2  4  2  0
  3  5  1  0
  4  6  1  0
  5  6  2  0
  4  7  1  0
  7  8  1  1
  6  9  1  0
  7 10  1  0
  8 11  1  0
  9 12  2  0
 10 12  1  6
 10 13  1  0
 10 14  1  0
 13 15  1  0
 14 16  1  0
 15 17  1  0
 16 17  2  0
M  END
