diamond-x0469_0_B-diamond-x0548_1_B
     RDKit          3D

 19 20  0  0  0  0  0  0  0  0999 V2000
   -4.3760   39.4950    6.2860 N   0  0  0  0  0  0  0  0  0  0  0  0
   -5.8280   39.5850    6.2100 C   0  0  2  0  0  0  0  0  0  0  0  0
   -6.2610   40.4300    7.4220 C   0  0  0  0  0  0  0  0  0  0  0  0
   -6.5400   38.2030    6.0750 C   0  0  1  0  0  0  0  0  0  0  0  0
   -6.2370   37.1700    7.2170 C   0  0  0  0  0  0  0  0  0  0  0  0
   -8.0510   38.4700    5.7660 C   0  0  2  0  0  0  0  0  0  0  0  0
   -8.3790   39.9020    6.2290 C   0  0  0  0  0  0  0  0  0  0  0  0
   -9.0840   37.3860    6.2150 C   0  0  2  0  0  0  0  0  0  0  0  0
   -7.4660   36.6630    7.9890 C   0  0  2  0  0  0  0  0  0  0  0  0
   -8.3810   38.5950    4.2990 C   0  0  0  0  0  0  0  0  0  0  0  0
  -10.1390   38.1100    6.8710 O   0  0  0  0  0  0  0  0  0  0  0  0
   -7.0930   35.5540    8.8260 O   0  0  0  0  0  0  0  0  0  0  0  0
   -8.5420   36.2120    7.0020 C   0  0  1  0  0  0  0  0  0  0  0  0
   -9.6660   37.9490    4.0240 N   0  0  0  0  0  0  0  0  0  0  0  0
   -9.7630   36.8940    5.0140 C   0  0  0  0  0  0  0  0  0  0  0  0
  -10.9760   38.8610    5.9790 C   0  0  0  0  0  0  0  0  0  0  0  0
   -9.5930   35.4260    7.5830 O   0  0  0  0  0  0  0  0  0  0  0  0
   -5.8970   34.9060    8.4310 C   0  0  0  0  0  0  0  0  0  0  0  0
  -10.0650   34.4440    6.6490 C   0  0  0  0  0  0  0  0  0  0  0  0
  1  2  1  0
  2  3  1  1
  2  4  1  0
  4  5  1  1
  4  6  1  0
  6  7  1  1
  6  8  1  0
  5  9  1  0
  6 10  1  0
  8 11  1  1
  9 12  1  1
  8 13  1  0
  9 13  1  0
 10 14  1  0
  8 15  1  0
 14 15  1  0
 11 16  1  0
 13 17  1  1
 12 18  1  0
 17 19  1  0
M  END
