diamond-x0969_0_A-diamond-x0290_0_A
     RDKit          3D

 22 24  0  0  0  0  0  0  0  0999 V2000
   -6.2850   14.5840    1.6480 N   0  0  0  0  0  0  0  0  0  0  0  0
   -7.3790   14.2980    2.5280 N   0  0  0  0  0  0  0  0  0  0  0  0
   -8.6720   14.5900    1.9040 C   0  0  0  0  0  0  0  0  0  0  0  0
   -5.1270   13.8260    1.7750 C   0  0  0  0  0  0  0  0  0  0  0  0
   -6.6070   14.6680    0.3420 C   0  0  0  0  0  0  0  0  0  0  0  0
   -5.1780   12.6010    1.6890 O   0  0  0  0  0  0  0  0  0  0  0  0
   -3.8960   14.3900    1.9240 N   0  0  0  0  0  0  0  0  0  0  0  0
   -7.7630   14.5050   -0.2660 N   0  0  0  0  0  0  0  0  0  0  0  0
   -5.6360   14.9340   -0.5590 N   0  0  0  0  0  0  0  0  0  0  0  0
   -7.5400   14.6430   -1.6120 N   0  0  0  0  0  0  0  0  0  0  0  0
   -6.2570   14.8830   -1.7720 C   0  0  0  0  0  0  0  0  0  0  0  0
   -4.2830   15.1900   -0.3930 C   0  0  0  0  0  0  0  0  0  0  0  0
   -2.6850   14.3360    1.1910 C   0  0  0  0  0  0  0  0  0  0  0  0
   -5.4480   15.0710   -2.9090 C   0  0  0  0  0  0  0  0  0  0  0  0
   -3.5220   15.3610   -1.4680 C   0  0  0  0  0  0  0  0  0  0  0  0
   -1.6020   14.4340    1.9690 N   0  0  0  0  0  0  0  0  0  0  0  0
   -2.5680   14.2020   -0.1890 C   0  0  0  0  0  0  0  0  0  0  0  0
   -4.1280   15.2950   -2.7680 C   0  0  0  0  0  0  0  0  0  0  0  0
   -0.3880   14.4150    1.3900 C   0  0  0  0  0  0  0  0  0  0  0  0
   -1.2970   14.1850   -0.7810 C   0  0  0  0  0  0  0  0  0  0  0  0
   -1.1570   14.0500   -2.2660 C   0  0  0  0  0  0  0  0  0  0  0  0
   -0.1810   14.2970    0.0360 C   0  0  0  0  0  0  0  0  0  0  0  0
  1  2  1  0
  2  3  1  0
  1  4  1  0
  1  5  1  0
  4  6  2  0
  4  7  1  0
  5  8  2  0
  5  9  1  0
  8 10  1  0
  9 11  1  0
 10 11  2  0
  9 12  1  0
  7 13  1  0
 11 14  1  0
 12 15  2  0
 13 16  2  0
 13 17  1  0
 14 18  2  0
 15 18  1  0
 16 19  1  0
 17 20  2  0
 20 21  1  0
 19 22  2  0
 20 22  1  0
M  END
