diamond-x1015_0_A-mac-x0190
     RDKit          3D

 29 32  0  0  0  0  0  0  0  0999 V2000
   -1.1240   14.3140   -4.5540 C   0  0  0  0  0  0  0  0  0  0  0  0
    0.1320   13.6020   -4.0500 C   0  0  2  0  0  0  0  0  0  0  0  0
   -0.0520   12.1570   -3.9780 N   0  0  0  0  0  0  0  0  0  0  0  0
    0.2910   13.8830   -2.5740 C   0  0  0  0  0  0  0  0  0  0  0  0
    0.2240   14.9700   -1.9250 N   0  0  0  0  0  0  0  0  0  0  0  0
    0.2560   11.6620   -2.6980 C   0  0  0  0  0  0  0  0  0  0  0  0
    0.5290   12.7340   -1.9060 N   0  0  0  0  0  0  0  0  0  0  0  0
   -0.4630   11.3820   -5.0860 C   0  0  0  0  0  0  0  0  0  0  0  0
    0.2940   10.4980   -2.3010 O   0  0  0  0  0  0  0  0  0  0  0  0
    0.3710   14.9450   -0.4810 C   0  0  0  0  0  0  0  0  0  0  0  0
    0.0820   11.5800   -6.3600 C   0  0  0  0  0  0  0  0  0  0  0  0
   -1.4370   10.3830   -4.9320 C   0  0  0  0  0  0  0  0  0  0  0  0
   -0.7240   15.8530    0.0690 C   0  0  0  0  0  0  0  0  0  0  0  0
   -0.3300   10.8070   -7.4480 C   0  0  0  0  0  0  0  0  0  0  0  0
   -1.8510    9.6070   -6.0160 C   0  0  0  0  0  0  0  0  0  0  0  0
   -1.7890   15.0560    0.8070 C   0  0  0  0  0  0  0  0  0  0  0  0
   -1.2960    9.8220   -7.2690 C   0  0  0  0  0  0  0  0  0  0  0  0
   -1.8080    8.8660   -8.6020 Cl  0  0  0  0  0  0  0  0  0  0  0  0
   -3.2070   15.1000    0.2670 C   0  0  0  0  0  0  0  0  0  0  0  0
   -3.5740   15.4610   -1.0510 C   0  0  0  0  0  0  0  0  0  0  0  0
   -4.2010   14.7410    1.1740 C   0  0  0  0  0  0  0  0  0  0  0  0
   -5.5320   14.7320    0.7810 C   0  0  0  0  0  0  0  0  0  0  0  0
   -4.9250   15.4570   -1.4670 C   0  0  0  0  0  0  0  0  0  0  0  0
   -5.8770   15.0810   -0.5110 C   0  0  0  0  0  0  0  0  0  0  0  0
   -6.6340   14.4080    1.5200 N   0  0  0  0  0  0  0  0  0  0  0  0
   -7.6580   14.5460    0.7150 C   0  0  0  0  0  0  0  0  0  0  0  0
   -7.2460   14.9530   -0.5340 N   0  0  0  0  0  0  0  0  0  0  0  0
   -9.0730   14.3030    1.0820 C   0  0  0  0  0  0  0  0  0  0  0  0
   -9.2880   14.9610    2.3260 O   0  0  0  0  0  0  0  0  0  0  0  0
  2  1  1  1
  2  3  1  0
  2  4  1  0
  4  5  2  3
  3  6  1  0
  4  7  1  0
  6  7  1  0
  3  8  1  0
  6  9  2  0
  5 10  1  0
  8 11  2  0
  8 12  1  0
 10 13  1  0
 11 14  1  0
 12 15  2  0
 13 16  1  0
 14 17  2  0
 15 17  1  0
 17 18  1  0
 16 19  1  0
 19 20  2  0
 19 21  1  0
 21 22  2  0
 20 23  1  0
 22 24  1  0
 23 24  2  0
 22 25  1  0
 25 26  2  0
 24 27  1  0
 26 27  1  0
 26 28  1  0
 28 29  1  0
M  END
