diamond-x0722_0_A-diamond-x0895_0_A
     RDKit          3D

 12 12  0  0  0  0  0  0  0  0999 V2000
   -4.4290   15.7650    2.2580 C   0  0  0  0  0  0  0  0  0  0  0  0
   -3.4380   15.2730    1.3220 C   0  0  0  0  0  0  0  0  0  0  0  0
   -2.2690   14.9160    1.8020 N   0  0  0  0  0  0  0  0  0  0  0  0
   -3.5280   15.1220   -0.0800 C   0  0  0  0  0  0  0  0  0  0  0  0
   -4.7050   15.4350   -0.9540 C   0  0  0  0  0  0  0  0  0  0  0  0
   -2.2710   14.6360   -0.4250 C   0  0  0  0  0  0  0  0  0  0  0  0
   -1.5680   14.5420    0.7520 N   0  0  0  0  0  0  0  0  0  0  0  0
   -0.2170   14.1110    0.9770 C   0  0  0  0  0  0  0  0  0  0  0  0
   -1.6870   14.2690   -1.7380 C   0  0  0  0  0  0  0  0  0  0  0  0
   -5.9820   14.6790   -0.6140 C   0  0  0  0  0  0  0  0  0  0  0  0
   -7.1000   15.1610   -0.7760 O   0  0  0  0  0  0  0  0  0  0  0  0
   -5.8520   13.4130   -0.1170 N   0  0  0  0  0  0  0  0  0  0  0  0
  1  2  1  0
  2  3  2  0
  2  4  1  0
  4  5  1  0
  4  6  2  0
  3  7  1  0
  6  7  1  0
  7  8  1  0
  6  9  1  0
  5 10  1  0
 10 11  2  0
 10 12  1  0
M  END
