diamond-x0471_0_A-diamond-x0895_1_A
     RDKit          3D

 18 19  0  0  0  0  0  0  0  0999 V2000
   -8.9480   14.0280    2.7400 N   0  0  0  0  0  0  0  0  0  0  0  0
   -9.2180   15.0900    3.5750 C   0  0  0  0  0  0  0  0  0  0  0  0
   -9.4130   16.2180    3.1360 O   0  0  0  0  0  0  0  0  0  0  0  0
   -9.0130   14.1900    1.2970 C   0  0  0  0  0  0  0  0  0  0  0  0
   -9.3020   14.8070    5.0770 C   0  0  0  0  0  0  0  0  0  0  0  0
   -7.6380   14.4960    0.8110 C   0  0  0  0  0  0  0  0  0  0  0  0
   -9.6370   13.3520    5.3800 C   0  0  0  0  0  0  0  0  0  0  0  0
   -8.0610   15.2930    5.8200 C   0  0  0  0  0  0  0  0  0  0  0  0
   -7.2950   14.7400   -0.5170 N   0  0  0  0  0  0  0  0  0  0  0  0
   -6.5830   14.5740    1.5830 N   0  0  0  0  0  0  0  0  0  0  0  0
   -5.5470   14.8770    0.7610 C   0  0  0  0  0  0  0  0  0  0  0  0
   -5.9420   14.9850   -0.5340 C   0  0  0  0  0  0  0  0  0  0  0  0
   -5.1310   15.2870   -1.6470 C   0  0  0  0  0  0  0  0  0  0  0  0
   -4.1820   15.0840    1.1070 C   0  0  0  0  0  0  0  0  0  0  0  0
   -3.8330   15.2640    2.2290 O   0  0  0  0  0  0  0  0  0  0  0  0
   -3.7940   15.3250   -1.4230 C   0  0  0  0  0  0  0  0  0  0  0  0
   -3.1960   15.0660   -0.0640 C   0  0  0  0  0  0  0  0  0  0  0  0
   -1.9950   14.8510    0.1080 O   0  0  0  0  0  0  0  0  0  0  0  0
  1  2  1  0
  2  3  2  0
  1  4  1  0
  2  5  1  0
  4  6  1  0
  5  7  1  0
  5  8  1  0
  6  9  1  0
  6 10  2  0
 10 11  1  0
  9 12  1  0
 11 12  2  0
 12 13  1  0
 11 14  1  0
 14 15  2  0
 13 16  2  0
 14 17  1  0
 16 17  1  0
 17 18  2  0
M  END
