diamond-x0766_0_A-diamond-x0727_0_A
     RDKit          3D

 23 25  0  0  0  0  0  0  0  0999 V2000
    0.6000   12.3290   -3.4020 C   0  0  0  0  0  0  0  0  0  0  0  0
    1.7880   11.9480   -2.7610 O   0  0  0  0  0  0  0  0  0  0  0  0
   -0.4120   11.5660   -2.7470 O   0  0  0  0  0  0  0  0  0  0  0  0
    0.7680   12.1180   -4.9520 C   0  0  1  0  0  0  0  0  0  0  0  0
    0.5780   13.7930   -3.0570 C   0  0  1  0  0  0  0  0  0  0  0  0
    0.1410   11.0220   -5.6660 N   0  0  0  0  0  0  0  0  0  0  0  0
    0.4730   13.3530   -5.7750 C   0  0  0  0  0  0  0  0  0  0  0  0
    1.7870   14.4960   -3.7090 C   0  0  0  0  0  0  0  0  0  0  0  0
   -0.6550   14.5940   -3.4740 C   0  0  2  0  0  0  0  0  0  0  0  0
    0.6370   10.8190   -6.9300 C   0  0  0  0  0  0  0  0  0  0  0  0
    1.1830   15.5050   -4.6630 C   0  0  0  0  0  0  0  0  0  0  0  0
   -0.0420   15.9310   -3.9020 C   0  0  0  0  0  0  0  0  0  0  0  0
   -1.6940   14.7020   -2.4000 C   0  0  0  0  0  0  0  0  0  0  0  0
    1.5130   11.5380   -7.3580 O   0  0  0  0  0  0  0  0  0  0  0  0
   -3.0380   14.9140   -2.6350 C   0  0  0  0  0  0  0  0  0  0  0  0
   -1.4400   14.6040   -0.9910 C   0  0  0  0  0  0  0  0  0  0  0  0
    0.0550    9.6710   -7.7150 C   0  0  0  0  0  0  0  0  0  0  0  0
   -2.5790   14.7430   -0.2330 C   0  0  0  0  0  0  0  0  0  0  0  0
   -3.9620   14.9950   -1.2020 S   0  0  0  0  0  0  0  0  0  0  0  0
   -1.2560   10.0290   -8.4220 C   0  0  0  0  0  0  0  0  0  0  0  0
   -0.2580    8.4410   -6.8530 C   0  0  0  0  0  0  0  0  0  0  0  0
   -2.3080    9.0810   -7.8610 C   0  0  0  0  0  0  0  0  0  0  0  0
   -1.7350    8.5760   -6.5480 C   0  0  0  0  0  0  0  0  0  0  0  0
  1  2  1  0
  1  3  1  0
  1  4  1  0
  5  1  1  6
  4  6  1  0
  4  7  1  6
  5  8  1  0
  5  9  1  0
  6 10  1  0
  8 11  1  0
  9 12  1  0
 11 12  1  0
  9 13  1  1
 10 14  2  0
 13 15  2  0
 13 16  1  0
 10 17  1  0
 16 18  2  0
 15 19  1  0
 18 19  1  0
 17 20  1  0
 17 21  1  0
 20 22  1  0
 21 23  1  0
 22 23  1  0
M  END
