diamond-x0628_0_A-diamond-x0933_0_A
     RDKit          3D

 21 22  0  0  0  0  0  0  0  0999 V2000
   -1.1350    9.0220   -6.9310 C   0  0  0  0  0  0  0  0  0  0  0  0
   -1.0360   10.3000   -6.1910 C   0  0  0  0  0  0  0  0  0  0  0  0
   -2.0180   10.7710   -5.3460 N   0  0  0  0  0  0  0  0  0  0  0  0
    0.0280   11.0890   -6.2960 N   0  0  0  0  0  0  0  0  0  0  0  0
   -0.2920   12.1060   -5.4780 N   0  0  0  0  0  0  0  0  0  0  0  0
   -1.5290   11.9240   -4.8990 C   0  0  0  0  0  0  0  0  0  0  0  0
   -2.1350   12.9290   -3.9410 C   0  0  0  0  0  0  0  0  0  0  0  0
    0.6530   13.1970   -5.3290 C   0  0  0  0  0  0  0  0  0  0  0  0
    1.6980   12.9770   -4.2370 C   0  0  0  0  0  0  0  0  0  0  0  0
   -2.9940   12.4230   -2.7610 C   0  0  0  0  0  0  0  0  0  0  0  0
    1.1080   12.3210   -3.0170 C   0  0  0  0  0  0  0  0  0  0  0  0
   -2.6860   12.9730   -1.3330 C   0  0  0  0  0  0  0  0  0  0  0  0
    0.6260   11.2020   -2.9510 O   0  0  0  0  0  0  0  0  0  0  0  0
    1.1630   13.1080   -1.9340 O   0  0  0  0  0  0  0  0  0  0  0  0
   -2.8910   14.4780   -0.9690 C   0  0  1  0  0  0  0  0  0  0  0  0
   -4.2760   15.0060   -1.4250 C   0  0  0  0  0  0  0  0  0  0  0  0
   -2.7720   14.7280    0.5600 C   0  0  0  0  0  0  0  0  0  0  0  0
   -5.3880   14.7660   -0.4810 N   0  0  0  0  0  0  0  0  0  0  0  0
   -3.9760   14.2790    1.2370 N   0  0  0  0  0  0  0  0  0  0  0  0
   -5.0470   15.0950    0.8610 C   0  0  2  0  0  0  0  0  0  0  0  0
   -6.1210   14.6350    1.6620 N   0  0  0  0  0  0  0  0  0  0  0  0
  1  2  1  0
  2  3  1  0
  2  4  2  0
  4  5  1  0
  3  6  2  0
  5  6  1  0
  6  7  1  0
  5  8  1  0
  8  9  1  0
  7 10  1  0
  9 11  1  0
 10 12  1  0
 11 13  2  0
 11 14  1  0
 15 12  1  1
 15 16  1  0
 15 17  1  0
 16 18  1  0
 17 19  1  0
 18 20  1  0
 19 20  1  0
 20 21  1  1
M  END
