diamond-x0711_0_A-mac-x0124
     RDKit          3D

 20 21  0  0  0  0  0  0  0  0999 V2000
   -1.6410   15.4840   -2.6650 N   0  0  0  0  0  0  0  0  0  0  0  0
   -0.7220   14.2100   -3.2780 S   0  0  0  0  0  0  0  0  0  0  0  0
   -1.9050   13.0640   -3.9470 C   0  0  0  0  0  0  0  0  0  0  0  0
   -2.8700   15.4640   -1.7930 C   0  0  1  0  0  0  0  0  0  0  0  0
    0.0040   14.7770   -4.3910 O   0  0  0  0  0  0  0  0  0  0  0  0
    0.0150   13.5540   -2.2170 O   0  0  0  0  0  0  0  0  0  0  0  0
   -4.1080   15.2220   -2.6310 C   0  0  0  0  0  0  0  0  0  0  0  0
   -2.7520   14.5900   -0.4930 C   0  0  2  0  0  0  0  0  0  0  0  0
   -5.2750   14.9480   -2.0200 C   0  0  0  0  0  0  0  0  0  0  0  0
   -4.1090   13.9180   -0.1350 C   0  0  0  0  0  0  0  0  0  0  0  0
   -2.4220   15.4270    0.7460 C   0  0  1  0  0  0  0  0  0  0  0  0
   -1.5100   13.6980   -0.6010 C   0  0  0  0  0  0  0  0  0  0  0  0
   -3.5460   15.6540    1.6390 N   0  0  0  0  0  0  0  0  0  0  0  0
   -5.2540   14.8670   -0.5300 C   0  0  2  0  0  0  0  0  0  0  0  0
   -1.4340   14.8510    1.6240 N   0  0  0  0  0  0  0  0  0  0  0  0
   -0.2720   14.4360   -0.3640 N   0  0  0  0  0  0  0  0  0  0  0  0
   -6.5990   14.4460    0.0650 C   0  0  0  0  0  0  0  0  0  0  0  0
   -0.1320   14.6140    1.0420 C   0  0  0  0  0  0  0  0  0  0  0  0
   -6.6020   14.1880    1.4090 N   0  0  0  0  0  0  0  0  0  0  0  0
   -7.6350   14.3480   -0.5850 O   0  0  0  0  0  0  0  0  0  0  0  0
  2  1  1  0
  2  3  1  0
  4  1  1  6
  2  5  2  0
  2  6  2  0
  4  7  1  0
  4  8  1  0
  7  9  2  0
  8 10  1  1
  8 11  1  0
  8 12  1  0
 11 13  1  1
  9 14  1  0
 10 14  1  0
 11 15  1  0
 12 16  1  0
 14 17  1  6
 15 18  1  0
 16 18  1  0
 17 19  1  0
 17 20  2  0
M  END
