diamond-x0900_0_A-mac-x0231
     RDKit          3D

 23 25  0  0  0  0  0  0  0  0999 V2000
   -7.0720   15.0660   -0.7210 O   0  0  0  0  0  0  0  0  0  0  0  0
   -5.8920   14.9010   -0.4710 C   0  0  0  0  0  0  0  0  0  0  0  0
   -4.8360   14.8240   -1.3770 N   0  0  0  0  0  0  0  0  0  0  0  0
   -5.3090   14.7280    0.9100 C   0  0  0  0  0  0  0  0  0  0  0  0
   -4.9510   14.1300   -2.6790 C   0  0  0  0  0  0  0  0  0  0  0  0
   -3.9380   15.3550    0.7360 C   0  0  0  0  0  0  0  0  0  0  0  0
   -3.5690   14.9320   -0.6810 C   0  0  0  0  0  0  0  0  0  0  0  0
   -4.3530   14.8880   -3.8870 C   0  0  0  0  0  0  0  0  0  0  0  0
   -2.9150   14.6170   -4.1310 C   0  0  0  0  0  0  0  0  0  0  0  0
   -2.0370   15.6970   -4.2800 C   0  0  0  0  0  0  0  0  0  0  0  0
   -2.4470   13.3130   -4.1830 C   0  0  0  0  0  0  0  0  0  0  0  0
   -0.6770   15.4600   -4.4310 C   0  0  0  0  0  0  0  0  0  0  0  0
   -1.0940   13.0810   -4.3360 C   0  0  0  0  0  0  0  0  0  0  0  0
   -0.2180   14.1590   -4.4360 C   0  0  0  0  0  0  0  0  0  0  0  0
    0.2920   16.5630   -4.5650 C   0  0  0  0  0  0  0  0  0  0  0  0
   -0.0590   17.7300   -4.6970 O   0  0  0  0  0  0  0  0  0  0  0  0
    1.2190   13.9570   -4.5150 C   0  0  0  0  0  0  0  0  0  0  0  0
    1.6070   16.1870   -4.5330 N   0  0  0  0  0  0  0  0  0  0  0  0
    1.7100   12.5580   -4.4570 C   0  0  0  0  0  0  0  0  0  0  0  0
    2.0720   14.9160   -4.5410 N   0  0  0  0  0  0  0  0  0  0  0  0
    1.2550   11.9780   -3.1390 C   0  0  0  0  0  0  0  0  0  0  0  0
    0.4770   10.8720   -3.2400 O   0  0  0  0  0  0  0  0  0  0  0  0
    1.5330   12.4530   -2.0550 O   0  0  0  0  0  0  0  0  0  0  0  0
  1  2  2  0
  2  3  1  0
  2  4  1  0
  3  5  1  0
  4  6  1  0
  3  7  1  0
  6  7  1  0
  5  8  1  0
  8  9  1  0
  9 10  2  0
  9 11  1  0
 10 12  1  0
 11 13  2  0
 12 14  2  0
 13 14  1  0
 12 15  1  0
 15 16  2  0
 14 17  1  0
 15 18  1  0
 17 19  1  0
 17 20  2  0
 18 20  1  0
 19 21  1  0
 21 22  1  0
 21 23  2  0
M  END
