diamond-x0587_0_A-diamond-x0592_0_A
     RDKit          3D

 14 14  0  0  0  0  0  0  0  0999 V2000
   -7.8810   14.9350    4.2630 N   0  0  0  0  0  0  0  0  0  0  0  0
   -8.4150   15.0000    2.9570 C   0  0  0  0  0  0  0  0  0  0  0  0
   -9.6210   15.2070    2.7510 O   0  0  0  0  0  0  0  0  0  0  0  0
   -7.4480   14.8110    1.8530 C   0  0  0  0  0  0  0  0  0  0  0  0
   -7.8450   14.5770    0.5800 C   0  0  0  0  0  0  0  0  0  0  0  0
   -6.1350   14.8840    2.1290 C   0  0  0  0  0  0  0  0  0  0  0  0
   -6.9100   14.4270   -0.3540 N   0  0  0  0  0  0  0  0  0  0  0  0
   -5.2850   14.7220    1.1400 N   0  0  0  0  0  0  0  0  0  0  0  0
   -5.5830   14.4850   -0.1540 C   0  0  0  0  0  0  0  0  0  0  0  0
   -4.3340   14.2950   -1.2800 S   0  0  0  0  0  0  0  0  0  0  0  0
   -3.7570   16.0070   -0.8160 F   0  0  0  0  0  0  0  0  0  0  0  0
   -2.5610   14.7870   -1.8310 F   0  0  0  0  0  0  0  0  0  0  0  0
   -5.2140   13.7470   -3.0070 F   0  0  0  0  0  0  0  0  0  0  0  0
   -3.3270   12.8700   -1.0440 N   0  0  0  0  0  0  0  0  0  0  0  0
  1  2  1  0
  2  3  2  0
  2  4  1  0
  4  5  2  0
  4  6  1  0
  5  7  1  0
  6  8  2  0
  7  9  2  0
  8  9  1  0
  9 10  1  0
 10 11  1  0
 10 12  1  0
 10 13  1  0
 10 14  1  0
M  END
