diamond-x1015_0_A-diamond-x0128_0_A
     RDKit          3D

 34 37  0  0  0  0  0  0  0  0999 V2000
   -1.1400   14.3290   -4.4960 C   0  0  0  0  0  0  0  0  0  0  0  0
    0.1030   13.6500   -3.9210 C   0  0  2  0  0  0  0  0  0  0  0  0
    0.0310   12.1880   -3.9450 N   0  0  0  0  0  0  0  0  0  0  0  0
    0.0970   13.8430   -2.4170 C   0  0  0  0  0  0  0  0  0  0  0  0
   -0.2660   14.9190   -1.8280 N   0  0  0  0  0  0  0  0  0  0  0  0
    0.2620   11.6600   -2.6640 C   0  0  0  0  0  0  0  0  0  0  0  0
    0.5140   12.7020   -1.8310 N   0  0  0  0  0  0  0  0  0  0  0  0
   -0.4130   11.4260   -5.0550 C   0  0  0  0  0  0  0  0  0  0  0  0
    0.2630   10.4880   -2.2870 O   0  0  0  0  0  0  0  0  0  0  0  0
   -0.2850   14.9620   -0.3640 C   0  0  0  0  0  0  0  0  0  0  0  0
    0.1190   11.6340   -6.3390 C   0  0  0  0  0  0  0  0  0  0  0  0
   -1.3940   10.4350   -4.9080 C   0  0  0  0  0  0  0  0  0  0  0  0
   -1.6750   14.5180    0.1150 C   0  0  0  0  0  0  0  0  0  0  0  0
   -0.3150   10.8750   -7.4300 C   0  0  0  0  0  0  0  0  0  0  0  0
   -1.8320    9.6740   -5.9950 C   0  0  0  0  0  0  0  0  0  0  0  0
   -2.6480   15.6940    0.0230 C   0  0  0  0  0  0  0  0  0  0  0  0
   -1.2880    9.8960   -7.2540 C   0  0  0  0  0  0  0  0  0  0  0  0
   -1.8240    8.9580   -8.5900 Cl  0  0  0  0  0  0  0  0  0  0  0  0
   -4.1150   15.3450   -0.0280 C   0  0  0  0  0  0  0  0  0  0  0  0
   -4.8300   15.2680   -1.2280 C   0  0  0  0  0  0  0  0  0  0  0  0
   -4.7880   15.1000    1.1730 C   0  0  0  0  0  0  0  0  0  0  0  0
   -6.1920   14.9480   -1.2140 C   0  0  0  0  0  0  0  0  0  0  0  0
   -6.1510   14.7770    1.1990 C   0  0  0  0  0  0  0  0  0  0  0  0
   -6.7060   14.5570    2.4780 N   0  0  0  0  0  0  0  0  0  0  0  0
   -6.8500   14.7020   -0.0030 C   0  0  0  0  0  0  0  0  0  0  0  0
   -7.8020   15.1720    3.0640 C   0  0  0  0  0  0  0  0  0  0  0  0
   -8.8370   15.4620    2.4760 O   0  0  0  0  0  0  0  0  0  0  0  0
   -7.5740   15.4280    4.4190 N   0  0  0  0  0  0  0  0  0  0  0  0
   -8.4260   16.1720    5.2690 C   0  0  0  0  0  0  0  0  0  0  0  0
   -9.1460   17.3040    4.8920 C   0  0  0  0  0  0  0  0  0  0  0  0
   -8.5710   15.7530    6.5970 C   0  0  0  0  0  0  0  0  0  0  0  0
   -9.9630   18.0080    5.7150 N   0  0  0  0  0  0  0  0  0  0  0  0
   -9.4040   16.4620    7.4650 C   0  0  0  0  0  0  0  0  0  0  0  0
  -10.0720   17.5730    6.9830 C   0  0  0  0  0  0  0  0  0  0  0  0
  2  1  1  6
  2  3  1  0
  2  4  1  0
  4  5  2  3
  3  6  1  0
  4  7  1  0
  6  7  1  0
  3  8  1  0
  6  9  2  0
  5 10  1  0
  8 11  2  0
  8 12  1  0
 10 13  1  0
 11 14  1  0
 12 15  2  0
 13 16  1  0
 14 17  2  0
 15 17  1  0
 17 18  1  0
 16 19  1  0
 19 20  2  0
 19 21  1  0
 20 22  1  0
 21 23  2  0
 23 24  1  0
 22 25  2  0
 23 25  1  0
 24 26  1  0
 26 27  2  0
 26 28  1  0
 28 29  1  0
 29 30  2  0
 29 31  1  0
 30 32  1  0
 31 33  2  0
 32 34  2  0
 33 34  1  0
M  END
