diamond-x0662_0_A-mac-x0357
     RDKit          3D

 27 29  0  0  0  0  0  0  0  0999 V2000
    5.4540    9.5850  -15.1680 C   0  0  0  0  0  0  0  0  0  0  0  0
    4.3980   10.0480  -14.3040 N   0  0  0  0  0  0  0  0  0  0  0  0
    3.7650   11.2560  -14.3320 C   0  0  0  0  0  0  0  0  0  0  0  0
    3.9540    9.2300  -13.3460 N   0  0  0  0  0  0  0  0  0  0  0  0
    2.8430   11.2160  -13.3150 C   0  0  0  0  0  0  0  0  0  0  0  0
    2.9940    9.9270  -12.7200 C   0  0  0  0  0  0  0  0  0  0  0  0
    2.2720    9.3280  -11.5830 C   0  0  0  0  0  0  0  0  0  0  0  0
    2.6490    8.2780  -11.0660 O   0  0  0  0  0  0  0  0  0  0  0  0
    1.1680   10.0400  -11.1650 N   0  0  0  0  0  0  0  0  0  0  0  0
    0.5440    9.8120   -9.9410 C   0  0  0  0  0  0  0  0  0  0  0  0
   -0.3960    8.8190   -9.6970 C   0  0  0  0  0  0  0  0  0  0  0  0
    0.9190   10.6480   -8.9240 C   0  0  0  0  0  0  0  0  0  0  0  0
   -0.9510    8.6670   -8.4230 C   0  0  0  0  0  0  0  0  0  0  0  0
    0.3880   10.5110   -7.6640 C   0  0  0  0  0  0  0  0  0  0  0  0
    0.8670   11.4460   -6.6560 C   0  0  0  0  0  0  0  0  0  0  0  0
   -0.5560    9.5150   -7.3980 C   0  0  0  0  0  0  0  0  0  0  0  0
    1.9370   11.9580   -6.6530 O   0  0  0  0  0  0  0  0  0  0  0  0
    0.0670   11.7750   -5.5740 C   0  0  0  0  0  0  0  0  0  0  0  0
    0.5730   12.5180   -4.5160 C   0  0  0  0  0  0  0  0  0  0  0  0
   -1.2230   11.2890   -5.6770 C   0  0  0  0  0  0  0  0  0  0  0  0
    2.0090   13.0190   -4.4820 C   0  0  0  0  0  0  0  0  0  0  0  0
   -0.3370   12.7630   -3.4970 C   0  0  0  0  0  0  0  0  0  0  0  0
   -2.0980   11.5410   -4.6650 C   0  0  0  0  0  0  0  0  0  0  0  0
   -0.0100   13.5240   -2.2920 C   0  0  0  0  0  0  0  0  0  0  0  0
   -1.6580   12.2760   -3.5740 C   0  0  0  0  0  0  0  0  0  0  0  0
   -0.5550   14.5370   -1.9170 O   0  0  0  0  0  0  0  0  0  0  0  0
    1.0000   12.9670   -1.6170 O   0  0  0  0  0  0  0  0  0  0  0  0
  1  2  1  0
  2  3  1  0
  2  4  1  0
  3  5  2  0
  4  6  2  0
  5  6  1  0
  6  7  1  0
  7  8  2  0
  7  9  1  0
  9 10  1  0
 10 11  2  0
 10 12  1  0
 11 13  1  0
 12 14  2  0
 14 15  1  0
 13 16  2  0
 14 16  1  0
 15 17  2  0
 15 18  1  0
 18 19  2  0
 18 20  1  0
 19 21  1  0
 19 22  1  0
 20 23  2  0
 22 24  1  0
 22 25  2  0
 23 25  1  0
 24 26  2  0
 24 27  1  0
M  END
