diamond-x0685_1_A-mac-x0567
     RDKit          3D

 24 26  0  0  0  0  0  0  0  0999 V2000
   -0.8410   10.8920   -4.9910 N   0  0  0  0  0  0  0  0  0  0  0  0
   -0.9270   12.3520   -5.0480 C   0  0  0  0  0  0  0  0  0  0  0  0
   -0.1140   13.0590   -3.9620 C   0  0  0  0  0  0  0  0  0  0  0  0
   -0.5420   10.3900   -6.3320 C   0  0  0  0  0  0  0  0  0  0  0  0
   -0.5850    8.8650   -6.3910 C   0  0  0  0  0  0  0  0  0  0  0  0
   -1.4920   10.9510   -7.4030 C   0  0  0  0  0  0  0  0  0  0  0  0
    0.8500   12.0510   -2.8290 S   0  0  0  0  0  0  0  0  0  0  0  0
   -0.0730    8.4110   -7.7620 C   0  0  0  0  0  0  0  0  0  0  0  0
   -1.0860   10.5160   -8.8120 C   0  0  0  0  0  0  0  0  0  0  0  0
    2.3750   12.1990   -3.2980 O   0  0  0  0  0  0  0  0  0  0  0  0
    0.3530   10.5140   -2.7840 O   0  0  0  0  0  0  0  0  0  0  0  0
    0.6550   12.6900   -1.3810 O   0  0  0  0  0  0  0  0  0  0  0  0
   -0.8680    9.0050   -8.9330 C   0  0  0  0  0  0  0  0  0  0  0  0
    0.7940   14.0750   -1.1950 C   0  0  0  0  0  0  0  0  0  0  0  0
    0.2720   14.3000    0.1210 N   0  0  0  0  0  0  0  0  0  0  0  0
   -1.0260   14.5620    0.4320 C   0  0  0  0  0  0  0  0  0  0  0  0
   -1.4760   14.6430    1.7070 N   0  0  0  0  0  0  0  0  0  0  0  0
   -2.1520   14.8020   -0.3250 C   0  0  0  0  0  0  0  0  0  0  0  0
   -2.7870   14.9200    1.8410 N   0  0  0  0  0  0  0  0  0  0  0  0
   -3.2390   15.0300    0.5910 C   0  0  0  0  0  0  0  0  0  0  0  0
   -2.2310   14.8280   -1.7160 C   0  0  0  0  0  0  0  0  0  0  0  0
   -4.5300   15.3170    0.1220 C   0  0  0  0  0  0  0  0  0  0  0  0
   -3.5380   15.1170   -2.1610 C   0  0  0  0  0  0  0  0  0  0  0  0
   -4.6360   15.3520   -1.2860 C   0  0  0  0  0  0  0  0  0  0  0  0
  1  2  1  0
  2  3  1  0
  1  4  1  0
  4  5  1  0
  4  6  1  0
  3  7  1  0
  5  8  1  0
  6  9  1  0
  7 10  1  0
  7 11  1  0
  7 12  1  0
  8 13  1  0
  9 13  1  0
 12 14  1  0
 14 15  1  0
 15 16  1  0
 16 17  1  0
 16 18  2  0
 17 19  1  0
 18 20  1  0
 19 20  2  0
 18 21  1  0
 20 22  1  0
 21 23  2  0
 22 24  2  0
 23 24  1  0
M  END
