diamond-x0844_0_A-diamond-x0104_0_A
     RDKit          3D

 18 19  0  0  0  0  0  0  0  0999 V2000
   -7.8140   14.6600   -0.1620 O   0  0  0  0  0  0  0  0  0  0  0  0
   -6.6080   14.8130    0.0250 C   0  0  0  0  0  0  0  0  0  0  0  0
   -6.0250   14.8830    1.2890 N   0  0  0  0  0  0  0  0  0  0  0  0
   -5.6830   14.9330   -1.1310 C   0  0  0  0  0  0  0  0  0  0  0  0
   -6.7900   14.3750    2.3900 N   0  0  0  0  0  0  0  0  0  0  0  0
   -4.6660   15.1090    1.4640 C   0  0  0  0  0  0  0  0  0  0  0  0
   -4.3690   15.1230   -0.9320 C   0  0  0  0  0  0  0  0  0  0  0  0
   -3.5260   15.2160   -2.0310 O   0  0  0  0  0  0  0  0  0  0  0  0
   -7.9230   15.0250    2.9330 C   0  0  0  0  0  0  0  0  0  0  0  0
   -3.8410   15.2270    0.4120 C   0  0  0  0  0  0  0  0  0  0  0  0
   -7.8560   14.9430    4.3190 N   0  0  0  0  0  0  0  0  0  0  0  0
   -8.8130   15.5540    2.2770 O   0  0  0  0  0  0  0  0  0  0  0  0
   -4.3340   14.8420   -3.1760 O   0  0  0  0  0  0  0  0  0  0  0  0
   -8.9470   15.0190    5.1820 C   0  0  0  0  0  0  0  0  0  0  0  0
   -9.0530   15.1750    6.5480 C   0  0  0  0  0  0  0  0  0  0  0  0
  -10.4750   14.8930    4.4340 S   0  0  0  0  0  0  0  0  0  0  0  0
  -11.2970   15.0450    5.9320 C   0  0  0  0  0  0  0  0  0  0  0  0
  -10.4190   15.1900    6.9830 C   0  0  0  0  0  0  0  0  0  0  0  0
  1  2  2  0
  2  3  1  0
  2  4  1  0
  3  5  1  0
  3  6  1  0
  4  7  2  0
  7  8  1  0
  5  9  1  0
  6 10  2  0
  7 10  1  0
  9 11  1  0
  9 12  2  0
  8 13  1  0
 11 14  1  0
 14 15  2  0
 14 16  1  0
 16 17  1  0
 15 18  1  0
 17 18  2  0
M  END
