diamond-x0685_1_A-diamond-x0895_1_A
     RDKit          3D

 22 23  0  0  0  0  0  0  0  0999 V2000
   -0.8020   10.6550   -4.8590 N   0  0  0  0  0  0  0  0  0  0  0  0
   -1.3570   11.9590   -4.4760 C   0  0  0  0  0  0  0  0  0  0  0  0
   -0.2470   12.8380   -3.9090 C   0  0  0  0  0  0  0  0  0  0  0  0
   -1.2830   10.1160   -6.1370 C   0  0  0  0  0  0  0  0  0  0  0  0
   -0.6530    8.7510   -6.4610 C   0  0  0  0  0  0  0  0  0  0  0  0
   -1.0300   11.1340   -7.2760 C   0  0  0  0  0  0  0  0  0  0  0  0
    0.4910   12.1650   -2.4120 S   0  0  0  0  0  0  0  0  0  0  0  0
    0.1120    8.7190   -7.7840 C   0  0  0  0  0  0  0  0  0  0  0  0
   -1.2710   10.6260   -8.7030 C   0  0  0  0  0  0  0  0  0  0  0  0
    2.0460   12.5440   -2.5140 O   0  0  0  0  0  0  0  0  0  0  0  0
    0.3300   10.5590   -2.4590 O   0  0  0  0  0  0  0  0  0  0  0  0
   -0.2670   12.7640   -1.1040 O   0  0  0  0  0  0  0  0  0  0  0  0
   -0.7190    9.2310   -8.9580 C   0  0  0  0  0  0  0  0  0  0  0  0
    0.3500   13.6880   -0.1770 C   0  0  0  0  0  0  0  0  0  0  0  0
   -0.5010   14.9260    0.1020 C   0  0  0  0  0  0  0  0  0  0  0  0
   -1.5580   14.7200    1.1280 N   0  0  0  0  0  0  0  0  0  0  0  0
   -2.7440   14.6840    0.6230 C   0  0  0  0  0  0  0  0  0  0  0  0
   -3.1680   14.7710   -0.8330 C   0  0  0  0  0  0  0  0  0  0  0  0
   -3.8650   14.5520    1.3720 N   0  0  0  0  0  0  0  0  0  0  0  0
   -4.5250   15.1760   -0.6430 N   0  0  0  0  0  0  0  0  0  0  0  0
   -4.9590   14.8330    0.6120 C   0  0  0  0  0  0  0  0  0  0  0  0
   -6.1280   14.7920    0.9490 O   0  0  0  0  0  0  0  0  0  0  0  0
  1  2  1  0
  2  3  1  0
  1  4  1  0
  4  5  1  0
  4  6  1  0
  3  7  1  0
  5  8  1  0
  6  9  1  0
  7 10  1  0
  7 11  1  0
  7 12  1  0
  8 13  1  0
  9 13  1  0
 12 14  1  0
 14 15  1  0
 15 16  1  0
 16 17  2  3
 17 18  1  0
 17 19  1  0
 18 20  1  0
 19 21  1  0
 20 21  1  0
 21 22  2  0
M  END
