diamond-x0910_1_A-mac-x0527
     RDKit          3D

 16 17  0  0  0  0  0  0  0  0999 V2000
   -7.3960   14.4120    0.6330 N   0  0  0  0  0  0  0  0  0  0  0  0
   -6.2080   14.6970    0.0920 C   0  0  0  0  0  0  0  0  0  0  0  0
   -5.8680   14.5920   -1.1950 N   0  0  0  0  0  0  0  0  0  0  0  0
   -5.2220   15.1370    0.9030 N   0  0  0  0  0  0  0  0  0  0  0  0
   -4.5440   14.9910   -1.2170 N   0  0  0  0  0  0  0  0  0  0  0  0
   -4.2070   15.3200    0.0840 C   0  0  0  0  0  0  0  0  0  0  0  0
   -3.7460   15.0120   -2.4420 C   0  0  0  0  0  0  0  0  0  0  0  0
   -4.2440   15.3830   -3.4910 O   0  0  0  0  0  0  0  0  0  0  0  0
   -2.4130   14.5600   -2.3630 N   0  0  0  0  0  0  0  0  0  0  0  0
   -1.4900   14.7140   -3.5050 C   0  0  0  0  0  0  0  0  0  0  0  0
   -1.2460   13.4170   -4.2810 C   0  0  0  0  0  0  0  0  0  0  0  0
   -2.0590   12.2920   -4.0780 C   0  0  0  0  0  0  0  0  0  0  0  0
   -0.1970   13.3190   -5.2240 C   0  0  0  0  0  0  0  0  0  0  0  0
   -1.8380   11.1040   -4.7880 C   0  0  0  0  0  0  0  0  0  0  0  0
    0.0210   12.1280   -5.9340 C   0  0  0  0  0  0  0  0  0  0  0  0
   -0.7990   11.0230   -5.7150 C   0  0  0  0  0  0  0  0  0  0  0  0
  1  2  1  0
  2  3  2  0
  2  4  1  0
  3  5  1  0
  4  6  2  0
  5  6  1  0
  5  7  1  0
  7  8  2  0
  7  9  1  0
  9 10  1  0
 10 11  1  0
 11 12  2  0
 11 13  1  0
 12 14  1  0
 13 15  2  0
 14 16  2  0
 15 16  1  0
M  END
