diamond-x0253_0_A-diamond-x0967_0_A
     RDKit          3D

 27 29  0  0  0  0  0  0  0  0999 V2000
    0.4950   11.9100   -5.3430 N   0  0  0  0  0  0  0  0  0  0  0  0
    1.0920   11.6700   -6.5480 C   0  0  0  0  0  0  0  0  0  0  0  0
    2.1590   12.1860   -6.7760 O   0  0  0  0  0  0  0  0  0  0  0  0
    1.3650   12.5450   -4.3570 C   0  0  0  0  0  0  0  0  0  0  0  0
    0.7370   12.5000   -2.9850 C   0  0  0  0  0  0  0  0  0  0  0  0
    0.4410   10.7490   -7.5270 C   0  0  0  0  0  0  0  0  0  0  0  0
    0.7180   13.4750   -2.1640 N   0  0  0  0  0  0  0  0  0  0  0  0
    0.1540   11.3180   -2.6540 O   0  0  0  0  0  0  0  0  0  0  0  0
   -0.5470    9.8400   -7.1260 C   0  0  0  0  0  0  0  0  0  0  0  0
    0.8220   10.7810   -8.8760 C   0  0  0  0  0  0  0  0  0  0  0  0
    0.0710   13.4430   -0.8650 C   0  0  0  0  0  0  0  0  0  0  0  0
   -1.1420    8.9830   -8.0590 C   0  0  0  0  0  0  0  0  0  0  0  0
    0.2370    9.9350   -9.8070 C   0  0  0  0  0  0  0  0  0  0  0  0
   -2.1990    8.0140   -7.6200 C   0  0  0  0  0  0  0  0  0  0  0  0
   -0.5710   14.8070   -0.6710 C   0  0  0  0  0  0  0  0  0  0  0  0
   -0.7460    9.0360   -9.4010 C   0  0  0  0  0  0  0  0  0  0  0  0
   -1.5550   14.8690    0.4910 C   0  0  0  0  0  0  0  0  0  0  0  0
   -3.0100   14.8530    0.0920 C   0  0  0  0  0  0  0  0  0  0  0  0
   -3.4710   14.8550   -1.2270 C   0  0  0  0  0  0  0  0  0  0  0  0
   -3.9770   14.8270    1.0760 C   0  0  0  0  0  0  0  0  0  0  0  0
   -5.3350   14.7860    0.7430 C   0  0  0  0  0  0  0  0  0  0  0  0
   -4.7820   14.8200   -1.5760 N   0  0  0  0  0  0  0  0  0  0  0  0
   -5.7080   14.7800   -0.6110 C   0  0  0  0  0  0  0  0  0  0  0  0
   -6.3410   14.7460    1.7240 C   0  0  0  0  0  0  0  0  0  0  0  0
   -6.9990   14.7300   -0.9560 N   0  0  0  0  0  0  0  0  0  0  0  0
   -7.6680   14.6910    1.3550 C   0  0  0  0  0  0  0  0  0  0  0  0
   -7.9440   14.6860    0.0080 C   0  0  0  0  0  0  0  0  0  0  0  0
  1  2  1  0
  2  3  2  0
  1  4  1  0
  4  5  1  0
  2  6  1  0
  5  7  2  3
  5  8  1  0
  6  9  2  0
  6 10  1  0
  7 11  1  0
  9 12  1  0
 10 13  2  0
 12 14  1  0
 11 15  1  0
 12 16  2  0
 13 16  1  0
 15 17  1  0
 17 18  1  0
 18 19  2  0
 18 20  1  0
 20 21  2  0
 19 22  1  0
 21 23  1  0
 22 23  2  0
 21 24  1  0
 23 25  1  0
 24 26  2  0
 25 27  2  0
 26 27  1  0
M  END
