diamond-x0905_1_B-diamond-x0091_0_B
     RDKit          3D

 21 23  0  0  0  0  0  0  0  0999 V2000
   13.1090   20.7760   13.1380 N   0  0  0  0  0  0  0  0  0  0  0  0
   14.2620   21.2290   12.9070 C   0  0  0  0  0  0  0  0  0  0  0  0
   14.9840   20.5060   12.1020 N   0  0  0  0  0  0  0  0  0  0  0  0
   12.5230   21.4770   14.0960 C   0  0  0  0  0  0  0  0  0  0  0  0
   14.8780   22.3370   13.4540 N   0  0  0  0  0  0  0  0  0  0  0  0
   12.0420   20.7840   15.1330 N   0  0  0  0  0  0  0  0  0  0  0  0
   12.4980   22.8360   13.9550 C   0  0  0  0  0  0  0  0  0  0  0  0
   16.3330   20.4120   12.6040 C   0  0  0  0  0  0  0  0  0  0  0  0
   14.3730   19.1840   12.0940 C   0  0  0  0  0  0  0  0  0  0  0  0
   11.5060   21.5150   16.1080 C   0  0  0  0  0  0  0  0  0  0  0  0
   11.9390   23.5710   14.9720 C   0  0  0  0  0  0  0  0  0  0  0  0
   15.1240   23.4830   12.5530 C   0  0  0  0  0  0  0  0  0  0  0  0
   11.4350   22.9000   16.0770 C   0  0  0  0  0  0  0  0  0  0  0  0
   14.4540   18.3850   13.3750 C   0  0  0  0  0  0  0  0  0  0  0  0
   16.4530   23.6440   11.8650 C   0  0  0  0  0  0  0  0  0  0  0  0
   16.0520   24.5860   12.9600 C   0  0  0  0  0  0  0  0  0  0  0  0
   13.3730   17.8510   13.9860 N   0  0  0  0  0  0  0  0  0  0  0  0
   15.6280   18.0800   14.1030 C   0  0  0  0  0  0  0  0  0  0  0  0
   13.8540   17.1930   15.1160 O   0  0  0  0  0  0  0  0  0  0  0  0
   15.2020   17.3430   15.1670 C   0  0  0  0  0  0  0  0  0  0  0  0
   15.8990   16.7120   16.2980 C   0  0  0  0  0  0  0  0  0  0  0  0
  1  2  2  3
  2  3  1  0
  1  4  1  0
  2  5  1  0
  4  6  2  0
  4  7  1  0
  3  8  1  0
  3  9  1  0
  6 10  1  0
  7 11  2  0
  5 12  1  0
 10 13  2  0
 11 13  1  0
  9 14  1  0
 12 15  1  0
 12 16  1  0
 15 16  1  0
 14 17  2  0
 14 18  1  0
 17 19  1  0
 18 20  2  0
 19 20  1  0
 20 21  1  0
M  END
