diamond-x0628_0_A-mac-x0358
     RDKit          3D

 18 20  0  0  0  0  0  0  0  0999 V2000
   -0.7960    8.5890   -7.9720 C   0  0  0  0  0  0  0  0  0  0  0  0
   -0.7670    9.7160   -7.0360 C   0  0  0  0  0  0  0  0  0  0  0  0
   -1.8440   10.0420   -6.2720 N   0  0  0  0  0  0  0  0  0  0  0  0
    0.3090   10.4800   -6.8790 N   0  0  0  0  0  0  0  0  0  0  0  0
   -0.0960   11.3350   -5.9540 N   0  0  0  0  0  0  0  0  0  0  0  0
   -1.4280   11.0670   -5.5880 C   0  0  0  0  0  0  0  0  0  0  0  0
   -2.2610   11.7980   -4.6050 C   0  0  0  0  0  0  0  0  0  0  0  0
    0.8330   12.3540   -5.4820 C   0  0  0  0  0  0  0  0  0  0  0  0
    0.2210   12.8450   -4.2400 C   0  0  1  0  0  0  0  0  0  0  0  0
   -2.0980   13.2670   -4.7380 C   0  0  0  0  0  0  0  0  0  0  0  0
    0.8920   12.5760   -2.9040 C   0  0  0  0  0  0  0  0  0  0  0  0
   -0.8680   13.8260   -4.5470 C   0  0  0  0  0  0  0  0  0  0  0  0
   -3.2030   14.0470   -5.0700 C   0  0  0  0  0  0  0  0  0  0  0  0
    0.8440   11.5130   -2.3110 O   0  0  0  0  0  0  0  0  0  0  0  0
    1.5590   13.6050   -2.3690 O   0  0  0  0  0  0  0  0  0  0  0  0
   -3.0600   15.4190   -5.2050 C   0  0  0  0  0  0  0  0  0  0  0  0
   -0.7030   15.2130   -4.6750 C   0  0  0  0  0  0  0  0  0  0  0  0
   -1.8110   16.0080   -5.0060 C   0  0  0  0  0  0  0  0  0  0  0  0
  1  2  1  0
  2  3  1  0
  2  4  2  0
  4  5  1  0
  3  6  2  0
  5  6  1  0
  6  7  1  0
  5  8  1  0
  8  9  1  0
  7 10  1  0
  9 11  1  1
  9 12  1  0
 10 12  2  0
 10 13  1  0
 11 14  2  0
 11 15  1  0
 13 16  2  0
 12 17  1  0
 16 18  1  0
 17 18  2  0
M  END
