diamond-x0852_0_B-diamond-x0962_0_A
     RDKit          3D

 18 19  0  0  0  0  0  0  0  0999 V2000
   -9.5460   17.3600    7.1020 N   0  0  0  0  0  0  0  0  0  0  0  0
   -9.2620   16.9010    6.0700 C   0  0  0  0  0  0  0  0  0  0  0  0
   -9.0020   16.3650    4.7630 C   0  0  0  0  0  0  0  0  0  0  0  0
   -7.9720   15.4400    4.4850 C   0  0  0  0  0  0  0  0  0  0  0  0
   -9.8250   16.7910    3.7310 C   0  0  0  0  0  0  0  0  0  0  0  0
   -7.1360   14.9830    5.4690 O   0  0  0  0  0  0  0  0  0  0  0  0
   -7.7740   14.9530    3.1560 C   0  0  0  0  0  0  0  0  0  0  0  0
   -9.6450   16.3100    2.4350 C   0  0  0  0  0  0  0  0  0  0  0  0
  -10.7470   16.8670    1.0010 Br  0  0  0  0  0  0  0  0  0  0  0  0
   -6.6880   13.9660    2.7370 C   0  0  0  0  0  0  0  0  0  0  0  0
   -8.6350   15.4050    2.1550 C   0  0  0  0  0  0  0  0  0  0  0  0
   -5.5980   14.4560    1.8420 N   0  0  0  0  0  0  0  0  0  0  0  0
   -4.4820   15.1050    2.2850 C   0  0  0  0  0  0  0  0  0  0  0  0
   -5.4680   14.3470    0.4610 C   0  0  0  0  0  0  0  0  0  0  0  0
   -4.2420   14.9370    0.1590 C   0  0  0  0  0  0  0  0  0  0  0  0
   -3.6540   15.4030    1.3040 N   0  0  0  0  0  0  0  0  0  0  0  0
   -3.6000   15.0710   -1.1220 C   0  0  0  0  0  0  0  0  0  0  0  0
   -3.0330   15.1160   -2.1410 N   0  0  0  0  0  0  0  0  0  0  0  0
  1  2  3  0
  2  3  1  0
  3  4  2  0
  3  5  1  0
  4  6  1  0
  4  7  1  0
  5  8  2  0
  8  9  1  0
  7 10  1  0
  7 11  2  0
  8 11  1  0
 10 12  1  0
 12 13  1  0
 12 14  1  0
 14 15  2  0
 13 16  2  0
 15 16  1  0
 15 17  1  0
 17 18  3  0
M  END
