diamond-x0962_3_A-mac-x0437
     RDKit          3D

 16 17  0  0  0  0  0  0  0  0999 V2000
    1.2080   11.2690   -9.4750 N   0  0  0  0  0  0  0  0  0  0  0  0
    0.3970   10.6750   -8.9250 C   0  0  0  0  0  0  0  0  0  0  0  0
   -0.6270    9.8370   -8.2990 C   0  0  1  0  0  0  0  0  0  0  0  0
   -0.1640    8.4300   -8.2230 N   0  0  0  0  0  0  0  0  0  0  0  0
   -0.9660   10.2380   -6.8500 C   0  0  2  0  0  0  0  0  0  0  0  0
   -0.8850    7.8700   -7.1010 C   0  0  0  0  0  0  0  0  0  0  0  0
   -1.2330    8.9460   -6.2010 N   0  0  0  0  0  0  0  0  0  0  0  0
   -2.2200   10.9480   -6.5770 N   0  0  0  0  0  0  0  0  0  0  0  0
    0.1050   11.0730   -6.1150 C   0  0  0  0  0  0  0  0  0  0  0  0
   -0.5120   12.3890   -6.0940 N   0  0  0  0  0  0  0  0  0  0  0  0
   -1.8670   12.0710   -5.7040 C   0  0  0  0  0  0  0  0  0  0  0  0
    0.1940   13.4080   -5.3140 C   0  0  0  0  0  0  0  0  0  0  0  0
    1.4600   12.9870   -4.5560 C   0  0  0  0  0  0  0  0  0  0  0  0
    1.0810   12.3940   -3.2220 C   0  0  0  0  0  0  0  0  0  0  0  0
    1.1410   13.3050   -2.2340 O   0  0  0  0  0  0  0  0  0  0  0  0
    0.7460   11.2490   -2.9760 O   0  0  0  0  0  0  0  0  0  0  0  0
  1  2  3  0
  3  2  1  1
  3  4  1  0
  3  5  1  0
  4  6  1  0
  5  7  1  0
  6  7  1  0
  5  8  1  0
  5  9  1  1
  9 10  1  0
  8 11  1  0
 10 11  1  0
 10 12  1  0
 12 13  1  0
 13 14  1  0
 14 15  1  0
 14 16  2  0
M  END
