diamond-x0662_0_A-mac-x0380
     RDKit          3D

 34 37  0  0  0  0  0  0  0  0999 V2000
    5.3060    9.5280  -14.9960 C   0  0  0  0  0  0  0  0  0  0  0  0
    4.2580   10.0060  -14.1250 N   0  0  0  0  0  0  0  0  0  0  0  0
    3.5960   11.1960  -14.1940 C   0  0  0  0  0  0  0  0  0  0  0  0
    3.8580    9.2240  -13.1170 N   0  0  0  0  0  0  0  0  0  0  0  0
    2.7020   11.1800  -13.1470 C   0  0  0  0  0  0  0  0  0  0  0  0
    2.8960    9.9230  -12.4890 C   0  0  0  0  0  0  0  0  0  0  0  0
    2.2060    9.3780  -11.2890 C   0  0  0  0  0  0  0  0  0  0  0  0
    2.2970    8.1910  -10.9960 O   0  0  0  0  0  0  0  0  0  0  0  0
    1.5000   10.3310  -10.5610 N   0  0  0  0  0  0  0  0  0  0  0  0
    0.7220   10.1360   -9.3940 C   0  0  0  0  0  0  0  0  0  0  0  0
   -0.2370    9.1130   -9.4530 C   0  0  0  0  0  0  0  0  0  0  0  0
    0.8350   10.8760   -8.2090 C   0  0  0  0  0  0  0  0  0  0  0  0
   -1.0600    8.8390   -8.3590 C   0  0  0  0  0  0  0  0  0  0  0  0
    0.0110   10.6130   -7.1080 C   0  0  0  0  0  0  0  0  0  0  0  0
    0.1390   11.4250   -5.8420 C   0  0  0  0  0  0  0  0  0  0  0  0
   -0.9370    9.5870   -7.1890 C   0  0  0  0  0  0  0  0  0  0  0  0
   -0.7200   11.4450   -4.8820 N   0  0  0  0  0  0  0  0  0  0  0  0
    1.2170   12.0490   -5.9100 O   0  0  0  0  0  0  0  0  0  0  0  0
   -0.5620   12.2300   -3.6570 C   0  0  0  0  0  0  0  0  0  0  0  0
   -0.9770   13.6940   -3.8790 C   0  0  0  0  0  0  0  0  0  0  0  0
   -1.5220   14.3090   -2.6800 O   0  0  0  0  0  0  0  0  0  0  0  0
   -2.6850   14.9780   -2.8550 C   0  0  0  0  0  0  0  0  0  0  0  0
   -3.0520   15.5240   -3.8870 O   0  0  0  0  0  0  0  0  0  0  0  0
   -3.5270   14.9810   -1.6220 C   0  0  0  0  0  0  0  0  0  0  0  0
   -4.9200   15.0450   -1.7050 C   0  0  0  0  0  0  0  0  0  0  0  0
   -2.9130   14.9190   -0.3570 C   0  0  0  0  0  0  0  0  0  0  0  0
   -5.7010   15.0380   -0.5480 C   0  0  0  0  0  0  0  0  0  0  0  0
   -3.6950   14.9160    0.8060 C   0  0  0  0  0  0  0  0  0  0  0  0
   -5.0900   14.9710    0.7130 C   0  0  0  0  0  0  0  0  0  0  0  0
   -7.4670   15.1060   -0.7170 S   0  0  0  0  0  0  0  0  0  0  0  0
   -5.8470   14.9520    1.9040 N   0  0  0  0  0  0  0  0  0  0  0  0
   -7.8570   14.1090    0.7310 C   0  0  0  0  0  0  0  0  0  0  0  0
   -7.1830   14.6340    1.9730 C   0  0  0  0  0  0  0  0  0  0  0  0
   -7.8080   14.7830    3.0290 O   0  0  0  0  0  0  0  0  0  0  0  0
  1  2  1  0
  2  3  1  0
  2  4  1  0
  3  5  2  0
  4  6  2  0
  5  6  1  0
  6  7  1  0
  7  8  2  0
  7  9  1  0
  9 10  1  0
 10 11  2  0
 10 12  1  0
 11 13  1  0
 12 14  2  0
 14 15  1  0
 13 16  2  0
 14 16  1  0
 15 17  2  3
 15 18  1  0
 17 19  1  0
 19 20  1  0
 20 21  1  0
 21 22  1  0
 22 23  2  0
 22 24  1  0
 24 25  2  0
 24 26  1  0
 25 27  1  0
 26 28  2  0
 27 29  2  0
 28 29  1  0
 27 30  1  0
 29 31  1  0
 30 32  1  0
 31 33  1  0
 32 33  1  0
 33 34  2  0
M  CHG  1  18  -1
M  END
