diamond-x0849_0_A-diamond-x0926_0_A
     RDKit          3D

 12 13  0  0  0  0  0  0  0  0999 V2000
   -3.5940   14.4600   -2.7210 Br  0  0  0  0  0  0  0  0  0  0  0  0
   -3.4290   15.4970   -1.0870 C   0  0  2  0  0  0  0  0  0  0  0  0
   -2.1980   15.2580   -0.2340 C   0  0  1  0  0  0  0  0  0  0  0  0
   -4.6670   15.2970   -0.2430 C   0  0  0  0  0  0  0  0  0  0  0  0
   -5.7430   14.8630   -0.6900 O   0  0  0  0  0  0  0  0  0  0  0  0
   -2.4850   14.3800    1.0020 C   0  0  2  0  0  0  0  0  0  0  0  0
   -4.4980   15.6930    1.2140 C   0  0  0  0  0  0  0  0  0  0  0  0
   -0.9160   14.8210   -0.9650 C   0  0  0  0  0  0  0  0  0  0  0  0
   -3.4090   15.0270    1.8760 N   0  0  0  0  0  0  0  0  0  0  0  0
   -1.2610   14.1430    1.6990 N   0  0  0  0  0  0  0  0  0  0  0  0
    0.1970   14.9010    0.0200 C   0  0  0  0  0  0  0  0  0  0  0  0
   -0.0620   14.5700    1.2800 C   0  0  0  0  0  0  0  0  0  0  0  0
  2  1  1  6
  2  3  1  0
  2  4  1  0
  4  5  2  0
  3  6  1  0
  4  7  1  0
  3  8  1  6
  6  9  1  1
  7  9  1  0
  6 10  1  0
  8 11  1  0
 10 12  1  0
 11 12  2  0
M  END
