diamond-x0849_0_A-diamond-x0587_0_A
     RDKit          3D

 23 25  0  0  0  0  0  0  0  0999 V2000
   -3.7220   15.2820   -1.8630 O   0  0  0  0  0  0  0  0  0  0  0  0
   -4.8250   14.4280   -2.2050 C   0  0  0  0  0  0  0  0  0  0  0  0
   -5.3060   14.8620   -3.3840 F   0  0  0  0  0  0  0  0  0  0  0  0
   -3.5290   15.2700   -0.5270 C   0  0  0  0  0  0  0  0  0  0  0  0
   -4.3570   13.1640   -2.4250 F   0  0  0  0  0  0  0  0  0  0  0  0
   -2.3220   14.7380   -0.0450 C   0  0  0  0  0  0  0  0  0  0  0  0
   -4.4630   15.7340    0.3670 C   0  0  0  0  0  0  0  0  0  0  0  0
   -5.8380   14.4880   -1.0280 C   0  0  0  0  0  0  0  0  0  0  0  0
   -2.1560   14.6940    1.3370 C   0  0  0  0  0  0  0  0  0  0  0  0
   -4.1780   15.6350    1.7030 C   0  0  0  0  0  0  0  0  0  0  0  0
   -1.2750   14.2470   -0.8460 C   0  0  0  0  0  0  0  0  0  0  0  0
   -7.0700   15.0390   -1.2040 N   0  0  0  0  0  0  0  0  0  0  0  0
   -5.4450   13.9890    0.1680 N   0  0  0  0  0  0  0  0  0  0  0  0
   -3.0420   15.1150    2.1710 N   0  0  0  0  0  0  0  0  0  0  0  0
   -1.1010   14.2230    1.9010 N   0  0  0  0  0  0  0  0  0  0  0  0
   -0.1470   13.7390   -0.2310 C   0  0  0  0  0  0  0  0  0  0  0  0
   -7.8970   15.0980   -0.1200 C   0  0  0  0  0  0  0  0  0  0  0  0
   -6.3080   14.0770    1.2010 C   0  0  0  0  0  0  0  0  0  0  0  0
   -0.1380   13.7540    1.1440 C   0  0  0  0  0  0  0  0  0  0  0  0
   -7.5570   14.6330    1.1290 C   0  0  0  0  0  0  0  0  0  0  0  0
   -8.3890   14.6900    2.3440 C   0  0  0  0  0  0  0  0  0  0  0  0
   -7.7450   14.6680    3.5540 N   0  0  0  0  0  0  0  0  0  0  0  0
   -9.6120   14.7730    2.2820 O   0  0  0  0  0  0  0  0  0  0  0  0
  1  2  1  0
  2  3  1  0
  1  4  1  0
  2  5  1  0
  4  6  1  0
  4  7  2  0
  2  8  1  0
  6  9  2  0
  7 10  1  0
  6 11  1  0
  8 12  2  0
  8 13  1  0
  9 14  1  0
 10 14  2  0
  9 15  1  0
 11 16  2  0
 12 17  1  0
 13 18  2  0
 15 19  2  0
 16 19  1  0
 17 20  2  0
 18 20  1  0
 20 21  1  0
 21 22  1  0
 21 23  2  0
M  END
