diamond-x0591_0_A-diamond-x0950_0_A
     RDKit          3D

 21 21  0  0  0  0  0  0  0  0999 V2000
   -5.8720   14.5970    0.8820 N   0  0  0  0  0  0  0  0  0  0  0  0
   -6.7670   14.5050    2.0120 C   0  0  0  0  0  0  0  0  0  0  0  0
   -6.2300   14.7900   -0.4240 C   0  0  0  0  0  0  0  0  0  0  0  0
   -7.4040   14.9970   -0.7110 O   0  0  0  0  0  0  0  0  0  0  0  0
   -5.2160   14.7350   -1.5000 C   0  0  0  0  0  0  0  0  0  0  0  0
   -3.8560   14.5210   -1.2420 C   0  0  0  0  0  0  0  0  0  0  0  0
   -5.6560   14.9030   -2.8110 C   0  0  0  0  0  0  0  0  0  0  0  0
   -2.9390   14.4790   -2.3030 C   0  0  0  0  0  0  0  0  0  0  0  0
   -4.7460   14.8560   -3.8660 C   0  0  0  0  0  0  0  0  0  0  0  0
   -3.3960   14.6480   -3.6130 C   0  0  0  0  0  0  0  0  0  0  0  0
   -2.2890   14.6080   -4.9930 S   0  0  1  0  0  0  0  0  0  0  0  0
   -1.1130   15.7720   -4.7600 N   0  0  0  0  0  0  0  0  0  0  0  0
   -1.4450   13.3210   -4.9310 N   0  0  0  0  0  0  0  0  0  0  0  0
   -2.9970   15.1120   -6.1440 O   0  0  0  0  0  0  0  0  0  0  0  0
   -0.2000   13.2860   -5.7300 C   0  0  0  0  0  0  0  0  0  0  0  0
    0.8080   12.4470   -5.1760 O   0  0  0  0  0  0  0  0  0  0  0  0
    1.2540   12.8740   -3.8910 C   0  0  2  0  0  0  0  0  0  0  0  0
    2.7800   12.9290   -3.9340 C   0  0  0  0  0  0  0  0  0  0  0  0
    0.7690   11.9540   -2.7430 C   0  0  0  0  0  0  0  0  0  0  0  0
    0.4340   10.7900   -2.9080 O   0  0  0  0  0  0  0  0  0  0  0  0
    0.7260   12.5250   -1.5080 O   0  0  0  0  0  0  0  0  0  0  0  0
  1  2  1  0
  1  3  1  0
  3  4  2  0
  3  5  1  0
  5  6  2  0
  5  7  1  0
  6  8  1  0
  7  9  2  0
  8 10  2  0
  9 10  1  0
 10 11  1  0
 11 12  1  1
 11 13  2  0
 11 14  2  0
 13 15  1  0
 15 16  1  0
 16 17  1  0
 17 18  1  6
 17 19  1  0
 19 20  2  0
 19 21  1  0
M  END
