diamond-x0421_0_A-mac-x0271
     RDKit          3D

 12 13  0  0  0  0  0  0  0  0999 V2000
   -3.8500   15.1470   -2.8560 N   0  0  0  0  0  0  0  0  0  0  0  0
   -2.9850   14.9290   -1.8240 C   0  0  0  0  0  0  0  0  0  0  0  0
   -1.7820   14.7680   -2.0170 O   0  0  0  0  0  0  0  0  0  0  0  0
   -3.6140   14.9050   -0.5060 C   0  0  0  0  0  0  0  0  0  0  0  0
   -2.9680   15.0500    0.7050 C   0  0  0  0  0  0  0  0  0  0  0  0
   -4.9870   14.7220   -0.2980 N   0  0  0  0  0  0  0  0  0  0  0  0
   -3.9430   14.9520    1.6500 N   0  0  0  0  0  0  0  0  0  0  0  0
   -5.1370   14.7530    1.0120 C   0  0  0  0  0  0  0  0  0  0  0  0
   -6.4800   14.5850    1.7800 C   0  0  1  0  0  0  0  0  0  0  0  0
   -7.7810   14.8020    1.0820 C   0  0  0  0  0  0  0  0  0  0  0  0
   -7.3150   13.4540    1.4890 C   0  0  0  0  0  0  0  0  0  0  0  0
   -8.8700   14.5990    0.5560 O   0  0  0  0  0  0  0  0  0  0  0  0
  1  2  1  0
  2  3  2  0
  2  4  1  0
  4  5  2  0
  4  6  1  0
  5  7  1  0
  6  8  2  0
  7  8  1  0
  9  8  1  6
  9 10  1  0
  9 11  1  0
 10 11  1  0
 10 12  2  0
M  END
