diamond-x0626_0_A-mac-x0365
     RDKit          3D

 20 21  0  0  0  0  0  0  0  0999 V2000
   -5.0180   14.6230    1.7410 N   0  0  0  0  0  0  0  0  0  0  0  0
   -6.0270   14.2970    0.7400 C   0  0  1  0  0  0  0  0  0  0  0  0
   -7.4940   14.6840    1.0390 C   0  0  0  0  0  0  0  0  0  0  0  0
   -3.7530   14.3410    1.2830 C   0  0  0  0  0  0  0  0  0  0  0  0
   -2.5780   14.7890    1.7300 N   0  0  0  0  0  0  0  0  0  0  0  0
   -3.6200   13.2660   -0.0720 S   0  0  0  0  0  0  0  0  0  0  0  0
   -5.2990   14.6080   -0.5500 C   0  0  0  0  0  0  0  0  0  0  0  0
   -8.3120   15.3020   -0.0870 C   0  0  0  0  0  0  0  0  0  0  0  0
   -1.9270   13.4560   -0.0720 C   0  0  0  0  0  0  0  0  0  0  0  0
   -1.5470   14.2850    0.9470 C   0  0  0  0  0  0  0  0  0  0  0  0
   -5.7110   14.6030   -1.8890 C   0  0  0  0  0  0  0  0  0  0  0  0
   -3.9670   14.9180   -0.2890 C   0  0  0  0  0  0  0  0  0  0  0  0
   -0.1550   14.6460    1.2270 C   0  0  0  0  0  0  0  0  0  0  0  0
   -6.9780   14.3360   -2.2350 F   0  0  0  0  0  0  0  0  0  0  0  0
   -4.7830   14.8620   -2.9150 C   0  0  0  0  0  0  0  0  0  0  0  0
   -3.0590   15.1650   -1.2820 C   0  0  0  0  0  0  0  0  0  0  0  0
   -3.4410   15.1290   -2.5930 C   0  0  0  0  0  0  0  0  0  0  0  0
   -2.4190   15.3630   -3.6350 C   0  0  0  0  0  0  0  0  0  0  0  0
   -1.1650   15.2840   -3.1420 O   0  0  0  0  0  0  0  0  0  0  0  0
   -2.6160   15.5860   -4.8050 O   0  0  0  0  0  0  0  0  0  0  0  0
  1  2  1  0
  2  3  1  1
  1  4  1  0
  4  5  2  0
  4  6  1  0
  2  7  1  0
  3  8  1  0
  6  9  1  0
  5 10  1  0
  9 10  2  0
  7 11  2  0
  7 12  1  0
 10 13  1  0
 11 14  1  0
 11 15  1  0
 12 16  2  0
 15 17  2  0
 16 17  1  0
 17 18  1  0
 18 19  1  0
 18 20  2  0
M  END
