diamond-x0128_0_A-mac-x0277
     RDKit          3D

 31 33  0  0  0  0  0  0  0  0999 V2000
   -6.5290   14.8460    2.6280 N   0  0  0  0  0  0  0  0  0  0  0  0
   -7.7600   15.2120    3.0760 C   0  0  0  0  0  0  0  0  0  0  0  0
   -8.7450   15.5180    2.4030 O   0  0  0  0  0  0  0  0  0  0  0  0
   -6.0190   14.8000    1.3300 C   0  0  0  0  0  0  0  0  0  0  0  0
   -7.8330   15.2200    4.4350 N   0  0  0  0  0  0  0  0  0  0  0  0
   -6.9190   14.4850    0.3220 C   0  0  0  0  0  0  0  0  0  0  0  0
   -4.6810   15.0510    1.0140 C   0  0  0  0  0  0  0  0  0  0  0  0
   -6.4950   14.4090   -0.9920 C   0  0  0  0  0  0  0  0  0  0  0  0
   -4.2510   14.9740   -0.3150 C   0  0  0  0  0  0  0  0  0  0  0  0
   -8.5540   16.0180    5.3440 C   0  0  0  0  0  0  0  0  0  0  0  0
   -5.1660   14.6430   -1.3280 C   0  0  0  0  0  0  0  0  0  0  0  0
   -9.1760   17.1810    4.8870 C   0  0  0  0  0  0  0  0  0  0  0  0
   -8.7000   15.7260    6.7010 C   0  0  0  0  0  0  0  0  0  0  0  0
   -4.8180   14.5050   -2.7770 C   0  0  0  0  0  0  0  0  0  0  0  0
   -9.9010   18.0260    5.6550 N   0  0  0  0  0  0  0  0  0  0  0  0
   -9.4440   16.5820    7.5190 C   0  0  0  0  0  0  0  0  0  0  0  0
   -3.4070   14.8590   -3.2180 C   0  0  0  0  0  0  0  0  0  0  0  0
  -10.0180   17.7060    6.9580 C   0  0  0  0  0  0  0  0  0  0  0  0
   -3.5210   15.6530   -4.5030 C   0  0  0  0  0  0  0  0  0  0  0  0
   -2.5330   15.3600   -5.5800 C   0  0  0  0  0  0  0  0  0  0  0  0
   -1.1290   15.4960   -5.0850 C   0  0  0  0  0  0  0  0  0  0  0  0
   -0.4690   14.3180   -4.7320 C   0  0  0  0  0  0  0  0  0  0  0  0
   -0.4640   16.7240   -4.9610 C   0  0  0  0  0  0  0  0  0  0  0  0
   -1.2190   18.2260   -5.3740 Cl  0  0  0  0  0  0  0  0  0  0  0  0
    0.8390   14.3360   -4.2570 C   0  0  0  0  0  0  0  0  0  0  0  0
    0.8470   16.7550   -4.4900 C   0  0  0  0  0  0  0  0  0  0  0  0
    1.5160   13.0390   -3.8750 C   0  0  0  0  0  0  0  0  0  0  0  0
    1.4980   15.5670   -4.1390 C   0  0  0  0  0  0  0  0  0  0  0  0
    0.8460   12.3390   -2.7030 C   0  0  0  0  0  0  0  0  0  0  0  0
    0.2220   11.2030   -3.0920 O   0  0  0  0  0  0  0  0  0  0  0  0
    0.8030   12.6780   -1.5220 O   0  0  0  0  0  0  0  0  0  0  0  0
  1  2  1  0
  2  3  2  0
  1  4  1  0
  2  5  1  0
  4  6  2  0
  4  7  1  0
  6  8  1  0
  7  9  2  0
  5 10  1  0
  8 11  2  0
  9 11  1  0
 10 12  2  0
 10 13  1  0
 11 14  1  0
 12 15  1  0
 13 16  2  0
 14 17  1  0
 15 18  2  0
 16 18  1  0
 17 19  1  0
 19 20  1  0
 20 21  1  0
 21 22  2  0
 21 23  1  0
 23 24  1  0
 22 25  1  0
 23 26  2  0
 25 27  1  0
 25 28  2  0
 26 28  1  0
 27 29  1  0
 29 30  1  0
 29 31  2  0
M  END
