diamond-x0574_0_A-diamond-x1015_0_A
     RDKit          3D

 28 31  0  0  0  0  0  0  0  0999 V2000
    0.0350   13.8560    1.5140 N   0  0  0  0  0  0  0  0  0  0  0  0
   -1.0920   14.4330    1.0240 C   0  0  0  0  0  0  0  0  0  0  0  0
   -1.9630   14.8000    1.8670 N   0  0  0  0  0  0  0  0  0  0  0  0
   -1.2940   14.5400   -0.8300 S   0  0  0  0  0  0  0  0  0  0  0  0
    0.3850   14.2180   -0.2850 C   0  0  0  0  0  0  0  0  0  0  0  0
   -3.0700   15.3580    1.1690 C   0  0  1  0  0  0  0  0  0  0  0  0
   -2.8800   15.0480   -0.2360 C   0  0  0  0  0  0  0  0  0  0  0  0
    0.9360   14.4770   -1.6070 N   0  0  0  0  0  0  0  0  0  0  0  0
   -4.4270   15.0320    1.6040 C   0  0  0  0  0  0  0  0  0  0  0  0
   -3.9650   15.2460   -1.1890 C   0  0  0  0  0  0  0  0  0  0  0  0
   -5.4390   14.9480    0.7300 C   0  0  0  0  0  0  0  0  0  0  0  0
   -5.1910   15.1860   -0.6720 C   0  0  0  0  0  0  0  0  0  0  0  0
    0.4830   13.6540   -2.4640 C   0  0  0  0  0  0  0  0  0  0  0  0
   -6.7500   14.6670    1.0050 O   0  0  0  0  0  0  0  0  0  0  0  0
    0.5710   13.4660   -3.9710 C   0  0  2  0  0  0  0  0  0  0  0  0
   -0.2830   12.6530   -2.0000 N   0  0  0  0  0  0  0  0  0  0  0  0
   -7.1050   14.5850    2.3790 C   0  0  0  0  0  0  0  0  0  0  0  0
   -0.5280   14.3150   -4.6260 C   0  0  0  0  0  0  0  0  0  0  0  0
    0.2420   12.0330   -4.0070 N   0  0  0  0  0  0  0  0  0  0  0  0
    0.1040   11.5710   -2.6970 C   0  0  0  0  0  0  0  0  0  0  0  0
    0.2840   10.4510   -2.2240 O   0  0  0  0  0  0  0  0  0  0  0  0
   -0.2670   11.3430   -5.1290 C   0  0  0  0  0  0  0  0  0  0  0  0
    0.1990   11.5730   -6.4250 C   0  0  0  0  0  0  0  0  0  0  0  0
   -1.2770   10.3790   -4.9530 C   0  0  0  0  0  0  0  0  0  0  0  0
   -0.3170   10.8630   -7.5130 C   0  0  0  0  0  0  0  0  0  0  0  0
   -1.7970    9.6670   -6.0350 C   0  0  0  0  0  0  0  0  0  0  0  0
   -1.3130    9.9110   -7.3120 C   0  0  0  0  0  0  0  0  0  0  0  0
   -1.9480    9.0300   -8.6440 Cl  0  0  0  0  0  0  0  0  0  0  0  0
  1  2  1  0
  2  3  2  0
  2  4  1  0
  4  5  1  0
  3  6  1  0
  4  7  2  0
  6  7  1  0
  5  8  1  0
  6  9  1  1
  7 10  1  0
  9 11  2  0
 10 12  2  0
 11 12  1  0
  8 13  2  3
 11 14  1  0
 13 15  1  0
 13 16  1  0
 14 17  1  0
 15 18  1  6
 15 19  1  0
 16 20  1  0
 19 20  1  0
 20 21  2  0
 19 22  1  0
 22 23  2  0
 22 24  1  0
 23 25  1  0
 24 26  2  0
 25 27  2  0
 26 27  1  0
 27 28  1  0
M  END
