diamond-x0471_0_A-mac-x0337
     RDKit          3D

 27 29  0  0  0  0  0  0  0  0999 V2000
   -9.2740   13.9760    2.7730 N   0  0  0  0  0  0  0  0  0  0  0  0
   -9.1210   14.9610    3.7260 C   0  0  0  0  0  0  0  0  0  0  0  0
   -9.2840   16.1530    3.4810 O   0  0  0  0  0  0  0  0  0  0  0  0
   -9.1680   14.2680    1.3650 C   0  0  0  0  0  0  0  0  0  0  0  0
   -8.7450   14.4200    5.1050 C   0  0  0  0  0  0  0  0  0  0  0  0
   -7.7490   14.5830    1.1210 C   0  0  0  0  0  0  0  0  0  0  0  0
   -9.9200   13.6370    5.6950 C   0  0  0  0  0  0  0  0  0  0  0  0
   -8.3190   15.5470    6.0450 C   0  0  0  0  0  0  0  0  0  0  0  0
   -7.2360   14.7950   -0.1270 N   0  0  0  0  0  0  0  0  0  0  0  0
   -6.8280   14.6990    2.0510 N   0  0  0  0  0  0  0  0  0  0  0  0
   -5.6680   14.9950    1.3920 C   0  0  0  0  0  0  0  0  0  0  0  0
   -5.9040   15.0600    0.0360 C   0  0  0  0  0  0  0  0  0  0  0  0
   -4.8730   15.3430   -0.7940 C   0  0  0  0  0  0  0  0  0  0  0  0
   -4.3700   15.2250    1.8880 C   0  0  0  0  0  0  0  0  0  0  0  0
   -4.8700   15.4300   -2.1130 N   0  0  0  0  0  0  0  0  0  0  0  0
   -3.6260   15.5540   -0.3060 C   0  0  0  0  0  0  0  0  0  0  0  0
   -3.3480   15.5020    1.0110 C   0  0  0  0  0  0  0  0  0  0  0  0
   -3.4680   14.5500   -2.3030 S   0  0  0  0  0  0  0  0  0  0  0  0
   -3.0220   14.8240   -3.6350 O   0  0  0  0  0  0  0  0  0  0  0  0
   -2.5880   14.7130   -1.1530 O   0  0  0  0  0  0  0  0  0  0  0  0
   -4.1890   12.9370   -2.1700 C   0  0  0  0  0  0  0  0  0  0  0  0
   -3.5580   11.8810   -2.8050 C   0  0  0  0  0  0  0  0  0  0  0  0
   -5.3770   12.7360   -1.4470 C   0  0  0  0  0  0  0  0  0  0  0  0
   -4.1180   10.6150   -2.7400 C   0  0  0  0  0  0  0  0  0  0  0  0
   -5.9330   11.4630   -1.3850 C   0  0  0  0  0  0  0  0  0  0  0  0
   -5.3100   10.3950   -2.0400 C   0  0  0  0  0  0  0  0  0  0  0  0
   -5.9120    9.0220   -1.9980 C   0  0  0  0  0  0  0  0  0  0  0  0
  1  2  1  0
  2  3  2  0
  1  4  1  0
  2  5  1  0
  4  6  1  0
  5  7  1  0
  5  8  1  0
  6  9  1  0
  6 10  2  0
 10 11  1  0
  9 12  1  0
 11 12  2  0
 12 13  1  0
 11 14  1  0
 13 15  1  0
 13 16  2  0
 14 17  2  0
 16 17  1  0
 18 15  1  0
 18 19  2  0
 18 20  2  0
 18 21  1  0
 21 22  2  0
 21 23  1  0
 22 24  1  0
 23 25  2  0
 24 26  2  0
 25 26  1  0
 26 27  1  0
M  END
