diamond-x0910_1_A-mac-x0568
     RDKit          3D

  9  9  0  0  0  0  0  0  0  0999 V2000
   -7.4550   14.2450    1.6170 N   0  0  0  0  0  0  0  0  0  0  0  0
   -6.6000   14.6220    0.6570 C   0  0  0  0  0  0  0  0  0  0  0  0
   -7.0080   15.1910   -0.5110 N   0  0  0  0  0  0  0  0  0  0  0  0
   -5.2950   14.5240    0.6570 N   0  0  0  0  0  0  0  0  0  0  0  0
   -5.9740   15.4800   -1.3050 N   0  0  0  0  0  0  0  0  0  0  0  0
   -4.9340   15.0550   -0.5790 C   0  0  0  0  0  0  0  0  0  0  0  0
   -3.5460   15.1300   -1.0730 C   0  0  0  0  0  0  0  0  0  0  0  0
   -3.2520   15.3300   -2.2510 O   0  0  0  0  0  0  0  0  0  0  0  0
   -2.5690   14.9380   -0.1280 N   0  0  0  0  0  0  0  0  0  0  0  0
  1  2  1  0
  2  3  1  0
  2  4  2  0
  3  5  1  0
  4  6  1  0
  5  6  2  0
  6  7  1  0
  7  8  2  0
  7  9  1  0
M  END
