diamond-x0438_0_A-diamond-x0711_0_A
     RDKit          3D

 22 23  0  0  0  0  0  0  0  0999 V2000
   -8.3140   15.9410    4.1960 C   0  0  0  0  0  0  0  0  0  0  0  0
   -9.2640   15.3420    2.8140 S   0  0  0  0  0  0  0  0  0  0  0  0
  -10.5550   14.8900    3.3080 O   0  0  0  0  0  0  0  0  0  0  0  0
   -8.3710   13.8850    2.2960 C   0  0  0  0  0  0  0  0  0  0  0  0
   -9.2380   16.3240    1.7500 O   0  0  0  0  0  0  0  0  0  0  0  0
   -7.0470   14.1570    1.6700 C   0  0  0  0  0  0  0  0  0  0  0  0
   -6.9220   14.4520    0.3630 N   0  0  0  0  0  0  0  0  0  0  0  0
   -5.8450   14.1420    2.2320 N   0  0  0  0  0  0  0  0  0  0  0  0
   -4.9240   14.4180    1.2410 C   0  0  0  0  0  0  0  0  0  0  0  0
   -5.5930   14.6090    0.0940 C   0  0  0  0  0  0  0  0  0  0  0  0
   -5.0320   14.8920   -1.0830 C   0  0  0  0  0  0  0  0  0  0  0  0
   -3.5190   14.5250    1.2060 C   0  0  0  0  0  0  0  0  0  0  0  0
   -6.1730   15.0140   -1.9310 C   0  0  0  0  0  0  0  0  0  0  0  0
   -3.5980   14.9920   -1.2220 C   0  0  0  0  0  0  0  0  0  0  0  0
   -2.8690   14.8060   -0.0290 C   0  0  0  0  0  0  0  0  0  0  0  0
   -2.8450   15.2590   -2.4630 N   0  0  0  0  0  0  0  0  0  0  0  0
   -7.2690   15.4570   -1.2270 N   0  0  0  0  0  0  0  0  0  0  0  0
   -6.2090   14.7300   -3.0840 O   0  0  0  0  0  0  0  0  0  0  0  0
   -1.3560   14.4040   -2.8020 S   0  0  0  0  0  0  0  0  0  0  0  0
   -1.9110   13.1090   -3.8910 C   0  0  0  0  0  0  0  0  0  0  0  0
   -0.5210   15.2610   -3.6250 O   0  0  0  0  0  0  0  0  0  0  0  0
   -0.7930   13.7780   -1.6230 O   0  0  0  0  0  0  0  0  0  0  0  0
  2  1  1  0
  2  3  2  0
  2  4  1  0
  2  5  2  0
  4  6  1  0
  6  7  1  0
  6  8  2  0
  8  9  1  0
  7 10  1  0
  9 10  2  0
 10 11  1  0
  9 12  1  0
 11 13  1  0
 11 14  2  0
 12 15  2  0
 14 15  1  0
 14 16  1  0
 13 17  1  0
 13 18  2  0
 19 16  1  0
 19 20  1  0
 19 21  2  0
 19 22  2  0
M  END
