diamond-x0722_0_A-mac-x0347
     RDKit          3D

 26 28  0  0  0  0  0  0  0  0999 V2000
   -4.3240   15.9280    2.0910 C   0  0  0  0  0  0  0  0  0  0  0  0
   -3.3540   15.3260    1.1980 C   0  0  0  0  0  0  0  0  0  0  0  0
   -2.1740   14.9050    1.6510 N   0  0  0  0  0  0  0  0  0  0  0  0
   -3.5130   15.1240   -0.1650 C   0  0  0  0  0  0  0  0  0  0  0  0
   -4.6910   15.4780   -1.0400 C   0  0  0  0  0  0  0  0  0  0  0  0
   -2.3260   14.5110   -0.5460 C   0  0  0  0  0  0  0  0  0  0  0  0
   -1.5480   14.4190    0.5830 N   0  0  0  0  0  0  0  0  0  0  0  0
   -0.2250   13.8960    0.7760 C   0  0  0  0  0  0  0  0  0  0  0  0
   -6.0630   15.0720   -0.5300 C   0  0  0  0  0  0  0  0  0  0  0  0
   -2.1080   14.0930   -1.9080 C   0  0  0  0  0  0  0  0  0  0  0  0
   -6.3450   14.8730    0.6440 O   0  0  0  0  0  0  0  0  0  0  0  0
   -7.0360   14.9370   -1.4760 N   0  0  0  0  0  0  0  0  0  0  0  0
   -1.0280   14.3350   -2.7780 C   0  0  0  0  0  0  0  0  0  0  0  0
   -3.2020   13.3410   -2.3320 C   0  0  0  0  0  0  0  0  0  0  0  0
    0.1980   15.0710   -2.4550 C   0  0  0  0  0  0  0  0  0  0  0  0
   -3.1860   12.8840   -3.6460 C   0  0  0  0  0  0  0  0  0  0  0  0
   -1.1120   13.8330   -4.0660 C   0  0  0  0  0  0  0  0  0  0  0  0
   -4.3060   13.0660   -1.3660 C   0  0  0  0  0  0  0  0  0  0  0  0
    0.7960   15.6440   -3.5090 O   0  0  0  0  0  0  0  0  0  0  0  0
    0.6200   15.1140   -1.3180 O   0  0  0  0  0  0  0  0  0  0  0  0
   -2.1750   13.1170   -4.5230 N   0  0  0  0  0  0  0  0  0  0  0  0
   -4.0110   13.0180    0.0190 C   0  0  0  0  0  0  0  0  0  0  0  0
   -5.6400   12.8480   -1.7370 C   0  0  0  0  0  0  0  0  0  0  0  0
   -4.9870   12.7740    0.9840 C   0  0  0  0  0  0  0  0  0  0  0  0
   -6.6240   12.5980   -0.7650 C   0  0  0  0  0  0  0  0  0  0  0  0
   -6.2950   12.5640    0.5930 C   0  0  0  0  0  0  0  0  0  0  0  0
  1  2  1  0
  2  3  2  0
  2  4  1  0
  4  5  1  0
  4  6  2  0
  3  7  1  0
  6  7  1  0
  7  8  1  0
  5  9  1  0
  6 10  1  0
  9 11  2  0
  9 12  1  0
 10 13  2  0
 10 14  1  0
 13 15  1  0
 14 16  2  0
 13 17  1  0
 14 18  1  0
 15 19  1  0
 15 20  2  0
 16 21  1  0
 17 21  2  0
 18 22  2  0
 18 23  1  0
 22 24  1  0
 23 25  2  0
 24 26  2  0
 25 26  1  0
M  END
