diamond-x0910_1_A-mac-x0305
     RDKit          3D

 15 16  0  0  0  0  0  0  0  0999 V2000
   -7.4980   13.4570    0.7670 N   0  0  0  0  0  0  0  0  0  0  0  0
   -6.6080   14.5670    0.7790 C   0  0  2  0  0  0  0  0  0  0  0  0
   -6.6640   15.2170   -0.5060 N   0  0  0  0  0  0  0  0  0  0  0  0
   -5.2710   14.0620    0.8510 N   0  0  0  0  0  0  0  0  0  0  0  0
   -5.3640   15.8560   -0.6270 N   0  0  0  0  0  0  0  0  0  0  0  0
   -4.4120   14.9510    0.0310 C   0  0  1  0  0  0  0  0  0  0  0  0
   -3.3230   15.6500    0.9060 C   0  0  0  0  0  0  0  0  0  0  0  0
   -3.7410   14.1400   -1.1200 C   0  0  0  0  0  0  0  0  0  0  0  0
   -1.8330   15.3300    0.5820 C   0  0  1  0  0  0  0  0  0  0  0  0
   -2.6190   14.7970   -1.8300 N   0  0  0  0  0  0  0  0  0  0  0  0
   -1.3180   14.3720    1.5110 O   0  0  0  0  0  0  0  0  0  0  0  0
   -1.4780   15.1340   -0.9280 C   0  0  2  0  0  0  0  0  0  0  0  0
   -0.3050   14.1580   -1.2530 C   0  0  0  0  0  0  0  0  0  0  0  0
    0.0990   13.3210   -0.2480 O   0  0  0  0  0  0  0  0  0  0  0  0
    0.2240   14.1380   -2.3590 O   0  0  0  0  0  0  0  0  0  0  0  0
  2  1  1  6
  2  3  1  0
  2  4  1  0
  3  5  1  0
  6  4  1  0
  5  6  1  0
  6  7  1  1
  6  8  1  0
  7  9  1  0
  8 10  1  0
  9 11  1  1
  9 12  1  0
 10 12  1  0
 12 13  1  1
 13 14  1  0
 13 15  2  0
M  END
