diamond-x0438_0_A-mac-x0398
     RDKit          3D

 19 20  0  0  0  0  0  0  0  0999 V2000
   -8.2560   15.5540    3.8430 C   0  0  0  0  0  0  0  0  0  0  0  0
   -9.5320   15.4120    2.6050 S   0  0  0  0  0  0  0  0  0  0  0  0
  -10.7330   14.9460    3.2700 O   0  0  0  0  0  0  0  0  0  0  0  0
   -9.0290   14.1010    1.5110 C   0  0  0  0  0  0  0  0  0  0  0  0
   -9.5950   16.6280    1.8220 O   0  0  0  0  0  0  0  0  0  0  0  0
   -7.7120   14.3860    0.9110 C   0  0  0  0  0  0  0  0  0  0  0  0
   -7.5120   14.5170   -0.4450 N   0  0  0  0  0  0  0  0  0  0  0  0
   -6.5960   14.5400    1.5650 N   0  0  0  0  0  0  0  0  0  0  0  0
   -5.6400   14.7630    0.6130 C   0  0  0  0  0  0  0  0  0  0  0  0
   -6.1840   14.7510   -0.6520 C   0  0  0  0  0  0  0  0  0  0  0  0
   -5.4400   14.9400   -1.8010 C   0  0  0  0  0  0  0  0  0  0  0  0
   -4.2870   14.9780    0.8080 C   0  0  0  0  0  0  0  0  0  0  0  0
   -3.8060   14.9970    2.1120 N   0  0  0  0  0  0  0  0  0  0  0  0
   -6.0860   14.9070   -3.0160 O   0  0  0  0  0  0  0  0  0  0  0  0
   -4.0600   15.1330   -1.6330 C   0  0  0  0  0  0  0  0  0  0  0  0
   -3.4870   15.1590   -0.3360 C   0  0  0  0  0  0  0  0  0  0  0  0
   -3.1790   15.3000   -2.8060 C   0  0  0  0  0  0  0  0  0  0  0  0
   -3.5400   15.5670   -3.9350 O   0  0  0  0  0  0  0  0  0  0  0  0
   -1.8760   15.0930   -2.5320 O   0  0  0  0  0  0  0  0  0  0  0  0
  2  1  1  0
  2  3  2  0
  2  4  1  0
  2  5  2  0
  4  6  1  0
  6  7  1  0
  6  8  2  0
  8  9  1  0
  7 10  1  0
  9 10  2  0
 10 11  1  0
  9 12  1  0
 12 13  1  0
 11 14  1  0
 11 15  2  0
 12 16  2  0
 15 16  1  0
 15 17  1  0
 17 18  2  0
 17 19  1  0
M  END
