diamond-x1018_0_A-mac-x0193
     RDKit          3D

 27 29  0  0  0  0  0  0  0  0999 V2000
   -8.5840   14.6380    0.7070 Cl  0  0  0  0  0  0  0  0  0  0  0  0
   -6.8950   14.6420    0.3570 C   0  0  0  0  0  0  0  0  0  0  0  0
   -5.9380   14.6540    1.4880 C   0  0  0  0  0  0  0  0  0  0  0  0
   -6.5600   14.6350   -0.8990 N   0  0  0  0  0  0  0  0  0  0  0  0
   -5.2070   14.6410   -1.1030 N   0  0  0  0  0  0  0  0  0  0  0  0
   -4.6670   14.9850    1.1950 C   0  0  0  0  0  0  0  0  0  0  0  0
   -4.7650   14.8670   -2.3850 N   0  0  0  0  0  0  0  0  0  0  0  0
   -4.2990   15.3200   -0.2030 C   0  0  1  0  0  0  0  0  0  0  0  0
   -3.0060   15.0270   -0.8190 N   0  0  0  0  0  0  0  0  0  0  0  0
   -3.3340   14.7710   -2.2520 N   0  0  0  0  0  0  0  0  0  0  0  0
   -2.2230   13.9330   -0.2430 C   0  0  0  0  0  0  0  0  0  0  0  0
   -0.7250   14.1650   -0.4750 C   0  0  0  0  0  0  0  0  0  0  0  0
   -0.0170   13.0350   -1.2070 C   0  0  0  0  0  0  0  0  0  0  0  0
    0.3750   13.2900   -2.5750 N   0  0  0  0  0  0  0  0  0  0  0  0
    0.5740   12.3460   -3.4130 C   0  0  0  0  0  0  0  0  0  0  0  0
    0.4190   11.0790   -2.9720 O   0  0  0  0  0  0  0  0  0  0  0  0
    0.9650   12.4980   -4.8590 C   0  0  0  0  0  0  0  0  0  0  0  0
    0.2200   11.5650   -5.6800 N   0  0  0  0  0  0  0  0  0  0  0  0
    0.8250   11.3070   -6.8570 C   0  0  0  0  0  0  0  0  0  0  0  0
    1.9360   11.7120   -7.0160 O   0  0  0  0  0  0  0  0  0  0  0  0
    0.1100   10.5760   -7.7790 N   0  0  0  0  0  0  0  0  0  0  0  0
    0.7580   10.0880   -8.9910 C   0  0  0  0  0  0  0  0  0  0  0  0
    1.3540    8.6980   -8.7570 C   0  0  0  0  0  0  0  0  0  0  0  0
   -0.1700   10.0530  -10.2010 C   0  0  0  0  0  0  0  0  0  0  0  0
    2.1000    8.1190   -9.9660 C   0  0  0  0  0  0  0  0  0  0  0  0
    0.5720    9.5200  -11.4340 C   0  0  0  0  0  0  0  0  0  0  0  0
    1.2440    8.1570  -11.2260 C   0  0  0  0  0  0  0  0  0  0  0  0
  1  2  1  0
  2  3  1  0
  2  4  2  0
  4  5  1  0
  3  6  2  0
  5  7  1  0
  5  8  1  0
  8  6  1  1
  8  9  1  0
  7 10  1  0
  9 10  1  0
  9 11  1  0
 11 12  1  0
 12 13  1  0
 13 14  1  0
 14 15  2  3
 15 16  1  0
 15 17  1  0
 17 18  1  0
 18 19  1  0
 19 20  2  0
 19 21  1  0
 21 22  1  0
 22 23  1  0
 22 24  1  0
 23 25  1  0
 24 26  1  0
 25 27  1  0
 26 27  1  0
M  END
