diamond-x0895_0_A-mac-x0555
     RDKit          3D

 17 19  0  0  0  0  0  0  0  0999 V2000
   -1.2440   13.8070    2.0030 O   0  0  0  0  0  0  0  0  0  0  0  0
   -2.0740   14.0850    1.1820 C   0  0  0  0  0  0  0  0  0  0  0  0
   -2.6980   15.4260    1.0480 C   0  0  0  0  0  0  0  0  0  0  0  0
   -2.6700   13.3180    0.1430 N   0  0  0  0  0  0  0  0  0  0  0  0
   -2.6940   15.3280   -0.3800 N   0  0  0  0  0  0  0  0  0  0  0  0
   -3.3330   14.2250   -0.5800 C   0  0  0  0  0  0  0  0  0  0  0  0
   -4.3710   14.3340   -1.3110 C   0  0  0  0  0  0  0  0  0  0  0  0
   -5.4160   13.4370   -1.6490 C   0  0  0  0  0  0  0  0  0  0  0  0
   -4.4010   15.6870   -1.5610 C   0  0  0  0  0  0  0  0  0  0  0  0
   -6.4830   13.9020   -0.9850 C   0  0  0  0  0  0  0  0  0  0  0  0
   -5.4080   16.1400   -0.8900 C   0  0  0  0  0  0  0  0  0  0  0  0
   -6.3150   15.1710   -0.2130 C   0  0  2  0  0  0  0  0  0  0  0  0
   -7.7370   13.4150   -0.8560 N   0  0  0  0  0  0  0  0  0  0  0  0
   -6.2280   14.8190    1.2190 C   0  0  0  0  0  0  0  0  0  0  0  0
   -8.0440   13.4600    0.4370 C   0  0  0  0  0  0  0  0  0  0  0  0
   -7.1490   13.9370    1.5920 C   0  0  0  0  0  0  0  0  0  0  0  0
   -7.3230   13.4630    2.8610 N   0  0  0  0  0  0  0  0  0  0  0  0
  1  2  2  0
  2  3  1  0
  2  4  1  0
  3  5  1  0
  4  6  1  0
  5  6  1  0
  6  7  2  3
  7  8  1  0
  7  9  1  0
  8 10  2  0
  9 11  2  0
 10 12  1  0
 12 11  1  6
 10 13  1  0
 12 14  1  0
 13 15  2  0
 14 16  2  0
 15 16  1  0
 16 17  1  0
M  END
