diamond-x0814_0_B-diamond-x0905_1_B
     RDKit          3D

 23 24  0  0  0  0  0  0  0  0999 V2000
   14.7240   13.3260   14.5560 C   0  0  0  0  0  0  0  0  0  0  0  0
   14.2460   13.3520   13.1160 C   0  0  2  0  0  0  0  0  0  0  0  0
   13.2370   12.2900   12.7580 N   0  0  0  0  0  0  0  0  0  0  0  0
   15.3930   13.2300   12.1400 C   0  0  2  0  0  0  0  0  0  0  0  0
   16.2390   14.5240   11.8740 C   0  0  0  0  0  0  0  0  0  0  0  0
   11.6340   12.4430   13.1270 S   0  0  0  0  0  0  0  0  0  0  0  0
   13.6910   10.9310   12.3820 C   0  0  0  0  0  0  0  0  0  0  0  0
   14.9100   12.4550   10.9080 C   0  0  0  0  0  0  0  0  0  0  0  0
   11.3570   13.8050   12.7490 O   0  0  0  0  0  0  0  0  0  0  0  0
   17.5230   14.2580   11.4920 N   0  0  0  0  0  0  0  0  0  0  0  0
   10.8640   11.3240   12.5930 O   0  0  0  0  0  0  0  0  0  0  0  0
   15.8210   15.7780   11.9950 N   0  0  0  0  0  0  0  0  0  0  0  0
   11.7900   12.2530   14.9030 C   0  0  0  0  0  0  0  0  0  0  0  0
   14.5580   11.0010   11.1590 C   0  0  0  0  0  0  0  0  0  0  0  0
   14.5250   16.3890   12.3740 C   0  0  0  0  0  0  0  0  0  0  0  0
   14.7710   17.6980   13.2150 C   0  0  0  0  0  0  0  0  0  0  0  0
   14.5710   18.9560   12.4820 O   0  0  0  0  0  0  0  0  0  0  0  0
   13.7740   19.9150   13.1270 C   0  0  0  0  0  0  0  0  0  0  0  0
   12.7070   19.4810   13.8340 N   0  0  0  0  0  0  0  0  0  0  0  0
   14.1010   21.2650   13.0010 C   0  0  0  0  0  0  0  0  0  0  0  0
   11.9470   20.4150   14.4350 C   0  0  0  0  0  0  0  0  0  0  0  0
   13.2930   22.2070   13.6360 C   0  0  0  0  0  0  0  0  0  0  0  0
   12.1930   21.7760   14.3690 C   0  0  0  0  0  0  0  0  0  0  0  0
  2  1  1  1
  2  3  1  0
  2  4  1  0
  4  5  1  6
  3  6  1  0
  3  7  1  0
  4  8  1  0
  6  9  2  0
  5 10  1  0
  6 11  2  0
  5 12  2  3
  6 13  1  0
  7 14  1  0
  8 14  1  0
 12 15  1  0
 15 16  1  0
 16 17  1  0
 17 18  1  0
 18 19  2  0
 18 20  1  0
 19 21  1  0
 20 22  2  0
 21 23  2  0
 22 23  1  0
M  END
