diamond-x0910_1_A-mac-x0439
     RDKit          3D

 22 24  0  0  0  0  0  0  0  0999 V2000
   -7.6540   13.9700    1.2360 N   0  0  0  0  0  0  0  0  0  0  0  0
   -6.6060   14.4770    0.5980 C   0  0  0  0  0  0  0  0  0  0  0  0
   -6.4690   14.6380   -0.7210 N   0  0  0  0  0  0  0  0  0  0  0  0
   -5.5520   14.8820    1.3450 N   0  0  0  0  0  0  0  0  0  0  0  0
   -5.2290   15.1840   -0.7670 N   0  0  0  0  0  0  0  0  0  0  0  0
   -4.6980   15.3240    0.4670 C   0  0  0  0  0  0  0  0  0  0  0  0
   -4.5860   15.5750   -1.9880 C   0  0  0  0  0  0  0  0  0  0  0  0
   -3.8860   14.5890   -2.9240 C   0  0  0  0  0  0  0  0  0  0  0  0
   -3.7780   15.3680   -4.2440 C   0  0  0  0  0  0  0  0  0  0  0  0
   -2.6880   15.0820   -5.2590 C   0  0  0  0  0  0  0  0  0  0  0  0
   -1.5940   16.1240   -5.3620 C   0  0  0  0  0  0  0  0  0  0  0  0
   -0.2060   15.6190   -5.2120 C   0  0  2  0  0  0  0  0  0  0  0  0
   -1.7450   17.4560   -5.6020 C   0  0  0  0  0  0  0  0  0  0  0  0
    0.1280   14.5170   -4.3110 C   0  0  0  0  0  0  0  0  0  0  0  0
    0.6690   16.6670   -4.6170 C   0  0  0  0  0  0  0  0  0  0  0  0
   -0.5920   18.3560   -5.6890 C   0  0  0  0  0  0  0  0  0  0  0  0
    1.0460   14.9380   -3.4720 C   0  0  0  0  0  0  0  0  0  0  0  0
    1.3770   16.2560   -3.6380 N   0  0  0  0  0  0  0  0  0  0  0  0
    0.6230   18.0120   -5.2140 C   0  0  0  0  0  0  0  0  0  0  0  0
    1.6340   14.0370   -2.4630 C   0  0  0  0  0  0  0  0  0  0  0  0
    2.9630   14.2310   -2.3050 O   0  0  0  0  0  0  0  0  0  0  0  0
    0.9960   13.2010   -1.8480 O   0  0  0  0  0  0  0  0  0  0  0  0
  1  2  1  0
  2  3  2  0
  2  4  1  0
  3  5  1  0
  4  6  2  0
  5  6  1  0
  5  7  1  0
  7  8  1  0
  8  9  1  0
  9 10  1  0
 10 11  1  0
 11 12  1  0
 11 13  2  0
 12 14  1  1
 12 15  1  0
 13 16  1  0
 14 17  2  0
 15 18  2  0
 17 18  1  0
 15 19  1  0
 16 19  2  0
 17 20  1  0
 20 21  1  0
 20 22  2  0
M  END
