diamond-x0438_0_A-mac-x0328
     RDKit          3D

 18 19  0  0  0  0  0  0  0  0999 V2000
   -8.1870   15.5820    3.9250 C   0  0  0  0  0  0  0  0  0  0  0  0
   -9.4120   15.4240    2.6390 S   0  0  0  0  0  0  0  0  0  0  0  0
  -10.6220   14.9250    3.2560 O   0  0  0  0  0  0  0  0  0  0  0  0
   -8.8260   14.1440    1.5540 C   0  0  0  0  0  0  0  0  0  0  0  0
   -9.4850   16.6350    1.8490 O   0  0  0  0  0  0  0  0  0  0  0  0
   -7.4340   14.3690    1.0710 C   0  0  0  0  0  0  0  0  0  0  0  0
   -7.1360   14.5230   -0.2590 N   0  0  0  0  0  0  0  0  0  0  0  0
   -6.3390   14.4370    1.7940 N   0  0  0  0  0  0  0  0  0  0  0  0
   -5.3000   14.6120    0.9110 C   0  0  0  0  0  0  0  0  0  0  0  0
   -5.7770   14.6660   -0.3850 C   0  0  0  0  0  0  0  0  0  0  0  0
   -4.9570   14.8240   -1.4900 C   0  0  0  0  0  0  0  0  0  0  0  0
   -3.9210   14.7260    1.1420 C   0  0  0  0  0  0  0  0  0  0  0  0
   -5.5500   14.8720   -2.7130 O   0  0  0  0  0  0  0  0  0  0  0  0
   -3.5450   14.9060   -1.2810 C   0  0  0  0  0  0  0  0  0  0  0  0
   -3.0640   14.8660    0.0430 C   0  0  0  0  0  0  0  0  0  0  0  0
   -2.4510   15.0130   -2.3210 C   0  0  0  0  0  0  0  0  0  0  0  0
   -2.8030   15.2260   -3.6060 O   0  0  0  0  0  0  0  0  0  0  0  0
   -1.2720   14.8900   -2.0030 O   0  0  0  0  0  0  0  0  0  0  0  0
  2  1  1  0
  2  3  2  0
  2  4  1  0
  2  5  2  0
  4  6  1  0
  6  7  1  0
  6  8  2  0
  8  9  1  0
  7 10  1  0
  9 10  2  0
 10 11  1  0
  9 12  1  0
 11 13  1  0
 11 14  2  0
 12 15  2  0
 14 15  1  0
 14 16  1  0
 16 17  1  0
 16 18  2  0
M  END
