diamond-x0969_0_A-mac-x0455
     RDKit          3D

 22 24  0  0  0  0  0  0  0  0999 V2000
   -6.6910   14.8910    2.3510 N   0  0  0  0  0  0  0  0  0  0  0  0
   -6.4730   14.8000    1.0150 C   0  0  0  0  0  0  0  0  0  0  0  0
   -7.3670   14.7280    0.0570 N   0  0  0  0  0  0  0  0  0  0  0  0
   -5.2120   14.7750    0.4590 N   0  0  0  0  0  0  0  0  0  0  0  0
   -6.7010   14.6400   -1.1540 N   0  0  0  0  0  0  0  0  0  0  0  0
   -5.4020   14.6540   -0.9110 C   0  0  0  0  0  0  0  0  0  0  0  0
   -3.9670   14.8370    1.0490 C   0  0  0  0  0  0  0  0  0  0  0  0
   -4.2330   14.5430   -1.7500 C   0  0  0  0  0  0  0  0  0  0  0  0
   -2.8870   14.7200    0.2910 C   0  0  0  0  0  0  0  0  0  0  0  0
   -3.0000   14.5320   -1.1580 C   0  0  0  0  0  0  0  0  0  0  0  0
   -1.6030   14.3160   -1.7530 C   0  0  0  0  0  0  0  0  0  0  0  0
   -1.0920   14.3430   -3.2310 C   0  0  1  0  0  0  0  0  0  0  0  0
   -1.4040   15.5900   -3.9110 O   0  0  0  0  0  0  0  0  0  0  0  0
    0.4040   14.4130   -2.8520 C   0  0  0  0  0  0  0  0  0  0  0  0
   -1.1480   13.1110   -4.1610 C   0  0  0  0  0  0  0  0  0  0  0  0
    1.1650   15.3470   -2.9930 O   0  0  0  0  0  0  0  0  0  0  0  0
    0.8000   13.2300   -2.2940 O   0  0  0  0  0  0  0  0  0  0  0  0
   -2.2060   12.1810   -4.1480 C   0  0  0  0  0  0  0  0  0  0  0  0
   -0.0960   12.8750   -5.0820 C   0  0  0  0  0  0  0  0  0  0  0  0
   -2.2060   11.0730   -5.0100 C   0  0  0  0  0  0  0  0  0  0  0  0
   -0.0990   11.7720   -5.9410 C   0  0  0  0  0  0  0  0  0  0  0  0
   -1.1550   10.8690   -5.9030 C   0  0  0  0  0  0  0  0  0  0  0  0
  1  2  1  0
  2  3  2  0
  2  4  1  0
  3  5  1  0
  4  6  1  0
  5  6  2  0
  4  7  1  0
  6  8  1  0
  7  9  2  0
  8 10  2  0
  9 10  1  0
 10 11  1  0
 11 12  1  0
 12 13  1  6
 12 14  1  0
 12 15  1  0
 14 16  2  0
 14 17  1  0
 15 18  2  0
 15 19  1  0
 18 20  1  0
 19 21  2  0
 20 22  2  0
 21 22  1  0
M  END
