diamond-x0844_0_A-mac-x0567
     RDKit          3D

 13 14  0  0  0  0  0  0  0  0999 V2000
   -7.4050   14.7340    0.2630 O   0  0  0  0  0  0  0  0  0  0  0  0
   -6.1760   14.6560    0.2850 C   0  0  0  0  0  0  0  0  0  0  0  0
   -5.4250   15.0920    1.3770 N   0  0  0  0  0  0  0  0  0  0  0  0
   -5.3850   14.0730   -0.8620 C   0  0  0  0  0  0  0  0  0  0  0  0
   -4.1620   15.7970    1.1900 C   0  0  0  0  0  0  0  0  0  0  0  0
   -4.1740   14.9480   -1.0420 C   0  0  2  0  0  0  0  0  0  0  0  0
   -3.2690   14.6170   -2.7510 Br  0  0  0  0  0  0  0  0  0  0  0  0
   -3.2760   15.0060    0.2180 C   0  0  2  0  0  0  0  0  0  0  0  0
   -2.9210   13.8600    1.0630 N   0  0  0  0  0  0  0  0  0  0  0  0
   -1.8930   15.5460   -0.2090 C   0  0  0  0  0  0  0  0  0  0  0  0
   -0.8520   14.9060    0.6890 C   0  0  1  0  0  0  0  0  0  0  0  0
   -1.6470   14.2120    1.6570 N   0  0  0  0  0  0  0  0  0  0  0  0
    0.0410   13.9890    0.0290 N   0  0  0  0  0  0  0  0  0  0  0  0
  1  2  2  0
  2  3  1  0
  2  4  1  0
  3  5  1  0
  4  6  1  0
  6  7  1  6
  8  5  1  1
  6  8  1  0
  8  9  1  0
  8 10  1  0
 10 11  1  0
  9 12  1  0
 11 12  1  0
 11 13  1  6
M  END
