diamond-x0910_1_A-diamond-x0844_0_A
     RDKit          3D

  7  7  0  0  0  0  0  0  0  0999 V2000
   -7.7060   14.3480    0.9750 N   0  0  0  0  0  0  0  0  0  0  0  0
   -6.5490   14.6550    0.3930 C   0  0  0  0  0  0  0  0  0  0  0  0
   -6.2670   14.5810   -0.9070 N   0  0  0  0  0  0  0  0  0  0  0  0
   -5.5320   15.0950    1.1850 N   0  0  0  0  0  0  0  0  0  0  0  0
   -4.9890   14.9920   -0.9140 N   0  0  0  0  0  0  0  0  0  0  0  0
   -4.5590   15.3050    0.3310 C   0  0  0  0  0  0  0  0  0  0  0  0
   -3.9190   15.1080   -2.4220 Br  0  0  0  0  0  0  0  0  0  0  0  0
  1  2  1  0
  2  3  2  0
  2  4  1  0
  3  5  1  0
  4  6  2  0
  5  6  1  0
  5  7  1  0
M  END
