diamond-x0933_0_A-mac-x0131
     RDKit          3D

 24 27  0  0  0  0  0  0  0  0999 V2000
   -6.4030   14.9330    1.9910 N   0  0  0  0  0  0  0  0  0  0  0  0
   -5.2860   14.6670    1.1360 C   0  0  2  0  0  0  0  0  0  0  0  0
   -3.9340   14.9470    1.4900 N   0  0  0  0  0  0  0  0  0  0  0  0
   -5.6530   14.7140   -0.2290 N   0  0  0  0  0  0  0  0  0  0  0  0
   -4.8790   13.5950   -0.8020 C   0  0  0  0  0  0  0  0  0  0  0  0
   -3.7840   13.5460    1.6020 C   0  0  0  0  0  0  0  0  0  0  0  0
   -2.8310   14.9220    0.6420 C   0  0  0  0  0  0  0  0  0  0  0  0
   -3.7960   13.0100    0.1400 C   0  0  0  0  0  0  0  0  0  0  0  0
   -2.7970   15.0150   -0.7780 C   0  0  0  0  0  0  0  0  0  0  0  0
   -1.6440   14.7320    1.3060 N   0  0  0  0  0  0  0  0  0  0  0  0
   -3.7120   15.2180   -1.8890 C   0  0  0  0  0  0  0  0  0  0  0  0
   -1.5290   14.8620   -1.3460 C   0  0  0  0  0  0  0  0  0  0  0  0
   -0.5050   14.6290    0.6170 C   0  0  0  0  0  0  0  0  0  0  0  0
   -5.1860   15.4540   -1.8450 C   0  0  0  0  0  0  0  0  0  0  0  0
   -2.9630   15.1530   -3.0580 C   0  0  0  0  0  0  0  0  0  0  0  0
   -1.6500   14.9330   -2.7060 N   0  0  0  0  0  0  0  0  0  0  0  0
   -0.3540   14.6710   -0.7060 N   0  0  0  0  0  0  0  0  0  0  0  0
   -3.4060   15.2810   -4.4770 C   0  0  0  0  0  0  0  0  0  0  0  0
   -0.5200   14.7760   -3.6010 C   0  0  0  0  0  0  0  0  0  0  0  0
   -0.3910   13.3140   -3.8030 C   0  0  0  0  0  0  0  0  0  0  0  0
    0.6260   12.3730   -3.8120 C   0  0  0  0  0  0  0  0  0  0  0  0
   -1.5880   12.6950   -4.0370 O   0  0  0  0  0  0  0  0  0  0  0  0
   -1.3480   11.3770   -4.1910 C   0  0  0  0  0  0  0  0  0  0  0  0
   -0.0120   11.1260   -4.0610 C   0  0  0  0  0  0  0  0  0  0  0  0
  2  1  1  1
  2  3  1  0
  2  4  1  0
  4  5  1  0
  3  6  1  0
  3  7  1  0
  5  8  1  0
  6  8  1  0
  7  9  1  0
  7 10  2  0
  9 11  1  0
  9 12  2  0
 10 13  1  0
 11 14  1  0
 11 15  2  0
 12 16  1  0
 15 16  1  0
 12 17  1  0
 13 17  2  0
 15 18  1  0
 16 19  1  0
 19 20  1  0
 20 21  2  0
 20 22  1  0
 22 23  1  0
 21 24  1  0
 23 24  2  0
M  END
