diamond-x0855_0_A-mac-x0341
     RDKit          3D

 25 27  0  0  0  0  0  0  0  0999 V2000
    2.5260   12.2310   -3.2570 O   0  0  0  0  0  0  0  0  0  0  0  0
    1.2280   12.6320   -3.6080 C   0  0  0  0  0  0  0  0  0  0  0  0
    0.9830   12.5350   -5.1330 C   0  0  0  0  0  0  0  0  0  0  0  0
    0.3860   11.7990   -2.8320 O   0  0  0  0  0  0  0  0  0  0  0  0
    1.2220   14.1140   -3.1810 C   0  0  0  0  0  0  0  0  0  0  0  0
    0.1080   14.6070   -2.2670 C   0  0  0  0  0  0  0  0  0  0  0  0
   -0.1910   11.7430   -5.4890 N   0  0  0  0  0  0  0  0  0  0  0  0
   -1.2800   14.7760   -2.8920 C   0  0  0  0  0  0  0  0  0  0  0  0
   -0.2180   10.5810   -6.1950 C   0  0  0  0  0  0  0  0  0  0  0  0
   -1.4210   12.1570   -5.1080 N   0  0  0  0  0  0  0  0  0  0  0  0
   -1.5300   10.2170   -6.2660 C   0  0  0  0  0  0  0  0  0  0  0  0
   -2.2390   11.2090   -5.5900 C   0  0  0  0  0  0  0  0  0  0  0  0
   -2.3120   14.8250   -1.8020 C   0  0  0  0  0  0  0  0  0  0  0  0
   -2.2540    8.7140   -7.0890 Br  0  0  0  0  0  0  0  0  0  0  0  0
   -1.8500   14.7960   -0.4780 C   0  0  0  0  0  0  0  0  0  0  0  0
   -3.6910   14.8890   -2.0490 C   0  0  0  0  0  0  0  0  0  0  0  0
   -4.5680   14.9100   -0.9600 C   0  0  0  0  0  0  0  0  0  0  0  0
   -2.7340   14.8220    0.5850 C   0  0  0  0  0  0  0  0  0  0  0  0
   -6.0290   14.9580   -1.1250 C   0  0  0  0  0  0  0  0  0  0  0  0
   -4.0950   14.8750    0.3500 C   0  0  0  0  0  0  0  0  0  0  0  0
   -6.5600   15.2020   -2.1980 O   0  0  0  0  0  0  0  0  0  0  0  0
   -6.7570   14.6940    0.0160 N   0  0  0  0  0  0  0  0  0  0  0  0
   -4.9370   14.8780    1.4510 N   0  0  0  0  0  0  0  0  0  0  0  0
   -6.2010   14.7710    1.2640 C   0  0  0  0  0  0  0  0  0  0  0  0
   -7.0040   14.7310    2.3510 N   0  0  0  0  0  0  0  0  0  0  0  0
  2  1  1  0
  2  3  1  0
  2  4  1  0
  2  5  1  0
  5  6  1  0
  3  7  1  0
  6  8  1  0
  7  9  1  0
  7 10  1  0
  9 11  2  0
 10 12  2  0
 11 12  1  0
  8 13  1  0
 11 14  1  0
 13 15  2  0
 13 16  1  0
 16 17  2  0
 15 18  1  0
 17 19  1  0
 17 20  1  0
 18 20  2  0
 19 21  2  0
 19 22  1  0
 20 23  1  0
 22 24  1  0
 23 24  2  0
 24 25  1  0
M  END
