diamond-x0852_0_B-diamond-x0962_1_A
     RDKit          3D

 16 17  0  0  0  0  0  0  0  0999 V2000
   -9.4620   16.8620    6.9400 N   0  0  0  0  0  0  0  0  0  0  0  0
   -9.1590   16.5840    5.8470 C   0  0  0  0  0  0  0  0  0  0  0  0
   -8.7720   16.3270    4.4320 C   0  0  1  0  0  0  0  0  0  0  0  0
   -8.2970   14.8870    4.1040 C   0  0  2  0  0  0  0  0  0  0  0  0
   -9.9600   16.7270    3.5470 C   0  0  0  0  0  0  0  0  0  0  0  0
   -7.3220   14.4830    5.0720 O   0  0  0  0  0  0  0  0  0  0  0  0
   -7.8220   14.7130    2.5360 C   0  0  1  0  0  0  0  0  0  0  0  0
   -9.8420   16.4020    2.0490 C   0  0  2  0  0  0  0  0  0  0  0  0
  -11.6220   16.0680    1.3470 Br  0  0  0  0  0  0  0  0  0  0  0  0
   -8.9090   15.2910    1.5860 C   0  0  0  0  0  0  0  0  0  0  0  0
   -6.3780   15.1160    2.2290 N   0  0  0  0  0  0  0  0  0  0  0  0
   -7.7810   13.3900    1.8970 N   0  0  0  0  0  0  0  0  0  0  0  0
   -5.8470   14.3340    1.0490 C   0  0  1  0  0  0  0  0  0  0  0  0
   -7.1030   13.6400    0.5890 C   0  0  0  0  0  0  0  0  0  0  0  0
   -5.0530   15.0260   -0.0290 C   0  0  0  0  0  0  0  0  0  0  0  0
   -4.3990   15.5100   -0.8760 N   0  0  0  0  0  0  0  0  0  0  0  0
  1  2  3  0
  3  2  1  1
  3  4  1  0
  3  5  1  0
  4  6  1  1
  4  7  1  0
  5  8  1  0
  8  9  1  1
  7 10  1  6
  8 10  1  0
  7 11  1  0
  7 12  1  0
 11 13  1  0
 12 14  1  0
 13 14  1  0
 13 15  1  6
 15 16  3  0
M  END
