diamond-x0969_0_A-diamond-x0371_0_A
     RDKit          3D

 18 20  0  0  0  0  0  0  0  0999 V2000
   -7.3690   14.5190    2.5440 N   0  0  0  0  0  0  0  0  0  0  0  0
   -8.2970   15.4280    3.1840 C   0  0  0  0  0  0  0  0  0  0  0  0
   -9.0720   16.1730    2.5770 O   0  0  0  0  0  0  0  0  0  0  0  0
   -7.6390   13.1440    2.8790 C   0  0  0  0  0  0  0  0  0  0  0  0
   -6.9400   14.7250    1.2000 C   0  0  0  0  0  0  0  0  0  0  0  0
   -7.7860   14.7170    0.1870 N   0  0  0  0  0  0  0  0  0  0  0  0
   -5.6390   14.9470    0.6400 N   0  0  0  0  0  0  0  0  0  0  0  0
   -8.3470   15.4470    4.6660 C   0  0  0  0  0  0  0  0  0  0  0  0
   -7.1350   14.9040   -0.9950 N   0  0  0  0  0  0  0  0  0  0  0  0
   -5.8660   15.0340   -0.7380 C   0  0  0  0  0  0  0  0  0  0  0  0
   -4.3250   15.0710    1.1420 C   0  0  0  0  0  0  0  0  0  0  0  0
   -7.8830   14.3900    5.4140 O   0  0  0  0  0  0  0  0  0  0  0  0
   -8.8220   16.4190    5.5430 C   0  0  0  0  0  0  0  0  0  0  0  0
   -4.7680   15.2280   -1.6160 C   0  0  0  0  0  0  0  0  0  0  0  0
   -3.2880   15.2430    0.3090 C   0  0  0  0  0  0  0  0  0  0  0  0
   -8.6310   15.9260    6.8610 C   0  0  0  0  0  0  0  0  0  0  0  0
   -8.0550   14.6900    6.7270 C   0  0  0  0  0  0  0  0  0  0  0  0
   -3.5290   15.3170   -1.1180 C   0  0  0  0  0  0  0  0  0  0  0  0
  1  2  1  0
  2  3  2  0
  1  4  1  0
  1  5  1  0
  5  6  2  0
  5  7  1  0
  2  8  1  0
  6  9  1  0
  7 10  1  0
  9 10  2  0
  7 11  1  0
  8 12  1  0
  8 13  2  0
 10 14  1  0
 11 15  2  0
 13 16  1  0
 12 17  1  0
 16 17  2  0
 14 18  2  0
 15 18  1  0
M  END
