diamond-x1015_0_A-mac-x0472
     RDKit          3D

 29 32  0  0  0  0  0  0  0  0999 V2000
   -1.3910   14.5550   -3.3920 C   0  0  0  0  0  0  0  0  0  0  0  0
   -2.8790   14.6190   -2.4590 S   0  0  0  0  0  0  0  0  0  0  0  0
   -3.5350   16.0940   -2.2490 O   0  0  0  0  0  0  0  0  0  0  0  0
   -0.3600   13.5760   -3.9180 C   0  0  2  0  0  0  0  0  0  0  0  0
   -4.1170   14.0890   -1.5930 N   0  0  0  0  0  0  0  0  0  0  0  0
   -0.5710   12.1410   -3.8220 N   0  0  0  0  0  0  0  0  0  0  0  0
    0.7750   13.7600   -2.9130 C   0  0  0  0  0  0  0  0  0  0  0  0
   -3.4720   12.9650   -2.2760 C   0  0  0  0  0  0  0  0  0  0  0  0
    1.3120   14.8240   -2.6320 O   0  0  0  0  0  0  0  0  0  0  0  0
    0.2160   11.6220   -2.7610 C   0  0  0  0  0  0  0  0  0  0  0  0
    1.0840   12.5760   -2.3630 N   0  0  0  0  0  0  0  0  0  0  0  0
   -0.7480   11.4120   -5.0160 C   0  0  0  0  0  0  0  0  0  0  0  0
   -3.8450   14.4350   -0.2910 C   0  0  0  0  0  0  0  0  0  0  0  0
   -2.7420   11.8020   -2.4920 C   0  0  0  0  0  0  0  0  0  0  0  0
   -4.8400   12.8460   -1.9030 C   0  0  0  0  0  0  0  0  0  0  0  0
    0.1920   10.5130   -2.2350 O   0  0  0  0  0  0  0  0  0  0  0  0
   -0.0370   11.6800   -6.1440 C   0  0  0  0  0  0  0  0  0  0  0  0
   -1.6200   10.3850   -5.1750 C   0  0  0  0  0  0  0  0  0  0  0  0
   -2.6700   14.2460    0.3160 N   0  0  0  0  0  0  0  0  0  0  0  0
   -4.9850   15.1820    0.7430 S   0  0  0  0  0  0  0  0  0  0  0  0
   -3.3710   10.5550   -2.3480 C   0  0  0  0  0  0  0  0  0  0  0  0
   -5.4540   11.6030   -1.7590 C   0  0  0  0  0  0  0  0  0  0  0  0
   -0.2110   10.9600   -7.3230 C   0  0  0  0  0  0  0  0  0  0  0  0
   -1.7440    9.7030   -6.3940 C   0  0  0  0  0  0  0  0  0  0  0  0
   -3.8030   15.1950    1.9710 C   0  0  0  0  0  0  0  0  0  0  0  0
   -2.6480   14.6850    1.6260 N   0  0  0  0  0  0  0  0  0  0  0  0
   -4.7190   10.4570   -1.9880 C   0  0  0  0  0  0  0  0  0  0  0  0
   -1.0710    9.8710   -7.6590 C   0  0  0  0  0  0  0  0  0  0  0  0
   -2.1860    8.5800   -7.8300 Cl  0  0  0  0  0  0  0  0  0  0  0  0
  1  2  2  0
  2  3  2  0
  4  1  1  1
  2  5  1  0
  4  6  1  0
  4  7  1  0
  2  8  1  0
  7  9  2  0
  6 10  1  0
  7 11  1  0
 10 11  1  0
  6 12  1  0
  5 13  1  0
  8 14  2  0
  8 15  1  0
 10 16  2  0
 12 17  2  0
 12 18  1  0
 13 19  2  0
 13 20  1  0
 14 21  1  0
 15 22  2  0
 17 23  1  0
 18 24  2  0
 20 25  1  0
 19 26  1  0
 25 26  2  0
 21 27  2  0
 22 27  1  0
 23 28  2  0
 24 28  1  0
 28 29  1  0
M  END
