diamond-x0849_0_A-diamond-x0711_0_A
     RDKit          3D

 18 19  0  0  0  0  0  0  0  0999 V2000
   -3.1850   14.8810   -2.3400 O   0  0  0  0  0  0  0  0  0  0  0  0
   -1.7460   14.2360   -3.0000 S   0  0  0  0  0  0  0  0  0  0  0  0
   -2.4050   13.2290   -4.3020 C   0  0  0  0  0  0  0  0  0  0  0  0
   -3.3510   14.8380   -0.9290 C   0  0  0  0  0  0  0  0  0  0  0  0
   -0.9550   15.2690   -3.6650 O   0  0  0  0  0  0  0  0  0  0  0  0
   -1.0640   13.3200   -2.0930 O   0  0  0  0  0  0  0  0  0  0  0  0
   -2.1460   14.7840   -0.1860 C   0  0  0  0  0  0  0  0  0  0  0  0
   -4.5880   14.8300   -0.1630 C   0  0  0  0  0  0  0  0  0  0  0  0
   -6.0320   14.8590   -0.5230 C   0  0  0  0  0  0  0  0  0  0  0  0
   -2.2320   14.7130    1.2070 C   0  0  0  0  0  0  0  0  0  0  0  0
   -4.4650   14.7720    1.2010 C   0  0  0  0  0  0  0  0  0  0  0  0
   -0.8430   14.7950   -0.7310 C   0  0  0  0  0  0  0  0  0  0  0  0
   -6.8800   14.6130    0.5330 N   0  0  0  0  0  0  0  0  0  0  0  0
   -6.5060   15.0620   -1.6180 O   0  0  0  0  0  0  0  0  0  0  0  0
   -3.3400   14.7120    1.8660 N   0  0  0  0  0  0  0  0  0  0  0  0
   -1.2010   14.6420    1.9640 N   0  0  0  0  0  0  0  0  0  0  0  0
    0.2460   14.7290    0.0930 C   0  0  0  0  0  0  0  0  0  0  0  0
   -0.0090   14.6510    1.4320 C   0  0  0  0  0  0  0  0  0  0  0  0
  2  1  1  0
  2  3  1  0
  1  4  1  0
  2  5  2  0
  2  6  2  0
  4  7  2  0
  4  8  1  0
  8  9  1  0
  7 10  1  0
  8 11  2  0
  7 12  1  0
  9 13  1  0
  9 14  2  0
 10 15  2  0
 11 15  1  0
 10 16  1  0
 12 17  2  0
 16 18  2  0
 17 18  1  0
M  END
