diamond-x0574_0_A-mac-x1494
     RDKit          3D

 17 19  0  0  0  0  0  0  0  0999 V2000
    0.2220   14.1010    2.3100 N   0  0  0  0  0  0  0  0  0  0  0  0
   -0.8170   14.3060    1.5540 C   0  0  0  0  0  0  0  0  0  0  0  0
   -1.9750   14.4240    2.0840 N   0  0  0  0  0  0  0  0  0  0  0  0
   -0.7070   14.4140   -0.1240 S   0  0  0  0  0  0  0  0  0  0  0  0
   -2.9110   14.5830    1.1260 C   0  0  0  0  0  0  0  0  0  0  0  0
   -2.4220   14.5940   -0.1500 C   0  0  0  0  0  0  0  0  0  0  0  0
   -4.2710   14.7190    1.3600 C   0  0  0  0  0  0  0  0  0  0  0  0
   -3.2620   14.7260   -1.2300 C   0  0  0  0  0  0  0  0  0  0  0  0
   -5.1610   14.8510    0.3070 C   0  0  0  0  0  0  0  0  0  0  0  0
   -4.6590   14.8560   -1.0320 C   0  0  0  0  0  0  0  0  0  0  0  0
   -2.6590   14.7130   -2.4800 C   0  0  0  0  0  0  0  0  0  0  0  0
   -6.5110   14.9640    0.5440 O   0  0  0  0  0  0  0  0  0  0  0  0
   -3.4210   14.8200   -3.6000 C   0  0  0  0  0  0  0  0  0  0  0  0
   -5.4170   14.9720   -2.2160 C   0  0  0  0  0  0  0  0  0  0  0  0
   -6.9440   14.5740    1.8570 C   0  0  0  0  0  0  0  0  0  0  0  0
   -2.6330   14.7910   -5.1230 Cl  0  0  0  0  0  0  0  0  0  0  0  0
   -4.7990   14.9470   -3.4840 C   0  0  0  0  0  0  0  0  0  0  0  0
  1  2  1  0
  2  3  2  0
  2  4  1  0
  3  5  1  0
  4  6  1  0
  5  6  2  0
  5  7  1  0
  6  8  1  0
  7  9  2  0
  8 10  2  0
  9 10  1  0
  8 11  1  0
  9 12  1  0
 11 13  2  0
 10 14  1  0
 12 15  1  0
 13 16  1  0
 13 17  1  0
 14 17  2  0
M  END
