diamond-x0727_0_A-mac-x0347
     RDKit          3D

 26 29  0  0  0  0  0  0  0  0999 V2000
    0.2720   11.4300   -5.4860 N   0  0  0  0  0  0  0  0  0  0  0  0
    0.9990   12.0920   -4.3940 C   0  0  1  0  0  0  0  0  0  0  0  0
    0.6170   13.5490   -4.2870 C   0  0  0  0  0  0  0  0  0  0  0  0
    0.7400   11.1150   -6.7240 C   0  0  0  0  0  0  0  0  0  0  0  0
    1.6560   11.7760   -7.1480 O   0  0  0  0  0  0  0  0  0  0  0  0
    0.5340   11.5230   -3.0220 C   0  0  0  0  0  0  0  0  0  0  0  0
    0.1410    9.9450   -7.5120 C   0  0  0  0  0  0  0  0  0  0  0  0
    0.8210   10.4670   -2.4850 O   0  0  0  0  0  0  0  0  0  0  0  0
   -0.3800   12.3240   -2.5120 N   0  0  0  0  0  0  0  0  0  0  0  0
   -0.4010   13.3800   -3.2150 C   0  0  0  0  0  0  0  0  0  0  0  0
   -1.1320   10.3710   -8.2470 C   0  0  0  0  0  0  0  0  0  0  0  0
   -0.2720    8.7580   -6.6100 C   0  0  0  0  0  0  0  0  0  0  0  0
   -2.1080    9.2120   -8.0790 C   0  0  0  0  0  0  0  0  0  0  0  0
   -1.7820    8.6350   -6.7160 C   0  0  0  0  0  0  0  0  0  0  0  0
   -1.5280   14.2040   -2.9890 C   0  0  0  0  0  0  0  0  0  0  0  0
   -2.2120   14.1070   -1.7960 C   0  0  0  0  0  0  0  0  0  0  0  0
   -1.9510   15.0410   -3.9900 C   0  0  0  0  0  0  0  0  0  0  0  0
   -3.3530   14.8510   -1.6420 C   0  0  0  0  0  0  0  0  0  0  0  0
   -3.0510   15.7850   -3.8730 N   0  0  0  0  0  0  0  0  0  0  0  0
   -3.7160   15.6470   -2.7000 C   0  0  0  0  0  0  0  0  0  0  0  0
   -4.1630   14.8020   -0.4470 C   0  0  0  0  0  0  0  0  0  0  0  0
   -3.7690   15.3920    0.7580 C   0  0  0  0  0  0  0  0  0  0  0  0
   -5.3900   14.1340   -0.5090 C   0  0  0  0  0  0  0  0  0  0  0  0
   -4.5940   15.3110    1.8700 C   0  0  0  0  0  0  0  0  0  0  0  0
   -6.2150   14.0520    0.6010 C   0  0  0  0  0  0  0  0  0  0  0  0
   -5.8150   14.6420    1.7920 C   0  0  0  0  0  0  0  0  0  0  0  0
  2  1  1  6
  2  3  1  0
  1  4  1  0
  4  5  2  0
  2  6  1  0
  4  7  1  0
  6  8  2  0
  6  9  1  0
  3 10  1  0
  9 10  2  0
  7 11  1  0
  7 12  1  0
 11 13  1  0
 12 14  1  0
 13 14  1  0
 10 15  1  0
 15 16  2  0
 15 17  1  0
 16 18  1  0
 17 19  2  0
 18 20  2  0
 19 20  1  0
 18 21  1  0
 21 22  2  0
 21 23  1  0
 22 24  1  0
 23 25  2  0
 24 26  2  0
 25 26  1  0
M  END
