diamond-x0626_0_A-mac-x0568
     RDKit          3D

 20 21  0  0  0  0  0  0  0  0999 V2000
   -4.7300   13.1610    1.5540 N   0  0  0  0  0  0  0  0  0  0  0  0
   -5.9530   12.7760    1.0810 C   0  0  0  0  0  0  0  0  0  0  0  0
   -5.9670   12.1670    0.0050 O   0  0  0  0  0  0  0  0  0  0  0  0
   -3.5470   13.4930    0.9440 C   0  0  0  0  0  0  0  0  0  0  0  0
   -7.2630   13.1090    1.7720 C   0  0  0  0  0  0  0  0  0  0  0  0
   -2.5150   14.0830    1.5750 N   0  0  0  0  0  0  0  0  0  0  0  0
   -3.3000   13.1570   -0.7020 S   0  0  0  0  0  0  0  0  0  0  0  0
   -7.7020   14.4290    1.1640 C   0  0  0  0  0  0  0  0  0  0  0  0
   -1.7370   13.8100   -0.6160 C   0  0  0  0  0  0  0  0  0  0  0  0
   -1.4780   14.2560    0.6580 C   0  0  0  0  0  0  0  0  0  0  0  0
   -0.2090   14.8740    1.0670 C   0  0  0  0  0  0  0  0  0  0  0  0
   -6.5630   14.8240    0.2730 C   0  0  0  0  0  0  0  0  0  0  0  0
   -6.7140   14.7930   -1.0700 N   0  0  0  0  0  0  0  0  0  0  0  0
   -5.3700   15.1950    0.8940 C   0  0  0  0  0  0  0  0  0  0  0  0
   -5.6250   15.1290   -1.8080 C   0  0  0  0  0  0  0  0  0  0  0  0
   -4.2800   15.5360    0.1180 C   0  0  0  0  0  0  0  0  0  0  0  0
   -4.3980   15.4950   -1.2640 C   0  0  0  0  0  0  0  0  0  0  0  0
   -3.2190   15.8340   -2.0870 C   0  0  0  0  0  0  0  0  0  0  0  0
   -3.3000   15.9930   -3.2960 O   0  0  0  0  0  0  0  0  0  0  0  0
   -2.0130   15.9630   -1.4540 N   0  0  0  0  0  0  0  0  0  0  0  0
  1  2  1  0
  2  3  2  0
  1  4  1  0
  2  5  1  0
  4  6  2  0
  4  7  1  0
  5  8  1  0
  7  9  1  0
  6 10  1  0
  9 10  2  0
 10 11  1  0
  8 12  1  0
 12 13  2  0
 12 14  1  0
 13 15  1  0
 14 16  2  0
 15 17  2  0
 16 17  1  0
 17 18  1  0
 18 19  2  0
 18 20  1  0
M  END
