diamond-x0371_0_A-mac-x0576
     RDKit          3D

 25 28  0  0  0  0  0  0  0  0999 V2000
   -7.9430   14.5300    3.2180 N   0  0  0  0  0  0  0  0  0  0  0  0
   -8.6660   15.4920    3.8510 C   0  0  0  0  0  0  0  0  0  0  0  0
   -9.3310   16.2760    3.1630 O   0  0  0  0  0  0  0  0  0  0  0  0
   -8.0920   13.9630    1.9230 C   0  0  0  0  0  0  0  0  0  0  0  0
   -6.8680   14.2920    1.1700 C   0  0  0  0  0  0  0  0  0  0  0  0
   -8.6340   15.5410    5.2830 C   0  0  0  0  0  0  0  0  0  0  0  0
   -5.5770   14.1550    1.6720 N   0  0  0  0  0  0  0  0  0  0  0  0
   -6.8590   14.7380   -0.0370 N   0  0  0  0  0  0  0  0  0  0  0  0
   -8.0810   14.5130    5.9890 O   0  0  0  0  0  0  0  0  0  0  0  0
   -9.0890   16.5010    6.1580 C   0  0  0  0  0  0  0  0  0  0  0  0
   -5.5540   14.8900   -0.3380 C   0  0  0  0  0  0  0  0  0  0  0  0
   -4.6960   14.5370    0.6780 C   0  0  0  0  0  0  0  0  0  0  0  0
   -8.7950   16.0280    7.4610 C   0  0  0  0  0  0  0  0  0  0  0  0
   -8.1800   14.8140    7.3010 C   0  0  0  0  0  0  0  0  0  0  0  0
   -3.2320   14.6060    0.5220 C   0  0  0  0  0  0  0  0  0  0  0  0
   -5.1420   15.3600   -1.5830 C   0  0  0  0  0  0  0  0  0  0  0  0
   -5.9240   15.8110   -2.3440 O   0  0  0  0  0  0  0  0  0  0  0  0
   -2.8340   14.8850   -0.8780 C   0  0  0  0  0  0  0  0  0  0  0  0
   -3.6980   15.2330   -1.8380 C   0  0  0  0  0  0  0  0  0  0  0  0
   -2.3100   14.4150    1.4650 N   0  0  0  0  0  0  0  0  0  0  0  0
   -0.9910   14.4390    1.0450 C   0  0  0  0  0  0  0  0  0  0  0  0
   -1.4230   14.7650   -1.2130 C   0  0  0  0  0  0  0  0  0  0  0  0
   -0.0090   14.2630    1.9710 N   0  0  0  0  0  0  0  0  0  0  0  0
   -1.0620   14.8270   -2.3840 O   0  0  0  0  0  0  0  0  0  0  0  0
   -0.5840   14.5960   -0.1710 N   0  0  0  0  0  0  0  0  0  0  0  0
  1  2  1  0
  2  3  2  0
  1  4  1  0
  4  5  1  0
  2  6  1  0
  5  7  1  0
  5  8  2  0
  6  9  1  0
  6 10  2  0
  8 11  1  0
  7 12  1  0
 11 12  2  0
 10 13  1  0
  9 14  1  0
 13 14  2  0
 12 15  1  0
 11 16  1  0
 16 17  2  0
 15 18  1  0
 16 19  1  0
 18 19  2  0
 15 20  2  0
 20 21  1  0
 18 22  1  0
 21 23  1  0
 22 24  2  0
 21 25  2  0
 22 25  1  0
M  END
