diamond-x0950_1_A-mac-x0284
     RDKit          3D

 15 16  0  0  0  0  0  0  0  0999 V2000
    0.5030   13.8490   -3.7510 C   0  0  0  0  0  0  0  0  0  0  0  0
    1.2030   12.4890   -3.8480 C   0  0  2  0  0  0  0  0  0  0  0  0
    0.9620   11.8950   -5.1130 O   0  0  0  0  0  0  0  0  0  0  0  0
   -0.5460   13.5450   -2.6900 C   0  0  0  0  0  0  0  0  0  0  0  0
    0.5550   11.7100   -2.6920 C   0  0  0  0  0  0  0  0  0  0  0  0
   -0.4330   12.4060   -2.1260 N   0  0  0  0  0  0  0  0  0  0  0  0
   -1.7630   14.3030   -2.3060 C   0  0  0  0  0  0  0  0  0  0  0  0
    0.8060   10.5670   -2.3450 O   0  0  0  0  0  0  0  0  0  0  0  0
   -2.0950   14.5650   -0.9530 C   0  0  0  0  0  0  0  0  0  0  0  0
   -2.6270   14.7290   -3.2980 C   0  0  0  0  0  0  0  0  0  0  0  0
   -2.3450   14.5000   -4.6160 O   0  0  0  0  0  0  0  0  0  0  0  0
   -3.2940   15.2390   -0.6260 C   0  0  0  0  0  0  0  0  0  0  0  0
   -3.7990   15.3820   -2.9810 C   0  0  0  0  0  0  0  0  0  0  0  0
   -3.6700   15.5240    0.8010 C   0  0  0  0  0  0  0  0  0  0  0  0
   -4.1380   15.6380   -1.6580 C   0  0  0  0  0  0  0  0  0  0  0  0
  1  2  1  0
  2  3  1  6
  1  4  1  0
  2  5  1  0
  4  6  2  0
  5  6  1  0
  4  7  1  0
  5  8  2  0
  7  9  2  0
  7 10  1  0
 10 11  1  0
  9 12  1  0
 10 13  2  0
 12 14  1  0
 12 15  2  0
 13 15  1  0
M  END
