diamond-x0855_0_A-mac-x0277
     RDKit          3D

 18 19  0  0  0  0  0  0  0  0999 V2000
    2.1920   12.8390   -3.0600 O   0  0  0  0  0  0  0  0  0  0  0  0
    1.0800   12.0930   -3.1560 C   0  0  0  0  0  0  0  0  0  0  0  0
   -0.0310   12.7180   -3.9080 C   0  0  2  0  0  0  0  0  0  0  0  0
    1.0070   10.9990   -2.6430 O   0  0  0  0  0  0  0  0  0  0  0  0
   -0.7240   11.7830   -4.8010 N   0  0  0  0  0  0  0  0  0  0  0  0
   -0.0660   14.1840   -4.2980 C   0  0  0  0  0  0  0  0  0  0  0  0
   -0.2770   10.9940   -5.8320 C   0  0  0  0  0  0  0  0  0  0  0  0
   -2.0500   11.6460   -4.5730 N   0  0  0  0  0  0  0  0  0  0  0  0
   -1.2890   14.5910   -4.7770 C   0  0  0  0  0  0  0  0  0  0  0  0
    0.9840   15.1370   -4.2010 C   0  0  0  0  0  0  0  0  0  0  0  0
   -1.3940   10.3100   -6.2620 C   0  0  0  0  0  0  0  0  0  0  0  0
   -2.4460   10.7490   -5.4650 C   0  0  0  0  0  0  0  0  0  0  0  0
   -1.5280   15.8830   -5.1530 C   0  0  0  0  0  0  0  0  0  0  0  0
    0.7340   16.4730   -4.5890 C   0  0  0  0  0  0  0  0  0  0  0  0
   -1.5510    9.0410   -7.6150 Br  0  0  0  0  0  0  0  0  0  0  0  0
   -3.1130   16.1880   -5.7230 Cl  0  0  0  0  0  0  0  0  0  0  0  0
   -0.5320   16.8390   -5.0630 C   0  0  0  0  0  0  0  0  0  0  0  0
   -0.8410   18.4680   -5.5280 Cl  0  0  0  0  0  0  0  0  0  0  0  0
  1  2  1  0
  3  2  1  6
  2  4  2  0
  3  5  1  0
  3  6  1  0
  5  7  1  0
  5  8  1  0
  6  9  2  0
  6 10  1  0
  7 11  2  0
  8 12  2  0
 11 12  1  0
  9 13  1  0
 10 14  2  0
 11 15  1  0
 13 16  1  0
 13 17  2  0
 14 17  1  0
 17 18  1  0
M  END
