diamond-x0628_0_A-diamond-x0711_0_A
     RDKit          3D

 24 26  0  0  0  0  0  0  0  0999 V2000
   -1.2130    9.0420   -7.2230 C   0  0  0  0  0  0  0  0  0  0  0  0
   -0.9770   10.2510   -6.4120 C   0  0  0  0  0  0  0  0  0  0  0  0
   -1.8830   10.7630   -5.5240 N   0  0  0  0  0  0  0  0  0  0  0  0
    0.1530   10.9370   -6.4900 N   0  0  0  0  0  0  0  0  0  0  0  0
   -0.0320   11.9300   -5.6060 N   0  0  0  0  0  0  0  0  0  0  0  0
   -1.2760   11.8350   -5.0120 C   0  0  0  0  0  0  0  0  0  0  0  0
   -1.9170   12.7190   -3.9760 C   0  0  0  0  0  0  0  0  0  0  0  0
    1.0780   12.8560   -5.4710 C   0  0  0  0  0  0  0  0  0  0  0  0
    1.8210   12.7820   -4.1390 C   0  0  0  0  0  0  0  0  0  0  0  0
   -0.7740   13.8630   -3.2270 S   0  0  2  0  0  0  0  0  0  0  0  0
    0.2200   13.1220   -2.3460 N   0  0  0  0  0  0  0  0  0  0  0  0
    0.9560   12.2080   -3.0390 C   0  0  0  0  0  0  0  0  0  0  0  0
   -1.5040   14.9330   -2.1650 N   0  0  0  0  0  0  0  0  0  0  0  0
   -0.3380   14.8020   -4.2430 O   0  0  0  0  0  0  0  0  0  0  0  0
    0.8670   11.0200   -2.7800 O   0  0  0  0  0  0  0  0  0  0  0  0
   -2.7800   14.8620   -1.6000 C   0  0  0  0  0  0  0  0  0  0  0  0
   -3.9600   15.1250   -2.3120 C   0  0  0  0  0  0  0  0  0  0  0  0
   -2.8760   14.5220   -0.2490 C   0  0  0  0  0  0  0  0  0  0  0  0
   -5.2070   15.0490   -1.6820 C   0  0  0  0  0  0  0  0  0  0  0  0
   -4.1110   14.4440    0.3830 C   0  0  0  0  0  0  0  0  0  0  0  0
   -5.2860   14.7060   -0.3250 C   0  0  0  0  0  0  0  0  0  0  0  0
   -6.5790   14.6080    0.4060 C   0  0  0  0  0  0  0  0  0  0  0  0
   -6.5710   14.6550    1.7800 N   0  0  0  0  0  0  0  0  0  0  0  0
   -7.6400   14.4950   -0.1980 O   0  0  0  0  0  0  0  0  0  0  0  0
  1  2  1  0
  2  3  1  0
  2  4  2  0
  4  5  1  0
  3  6  2  0
  5  6  1  0
  6  7  1  0
  5  8  1  0
  8  9  1  0
  7 10  1  0
 10 11  2  0
  9 12  1  0
 11 12  1  0
 10 13  1  1
 10 14  2  0
 12 15  2  0
 13 16  1  0
 16 17  2  0
 16 18  1  0
 17 19  1  0
 18 20  2  0
 19 21  2  0
 20 21  1  0
 21 22  1  0
 22 23  1  0
 22 24  2  0
M  END
