diamond-x1018_0_A-diamond-x0685_0_A
     RDKit          3D

 15 16  0  0  0  0  0  0  0  0999 V2000
   -8.1670   14.7460   -0.0630 Cl  0  0  0  0  0  0  0  0  0  0  0  0
   -6.4520   14.6280    0.0940 C   0  0  0  0  0  0  0  0  0  0  0  0
   -5.7950   14.7000    1.3110 C   0  0  0  0  0  0  0  0  0  0  0  0
   -5.5550   14.4400   -1.0450 N   0  0  0  0  0  0  0  0  0  0  0  0
   -6.4240   14.8840    2.5490 N   0  0  0  0  0  0  0  0  0  0  0  0
   -5.7660   14.5530   -2.3510 C   0  0  0  0  0  0  0  0  0  0  0  0
   -4.3500   15.1490   -0.8810 N   0  0  0  0  0  0  0  0  0  0  0  0
   -4.3200   14.5720    1.3300 C   0  0  0  0  0  0  0  0  0  0  0  0
   -7.8480   14.8830    2.8280 C   0  0  0  0  0  0  0  0  0  0  0  0
   -5.7720   14.6570   -3.5040 N   0  0  0  0  0  0  0  0  0  0  0  0
   -3.5220   15.2470   -1.9680 N   0  0  0  0  0  0  0  0  0  0  0  0
   -3.6640   14.8030    0.1960 C   0  0  0  0  0  0  0  0  0  0  0  0
   -8.2830   13.4480    3.0360 C   0  0  0  0  0  0  0  0  0  0  0  0
   -2.3830   14.7790   -0.2230 N   0  0  0  0  0  0  0  0  0  0  0  0
   -2.4210   14.7170   -1.6090 N   0  0  0  0  0  0  0  0  0  0  0  0
  1  2  1  0
  2  3  2  0
  2  4  1  0
  3  5  1  0
  4  6  1  0
  4  7  1  0
  3  8  1  0
  5  9  1  0
  6 10  3  0
  7 11  1  0
  7 12  1  0
  8 12  2  0
  9 13  1  0
 12 14  1  0
 11 15  2  0
 14 15  1  0
M  END
