diamond-x0724_0_A-diamond-x1018_0_A
     RDKit          3D

 19 21  0  0  0  0  0  0  0  0999 V2000
   -8.3580   13.6700    4.0500 N   0  0  0  0  0  0  0  0  0  0  0  0
   -8.1700   13.7740    5.4950 C   0  0  0  0  0  0  0  0  0  0  0  0
   -9.0520   14.8520    3.5390 C   0  0  0  0  0  0  0  0  0  0  0  0
   -8.7710   15.0480    2.0810 C   0  0  0  0  0  0  0  0  0  0  0  0
   -7.5820   14.9580    1.4060 C   0  0  0  0  0  0  0  0  0  0  0  0
   -9.6890   15.3880    1.0610 C   0  0  0  0  0  0  0  0  0  0  0  0
   -9.1350   15.5190   -0.1520 N   0  0  0  0  0  0  0  0  0  0  0  0
   -7.8480   15.2640    0.0690 N   0  0  0  0  0  0  0  0  0  0  0  0
   -6.8360   15.3090   -0.9770 C   0  0  0  0  0  0  0  0  0  0  0  0
   -5.9620   14.4750   -0.1910 C   0  0  0  0  0  0  0  0  0  0  0  0
   -6.6000   13.4680    0.2550 N   0  0  0  0  0  0  0  0  0  0  0  0
   -4.5760   14.7280    0.2040 C   0  0  0  0  0  0  0  0  0  0  0  0
   -3.8020   13.4920    0.2900 C   0  0  1  0  0  0  0  0  0  0  0  0
   -3.8580   15.7920    0.5370 C   0  0  0  0  0  0  0  0  0  0  0  0
   -5.9360   12.7350    1.1490 C   0  0  0  0  0  0  0  0  0  0  0  0
   -6.9960   11.8680    2.2010 Cl  0  0  0  0  0  0  0  0  0  0  0  0
   -2.4550   14.0100    0.6870 C   0  0  0  0  0  0  0  0  0  0  0  0
   -2.5190   15.3220    0.8280 C   0  0  0  0  0  0  0  0  0  0  0  0
   -4.6110   12.6970    1.2540 C   0  0  0  0  0  0  0  0  0  0  0  0
  1  2  1  0
  1  3  1  0
  3  4  1  0
  4  5  2  0
  4  6  1  0
  6  7  2  0
  5  8  1  0
  7  8  1  0
  8  9  1  0
  9 10  1  0
 10 11  2  0
 10 12  1  0
 12 13  1  0
 12 14  2  0
 11 15  1  0
 15 16  1  0
 13 17  1  1
 14 18  1  0
 17 18  2  0
 13 19  1  0
 15 19  2  0
M  END
