diamond-x0926_0_A-diamond-x1012_0_A
     RDKit          3D

 21 22  0  0  0  0  0  0  0  0999 V2000
   -6.9890   14.9550   -0.1840 O   0  0  0  0  0  0  0  0  0  0  0  0
   -5.7720   15.1410   -0.1160 C   0  0  0  0  0  0  0  0  0  0  0  0
   -4.9760   14.9070    1.1630 C   0  0  0  0  0  0  0  0  0  0  0  0
   -5.0960   15.5570   -1.2130 N   0  0  0  0  0  0  0  0  0  0  0  0
   -3.7710   15.1760   -1.3490 N   0  0  0  0  0  0  0  0  0  0  0  0
   -3.4950   14.9140    0.9880 C   0  0  0  0  0  0  0  0  0  0  0  0
   -3.5270   14.5000   -2.6160 C   0  0  0  0  0  0  0  0  0  0  0  0
   -2.9820   15.0400   -0.2320 C   0  0  0  0  0  0  0  0  0  0  0  0
   -3.5400   15.5150   -3.7550 C   0  0  0  0  0  0  0  0  0  0  0  0
   -2.2480   15.4420   -4.3510 N   0  0  0  0  0  0  0  0  0  0  0  0
   -1.4060   16.2900   -4.7670 C   0  0  0  0  0  0  0  0  0  0  0  0
   -1.3740   17.6610   -4.8520 N   0  0  0  0  0  0  0  0  0  0  0  0
   -0.3200   15.6200   -5.2020 N   0  0  0  0  0  0  0  0  0  0  0  0
   -0.6060   14.1960   -5.4990 C   0  0  0  0  0  0  0  0  0  0  0  0
    0.9320   15.8170   -4.4710 C   0  0  0  0  0  0  0  0  0  0  0  0
   -0.8440   13.3550   -4.2590 C   0  0  0  0  0  0  0  0  0  0  0  0
    1.2910   14.5720   -3.6470 C   0  0  0  0  0  0  0  0  0  0  0  0
    0.0520   13.8200   -3.1300 C   0  0  0  0  0  0  0  0  0  0  0  0
    0.4100   12.6520   -2.2200 C   0  0  0  0  0  0  0  0  0  0  0  0
    0.4750   11.4420   -2.8290 O   0  0  0  0  0  0  0  0  0  0  0  0
    0.6040   12.7740   -1.0310 O   0  0  0  0  0  0  0  0  0  0  0  0
  1  2  2  0
  2  3  1  0
  2  4  1  0
  4  5  1  0
  3  6  1  0
  5  7  1  0
  5  8  1  0
  6  8  2  0
  7  9  1  0
  9 10  1  0
 10 11  2  3
 11 12  1  0
 11 13  1  0
 13 14  1  0
 13 15  1  0
 14 16  1  0
 15 17  1  0
 16 18  1  0
 17 18  1  0
 18 19  1  0
 19 20  1  0
 19 21  2  0
M  END
