diamond-x0950_0_A-mac-x0385
     RDKit          3D

 17 17  0  0  0  0  0  0  0  0999 V2000
    3.0790   12.3570   -4.4930 C   0  0  0  0  0  0  0  0  0  0  0  0
    1.6010   12.6740   -4.6300 C   0  0  1  0  0  0  0  0  0  0  0  0
    1.0990   12.0570   -5.8140 O   0  0  0  0  0  0  0  0  0  0  0  0
    0.8140   12.2090   -3.4100 C   0  0  0  0  0  0  0  0  0  0  0  0
    0.5820   11.0290   -3.1460 O   0  0  0  0  0  0  0  0  0  0  0  0
    0.4300   13.2770   -2.6820 O   0  0  0  0  0  0  0  0  0  0  0  0
    1.1170   13.4050   -1.4570 C   0  0  0  0  0  0  0  0  0  0  0  0
    0.9280   14.7350   -0.7600 C   0  0  0  0  0  0  0  0  0  0  0  0
    0.1550   14.6290    0.5600 C   0  0  0  0  0  0  0  0  0  0  0  0
   -1.2800   14.8530    0.3120 C   0  0  0  0  0  0  0  0  0  0  0  0
   -2.0860   15.1690    1.3400 N   0  0  0  0  0  0  0  0  0  0  0  0
   -1.6480   14.7240   -0.9710 N   0  0  0  0  0  0  0  0  0  0  0  0
   -3.3710   15.3820    1.0050 C   0  0  0  0  0  0  0  0  0  0  0  0
   -2.9330   14.9430   -1.2440 C   0  0  0  0  0  0  0  0  0  0  0  0
   -4.2150   15.7230    2.0520 N   0  0  0  0  0  0  0  0  0  0  0  0
   -3.8550   15.2830   -0.2930 C   0  0  0  0  0  0  0  0  0  0  0  0
   -5.2760   15.5250   -0.6640 C   0  0  0  0  0  0  0  0  0  0  0  0
  2  1  1  1
  2  3  1  0
  2  4  1  0
  4  5  2  0
  4  6  1  0
  6  7  1  0
  7  8  1  0
  8  9  1  0
  9 10  1  0
 10 11  2  0
 10 12  1  0
 11 13  1  0
 12 14  2  0
 13 15  1  0
 13 16  2  0
 14 16  1  0
 16 17  1  0
M  END
