diamond-x0685_0_A-diamond-x0905_0_A
     RDKit          3D

 12 12  0  0  0  0  0  0  0  0999 V2000
   -6.0520   14.9540    2.7350 N   0  0  0  0  0  0  0  0  0  0  0  0
   -7.4880   14.7100    2.7750 C   0  0  0  0  0  0  0  0  0  0  0  0
   -7.7480   13.2260    2.9560 C   0  0  0  0  0  0  0  0  0  0  0  0
   -5.3950   14.9660    1.5150 C   0  0  0  0  0  0  0  0  0  0  0  0
   -4.0100   15.0570    1.3910 C   0  0  0  0  0  0  0  0  0  0  0  0
   -6.2010   14.8950    0.4500 N   0  0  0  0  0  0  0  0  0  0  0  0
   -3.4400   15.0870    0.1230 C   0  0  0  0  0  0  0  0  0  0  0  0
   -5.6310   14.9290   -0.7560 C   0  0  0  0  0  0  0  0  0  0  0  0
   -6.5690   14.8560   -1.7290 O   0  0  0  0  0  0  0  0  0  0  0  0
   -4.2660   15.0270   -0.9960 C   0  0  0  0  0  0  0  0  0  0  0  0
   -3.7050   15.0660   -2.3090 C   0  0  0  0  0  0  0  0  0  0  0  0
   -3.2110   15.1540   -3.3570 N   0  0  0  0  0  0  0  0  0  0  0  0
  1  2  1  0
  2  3  1  0
  1  4  1  0
  4  5  2  0
  4  6  1  0
  5  7  1  0
  6  8  2  0
  8  9  1  0
  7 10  2  0
  8 10  1  0
 10 11  1  0
 11 12  3  0
M  END
