diamond-x0253_0_A-diamond-x0950_1_A
     RDKit          3D

 15 15  0  0  0  0  0  0  0  0999 V2000
    0.2480   11.8020   -5.4200 N   0  0  0  0  0  0  0  0  0  0  0  0
    1.0530   11.6140   -6.5210 C   0  0  0  0  0  0  0  0  0  0  0  0
    2.1610   12.1090   -6.6030 O   0  0  0  0  0  0  0  0  0  0  0  0
    0.4680   12.8830   -4.4590 C   0  0  1  0  0  0  0  0  0  0  0  0
    0.7110   12.2890   -3.0740 C   0  0  0  0  0  0  0  0  0  0  0  0
    1.6110   13.7890   -4.8640 C   0  0  0  0  0  0  0  0  0  0  0  0
    0.4850   10.7280   -7.5860 C   0  0  0  0  0  0  0  0  0  0  0  0
    1.2600   12.8600   -2.1430 O   0  0  0  0  0  0  0  0  0  0  0  0
    0.2560   11.0320   -2.9260 O   0  0  0  0  0  0  0  0  0  0  0  0
   -0.4860    9.8080   -7.1820 C   0  0  0  0  0  0  0  0  0  0  0  0
    0.8660   10.7710   -8.9360 C   0  0  0  0  0  0  0  0  0  0  0  0
   -1.0830    8.9370   -8.1030 C   0  0  0  0  0  0  0  0  0  0  0  0
    0.2760    9.9030   -9.8580 C   0  0  0  0  0  0  0  0  0  0  0  0
   -2.1290    7.9610   -7.6510 C   0  0  0  0  0  0  0  0  0  0  0  0
   -0.6930    8.9930   -9.4460 C   0  0  0  0  0  0  0  0  0  0  0  0
  1  2  1  0
  2  3  2  0
  1  4  1  0
  4  5  1  0
  4  6  1  6
  2  7  1  0
  5  8  2  0
  5  9  1  0
  7 10  2  0
  7 11  1  0
 10 12  1  0
 11 13  2  0
 12 14  1  0
 12 15  2  0
 13 15  1  0
M  END
