diamond-x0574_0_A-mac-x1493
     RDKit          3D

 19 21  0  0  0  0  0  0  0  0999 V2000
   -0.0090   15.0050    1.3380 N   0  0  0  0  0  0  0  0  0  0  0  0
   -1.0060   14.0180    1.4440 C   0  0  1  0  0  0  0  0  0  0  0  0
   -2.2820   14.6250    1.9310 N   0  0  0  0  0  0  0  0  0  0  0  0
   -1.2560   13.5190   -0.2500 S   0  0  0  0  0  0  0  0  0  0  0  0
   -3.3660   14.2710    0.9910 C   0  0  2  0  0  0  0  0  0  0  0  0
   -2.5850   14.7320   -0.1920 C   0  0  2  0  0  0  0  0  0  0  0  0
   -4.7690   15.0070    0.9720 C   0  0  1  0  0  0  0  0  0  0  0  0
   -3.3690   15.0550   -1.4410 C   0  0  1  0  0  0  0  0  0  0  0  0
   -2.4550   14.8160   -2.6390 C   0  0  0  0  0  0  0  0  0  0  0  0
   -5.5220   14.2730   -0.1730 C   0  0  1  0  0  0  0  0  0  0  0  0
   -4.7160   14.3020   -1.4950 C   0  0  0  0  0  0  0  0  0  0  0  0
   -5.7360   14.9610    2.1640 C   0  0  0  0  0  0  0  0  0  0  0  0
   -5.6790   12.9710    0.3960 O   0  0  0  0  0  0  0  0  0  0  0  0
   -1.1810   14.5460   -2.2830 O   0  0  0  0  0  0  0  0  0  0  0  0
   -2.7790   14.8620   -3.8130 O   0  0  0  0  0  0  0  0  0  0  0  0
   -7.0910   14.9000    1.9990 C   0  0  0  0  0  0  0  0  0  0  0  0
   -6.9460   14.6560   -0.3690 C   0  0  0  0  0  0  0  0  0  0  0  0
   -6.0500   12.8950    1.7810 C   0  0  0  0  0  0  0  0  0  0  0  0
   -7.6890   14.9240    0.6840 C   0  0  0  0  0  0  0  0  0  0  0  0
  2  1  1  6
  2  3  1  0
  2  4  1  0
  5  3  1  1
  6  4  1  6
  5  6  1  0
  5  7  1  0
  6  8  1  0
  8  9  1  6
  7 10  1  0
  8 11  1  0
 10 11  1  0
  7 12  1  1
 10 13  1  1
  9 14  1  0
  9 15  2  0
 12 16  2  0
 10 17  1  0
 13 18  1  0
 16 19  1  0
 17 19  2  0
M  END
