diamond-x0159_0_B-mac-x0437
     RDKit          3D

 33 37  0  0  0  0  0  0  0  0999 V2000
    1.2890    9.2300  -10.2890 N   0  0  0  0  0  0  0  0  0  0  0  0
    0.9900    8.0150   -9.5270 C   0  0  1  0  0  0  0  0  0  0  0  0
    1.6260    6.7060   -9.9860 C   0  0  0  0  0  0  0  0  0  0  0  0
    2.1460    9.4020  -11.3010 C   0  0  0  0  0  0  0  0  0  0  0  0
    1.3110    8.3540   -8.1000 C   0  0  0  0  0  0  0  0  0  0  0  0
    2.0200   10.5360  -12.0400 N   0  0  0  0  0  0  0  0  0  0  0  0
    3.1300    8.6460  -11.7260 N   0  0  0  0  0  0  0  0  0  0  0  0
    3.6620    9.3460  -12.7930 C   0  0  0  0  0  0  0  0  0  0  0  0
    2.9720   10.5370  -13.0020 C   0  0  0  0  0  0  0  0  0  0  0  0
    1.7520    5.6270   -8.9290 C   0  0  0  0  0  0  0  0  0  0  0  0
    0.2430    9.1080   -7.4340 C   0  0  0  0  0  0  0  0  0  0  0  0
    2.5970    4.5600   -9.2080 C   0  0  0  0  0  0  0  0  0  0  0  0
    1.0660    5.6500   -7.6920 C   0  0  0  0  0  0  0  0  0  0  0  0
    3.2720   11.4570  -14.0000 C   0  0  0  0  0  0  0  0  0  0  0  0
    4.7350    9.0410  -13.6410 C   0  0  0  0  0  0  0  0  0  0  0  0
   -0.9870    8.4940   -7.3000 C   0  0  0  0  0  0  0  0  0  0  0  0
    0.4880   10.3980   -6.9440 C   0  0  0  0  0  0  0  0  0  0  0  0
    2.7720    3.5390   -8.3000 C   0  0  0  0  0  0  0  0  0  0  0  0
    1.2490    4.6160   -6.7760 C   0  0  0  0  0  0  0  0  0  0  0  0
    4.3420   11.1360  -14.8320 C   0  0  0  0  0  0  0  0  0  0  0  0
    5.0620    9.9510  -14.6580 C   0  0  0  0  0  0  0  0  0  0  0  0
   -0.5520   11.0190   -6.2820 C   0  0  0  0  0  0  0  0  0  0  0  0
   -2.0230    9.1330   -6.6540 C   0  0  0  0  0  0  0  0  0  0  0  0
    2.1090    3.5700   -7.0990 C   0  0  0  0  0  0  0  0  0  0  0  0
   -0.6900   12.2290   -5.6530 N   0  0  0  0  0  0  0  0  0  0  0  0
   -1.7950   10.4080   -6.1330 C   0  0  0  0  0  0  0  0  0  0  0  0
    0.3080   13.2740   -5.5010 C   0  0  0  0  0  0  0  0  0  0  0  0
   -1.9660   12.2940   -5.1710 C   0  0  0  0  0  0  0  0  0  0  0  0
   -2.6540   11.2110   -5.4470 N   0  0  0  0  0  0  0  0  0  0  0  0
    1.5060   12.9000   -4.6290 C   0  0  0  0  0  0  0  0  0  0  0  0
    1.1440   12.2400   -3.3180 C   0  0  0  0  0  0  0  0  0  0  0  0
    1.5540   12.9290   -2.2390 O   0  0  0  0  0  0  0  0  0  0  0  0
    0.5390   11.1930   -3.1680 O   0  0  0  0  0  0  0  0  0  0  0  0
  1  2  1  0
  2  3  1  6
  1  4  1  0
  2  5  1  0
  4  6  1  0
  4  7  2  0
  7  8  1  0
  6  9  1  0
  8  9  2  0
  3 10  1  0
  5 11  1  0
 10 12  2  0
 10 13  1  0
  9 14  1  0
  8 15  1  0
 11 16  2  0
 11 17  1  0
 12 18  1  0
 13 19  2  0
 14 20  2  0
 15 21  2  0
 20 21  1  0
 17 22  2  0
 16 23  1  0
 18 24  2  0
 19 24  1  0
 22 25  1  0
 22 26  1  0
 23 26  2  0
 25 27  1  0
 25 28  1  0
 26 29  1  0
 28 29  2  0
 27 30  1  0
 30 31  1  0
 31 32  1  0
 31 33  2  0
M  END
