diamond-x0742_0_A-mac-x0319
     RDKit          3D

 28 31  0  0  0  0  0  0  0  0999 V2000
   -5.4990   12.2640   -0.5330 C   0  0  0  0  0  0  0  0  0  0  0  0
   -6.5650   11.5650    0.2700 C   0  0  0  0  0  0  0  0  0  0  0  0
   -4.9210   11.6770   -1.4540 O   0  0  0  0  0  0  0  0  0  0  0  0
   -5.2080   13.7250   -0.1610 C   0  0  2  0  0  0  0  0  0  0  0  0
   -4.9150   13.8340    1.3540 C   0  0  0  0  0  0  0  0  0  0  0  0
   -6.4790   14.5500   -0.5030 C   0  0  0  0  0  0  0  0  0  0  0  0
   -4.0800   14.3020   -1.0700 C   0  0  1  0  0  0  0  0  0  0  0  0
   -4.5650   15.7130   -1.3330 C   0  0  0  0  0  0  0  0  0  0  0  0
   -2.7230   14.1900   -0.4180 C   0  0  0  0  0  0  0  0  0  0  0  0
   -3.8560   14.8920    1.6590 C   0  0  0  0  0  0  0  0  0  0  0  0
   -6.0620   15.6130   -1.5020 C   0  0  0  0  0  0  0  0  0  0  0  0
   -1.5840   13.8070   -1.0870 C   0  0  0  0  0  0  0  0  0  0  0  0
   -2.6140   14.4880    0.9440 C   0  0  0  0  0  0  0  0  0  0  0  0
   -1.4740   14.4320    1.6570 N   0  0  0  0  0  0  0  0  0  0  0  0
   -0.3970   13.7250   -0.3980 C   0  0  0  0  0  0  0  0  0  0  0  0
    0.8310   13.2760   -1.1090 C   0  0  0  0  0  0  0  0  0  0  0  0
   -0.3920   14.0480    0.9620 C   0  0  0  0  0  0  0  0  0  0  0  0
    0.8820   13.4070   -2.5110 N   0  0  0  0  0  0  0  0  0  0  0  0
    0.9100   12.3210   -3.2020 C   0  0  0  0  0  0  0  0  0  0  0  0
    0.8680   11.0520   -2.7390 O   0  0  0  0  0  0  0  0  0  0  0  0
    0.9740   12.5570   -4.6600 C   0  0  0  0  0  0  0  0  0  0  0  0
    0.3880   13.9340   -4.6980 C   0  0  0  0  0  0  0  0  0  0  0  0
    1.1540   15.0940   -4.4930 C   0  0  0  0  0  0  0  0  0  0  0  0
   -0.9870   14.0610   -4.9180 C   0  0  0  0  0  0  0  0  0  0  0  0
    0.5460   16.3430   -4.5100 C   0  0  0  0  0  0  0  0  0  0  0  0
   -1.5850   15.3180   -4.9350 C   0  0  0  0  0  0  0  0  0  0  0  0
    1.2560   17.4850   -4.3060 O   0  0  0  0  0  0  0  0  0  0  0  0
   -0.8160   16.4600   -4.7300 C   0  0  0  0  0  0  0  0  0  0  0  0
  1  2  1  0
  1  3  2  0
  4  1  1  6
  4  5  1  0
  4  6  1  0
  4  7  1  0
  7  8  1  1
  7  9  1  0
  5 10  1  0
  6 11  1  0
  8 11  1  0
  9 12  1  0
  9 13  2  0
 10 13  1  0
 13 14  1  0
 12 15  2  0
 15 16  1  0
 14 17  2  0
 15 17  1  0
 16 18  1  0
 18 19  2  3
 19 20  1  0
 19 21  1  0
 21 22  1  0
 22 23  2  0
 22 24  1  0
 23 25  1  0
 24 26  2  0
 25 27  1  0
 25 28  2  0
 26 28  1  0
M  END
