diamond-x0962_2_B-mac-x0131
     RDKit          3D

 27 30  0  0  0  0  0  0  0  0999 V2000
  -11.1170   16.1620    1.3670 N   0  0  0  0  0  0  0  0  0  0  0  0
  -10.2070   15.9090    2.0350 C   0  0  0  0  0  0  0  0  0  0  0  0
   -9.0380   15.5860    2.7780 C   0  0  0  0  0  0  0  0  0  0  0  0
   -8.8160   15.9990    4.0710 N   0  0  0  0  0  0  0  0  0  0  0  0
   -7.9950   14.8380    2.3090 C   0  0  0  0  0  0  0  0  0  0  0  0
   -7.6330   15.5020    4.3810 C   0  0  0  0  0  0  0  0  0  0  0  0
   -7.0990   14.7960    3.3280 N   0  0  0  0  0  0  0  0  0  0  0  0
   -5.8160   14.1030    3.2590 C   0  0  0  0  0  0  0  0  0  0  0  0
   -4.5750   14.9850    2.8910 C   0  0  0  0  0  0  0  0  0  0  0  0
   -4.3030   15.0650    1.4440 N   0  0  0  0  0  0  0  0  0  0  0  0
   -3.0000   14.9350    0.8710 C   0  0  0  0  0  0  0  0  0  0  0  0
   -2.8580   14.9820   -0.5390 C   0  0  0  0  0  0  0  0  0  0  0  0
   -1.8620   14.7620    1.6110 N   0  0  0  0  0  0  0  0  0  0  0  0
   -3.7530   15.1370   -1.6490 C   0  0  0  0  0  0  0  0  0  0  0  0
   -1.5750   14.8550   -1.0740 C   0  0  0  0  0  0  0  0  0  0  0  0
   -0.6720   14.6650    0.9570 C   0  0  0  0  0  0  0  0  0  0  0  0
   -5.2280   15.3150   -1.5460 C   0  0  0  0  0  0  0  0  0  0  0  0
   -2.9940   15.0900   -2.8170 C   0  0  0  0  0  0  0  0  0  0  0  0
   -1.6650   14.9180   -2.4530 N   0  0  0  0  0  0  0  0  0  0  0  0
   -0.4410   14.7000   -0.3680 N   0  0  0  0  0  0  0  0  0  0  0  0
   -3.4370   15.1940   -4.2370 C   0  0  0  0  0  0  0  0  0  0  0  0
   -0.5090   14.8120   -3.3570 C   0  0  0  0  0  0  0  0  0  0  0  0
   -0.3280   13.3850   -3.7130 C   0  0  0  0  0  0  0  0  0  0  0  0
    0.4980   12.3750   -3.2600 C   0  0  0  0  0  0  0  0  0  0  0  0
   -1.1450   12.9000   -4.6930 O   0  0  0  0  0  0  0  0  0  0  0  0
   -0.8520   11.5880   -4.8560 C   0  0  0  0  0  0  0  0  0  0  0  0
    0.1410   11.2200   -3.9980 C   0  0  0  0  0  0  0  0  0  0  0  0
  1  2  3  0
  2  3  1  0
  3  4  1  0
  3  5  2  0
  4  6  2  0
  5  7  1  0
  6  7  1  0
  7  8  1  0
  8  9  1  0
  9 10  1  0
 10 11  1  0
 11 12  1  0
 11 13  2  0
 12 14  1  0
 12 15  2  0
 13 16  1  0
 14 17  1  0
 14 18  2  0
 15 19  1  0
 18 19  1  0
 15 20  1  0
 16 20  2  0
 18 21  1  0
 19 22  1  0
 22 23  1  0
 23 24  2  0
 23 25  1  0
 25 26  1  0
 24 27  1  0
 26 27  2  0
M  END
