diamond-x0574_0_A-mac-x0360
     RDKit          3D

 24 26  0  0  0  0  0  0  0  0999 V2000
    0.2490   14.0170    2.2160 N   0  0  0  0  0  0  0  0  0  0  0  0
   -0.6600   14.5080    1.4350 C   0  0  0  0  0  0  0  0  0  0  0  0
   -1.8370   14.2930    1.7550 N   0  0  0  0  0  0  0  0  0  0  0  0
   -0.3990   15.4310    0.0050 S   0  0  0  0  0  0  0  0  0  0  0  0
   -2.6430   14.8710    0.8400 C   0  0  0  0  0  0  0  0  0  0  0  0
   -2.1040   15.5340   -0.1910 C   0  0  0  0  0  0  0  0  0  0  0  0
   -3.9550   14.7940    0.8920 C   0  0  0  0  0  0  0  0  0  0  0  0
   -2.9580   16.1080   -1.1440 C   0  0  0  0  0  0  0  0  0  0  0  0
   -4.4620   14.0090    1.7960 N   0  0  0  0  0  0  0  0  0  0  0  0
   -4.8930   15.3340    0.0680 C   0  0  0  0  0  0  0  0  0  0  0  0
   -4.3720   16.0050   -0.9880 C   0  0  0  0  0  0  0  0  0  0  0  0
   -6.2450   15.0960    0.4000 O   0  0  0  0  0  0  0  0  0  0  0  0
   -4.5390   13.5760    0.3080 S   0  0  2  0  0  0  0  0  0  0  0  0
   -6.5910   14.7200    1.7530 C   0  0  0  0  0  0  0  0  0  0  0  0
   -2.9380   13.3600   -0.1850 N   0  0  0  0  0  0  0  0  0  0  0  0
   -4.8690   14.4940   -0.7650 O   0  0  0  0  0  0  0  0  0  0  0  0
   -5.4360   12.2320   -0.0670 C   0  0  0  0  0  0  0  0  0  0  0  0
   -5.0810   11.5150   -1.1920 C   0  0  0  0  0  0  0  0  0  0  0  0
   -6.4640   11.9500    0.7580 C   0  0  0  0  0  0  0  0  0  0  0  0
   -5.8440   10.4220   -1.4950 C   0  0  0  0  0  0  0  0  0  0  0  0
   -7.2180   10.8720    0.4540 C   0  0  0  0  0  0  0  0  0  0  0  0
   -8.5280   10.5120    1.4980 Cl  0  0  0  0  0  0  0  0  0  0  0  0
   -5.4550    9.4770   -2.8720 Cl  0  0  0  0  0  0  0  0  0  0  0  0
   -6.9270   10.0900   -0.6730 C   0  0  0  0  0  0  0  0  0  0  0  0
  1  2  1  0
  2  3  2  0
  2  4  1  0
  3  5  1  0
  4  6  1  0
  5  6  2  0
  5  7  1  0
  6  8  1  0
  7  9  1  0
  7 10  2  0
  8 11  2  0
 10 11  1  0
 10 12  1  0
  9 13  2  0
 12 14  1  0
 13 15  1  6
 13 16  2  0
 13 17  1  0
 17 18  2  0
 17 19  1  0
 18 20  1  0
 19 21  2  0
 21 22  1  0
 20 23  1  0
 20 24  2  0
 21 24  1  0
M  END
