diamond-x0159_0_B-mac-x0179
     RDKit          3D

 34 38  0  0  0  0  0  0  0  0999 V2000
    1.2900    9.1280  -10.3310 N   0  0  0  0  0  0  0  0  0  0  0  0
    1.6450    8.1070   -9.3670 C   0  0  2  0  0  0  0  0  0  0  0  0
    0.9170    6.7690   -9.6060 C   0  0  0  0  0  0  0  0  0  0  0  0
    2.1340    9.3800  -11.3360 C   0  0  0  0  0  0  0  0  0  0  0  0
    1.4010    8.6870   -7.9760 C   0  0  0  0  0  0  0  0  0  0  0  0
    1.9770   10.5360  -12.0380 N   0  0  0  0  0  0  0  0  0  0  0  0
    3.1430    8.6700  -11.7870 N   0  0  0  0  0  0  0  0  0  0  0  0
    3.6550    9.4050  -12.8290 C   0  0  0  0  0  0  0  0  0  0  0  0
    2.9360   10.5830  -13.0030 C   0  0  0  0  0  0  0  0  0  0  0  0
    1.3400    5.6550   -8.6860 C   0  0  0  0  0  0  0  0  0  0  0  0
    0.0280    9.0170   -7.5400 C   0  0  0  0  0  0  0  0  0  0  0  0
    2.2760    4.7210   -9.1340 C   0  0  0  0  0  0  0  0  0  0  0  0
    0.8260    5.5310   -7.3900 C   0  0  0  0  0  0  0  0  0  0  0  0
    3.2210   11.5310  -13.9800 C   0  0  0  0  0  0  0  0  0  0  0  0
    4.7360    9.1390  -13.6770 C   0  0  0  0  0  0  0  0  0  0  0  0
   -0.2170   10.1740   -6.8260 C   0  0  0  0  0  0  0  0  0  0  0  0
   -1.0610    8.1770   -7.8030 C   0  0  0  0  0  0  0  0  0  0  0  0
    2.6970    3.6860   -8.3200 C   0  0  0  0  0  0  0  0  0  0  0  0
    1.2500    4.4910   -6.5770 C   0  0  0  0  0  0  0  0  0  0  0  0
    4.3000   11.2490  -14.8180 C   0  0  0  0  0  0  0  0  0  0  0  0
    5.0470   10.0760  -14.6730 C   0  0  0  0  0  0  0  0  0  0  0  0
    0.6550   11.2840   -6.4010 C   0  0  0  0  0  0  0  0  0  0  0  0
   -1.4710   10.4730   -6.3520 C   0  0  0  0  0  0  0  0  0  0  0  0
   -2.3450    8.4970   -7.3380 C   0  0  0  0  0  0  0  0  0  0  0  0
    1.7710   11.5460   -6.7960 O   0  0  0  0  0  0  0  0  0  0  0  0
    2.1880    3.5720   -7.0450 C   0  0  0  0  0  0  0  0  0  0  0  0
   -0.0330   11.9840   -5.4810 N   0  0  0  0  0  0  0  0  0  0  0  0
   -1.3640   11.7260   -5.6040 C   0  0  0  0  0  0  0  0  0  0  0  0
   -2.5640    9.6570   -6.5930 C   0  0  0  0  0  0  0  0  0  0  0  0
    0.5740   12.8590   -4.4960 C   0  0  0  0  0  0  0  0  0  0  0  0
   -2.3020   12.3560   -5.1870 O   0  0  0  0  0  0  0  0  0  0  0  0
    0.8220   12.1690   -3.1600 C   0  0  0  0  0  0  0  0  0  0  0  0
    1.3810   12.9450   -2.2050 O   0  0  0  0  0  0  0  0  0  0  0  0
    0.5470   10.9990   -2.9390 O   0  0  0  0  0  0  0  0  0  0  0  0
  1  2  1  0
  2  3  1  6
  1  4  1  0
  2  5  1  0
  4  6  1  0
  4  7  2  0
  7  8  1  0
  6  9  1  0
  8  9  2  0
  3 10  1  0
  5 11  1  0
 10 12  2  0
 10 13  1  0
  9 14  1  0
  8 15  1  0
 11 16  1  0
 11 17  2  0
 12 18  1  0
 13 19  2  0
 14 20  2  0
 15 21  2  0
 20 21  1  0
 16 22  1  0
 16 23  2  0
 17 24  1  0
 22 25  2  0
 18 26  2  0
 19 26  1  0
 22 27  1  0
 23 28  1  0
 27 28  1  0
 23 29  1  0
 24 29  2  0
 27 30  1  0
 28 31  2  0
 30 32  1  0
 32 33  1  0
 32 34  2  0
M  END
