diamond-x0900_1_A-mac-x0404
     RDKit          3D

 23 25  0  0  0  0  0  0  0  0999 V2000
   -0.8460    9.9890   -9.7480 O   0  0  0  0  0  0  0  0  0  0  0  0
   -0.9260    9.6140   -8.5920 C   0  0  0  0  0  0  0  0  0  0  0  0
    0.1300    9.3690   -7.7340 N   0  0  0  0  0  0  0  0  0  0  0  0
   -2.1830    9.3230   -7.8260 C   0  0  0  0  0  0  0  0  0  0  0  0
   -1.7210    8.1870   -6.9200 C   0  0  0  0  0  0  0  0  0  0  0  0
   -0.2680    8.5430   -6.6150 C   0  0  2  0  0  0  0  0  0  0  0  0
   -0.1250    9.1740   -5.2340 C   0  0  0  0  0  0  0  0  0  0  0  0
    0.4450   10.5770   -5.1460 C   0  0  0  0  0  0  0  0  0  0  0  0
    0.5930   10.8930   -3.7150 N   0  0  0  0  0  0  0  0  0  0  0  0
    1.1840   11.9810   -3.4280 C   0  0  0  0  0  0  0  0  0  0  0  0
    1.3000   12.3030   -2.1240 O   0  0  0  0  0  0  0  0  0  0  0  0
    1.7910   12.9990   -4.3710 C   0  0  0  0  0  0  0  0  0  0  0  0
    1.2810   14.3070   -4.3040 O   0  0  0  0  0  0  0  0  0  0  0  0
   -0.0150   14.5930   -4.6720 C   0  0  0  0  0  0  0  0  0  0  0  0
   -0.2250   15.9480   -4.9580 C   0  0  0  0  0  0  0  0  0  0  0  0
   -1.0810   13.7000   -4.7790 C   0  0  0  0  0  0  0  0  0  0  0  0
   -1.4960   16.4150   -5.3420 C   0  0  0  0  0  0  0  0  0  0  0  0
   -2.3480   14.1590   -5.1560 C   0  0  0  0  0  0  0  0  0  0  0  0
    0.8280   16.8590   -4.8710 C   0  0  0  0  0  0  0  0  0  0  0  0
   -2.5600   15.5080   -5.4330 C   0  0  0  0  0  0  0  0  0  0  0  0
   -1.6730   17.7720   -5.6320 C   0  0  0  0  0  0  0  0  0  0  0  0
    0.6510   18.2000   -5.1630 C   0  0  0  0  0  0  0  0  0  0  0  0
   -0.6040   18.6570   -5.5450 C   0  0  0  0  0  0  0  0  0  0  0  0
  1  2  2  0
  2  3  1  0
  2  4  1  0
  4  5  1  0
  3  6  1  0
  5  6  1  0
  6  7  1  1
  7  8  1  0
  8  9  1  0
  9 10  2  3
 10 11  1  0
 10 12  1  0
 12 13  1  0
 13 14  1  0
 14 15  1  0
 14 16  2  0
 15 17  2  0
 16 18  1  0
 15 19  1  0
 17 20  1  0
 18 20  2  0
 17 21  1  0
 19 22  2  0
 21 23  2  0
 22 23  1  0
M  END
