diamond-x0849_0_A-mac-x0277
     RDKit          3D

 24 26  0  0  0  0  0  0  0  0999 V2000
   -3.8890   15.1490   -2.7270 Br  0  0  0  0  0  0  0  0  0  0  0  0
   -3.6700   15.1930   -0.8450 C   0  0  0  0  0  0  0  0  0  0  0  0
   -2.4690   14.8210   -0.2530 C   0  0  0  0  0  0  0  0  0  0  0  0
   -4.7330   15.5960   -0.0690 C   0  0  0  0  0  0  0  0  0  0  0  0
   -2.3840   14.8780    1.1400 C   0  0  0  0  0  0  0  0  0  0  0  0
   -4.5220   15.6020    1.2930 C   0  0  0  0  0  0  0  0  0  0  0  0
   -1.3510   14.3940   -0.9640 C   0  0  0  0  0  0  0  0  0  0  0  0
   -3.3840   15.2610    1.8790 N   0  0  0  0  0  0  0  0  0  0  0  0
   -1.3010   14.5440    1.7890 N   0  0  0  0  0  0  0  0  0  0  0  0
   -0.2200   14.0320   -0.2920 C   0  0  0  0  0  0  0  0  0  0  0  0
    0.9660   13.5410   -1.0240 C   0  0  0  0  0  0  0  0  0  0  0  0
   -0.2550   14.1290    1.0930 C   0  0  0  0  0  0  0  0  0  0  0  0
    1.0390   13.7450   -2.4180 N   0  0  0  0  0  0  0  0  0  0  0  0
    0.9930   12.7840   -3.2440 C   0  0  0  0  0  0  0  0  0  0  0  0
    0.8420   11.5130   -2.8190 O   0  0  0  0  0  0  0  0  0  0  0  0
    1.0740   13.0060   -4.6970 C   0  0  0  0  0  0  0  0  0  0  0  0
    0.4970   14.3810   -4.8260 C   0  0  0  0  0  0  0  0  0  0  0  0
   -0.8620   14.5230   -5.0710 C   0  0  0  0  0  0  0  0  0  0  0  0
    1.2940   15.5260   -4.6860 C   0  0  0  0  0  0  0  0  0  0  0  0
   -1.4330   15.7850   -5.1840 C   0  0  0  0  0  0  0  0  0  0  0  0
    0.7220   16.7960   -4.7990 C   0  0  0  0  0  0  0  0  0  0  0  0
   -3.1240   15.8440   -5.4970 Cl  0  0  0  0  0  0  0  0  0  0  0  0
   -0.6440   16.9250   -5.0520 C   0  0  0  0  0  0  0  0  0  0  0  0
   -1.3050   18.5090   -5.1940 Cl  0  0  0  0  0  0  0  0  0  0  0  0
  1  2  1  0
  2  3  2  0
  2  4  1  0
  3  5  1  0
  4  6  2  0
  3  7  1  0
  5  8  2  0
  6  8  1  0
  5  9  1  0
  7 10  2  0
 10 11  1  0
  9 12  2  0
 10 12  1  0
 11 13  1  0
 13 14  2  3
 14 15  1  0
 14 16  1  0
 16 17  1  0
 17 18  2  0
 17 19  1  0
 18 20  1  0
 19 21  2  0
 20 22  1  0
 20 23  2  0
 21 23  1  0
 23 24  1  0
M  END
