diamond-x0727_0_A-mac-x0193
     RDKit          3D

 20 21  0  0  0  0  0  0  0  0999 V2000
    1.1360   10.9410   -5.6620 N   0  0  0  0  0  0  0  0  0  0  0  0
    1.2990   12.1620   -4.8210 C   0  0  1  0  0  0  0  0  0  0  0  0
    0.4430   13.3390   -5.2940 C   0  0  0  0  0  0  0  0  0  0  0  0
    0.4990   10.9600   -6.9610 C   0  0  1  0  0  0  0  0  0  0  0  0
    0.0240   12.2500   -7.1840 O   0  0  0  0  0  0  0  0  0  0  0  0
    0.9280   11.8520   -3.3700 C   0  0  0  0  0  0  0  0  0  0  0  0
    1.4410   10.5830   -7.9190 N   0  0  0  0  0  0  0  0  0  0  0  0
   -0.5500    9.8890   -7.2140 C   0  0  0  0  0  0  0  0  0  0  0  0
    0.4540   10.8000   -2.9700 O   0  0  0  0  0  0  0  0  0  0  0  0
    1.1610   12.8620   -2.5060 O   0  0  0  0  0  0  0  0  0  0  0  0
   -1.9610   10.3730   -7.4890 C   0  0  0  0  0  0  0  0  0  0  0  0
   -0.7270    8.8660   -6.0940 C   0  0  0  0  0  0  0  0  0  0  0  0
    0.8930    9.6890   -8.9500 C   0  0  0  0  0  0  0  0  0  0  0  0
   -2.7060    9.0530   -7.5150 C   0  0  0  0  0  0  0  0  0  0  0  0
   -2.0600    8.2080   -6.4140 C   0  0  0  0  0  0  0  0  0  0  0  0
    1.6430    8.3460   -8.9100 C   0  0  0  0  0  0  0  0  0  0  0  0
    0.9370   10.3020  -10.3550 C   0  0  0  0  0  0  0  0  0  0  0  0
    2.3600    8.0200  -10.2180 C   0  0  0  0  0  0  0  0  0  0  0  0
    0.5590    9.3090  -11.4580 C   0  0  0  0  0  0  0  0  0  0  0  0
    1.3970    8.0360  -11.3960 C   0  0  0  0  0  0  0  0  0  0  0  0
  1  2  1  0
  2  3  1  6
  1  4  1  0
  4  5  1  6
  2  6  1  0
  4  7  1  0
  4  8  1  0
  6  9  2  0
  6 10  1  0
  8 11  1  0
  8 12  1  0
  7 13  1  0
 11 14  1  0
 12 15  1  0
 14 15  1  0
 13 16  1  0
 13 17  1  0
 16 18  1  0
 17 19  1  0
 18 20  1  0
 19 20  1  0
M  END
