diamond-x0969_0_A-diamond-x0128_0_A
     RDKit          3D

 19 21  0  0  0  0  0  0  0  0999 V2000
   -6.8160   14.6810    2.4960 N   0  0  0  0  0  0  0  0  0  0  0  0
   -7.8820   15.2010    3.1690 C   0  0  0  0  0  0  0  0  0  0  0  0
   -8.8560   15.5660    2.5150 O   0  0  0  0  0  0  0  0  0  0  0  0
   -6.5470   14.7430    1.1560 C   0  0  0  0  0  0  0  0  0  0  0  0
   -7.7720   15.2800    4.5310 N   0  0  0  0  0  0  0  0  0  0  0  0
   -7.4980   14.6710    0.2490 N   0  0  0  0  0  0  0  0  0  0  0  0
   -5.3180   14.8890    0.5230 N   0  0  0  0  0  0  0  0  0  0  0  0
   -6.9260   14.7670   -0.9940 N   0  0  0  0  0  0  0  0  0  0  0  0
   -5.6310   14.8960   -0.8310 C   0  0  0  0  0  0  0  0  0  0  0  0
   -4.0050   15.0100    0.9910 C   0  0  0  0  0  0  0  0  0  0  0  0
   -8.5490   16.0740    5.3960 C   0  0  0  0  0  0  0  0  0  0  0  0
   -4.5680   15.0270   -1.7600 C   0  0  0  0  0  0  0  0  0  0  0  0
   -3.0040   15.1210    0.1140 C   0  0  0  0  0  0  0  0  0  0  0  0
   -9.1740   17.2230    4.9070 C   0  0  0  0  0  0  0  0  0  0  0  0
   -8.7370   15.7760    6.7400 C   0  0  0  0  0  0  0  0  0  0  0  0
   -3.3070   15.1290   -1.3100 C   0  0  0  0  0  0  0  0  0  0  0  0
   -9.9440   18.0520    5.6470 N   0  0  0  0  0  0  0  0  0  0  0  0
   -9.5250   16.6160    7.5290 C   0  0  0  0  0  0  0  0  0  0  0  0
  -10.1010   17.7290    6.9440 C   0  0  0  0  0  0  0  0  0  0  0  0
  1  2  1  0
  2  3  2  0
  1  4  1  0
  2  5  1  0
  4  6  2  0
  4  7  1  0
  6  8  1  0
  7  9  1  0
  8  9  2  0
  7 10  1  0
  5 11  1  0
  9 12  1  0
 10 13  2  0
 11 14  2  0
 11 15  1  0
 12 16  2  0
 13 16  1  0
 14 17  1  0
 15 18  2  0
 17 19  2  0
 18 19  1  0
M  END
