diamond-x0837_0_A-mac-x0148
     RDKit          3D

 22 25  0  0  0  0  0  0  0  0999 V2000
   -7.3310   14.7920    0.5840 O   0  0  0  0  0  0  0  0  0  0  0  0
   -6.1060   14.6240    0.5570 C   0  0  0  0  0  0  0  0  0  0  0  0
   -5.2590   15.1960    1.4480 N   0  0  0  0  0  0  0  0  0  0  0  0
   -5.4290   13.7760   -0.4520 C   0  0  0  0  0  0  0  0  0  0  0  0
   -4.0180   15.8330    1.0260 C   0  0  0  0  0  0  0  0  0  0  0  0
   -4.2080   14.4770   -1.0170 C   0  0  2  0  0  0  0  0  0  0  0  0
   -3.3900   13.2120   -2.6110 I   0  0  0  0  0  0  0  0  0  0  0  0
   -3.1520   15.0190    0.0130 C   0  0  2  0  0  0  0  0  0  0  0  0
   -2.3020   14.0350    0.7590 N   0  0  0  0  0  0  0  0  0  0  0  0
   -2.1070   15.7470   -0.8590 C   0  0  0  0  0  0  0  0  0  0  0  0
   -0.9030   14.4360    1.0210 C   0  0  0  0  0  0  0  0  0  0  0  0
   -1.1480   14.6240   -1.2730 C   0  0  1  0  0  0  0  0  0  0  0  0
   -0.4630   14.5310   -2.5700 N   0  0  0  0  0  0  0  0  0  0  0  0
   -0.1760   14.5640   -0.2190 N   0  0  0  0  0  0  0  0  0  0  0  0
   -1.0330   14.9680   -3.8790 C   0  0  2  0  0  0  0  0  0  0  0  0
    0.3870   13.3340   -2.5980 C   0  0  0  0  0  0  0  0  0  0  0  0
   -2.4750   15.5070   -3.9710 C   0  0  0  0  0  0  0  0  0  0  0  0
   -0.9480   13.9390   -5.0590 C   0  0  2  0  0  0  0  0  0  0  0  0
   -0.2200   12.1750   -3.3740 C   0  0  0  0  0  0  0  0  0  0  0  0
   -2.3980   13.7800   -5.5040 C   0  0  0  0  0  0  0  0  0  0  0  0
   -3.0730   14.9900   -5.1690 O   0  0  0  0  0  0  0  0  0  0  0  0
   -0.2900   12.5650   -4.8300 C   0  0  0  0  0  0  0  0  0  0  0  0
  1  2  2  0
  2  3  1  0
  2  4  1  0
  3  5  1  0
  4  6  1  0
  6  7  1  6
  8  5  1  1
  6  8  1  0
  8  9  1  0
  8 10  1  0
  9 11  1  0
 10 12  1  0
 12 13  1  6
 11 14  1  0
 12 14  1  0
 13 15  1  0
 13 16  1  0
 15 17  1  1
 15 18  1  0
 16 19  1  0
 18 20  1  1
 17 21  1  0
 20 21  1  0
 18 22  1  0
 19 22  1  0
M  END
