diamond-x0933_1_A-diamond-x0905_1_B
     RDKit          3D

 17 18  0  0  0  0  0  0  0  0999 V2000
    5.1640   25.1370   18.7800 N   0  0  0  0  0  0  0  0  0  0  0  0
    5.9910   24.5070   17.8540 C   0  0  2  0  0  0  0  0  0  0  0  0
    7.0740   23.9990   18.6860 N   0  0  0  0  0  0  0  0  0  0  0  0
    6.2890   25.5620   17.0350 N   0  0  0  0  0  0  0  0  0  0  0  0
    7.4230   25.1490   16.3150 C   0  0  0  0  0  0  0  0  0  0  0  0
    8.4620   24.1170   18.2690 C   0  0  0  0  0  0  0  0  0  0  0  0
    8.6480   25.1780   17.2310 C   0  0  1  0  0  0  0  0  0  0  0  0
   10.1040   25.1240   16.6370 C   0  0  0  0  0  0  0  0  0  0  0  0
   10.9420   23.7940   16.5500 C   0  0  0  0  0  0  0  0  0  0  0  0
   11.8530   23.7200   15.2850 C   0  0  0  0  0  0  0  0  0  0  0  0
   12.2990   22.4610   14.5200 C   0  0  0  0  0  0  0  0  0  0  0  0
   11.9070   21.1090   14.6520 C   0  0  0  0  0  0  0  0  0  0  0  0
   13.2450   22.7130   13.5320 C   0  0  0  0  0  0  0  0  0  0  0  0
   12.4020   20.0870   13.8730 N   0  0  0  0  0  0  0  0  0  0  0  0
   13.7590   21.7050   12.7390 C   0  0  0  0  0  0  0  0  0  0  0  0
   13.3180   20.4220   12.9360 C   0  0  0  0  0  0  0  0  0  0  0  0
   13.8380   19.4320   12.1470 O   0  0  0  0  0  0  0  0  0  0  0  0
  2  1  1  1
  2  3  1  0
  2  4  1  0
  4  5  1  0
  3  6  1  0
  5  7  1  0
  6  7  1  0
  7  8  1  6
  8  9  1  0
  9 10  1  0
 10 11  1  0
 11 12  2  0
 11 13  1  0
 12 14  1  0
 13 15  2  0
 14 16  2  0
 15 16  1  0
 16 17  1  0
M  END
