diamond-x0685_0_A-diamond-x1018_0_A
     RDKit          3D

 15 16  0  0  0  0  0  0  0  0999 V2000
   -6.3370   15.0350    2.6420 N   0  0  0  0  0  0  0  0  0  0  0  0
   -7.7660   14.8290    2.6280 C   0  0  0  0  0  0  0  0  0  0  0  0
   -8.1750   13.3860    2.8490 C   0  0  0  0  0  0  0  0  0  0  0  0
   -5.5310   14.6320    1.4990 C   0  0  2  0  0  0  0  0  0  0  0  0
   -4.1230   15.1930    1.5770 C   0  0  0  0  0  0  0  0  0  0  0  0
   -6.1480   14.8900    0.1640 N   0  0  0  0  0  0  0  0  0  0  0  0
   -7.8710   14.4030    0.0750 Cl  0  0  0  0  0  0  0  0  0  0  0  0
   -3.2880   15.2030    0.5190 C   0  0  0  0  0  0  0  0  0  0  0  0
   -5.2100   14.1300   -0.6960 C   0  0  2  0  0  0  0  0  0  0  0  0
   -3.7880   14.6450   -0.7820 C   0  0  1  0  0  0  0  0  0  0  0  0
   -5.3660   13.9800   -2.1390 N   0  0  0  0  0  0  0  0  0  0  0  0
   -3.5880   15.4350   -2.0130 C   0  0  0  0  0  0  0  0  0  0  0  0
   -3.2320   13.4040   -1.2310 N   0  0  0  0  0  0  0  0  0  0  0  0
   -4.0470   13.3820   -2.4550 N   0  0  0  0  0  0  0  0  0  0  0  0
   -3.4100   15.8770   -3.0730 N   0  0  0  0  0  0  0  0  0  0  0  0
  1  2  1  0
  2  3  1  0
  4  1  1  1
  4  5  1  0
  4  6  1  0
  6  7  1  0
  5  8  2  0
  6  9  1  0
  8 10  1  0
  9 10  1  0
  9 11  1  6
 10 12  1  6
 10 13  1  0
 11 14  1  0
 13 14  1  0
 12 15  3  0
M  END
