diamond-x0628_0_A-diamond-x0159_0_B
     RDKit          3D

 32 35  0  0  0  0  0  0  0  0999 V2000
   -1.5060    8.8080   -7.3700 C   0  0  0  0  0  0  0  0  0  0  0  0
   -0.9100    9.7970   -6.3760 C   0  0  2  0  0  0  0  0  0  0  0  0
   -1.9050   10.3470   -5.4630 N   0  0  0  0  0  0  0  0  0  0  0  0
   -0.4000   10.9860   -7.0350 N   0  0  0  0  0  0  0  0  0  0  0  0
    0.8690   10.7440   -7.7900 C   0  0  0  0  0  0  0  0  0  0  0  0
   -0.3390   11.9830   -5.9220 N   0  0  0  0  0  0  0  0  0  0  0  0
   -1.1190   11.4060   -4.8150 C   0  0  1  0  0  0  0  0  0  0  0  0
   -2.0520   12.4270   -4.1650 C   0  0  0  0  0  0  0  0  0  0  0  0
    1.0370   12.5090   -5.6800 C   0  0  0  0  0  0  0  0  0  0  0  0
    0.7150   10.5660   -9.3450 C   0  0  0  0  0  0  0  0  0  0  0  0
    1.5830   12.9160   -4.2860 C   0  0  0  0  0  0  0  0  0  0  0  0
    1.3180    9.3170   -9.9440 N   0  0  0  0  0  0  0  0  0  0  0  0
    0.9760   12.2110   -3.0920 C   0  0  0  0  0  0  0  0  0  0  0  0
    1.6980    8.2170   -9.0350 C   0  0  0  0  0  0  0  0  0  0  0  0
    2.1100    9.4930  -11.0500 C   0  0  0  0  0  0  0  0  0  0  0  0
    0.5490   11.0690   -3.0560 O   0  0  0  0  0  0  0  0  0  0  0  0
    0.9600   12.9910   -1.9860 O   0  0  0  0  0  0  0  0  0  0  0  0
    0.9060    6.9440   -9.3450 C   0  0  0  0  0  0  0  0  0  0  0  0
    1.9480   10.6180  -11.8180 N   0  0  0  0  0  0  0  0  0  0  0  0
    3.0730    8.7350  -11.5480 N   0  0  0  0  0  0  0  0  0  0  0  0
    3.5470    9.4030  -12.6550 C   0  0  0  0  0  0  0  0  0  0  0  0
    2.8530   10.5910  -12.8460 C   0  0  0  0  0  0  0  0  0  0  0  0
    1.3370    5.7510   -8.5440 C   0  0  0  0  0  0  0  0  0  0  0  0
    2.2670    4.8420   -9.0630 C   0  0  0  0  0  0  0  0  0  0  0  0
    0.8130    5.5340   -7.2690 C   0  0  0  0  0  0  0  0  0  0  0  0
    3.1150   11.4810  -13.8860 C   0  0  0  0  0  0  0  0  0  0  0  0
    4.5750    9.0640  -13.5530 C   0  0  0  0  0  0  0  0  0  0  0  0
    2.6690    3.7420   -8.3240 C   0  0  0  0  0  0  0  0  0  0  0  0
    1.2160    4.4350   -6.5340 C   0  0  0  0  0  0  0  0  0  0  0  0
    4.1410   11.1310  -14.7700 C   0  0  0  0  0  0  0  0  0  0  0  0
    4.8590    9.9430  -14.6070 C   0  0  0  0  0  0  0  0  0  0  0  0
    2.1480    3.5370   -7.0630 C   0  0  0  0  0  0  0  0  0  0  0  0
  2  1  1  6
  2  3  1  0
  2  4  1  0
  4  5  1  0
  4  6  1  0
  3  7  1  0
  6  7  1  0
  7  8  1  6
  6  9  1  0
  5 10  1  0
  9 11  1  0
 10 12  1  0
 11 13  1  0
 12 14  1  0
 12 15  1  0
 13 16  2  0
 13 17  1  0
 14 18  1  0
 15 19  1  0
 15 20  2  0
 20 21  1  0
 19 22  1  0
 21 22  2  0
 18 23  1  0
 23 24  2  0
 23 25  1  0
 22 26  1  0
 21 27  1  0
 24 28  1  0
 25 29  2  0
 26 30  2  0
 27 31  2  0
 30 31  1  0
 28 32  2  0
 29 32  1  0
M  END
