diamond-x0864_0_A-mac-x0565
     RDKit          3D

 25 27  0  0  0  0  0  0  0  0999 V2000
    1.6270   11.8960   -6.7910 O   0  0  0  0  0  0  0  0  0  0  0  0
    0.5450   11.4690   -6.4180 C   0  0  0  0  0  0  0  0  0  0  0  0
   -0.1540   11.9730   -5.3140 N   0  0  0  0  0  0  0  0  0  0  0  0
   -0.0660   10.3360   -7.1570 C   0  0  0  0  0  0  0  0  0  0  0  0
    0.6580   12.8190   -4.3860 C   0  0  2  0  0  0  0  0  0  0  0  0
   -1.3120   11.3330   -4.8760 C   0  0  0  0  0  0  0  0  0  0  0  0
   -1.1990    9.7780   -6.7190 C   0  0  0  0  0  0  0  0  0  0  0  0
    0.9000   12.1510   -3.0290 C   0  0  0  0  0  0  0  0  0  0  0  0
   -2.0070    8.3470   -7.6010 Br  0  0  0  0  0  0  0  0  0  0  0  0
    0.1520   14.2550   -4.1140 C   0  0  0  0  0  0  0  0  0  0  0  0
   -1.8350   10.2840   -5.5270 C   0  0  0  0  0  0  0  0  0  0  0  0
    0.4950   10.8710   -2.9060 O   0  0  0  0  0  0  0  0  0  0  0  0
    1.4250   12.6980   -2.0770 O   0  0  0  0  0  0  0  0  0  0  0  0
   -1.2470   14.2460   -3.5040 C   0  0  2  0  0  0  0  0  0  0  0  0
   -2.1860   14.8840   -4.3710 O   0  0  0  0  0  0  0  0  0  0  0  0
   -1.3490   14.8360   -2.1810 O   0  0  0  0  0  0  0  0  0  0  0  0
   -2.7200   14.8940   -2.1780 C   0  0  0  0  0  0  0  0  0  0  0  0
   -3.1960   14.9160   -3.4720 C   0  0  0  0  0  0  0  0  0  0  0  0
   -3.5790   14.9260   -1.0920 C   0  0  0  0  0  0  0  0  0  0  0  0
   -4.5270   14.9620   -3.7620 C   0  0  0  0  0  0  0  0  0  0  0  0
   -4.9570   14.9740   -1.3650 C   0  0  0  0  0  0  0  0  0  0  0  0
   -5.4250   14.9910   -2.6950 C   0  0  0  0  0  0  0  0  0  0  0  0
   -5.9830   15.0040   -0.2950 C   0  0  0  0  0  0  0  0  0  0  0  0
   -5.4390   15.0990    0.9260 O   0  0  0  0  0  0  0  0  0  0  0  0
   -7.1900   14.9490   -0.4570 O   0  0  0  0  0  0  0  0  0  0  0  0
  1  2  2  0
  2  3  1  0
  2  4  1  0
  3  5  1  0
  3  6  1  0
  4  7  2  0
  5  8  1  0
  7  9  1  0
  5 10  1  1
  6 11  2  0
  7 11  1  0
  8 12  1  0
  8 13  2  0
 14 10  1  6
 14 15  1  0
 14 16  1  0
 16 17  1  0
 15 18  1  0
 17 18  2  0
 17 19  1  0
 18 20  1  0
 19 21  2  0
 20 22  2  0
 21 22  1  0
 21 23  1  0
 23 24  1  0
 23 25  2  0
M  END
