diamond-x1015_0_A-mac-x0565
     RDKit          3D

 27 30  0  0  0  0  0  0  0  0999 V2000
    1.1410   13.8420   -5.2970 C   0  0  0  0  0  0  0  0  0  0  0  0
    1.2990   13.1030   -3.9760 C   0  0  2  0  0  0  0  0  0  0  0  0
    0.6540   11.7870   -4.0010 N   0  0  0  0  0  0  0  0  0  0  0  0
    0.2280   13.7060   -3.1900 C   0  0  0  0  0  0  0  0  0  0  0  0
   -0.1870   14.8670   -3.3100 N   0  0  0  0  0  0  0  0  0  0  0  0
    0.1910   11.5740   -2.7200 C   0  0  0  0  0  0  0  0  0  0  0  0
   -0.3260   12.7730   -2.3670 N   0  0  0  0  0  0  0  0  0  0  0  0
   -0.0040   11.2030   -5.1250 C   0  0  0  0  0  0  0  0  0  0  0  0
    0.2080   10.5630   -2.0310 O   0  0  0  0  0  0  0  0  0  0  0  0
    0.3750   11.4600   -6.4460 C   0  0  0  0  0  0  0  0  0  0  0  0
   -1.0800   10.3160   -4.9150 C   0  0  0  0  0  0  0  0  0  0  0  0
   -1.4320   15.0800   -2.7090 C   0  0  2  0  0  0  0  0  0  0  0  0
   -0.2850   10.8510   -7.5200 C   0  0  0  0  0  0  0  0  0  0  0  0
   -1.7420    9.7040   -5.9850 C   0  0  0  0  0  0  0  0  0  0  0  0
   -2.3300   15.5170   -3.7270 O   0  0  0  0  0  0  0  0  0  0  0  0
   -1.7010   15.7740   -1.4950 O   0  0  0  0  0  0  0  0  0  0  0  0
   -1.3380    9.9730   -7.2830 C   0  0  0  0  0  0  0  0  0  0  0  0
   -3.0420   15.4990   -1.6330 C   0  0  0  0  0  0  0  0  0  0  0  0
   -3.3870   15.3440   -2.9640 C   0  0  0  0  0  0  0  0  0  0  0  0
   -2.1390    9.2120   -8.6000 Cl  0  0  0  0  0  0  0  0  0  0  0  0
   -3.9860   15.3680   -0.6480 C   0  0  0  0  0  0  0  0  0  0  0  0
   -4.6410   15.0540   -3.4040 C   0  0  0  0  0  0  0  0  0  0  0  0
   -5.2930   15.0740   -1.0770 C   0  0  0  0  0  0  0  0  0  0  0  0
   -5.6170   14.9190   -2.4370 C   0  0  0  0  0  0  0  0  0  0  0  0
   -6.3950   14.9090   -0.1220 C   0  0  0  0  0  0  0  0  0  0  0  0
   -5.9980   14.8420    1.1600 O   0  0  0  0  0  0  0  0  0  0  0  0
   -7.5590   14.8390   -0.4720 O   0  0  0  0  0  0  0  0  0  0  0  0
  2  1  1  6
  2  3  1  0
  2  4  1  0
  4  5  2  3
  3  6  1  0
  4  7  1  0
  6  7  1  0
  3  8  1  0
  6  9  2  0
  8 10  2  0
  8 11  1  0
 12  5  1  6
 10 13  1  0
 11 14  2  0
 12 15  1  0
 12 16  1  0
 13 17  2  0
 14 17  1  0
 16 18  1  0
 15 19  1  0
 18 19  2  0
 17 20  1  0
 18 21  1  0
 19 22  1  0
 21 23  2  0
 22 24  2  0
 23 24  1  0
 23 25  1  0
 25 26  1  0
 25 27  2  0
M  END
