diamond-x0766_0_A-mac-x0584
     RDKit          3D

 26 30  0  0  0  0  0  0  0  0999 V2000
    0.1790   11.1810   -4.2690 C   0  0  0  0  0  0  0  0  0  0  0  0
   -0.3540   10.2610   -5.2050 O   0  0  0  0  0  0  0  0  0  0  0  0
    0.5280   10.7840   -3.2140 O   0  0  0  0  0  0  0  0  0  0  0  0
    0.2310   12.5400   -4.6760 C   0  0  2  0  0  0  0  0  0  0  0  0
    1.5360   13.0850   -4.4520 C   0  0  0  0  0  0  0  0  0  0  0  0
   -0.9640   13.6690   -3.8300 S   0  0  0  0  0  0  0  0  0  0  0  0
    1.5480   13.0010   -3.0290 C   0  0  0  0  0  0  0  0  0  0  0  0
    0.1540   12.5660   -2.6930 C   0  0  0  0  0  0  0  0  0  0  0  0
   -2.9230   13.4210   -3.5080 C   0  0  0  0  0  0  0  0  0  0  0  0
   -0.4670   15.2910   -3.3920 C   0  0  0  0  0  0  0  0  0  0  0  0
   -0.6760   15.2340   -2.9300 N   0  0  0  0  0  0  0  0  0  0  0  0
   -3.8440   13.1210   -4.4190 C   0  0  0  0  0  0  0  0  0  0  0  0
   -3.3920   13.5830   -2.2650 C   0  0  0  0  0  0  0  0  0  0  0  0
   -1.5380   15.8400   -4.1310 C   0  0  0  0  0  0  0  0  0  0  0  0
   -0.3330   16.2890   -4.3560 C   0  0  0  0  0  0  0  0  0  0  0  0
   -1.0110   15.0260   -1.4350 C   0  0  0  0  0  0  0  0  0  0  0  0
   -4.7320   13.4260   -2.0440 C   0  0  0  0  0  0  0  0  0  0  0  0
   -5.3610   13.0580   -3.5570 S   0  0  0  0  0  0  0  0  0  0  0  0
   -0.0240   14.7510   -0.5560 N   0  0  0  0  0  0  0  0  0  0  0  0
   -2.3460   15.1200   -0.9630 C   0  0  0  0  0  0  0  0  0  0  0  0
   -0.3220   14.5980    0.7440 C   0  0  0  0  0  0  0  0  0  0  0  0
   -2.5400   14.9410    0.4680 C   0  0  0  0  0  0  0  0  0  0  0  0
   -3.6050   15.3820   -1.4560 C   0  0  0  0  0  0  0  0  0  0  0  0
   -1.5230   14.6770    1.2700 N   0  0  0  0  0  0  0  0  0  0  0  0
   -3.8610   15.1310    0.6640 N   0  0  0  0  0  0  0  0  0  0  0  0
   -4.4860   15.3920   -0.4770 C   0  0  0  0  0  0  0  0  0  0  0  0
  1  2  1  0
  1  3  2  0
  4  1  1  1
  4  5  1  0
  4  6  1  0
  5  7  1  0
  6  8  1  0
  7  8  1  0
  6  9  1  0
  6 10  1  0
  6 11  1  0
  9 12  2  0
  9 13  1  0
 11 14  1  0
 10 15  1  0
 14 15  1  0
 11 16  1  0
 13 17  2  0
 12 18  1  0
 17 18  1  0
 16 19  1  0
 16 20  2  0
 19 21  1  0
 20 22  1  0
 20 23  1  0
 21 24  2  0
 22 24  1  0
 22 25  2  0
 23 26  2  0
 25 26  1  0
M  END
