diamond-x0864_0_A-mac-x0360
     RDKit          3D

 27 28  0  0  0  0  0  0  0  0999 V2000
    1.5310   11.8580   -6.8660 O   0  0  0  0  0  0  0  0  0  0  0  0
    0.4960   11.3350   -6.4760 C   0  0  0  0  0  0  0  0  0  0  0  0
   -0.1430   11.7590   -5.3250 N   0  0  0  0  0  0  0  0  0  0  0  0
   -0.1010   10.2040   -7.2140 C   0  0  0  0  0  0  0  0  0  0  0  0
    0.6610   12.5530   -4.3930 C   0  0  0  0  0  0  0  0  0  0  0  0
   -1.3330   11.1900   -4.9060 C   0  0  0  0  0  0  0  0  0  0  0  0
   -1.2380    9.6570   -6.7750 C   0  0  0  0  0  0  0  0  0  0  0  0
    0.6990   11.9590   -2.9900 C   0  0  0  0  0  0  0  0  0  0  0  0
   -2.0390    8.2200   -7.6510 Br  0  0  0  0  0  0  0  0  0  0  0  0
   -1.8850   10.1750   -5.5850 C   0  0  0  0  0  0  0  0  0  0  0  0
    0.4170   10.6410   -2.8720 O   0  0  0  0  0  0  0  0  0  0  0  0
    0.9770   12.6710   -1.9590 N   0  0  0  0  0  0  0  0  0  0  0  0
    1.2780   14.0870   -2.1400 C   0  0  0  0  0  0  0  0  0  0  0  0
   -0.0240   14.8800   -2.1030 C   0  0  0  0  0  0  0  0  0  0  0  0
   -1.0080   14.3840   -1.0360 C   0  0  0  0  0  0  0  0  0  0  0  0
   -2.4120   14.4910   -1.4680 N   0  0  0  0  0  0  0  0  0  0  0  0
   -3.6450   14.7420   -0.3590 S   0  0  0  0  0  0  0  0  0  0  0  0
   -4.4750   15.7990   -0.8960 O   0  0  0  0  0  0  0  0  0  0  0  0
   -3.0300   14.8600    0.9420 O   0  0  0  0  0  0  0  0  0  0  0  0
   -4.6310   13.2540   -0.4290 C   0  0  0  0  0  0  0  0  0  0  0  0
   -4.4430   12.3040   -1.4470 C   0  0  0  0  0  0  0  0  0  0  0  0
   -5.6090   13.0520    0.5580 C   0  0  0  0  0  0  0  0  0  0  0  0
   -5.2480   11.1630   -1.4620 C   0  0  0  0  0  0  0  0  0  0  0  0
   -6.3970   11.9060    0.5180 C   0  0  0  0  0  0  0  0  0  0  0  0
   -7.6030   11.6440    1.7210 Cl  0  0  0  0  0  0  0  0  0  0  0  0
   -5.0470    9.9750   -2.6960 Cl  0  0  0  0  0  0  0  0  0  0  0  0
   -6.2240   10.9620   -0.4890 C   0  0  0  0  0  0  0  0  0  0  0  0
  1  2  2  0
  2  3  1  0
  2  4  1  0
  3  5  1  0
  3  6  1  0
  4  7  2  0
  5  8  1  0
  7  9  1  0
  6 10  2  0
  7 10  1  0
  8 11  1  0
  8 12  2  3
 12 13  1  0
 13 14  1  0
 14 15  1  0
 15 16  1  0
 17 16  1  0
 17 18  2  0
 17 19  2  0
 17 20  1  0
 20 21  2  0
 20 22  1  0
 21 23  1  0
 22 24  2  0
 24 25  1  0
 23 26  1  0
 23 27  2  0
 24 27  1  0
M  END
