diamond-x0727_0_A-diamond-x0926_0_A
     RDKit          3D

 23 24  0  0  0  0  0  0  0  0999 V2000
    0.1670   11.4520   -5.5190 N   0  0  0  0  0  0  0  0  0  0  0  0
    0.8840   12.3700   -4.6270 C   0  0  1  0  0  0  0  0  0  0  0  0
    0.4770   13.8110   -4.8930 C   0  0  0  0  0  0  0  0  0  0  0  0
    0.7160   11.1300   -6.7340 C   0  0  0  0  0  0  0  0  0  0  0  0
    1.6580   11.7460   -7.1620 O   0  0  0  0  0  0  0  0  0  0  0  0
    0.6330   11.9820   -3.1580 C   0  0  0  0  0  0  0  0  0  0  0  0
    0.0900    9.9530   -7.4690 C   0  0  0  0  0  0  0  0  0  0  0  0
    0.1580   10.9060   -2.7970 O   0  0  0  0  0  0  0  0  0  0  0  0
    1.0220   12.9940   -2.3200 O   0  0  0  0  0  0  0  0  0  0  0  0
   -1.2170   10.3160   -8.1840 C   0  0  0  0  0  0  0  0  0  0  0  0
   -0.2440    8.7630   -6.5490 C   0  0  0  0  0  0  0  0  0  0  0  0
    0.1360   13.3830   -1.2400 C   0  0  0  0  0  0  0  0  0  0  0  0
   -2.1020    9.0870   -8.0320 C   0  0  0  0  0  0  0  0  0  0  0  0
   -1.7420    8.5500   -6.6600 C   0  0  0  0  0  0  0  0  0  0  0  0
   -0.2350   14.8680   -1.3040 C   0  0  0  0  0  0  0  0  0  0  0  0
   -1.0940   15.3320   -0.1060 C   0  0  0  0  0  0  0  0  0  0  0  0
   -2.5810   14.9380   -0.2570 C   0  0  2  0  0  0  0  0  0  0  0  0
   -3.2270   15.5840   -1.4140 N   0  0  0  0  0  0  0  0  0  0  0  0
   -3.3840   15.1760    0.9930 C   0  0  0  0  0  0  0  0  0  0  0  0
   -4.7160   15.3020    0.9560 C   0  0  0  0  0  0  0  0  0  0  0  0
   -4.6250   15.3390   -1.4730 N   0  0  0  0  0  0  0  0  0  0  0  0
   -5.4200   15.2110   -0.3520 C   0  0  0  0  0  0  0  0  0  0  0  0
   -6.6310   15.0270   -0.4150 O   0  0  0  0  0  0  0  0  0  0  0  0
  1  2  1  0
  2  3  1  1
  1  4  1  0
  4  5  2  0
  2  6  1  0
  4  7  1  0
  6  8  2  0
  6  9  1  0
  7 10  1  0
  7 11  1  0
  9 12  1  0
 10 13  1  0
 11 14  1  0
 13 14  1  0
 12 15  1  0
 15 16  1  0
 17 16  1  1
 17 18  1  0
 17 19  1  0
 19 20  2  0
 18 21  1  0
 20 22  1  0
 21 22  1  0
 22 23  2  0
M  END
