diamond-x0591_0_A-mac-x0213
     RDKit          3D

 26 28  0  0  0  0  0  0  0  0999 V2000
   -5.8910   14.6200    0.9440 N   0  0  0  0  0  0  0  0  0  0  0  0
   -6.7370   14.5280    2.1070 C   0  0  0  0  0  0  0  0  0  0  0  0
   -6.3310   14.8540   -0.3240 C   0  0  0  0  0  0  0  0  0  0  0  0
   -7.5000   15.1760   -0.5050 O   0  0  0  0  0  0  0  0  0  0  0  0
   -5.4670   14.7060   -1.5040 C   0  0  0  0  0  0  0  0  0  0  0  0
   -4.0950   14.4160   -1.3960 C   0  0  0  0  0  0  0  0  0  0  0  0
   -6.0560   14.8580   -2.7470 C   0  0  0  0  0  0  0  0  0  0  0  0
   -3.3290   14.2770   -2.5640 C   0  0  0  0  0  0  0  0  0  0  0  0
   -5.3070   14.7160   -3.8900 C   0  0  0  0  0  0  0  0  0  0  0  0
   -3.9630   14.4300   -3.8120 C   0  0  0  0  0  0  0  0  0  0  0  0
   -3.1500   14.2830   -5.3810 S   0  0  0  0  0  0  0  0  0  0  0  0
   -2.8980   15.9220   -5.6150 N   0  0  0  0  0  0  0  0  0  0  0  0
   -1.9560   13.4910   -5.2560 O   0  0  0  0  0  0  0  0  0  0  0  0
   -4.1280   14.0000   -6.3890 O   0  0  0  0  0  0  0  0  0  0  0  0
   -1.6690   16.4080   -5.2240 C   0  0  0  0  0  0  0  0  0  0  0  0
   -0.7800   15.6070   -4.5430 C   0  0  0  0  0  0  0  0  0  0  0  0
   -1.3650   17.7110   -5.5430 C   0  0  0  0  0  0  0  0  0  0  0  0
   -0.9160   14.1770   -4.1130 C   0  0  0  0  0  0  0  0  0  0  0  0
    0.4480   16.1160   -4.1610 C   0  0  0  0  0  0  0  0  0  0  0  0
   -0.1360   18.2180   -5.1650 C   0  0  0  0  0  0  0  0  0  0  0  0
    0.5060   13.7610   -3.7260 C   0  0  1  0  0  0  0  0  0  0  0  0
    1.2610   15.0780   -3.4280 C   0  0  0  0  0  0  0  0  0  0  0  0
    0.7750   17.4300   -4.4690 C   0  0  0  0  0  0  0  0  0  0  0  0
    0.4550   12.7710   -2.5540 C   0  0  0  0  0  0  0  0  0  0  0  0
    0.1790   11.5090   -2.9410 O   0  0  0  0  0  0  0  0  0  0  0  0
    0.6190   12.9850   -1.3580 O   0  0  0  0  0  0  0  0  0  0  0  0
  1  2  1  0
  1  3  1  0
  3  4  2  0
  3  5  1  0
  5  6  2  0
  5  7  1  0
  6  8  1  0
  7  9  2  0
  8 10  2  0
  9 10  1  0
 10 11  1  0
 11 12  1  0
 11 13  2  0
 11 14  2  0
 12 15  1  0
 15 16  1  0
 15 17  2  0
 16 18  1  0
 16 19  2  0
 17 20  1  0
 18 21  1  0
 19 22  1  0
 21 22  1  0
 19 23  1  0
 20 23  2  0
 21 24  1  1
 24 25  1  0
 24 26  2  0
M  END
