diamond-x0104_0_A-mac-x0527
     RDKit          3D

 25 27  0  0  0  0  0  0  0  0999 V2000
   -6.7430   14.8210    2.6600 N   0  0  0  0  0  0  0  0  0  0  0  0
   -8.0340   15.0850    3.1130 C   0  0  0  0  0  0  0  0  0  0  0  0
   -8.0780   15.0680    4.5050 N   0  0  0  0  0  0  0  0  0  0  0  0
   -6.2680   14.7510    1.3320 C   0  0  0  0  0  0  0  0  0  0  0  0
   -8.9840   15.3050    2.3760 O   0  0  0  0  0  0  0  0  0  0  0  0
   -4.8860   14.8070    1.1190 C   0  0  0  0  0  0  0  0  0  0  0  0
   -7.0740   14.6350    0.2070 C   0  0  0  0  0  0  0  0  0  0  0  0
   -4.2800   14.7490   -0.0960 N   0  0  0  0  0  0  0  0  0  0  0  0
   -6.4850   14.5770   -1.0590 C   0  0  0  0  0  0  0  0  0  0  0  0
   -9.2140   15.0680    5.2980 C   0  0  0  0  0  0  0  0  0  0  0  0
   -5.1010   14.6340   -1.1620 C   0  0  0  0  0  0  0  0  0  0  0  0
   -9.2410   15.1930    6.6700 C   0  0  0  0  0  0  0  0  0  0  0  0
  -10.7760   14.9050    4.6460 S   0  0  0  0  0  0  0  0  0  0  0  0
   -4.5750   14.5570   -2.4420 O   0  0  0  0  0  0  0  0  0  0  0  0
  -11.5090   14.9980    6.1870 C   0  0  0  0  0  0  0  0  0  0  0  0
  -10.5730   15.1510    7.1890 C   0  0  0  0  0  0  0  0  0  0  0  0
   -3.3870   15.3200   -2.6190 C   0  0  0  0  0  0  0  0  0  0  0  0
   -2.1930   14.4640   -2.6260 N   0  0  0  0  0  0  0  0  0  0  0  0
   -1.3590   14.6580   -3.8190 C   0  0  0  0  0  0  0  0  0  0  0  0
   -1.1280   13.3330   -4.5310 C   0  0  0  0  0  0  0  0  0  0  0  0
   -1.9700   12.2400   -4.2890 C   0  0  0  0  0  0  0  0  0  0  0  0
   -0.0660   13.1830   -5.4450 C   0  0  0  0  0  0  0  0  0  0  0  0
   -1.7590   11.0190   -4.9440 C   0  0  0  0  0  0  0  0  0  0  0  0
    0.1430   11.9610   -6.0980 C   0  0  0  0  0  0  0  0  0  0  0  0
   -0.7050   10.8810   -5.8450 C   0  0  0  0  0  0  0  0  0  0  0  0
  1  2  1  0
  2  3  1  0
  1  4  1  0
  2  5  2  0
  4  6  2  0
  4  7  1  0
  6  8  1  0
  7  9  2  0
  3 10  1  0
  8 11  2  0
  9 11  1  0
 10 12  2  0
 10 13  1  0
 11 14  1  0
 13 15  1  0
 12 16  1  0
 15 16  2  0
 14 17  1  0
 17 18  1  0
 18 19  1  0
 19 20  1  0
 20 21  2  0
 20 22  1  0
 21 23  1  0
 22 24  2  0
 23 25  2  0
 24 25  1  0
M  END
