diamond-x1015_0_A-mac-x0576
     RDKit          3D

 27 30  0  0  0  0  0  0  0  0999 V2000
   -1.5790   13.9190   -2.8720 C   0  0  0  0  0  0  0  0  0  0  0  0
   -0.3310   13.6360   -3.6380 C   0  0  2  0  0  0  0  0  0  0  0  0
   -0.0620   12.2380   -3.9160 N   0  0  0  0  0  0  0  0  0  0  0  0
   -1.8500   14.3280   -1.5980 C   0  0  0  0  0  0  0  0  0  0  0  0
    0.8600   13.9040   -2.7300 C   0  0  0  0  0  0  0  0  0  0  0  0
   -0.7770   14.5980   -0.7240 N   0  0  0  0  0  0  0  0  0  0  0  0
   -3.2250   14.5220   -0.9250 C   0  0  1  0  0  0  0  0  0  0  0  0
    1.4360   14.9640   -2.5510 O   0  0  0  0  0  0  0  0  0  0  0  0
    0.4650   11.7030   -2.7300 C   0  0  0  0  0  0  0  0  0  0  0  0
    1.1620   12.7140   -2.1400 N   0  0  0  0  0  0  0  0  0  0  0  0
   -0.4820   11.4690   -5.0360 C   0  0  0  0  0  0  0  0  0  0  0  0
   -0.8600   14.2870    0.6690 C   0  0  1  0  0  0  0  0  0  0  0  0
   -3.1410   14.3700    0.6590 C   0  0  1  0  0  0  0  0  0  0  0  0
   -4.0080   15.6610   -1.3550 N   0  0  0  0  0  0  0  0  0  0  0  0
    0.3470   10.5680   -2.2660 O   0  0  0  0  0  0  0  0  0  0  0  0
    0.2400   14.6360    1.4870 N   0  0  0  0  0  0  0  0  0  0  0  0
    0.0680   11.6690   -6.3100 C   0  0  0  0  0  0  0  0  0  0  0  0
   -1.4600   10.4700   -4.8970 C   0  0  0  0  0  0  0  0  0  0  0  0
   -1.9760   14.8800    1.3320 N   0  0  0  0  0  0  0  0  0  0  0  0
   -4.2520   14.9520    1.3350 N   0  0  0  0  0  0  0  0  0  0  0  0
   -5.3620   15.6350   -0.7960 C   0  0  0  0  0  0  0  0  0  0  0  0
   -0.3380   10.9010   -7.4050 C   0  0  0  0  0  0  0  0  0  0  0  0
   -1.8690    9.6990   -5.9880 C   0  0  0  0  0  0  0  0  0  0  0  0
   -5.4300   15.0890    0.6410 C   0  0  0  0  0  0  0  0  0  0  0  0
   -6.4960   14.7850    1.1640 O   0  0  0  0  0  0  0  0  0  0  0  0
   -1.3090    9.9140   -7.2370 C   0  0  0  0  0  0  0  0  0  0  0  0
   -1.8130    8.9660   -8.5780 Cl  0  0  0  0  0  0  0  0  0  0  0  0
  2  1  1  1
  2  3  1  0
  1  4  2  3
  2  5  1  0
  4  6  1  0
  4  7  1  0
  5  8  2  0
  3  9  1  0
  5 10  1  0
  9 10  1  0
  3 11  1  0
  6 12  1  0
  7 13  1  0
  7 14  1  1
  9 15  2  0
 12 16  1  1
 11 17  2  0
 11 18  1  0
 12 19  1  0
 13 19  1  1
 13 20  1  0
 14 21  1  0
 17 22  1  0
 18 23  2  0
 20 24  1  0
 21 24  1  0
 24 25  2  0
 22 26  2  0
 23 26  1  0
 26 27  1  0
M  END
