diamond-x0471_0_A-diamond-x0905_0_A
     RDKit          3D

 17 18  0  0  0  0  0  0  0  0999 V2000
   -9.0490   14.5940    2.7610 N   0  0  0  0  0  0  0  0  0  0  0  0
   -9.1120   15.1950    3.9620 C   0  0  0  0  0  0  0  0  0  0  0  0
   -9.4200   16.3920    4.1640 O   0  0  0  0  0  0  0  0  0  0  0  0
   -8.9150   14.0550    1.5260 C   0  0  0  0  0  0  0  0  0  0  0  0
   -8.7850   14.4360    5.2530 C   0  0  0  0  0  0  0  0  0  0  0  0
   -7.6360   14.3770    0.8640 C   0  0  0  0  0  0  0  0  0  0  0  0
   -9.9790   13.6490    5.7300 C   0  0  0  0  0  0  0  0  0  0  0  0
   -8.2700   15.4320    6.2760 C   0  0  0  0  0  0  0  0  0  0  0  0
   -7.3570   14.6550   -0.4000 N   0  0  0  0  0  0  0  0  0  0  0  0
   -6.4410   14.4450    1.5190 N   0  0  0  0  0  0  0  0  0  0  0  0
   -5.4610   14.7520    0.6740 C   0  0  0  0  0  0  0  0  0  0  0  0
   -6.0490   14.8880   -0.5510 C   0  0  0  0  0  0  0  0  0  0  0  0
   -5.2840   15.1990   -1.6030 C   0  0  0  0  0  0  0  0  0  0  0  0
   -4.0940   14.9300    0.8420 C   0  0  0  0  0  0  0  0  0  0  0  0
   -5.9220   15.3180   -2.8260 O   0  0  0  0  0  0  0  0  0  0  0  0
   -3.8990   15.3880   -1.4910 C   0  0  0  0  0  0  0  0  0  0  0  0
   -3.3060   15.2430   -0.2310 C   0  0  0  0  0  0  0  0  0  0  0  0
  1  2  1  0
  2  3  2  0
  1  4  1  0
  2  5  1  0
  4  6  1  0
  5  7  1  0
  5  8  1  0
  6  9  1  0
  6 10  2  0
 10 11  1  0
  9 12  1  0
 11 12  2  0
 12 13  1  0
 11 14  1  0
 13 15  1  0
 13 16  2  0
 14 17  2  0
 16 17  1  0
M  END
