diamond-x1018_0_A-mac-x0337
     RDKit          3D

 21 23  0  0  0  0  0  0  0  0999 V2000
   -7.5390   14.6490    1.9220 Cl  0  0  0  0  0  0  0  0  0  0  0  0
   -6.7030   14.4770    0.4290 C   0  0  0  0  0  0  0  0  0  0  0  0
   -7.1670   13.6090   -0.4830 C   0  0  0  0  0  0  0  0  0  0  0  0
   -5.5400   15.2370    0.1600 N   0  0  0  0  0  0  0  0  0  0  0  0
   -4.3870   15.3110    1.0820 N   0  0  0  0  0  0  0  0  0  0  0  0
   -5.1820   15.3420   -1.1600 N   0  0  0  0  0  0  0  0  0  0  0  0
   -6.4540   13.4560   -1.7470 C   0  0  0  0  0  0  0  0  0  0  0  0
   -3.0320   14.4410    0.5170 S   0  0  0  0  0  0  0  0  0  0  0  0
   -3.9730   15.8570   -1.5480 N   0  0  0  0  0  0  0  0  0  0  0  0
   -5.4860   14.3360   -2.0240 C   0  0  0  0  0  0  0  0  0  0  0  0
   -2.4200   15.1230   -0.5990 O   0  0  0  0  0  0  0  0  0  0  0  0
   -2.2270   14.0740    1.6770 O   0  0  0  0  0  0  0  0  0  0  0  0
   -4.6360   14.4930   -3.0620 N   0  0  0  0  0  0  0  0  0  0  0  0
   -3.5820   15.2510   -2.6080 N   0  0  0  0  0  0  0  0  0  0  0  0
   -3.8980   13.0660   -0.2310 C   0  0  0  0  0  0  0  0  0  0  0  0
   -3.4200   12.5190   -1.4290 C   0  0  0  0  0  0  0  0  0  0  0  0
   -5.0520   12.5480    0.3680 C   0  0  0  0  0  0  0  0  0  0  0  0
   -4.0990   11.4560   -2.0300 C   0  0  0  0  0  0  0  0  0  0  0  0
   -5.7280   11.4840   -0.2440 C   0  0  0  0  0  0  0  0  0  0  0  0
   -5.2600   10.9290   -1.4430 C   0  0  0  0  0  0  0  0  0  0  0  0
   -5.9890    9.7820   -2.0850 C   0  0  0  0  0  0  0  0  0  0  0  0
  1  2  1  0
  2  3  2  0
  2  4  1  0
  4  5  1  0
  4  6  1  0
  3  7  1  0
  8  5  1  0
  6  9  1  0
  6 10  1  0
  7 10  2  0
  8 11  2  0
  8 12  2  0
 10 13  1  0
  9 14  2  0
 13 14  1  0
  8 15  1  0
 15 16  2  0
 15 17  1  0
 16 18  1  0
 17 19  2  0
 18 20  2  0
 19 20  1  0
 20 21  1  0
M  END
