diamond-x1012_0_A-mac-x0584
     RDKit          3D

 23 26  0  0  0  0  0  0  0  0999 V2000
   -0.0030   18.4060   -5.1090 N   0  0  0  0  0  0  0  0  0  0  0  0
   -1.0660   17.6320   -4.6340 C   0  0  0  0  0  0  0  0  0  0  0  0
   -2.2310   18.0700   -4.8040 O   0  0  0  0  0  0  0  0  0  0  0  0
   -0.8300   16.4380   -4.0090 N   0  0  0  0  0  0  0  0  0  0  0  0
   -1.7960   15.5380   -3.5020 C   0  0  0  0  0  0  0  0  0  0  0  0
    0.4200   15.7380   -4.1890 C   0  0  0  0  0  0  0  0  0  0  0  0
   -1.2840   14.5810   -2.4520 C   0  0  1  0  0  0  0  0  0  0  0  0
    0.7200   14.6500   -3.2910 C   0  0  0  0  0  0  0  0  0  0  0  0
   -0.3110   13.1970   -3.3290 S   0  0  0  0  0  0  0  0  0  0  0  0
   -0.4670   15.3010   -1.4690 N   0  0  0  0  0  0  0  0  0  0  0  0
   -2.2810   14.3960   -1.3640 C   0  0  1  0  0  0  0  0  0  0  0  0
    0.1050   12.1030   -1.7920 C   0  0  0  0  0  0  0  0  0  0  0  0
   -0.3600   12.8740   -5.1790 C   0  0  0  0  0  0  0  0  0  0  0  0
    0.4300   11.8030   -4.1430 C   0  0  0  0  0  0  0  0  0  0  0  0
    0.0240   14.8690   -0.3050 C   0  0  0  0  0  0  0  0  0  0  0  0
   -2.0840   15.3060   -0.1180 C   0  0  2  0  0  0  0  0  0  0  0  0
   -3.7020   14.8470   -1.3700 C   0  0  0  0  0  0  0  0  0  0  0  0
    0.0690   10.6990   -2.0020 O   0  0  0  0  0  0  0  0  0  0  0  0
    0.3800   12.3960   -0.7700 O   0  0  0  0  0  0  0  0  0  0  0  0
    1.0770   12.5610   -5.2720 C   0  0  0  0  0  0  0  0  0  0  0  0
   -1.0070   15.3170    0.6990 N   0  0  0  0  0  0  0  0  0  0  0  0
   -3.2480   15.0530    0.7760 N   0  0  0  0  0  0  0  0  0  0  0  0
   -4.2230   15.2080   -0.1850 C   0  0  0  0  0  0  0  0  0  0  0  0
  1  2  1  0
  2  3  2  0
  2  4  1  0
  4  5  1  0
  4  6  1  0
  7  5  1  6
  6  8  1  0
  7  9  1  0
  8  9  1  0
  7 10  1  0
  7 11  1  0
  9 12  1  0
  9 13  1  0
  9 14  1  0
 10 15  1  0
 11 16  1  0
 11 17  1  6
 12 18  1  0
 12 19  2  0
 13 20  1  0
 14 20  1  0
 15 21  1  0
 16 21  1  1
 16 22  1  0
 17 23  2  0
 22 23  1  0
M  END
