diamond-x0587_0_A-mac-x0142
     RDKit          3D

 29 33  0  0  0  0  0  0  0  0999 V2000
   -7.9920   14.7910    3.8900 N   0  0  0  0  0  0  0  0  0  0  0  0
   -8.5710   14.8590    2.6500 C   0  0  0  0  0  0  0  0  0  0  0  0
   -9.7710   15.0350    2.5300 O   0  0  0  0  0  0  0  0  0  0  0  0
   -7.7090   14.7360    1.4660 C   0  0  0  0  0  0  0  0  0  0  0  0
   -8.1170   14.6070    0.1490 C   0  0  0  0  0  0  0  0  0  0  0  0
   -6.3680   14.7560    1.6430 C   0  0  0  0  0  0  0  0  0  0  0  0
   -7.2690   14.5130   -0.9200 N   0  0  0  0  0  0  0  0  0  0  0  0
   -5.4890   14.6660    0.6380 N   0  0  0  0  0  0  0  0  0  0  0  0
   -5.9460   14.5520   -0.6360 C   0  0  0  0  0  0  0  0  0  0  0  0
   -4.8050   14.4890   -1.6860 C   0  0  0  0  0  0  0  0  0  0  0  0
   -4.6670   13.2350   -2.2370 F   0  0  0  0  0  0  0  0  0  0  0  0
   -4.8630   15.3870   -2.7130 F   0  0  0  0  0  0  0  0  0  0  0  0
   -3.7230   14.7830   -0.7510 C   0  0  0  0  0  0  0  0  0  0  0  0
   -2.2760   14.8170   -0.6880 C   0  0  0  0  0  0  0  0  0  0  0  0
   -4.1380   15.1140    0.4650 C   0  0  0  0  0  0  0  0  0  0  0  0
   -2.1250   15.0950    0.7760 C   0  0  0  0  0  0  0  0  0  0  0  0
   -1.1220   14.7280   -1.4200 C   0  0  0  0  0  0  0  0  0  0  0  0
   -3.2090   15.3230    1.4000 N   0  0  0  0  0  0  0  0  0  0  0  0
   -0.9610   14.5290   -2.7970 N   0  0  0  0  0  0  0  0  0  0  0  0
    0.0310   14.8790   -0.6830 N   0  0  0  0  0  0  0  0  0  0  0  0
   -0.9780   15.1900    1.4090 N   0  0  0  0  0  0  0  0  0  0  0  0
   -2.0520   14.1410   -3.7110 C   0  0  0  0  0  0  0  0  0  0  0  0
    0.3080   14.8580   -3.4610 C   0  0  0  0  0  0  0  0  0  0  0  0
    0.0280   15.1160    0.6520 C   0  0  0  0  0  0  0  0  0  0  0  0
    0.7520   13.6320   -4.2230 C   0  0  0  0  0  0  0  0  0  0  0  0
   -1.6460   13.0160   -4.6840 C   0  0  0  0  0  0  0  0  0  0  0  0
    2.2200   13.3530   -4.4790 C   0  0  0  0  0  0  0  0  0  0  0  0
    1.4960   12.5870   -3.4130 C   0  0  0  0  0  0  0  0  0  0  0  0
   -0.2400   13.1730   -5.2690 C   0  0  0  0  0  0  0  0  0  0  0  0
  1  2  1  0
  2  3  2  0
  2  4  1  0
  4  5  2  0
  4  6  1  0
  5  7  1  0
  6  8  2  0
  7  9  2  0
  8  9  1  0
  9 10  1  0
 10 11  1  0
 10 12  1  0
 10 13  1  0
 13 14  1  0
 13 15  2  0
 14 16  1  0
 14 17  2  0
 15 18  1  0
 16 18  2  0
 17 19  1  0
 17 20  1  0
 16 21  1  0
 19 22  1  0
 19 23  1  0
 20 24  1  0
 21 24  2  0
 25 23  1  0
 22 26  1  0
 25 27  1  0
 25 28  1  0
 27 28  1  0
 25 29  1  0
 26 29  1  0
M  END
