diamond-x0855_0_A-diamond-x0681_0_A
     RDKit          3D

 25 27  0  0  0  0  0  0  0  0999 V2000
    1.9800   12.7770   -2.6980 O   0  0  0  0  0  0  0  0  0  0  0  0
    1.0190   12.0540   -3.3070 C   0  0  0  0  0  0  0  0  0  0  0  0
    0.3620   12.7750   -4.4580 C   0  0  2  0  0  0  0  0  0  0  0  0
    0.7630   10.9350   -2.8980 O   0  0  0  0  0  0  0  0  0  0  0  0
   -0.3170   14.0760   -3.9800 C   0  0  0  0  0  0  0  0  0  0  0  0
   -0.5820   11.8360   -5.0560 N   0  0  0  0  0  0  0  0  0  0  0  0
   -0.0190   14.3520   -2.4850 C   0  0  0  0  0  0  0  0  0  0  0  0
   -0.3320   10.9250   -6.0470 C   0  0  0  0  0  0  0  0  0  0  0  0
   -1.8570   11.8070   -4.6170 N   0  0  0  0  0  0  0  0  0  0  0  0
   -1.0340   15.2560   -1.7750 C   0  0  0  0  0  0  0  0  0  0  0  0
   -1.5210   10.2700   -6.2420 C   0  0  0  0  0  0  0  0  0  0  0  0
   -2.4270   10.8460   -5.3480 C   0  0  0  0  0  0  0  0  0  0  0  0
   -1.9060    8.8900   -7.4340 Br  0  0  0  0  0  0  0  0  0  0  0  0
   -2.2690   15.3920   -2.5410 N   0  0  0  0  0  0  0  0  0  0  0  0
   -3.4400   15.0890   -2.0840 C   0  0  0  0  0  0  0  0  0  0  0  0
   -4.6070   15.2370   -2.7890 N   0  0  0  0  0  0  0  0  0  0  0  0
   -3.5560   14.5190   -0.6470 C   0  0  2  0  0  0  0  0  0  0  0  0
   -4.6460   13.4910   -0.6310 C   0  0  0  0  0  0  0  0  0  0  0  0
   -3.8490   15.6220    0.3860 C   0  0  0  0  0  0  0  0  0  0  0  0
   -5.3790   13.2490    0.4830 N   0  0  0  0  0  0  0  0  0  0  0  0
   -4.1520   15.0350    1.7640 C   0  0  0  0  0  0  0  0  0  0  0  0
   -5.0480   12.7090   -1.6140 N   0  0  0  0  0  0  0  0  0  0  0  0
   -5.1960   13.9120    1.7290 C   0  0  0  0  0  0  0  0  0  0  0  0
   -6.2910   12.2790    0.2200 C   0  0  0  0  0  0  0  0  0  0  0  0
   -6.0730   11.9530   -1.0910 C   0  0  0  0  0  0  0  0  0  0  0  0
  1  2  1  0
  2  3  1  0
  2  4  2  0
  3  5  1  1
  3  6  1  0
  5  7  1  0
  6  8  1  0
  6  9  1  0
  7 10  1  0
  8 11  2  0
  9 12  2  0
 11 12  1  0
 11 13  1  0
 10 14  1  0
 14 15  2  3
 15 16  1  0
 17 15  1  6
 17 18  1  0
 17 19  1  0
 18 20  1  0
 19 21  1  0
 18 22  2  0
 20 23  1  0
 21 23  1  0
 20 24  1  0
 22 25  1  0
 24 25  2  0
M  END
