diamond-x0676_0_B-mac-x0344
     RDKit          3D

 27 29  0  0  0  0  0  0  0  0999 V2000
    5.8300    6.5550   -9.2350 C   0  0  0  0  0  0  0  0  0  0  0  0
    4.7610    7.1130  -10.1040 C   0  0  0  0  0  0  0  0  0  0  0  0
    4.9690    7.7040  -11.2400 N   0  0  0  0  0  0  0  0  0  0  0  0
    3.3210    7.0340   -9.7200 C   0  0  0  0  0  0  0  0  0  0  0  0
    2.7380    7.9930  -10.7220 C   0  0  0  0  0  0  0  0  0  0  0  0
    3.7200    8.1270  -11.7120 N   0  0  0  0  0  0  0  0  0  0  0  0
    1.5790    8.5220  -10.5880 N   0  0  0  0  0  0  0  0  0  0  0  0
    3.7920    9.1780  -12.6820 C   0  0  0  0  0  0  0  0  0  0  0  0
    0.7860    8.1780   -9.4060 C   0  0  0  0  0  0  0  0  0  0  0  0
    2.8820   10.2540  -12.7380 C   0  0  0  0  0  0  0  0  0  0  0  0
    4.8180    9.1810  -13.6470 C   0  0  0  0  0  0  0  0  0  0  0  0
   -0.5910    8.8530   -9.4570 C   0  0  0  0  0  0  0  0  0  0  0  0
    2.9970   11.2720  -13.7000 C   0  0  0  0  0  0  0  0  0  0  0  0
    4.9340   10.1910  -14.6090 C   0  0  0  0  0  0  0  0  0  0  0  0
    4.0220   11.2400  -14.6350 C   0  0  0  0  0  0  0  0  0  0  0  0
   -1.0780    9.2790   -8.0920 C   0  0  0  0  0  0  0  0  0  0  0  0
   -0.3410   10.2270   -7.3550 C   0  0  0  0  0  0  0  0  0  0  0  0
   -2.2530    8.7510   -7.5390 C   0  0  0  0  0  0  0  0  0  0  0  0
   -0.7630   10.6430   -6.0950 C   0  0  0  0  0  0  0  0  0  0  0  0
   -2.6750    9.1630   -6.2840 C   0  0  0  0  0  0  0  0  0  0  0  0
    0.0260   11.5970   -5.4240 N   0  0  0  0  0  0  0  0  0  0  0  0
   -1.9300   10.1020   -5.5720 C   0  0  0  0  0  0  0  0  0  0  0  0
    0.3790   11.6020   -4.0850 C   0  0  0  0  0  0  0  0  0  0  0  0
    1.2010   12.8640   -3.7120 C   0  0  0  0  0  0  0  0  0  0  0  0
    0.1290   10.7660   -3.2340 O   0  0  0  0  0  0  0  0  0  0  0  0
    1.5330   13.6510   -4.7350 O   0  0  0  0  0  0  0  0  0  0  0  0
    1.5140   13.1180   -2.5630 O   0  0  0  0  0  0  0  0  0  0  0  0
  1  2  1  0
  2  3  2  0
  2  4  1  0
  4  5  1  0
  3  6  1  0
  5  6  1  0
  5  7  2  3
  6  8  1  0
  7  9  1  0
  8 10  2  0
  8 11  1  0
  9 12  1  0
 10 13  1  0
 11 14  2  0
 13 15  2  0
 14 15  1  0
 12 16  1  0
 16 17  2  0
 16 18  1  0
 17 19  1  0
 18 20  2  0
 19 21  1  0
 19 22  2  0
 20 22  1  0
 21 23  1  0
 23 24  1  0
 23 25  2  0
 24 26  1  0
 24 27  2  0
M  END
