diamond-x0465_0_A-mac-x0546
     RDKit          3D

 24 26  0  0  0  0  0  0  0  0999 V2000
    2.5870   12.7800   -4.6460 C   0  0  0  0  0  0  0  0  0  0  0  0
    1.0670   12.7100   -4.4350 C   0  0  1  0  0  0  0  0  0  0  0  0
    0.5700   11.9690   -5.5940 O   0  0  0  0  0  0  0  0  0  0  0  0
    0.8530   12.0580   -3.0260 C   0  0  0  0  0  0  0  0  0  0  0  0
    0.8770   14.2020   -4.4400 C   0  0  0  0  0  0  0  0  0  0  0  0
    1.1460   12.5540   -1.9540 O   0  0  0  0  0  0  0  0  0  0  0  0
    0.2850   10.8330   -3.0410 O   0  0  0  0  0  0  0  0  0  0  0  0
   -0.5630   11.1720   -5.6290 C   0  0  0  0  0  0  0  0  0  0  0  0
   -0.0880   14.9760   -5.2450 C   0  0  1  0  0  0  0  0  0  0  0  0
    1.6040   15.0770   -3.7380 C   0  0  0  0  0  0  0  0  0  0  0  0
   -0.5570   10.0840   -6.5380 C   0  0  0  0  0  0  0  0  0  0  0  0
   -1.7110   11.3490   -4.8520 C   0  0  0  0  0  0  0  0  0  0  0  0
   -1.5700   14.9130   -5.1050 C   0  0  0  0  0  0  0  0  0  0  0  0
    0.3410   16.3500   -4.7840 C   0  0  0  0  0  0  0  0  0  0  0  0
    1.2800   16.3860   -3.9260 N   0  0  0  0  0  0  0  0  0  0  0  0
    0.5050    9.8460   -7.3260 F   0  0  0  0  0  0  0  0  0  0  0  0
   -1.6410    9.2160   -6.6610 C   0  0  0  0  0  0  0  0  0  0  0  0
   -2.8040   10.4770   -4.9770 C   0  0  0  0  0  0  0  0  0  0  0  0
   -2.2990   16.0460   -5.2600 C   0  0  0  0  0  0  0  0  0  0  0  0
   -0.3480   17.5290   -5.3210 C   0  0  0  0  0  0  0  0  0  0  0  0
   -3.6460   16.1530   -5.1910 O   0  0  0  0  0  0  0  0  0  0  0  0
   -2.7710    9.4130   -5.8770 C   0  0  0  0  0  0  0  0  0  0  0  0
   -1.6490   17.3250   -5.5380 C   0  0  0  0  0  0  0  0  0  0  0  0
   -4.4140   15.2070   -5.9280 C   0  0  0  0  0  0  0  0  0  0  0  0
  2  1  1  6
  2  3  1  0
  2  4  1  0
  2  5  1  0
  4  6  2  0
  4  7  1  0
  3  8  1  0
  5  9  1  0
  5 10  2  0
  8 11  2  0
  8 12  1  0
  9 13  1  1
  9 14  1  0
 10 15  1  0
 14 15  2  0
 11 16  1  0
 11 17  1  0
 12 18  2  0
 13 19  2  0
 14 20  1  0
 19 21  1  0
 17 22  2  0
 18 22  1  0
 19 23  1  0
 20 23  2  0
 21 24  1  0
M  END
