diamond-x0962_2_B-diamond-x0722_0_A
     RDKit          3D

 21 22  0  0  0  0  0  0  0  0999 V2000
  -10.0860   16.5750    1.0630 N   0  0  0  0  0  0  0  0  0  0  0  0
   -9.6750   15.2490    1.5280 C   0  0  1  0  0  0  0  0  0  0  0  0
   -8.6320   14.5500    0.6290 C   0  0  0  0  0  0  0  0  0  0  0  0
   -9.0690   15.3100    2.8770 C   0  0  0  0  0  0  0  0  0  0  0  0
   -8.4470   15.1350   -0.7660 C   0  0  0  0  0  0  0  0  0  0  0  0
   -9.1550   16.3530    3.7700 N   0  0  0  0  0  0  0  0  0  0  0  0
   -8.3030   14.3690    3.5260 C   0  0  0  0  0  0  0  0  0  0  0  0
   -7.0410   15.4750   -1.0060 N   0  0  0  0  0  0  0  0  0  0  0  0
   -8.4510   15.9960    4.8820 C   0  0  0  0  0  0  0  0  0  0  0  0
   -7.9310   14.8000    4.7620 N   0  0  0  0  0  0  0  0  0  0  0  0
   -6.0130   14.7850   -0.6190 C   0  0  0  0  0  0  0  0  0  0  0  0
   -5.9980   13.6030    0.0910 N   0  0  0  0  0  0  0  0  0  0  0  0
   -4.6620   15.3950   -1.0300 C   0  0  0  0  0  0  0  0  0  0  0  0
   -3.5140   15.0900   -0.1040 C   0  0  0  0  0  0  0  0  0  0  0  0
   -3.4600   15.2500    1.3000 C   0  0  0  0  0  0  0  0  0  0  0  0
   -2.2500   14.6000   -0.4150 C   0  0  0  0  0  0  0  0  0  0  0  0
   -4.4650   15.7520    2.2130 C   0  0  0  0  0  0  0  0  0  0  0  0
   -1.6320   14.2290   -1.7050 C   0  0  0  0  0  0  0  0  0  0  0  0
   -2.3000   14.8910    1.8120 N   0  0  0  0  0  0  0  0  0  0  0  0
   -1.5770   14.5100    0.7820 N   0  0  0  0  0  0  0  0  0  0  0  0
   -0.2310   14.0760    1.0410 C   0  0  0  0  0  0  0  0  0  0  0  0
  2  1  1  6
  2  3  1  0
  2  4  1  0
  3  5  1  0
  4  6  1  0
  4  7  2  0
  5  8  1  0
  6  9  1  0
  7 10  1  0
  9 10  2  0
  8 11  2  3
 11 12  1  0
 11 13  1  0
 13 14  1  0
 14 15  1  0
 14 16  2  0
 15 17  1  0
 16 18  1  0
 15 19  2  0
 16 20  1  0
 19 20  1  0
 20 21  1  0
M  END
