diamond-x1015_0_A-mac-x0397
     RDKit          3D

 28 31  0  0  0  0  0  0  0  0999 V2000
   -1.3580   13.8490   -4.3400 C   0  0  0  0  0  0  0  0  0  0  0  0
    0.0300   13.2440   -4.0860 C   0  0  2  0  0  0  0  0  0  0  0  0
   -0.0290   11.8210   -4.0490 N   0  0  0  0  0  0  0  0  0  0  0  0
    0.4820   13.4580   -2.6660 C   0  0  0  0  0  0  0  0  0  0  0  0
    0.4670   14.5270   -2.0800 N   0  0  0  0  0  0  0  0  0  0  0  0
    0.3370   11.3200   -2.7900 C   0  0  0  0  0  0  0  0  0  0  0  0
    0.9100   12.3320   -2.1010 N   0  0  0  0  0  0  0  0  0  0  0  0
   -0.4780   11.1080   -5.1600 C   0  0  0  0  0  0  0  0  0  0  0  0
    0.2040   10.2050   -2.3330 O   0  0  0  0  0  0  0  0  0  0  0  0
   -0.0670   15.4300   -3.0400 C   0  0  0  0  0  0  0  0  0  0  0  0
    0.0540   11.3610   -6.4280 C   0  0  0  0  0  0  0  0  0  0  0  0
   -1.4650   10.1320   -5.0260 C   0  0  0  0  0  0  0  0  0  0  0  0
   -1.1120   16.2650   -2.4040 C   0  0  0  0  0  0  0  0  0  0  0  0
   -0.3920   10.6490   -7.5380 C   0  0  0  0  0  0  0  0  0  0  0  0
   -1.9150    9.4170   -6.1320 C   0  0  0  0  0  0  0  0  0  0  0  0
   -1.3740    9.6800   -7.3840 C   0  0  0  0  0  0  0  0  0  0  0  0
   -2.4150   15.7860   -1.7370 C   0  0  0  0  0  0  0  0  0  0  0  0
   -1.9260    8.7970   -8.7470 Cl  0  0  0  0  0  0  0  0  0  0  0  0
   -3.6180   15.5910   -2.4470 C   0  0  0  0  0  0  0  0  0  0  0  0
   -2.4130   15.5800   -0.3490 C   0  0  0  0  0  0  0  0  0  0  0  0
   -3.6040   15.2180    0.3000 C   0  0  0  0  0  0  0  0  0  0  0  0
   -4.7870   15.2260   -1.7550 C   0  0  0  0  0  0  0  0  0  0  0  0
   -6.2950   14.9890   -2.5230 Cl  0  0  0  0  0  0  0  0  0  0  0  0
   -4.8080   15.0420   -0.3700 C   0  0  0  0  0  0  0  0  0  0  0  0
   -3.8620   14.9380    1.9610 S   0  0  0  0  0  0  0  0  0  0  0  0
   -5.5220   14.6350    1.6920 C   0  0  0  0  0  0  0  0  0  0  0  0
   -5.8900   14.7070    0.4420 N   0  0  0  0  0  0  0  0  0  0  0  0
   -6.3890   14.3510    2.6860 N   0  0  0  0  0  0  0  0  0  0  0  0
  2  1  1  1
  2  3  1  0
  2  4  1  0
  4  5  2  3
  3  6  1  0
  4  7  1  0
  6  7  1  0
  3  8  1  0
  6  9  2  0
  5 10  1  0
  8 11  2  0
  8 12  1  0
 10 13  1  0
 11 14  1  0
 12 15  2  0
 14 16  2  0
 15 16  1  0
 13 17  1  0
 16 18  1  0
 17 19  2  0
 17 20  1  0
 20 21  2  0
 19 22  1  0
 22 23  1  0
 21 24  1  0
 22 24  2  0
 21 25  1  0
 25 26  1  0
 24 27  1  0
 26 27  2  0
 26 28  1  0
M  END
