diamond-x0724_0_A-mac-x0179
     RDKit          3D

 31 34  0  0  0  0  0  0  0  0999 V2000
   -8.2720   13.8020    4.4130 N   0  0  0  0  0  0  0  0  0  0  0  0
   -8.6890   14.0060    5.7930 C   0  0  0  0  0  0  0  0  0  0  0  0
   -8.4950   15.0010    3.6150 C   0  0  0  0  0  0  0  0  0  0  0  0
   -7.7960   14.8350    2.3090 C   0  0  0  0  0  0  0  0  0  0  0  0
   -6.4400   14.8190    2.0670 C   0  0  0  0  0  0  0  0  0  0  0  0
   -8.3580   14.6600    1.0300 C   0  0  0  0  0  0  0  0  0  0  0  0
   -7.4380   14.5470    0.0650 N   0  0  0  0  0  0  0  0  0  0  0  0
   -6.2470   14.6510    0.7160 N   0  0  0  0  0  0  0  0  0  0  0  0
   -4.9940   14.5900    0.0480 C   0  0  0  0  0  0  0  0  0  0  0  0
   -3.8410   14.9960    0.7320 C   0  0  0  0  0  0  0  0  0  0  0  0
   -4.8930   14.1280   -1.2790 C   0  0  0  0  0  0  0  0  0  0  0  0
   -2.6050   14.9380    0.1000 C   0  0  0  0  0  0  0  0  0  0  0  0
   -3.6390   14.0670   -1.9170 C   0  0  0  0  0  0  0  0  0  0  0  0
   -3.4710   13.5580   -3.3370 C   0  0  0  0  0  0  0  0  0  0  0  0
   -2.5040   14.4810   -1.2100 C   0  0  0  0  0  0  0  0  0  0  0  0
   -2.1160   12.8300   -3.5050 C   0  0  0  0  0  0  0  0  0  0  0  0
   -2.1590   11.7550   -4.4970 N   0  0  0  0  0  0  0  0  0  0  0  0
   -1.1900   11.4690   -5.2880 C   0  0  0  0  0  0  0  0  0  0  0  0
    0.0530   12.0250   -5.4330 N   0  0  0  0  0  0  0  0  0  0  0  0
   -1.2770   10.3810   -6.2830 C   0  0  0  0  0  0  0  0  0  0  0  0
    0.8330   12.8090   -4.4850 C   0  0  0  0  0  0  0  0  0  0  0  0
    0.7040   11.4880   -6.5080 C   0  0  0  0  0  0  0  0  0  0  0  0
   -0.1160   10.4080   -7.0320 C   0  0  0  0  0  0  0  0  0  0  0  0
   -2.2670    9.4450   -6.5330 C   0  0  0  0  0  0  0  0  0  0  0  0
    0.9880   12.1440   -3.1250 C   0  0  0  0  0  0  0  0  0  0  0  0
    1.7720   11.8030   -6.9530 O   0  0  0  0  0  0  0  0  0  0  0  0
    0.1300    9.5230   -8.0650 C   0  0  0  0  0  0  0  0  0  0  0  0
   -2.0460    8.5330   -7.5760 C   0  0  0  0  0  0  0  0  0  0  0  0
    1.5540   12.8990   -2.1630 O   0  0  0  0  0  0  0  0  0  0  0  0
    0.6310   10.9970   -2.8980 O   0  0  0  0  0  0  0  0  0  0  0  0
   -0.8580    8.5730   -8.3360 C   0  0  0  0  0  0  0  0  0  0  0  0
  1  2  1  0
  1  3  1  0
  3  4  1  0
  4  5  2  0
  4  6  1  0
  6  7  2  0
  5  8  1  0
  7  8  1  0
  8  9  1  0
  9 10  2  0
  9 11  1  0
 10 12  1  0
 11 13  2  0
 13 14  1  0
 12 15  2  0
 13 15  1  0
 14 16  1  0
 16 17  1  0
 17 18  2  3
 18 19  1  0
 18 20  1  0
 19 21  1  0
 19 22  1  0
 20 23  2  0
 22 23  1  0
 20 24  1  0
 21 25  1  0
 22 26  2  0
 23 27  1  0
 24 28  2  0
 25 29  1  0
 25 30  2  0
 27 31  2  0
 28 31  1  0
M  END
