diamond-x0574_0_A-mac-x0161
     RDKit          3D

 20 22  0  0  0  0  0  0  0  0999 V2000
    0.2160   14.0240    2.2940 N   0  0  0  0  0  0  0  0  0  0  0  0
   -0.7910   14.2260    1.5010 C   0  0  0  0  0  0  0  0  0  0  0  0
   -1.9590   14.3550    1.9880 N   0  0  0  0  0  0  0  0  0  0  0  0
   -0.6320   14.3210   -0.1870 S   0  0  0  0  0  0  0  0  0  0  0  0
   -2.8580   14.5270    1.0000 C   0  0  0  0  0  0  0  0  0  0  0  0
   -2.3360   14.5400   -0.2900 C   0  0  0  0  0  0  0  0  0  0  0  0
   -4.2130   14.6780    1.2290 C   0  0  0  0  0  0  0  0  0  0  0  0
   -3.1190   14.7030   -1.4290 C   0  0  0  0  0  0  0  0  0  0  0  0
   -2.4590   14.7070   -2.8390 C   0  0  0  0  0  0  0  0  0  0  0  0
   -5.0630   14.8390    0.1670 C   0  0  0  0  0  0  0  0  0  0  0  0
   -4.5350   14.8570   -1.1590 C   0  0  0  0  0  0  0  0  0  0  0  0
   -6.4140   14.9760    0.3460 O   0  0  0  0  0  0  0  0  0  0  0  0
   -1.6860   13.4770   -3.2710 C   0  0  0  0  0  0  0  0  0  0  0  0
   -6.8920   14.5520    1.6370 C   0  0  0  0  0  0  0  0  0  0  0  0
   -1.8510   12.5890   -4.3160 C   0  0  0  0  0  0  0  0  0  0  0  0
   -0.5840   13.0790   -2.5510 O   0  0  0  0  0  0  0  0  0  0  0  0
   -0.0330   11.9300   -3.1230 N   0  0  0  0  0  0  0  0  0  0  0  0
   -0.8080   11.6590   -4.1710 C   0  0  0  0  0  0  0  0  0  0  0  0
   -0.5840   10.5970   -4.9830 O   0  0  0  0  0  0  0  0  0  0  0  0
   -1.6330   10.3290   -5.9080 C   0  0  0  0  0  0  0  0  0  0  0  0
  1  2  1  0
  2  3  2  0
  2  4  1  0
  3  5  1  0
  4  6  1  0
  5  6  2  0
  5  7  1  0
  6  8  1  0
  8  9  1  0
  7 10  2  0
  8 11  2  0
 10 11  1  0
 10 12  1  0
  9 13  1  0
 12 14  1  0
 13 15  2  0
 13 16  1  0
 16 17  1  0
 15 18  1  0
 17 18  2  0
 18 19  1  0
 19 20  1  0
M  END
