diamond-x0962_3_A-mac-x0394
     RDKit          3D

 22 23  0  0  0  0  0  0  0  0999 V2000
    0.9570   11.3130   -8.9660 N   0  0  0  0  0  0  0  0  0  0  0  0
    0.8990   10.8760   -7.5930 C   0  0  1  0  0  0  0  0  0  0  0  0
    0.3790   11.9630   -6.6310 C   0  0  0  0  0  0  0  0  0  0  0  0
   -0.0340    9.7510   -7.5780 C   0  0  0  0  0  0  0  0  0  0  0  0
    1.5030   12.8130   -6.0330 C   0  0  0  0  0  0  0  0  0  0  0  0
    0.1860    8.5620   -8.2260 N   0  0  0  0  0  0  0  0  0  0  0  0
   -1.2560    9.6080   -6.9750 C   0  0  0  0  0  0  0  0  0  0  0  0
    1.7790   12.4890   -4.5790 C   0  0  0  0  0  0  0  0  0  0  0  0
   -0.8940    7.7730   -7.9860 C   0  0  0  0  0  0  0  0  0  0  0  0
   -1.7830    8.3800   -7.2320 N   0  0  0  0  0  0  0  0  0  0  0  0
    1.2200   13.4460   -3.5440 C   0  0  2  0  0  0  0  0  0  0  0  0
    0.5410   12.6200   -2.4510 C   0  0  0  0  0  0  0  0  0  0  0  0
    0.3770   14.5620   -4.1440 C   0  0  0  0  0  0  0  0  0  0  0  0
    0.0640   11.4260   -2.8580 O   0  0  0  0  0  0  0  0  0  0  0  0
    0.4130   12.9350   -1.2780 O   0  0  0  0  0  0  0  0  0  0  0  0
   -0.9890   14.4180   -4.4350 C   0  0  0  0  0  0  0  0  0  0  0  0
    0.9880   15.7910   -4.4200 C   0  0  0  0  0  0  0  0  0  0  0  0
   -1.7110   15.4830   -4.9820 C   0  0  0  0  0  0  0  0  0  0  0  0
    0.2470   16.8350   -4.9660 C   0  0  0  0  0  0  0  0  0  0  0  0
    0.9880   18.3310   -5.3090 Cl  0  0  0  0  0  0  0  0  0  0  0  0
   -3.3820   15.2980   -5.3370 Cl  0  0  0  0  0  0  0  0  0  0  0  0
   -1.0980   16.6920   -5.2460 C   0  0  0  0  0  0  0  0  0  0  0  0
  2  1  1  6
  2  3  1  0
  2  4  1  0
  3  5  1  0
  4  6  1  0
  4  7  2  0
  5  8  1  0
  6  9  1  0
  7 10  1  0
  9 10  2  0
 11  8  1  6
 11 12  1  0
 11 13  1  0
 12 14  1  0
 12 15  2  0
 13 16  2  0
 13 17  1  0
 16 18  1  0
 17 19  2  0
 19 20  1  0
 18 21  1  0
 18 22  2  0
 19 22  1  0
M  END
