diamond-x0628_0_A-mac-x0161
     RDKit          3D

 30 33  0  0  0  0  0  0  0  0999 V2000
   -0.5440    8.6070   -7.0070 C   0  0  0  0  0  0  0  0  0  0  0  0
   -0.5080    9.9480   -6.2770 C   0  0  2  0  0  0  0  0  0  0  0  0
   -1.7500   10.7000   -6.1550 N   0  0  0  0  0  0  0  0  0  0  0  0
    0.5060   10.8750   -6.8290 N   0  0  0  0  0  0  0  0  0  0  0  0
   -2.2430   10.9340   -4.8350 N   0  0  0  0  0  0  0  0  0  0  0  0
   -0.1230   12.1780   -6.7460 N   0  0  0  0  0  0  0  0  0  0  0  0
   -1.5390   11.8870   -6.9740 C   0  0  2  0  0  0  0  0  0  0  0  0
   -2.4460   13.0260   -6.5200 C   0  0  0  0  0  0  0  0  0  0  0  0
    0.2590   12.9630   -5.5550 C   0  0  0  0  0  0  0  0  0  0  0  0
   -2.8640    9.7560   -4.2270 C   0  0  0  0  0  0  0  0  0  0  0  0
   -1.7080   11.8880   -3.9940 C   0  0  0  0  0  0  0  0  0  0  0  0
    1.7310   13.0340   -5.1270 C   0  0  0  0  0  0  0  0  0  0  0  0
   -1.9560   13.2780   -4.1040 C   0  0  0  0  0  0  0  0  0  0  0  0
   -0.8770   11.6650   -2.9580 N   0  0  0  0  0  0  0  0  0  0  0  0
    1.9260   12.5370   -3.7120 C   0  0  0  0  0  0  0  0  0  0  0  0
   -1.2360   13.8740   -3.1120 C   0  0  0  0  0  0  0  0  0  0  0  0
   -0.5830   12.9010   -2.4120 O   0  0  0  0  0  0  0  0  0  0  0  0
    1.2130   11.7170   -3.1570 O   0  0  0  0  0  0  0  0  0  0  0  0
    2.9840   13.0730   -3.0710 O   0  0  0  0  0  0  0  0  0  0  0  0
   -1.0630   15.2940   -2.7020 C   0  0  0  0  0  0  0  0  0  0  0  0
   -1.9730   15.6730   -1.6100 N   0  0  0  0  0  0  0  0  0  0  0  0
   -3.3610   15.3420   -1.9950 C   0  0  0  0  0  0  0  0  0  0  0  0
   -1.6230   14.8900   -0.4520 C   0  0  2  0  0  0  0  0  0  0  0  0
   -4.3110   15.5540   -0.8950 N   0  0  0  0  0  0  0  0  0  0  0  0
   -2.5150   15.1400    0.7440 C   0  0  1  0  0  0  0  0  0  0  0  0
   -0.3630   15.2700    0.1610 N   0  0  0  0  0  0  0  0  0  0  0  0
   -3.9490   14.8050    0.3030 C   0  0  1  0  0  0  0  0  0  0  0  0
   -1.8120   14.3680    1.7640 N   0  0  0  0  0  0  0  0  0  0  0  0
   -0.4210   14.3450    1.3000 C   0  0  0  0  0  0  0  0  0  0  0  0
   -4.9640   15.2030    1.2620 N   0  0  0  0  0  0  0  0  0  0  0  0
  2  1  1  6
  2  3  1  0
  2  4  1  0
  3  5  1  0
  4  6  1  0
  3  7  1  0
  6  7  1  0
  7  8  1  1
  6  9  1  0
  5 10  1  0
  5 11  1  0
  9 12  1  0
 11 13  1  0
 11 14  2  0
 12 15  1  0
 13 16  2  0
 14 17  1  0
 16 17  1  0
 15 18  2  0
 15 19  1  0
 16 20  1  0
 20 21  1  0
 21 22  1  0
 21 23  1  0
 22 24  1  0
 23 25  1  0
 23 26  1  1
 24 27  1  0
 25 27  1  0
 25 28  1  1
 26 29  1  0
 28 29  1  0
 27 30  1  1
M  END
