diamond-x0910_0_A-mac-x0412
     RDKit          3D

 16 18  0  0  0  0  0  0  0  0999 V2000
   -2.5890   12.9940   -1.3190 N   0  0  0  0  0  0  0  0  0  0  0  0
   -1.9810   13.9340   -0.5620 C   0  0  0  0  0  0  0  0  0  0  0  0
   -2.6640   15.2430   -0.2300 C   0  0  2  0  0  0  0  0  0  0  0  0
   -0.7740   13.8530   -0.1000 N   0  0  0  0  0  0  0  0  0  0  0  0
   -1.5840   15.8660    0.5860 N   0  0  0  0  0  0  0  0  0  0  0  0
   -0.5940   15.0180    0.5820 C   0  0  0  0  0  0  0  0  0  0  0  0
   -4.0560   15.1360    0.4240 C   0  0  0  0  0  0  0  0  0  0  0  0
   -2.7340   15.7010   -1.6570 C   0  0  0  0  0  0  0  0  0  0  0  0
   -5.2320   15.0530   -0.4520 C   0  0  0  0  0  0  0  0  0  0  0  0
   -4.2830   15.1180    1.7380 C   0  0  0  0  0  0  0  0  0  0  0  0
   -3.8780   15.7000   -2.3580 C   0  0  0  0  0  0  0  0  0  0  0  0
   -6.5940   14.6970    0.1010 C   0  0  0  0  0  0  0  0  0  0  0  0
   -5.6910   15.0070    2.1790 C   0  0  0  0  0  0  0  0  0  0  0  0
   -5.1340   15.3100   -1.7620 C   0  0  0  0  0  0  0  0  0  0  0  0
   -7.5260   14.3720   -0.6270 O   0  0  0  0  0  0  0  0  0  0  0  0
   -6.7350   14.8030    1.4570 N   0  0  0  0  0  0  0  0  0  0  0  0
  1  2  1  0
  2  3  1  0
  2  4  2  0
  3  5  1  0
  4  6  1  0
  5  6  2  0
  3  7  1  0
  3  8  1  6
  7  9  1  0
  7 10  2  0
  8 11  2  0
  9 12  1  0
 10 13  1  0
  9 14  2  0
 11 14  1  0
 12 15  2  0
 12 16  1  0
 13 16  2  0
M  END
