diamond-x0592_0_A-mac-x0190
     RDKit          3D

 16 17  0  0  0  0  0  0  0  0999 V2000
   -2.6740   14.0940    0.6500 N   0  0  0  0  0  0  0  0  0  0  0  0
   -2.7870   14.0810   -0.7120 C   0  0  0  0  0  0  0  0  0  0  0  0
   -1.8570   14.4800   -1.3950 O   0  0  0  0  0  0  0  0  0  0  0  0
   -4.0950   13.5680   -1.2890 C   0  0  0  0  0  0  0  0  0  0  0  0
   -5.1750   14.5790   -1.0330 C   0  0  2  0  0  0  0  0  0  0  0  0
   -6.1590   14.8540   -2.1270 N   0  0  0  0  0  0  0  0  0  0  0  0
   -4.3940   15.8060   -0.7130 C   0  0  0  0  0  0  0  0  0  0  0  0
   -6.0330   14.0400    0.1560 C   0  0  2  0  0  0  0  0  0  0  0  0
   -7.2220   14.8270   -0.0760 N   0  0  0  0  0  0  0  0  0  0  0  0
   -5.4090   14.3260    1.4740 C   0  0  0  0  0  0  0  0  0  0  0  0
   -4.0780   16.1060    0.5490 C   0  0  0  0  0  0  0  0  0  0  0  0
   -7.2690   14.9900   -1.4410 C   0  0  0  0  0  0  0  0  0  0  0  0
   -8.3810   14.7010    0.8000 C   0  0  0  0  0  0  0  0  0  0  0  0
   -4.4970   15.2890    1.6320 C   0  0  0  0  0  0  0  0  0  0  0  0
   -8.0470   14.0660    2.1690 C   0  0  0  0  0  0  0  0  0  0  0  0
   -7.3680   14.9720    3.0400 O   0  0  0  0  0  0  0  0  0  0  0  0
  1  2  1  0
  2  3  2  0
  2  4  1  0
  5  4  1  6
  5  6  1  0
  5  7  1  0
  5  8  1  0
  8  9  1  0
  8 10  1  1
  7 11  2  0
  6 12  2  0
  9 12  1  0
  9 13  1  0
 10 14  2  0
 11 14  1  0
 13 15  1  0
 15 16  1  0
M  END
