diamond-x0950_1_A-diamond-x0837_0_A
     RDKit          3D

 17 17  0  0  0  0  0  0  0  0999 V2000
    1.0870   13.9450   -4.9850 C   0  0  0  0  0  0  0  0  0  0  0  0
    1.3350   12.5560   -4.4400 C   0  0  2  0  0  0  0  0  0  0  0  0
    0.6210   11.6850   -5.3090 O   0  0  0  0  0  0  0  0  0  0  0  0
    0.8580   12.3760   -3.0250 C   0  0  0  0  0  0  0  0  0  0  0  0
    0.5540   10.9730   -2.8880 O   0  0  0  0  0  0  0  0  0  0  0  0
    1.8130   12.6580   -2.1020 O   0  0  0  0  0  0  0  0  0  0  0  0
   -0.4470   13.0090   -2.7650 C   0  0  0  0  0  0  0  0  0  0  0  0
   -1.3710   12.2950   -1.8690 C   0  0  0  0  0  0  0  0  0  0  0  0
   -2.7810   12.5640   -2.4500 C   0  0  0  0  0  0  0  0  0  0  0  0
   -3.1200   14.6280   -2.6310 I   0  0  0  0  0  0  0  0  0  0  0  0
   -4.3830   15.3220   -1.0850 C   0  0  2  0  0  0  0  0  0  0  0  0
   -3.6320   15.2540    0.1800 C   0  0  0  0  0  0  0  0  0  0  0  0
   -5.6450   14.5540   -1.0250 C   0  0  0  0  0  0  0  0  0  0  0  0
   -4.2180   15.0490    1.3300 C   0  0  0  0  0  0  0  0  0  0  0  0
   -6.3850   14.7570    0.2510 C   0  0  0  0  0  0  0  0  0  0  0  0
   -7.6200   14.8100    0.2300 O   0  0  0  0  0  0  0  0  0  0  0  0
   -5.6160   14.8680    1.4420 N   0  0  0  0  0  0  0  0  0  0  0  0
  2  1  1  6
  2  3  1  0
  2  4  1  0
  4  5  1  0
  4  6  1  0
  4  7  1  0
  7  8  1  0
  8  9  1  0
  9 10  1  0
 11 10  1  6
 11 12  1  0
 11 13  1  0
 12 14  2  0
 13 15  1  0
 15 16  2  0
 14 17  1  0
 15 17  1  0
M  END
