diamond-x0587_0_A-mac-x0587
     RDKit          3D

 27 28  0  0  0  0  0  0  0  0999 V2000
   -7.6410   14.8350    4.0280 N   0  0  0  0  0  0  0  0  0  0  0  0
   -8.3010   14.9100    2.8390 C   0  0  0  0  0  0  0  0  0  0  0  0
   -9.5060   15.1080    2.7630 O   0  0  0  0  0  0  0  0  0  0  0  0
   -7.4730   14.7540    1.6470 C   0  0  0  0  0  0  0  0  0  0  0  0
   -7.9520   14.4550    0.3950 C   0  0  0  0  0  0  0  0  0  0  0  0
   -6.1220   14.9210    1.7430 C   0  0  0  0  0  0  0  0  0  0  0  0
   -7.1590   14.3260   -0.6950 N   0  0  0  0  0  0  0  0  0  0  0  0
   -5.2850   14.8060    0.7030 N   0  0  0  0  0  0  0  0  0  0  0  0
   -5.8270   14.5120   -0.4980 C   0  0  0  0  0  0  0  0  0  0  0  0
   -4.8870   14.3760   -1.6930 C   0  0  0  0  0  0  0  0  0  0  0  0
   -5.1770   13.3140   -2.4990 F   0  0  0  0  0  0  0  0  0  0  0  0
   -4.9600   15.4850   -2.5010 F   0  0  0  0  0  0  0  0  0  0  0  0
   -3.4180   14.2240   -1.2920 C   0  0  1  0  0  0  0  0  0  0  0  0
   -2.2780   14.8670   -1.9740 N   0  0  0  0  0  0  0  0  0  0  0  0
   -3.2350   14.7950    0.1160 C   0  0  0  0  0  0  0  0  0  0  0  0
   -2.0130   14.9410   -3.3400 C   0  0  0  0  0  0  0  0  0  0  0  0
   -1.8140   14.7810    0.2250 N   0  0  0  0  0  0  0  0  0  0  0  0
   -1.2400   14.8560   -1.0340 C   0  0  0  0  0  0  0  0  0  0  0  0
   -0.5180   14.8330   -3.7750 C   0  0  2  0  0  0  0  0  0  0  0  0
   -2.9040   15.0980   -4.1750 O   0  0  0  0  0  0  0  0  0  0  0  0
   -0.0400   14.9160   -1.2070 O   0  0  0  0  0  0  0  0  0  0  0  0
    0.1450   16.1150   -4.2770 C   0  0  0  0  0  0  0  0  0  0  0  0
   -0.2520   13.5160   -5.0390 S   0  0  0  0  0  0  0  0  0  0  0  0
   -0.6650   12.0300   -4.0700 C   0  0  0  0  0  0  0  0  0  0  0  0
    0.4450   11.5460   -3.1650 C   0  0  0  0  0  0  0  0  0  0  0  0
    0.5300   10.4020   -2.7460 O   0  0  0  0  0  0  0  0  0  0  0  0
    1.3500   12.4850   -2.8390 O   0  0  0  0  0  0  0  0  0  0  0  0
  1  2  1  0
  2  3  2  0
  2  4  1  0
  4  5  2  0
  4  6  1  0
  5  7  1  0
  6  8  2  0
  7  9  2  0
  8  9  1  0
  9 10  1  0
 10 11  1  0
 10 12  1  0
 13 10  1  6
 13 14  1  0
 13 15  1  0
 14 16  1  0
 15 17  1  0
 14 18  1  0
 17 18  1  0
 16 19  1  0
 16 20  2  0
 18 21  2  0
 19 22  1  6
 19 23  1  0
 23 24  1  0
 24 25  1  0
 25 26  2  0
 25 27  1  0
M  END
