diamond-x0628_0_A-mac-x0263
     RDKit          3D

 28 30  0  0  0  0  0  0  0  0999 V2000
   -0.9780    9.1680   -7.1010 C   0  0  0  0  0  0  0  0  0  0  0  0
   -0.9960   10.4050   -6.2940 C   0  0  0  0  0  0  0  0  0  0  0  0
   -2.0560   10.7720   -5.5080 N   0  0  0  0  0  0  0  0  0  0  0  0
    0.0250   11.2600   -6.2680 N   0  0  0  0  0  0  0  0  0  0  0  0
   -0.4200   12.2160   -5.4130 N   0  0  0  0  0  0  0  0  0  0  0  0
   -1.6950   11.9210   -4.9470 C   0  0  0  0  0  0  0  0  0  0  0  0
   -2.5710   12.7080   -3.9810 C   0  0  0  0  0  0  0  0  0  0  0  0
    0.4680   13.3300   -5.1430 C   0  0  0  0  0  0  0  0  0  0  0  0
    1.6100   12.9550   -4.2030 C   0  0  0  0  0  0  0  0  0  0  0  0
   -2.1200   14.1280   -3.5420 C   0  0  0  0  0  0  0  0  0  0  0  0
    1.1260   12.2860   -2.9330 C   0  0  0  0  0  0  0  0  0  0  0  0
   -3.2680   15.1700   -3.3450 C   0  0  0  0  0  0  0  0  0  0  0  0
    0.6480   11.1610   -2.8980 O   0  0  0  0  0  0  0  0  0  0  0  0
    1.2630   13.0210   -1.8170 O   0  0  0  0  0  0  0  0  0  0  0  0
   -4.0050   15.0720   -2.0020 C   0  0  0  0  0  0  0  0  0  0  0  0
   -5.4050   14.9320   -2.0250 C   0  0  0  0  0  0  0  0  0  0  0  0
   -3.3300   15.1060   -0.7620 C   0  0  0  0  0  0  0  0  0  0  0  0
   -6.0690   14.8090   -0.8010 C   0  0  0  0  0  0  0  0  0  0  0  0
   -4.0280   14.9910    0.4570 C   0  0  0  0  0  0  0  0  0  0  0  0
   -7.3960   14.6430   -0.4880 N   0  0  0  0  0  0  0  0  0  0  0  0
   -5.4240   14.8320    0.4240 C   0  0  0  0  0  0  0  0  0  0  0  0
   -7.5100   14.5630    0.8790 C   0  0  0  0  0  0  0  0  0  0  0  0
   -6.3290   14.6800    1.4460 N   0  0  0  0  0  0  0  0  0  0  0  0
   -8.8140   14.3670    1.5820 C   0  0  0  0  0  0  0  0  0  0  0  0
   -9.4220   15.6780    2.0560 C   0  0  0  0  0  0  0  0  0  0  0  0
  -10.7330   15.5120    2.7710 C   0  0  0  0  0  0  0  0  0  0  0  0
  -11.4090   14.3990    2.4330 O   0  0  0  0  0  0  0  0  0  0  0  0
  -11.1830   16.2920    3.5920 O   0  0  0  0  0  0  0  0  0  0  0  0
  1  2  1  0
  2  3  1  0
  2  4  2  0
  4  5  1  0
  3  6  2  0
  5  6  1  0
  6  7  1  0
  5  8  1  0
  8  9  1  0
  7 10  1  0
  9 11  1  0
 10 12  1  0
 11 13  2  0
 11 14  1  0
 12 15  1  0
 15 16  2  0
 15 17  1  0
 16 18  1  0
 17 19  2  0
 18 20  1  0
 18 21  2  0
 19 21  1  0
 20 22  1  0
 21 23  1  0
 22 23  2  0
 22 24  1  0
 24 25  1  0
 25 26  1  0
 26 27  1  0
 26 28  2  0
M  END
