mac-x0255-diamond-x0681_0_A
     RDKit          3D

 26 29  0  0  0  0  0  0  0  0999 V2000
    1.2480   12.8920   -2.1890 O   0  0  0  0  0  0  0  0  0  0  0  0
    0.4060   11.9560   -2.6640 C   0  0  0  0  0  0  0  0  0  0  0  0
    0.3800   10.8180   -2.1700 O   0  0  0  0  0  0  0  0  0  0  0  0
   -0.5020   12.3140   -3.8390 C   0  0  0  0  0  0  0  0  0  0  0  0
   -0.8050   13.7690   -4.1550 C   0  0  0  0  0  0  0  0  0  0  0  0
   -0.5010   14.9650   -3.5410 C   0  0  0  0  0  0  0  0  0  0  0  0
   -1.7450   14.0650   -5.5270 S   0  0  0  0  0  0  0  0  0  0  0  0
    0.1820   15.0690   -2.2600 C   0  0  0  0  0  0  0  0  0  0  0  0
   -0.9570   16.1300   -4.2540 C   0  0  0  0  0  0  0  0  0  0  0  0
   -1.6990   15.7730   -5.3390 C   0  0  0  0  0  0  0  0  0  0  0  0
   -0.9360   14.7530   -1.2620 N   0  0  0  0  0  0  0  0  0  0  0  0
   -0.7870   17.5090   -4.0220 C   0  0  0  0  0  0  0  0  0  0  0  0
   -2.3170   16.7400   -6.1540 C   0  0  0  0  0  0  0  0  0  0  0  0
   -2.2840   14.8500   -1.4370 C   0  0  0  0  0  0  0  0  0  0  0  0
   -1.3790   18.4580   -4.8560 C   0  0  0  0  0  0  0  0  0  0  0  0
   -2.1440   18.0760   -5.9060 C   0  0  0  0  0  0  0  0  0  0  0  0
   -3.0290   15.2550   -2.5420 N   0  0  0  0  0  0  0  0  0  0  0  0
   -3.1870   14.4840   -0.1930 C   0  0  2  0  0  0  0  0  0  0  0  0
   -4.3290   13.5100   -0.4160 C   0  0  0  0  0  0  0  0  0  0  0  0
   -3.7550   15.6620    0.5730 C   0  0  0  0  0  0  0  0  0  0  0  0
   -5.3510   13.4230    0.5090 N   0  0  0  0  0  0  0  0  0  0  0  0
   -4.2520   15.1540    1.9090 C   0  0  0  0  0  0  0  0  0  0  0  0
   -4.5510   12.6570   -1.4060 N   0  0  0  0  0  0  0  0  0  0  0  0
   -5.4390   14.2170    1.7270 C   0  0  0  0  0  0  0  0  0  0  0  0
   -6.2440   12.4840    0.0960 C   0  0  0  0  0  0  0  0  0  0  0  0
   -5.7370   12.0190   -1.0930 C   0  0  0  0  0  0  0  0  0  0  0  0
  1  2  1  0
  2  3  2  0
  2  4  1  0
  4  5  1  0
  5  6  2  0
  5  7  1  0
  6  8  1  0
  6  9  1  0
  7 10  1  0
  9 10  2  0
  8 11  1  0
  9 12  1  0
 10 13  1  0
 11 14  2  3
 12 15  2  0
 13 16  2  0
 15 16  1  0
 14 17  1  0
 18 14  1  6
 18 19  1  0
 18 20  1  0
 19 21  1  0
 20 22  1  0
 19 23  2  0
 21 24  1  0
 22 24  1  0
 21 25  1  0
 23 26  1  0
 25 26  2  0
M  END
