mac-x0392-mac-x0590
     RDKit          3D

 22 24  0  0  0  0  0  0  0  0999 V2000
   -0.0550   13.4640    1.4210 N   0  0  0  0  0  0  0  0  0  0  0  0
   -1.2400   14.3080    1.6020 C   0  0  0  0  0  0  0  0  0  0  0  0
   -1.8540   14.8610    0.3760 C   0  0  2  0  0  0  0  0  0  0  0  0
   -3.2170   15.4640    0.5600 N   0  0  0  0  0  0  0  0  0  0  0  0
   -1.8050   13.7440   -0.6780 C   0  0  1  0  0  0  0  0  0  0  0  0
   -0.8320   15.8000   -0.2470 C   0  0  0  0  0  0  0  0  0  0  0  0
   -3.8500   15.6320    1.8250 N   0  0  0  0  0  0  0  0  0  0  0  0
   -2.7730   13.9300   -1.8160 C   0  0  2  0  0  0  0  0  0  0  0  0
   -4.0180   15.6260   -0.5230 C   0  0  0  0  0  0  0  0  0  0  0  0
   -0.3600   13.7660   -1.0450 N   0  0  0  0  0  0  0  0  0  0  0  0
   -0.0120   15.0940   -1.0270 C   0  0  0  0  0  0  0  0  0  0  0  0
   -1.9950   14.1800   -3.0520 C   0  0  0  0  0  0  0  0  0  0  0  0
   -3.8660   14.9550   -1.6550 C   0  0  0  0  0  0  0  0  0  0  0  0
   -2.3510   13.8970   -4.2200 N   0  0  0  0  0  0  0  0  0  0  0  0
   -0.7790   14.7580   -2.8980 O   0  0  0  0  0  0  0  0  0  0  0  0
   -1.5330   14.1600   -5.3510 C   0  0  0  0  0  0  0  0  0  0  0  0
   -0.0600   13.9910   -5.0530 C   0  0  0  0  0  0  0  0  0  0  0  0
    0.4640   12.5680   -5.0730 C   0  0  2  0  0  0  0  0  0  0  0  0
    0.7350   12.0020   -3.6790 C   0  0  0  0  0  0  0  0  0  0  0  0
    1.8200   12.5560   -5.7030 C   0  0  0  0  0  0  0  0  0  0  0  0
    2.6870   12.9240   -4.5190 C   0  0  0  0  0  0  0  0  0  0  0  0
    2.1180   12.2600   -3.3830 O   0  0  0  0  0  0  0  0  0  0  0  0
  1  2  1  0
  3  2  1  1
  3  4  1  0
  3  5  1  0
  3  6  1  0
  4  7  1  0
  5  8  1  0
  4  9  1  0
  5 10  1  6
  6 11  2  0
 10 11  1  0
  8 12  1  6
  8 13  1  0
  9 13  2  0
 12 14  2  3
 12 15  1  0
 14 16  1  0
 16 17  1  0
 18 17  1  1
 18 19  1  0
 18 20  1  0
 20 21  1  0
 19 22  1  0
 21 22  1  0
M  END
