mac-x0354-diamond-x1012_0_A
     RDKit          3D

 25 27  0  0  0  0  0  0  0  0999 V2000
    0.4830   11.2550   -8.1980 C   0  0  0  0  0  0  0  0  0  0  0  0
    0.8400   11.6460   -6.8470 N   0  0  0  0  0  0  0  0  0  0  0  0
    1.8180   12.5270   -6.6050 N   0  0  0  0  0  0  0  0  0  0  0  0
    0.2530   11.1750   -5.7150 C   0  0  0  0  0  0  0  0  0  0  0  0
    1.8770   12.6220   -5.2870 C   0  0  0  0  0  0  0  0  0  0  0  0
    0.9280   11.7900   -4.6450 C   0  0  0  0  0  0  0  0  0  0  0  0
   -0.8270   10.2090   -5.7960 C   0  0  0  0  0  0  0  0  0  0  0  0
    0.7700   11.6300   -3.1510 C   0  0  1  0  0  0  0  0  0  0  0  0
   -0.6240    8.9890   -6.4580 C   0  0  0  0  0  0  0  0  0  0  0  0
   -2.0650   10.4870   -5.2280 C   0  0  0  0  0  0  0  0  0  0  0  0
    0.2820   12.8190   -2.3470 C   0  0  0  0  0  0  0  0  0  0  0  0
    0.0640   10.4350   -2.7730 O   0  0  0  0  0  0  0  0  0  0  0  0
   -1.6560    8.0560   -6.5460 C   0  0  0  0  0  0  0  0  0  0  0  0
   -3.0960    9.5560   -5.3180 C   0  0  0  0  0  0  0  0  0  0  0  0
    0.3030   12.7910   -1.1080 O   0  0  0  0  0  0  0  0  0  0  0  0
   -2.8900    8.3450   -5.9730 C   0  0  0  0  0  0  0  0  0  0  0  0
   -0.2290   14.0380   -3.0970 C   0  0  0  0  0  0  0  0  0  0  0  0
   -1.2780   13.6420   -4.1240 C   0  0  0  0  0  0  0  0  0  0  0  0
    0.9090   14.8950   -3.6770 C   0  0  0  0  0  0  0  0  0  0  0  0
   -1.8630   14.8720   -4.8000 C   0  0  0  0  0  0  0  0  0  0  0  0
    0.5290   15.5850   -4.9830 C   0  0  0  0  0  0  0  0  0  0  0  0
   -0.8870   15.9440   -5.0020 N   0  0  0  0  0  0  0  0  0  0  0  0
   -1.2450   17.2540   -4.8270 C   0  0  0  0  0  0  0  0  0  0  0  0
   -0.2520   18.1560   -4.6800 N   0  0  0  0  0  0  0  0  0  0  0  0
   -2.3970   17.6450   -4.7890 O   0  0  0  0  0  0  0  0  0  0  0  0
  1  2  1  0
  2  3  1  0
  2  4  1  0
  3  5  2  0
  4  6  2  0
  5  6  1  0
  4  7  1  0
  6  8  1  0
  7  9  2  0
  7 10  1  0
  8 11  1  0
  8 12  1  6
  9 13  1  0
 10 14  2  0
 11 15  2  0
 13 16  2  0
 14 16  1  0
 11 17  1  0
 17 18  1  0
 17 19  1  0
 18 20  1  0
 19 21  1  0
 20 22  1  0
 21 22  1  0
 22 23  1  0
 23 24  1  0
 23 25  2  0
M  END
