mac-x0455-diamond-x0159_0_B
     RDKit          3D

 33 36  0  0  0  0  0  0  0  0999 V2000
   -2.2310   14.4120   -2.4340 C   0  0  0  0  0  0  0  0  0  0  0  0
   -1.0040   14.2020   -3.3290 C   0  0  1  0  0  0  0  0  0  0  0  0
   -0.9450   15.3640   -4.1830 O   0  0  0  0  0  0  0  0  0  0  0  0
    0.2460   14.1980   -2.4280 C   0  0  0  0  0  0  0  0  0  0  0  0
   -1.0630   12.9500   -4.2130 C   0  0  0  0  0  0  0  0  0  0  0  0
    0.7940   15.1950   -1.9880 O   0  0  0  0  0  0  0  0  0  0  0  0
    0.7510   12.9900   -2.1260 O   0  0  0  0  0  0  0  0  0  0  0  0
   -2.0450   11.9640   -4.0040 C   0  0  0  0  0  0  0  0  0  0  0  0
   -0.1490   12.7420   -5.2570 C   0  0  0  0  0  0  0  0  0  0  0  0
   -2.1080   10.8200   -4.8030 C   0  0  0  0  0  0  0  0  0  0  0  0
   -0.2100   11.5960   -6.0650 C   0  0  0  0  0  0  0  0  0  0  0  0
    0.7690   11.4190   -7.1730 C   0  0  0  0  0  0  0  0  0  0  0  0
   -1.1940   10.6380   -5.8280 C   0  0  0  0  0  0  0  0  0  0  0  0
    0.7880   10.0820   -7.9070 C   0  0  0  0  0  0  0  0  0  0  0  0
    0.8170   10.2580   -9.4240 C   0  0  0  0  0  0  0  0  0  0  0  0
    1.4130    9.1030  -10.1070 N   0  0  0  0  0  0  0  0  0  0  0  0
    1.9130    8.0420   -9.2140 C   0  0  0  0  0  0  0  0  0  0  0  0
    2.1860    9.3690  -11.1900 C   0  0  0  0  0  0  0  0  0  0  0  0
    1.3700    6.7120   -9.6870 C   0  0  0  0  0  0  0  0  0  0  0  0
    1.9960   10.5300  -11.8880 N   0  0  0  0  0  0  0  0  0  0  0  0
    3.1570    8.6580  -11.7250 N   0  0  0  0  0  0  0  0  0  0  0  0
    3.6070    9.3930  -12.7940 C   0  0  0  0  0  0  0  0  0  0  0  0
    2.8920   10.5810  -12.9200 C   0  0  0  0  0  0  0  0  0  0  0  0
    1.1510    5.5920   -8.7240 C   0  0  0  0  0  0  0  0  0  0  0  0
    1.0780    4.2990   -9.1930 C   0  0  0  0  0  0  0  0  0  0  0  0
    1.0110    5.8250   -7.3520 C   0  0  0  0  0  0  0  0  0  0  0  0
    3.1330   11.5250  -13.9120 C   0  0  0  0  0  0  0  0  0  0  0  0
    4.6290    9.1170  -13.7110 C   0  0  0  0  0  0  0  0  0  0  0  0
    0.8680    3.2430   -8.3280 C   0  0  0  0  0  0  0  0  0  0  0  0
    0.8010    4.7590   -6.4830 C   0  0  0  0  0  0  0  0  0  0  0  0
    4.1590   11.2340  -14.8170 C   0  0  0  0  0  0  0  0  0  0  0  0
    4.8960   10.0490  -14.7200 C   0  0  0  0  0  0  0  0  0  0  0  0
    0.7300    3.4740   -6.9880 C   0  0  0  0  0  0  0  0  0  0  0  0
  2  1  1  1
  2  3  1  0
  2  4  1  0
  2  5  1  0
  4  6  2  0
  4  7  1  0
  5  8  2  0
  5  9  1  0
  8 10  1  0
  9 11  2  0
 11 12  1  0
 10 13  2  0
 11 13  1  0
 12 14  1  0
 14 15  1  0
 15 16  1  0
 16 17  1  0
 16 18  1  0
 17 19  1  0
 18 20  1  0
 18 21  2  0
 21 22  1  0
 20 23  1  0
 22 23  2  0
 19 24  1  0
 24 25  2  0
 24 26  1  0
 23 27  1  0
 22 28  1  0
 25 29  1  0
 26 30  2  0
 27 31  2  0
 28 32  2  0
 31 32  1  0
 29 33  2  0
 30 33  1  0
M  END
