mac-x0417-mac-x0360
     RDKit          3D

 28 30  0  0  0  0  0  0  0  0999 V2000
    1.4160   12.7950   -2.4710 O   0  0  0  0  0  0  0  0  0  0  0  0
    0.7900   12.0230   -3.3790 C   0  0  0  0  0  0  0  0  0  0  0  0
    0.6380   10.8370   -3.1380 O   0  0  0  0  0  0  0  0  0  0  0  0
    0.3290   12.7460   -4.6360 C   0  0  2  0  0  0  0  0  0  0  0  0
   -0.9760   13.5490   -4.4300 C   0  0  0  0  0  0  0  0  0  0  0  0
    0.2500   11.7640   -5.7710 C   0  0  0  0  0  0  0  0  0  0  0  0
   -1.8260   13.0100   -3.2680 C   0  0  0  0  0  0  0  0  0  0  0  0
    1.2300   11.7340   -6.6790 N   0  0  0  0  0  0  0  0  0  0  0  0
   -0.7520   10.7960   -6.0520 C   0  0  0  0  0  0  0  0  0  0  0  0
   -1.6860   13.8510   -1.9950 C   0  0  0  0  0  0  0  0  0  0  0  0
    0.8760   10.7380   -7.5830 O   0  0  0  0  0  0  0  0  0  0  0  0
   -0.3030   10.1810   -7.2060 C   0  0  0  0  0  0  0  0  0  0  0  0
   -1.9630   10.3680   -5.4850 C   0  0  0  0  0  0  0  0  0  0  0  0
   -2.8800   14.6780   -1.8490 N   0  0  0  0  0  0  0  0  0  0  0  0
   -0.9760    9.1520   -7.8590 C   0  0  0  0  0  0  0  0  0  0  0  0
   -2.6680    9.3330   -6.1150 C   0  0  0  0  0  0  0  0  0  0  0  0
   -3.7500   14.7500   -0.4230 S   0  0  0  0  0  0  0  0  0  0  0  0
   -2.1810    8.7370   -7.2810 C   0  0  0  0  0  0  0  0  0  0  0  0
   -4.6800   15.8430   -0.5890 O   0  0  0  0  0  0  0  0  0  0  0  0
   -2.8280   14.7140    0.6880 O   0  0  0  0  0  0  0  0  0  0  0  0
   -4.7160   13.2540   -0.4540 C   0  0  0  0  0  0  0  0  0  0  0  0
   -4.5200   12.2960   -1.4580 C   0  0  0  0  0  0  0  0  0  0  0  0
   -5.6780   13.0520    0.5420 C   0  0  0  0  0  0  0  0  0  0  0  0
   -5.3030   11.1430   -1.4550 C   0  0  0  0  0  0  0  0  0  0  0  0
   -6.4480   11.8900    0.5260 C   0  0  0  0  0  0  0  0  0  0  0  0
   -7.6360   11.6260    1.7410 Cl  0  0  0  0  0  0  0  0  0  0  0  0
   -5.0830    9.9460   -2.6770 Cl  0  0  0  0  0  0  0  0  0  0  0  0
   -6.2660   10.9360   -0.4720 C   0  0  0  0  0  0  0  0  0  0  0  0
  1  2  1  0
  2  3  2  0
  2  4  1  0
  4  5  1  1
  4  6  1  0
  5  7  1  0
  6  8  2  0
  6  9  1  0
  7 10  1  0
  8 11  1  0
  9 12  2  0
 11 12  1  0
  9 13  1  0
 10 14  1  0
 12 15  1  0
 13 16  2  0
 17 14  1  0
 15 18  2  0
 16 18  1  0
 17 19  2  0
 17 20  2  0
 17 21  1  0
 21 22  2  0
 21 23  1  0
 22 24  1  0
 23 25  2  0
 25 26  1  0
 24 27  1  0
 24 28  2  0
 25 28  1  0
M  END
