mac-x1493-mac-x0433
     RDKit          3D

 16 17  0  0  0  0  0  0  0  0999 V2000
   -1.4100   14.4890   -1.7320 O   0  0  0  0  0  0  0  0  0  0  0  0
   -2.4930   14.7680   -2.4910 C   0  0  0  0  0  0  0  0  0  0  0  0
   -2.4050   14.6580   -3.7020 O   0  0  0  0  0  0  0  0  0  0  0  0
   -3.6990   15.2240   -1.6840 C   0  0  2  0  0  0  0  0  0  0  0  0
   -3.6040   15.0590   -0.1450 C   0  0  2  0  0  0  0  0  0  0  0  0
   -5.1000   14.9330   -2.3060 C   0  0  1  0  0  0  0  0  0  0  0  0
   -3.0420   13.7610    0.4090 C   0  0  0  0  0  0  0  0  0  0  0  0
   -5.2060   14.3350   -3.6130 N   0  0  0  0  0  0  0  0  0  0  0  0
   -4.9380   15.5130    0.4490 C   0  0  1  0  0  0  0  0  0  0  0  0
   -6.0050   14.2090   -1.4210 N   0  0  0  0  0  0  0  0  0  0  0  0
   -7.3620   14.0390   -1.9340 C   0  0  0  0  0  0  0  0  0  0  0  0
   -6.2190   15.0440   -0.2860 C   0  0  1  0  0  0  0  0  0  0  0  0
   -5.0350   15.3930    1.9390 C   0  0  0  0  0  0  0  0  0  0  0  0
   -7.3880   14.5720    0.5400 C   0  0  0  0  0  0  0  0  0  0  0  0
   -6.1510   14.9610    2.5550 C   0  0  0  0  0  0  0  0  0  0  0  0
   -7.3310   14.5450    1.8600 C   0  0  0  0  0  0  0  0  0  0  0  0
  1  2  1  0
  2  3  2  0
  4  2  1  6
  4  5  1  0
  4  6  1  0
  5  7  1  6
  6  8  1  6
  5  9  1  0
  6 10  1  0
 10 11  1  0
  9 12  1  0
 10 12  1  0
  9 13  1  1
 12 14  1  1
 13 15  2  0
 14 16  2  0
 15 16  1  0
M  END
