mac-x0159-mac-x0441
     RDKit          3D

 35 39  0  0  0  0  0  0  0  0999 V2000
   -4.2530   15.6480    0.7190 N   0  0  0  0  0  0  0  0  0  0  0  0
   -3.4030   14.9860   -0.2470 C   0  0  2  0  0  0  0  0  0  0  0  0
   -1.9280   15.3400   -0.0910 C   0  0  2  0  0  0  0  0  0  0  0  0
   -3.8670   15.3980   -1.5470 N   0  0  0  0  0  0  0  0  0  0  0  0
   -3.0480   14.9370   -2.6890 C   0  0  0  0  0  0  0  0  0  0  0  0
   -1.2080   14.5340   -1.1560 C   0  0  1  0  0  0  0  0  0  0  0  0
   -1.2910   14.9400    1.1540 N   0  0  0  0  0  0  0  0  0  0  0  0
   -1.5900   14.9850   -2.4950 N   0  0  0  0  0  0  0  0  0  0  0  0
    0.1370   14.8800   -0.7380 N   0  0  0  0  0  0  0  0  0  0  0  0
    0.0650   14.7010    0.7170 C   0  0  0  0  0  0  0  0  0  0  0  0
   -0.8020   14.6580   -3.7380 C   0  0  2  0  0  0  0  0  0  0  0  0
    0.5920   13.9460   -3.8410 C   0  0  0  0  0  0  0  0  0  0  0  0
   -0.4560   16.0040   -4.3580 C   0  0  0  0  0  0  0  0  0  0  0  0
    0.7800   12.4450   -4.1760 C   0  0  1  0  0  0  0  0  0  0  0  0
    0.8090   16.5710   -4.3110 C   0  0  0  0  0  0  0  0  0  0  0  0
   -1.3990   16.7600   -5.0390 N   0  0  0  0  0  0  0  0  0  0  0  0
    0.5320   11.6640   -2.9040 C   0  0  0  0  0  0  0  0  0  0  0  0
   -0.8370   17.8620   -5.4880 C   0  0  0  0  0  0  0  0  0  0  0  0
    0.8250   18.0620   -5.1300 S   0  0  0  0  0  0  0  0  0  0  0  0
    0.3550   11.7000   -5.4060 N   0  0  0  0  0  0  0  0  0  0  0  0
   -1.5470   18.9060   -6.2700 C   0  0  0  0  0  0  0  0  0  0  0  0
    0.2140   10.3620   -3.1060 O   0  0  0  0  0  0  0  0  0  0  0  0
    0.6140   12.1280   -1.7670 O   0  0  0  0  0  0  0  0  0  0  0  0
    1.2090   11.7400   -6.4820 N   0  0  0  0  0  0  0  0  0  0  0  0
   -0.7440   10.9170   -5.6980 C   0  0  0  0  0  0  0  0  0  0  0  0
    0.6490   10.9510   -7.4370 C   0  0  0  0  0  0  0  0  0  0  0  0
   -0.5690   10.4280   -6.9820 C   0  0  0  0  0  0  0  0  0  0  0  0
   -1.9250   10.5870   -4.8420 C   0  0  0  0  0  0  0  0  0  0  0  0
    1.2400   10.6460   -8.7940 C   0  0  0  0  0  0  0  0  0  0  0  0
   -1.5180    9.5200   -7.6740 C   0  0  0  0  0  0  0  0  0  0  0  0
   -3.0100    9.8490   -5.6600 C   0  0  0  0  0  0  0  0  0  0  0  0
    1.6060    9.3370   -8.8850 F   0  0  0  0  0  0  0  0  0  0  0  0
    0.3620   10.8590   -9.8130 F   0  0  0  0  0  0  0  0  0  0  0  0
    2.3550   11.3160   -9.0610 F   0  0  0  0  0  0  0  0  0  0  0  0
   -2.4110    8.8250   -6.6400 C   0  0  0  0  0  0  0  0  0  0  0  0
  2  1  1  1
  2  3  1  0
  2  4  1  0
  4  5  1  0
  3  6  1  0
  3  7  1  1
  5  8  1  0
  6  8  1  0
  6  9  1  1
  7 10  1  0
  9 10  1  0
  8 11  1  0
 11 12  1  1
 11 13  1  0
 14 12  1  1
 13 15  2  0
 13 16  1  0
 14 17  1  0
 16 18  2  0
 15 19  1  0
 18 19  1  0
 14 20  1  0
 18 21  1  0
 17 22  1  0
 17 23  2  0
 20 24  1  0
 20 25  1  0
 24 26  2  0
 25 27  2  0
 26 27  1  0
 25 28  1  0
 26 29  1  0
 27 30  1  0
 28 31  1  0
 29 32  1  0
 29 33  1  0
 29 34  1  0
 30 35  1  0
 31 35  1  0
M  END
