mac-x0373-diamond-x0933_0_A
     RDKit          3D

 17 18  0  0  0  0  0  0  0  0999 V2000
    1.0340   13.6550   -1.6390 O   0  0  0  0  0  0  0  0  0  0  0  0
    0.1410   14.5020   -2.1950 C   0  0  0  0  0  0  0  0  0  0  0  0
    0.5050   15.5960   -2.5700 O   0  0  0  0  0  0  0  0  0  0  0  0
   -1.2250   13.8500   -2.2190 C   0  0  2  0  0  0  0  0  0  0  0  0
   -1.6010   12.9620   -3.3920 C   0  0  0  0  0  0  0  0  0  0  0  0
   -2.3760   14.4150   -1.4020 C   0  0  0  0  0  0  0  0  0  0  0  0
   -0.9710   12.9790   -4.6490 C   0  0  0  0  0  0  0  0  0  0  0  0
   -2.6470   12.0530   -3.1730 C   0  0  0  0  0  0  0  0  0  0  0  0
   -3.5180   15.1320   -1.8370 C   0  0  0  0  0  0  0  0  0  0  0  0
   -2.2410   14.1350   -0.0480 C   0  0  0  0  0  0  0  0  0  0  0  0
   -1.3870   12.0980   -5.6520 C   0  0  0  0  0  0  0  0  0  0  0  0
   -3.0590   11.1790   -4.1700 C   0  0  0  0  0  0  0  0  0  0  0  0
   -4.4950   15.5160   -0.8870 C   0  0  0  0  0  0  0  0  0  0  0  0
   -3.1920   14.5110    0.8640 C   0  0  0  0  0  0  0  0  0  0  0  0
   -2.4270   11.2000   -5.4110 C   0  0  0  0  0  0  0  0  0  0  0  0
   -4.3210   15.1810    0.4780 C   0  0  0  0  0  0  0  0  0  0  0  0
   -5.2240   15.4650    1.5010 N   0  0  0  0  0  0  0  0  0  0  0  0
  1  2  1  0
  2  3  2  0
  4  2  1  6
  4  5  1  0
  4  6  1  0
  5  7  2  0
  5  8  1  0
  6  9  2  0
  6 10  1  0
  7 11  1  0
  8 12  2  0
  9 13  1  0
 10 14  2  0
 11 15  2  0
 12 15  1  0
 13 16  2  0
 14 16  1  0
 16 17  1  0
M  END
