mac-x0305-diamond-x0371_0_A
     RDKit          3D

 23 25  0  0  0  0  0  0  0  0999 V2000
    0.1990   13.2520   -0.4550 O   0  0  0  0  0  0  0  0  0  0  0  0
   -0.5250   14.0000   -1.3390 C   0  0  0  0  0  0  0  0  0  0  0  0
    0.0270   14.4600   -2.3280 O   0  0  0  0  0  0  0  0  0  0  0  0
   -2.0020   14.1270   -0.9100 C   0  0  1  0  0  0  0  0  0  0  0  0
   -2.1110   14.3340    0.6350 C   0  0  1  0  0  0  0  0  0  0  0  0
   -2.7320   15.1040   -1.7780 N   0  0  0  0  0  0  0  0  0  0  0  0
   -1.0310   14.9940    1.3080 O   0  0  0  0  0  0  0  0  0  0  0  0
   -3.3690   15.0840    0.9880 C   0  0  0  0  0  0  0  0  0  0  0  0
   -4.1610   15.3140   -1.4120 C   0  0  0  0  0  0  0  0  0  0  0  0
   -4.5100   14.7750    0.0100 C   0  0  2  0  0  0  0  0  0  0  0  0
   -5.7060   15.3280    0.6650 N   0  0  0  0  0  0  0  0  0  0  0  0
   -5.0100   13.3430   -0.0970 C   0  0  0  0  0  0  0  0  0  0  0  0
   -6.9100   14.5820    0.2580 C   0  0  1  0  0  0  0  0  0  0  0  0
   -6.3860   13.5370   -0.5840 N   0  0  0  0  0  0  0  0  0  0  0  0
   -7.8190   14.0480    1.4230 C   0  0  0  0  0  0  0  0  0  0  0  0
   -7.6150   14.7070    2.7140 N   0  0  0  0  0  0  0  0  0  0  0  0
   -8.5060   15.4420    3.4800 C   0  0  0  0  0  0  0  0  0  0  0  0
   -9.3470   16.1130    2.8640 O   0  0  0  0  0  0  0  0  0  0  0  0
   -8.4690   15.4380    4.9320 C   0  0  0  0  0  0  0  0  0  0  0  0
   -7.9590   14.3850    5.6360 O   0  0  0  0  0  0  0  0  0  0  0  0
   -8.9000   16.4020    5.8290 C   0  0  0  0  0  0  0  0  0  0  0  0
   -8.6350   15.9060    7.1280 C   0  0  0  0  0  0  0  0  0  0  0  0
   -8.0600   14.6740    6.9540 C   0  0  0  0  0  0  0  0  0  0  0  0
  1  2  1  0
  2  3  2  0
  4  2  1  6
  4  5  1  0
  4  6  1  0
  5  7  1  6
  5  8  1  0
  6  9  1  0
 10  8  1  1
  9 10  1  0
 10 11  1  0
 10 12  1  0
 11 13  1  0
 12 14  1  0
 13 14  1  0
 13 15  1  1
 15 16  1  0
 16 17  1  0
 17 18  2  0
 17 19  1  0
 19 20  1  0
 19 21  2  0
 21 22  1  0
 20 23  1  0
 22 23  2  0
M  END
