mac-x0148-mac-x0527
     RDKit          3D

 22 26  0  0  0  0  0  0  0  0999 V2000
   -4.4330   15.0910   -3.3590 O   0  0  0  0  0  0  0  0  0  0  0  0
   -3.6570   14.4360   -2.6690 C   0  0  0  0  0  0  0  0  0  0  0  0
   -2.9740   13.3700   -3.2010 N   0  0  0  0  0  0  0  0  0  0  0  0
   -3.3890   14.7330   -1.2860 C   0  0  0  0  0  0  0  0  0  0  0  0
   -1.9820   12.4590   -2.5850 C   0  0  0  0  0  0  0  0  0  0  0  0
   -2.1090   14.7590   -0.7520 C   0  0  0  0  0  0  0  0  0  0  0  0
   -4.2450   15.0220   -0.2880 C   0  0  0  0  0  0  0  0  0  0  0  0
   -0.4930   12.8870   -2.6700 C   0  0  1  0  0  0  0  0  0  0  0  0
   -2.3650   15.0110    0.6760 C   0  0  0  0  0  0  0  0  0  0  0  0
   -0.8690   14.6220   -1.2480 C   0  0  0  0  0  0  0  0  0  0  0  0
   -3.6260   15.2090    0.9480 N   0  0  0  0  0  0  0  0  0  0  0  0
    0.2010   12.3080   -3.9100 C   0  0  0  0  0  0  0  0  0  0  0  0
   -0.5820   14.3430   -2.6090 N   0  0  0  0  0  0  0  0  0  0  0  0
    0.1190   14.7320   -0.3020 N   0  0  0  0  0  0  0  0  0  0  0  0
   -1.3480   15.0340    1.5580 N   0  0  0  0  0  0  0  0  0  0  0  0
   -1.5830   14.6860   -3.6860 C   0  0  1  0  0  0  0  0  0  0  0  0
   -0.4300   12.9060   -5.1400 C   0  0  0  0  0  0  0  0  0  0  0  0
   -0.1850   14.9040    1.0260 C   0  0  0  0  0  0  0  0  0  0  0  0
   -1.3870   15.8180   -4.6700 C   0  0  0  0  0  0  0  0  0  0  0  0
   -1.7450   13.5270   -4.6860 C   0  0  2  0  0  0  0  0  0  0  0  0
   -2.5690   14.1510   -5.7930 C   0  0  0  0  0  0  0  0  0  0  0  0
   -2.3570   15.5700   -5.7130 O   0  0  0  0  0  0  0  0  0  0  0  0
  1  2  2  0
  2  3  1  0
  2  4  1  0
  3  5  1  0
  4  6  1  0
  4  7  2  0
  8  5  1  6
  6  9  1  0
  6 10  2  0
  7 11  1  0
  9 11  2  0
  8 12  1  0
  8 13  1  0
 10 13  1  0
 10 14  1  0
  9 15  1  0
 13 16  1  0
 12 17  1  0
 14 18  1  0
 15 18  2  0
 16 19  1  6
 16 20  1  0
 20 17  1  6
 20 21  1  0
 19 22  1  0
 21 22  1  0
M  END
