mac-x0441-mac-x0228
     RDKit          3D

 30 33  0  0  0  0  0  0  0  0999 V2000
    0.6680   10.9120   -3.1600 O   0  0  0  0  0  0  0  0  0  0  0  0
    0.8160   12.1970   -3.5280 C   0  0  0  0  0  0  0  0  0  0  0  0
    1.6670   12.8850   -2.9880 O   0  0  0  0  0  0  0  0  0  0  0  0
   -0.1660   12.6040   -4.5970 C   0  0  1  0  0  0  0  0  0  0  0  0
   -0.4120   14.1360   -4.6560 C   0  0  0  0  0  0  0  0  0  0  0  0
   -0.1080   11.7730   -5.8280 N   0  0  0  0  0  0  0  0  0  0  0  0
   -1.7450   14.3850   -4.0480 N   0  0  0  0  0  0  0  0  0  0  0  0
    0.7830   11.9000   -6.8840 N   0  0  0  0  0  0  0  0  0  0  0  0
   -0.9720   10.7490   -6.0510 C   0  0  0  0  0  0  0  0  0  0  0  0
   -1.9620   14.6280   -2.7870 C   0  0  0  0  0  0  0  0  0  0  0  0
    0.4110   10.9000   -7.7670 C   0  0  0  0  0  0  0  0  0  0  0  0
   -0.6700   10.1850   -7.2500 C   0  0  0  0  0  0  0  0  0  0  0  0
   -2.0660   10.3010   -5.1700 C   0  0  0  0  0  0  0  0  0  0  0  0
    0.9600   10.4890   -9.1240 C   0  0  0  0  0  0  0  0  0  0  0  0
   -1.0010   14.7240   -1.8560 O   0  0  0  0  0  0  0  0  0  0  0  0
   -1.4020    9.0310   -7.8380 C   0  0  0  0  0  0  0  0  0  0  0  0
   -3.0430    9.4050   -5.9400 C   0  0  0  0  0  0  0  0  0  0  0  0
   -3.3310   14.7900   -2.1930 C   0  0  0  0  0  0  0  0  0  0  0  0
    1.6460    9.3170   -9.1040 F   0  0  0  0  0  0  0  0  0  0  0  0
   -0.0730   10.2480   -9.9700 F   0  0  0  0  0  0  0  0  0  0  0  0
    1.6830   11.3800   -9.8230 F   0  0  0  0  0  0  0  0  0  0  0  0
   -2.3040    8.3670   -6.7880 C   0  0  0  0  0  0  0  0  0  0  0  0
   -3.5510   14.6610   -0.8060 C   0  0  0  0  0  0  0  0  0  0  0  0
   -4.4280   15.0590   -3.0330 C   0  0  0  0  0  0  0  0  0  0  0  0
   -4.8430   14.7890   -0.3180 C   0  0  0  0  0  0  0  0  0  0  0  0
   -5.7260   15.1910   -2.5150 C   0  0  0  0  0  0  0  0  0  0  0  0
   -5.9050   15.0490   -1.1590 C   0  0  0  0  0  0  0  0  0  0  0  0
   -5.3450   14.6760    1.0650 C   0  0  0  0  0  0  0  0  0  0  0  0
   -7.1120   15.1370   -0.5080 O   0  0  0  0  0  0  0  0  0  0  0  0
   -6.8330   14.4940    0.7580 C   0  0  0  0  0  0  0  0  0  0  0  0
  1  2  1  0
  2  3  2  0
  2  4  1  0
  4  5  1  6
  4  6  1  0
  5  7  1  0
  6  8  1  0
  6  9  1  0
  7 10  2  3
  8 11  2  0
  9 12  2  0
 11 12  1  0
  9 13  1  0
 11 14  1  0
 10 15  1  0
 12 16  1  0
 13 17  1  0
 10 18  1  0
 14 19  1  0
 14 20  1  0
 14 21  1  0
 16 22  1  0
 17 22  1  0
 18 23  2  0
 18 24  1  0
 23 25  1  0
 24 26  2  0
 25 27  2  0
 26 27  1  0
 25 28  1  0
 27 29  1  0
 28 30  1  0
 29 30  1  0
M  END
