mac-x0546-diamond-x0724_0_A
     RDKit          3D

 31 34  0  0  0  0  0  0  0  0999 V2000
   -4.3580   15.2820   -6.2990 C   0  0  0  0  0  0  0  0  0  0  0  0
   -3.5990   15.7760   -5.1540 N   0  0  0  0  0  0  0  0  0  0  0  0
   -4.1980   15.2860   -3.9040 C   0  0  0  0  0  0  0  0  0  0  0  0
   -2.2330   15.8930   -5.2490 C   0  0  0  0  0  0  0  0  0  0  0  0
   -3.5370   14.1250   -3.2490 C   0  0  0  0  0  0  0  0  0  0  0  0
   -1.4600   14.8030   -5.1190 C   0  0  0  0  0  0  0  0  0  0  0  0
   -1.5910   17.2010   -5.5040 C   0  0  0  0  0  0  0  0  0  0  0  0
    0.0070   14.8840   -5.2390 C   0  0  1  0  0  0  0  0  0  0  0  0
   -0.2800   17.4230   -5.2880 C   0  0  0  0  0  0  0  0  0  0  0  0
   -3.6140   14.3820   -1.7860 C   0  0  0  0  0  0  0  0  0  0  0  0
    0.4310   16.2490   -4.7690 C   0  0  0  0  0  0  0  0  0  0  0  0
    0.9190   14.0970   -4.3980 C   0  0  0  0  0  0  0  0  0  0  0  0
   -2.4620   14.6160   -1.0370 C   0  0  0  0  0  0  0  0  0  0  0  0
   -4.8640   14.3980   -1.1700 C   0  0  0  0  0  0  0  0  0  0  0  0
    0.9360   12.6130   -4.3800 C   0  0  0  0  0  0  0  0  0  0  0  0
    1.3870   16.2710   -3.9180 N   0  0  0  0  0  0  0  0  0  0  0  0
    1.6860   14.9440   -3.7070 C   0  0  0  0  0  0  0  0  0  0  0  0
   -2.5570   14.8620    0.3260 C   0  0  0  0  0  0  0  0  0  0  0  0
   -4.9660   14.6450    0.1910 C   0  0  0  0  0  0  0  0  0  0  0  0
    0.7700   12.0840   -2.9770 C   0  0  0  0  0  0  0  0  0  0  0  0
   -6.2220   14.6730    0.8410 N   0  0  0  0  0  0  0  0  0  0  0  0
   -3.8040   14.8770    0.9430 C   0  0  0  0  0  0  0  0  0  0  0  0
    1.0540   12.6870   -1.9590 O   0  0  0  0  0  0  0  0  0  0  0  0
    0.2620   10.8390   -2.9150 O   0  0  0  0  0  0  0  0  0  0  0  0
   -7.3900   14.5320    0.1570 N   0  0  0  0  0  0  0  0  0  0  0  0
   -6.4480   14.8440    2.1820 C   0  0  0  0  0  0  0  0  0  0  0  0
   -7.8080   14.8250    2.3900 C   0  0  0  0  0  0  0  0  0  0  0  0
   -8.3340   14.6240    1.0950 C   0  0  0  0  0  0  0  0  0  0  0  0
   -8.5290   14.9870    3.6760 C   0  0  0  0  0  0  0  0  0  0  0  0
   -8.2910   13.7970    4.4870 N   0  0  0  0  0  0  0  0  0  0  0  0
   -8.7210   14.0120    5.8590 C   0  0  0  0  0  0  0  0  0  0  0  0
  1  2  1  0
  2  3  1  0
  2  4  1  0
  3  5  1  0
  4  6  2  0
  4  7  1  0
  8  6  1  1
  7  9  2  0
  5 10  1  0
  8 11  1  0
  9 11  1  0
  8 12  1  0
 10 13  2  0
 10 14  1  0
 12 15  1  0
 11 16  2  0
 12 17  2  0
 16 17  1  0
 13 18  1  0
 14 19  2  0
 15 20  1  0
 19 21  1  0
 18 22  2  0
 19 22  1  0
 20 23  2  0
 20 24  1  0
 21 25  1  0
 21 26  1  0
 26 27  2  0
 25 28  2  0
 27 28  1  0
 27 29  1  0
 29 30  1  0
 30 31  1  0
M  END
