mac-x0328-diamond-x0685_0_A
     RDKit          3D

 13 13  0  0  0  0  0  0  0  0999 V2000
   -1.9440   14.7780   -3.4270 O   0  0  0  0  0  0  0  0  0  0  0  0
   -2.0720   14.7310   -2.0860 C   0  0  0  0  0  0  0  0  0  0  0  0
   -1.0940   14.5790   -1.3780 O   0  0  0  0  0  0  0  0  0  0  0  0
   -3.4850   14.8850   -1.6290 C   0  0  0  0  0  0  0  0  0  0  0  0
   -3.8110   14.8150   -0.2420 C   0  0  0  0  0  0  0  0  0  0  0  0
   -4.4920   15.0930   -2.5660 C   0  0  0  0  0  0  0  0  0  0  0  0
   -5.1520   14.9520    0.2100 C   0  0  0  0  0  0  0  0  0  0  0  0
   -5.8100   15.2300   -2.1510 C   0  0  0  0  0  0  0  0  0  0  0  0
   -5.5890   14.9030    1.5900 N   0  0  0  0  0  0  0  0  0  0  0  0
   -6.1200   15.1590   -0.7990 C   0  0  0  0  0  0  0  0  0  0  0  0
   -7.4270   15.2950   -0.4270 O   0  0  0  0  0  0  0  0  0  0  0  0
   -6.9820   14.7160    2.0550 C   0  0  0  0  0  0  0  0  0  0  0  0
   -7.2580   13.2900    2.5060 C   0  0  0  0  0  0  0  0  0  0  0  0
  1  2  1  0
  2  3  2  0
  2  4  1  0
  4  5  2  0
  4  6  1  0
  5  7  1  0
  6  8  2  0
  7  9  1  0
  7 10  2  0
  8 10  1  0
 10 11  1  0
  9 12  1  0
 12 13  1  0
M  END
