mac-x0228-mac-x0527
     RDKit          3D

 20 22  0  0  0  0  0  0  0  0999 V2000
   -1.1260   14.1170   -2.0330 O   0  0  0  0  0  0  0  0  0  0  0  0
   -2.1440   14.6850   -2.8680 C   0  0  2  0  0  0  0  0  0  0  0  0
   -2.3690   14.1340   -4.1630 O   0  0  0  0  0  0  0  0  0  0  0  0
   -1.8570   16.1490   -3.0820 C   0  0  0  0  0  0  0  0  0  0  0  0
   -3.5080   14.7490   -2.1630 C   0  0  0  0  0  0  0  0  0  0  0  0
   -2.5530   16.8580   -3.8060 O   0  0  0  0  0  0  0  0  0  0  0  0
   -3.7080   14.5390   -0.7870 C   0  0  0  0  0  0  0  0  0  0  0  0
   -4.6300   15.0500   -2.9720 C   0  0  0  0  0  0  0  0  0  0  0  0
   -1.7050   13.0500   -4.6410 C   0  0  0  0  0  0  0  0  0  0  0  0
   -4.9980   14.6370   -0.2860 C   0  0  0  0  0  0  0  0  0  0  0  0
   -5.9170   15.1460   -2.4420 C   0  0  0  0  0  0  0  0  0  0  0  0
   -2.2460   11.8100   -4.3440 C   0  0  0  0  0  0  0  0  0  0  0  0
   -0.5430   13.1600   -5.4160 C   0  0  0  0  0  0  0  0  0  0  0  0
   -6.0760   14.9370   -1.1000 C   0  0  0  0  0  0  0  0  0  0  0  0
   -5.4740   14.4580    1.0940 C   0  0  0  0  0  0  0  0  0  0  0  0
   -1.6380   10.6600   -4.8230 C   0  0  0  0  0  0  0  0  0  0  0  0
    0.0660   12.0000   -5.8980 C   0  0  0  0  0  0  0  0  0  0  0  0
   -7.2770   14.9960   -0.4390 O   0  0  0  0  0  0  0  0  0  0  0  0
   -6.9830   14.4030    0.8470 C   0  0  0  0  0  0  0  0  0  0  0  0
   -0.4880   10.7540   -5.6000 C   0  0  0  0  0  0  0  0  0  0  0  0
  2  1  1  1
  2  3  1  0
  2  4  1  0
  2  5  1  0
  4  6  2  0
  5  7  2  0
  5  8  1  0
  3  9  1  0
  7 10  1  0
  8 11  2  0
  9 12  2  0
  9 13  1  0
 10 14  2  0
 11 14  1  0
 10 15  1  0
 12 16  1  0
 13 17  2  0
 14 18  1  0
 15 19  1  0
 18 19  1  0
 16 20  2  0
 17 20  1  0
M  END
