mac-x0417-mac-x0379
     RDKit          3D

 23 25  0  0  0  0  0  0  0  0999 V2000
    1.0570   12.8680   -2.4420 O   0  0  0  0  0  0  0  0  0  0  0  0
    0.7070   12.0310   -3.4450 C   0  0  0  0  0  0  0  0  0  0  0  0
    0.2910   10.9170   -3.1700 O   0  0  0  0  0  0  0  0  0  0  0  0
    0.9090   12.6520   -4.8120 C   0  0  2  0  0  0  0  0  0  0  0  0
    0.3440   14.0840   -4.9210 C   0  0  0  0  0  0  0  0  0  0  0  0
    0.5290   11.6740   -5.8980 C   0  0  0  0  0  0  0  0  0  0  0  0
   -0.9830   14.1940   -4.3060 N   0  0  0  0  0  0  0  0  0  0  0  0
    1.3690   11.5280   -6.9230 N   0  0  0  0  0  0  0  0  0  0  0  0
   -0.6080   10.8100   -6.0550 C   0  0  0  0  0  0  0  0  0  0  0  0
   -1.1960   14.7110   -3.1500 C   0  0  0  0  0  0  0  0  0  0  0  0
    0.8150   10.5900   -7.7710 O   0  0  0  0  0  0  0  0  0  0  0  0
   -0.3570   10.1570   -7.2580 C   0  0  0  0  0  0  0  0  0  0  0  0
   -1.7920   10.4900   -5.3680 C   0  0  0  0  0  0  0  0  0  0  0  0
   -0.1230   15.1820   -2.4650 O   0  0  0  0  0  0  0  0  0  0  0  0
   -1.1910    9.2030   -7.8370 C   0  0  0  0  0  0  0  0  0  0  0  0
   -2.6570    9.5290   -5.9260 C   0  0  0  0  0  0  0  0  0  0  0  0
   -2.4530   14.8710   -2.4550 C   0  0  0  0  0  0  0  0  0  0  0  0
   -2.3590    8.8990   -7.1370 C   0  0  0  0  0  0  0  0  0  0  0  0
   -3.6990   15.1510   -2.9710 C   0  0  0  0  0  0  0  0  0  0  0  0
   -2.5920   14.7240   -0.7390 S   0  0  0  0  0  0  0  0  0  0  0  0
   -4.2750   15.0460   -0.8500 C   0  0  0  0  0  0  0  0  0  0  0  0
   -4.7290   15.2490   -2.0610 N   0  0  0  0  0  0  0  0  0  0  0  0
   -5.1160   15.0790    0.3740 C   0  0  0  0  0  0  0  0  0  0  0  0
  1  2  1  0
  2  3  2  0
  2  4  1  0
  4  5  1  1
  4  6  1  0
  5  7  1  0
  6  8  2  0
  6  9  1  0
  7 10  2  3
  8 11  1  0
  9 12  2  0
 11 12  1  0
  9 13  1  0
 10 14  1  0
 12 15  1  0
 13 16  2  0
 10 17  1  0
 15 18  2  0
 16 18  1  0
 17 19  2  0
 17 20  1  0
 20 21  1  0
 19 22  1  0
 21 22  2  0
 21 23  1  0
M  END
