mac-x0204-mac-x0346
     RDKit          3D

 23 24  0  0  0  0  0  0  0  0999 V2000
    0.9110   12.9430   -2.0370 O   0  0  0  0  0  0  0  0  0  0  0  0
    0.6080   14.0310   -2.7490 C   0  0  0  0  0  0  0  0  0  0  0  0
    1.1040   15.1100   -2.4950 O   0  0  0  0  0  0  0  0  0  0  0  0
   -0.3640   13.7760   -3.8120 C   0  0  0  0  0  0  0  0  0  0  0  0
   -1.0780   14.7870   -4.3900 C   0  0  0  0  0  0  0  0  0  0  0  0
   -0.5910   12.4800   -4.2620 C   0  0  0  0  0  0  0  0  0  0  0  0
   -1.9880   14.4850   -5.3790 C   0  0  0  0  0  0  0  0  0  0  0  0
   -1.4820   12.1620   -5.2400 N   0  0  0  0  0  0  0  0  0  0  0  0
   -2.6090   15.5400   -5.8140 O   0  0  0  0  0  0  0  0  0  0  0  0
   -2.1640   13.1870   -5.7750 C   0  0  0  0  0  0  0  0  0  0  0  0
   -3.5900   15.7840   -4.8580 C   0  0  0  0  0  0  0  0  0  0  0  0
   -3.4050   14.9530   -3.5650 C   0  0  0  0  0  0  0  0  0  0  0  0
   -4.5650   15.0760   -2.7080 O   0  0  0  0  0  0  0  0  0  0  0  0
   -4.2700   15.0550   -1.3540 C   0  0  0  0  0  0  0  0  0  0  0  0
   -5.2980   15.0250   -0.4040 C   0  0  0  0  0  0  0  0  0  0  0  0
   -2.9360   15.0640   -0.9370 C   0  0  0  0  0  0  0  0  0  0  0  0
   -6.7310   14.9970   -0.8120 C   0  0  0  0  0  0  0  0  0  0  0  0
   -2.6190   15.0530    0.4230 C   0  0  0  0  0  0  0  0  0  0  0  0
   -4.9640   15.0180    0.9610 C   0  0  0  0  0  0  0  0  0  0  0  0
   -7.7060   14.9690    0.1610 N   0  0  0  0  0  0  0  0  0  0  0  0
   -7.0390   14.9830   -1.9980 O   0  0  0  0  0  0  0  0  0  0  0  0
   -3.6300   15.0340    1.3680 C   0  0  0  0  0  0  0  0  0  0  0  0
   -7.5540   14.0450    1.2190 O   0  0  0  0  0  0  0  0  0  0  0  0
  1  2  1  0
  2  3  2  0
  2  4  1  0
  4  5  2  0
  4  6  1  0
  5  7  1  0
  6  8  2  0
  7  9  1  0
  7 10  2  0
  8 10  1  0
  9 11  1  0
 11 12  1  0
 12 13  1  0
 13 14  1  0
 14 15  2  0
 14 16  1  0
 15 17  1  0
 16 18  2  0
 15 19  1  0
 17 20  1  0
 17 21  2  0
 18 22  1  0
 19 22  2  0
 20 23  1  0
M  END
