mac-x0346-diamond-x0805_0_A
     RDKit          3D

 27 29  0  0  0  0  0  0  0  0999 V2000
   -8.0920   14.6530    1.8890 O   0  0  0  0  0  0  0  0  0  0  0  0
   -8.3300   14.2720    0.5580 N   0  0  0  0  0  0  0  0  0  0  0  0
   -7.3780   14.6370   -0.3390 C   0  0  0  0  0  0  0  0  0  0  0  0
   -7.6210   14.7170   -1.5420 O   0  0  0  0  0  0  0  0  0  0  0  0
   -6.0200   14.9470    0.1490 C   0  0  0  0  0  0  0  0  0  0  0  0
   -5.1200   15.3240   -0.7530 C   0  0  0  0  0  0  0  0  0  0  0  0
   -5.6090   14.8740    1.5060 C   0  0  0  0  0  0  0  0  0  0  0  0
   -5.4130   15.4350   -2.0980 O   0  0  0  0  0  0  0  0  0  0  0  0
   -3.8810   15.6090   -0.3650 C   0  0  0  0  0  0  0  0  0  0  0  0
   -4.2850   15.1940    1.8750 C   0  0  0  0  0  0  0  0  0  0  0  0
   -3.3960   15.5670    0.9130 C   0  0  0  0  0  0  0  0  0  0  0  0
   -3.2430   15.9170   -1.4040 O   0  0  0  0  0  0  0  0  0  0  0  0
   -2.9930   14.8350   -2.1080 C   0  0  0  0  0  0  0  0  0  0  0  0
   -3.9340   13.8310   -2.3550 C   0  0  0  0  0  0  0  0  0  0  0  0
   -1.7710   14.7600   -2.5710 C   0  0  0  0  0  0  0  0  0  0  0  0
   -3.5420   12.7380   -3.1250 C   0  0  0  0  0  0  0  0  0  0  0  0
   -1.3620   13.7540   -3.2990 C   0  0  0  0  0  0  0  0  0  0  0  0
   -2.2290   12.6960   -3.6130 C   0  0  0  0  0  0  0  0  0  0  0  0
    0.0430   13.9790   -3.6530 C   0  0  1  0  0  0  0  0  0  0  0  0
    1.1260   13.0200   -3.3130 C   0  0  1  0  0  0  0  0  0  0  0  0
    0.3340   14.7640   -4.8790 C   0  0  0  0  0  0  0  0  0  0  0  0
    0.6600   11.8640   -2.5160 C   0  0  0  0  0  0  0  0  0  0  0  0
    2.1000   12.8810   -4.4410 C   0  0  0  0  0  0  0  0  0  0  0  0
    1.7090   15.2910   -4.6550 C   0  0  0  0  0  0  0  0  0  0  0  0
    0.4030   10.7340   -3.1920 O   0  0  0  0  0  0  0  0  0  0  0  0
    0.4990   11.9550   -1.3190 O   0  0  0  0  0  0  0  0  0  0  0  0
    2.6560   14.1930   -4.5910 O   0  0  0  0  0  0  0  0  0  0  0  0
  1  2  1  0
  2  3  1  0
  3  4  2  0
  3  5  1  0
  5  6  2  0
  5  7  1  0
  6  8  1  0
  6  9  1  0
  7 10  2  0
  9 11  2  0
 10 11  1  0
  9 12  1  0
 12 13  1  0
 13 14  2  0
 13 15  1  0
 14 16  1  0
 15 17  2  0
 16 18  2  0
 17 18  1  0
 19 17  1  6
 19 20  1  0
 19 21  1  0
 20 22  1  6
 20 23  1  0
 21 24  1  0
 22 25  1  0
 22 26  2  0
 23 27  1  0
 24 27  1  0
M  END
