mac-x0345-mac-x0496
     RDKit          3D

 21 22  0  0  0  0  0  0  0  0999 V2000
   -7.5080   14.8250    0.3250 C   0  0  0  0  0  0  0  0  0  0  0  0
   -7.5230   14.1960    1.5400 N   0  0  0  0  0  0  0  0  0  0  0  0
   -8.7920   13.8800    2.1410 C   0  0  0  0  0  0  0  0  0  0  0  0
   -8.5270   15.2310   -0.1920 O   0  0  0  0  0  0  0  0  0  0  0  0
   -6.1890   14.9580   -0.3570 C   0  0  0  0  0  0  0  0  0  0  0  0
   -4.9260   15.1670    0.1880 C   0  0  0  0  0  0  0  0  0  0  0  0
   -6.3870   14.8410   -1.6890 N   0  0  0  0  0  0  0  0  0  0  0  0
   -4.4410   15.3700    1.9730 Br  0  0  0  0  0  0  0  0  0  0  0  0
   -3.8570   15.2350   -0.6780 C   0  0  0  0  0  0  0  0  0  0  0  0
   -5.3510   14.9150   -2.5140 C   0  0  0  0  0  0  0  0  0  0  0  0
   -9.4070   15.1130    2.6980 C   0  0  0  0  0  0  0  0  0  0  0  0
   -5.7170   14.7790   -3.8500 N   0  0  0  0  0  0  0  0  0  0  0  0
   -4.0500   15.1040   -2.0480 C   0  0  0  0  0  0  0  0  0  0  0  0
  -10.5390   15.5940    2.0960 O   0  0  0  0  0  0  0  0  0  0  0  0
   -9.0180   15.8350    3.7230 N   0  0  0  0  0  0  0  0  0  0  0  0
   -2.8490   15.1670   -2.8990 C   0  0  0  0  0  0  0  0  0  0  0  0
   -9.9600   16.8190    3.7640 C   0  0  0  0  0  0  0  0  0  0  0  0
  -10.9020   16.7330    2.8210 N   0  0  0  0  0  0  0  0  0  0  0  0
   -9.9290   17.8820    4.7820 C   0  0  0  0  0  0  0  0  0  0  0  0
   -1.7010   14.9910   -2.5270 O   0  0  0  0  0  0  0  0  0  0  0  0
   -3.1080   15.4310   -4.1850 O   0  0  0  0  0  0  0  0  0  0  0  0
  1  2  1  0
  2  3  1  0
  1  4  2  0
  1  5  1  0
  5  6  2  0
  5  7  1  0
  6  8  1  0
  6  9  1  0
  7 10  2  0
  3 11  1  0
 10 12  1  0
  9 13  2  0
 10 13  1  0
 11 14  1  0
 11 15  2  0
 13 16  1  0
 15 17  1  0
 14 18  1  0
 17 18  2  0
 17 19  1  0
 16 20  2  0
 16 21  1  0
M  END
