mac-x0380-mac-x0142
     RDKit          3D

 27 31  0  0  0  0  0  0  0  0999 V2000
   -1.6950   15.9940   -2.8970 O   0  0  0  0  0  0  0  0  0  0  0  0
   -2.9390   15.5380   -3.1080 C   0  0  0  0  0  0  0  0  0  0  0  0
   -3.4310   15.6180   -4.2220 O   0  0  0  0  0  0  0  0  0  0  0  0
   -3.6150   14.9470   -1.8940 C   0  0  2  0  0  0  0  0  0  0  0  0
   -4.9890   15.5620   -1.6540 C   0  0  0  0  0  0  0  0  0  0  0  0
   -2.6980   14.6800   -0.6420 C   0  0  2  0  0  0  0  0  0  0  0  0
   -5.7300   14.7070   -0.6770 C   0  0  1  0  0  0  0  0  0  0  0  0
   -3.6250   14.1110    0.5120 C   0  0  0  0  0  0  0  0  0  0  0  0
   -2.1820   15.9300    0.0580 C   0  0  0  0  0  0  0  0  0  0  0  0
   -1.3250   14.0380   -1.1770 C   0  0  1  0  0  0  0  0  0  0  0  0
   -4.9900   14.8730    0.6390 C   0  0  2  0  0  0  0  0  0  0  0  0
   -7.5170   15.1210   -0.7030 S   0  0  0  0  0  0  0  0  0  0  0  0
   -1.1050   14.1980   -2.6320 N   0  0  0  0  0  0  0  0  0  0  0  0
   -0.1380   14.5910   -0.5270 N   0  0  0  0  0  0  0  0  0  0  0  0
   -1.4520   15.5010    1.2330 N   0  0  0  0  0  0  0  0  0  0  0  0
   -5.7970   14.5140    1.8130 N   0  0  0  0  0  0  0  0  0  0  0  0
   -7.9910   14.1490    0.7470 C   0  0  0  0  0  0  0  0  0  0  0  0
   -1.8430   13.2430   -3.4760 C   0  0  0  0  0  0  0  0  0  0  0  0
    0.1640   14.6750   -3.2100 C   0  0  0  0  0  0  0  0  0  0  0  0
   -0.2650   14.7540    0.8960 C   0  0  0  0  0  0  0  0  0  0  0  0
   -7.1720   14.5450    1.9430 C   0  0  0  0  0  0  0  0  0  0  0  0
    0.8270   13.5950   -4.0260 C   0  0  0  0  0  0  0  0  0  0  0  0
   -1.4880   13.3370   -4.9560 C   0  0  0  0  0  0  0  0  0  0  0  0
   -7.7010   14.8800    3.0060 O   0  0  0  0  0  0  0  0  0  0  0  0
    2.3210   13.6190   -4.2540 C   0  0  0  0  0  0  0  0  0  0  0  0
    1.7400   12.6760   -3.2520 C   0  0  0  0  0  0  0  0  0  0  0  0
   -0.0060   13.0480   -5.1640 C   0  0  0  0  0  0  0  0  0  0  0  0
  1  2  1  0
  2  3  2  0
  4  2  1  6
  4  5  1  0
  4  6  1  0
  7  5  1  6
  6  8  1  1
  6  9  1  0
  6 10  1  0
  7 11  1  0
 11  8  1  6
  7 12  1  0
 10 13  1  6
 10 14  1  0
  9 15  1  0
 11 16  1  0
 12 17  1  0
 13 18  1  0
 13 19  1  0
 14 20  1  0
 15 20  1  0
 16 21  1  0
 17 21  1  0
 22 19  1  0
 18 23  1  0
 21 24  2  0
 22 25  1  0
 22 26  1  0
 25 26  1  0
 22 27  1  0
 23 27  1  0
M  END
