mac-x0178-mac-x0333
     RDKit          3D

 23 25  0  0  0  0  0  0  0  0999 V2000
   -0.3870   18.0730   -6.3090 N   0  0  0  0  0  0  0  0  0  0  0  0
   -1.7270   17.4450   -5.5250 S   0  0  0  0  0  0  0  0  0  0  0  0
   -2.6430   17.0240   -6.5670 O   0  0  0  0  0  0  0  0  0  0  0  0
   -2.0440   18.4990   -4.6030 O   0  0  0  0  0  0  0  0  0  0  0  0
   -1.0460   16.0520   -4.6490 C   0  0  0  0  0  0  0  0  0  0  0  0
    0.3300   15.8400   -4.7840 C   0  0  0  0  0  0  0  0  0  0  0  0
   -1.8010   15.1640   -3.8390 C   0  0  0  0  0  0  0  0  0  0  0  0
   -3.1530   15.3150   -3.6320 O   0  0  0  0  0  0  0  0  0  0  0  0
    0.9470   14.7670   -4.1440 C   0  0  0  0  0  0  0  0  0  0  0  0
   -1.1670   14.0970   -3.2140 C   0  0  0  0  0  0  0  0  0  0  0  0
    0.1950   13.8900   -3.3610 C   0  0  0  0  0  0  0  0  0  0  0  0
   -3.7100   15.1740   -2.3470 C   0  0  0  0  0  0  0  0  0  0  0  0
    0.7990   12.7370   -2.6680 C   0  0  0  0  0  0  0  0  0  0  0  0
   -5.1030   15.1430   -2.3170 C   0  0  0  0  0  0  0  0  0  0  0  0
   -2.9790   15.0710   -1.1340 C   0  0  0  0  0  0  0  0  0  0  0  0
    1.6680   12.8160   -1.8380 O   0  0  0  0  0  0  0  0  0  0  0  0
    0.2870   11.5530   -3.0360 O   0  0  0  0  0  0  0  0  0  0  0  0
   -5.7280   15.0210   -1.1030 C   0  0  0  0  0  0  0  0  0  0  0  0
   -3.6500   14.9490    0.0990 C   0  0  0  0  0  0  0  0  0  0  0  0
   -5.0300   14.9300    0.0730 C   0  0  0  0  0  0  0  0  0  0  0  0
   -7.0740   14.9730   -0.9040 O   0  0  0  0  0  0  0  0  0  0  0  0
   -5.8680   14.8200    1.1390 O   0  0  0  0  0  0  0  0  0  0  0  0
   -7.0990   14.5220    0.4610 C   0  0  0  0  0  0  0  0  0  0  0  0
  2  1  1  0
  2  3  2  0
  2  4  2  0
  2  5  1  0
  5  6  2  0
  5  7  1  0
  7  8  1  0
  6  9  1  0
  7 10  2  0
  9 11  2  0
 10 11  1  0
  8 12  1  0
 11 13  1  0
 12 14  2  0
 12 15  1  0
 13 16  2  0
 13 17  1  0
 14 18  1  0
 15 19  2  0
 18 20  2  0
 19 20  1  0
 18 21  1  0
 20 22  1  0
 21 23  1  0
 22 23  1  0
M  END
