mac-x0204-diamond-x0933_0_A
     RDKit          3D

 19 20  0  0  0  0  0  0  0  0999 V2000
    0.8430   12.9350   -2.4680 O   0  0  0  0  0  0  0  0  0  0  0  0
    0.0880   14.1280   -2.5140 C   0  0  0  0  0  0  0  0  0  0  0  0
    1.0100   15.1830   -2.6700 O   0  0  0  0  0  0  0  0  0  0  0  0
   -0.7400   14.2930   -1.2300 C   0  0  0  0  0  0  0  0  0  0  0  0
   -0.9230   14.1040   -3.6560 C   0  0  0  0  0  0  0  0  0  0  0  0
   -2.2090   14.4470   -1.6340 C   0  0  0  0  0  0  0  0  0  0  0  0
   -1.3400   15.2880   -4.2870 C   0  0  0  0  0  0  0  0  0  0  0  0
   -1.4900   12.9130   -4.1190 C   0  0  0  0  0  0  0  0  0  0  0  0
   -2.2770   15.2380   -5.3100 C   0  0  0  0  0  0  0  0  0  0  0  0
   -2.4040   12.8380   -5.1200 N   0  0  0  0  0  0  0  0  0  0  0  0
   -3.2570   14.3900   -0.5270 C   0  0  2  0  0  0  0  0  0  0  0  0
   -2.7060   16.3680   -5.9430 O   0  0  0  0  0  0  0  0  0  0  0  0
   -2.7790   14.0040   -5.6930 C   0  0  0  0  0  0  0  0  0  0  0  0
   -4.5040   15.1670   -0.9780 C   0  0  0  0  0  0  0  0  0  0  0  0
   -2.8020   14.8860    0.8560 C   0  0  0  0  0  0  0  0  0  0  0  0
   -5.6240   14.8070   -0.1230 N   0  0  0  0  0  0  0  0  0  0  0  0
   -3.9980   15.2640    1.5740 N   0  0  0  0  0  0  0  0  0  0  0  0
   -5.1290   14.4780    1.1780 C   0  0  1  0  0  0  0  0  0  0  0  0
   -6.1800   14.8230    2.0560 N   0  0  0  0  0  0  0  0  0  0  0  0
  2  1  1  0
  2  3  1  0
  2  4  1  0
  2  5  1  0
  4  6  1  0
  5  7  2  0
  5  8  1  0
  7  9  1  0
  8 10  2  0
 11  6  1  6
  9 12  1  0
  9 13  2  0
 10 13  1  0
 11 14  1  0
 11 15  1  0
 14 16  1  0
 15 17  1  0
 16 18  1  0
 17 18  1  0
 18 19  1  1
M  END
