mac-x0223-mac-x0283
     RDKit          3D

 25 27  0  0  0  0  0  0  0  0999 V2000
    1.0990   18.3880   -5.4880 C   0  0  0  0  0  0  0  0  0  0  0  0
   -0.0620   18.0280   -4.7590 O   0  0  0  0  0  0  0  0  0  0  0  0
   -0.2780   16.6860   -4.6920 C   0  0  0  0  0  0  0  0  0  0  0  0
   -1.5900   16.2180   -4.5890 C   0  0  0  0  0  0  0  0  0  0  0  0
    0.7230   15.7030   -4.7060 C   0  0  0  0  0  0  0  0  0  0  0  0
   -2.7220   16.9020   -4.5040 O   0  0  0  0  0  0  0  0  0  0  0  0
   -1.9170   14.8910   -4.5350 C   0  0  0  0  0  0  0  0  0  0  0  0
    0.3730   14.3380   -4.6220 C   0  0  0  0  0  0  0  0  0  0  0  0
    1.3590   13.2210   -4.5840 C   0  0  0  0  0  0  0  0  0  0  0  0
   -3.4930   15.8160   -3.8760 C   0  0  0  0  0  0  0  0  0  0  0  0
   -0.9450   13.9540   -4.5510 C   0  0  0  0  0  0  0  0  0  0  0  0
    1.0100   12.3660   -3.3770 C   0  0  0  0  0  0  0  0  0  0  0  0
   -2.7380   15.0110   -2.8020 C   0  0  0  0  0  0  0  0  0  0  0  0
    0.4200   11.3000   -3.3350 O   0  0  0  0  0  0  0  0  0  0  0  0
    1.4190   12.9410   -2.2240 O   0  0  0  0  0  0  0  0  0  0  0  0
   -3.6360   14.9630   -1.5880 C   0  0  0  0  0  0  0  0  0  0  0  0
   -5.0030   14.8700   -1.8490 C   0  0  0  0  0  0  0  0  0  0  0  0
   -3.1680   15.0040   -0.2550 C   0  0  0  0  0  0  0  0  0  0  0  0
   -5.8520   14.8130   -0.7670 C   0  0  0  0  0  0  0  0  0  0  0  0
   -4.0650   14.9470    0.8320 C   0  0  0  0  0  0  0  0  0  0  0  0
   -7.2020   14.7150   -0.8340 O   0  0  0  0  0  0  0  0  0  0  0  0
   -5.4460   14.8440    0.5550 C   0  0  0  0  0  0  0  0  0  0  0  0
   -6.6770   14.7550    1.2670 C   0  0  0  0  0  0  0  0  0  0  0  0
   -7.7240   14.6750    0.4400 N   0  0  0  0  0  0  0  0  0  0  0  0
   -6.8040   14.7600    2.6090 N   0  0  0  0  0  0  0  0  0  0  0  0
  1  2  1  0
  2  3  1  0
  3  4  2  0
  3  5  1  0
  4  6  1  0
  4  7  1  0
  5  8  2  0
  8  9  1  0
  6 10  1  0
  7 11  2  0
  8 11  1  0
  9 12  1  0
 10 13  1  0
 12 14  2  0
 12 15  1  0
 13 16  1  0
 16 17  2  0
 16 18  1  0
 17 19  1  0
 18 20  2  0
 19 21  1  0
 19 22  2  0
 20 22  1  0
 22 23  1  0
 21 24  1  0
 23 24  2  0
 23 25  1  0
M  END
