mac-x0379-diamond-x0685_0_A
     RDKit          3D

 19 20  0  0  0  0  0  0  0  0999 V2000
   -4.0640   16.2040    0.5260 C   0  0  0  0  0  0  0  0  0  0  0  0
   -3.4950   15.3260   -0.5790 C   0  0  1  0  0  0  0  0  0  0  0  0
   -3.6180   15.6800   -1.9870 N   0  0  0  0  0  0  0  0  0  0  0  0
   -1.8000   14.7040   -0.4510 S   0  0  0  0  0  0  0  0  0  0  0  0
   -3.6130   14.3010   -2.2400 C   0  0  1  0  0  0  0  0  0  0  0  0
   -2.0680   14.0750   -2.1430 C   0  0  1  0  0  0  0  0  0  0  0  0
   -1.1610   14.7230   -3.1680 C   0  0  0  0  0  0  0  0  0  0  0  0
   -4.4320   14.3150   -0.9400 C   0  0  0  0  0  0  0  0  0  0  0  0
   -4.2450   14.3300   -3.5510 N   0  0  0  0  0  0  0  0  0  0  0  0
   -1.3020   14.8400   -4.3720 O   0  0  0  0  0  0  0  0  0  0  0  0
   -0.0400   15.2260   -2.6010 O   0  0  0  0  0  0  0  0  0  0  0  0
   -3.8450   13.8620    0.2700 C   0  0  0  0  0  0  0  0  0  0  0  0
   -5.7320   14.8050   -0.8050 C   0  0  0  0  0  0  0  0  0  0  0  0
   -4.5100   13.9490    1.4850 C   0  0  0  0  0  0  0  0  0  0  0  0
   -6.3960   14.8880    0.3750 N   0  0  0  0  0  0  0  0  0  0  0  0
   -5.7820   14.4870    1.5040 C   0  0  0  0  0  0  0  0  0  0  0  0
   -6.5200   14.6770    2.6780 N   0  0  0  0  0  0  0  0  0  0  0  0
   -7.9280   14.3860    2.6280 C   0  0  0  0  0  0  0  0  0  0  0  0
   -8.1150   12.9530    3.0860 C   0  0  0  0  0  0  0  0  0  0  0  0
  2  1  1  1
  2  3  1  0
  2  4  1  0
  3  5  1  0
  4  6  1  0
  5  6  1  0
  6  7  1  6
  5  8  1  0
  5  9  1  6
  7 10  2  0
  7 11  1  0
  8 12  2  0
  8 13  1  0
 12 14  1  0
 13 15  2  0
 14 16  2  0
 15 16  1  0
 16 17  1  0
 17 18  1  0
 18 19  1  0
M  END
