mac-x0319-diamond-x0962_0_A
     RDKit          3D

 19 20  0  0  0  0  0  0  0  0999 V2000
    0.5210   10.4800   -2.5400 O   0  0  0  0  0  0  0  0  0  0  0  0
    0.7950   11.8200   -2.4750 C   0  0  0  0  0  0  0  0  0  0  0  0
    0.6310   12.4200   -1.4220 O   0  0  0  0  0  0  0  0  0  0  0  0
    1.2840   12.4390   -3.7900 C   0  0  0  0  0  0  0  0  0  0  0  0
    0.6290   13.7670   -4.0860 C   0  0  0  0  0  0  0  0  0  0  0  0
    1.3490   14.9490   -4.3630 C   0  0  0  0  0  0  0  0  0  0  0  0
   -0.7640   13.8340   -4.0730 C   0  0  0  0  0  0  0  0  0  0  0  0
    0.6510   16.1380   -4.6140 C   0  0  0  0  0  0  0  0  0  0  0  0
   -1.4330   15.0290   -4.3220 C   0  0  0  0  0  0  0  0  0  0  0  0
    1.3120   17.2860   -4.8800 O   0  0  0  0  0  0  0  0  0  0  0  0
   -2.9150   15.0610   -4.2710 C   0  0  0  0  0  0  0  0  0  0  0  0
   -0.7200   16.1820   -4.5960 C   0  0  0  0  0  0  0  0  0  0  0  0
   -3.2820   15.0780   -2.8590 C   0  0  0  0  0  0  0  0  0  0  0  0
   -3.6170   15.0950   -1.7190 C   0  0  0  0  0  0  0  0  0  0  0  0
   -4.1150   15.1170   -0.4110 C   0  0  0  0  0  0  0  0  0  0  0  0
   -3.4040   15.2280    0.7470 N   0  0  0  0  0  0  0  0  0  0  0  0
   -5.4250   15.0290   -0.0350 C   0  0  0  0  0  0  0  0  0  0  0  0
   -4.3090   15.2100    1.7680 C   0  0  0  0  0  0  0  0  0  0  0  0
   -5.5390   15.0840    1.3210 N   0  0  0  0  0  0  0  0  0  0  0  0
  1  2  1  0
  2  3  2  0
  2  4  1  0
  4  5  1  0
  5  6  2  0
  5  7  1  0
  6  8  1  0
  7  9  2  0
  8 10  1  0
  9 11  1  0
  8 12  2  0
  9 12  1  0
 11 13  1  0
 13 14  3  0
 14 15  1  0
 15 16  1  0
 15 17  2  0
 16 18  1  0
 17 19  1  0
 18 19  2  0
M  END
