mac-x0123-mac-x0398
     RDKit          3D

 18 20  0  0  0  0  0  0  0  0999 V2000
   -3.1600   14.2430    1.7530 N   0  0  0  0  0  0  0  0  0  0  0  0
   -4.0610   13.9450    0.6550 C   0  0  1  0  0  0  0  0  0  0  0  0
   -5.5970   13.8700    0.9240 C   0  0  1  0  0  0  0  0  0  0  0  0
   -3.7750   15.0280   -0.2670 N   0  0  0  0  0  0  0  0  0  0  0  0
   -6.0240   15.0220    1.7290 N   0  0  0  0  0  0  0  0  0  0  0  0
   -4.7860   15.3910   -1.2420 C   0  0  2  0  0  0  0  0  0  0  0  0
   -6.3010   13.6780   -0.4300 C   0  0  2  0  0  0  0  0  0  0  0  0
   -6.2740   12.7440    1.6440 C   0  0  0  0  0  0  0  0  0  0  0  0
   -2.5050   14.7920   -0.9910 N   0  0  0  0  0  0  0  0  0  0  0  0
   -5.4250   16.5460   -0.7990 O   0  0  0  0  0  0  0  0  0  0  0  0
   -5.8050   14.4950   -1.5600 N   0  0  0  0  0  0  0  0  0  0  0  0
   -7.7510   13.7320    0.1020 C   0  0  0  0  0  0  0  0  0  0  0  0
   -7.5480   12.6850    1.1820 C   0  0  0  0  0  0  0  0  0  0  0  0
   -4.0730   15.6480   -2.4610 N   0  0  0  0  0  0  0  0  0  0  0  0
   -2.8640   14.8530   -2.4020 C   0  0  0  0  0  0  0  0  0  0  0  0
   -5.5270   13.8390   -2.7580 C   0  0  0  0  0  0  0  0  0  0  0  0
   -6.3080   13.7170   -3.6850 O   0  0  0  0  0  0  0  0  0  0  0  0
   -4.2740   13.3400   -2.8910 O   0  0  0  0  0  0  0  0  0  0  0  0
  2  1  1  1
  2  3  1  0
  2  4  1  0
  3  5  1  1
  4  6  1  0
  3  7  1  0
  3  8  1  0
  4  9  1  0
  6 10  1  1
  6 11  1  0
  7 11  1  0
  7 12  1  1
  8 13  2  0
 12 13  1  0
  6 14  1  0
  9 15  1  0
 14 15  1  0
 11 16  1  0
 16 17  2  0
 16 18  1  0
M  END
