mac-x0182-mac-x0190
     RDKit          3D

 26 29  0  0  0  0  0  0  0  0999 V2000
    1.7060   11.8860   -6.9300 O   0  0  0  0  0  0  0  0  0  0  0  0
    0.7540   11.5860   -6.2540 C   0  0  0  0  0  0  0  0  0  0  0  0
    0.4520   12.1370   -5.0370 N   0  0  0  0  0  0  0  0  0  0  0  0
   -0.2190   10.5340   -6.6340 C   0  0  0  0  0  0  0  0  0  0  0  0
   -0.7710   11.2880   -4.2600 S   0  0  2  0  0  0  0  0  0  0  0  0
   -1.1280   10.2610   -5.6190 C   0  0  0  0  0  0  0  0  0  0  0  0
   -0.2830    9.8480   -7.8410 C   0  0  0  0  0  0  0  0  0  0  0  0
   -1.8830   12.3330   -4.1100 N   0  0  0  0  0  0  0  0  0  0  0  0
   -0.1080   10.5190   -3.2330 O   0  0  0  0  0  0  0  0  0  0  0  0
   -2.1270    9.3140   -5.7400 C   0  0  0  0  0  0  0  0  0  0  0  0
   -1.2860    8.8830   -7.9930 C   0  0  0  0  0  0  0  0  0  0  0  0
   -2.1380   13.0310   -2.8250 C   0  0  0  0  0  0  0  0  0  0  0  0
   -2.2000    8.6190   -6.9520 C   0  0  0  0  0  0  0  0  0  0  0  0
   -1.6910   14.5050   -2.8510 C   0  0  0  0  0  0  0  0  0  0  0  0
   -2.8060   15.5650   -2.7170 C   0  0  0  0  0  0  0  0  0  0  0  0
   -3.7420   15.3440   -1.5470 C   0  0  0  0  0  0  0  0  0  0  0  0
   -5.1100   15.1140   -1.7830 C   0  0  0  0  0  0  0  0  0  0  0  0
   -3.2420   15.3640   -0.2330 C   0  0  0  0  0  0  0  0  0  0  0  0
   -5.9250   14.8990   -0.6720 C   0  0  0  0  0  0  0  0  0  0  0  0
   -4.0850   15.1480    0.8670 C   0  0  0  0  0  0  0  0  0  0  0  0
   -7.2650   14.6460   -0.5430 N   0  0  0  0  0  0  0  0  0  0  0  0
   -5.4490   14.9080    0.6320 C   0  0  0  0  0  0  0  0  0  0  0  0
   -7.5570   14.5080    0.7880 C   0  0  0  0  0  0  0  0  0  0  0  0
   -6.4730   14.6640    1.5180 N   0  0  0  0  0  0  0  0  0  0  0  0
   -8.9300   14.2240    1.2660 C   0  0  0  0  0  0  0  0  0  0  0  0
   -9.1490   15.0170    2.4250 O   0  0  0  0  0  0  0  0  0  0  0  0
  1  2  2  0
  2  3  1  0
  2  4  1  0
  5  3  1  6
  4  6  2  0
  5  6  1  0
  4  7  1  0
  5  8  2  0
  5  9  2  0
  6 10  1  0
  7 11  2  0
  8 12  1  0
 10 13  2  0
 11 13  1  0
 12 14  1  0
 14 15  1  0
 15 16  1  0
 16 17  2  0
 16 18  1  0
 17 19  1  0
 18 20  2  0
 19 21  1  0
 19 22  2  0
 20 22  1  0
 21 23  1  0
 22 24  1  0
 23 24  2  0
 23 25  1  0
 25 26  1  0
M  END
