mac-x0379-mac-x0398
     RDKit          3D

 19 20  0  0  0  0  0  0  0  0999 V2000
   -4.0730   15.7100    1.7910 C   0  0  0  0  0  0  0  0  0  0  0  0
   -3.6860   15.5360    0.3870 C   0  0  0  0  0  0  0  0  0  0  0  0
   -4.4310   15.9920   -0.5650 N   0  0  0  0  0  0  0  0  0  0  0  0
   -2.2340   14.7070   -0.0660 S   0  0  0  0  0  0  0  0  0  0  0  0
   -3.8710   15.6720   -1.7520 C   0  0  0  0  0  0  0  0  0  0  0  0
   -2.7040   14.9700   -1.7040 C   0  0  0  0  0  0  0  0  0  0  0  0
   -2.0920   14.5310   -2.9520 C   0  0  0  0  0  0  0  0  0  0  0  0
   -1.0740   13.5650   -2.8050 O   0  0  0  0  0  0  0  0  0  0  0  0
   -1.6020   15.5970   -3.7370 O   0  0  0  0  0  0  0  0  0  0  0  0
   -3.4940   13.9840   -3.3110 C   0  0  0  0  0  0  0  0  0  0  0  0
   -3.8640   13.6410   -4.4300 O   0  0  0  0  0  0  0  0  0  0  0  0
   -4.3680   13.9770   -2.0690 C   0  0  0  0  0  0  0  0  0  0  0  0
   -5.6390   14.5880   -2.0080 C   0  0  0  0  0  0  0  0  0  0  0  0
   -3.8800   13.3500   -0.9060 C   0  0  0  0  0  0  0  0  0  0  0  0
   -6.1430   15.1900   -3.1200 O   0  0  0  0  0  0  0  0  0  0  0  0
   -6.3830   14.5860   -0.8100 C   0  0  0  0  0  0  0  0  0  0  0  0
   -4.6250   13.3530    0.2830 C   0  0  0  0  0  0  0  0  0  0  0  0
   -5.8740   13.9720    0.3480 C   0  0  0  0  0  0  0  0  0  0  0  0
   -6.5870   13.9710    1.5580 N   0  0  0  0  0  0  0  0  0  0  0  0
  1  2  1  0
  2  3  2  0
  2  4  1  0
  3  5  1  0
  4  6  1  0
  5  6  2  0
  6  7  1  0
  7  8  1  0
  7  9  1  0
  7 10  1  0
 10 11  2  0
 10 12  1  0
 12 13  2  0
 12 14  1  0
 13 15  1  0
 13 16  1  0
 14 17  2  0
 16 18  2  0
 17 18  1  0
 18 19  1  0
M  END
