mac-x0132-mac-x0373
     RDKit          3D

 21 23  0  0  0  0  0  0  0  0999 V2000
   -3.9720   14.6010    1.9830 N   0  0  0  0  0  0  0  0  0  0  0  0
   -5.0150   14.6900    1.0610 C   0  0  0  0  0  0  0  0  0  0  0  0
   -6.2850   14.7230    1.5060 N   0  0  0  0  0  0  0  0  0  0  0  0
   -4.6810   14.7340   -0.2830 C   0  0  0  0  0  0  0  0  0  0  0  0
   -5.7630   14.8410   -1.1600 C   0  0  0  0  0  0  0  0  0  0  0  0
   -7.2420   14.8110    0.5740 C   0  0  0  0  0  0  0  0  0  0  0  0
   -3.3420   14.6650   -0.7710 C   0  0  0  0  0  0  0  0  0  0  0  0
   -7.0400   14.8820   -0.7490 N   0  0  0  0  0  0  0  0  0  0  0  0
   -5.4840   14.8980   -2.5140 C   0  0  0  0  0  0  0  0  0  0  0  0
   -3.0710   14.6910   -2.1490 C   0  0  0  0  0  0  0  0  0  0  0  0
   -1.6640   14.5500   -2.7920 C   0  0  1  0  0  0  0  0  0  0  0  0
   -4.1730   14.8240   -3.0100 C   0  0  0  0  0  0  0  0  0  0  0  0
   -0.3990   14.4980   -1.8950 C   0  0  0  0  0  0  0  0  0  0  0  0
   -1.7940   13.2760   -3.6250 C   0  0  0  0  0  0  0  0  0  0  0  0
   -0.3880   13.4810   -0.9910 O   0  0  0  0  0  0  0  0  0  0  0  0
    0.5710   15.2350   -1.9570 O   0  0  0  0  0  0  0  0  0  0  0  0
   -1.0680   13.0900   -4.8150 C   0  0  0  0  0  0  0  0  0  0  0  0
   -2.6590   12.2500   -3.2030 C   0  0  0  0  0  0  0  0  0  0  0  0
   -1.2120   11.9110   -5.5540 C   0  0  0  0  0  0  0  0  0  0  0  0
   -2.8010   11.0770   -3.9420 C   0  0  0  0  0  0  0  0  0  0  0  0
   -2.0770   10.9070   -5.1170 C   0  0  0  0  0  0  0  0  0  0  0  0
  1  2  1  0
  2  3  2  0
  2  4  1  0
  4  5  2  0
  3  6  1  0
  4  7  1  0
  5  8  1  0
  6  8  2  0
  5  9  1  0
  7 10  2  0
 10 11  1  0
  9 12  2  0
 10 12  1  0
 11 13  1  1
 11 14  1  0
 13 15  1  0
 13 16  2  0
 14 17  2  0
 14 18  1  0
 17 19  1  0
 18 20  2  0
 19 21  2  0
 20 21  1  0
M  END
