mac-x0255-diamond-x0290_0_A
     RDKit          3D

 26 28  0  0  0  0  0  0  0  0999 V2000
    1.2630   12.8320   -1.6730 O   0  0  0  0  0  0  0  0  0  0  0  0
    0.7340   12.0860   -2.6550 C   0  0  0  0  0  0  0  0  0  0  0  0
    0.1400   11.0390   -2.4480 O   0  0  0  0  0  0  0  0  0  0  0  0
    0.9330   12.6210   -4.0320 C   0  0  0  0  0  0  0  0  0  0  0  0
    0.3570   13.9870   -4.2550 C   0  0  0  0  0  0  0  0  0  0  0  0
   -0.7190   14.6930   -3.7440 C   0  0  0  0  0  0  0  0  0  0  0  0
    1.1500   14.9010   -5.3830 S   0  0  0  0  0  0  0  0  0  0  0  0
   -1.6970   14.1470   -2.7120 C   0  0  0  0  0  0  0  0  0  0  0  0
   -0.8250   16.0200   -4.3590 C   0  0  0  0  0  0  0  0  0  0  0  0
    0.1400   16.2420   -5.2710 C   0  0  0  0  0  0  0  0  0  0  0  0
   -1.7270   17.0710   -4.1890 C   0  0  0  0  0  0  0  0  0  0  0  0
    0.2410   17.4320   -5.9970 C   0  0  0  0  0  0  0  0  0  0  0  0
   -1.5930   14.4330   -1.2110 C   0  0  0  0  0  0  0  0  0  0  0  0
   -1.6440   18.2700   -4.9130 C   0  0  0  0  0  0  0  0  0  0  0  0
   -0.6640   18.4410   -5.8120 C   0  0  0  0  0  0  0  0  0  0  0  0
   -0.4240   14.6050   -0.4550 C   0  0  0  0  0  0  0  0  0  0  0  0
   -2.8000   14.5080   -0.5190 C   0  0  0  0  0  0  0  0  0  0  0  0
   -0.5600   14.8250    0.9250 C   0  0  0  0  0  0  0  0  0  0  0  0
   -2.8650   14.7280    0.8360 C   0  0  0  0  0  0  0  0  0  0  0  0
   -4.1160   14.7830    1.4610 N   0  0  0  0  0  0  0  0  0  0  0  0
   -1.7530   14.8880    1.5910 N   0  0  0  0  0  0  0  0  0  0  0  0
   -5.3180   14.5710    0.8060 C   0  0  0  0  0  0  0  0  0  0  0  0
   -5.5150   14.6900   -0.4030 O   0  0  0  0  0  0  0  0  0  0  0  0
   -6.4750   14.1330    1.7260 C   0  0  0  0  0  0  0  0  0  0  0  0
   -7.6960   13.8120    0.9580 N   0  0  0  0  0  0  0  0  0  0  0  0
   -8.5750   14.9580    0.7770 C   0  0  0  0  0  0  0  0  0  0  0  0
  1  2  1  0
  2  3  2  0
  2  4  1  0
  4  5  1  0
  5  6  2  0
  5  7  1  0
  6  8  1  0
  6  9  1  0
  7 10  1  0
  9 10  2  0
  9 11  1  0
 10 12  1  0
  8 13  1  0
 11 14  2  0
 12 15  2  0
 14 15  1  0
 13 16  2  0
 13 17  1  0
 16 18  1  0
 17 19  2  0
 19 20  1  0
 18 21  2  0
 19 21  1  0
 20 22  1  0
 22 23  2  0
 22 24  1  0
 24 25  1  0
 25 26  1  0
M  END
