mac-x0361-mac-x0496
     RDKit          3D

 19 20  0  0  0  0  0  0  0  0999 V2000
   -6.9700   14.5420    1.7010 N   0  0  0  0  0  0  0  0  0  0  0  0
   -6.8620   14.7290    0.3480 C   0  0  0  0  0  0  0  0  0  0  0  0
   -7.9000   14.8320   -0.2880 O   0  0  0  0  0  0  0  0  0  0  0  0
   -8.2290   14.0750    2.2840 C   0  0  0  0  0  0  0  0  0  0  0  0
   -5.6080   14.8010   -0.4240 C   0  0  0  0  0  0  0  0  0  0  0  0
   -9.0750   15.2140    2.7340 C   0  0  0  0  0  0  0  0  0  0  0  0
   -4.3510   14.6440    0.1730 C   0  0  0  0  0  0  0  0  0  0  0  0
   -5.7270   15.0290   -1.7890 C   0  0  0  0  0  0  0  0  0  0  0  0
  -10.1670   15.5560    1.9800 O   0  0  0  0  0  0  0  0  0  0  0  0
   -8.9230   15.9690    3.7950 N   0  0  0  0  0  0  0  0  0  0  0  0
   -3.2090   14.7120   -0.6260 C   0  0  0  0  0  0  0  0  0  0  0  0
   -4.5980   15.0920   -2.5640 C   0  0  0  0  0  0  0  0  0  0  0  0
   -9.9710   16.8320    3.7040 C   0  0  0  0  0  0  0  0  0  0  0  0
  -10.7620   16.6370    2.6380 N   0  0  0  0  0  0  0  0  0  0  0  0
  -10.1980   17.8850    4.7130 C   0  0  0  0  0  0  0  0  0  0  0  0
   -3.3420   14.9330   -1.9940 C   0  0  0  0  0  0  0  0  0  0  0  0
   -2.2790   15.0070   -2.8440 N   0  0  0  0  0  0  0  0  0  0  0  0
   -2.6060   15.4740   -3.9660 C   0  0  0  0  0  0  0  0  0  0  0  0
   -1.8080   15.6650   -4.9910 O   0  0  0  0  0  0  0  0  0  0  0  0
  1  2  1  0
  2  3  2  0
  1  4  1  0
  2  5  1  0
  4  6  1  0
  5  7  2  0
  5  8  1  0
  6  9  1  0
  6 10  2  0
  7 11  1  0
  8 12  2  0
 10 13  1  0
  9 14  1  0
 13 14  2  0
 13 15  1  0
 11 16  2  0
 12 16  1  0
 16 17  1  0
 17 18  2  3
 18 19  1  0
M  END
