mac-x1493-mac-x0142
     RDKit          3D

 26 30  0  0  0  0  0  0  0  0999 V2000
   -1.5060   15.4300   -3.1140 O   0  0  0  0  0  0  0  0  0  0  0  0
   -2.8050   15.2900   -3.4170 C   0  0  0  0  0  0  0  0  0  0  0  0
   -3.1390   15.3340   -4.5850 O   0  0  0  0  0  0  0  0  0  0  0  0
   -3.6900   15.0830   -2.2120 C   0  0  2  0  0  0  0  0  0  0  0  0
   -3.0190   15.1260   -0.7820 C   0  0  2  0  0  0  0  0  0  0  0  0
   -4.5390   13.8780   -2.4840 C   0  0  0  0  0  0  0  0  0  0  0  0
   -4.3510   14.9480    0.0710 C   0  0  0  0  0  0  0  0  0  0  0  0
   -5.7810   14.0150   -1.7840 N   0  0  0  0  0  0  0  0  0  0  0  0
   -2.6960   13.8880    0.0980 C   0  0  0  0  0  0  0  0  0  0  0  0
   -1.5740   14.4550   -1.2040 C   0  0  1  0  0  0  0  0  0  0  0  0
   -5.5980   14.4250   -0.4630 C   0  0  0  0  0  0  0  0  0  0  0  0
   -4.3880   15.2960    1.4320 C   0  0  0  0  0  0  0  0  0  0  0  0
   -0.9810   14.3440   -2.5710 N   0  0  0  0  0  0  0  0  0  0  0  0
   -0.4760   15.0070   -0.3730 N   0  0  0  0  0  0  0  0  0  0  0  0
   -1.8990   14.2640    1.2870 N   0  0  0  0  0  0  0  0  0  0  0  0
   -6.7340   14.2890    0.3430 C   0  0  0  0  0  0  0  0  0  0  0  0
   -5.5430   15.1450    2.2100 C   0  0  0  0  0  0  0  0  0  0  0  0
   -1.3810   13.1890   -3.3890 C   0  0  0  0  0  0  0  0  0  0  0  0
    0.4820   14.6330   -2.6880 C   0  0  0  0  0  0  0  0  0  0  0  0
   -0.5070   14.4040    0.9320 C   0  0  0  0  0  0  0  0  0  0  0  0
   -6.7120   14.6430    1.6710 C   0  0  0  0  0  0  0  0  0  0  0  0
    1.0580   13.7620   -3.7900 C   0  0  0  0  0  0  0  0  0  0  0  0
   -1.1050   13.4070   -4.8840 C   0  0  0  0  0  0  0  0  0  0  0  0
    2.5250   13.3790   -3.8050 C   0  0  0  0  0  0  0  0  0  0  0  0
    1.4910   12.3840   -3.3710 C   0  0  0  0  0  0  0  0  0  0  0  0
    0.3240   13.8760   -5.0990 C   0  0  0  0  0  0  0  0  0  0  0  0
  1  2  1  0
  2  3  2  0
  4  2  1  6
  4  5  1  0
  4  6  1  0
  5  7  1  0
  6  8  1  0
  5  9  1  6
  5 10  1  0
  7 11  2  0
  8 11  1  0
  7 12  1  0
 10 13  1  6
 10 14  1  0
  9 15  1  0
 11 16  1  0
 12 17  2  0
 13 18  1  0
 13 19  1  0
 14 20  1  0
 15 20  1  0
 16 21  2  0
 17 21  1  0
 22 19  1  0
 18 23  1  0
 22 24  1  0
 22 25  1  0
 24 25  1  0
 22 26  1  0
 23 26  1  0
M  END
