mac-x0404-mac-x0228
     RDKit          3D

 27 30  0  0  0  0  0  0  0  0999 V2000
    1.3560   13.1050   -2.1990 O   0  0  0  0  0  0  0  0  0  0  0  0
    1.3570   12.4090   -3.3570 C   0  0  0  0  0  0  0  0  0  0  0  0
    0.7860   11.3290   -3.4330 O   0  0  0  0  0  0  0  0  0  0  0  0
    2.1230   13.0750   -4.5300 C   0  0  0  0  0  0  0  0  0  0  0  0
    1.8820   14.4800   -4.7820 O   0  0  0  0  0  0  0  0  0  0  0  0
    0.5980   14.9440   -4.6950 C   0  0  0  0  0  0  0  0  0  0  0  0
    0.1630   16.1980   -5.1850 C   0  0  0  0  0  0  0  0  0  0  0  0
   -0.2780   14.1840   -4.1020 C   0  0  0  0  0  0  0  0  0  0  0  0
   -1.2040   16.5910   -5.0440 C   0  0  0  0  0  0  0  0  0  0  0  0
   -1.5510   14.5370   -3.9460 C   0  0  0  0  0  0  0  0  0  0  0  0
    1.0210   17.0830   -5.8060 C   0  0  0  0  0  0  0  0  0  0  0  0
   -2.0300   13.5190   -3.2630 N   0  0  0  0  0  0  0  0  0  0  0  0
   -2.0940   15.7210   -4.4070 C   0  0  0  0  0  0  0  0  0  0  0  0
   -1.6150   17.8370   -5.5340 C   0  0  0  0  0  0  0  0  0  0  0  0
    0.6080   18.3170   -6.2770 C   0  0  0  0  0  0  0  0  0  0  0  0
   -2.9840   13.3870   -2.5300 C   0  0  0  0  0  0  0  0  0  0  0  0
   -0.7120   18.6950   -6.1440 C   0  0  0  0  0  0  0  0  0  0  0  0
   -2.9870   12.1970   -1.9710 O   0  0  0  0  0  0  0  0  0  0  0  0
   -4.1240   14.0660   -2.0310 C   0  0  0  0  0  0  0  0  0  0  0  0
   -4.3400   13.8920   -0.6770 C   0  0  0  0  0  0  0  0  0  0  0  0
   -4.9670   14.7970   -2.8670 C   0  0  0  0  0  0  0  0  0  0  0  0
   -5.4650   14.4420   -0.1660 C   0  0  0  0  0  0  0  0  0  0  0  0
   -6.1110   15.3510   -2.3150 C   0  0  0  0  0  0  0  0  0  0  0  0
   -6.3350   15.1430   -0.9750 C   0  0  0  0  0  0  0  0  0  0  0  0
   -5.9880   14.4090    1.2100 C   0  0  0  0  0  0  0  0  0  0  0  0
   -7.4310   15.5810   -0.3000 O   0  0  0  0  0  0  0  0  0  0  0  0
   -7.4380   14.6820    0.8420 C   0  0  0  0  0  0  0  0  0  0  0  0
  1  2  1  0
  2  3  2  0
  2  4  1  0
  4  5  1  0
  5  6  1  0
  6  7  2  0
  6  8  1  0
  7  9  1  0
  8 10  2  0
  7 11  1  0
 10 12  1  0
  9 13  2  0
 10 13  1  0
  9 14  1  0
 11 15  2  0
 12 16  2  3
 14 17  2  0
 15 17  1  0
 16 18  1  0
 16 19  1  0
 19 20  2  0
 19 21  1  0
 20 22  1  0
 21 23  2  0
 22 24  2  0
 23 24  1  0
 22 25  1  0
 24 26  1  0
 25 27  1  0
 26 27  1  0
M  END
