mac-x0306-mac-x0439
     RDKit          3D

 26 29  0  0  0  0  0  0  0  0999 V2000
   -3.1030   15.7740   -5.7500 C   0  0  0  0  0  0  0  0  0  0  0  0
   -3.6850   15.0040   -4.5670 C   0  0  0  0  0  0  0  0  0  0  0  0
   -3.0890   15.5770   -3.3140 C   0  0  0  0  0  0  0  0  0  0  0  0
   -1.8730   16.6520   -5.4560 C   0  0  0  0  0  0  0  0  0  0  0  0
   -0.9360   16.4350   -4.2760 C   0  0  1  0  0  0  0  0  0  0  0  0
   -1.5750   17.7070   -6.2550 C   0  0  0  0  0  0  0  0  0  0  0  0
   -3.6500   15.3250   -1.9620 C   0  0  0  0  0  0  0  0  0  0  0  0
   -0.5050   15.1390   -3.6580 C   0  0  0  0  0  0  0  0  0  0  0  0
    0.4660   16.9430   -4.5580 C   0  0  0  0  0  0  0  0  0  0  0  0
   -0.4120   18.5610   -6.0530 C   0  0  0  0  0  0  0  0  0  0  0  0
   -4.9960   15.1710   -1.5860 C   0  0  0  0  0  0  0  0  0  0  0  0
   -2.6340   15.2670   -1.0940 N   0  0  0  0  0  0  0  0  0  0  0  0
    0.8390   15.1090   -3.5760 C   0  0  0  0  0  0  0  0  0  0  0  0
    1.4390   16.2000   -4.1400 N   0  0  0  0  0  0  0  0  0  0  0  0
    0.6120   18.2280   -5.2470 C   0  0  0  0  0  0  0  0  0  0  0  0
    1.5810   13.9880   -2.9290 C   0  0  0  0  0  0  0  0  0  0  0  0
   -2.8970   15.0560    0.1830 C   0  0  0  0  0  0  0  0  0  0  0  0
   -5.2470   14.9430   -0.2150 C   0  0  0  0  0  0  0  0  0  0  0  0
    2.8990   14.2330   -2.7380 O   0  0  0  0  0  0  0  0  0  0  0  0
    1.0930   12.9300   -2.5690 O   0  0  0  0  0  0  0  0  0  0  0  0
   -6.5560   14.7480    0.4160 C   0  0  0  0  0  0  0  0  0  0  0  0
   -4.1630   14.8900    0.6600 C   0  0  0  0  0  0  0  0  0  0  0  0
   -6.7180   14.5020    1.7690 N   0  0  0  0  0  0  0  0  0  0  0  0
   -7.7370   14.7760   -0.1730 N   0  0  0  0  0  0  0  0  0  0  0  0
   -8.6600   14.5520    0.8120 C   0  0  0  0  0  0  0  0  0  0  0  0
   -8.0470   14.3780    2.0270 C   0  0  0  0  0  0  0  0  0  0  0  0
  1  2  1  0
  2  3  1  0
  1  4  1  0
  4  5  1  0
  4  6  2  0
  3  7  1  0
  5  8  1  6
  5  9  1  0
  6 10  1  0
  7 11  2  0
  7 12  1  0
  8 13  2  0
  9 14  2  0
 13 14  1  0
  9 15  1  0
 10 15  2  0
 13 16  1  0
 12 17  2  0
 11 18  1  0
 16 19  1  0
 16 20  2  0
 18 21  1  0
 17 22  1  0
 18 22  2  0
 21 23  1  0
 21 24  2  0
 24 25  1  0
 23 26  1  0
 25 26  2  0
M  END
