mac-x0223-diamond-x0592_0_A
     RDKit          3D

 26 27  0  0  0  0  0  0  0  0999 V2000
    1.1930   18.3210   -5.7580 C   0  0  0  0  0  0  0  0  0  0  0  0
    0.3020   18.2220   -4.6620 O   0  0  0  0  0  0  0  0  0  0  0  0
   -0.2650   16.9920   -4.6610 C   0  0  0  0  0  0  0  0  0  0  0  0
   -1.6370   16.8940   -4.7890 C   0  0  0  0  0  0  0  0  0  0  0  0
    0.5250   15.8560   -4.5260 C   0  0  0  0  0  0  0  0  0  0  0  0
   -2.3220   18.0650   -4.9010 O   0  0  0  0  0  0  0  0  0  0  0  0
   -2.2610   15.6570   -4.7890 C   0  0  0  0  0  0  0  0  0  0  0  0
   -0.0770   14.5930   -4.5160 C   0  0  0  0  0  0  0  0  0  0  0  0
    0.7650   13.3460   -4.3540 C   0  0  0  0  0  0  0  0  0  0  0  0
   -1.4790   14.5020   -4.6520 C   0  0  0  0  0  0  0  0  0  0  0  0
    0.4760   12.5630   -3.0800 C   0  0  0  0  0  0  0  0  0  0  0  0
    0.0480   11.4130   -3.0820 O   0  0  0  0  0  0  0  0  0  0  0  0
    0.7420   13.2740   -1.9410 O   0  0  0  0  0  0  0  0  0  0  0  0
   -0.0470   14.4720   -1.7430 C   0  0  0  0  0  0  0  0  0  0  0  0
   -0.8470   14.3990   -0.4370 C   0  0  0  0  0  0  0  0  0  0  0  0
   -2.2830   14.5220   -0.7370 N   0  0  0  0  0  0  0  0  0  0  0  0
   -3.2010   14.6610    0.1490 C   0  0  0  0  0  0  0  0  0  0  0  0
   -2.8610   14.7030    1.4770 N   0  0  0  0  0  0  0  0  0  0  0  0
   -4.6280   14.7720   -0.0670 C   0  0  0  0  0  0  0  0  0  0  0  0
   -5.3530   15.1850   -1.2200 C   0  0  0  0  0  0  0  0  0  0  0  0
   -5.6150   14.4830    0.8410 C   0  0  0  0  0  0  0  0  0  0  0  0
   -6.6830   15.1510   -1.0400 N   0  0  0  0  0  0  0  0  0  0  0  0
   -6.8070   14.7180    0.2350 N   0  0  0  0  0  0  0  0  0  0  0  0
   -8.1100   14.5390    0.8480 C   0  0  0  0  0  0  0  0  0  0  0  0
   -7.9540   14.1070    2.3080 C   0  0  0  0  0  0  0  0  0  0  0  0
   -7.2210   15.0720    3.0680 O   0  0  0  0  0  0  0  0  0  0  0  0
  1  2  1  0
  2  3  1  0
  3  4  2  0
  3  5  1  0
  4  6  1  0
  4  7  1  0
  5  8  2  0
  8  9  1  0
  7 10  2  0
  8 10  1  0
  9 11  1  0
 11 12  2  0
 11 13  1  0
 13 14  1  0
 14 15  1  0
 15 16  1  0
 16 17  2  3
 17 18  1  0
 17 19  1  0
 19 20  1  0
 19 21  2  0
 20 22  2  0
 21 23  1  0
 22 23  1  0
 23 24  1  0
 24 25  1  0
 25 26  1  0
M  END
