mac-x0337-mac-x0333
     RDKit          3D

 19 21  0  0  0  0  0  0  0  0999 V2000
   -6.1220    9.9390   -2.5360 C   0  0  0  0  0  0  0  0  0  0  0  0
   -5.2720   10.9370   -1.8140 C   0  0  0  0  0  0  0  0  0  0  0  0
   -5.7310   11.5370   -0.6440 C   0  0  0  0  0  0  0  0  0  0  0  0
   -4.0050   11.2800   -2.2990 C   0  0  0  0  0  0  0  0  0  0  0  0
   -3.2040   12.1990   -1.6090 C   0  0  0  0  0  0  0  0  0  0  0  0
   -4.9280   12.4540    0.0480 C   0  0  0  0  0  0  0  0  0  0  0  0
   -3.6430   12.7940   -0.4170 C   0  0  0  0  0  0  0  0  0  0  0  0
   -2.4880   13.9460    0.4520 S   0  0  0  0  0  0  0  0  0  0  0  0
   -2.3870   15.0420   -0.7920 N   0  0  0  0  0  0  0  0  0  0  0  0
   -3.7320   14.7740    1.2210 N   0  0  0  0  0  0  0  0  0  0  0  0
   -3.6480   15.1040   -1.0720 C   0  0  0  0  0  0  0  0  0  0  0  0
   -4.2480   15.1910   -2.3240 C   0  0  0  0  0  0  0  0  0  0  0  0
   -4.4530   15.0420    0.0760 C   0  0  0  0  0  0  0  0  0  0  0  0
   -5.6330   15.2010   -2.4370 C   0  0  0  0  0  0  0  0  0  0  0  0
   -5.7900   15.0460   -0.0520 C   0  0  0  0  0  0  0  0  0  0  0  0
   -6.3700   15.1240   -1.2780 C   0  0  0  0  0  0  0  0  0  0  0  0
   -6.6890   14.9680    0.9630 O   0  0  0  0  0  0  0  0  0  0  0  0
   -7.7220   15.1100   -1.1850 O   0  0  0  0  0  0  0  0  0  0  0  0
   -7.8550   14.6920    0.1880 C   0  0  0  0  0  0  0  0  0  0  0  0
  1  2  1  0
  2  3  2  0
  2  4  1  0
  4  5  2  0
  3  6  1  0
  5  7  1  0
  6  7  2  0
  7  8  1  0
  8  9  2  3
  8 10  1  0
  9 11  1  0
 11 12  2  0
 11 13  1  0
 12 14  1  0
 13 15  2  0
 14 16  2  0
 15 16  1  0
 15 17  1  0
 16 18  1  0
 17 19  1  0
 18 19  1  0
M  END
