mac-x0455-diamond-x0805_0_A
     RDKit          3D

 28 30  0  0  0  0  0  0  0  0999 V2000
   -2.9740   14.0680   -5.8790 C   0  0  0  0  0  0  0  0  0  0  0  0
   -1.6660   13.6600   -5.1910 C   0  0  1  0  0  0  0  0  0  0  0  0
   -0.9380   14.9040   -5.0590 O   0  0  0  0  0  0  0  0  0  0  0  0
   -1.9940   13.0480   -3.8160 C   0  0  0  0  0  0  0  0  0  0  0  0
   -0.8120   12.6650   -5.9330 C   0  0  0  0  0  0  0  0  0  0  0  0
   -2.6420   13.7620   -3.0440 O   0  0  0  0  0  0  0  0  0  0  0  0
   -1.5520   11.7360   -3.5580 N   0  0  0  0  0  0  0  0  0  0  0  0
   -1.4320   11.5880   -6.5820 C   0  0  0  0  0  0  0  0  0  0  0  0
    0.5790   12.7720   -5.9930 C   0  0  0  0  0  0  0  0  0  0  0  0
   -0.4240   11.4640   -2.9540 C   0  0  0  0  0  0  0  0  0  0  0  0
   -0.6860   10.6420   -7.2750 C   0  0  0  0  0  0  0  0  0  0  0  0
    1.3190   11.8260   -6.6810 C   0  0  0  0  0  0  0  0  0  0  0  0
   -0.1020   10.1640   -2.7240 O   0  0  0  0  0  0  0  0  0  0  0  0
    0.6960   10.7600   -7.3270 C   0  0  0  0  0  0  0  0  0  0  0  0
    0.6160   12.4110   -2.4360 C   0  0  1  0  0  0  0  0  0  0  0  0
    1.7620   12.4730   -3.4540 C   0  0  0  0  0  0  0  0  0  0  0  0
   -0.0530   13.7740   -2.2360 C   0  0  1  0  0  0  0  0  0  0  0  0
   -1.3080   13.6990   -1.3700 C   0  0  0  0  0  0  0  0  0  0  0  0
    1.9400   13.8190   -3.8750 O   0  0  0  0  0  0  0  0  0  0  0  0
    0.9990   14.7820   -1.8110 C   0  0  0  0  0  0  0  0  0  0  0  0
   -2.3130   12.7440   -1.6500 C   0  0  0  0  0  0  0  0  0  0  0  0
   -1.5310   14.5500   -0.2940 C   0  0  0  0  0  0  0  0  0  0  0  0
    2.1790   14.6910   -2.7840 C   0  0  0  0  0  0  0  0  0  0  0  0
   -2.6980   14.4600    0.4580 C   0  0  0  0  0  0  0  0  0  0  0  0
   -3.4780   12.6580   -0.9000 C   0  0  0  0  0  0  0  0  0  0  0  0
   -2.7820   15.3450    1.4580 O   0  0  0  0  0  0  0  0  0  0  0  0
   -3.6750   13.5210    0.1630 C   0  0  0  0  0  0  0  0  0  0  0  0
   -4.0530   15.9650    1.5440 C   0  0  0  0  0  0  0  0  0  0  0  0
  2  1  1  6
  2  3  1  0
  2  4  1  0
  2  5  1  0
  4  6  2  0
  4  7  1  0
  5  8  2  0
  5  9  1  0
  7 10  2  3
  8 11  1  0
  9 12  2  0
 10 13  1  0
 11 14  2  0
 12 14  1  0
 15 10  1  6
 15 16  1  0
 15 17  1  0
 17 18  1  1
 16 19  1  0
 17 20  1  0
 18 21  2  0
 18 22  1  0
 19 23  1  0
 20 23  1  0
 22 24  2  0
 21 25  1  0
 24 26  1  0
 24 27  1  0
 25 27  2  0
 26 28  1  0
M  END
