mac-x0392-mac-x0306
     RDKit          3D

 19 21  0  0  0  0  0  0  0  0999 V2000
    0.2330   14.3660    0.3200 N   0  0  0  0  0  0  0  0  0  0  0  0
   -1.1440   14.4880    0.1070 C   0  0  0  0  0  0  0  0  0  0  0  0
   -2.0470   14.4440    1.1510 C   0  0  0  0  0  0  0  0  0  0  0  0
   -1.7100   14.6600   -1.1550 C   0  0  0  0  0  0  0  0  0  0  0  0
   -0.8600   14.7180   -2.3600 C   0  0  0  0  0  0  0  0  0  0  0  0
   -3.0730   14.7830   -1.3580 C   0  0  0  0  0  0  0  0  0  0  0  0
   -3.3960   14.5520    1.0190 N   0  0  0  0  0  0  0  0  0  0  0  0
   -1.2820   14.6660   -3.5020 O   0  0  0  0  0  0  0  0  0  0  0  0
    0.4500   14.8300   -2.0990 O   0  0  0  0  0  0  0  0  0  0  0  0
   -3.9210   14.7160   -0.2270 C   0  0  0  0  0  0  0  0  0  0  0  0
   -3.5100   14.9490   -2.6120 N   0  0  0  0  0  0  0  0  0  0  0  0
   -4.8120   15.0530   -2.8260 C   0  0  0  0  0  0  0  0  0  0  0  0
   -5.3170   14.8210   -0.5060 C   0  0  0  0  0  0  0  0  0  0  0  0
   -6.4610   14.7560    0.4390 C   0  0  0  0  0  0  0  0  0  0  0  0
   -5.7380   14.9960   -1.8280 C   0  0  0  0  0  0  0  0  0  0  0  0
   -6.4390   14.6050    1.8170 N   0  0  0  0  0  0  0  0  0  0  0  0
   -7.7260   14.8320    0.0410 N   0  0  0  0  0  0  0  0  0  0  0  0
   -8.5070   14.7330    1.1560 C   0  0  0  0  0  0  0  0  0  0  0  0
   -7.7270   14.5930    2.2730 C   0  0  0  0  0  0  0  0  0  0  0  0
  1  2  1  0
  2  3  2  0
  2  4  1  0
  4  5  1  0
  4  6  2  0
  3  7  1  0
  5  8  2  0
  5  9  1  0
  6 10  1  0
  7 10  2  0
  6 11  1  0
 11 12  2  0
 10 13  1  0
 13 14  1  0
 12 15  1  0
 13 15  2  0
 14 16  1  0
 14 17  2  0
 17 18  1  0
 16 19  1  0
 18 19  2  0
M  END
