mac-x0328-mac-x0441
     RDKit          3D

 28 30  0  0  0  0  0  0  0  0999 V2000
   -1.8480   14.7240   -3.8500 O   0  0  0  0  0  0  0  0  0  0  0  0
   -1.9120   14.7130   -2.5020 C   0  0  0  0  0  0  0  0  0  0  0  0
   -0.8830   14.5420   -1.7540 N   0  0  0  0  0  0  0  0  0  0  0  0
   -3.2820   14.8900   -1.9650 C   0  0  0  0  0  0  0  0  0  0  0  0
    0.3990   14.3190   -2.4270 C   0  0  0  0  0  0  0  0  0  0  0  0
   -3.4850   14.9020   -0.5770 C   0  0  0  0  0  0  0  0  0  0  0  0
   -4.3730   15.0330   -2.8270 C   0  0  0  0  0  0  0  0  0  0  0  0
    0.5270   12.8630   -2.3510 N   0  0  0  0  0  0  0  0  0  0  0  0
   -4.7750   15.0520   -0.0630 C   0  0  0  0  0  0  0  0  0  0  0  0
   -5.6610   15.1810   -2.3110 C   0  0  0  0  0  0  0  0  0  0  0  0
    0.5540   12.1540   -3.4290 C   0  0  0  0  0  0  0  0  0  0  0  0
   -5.8520   15.1870   -0.9350 C   0  0  0  0  0  0  0  0  0  0  0  0
   -7.1030   15.3250   -0.4130 O   0  0  0  0  0  0  0  0  0  0  0  0
    0.6210   10.8160   -3.3450 O   0  0  0  0  0  0  0  0  0  0  0  0
    0.4940   12.7580   -4.8170 C   0  0  0  0  0  0  0  0  0  0  0  0
    0.2180   11.7930   -5.8850 N   0  0  0  0  0  0  0  0  0  0  0  0
    0.9940   11.8060   -7.0120 N   0  0  0  0  0  0  0  0  0  0  0  0
   -0.7480   10.8340   -5.9390 C   0  0  0  0  0  0  0  0  0  0  0  0
    0.4830   10.8160   -7.7980 C   0  0  0  0  0  0  0  0  0  0  0  0
   -0.5980   10.1930   -7.1490 C   0  0  0  0  0  0  0  0  0  0  0  0
   -1.7810   10.5060   -4.9280 C   0  0  0  0  0  0  0  0  0  0  0  0
    0.9530   10.3920   -9.1790 C   0  0  0  0  0  0  0  0  0  0  0  0
   -1.4610    9.0680   -7.6050 C   0  0  0  0  0  0  0  0  0  0  0  0
   -2.9200    9.7260   -5.6140 C   0  0  0  0  0  0  0  0  0  0  0  0
    1.6440    9.2210   -9.1850 F   0  0  0  0  0  0  0  0  0  0  0  0
   -0.1100   10.1890   -9.9970 F   0  0  0  0  0  0  0  0  0  0  0  0
    1.6800   11.3020   -9.8530 F   0  0  0  0  0  0  0  0  0  0  0  0
   -2.3800    8.5710   -6.4770 C   0  0  0  0  0  0  0  0  0  0  0  0
  1  2  1  0
  2  3  2  3
  2  4  1  0
  3  5  1  0
  4  6  2  0
  4  7  1  0
  5  8  1  0
  6  9  1  0
  7 10  2  0
  8 11  2  3
  9 12  2  0
 10 12  1  0
 12 13  1  0
 11 14  1  0
 11 15  1  0
 15 16  1  0
 16 17  1  0
 16 18  1  0
 17 19  2  0
 18 20  2  0
 19 20  1  0
 18 21  1  0
 19 22  1  0
 20 23  1  0
 21 24  1  0
 22 25  1  0
 22 26  1  0
 22 27  1  0
 23 28  1  0
 24 28  1  0
M  END
