mac-x0555-diamond-x0844_0_A
     RDKit          3D

 13 14  0  0  0  0  0  0  0  0999 V2000
   -7.3420   14.5130    2.9550 N   0  0  0  0  0  0  0  0  0  0  0  0
   -7.1020   13.9160    1.6450 C   0  0  1  0  0  0  0  0  0  0  0  0
   -8.0160   14.6250    0.6220 C   0  0  0  0  0  0  0  0  0  0  0  0
   -5.5980   13.8760    1.2660 C   0  0  0  0  0  0  0  0  0  0  0  0
   -5.1250   15.1250    0.5290 C   0  0  2  0  0  0  0  0  0  0  0  0
   -7.3840   14.7810   -0.6690 N   0  0  0  0  0  0  0  0  0  0  0  0
   -6.0460   15.4220   -0.6840 C   0  0  2  0  0  0  0  0  0  0  0  0
   -3.6580   15.0460    0.2160 C   0  0  0  0  0  0  0  0  0  0  0  0
   -5.4550   14.9240   -1.9720 C   0  0  0  0  0  0  0  0  0  0  0  0
   -3.1610   15.1070   -1.0220 C   0  0  0  0  0  0  0  0  0  0  0  0
   -6.1710   14.2650   -2.7140 O   0  0  0  0  0  0  0  0  0  0  0  0
   -3.9990   15.2610   -2.2290 C   0  0  1  0  0  0  0  0  0  0  0  0
   -3.2630   14.0700   -3.5590 Br  0  0  0  0  0  0  0  0  0  0  0  0
  2  1  1  1
  2  3  1  0
  2  4  1  0
  5  4  1  6
  3  6  1  0
  5  7  1  0
  7  6  1  1
  5  8  1  0
  7  9  1  0
  8 10  2  0
  9 11  2  0
  9 12  1  0
 10 12  1  0
 12 13  1  6
M  END
