mac-x0527-mac-x0584
     RDKit          3D

 30 34  0  0  0  0  0  0  0  0999 V2000
   -4.7340   14.9430   -3.6780 O   0  0  0  0  0  0  0  0  0  0  0  0
   -3.7440   14.9830   -2.9730 C   0  0  0  0  0  0  0  0  0  0  0  0
   -2.5570   14.4680   -3.4120 N   0  0  0  0  0  0  0  0  0  0  0  0
   -3.6990   15.5950   -1.5780 C   0  0  1  0  0  0  0  0  0  0  0  0
   -2.3080   14.3580   -4.8390 C   0  0  0  0  0  0  0  0  0  0  0  0
   -5.1500   15.7010   -1.0440 C   0  0  0  0  0  0  0  0  0  0  0  0
   -2.6680   14.9280   -0.6140 C   0  0  2  0  0  0  0  0  0  0  0  0
   -1.7050   13.0180   -5.1790 C   0  0  0  0  0  0  0  0  0  0  0  0
   -5.3980   14.8650    0.1110 N   0  0  0  0  0  0  0  0  0  0  0  0
   -3.3420   13.7080    0.0040 C   0  0  0  0  0  0  0  0  0  0  0  0
   -2.3060   15.6940    0.6430 C   0  0  0  0  0  0  0  0  0  0  0  0
   -1.1570   14.8390   -1.1620 C   0  0  2  0  0  0  0  0  0  0  0  0
   -2.3370   11.8720   -4.7020 C   0  0  0  0  0  0  0  0  0  0  0  0
   -0.5350   12.8840   -5.9570 C   0  0  0  0  0  0  0  0  0  0  0  0
   -4.6430   13.7570    0.3350 C   0  0  0  0  0  0  0  0  0  0  0  0
   -0.6620   15.0900   -2.5640 N   0  0  0  0  0  0  0  0  0  0  0  0
   -0.2760   14.0200   -0.3610 N   0  0  0  0  0  0  0  0  0  0  0  0
   -1.4890   14.8680    1.5340 N   0  0  0  0  0  0  0  0  0  0  0  0
   -1.8250   10.6110   -4.9900 C   0  0  0  0  0  0  0  0  0  0  0  0
   -0.0250   11.6190   -6.2450 C   0  0  0  0  0  0  0  0  0  0  0  0
   -0.6890   14.1510   -3.6900 C   0  0  2  0  0  0  0  0  0  0  0  0
   -1.0870   16.3600   -3.1830 C   0  0  0  0  0  0  0  0  0  0  0  0
   -0.1880   14.4970    1.0070 C   0  0  0  0  0  0  0  0  0  0  0  0
   -0.6720   10.4860   -5.7600 C   0  0  0  0  0  0  0  0  0  0  0  0
   -0.0540   12.7840   -3.5850 C   0  0  0  0  0  0  0  0  0  0  0  0
   -0.0120   15.0000   -4.7620 C   0  0  0  0  0  0  0  0  0  0  0  0
   -0.8960   16.2130   -4.6890 C   0  0  0  0  0  0  0  0  0  0  0  0
    1.2570   12.4370   -2.8550 C   0  0  0  0  0  0  0  0  0  0  0  0
   -0.7200   11.8720   -2.5350 C   0  0  0  0  0  0  0  0  0  0  0  0
    0.5420   11.0640   -2.7140 C   0  0  0  0  0  0  0  0  0  0  0  0
  1  2  2  0
  2  3  1  0
  4  2  1  6
  3  5  1  0
  4  6  1  0
  4  7  1  0
  5  8  1  0
  6  9  1  0
  7 10  1  1
  7 11  1  0
  7 12  1  0
  8 13  2  0
  8 14  1  0
  9 15  1  0
 10 15  2  0
 12 16  1  6
 12 17  1  0
 11 18  1  0
 13 19  1  0
 14 20  2  0
 16 21  1  0
 16 22  1  0
 17 23  1  0
 18 23  1  0
 19 24  2  0
 20 24  1  0
 21 25  1  1
 21 26  1  0
 22 27  1  0
 26 27  1  0
 25 28  1  0
 25 29  1  0
 28 30  1  0
 29 30  1  0
M  END
