mac-x0402-mac-x0139
     RDKit          3D

 22 25  0  0  0  0  0  0  0  0999 V2000
   -2.1390   14.6220   -3.2120 C   0  0  0  0  0  0  0  0  0  0  0  0
   -0.9770   14.1690   -2.4390 N   0  0  0  0  0  0  0  0  0  0  0  0
    0.2540   14.7550   -2.9710 C   0  0  0  0  0  0  0  0  0  0  0  0
   -3.0300   15.4850   -2.2890 C   0  0  1  0  0  0  0  0  0  0  0  0
   -4.4570   15.3010   -2.7390 C   0  0  0  0  0  0  0  0  0  0  0  0
   -2.6500   15.0520   -0.8370 C   0  0  2  0  0  0  0  0  0  0  0  0
   -1.2160   14.5090   -1.0430 C   0  0  1  0  0  0  0  0  0  0  0  0
    0.8930   13.8090   -3.9760 C   0  0  0  0  0  0  0  0  0  0  0  0
   -3.9350   14.8800    0.0020 C   0  0  0  0  0  0  0  0  0  0  0  0
   -5.4570   15.0360   -1.9000 C   0  0  0  0  0  0  0  0  0  0  0  0
   -2.0990   16.0210    0.1800 C   0  0  0  0  0  0  0  0  0  0  0  0
   -0.6810   13.6640   -0.0390 N   0  0  0  0  0  0  0  0  0  0  0  0
    1.1470   12.5210   -3.2610 C   0  0  0  0  0  0  0  0  0  0  0  0
   -5.2170   14.9010   -0.5220 C   0  0  0  0  0  0  0  0  0  0  0  0
   -4.0960   14.7070    1.6840 S   0  0  0  0  0  0  0  0  0  0  0  0
   -1.5550   15.3300    1.3820 N   0  0  0  0  0  0  0  0  0  0  0  0
   -0.4020   14.4950    1.1100 C   0  0  0  0  0  0  0  0  0  0  0  0
    1.7580   12.4010   -2.2210 O   0  0  0  0  0  0  0  0  0  0  0  0
    0.6240   11.4510   -3.8870 O   0  0  0  0  0  0  0  0  0  0  0  0
   -5.8170   14.7060    1.5370 C   0  0  0  0  0  0  0  0  0  0  0  0
   -6.2740   14.7980    0.3250 N   0  0  0  0  0  0  0  0  0  0  0  0
   -6.6470   14.6260    2.5860 N   0  0  0  0  0  0  0  0  0  0  0  0
  1  2  1  0
  2  3  1  0
  4  1  1  6
  4  5  1  0
  4  6  1  0
  2  7  1  0
  6  7  1  0
  3  8  1  0
  6  9  1  0
  5 10  2  0
  6 11  1  1
  7 12  1  1
  8 13  1  0
  9 14  2  0
 10 14  1  0
  9 15  1  0
 11 16  1  0
 12 17  1  0
 16 17  1  0
 13 18  2  0
 13 19  1  0
 15 20  1  0
 14 21  1  0
 20 21  2  0
 20 22  1  0
M  END
