mac-x0354-mac-x0319
     RDKit          3D

 23 25  0  0  0  0  0  0  0  0999 V2000
    0.8740   10.7680   -8.3300 C   0  0  0  0  0  0  0  0  0  0  0  0
    1.0590   11.3830   -7.0320 N   0  0  0  0  0  0  0  0  0  0  0  0
    2.0390   12.2580   -6.8280 N   0  0  0  0  0  0  0  0  0  0  0  0
    0.3130   11.1690   -5.9240 C   0  0  0  0  0  0  0  0  0  0  0  0
    1.9350   12.6240   -5.5870 C   0  0  0  0  0  0  0  0  0  0  0  0
    0.8740   11.9930   -4.9390 C   0  0  0  0  0  0  0  0  0  0  0  0
   -0.7960   10.2390   -5.9390 C   0  0  0  0  0  0  0  0  0  0  0  0
    0.5180   12.2460   -3.5230 C   0  0  2  0  0  0  0  0  0  0  0  0
   -0.6080    8.9770   -6.5100 C   0  0  0  0  0  0  0  0  0  0  0  0
   -2.0310   10.5810   -5.4000 C   0  0  0  0  0  0  0  0  0  0  0  0
    1.6990   12.3860   -2.6010 N   0  0  0  0  0  0  0  0  0  0  0  0
   -0.4920   11.3290   -3.0680 O   0  0  0  0  0  0  0  0  0  0  0  0
   -1.6510    8.0570   -6.5420 C   0  0  0  0  0  0  0  0  0  0  0  0
   -3.0780    9.6600   -5.4310 C   0  0  0  0  0  0  0  0  0  0  0  0
    0.0510   13.6740   -3.8650 C   0  0  0  0  0  0  0  0  0  0  0  0
    1.3570   13.0060   -1.5960 O   0  0  0  0  0  0  0  0  0  0  0  0
   -2.8890    8.4020   -6.0010 C   0  0  0  0  0  0  0  0  0  0  0  0
    0.9510   14.7760   -3.8190 C   0  0  0  0  0  0  0  0  0  0  0  0
   -1.2760   13.9310   -4.2540 C   0  0  0  0  0  0  0  0  0  0  0  0
    0.5100   16.0590   -4.1520 C   0  0  0  0  0  0  0  0  0  0  0  0
   -1.6980   15.2180   -4.5860 C   0  0  0  0  0  0  0  0  0  0  0  0
    1.3190   17.1540   -4.1210 O   0  0  0  0  0  0  0  0  0  0  0  0
   -0.8020   16.2780   -4.5350 C   0  0  0  0  0  0  0  0  0  0  0  0
  1  2  1  0
  2  3  1  0
  2  4  1  0
  3  5  2  0
  4  6  2  0
  5  6  1  0
  4  7  1  0
  6  8  1  0
  7  9  2  0
  7 10  1  0
  8 11  1  0
  8 12  1  1
  9 13  1  0
 10 14  2  0
  8 15  1  0
 11 16  2  0
 13 17  2  0
 14 17  1  0
 15 18  2  0
 15 19  1  0
 18 20  1  0
 19 21  2  0
 20 22  1  0
 20 23  2  0
 21 23  1  0
M  END
