mac-x0587-mac-x0271
     RDKit          3D

 26 28  0  0  0  0  0  0  0  0999 V2000
   -0.7940   16.1530   -4.4810 C   0  0  0  0  0  0  0  0  0  0  0  0
   -1.0590   14.8340   -3.7630 C   0  0  2  0  0  0  0  0  0  0  0  0
   -0.7990   13.4120   -4.9290 S   0  0  0  0  0  0  0  0  0  0  0  0
   -2.4030   14.7160   -2.9360 C   0  0  0  0  0  0  0  0  0  0  0  0
   -0.9990   11.9770   -3.8170 C   0  0  0  0  0  0  0  0  0  0  0  0
   -3.6370   14.4120   -3.2440 N   0  0  0  0  0  0  0  0  0  0  0  0
   -2.3450   14.9850   -1.5700 N   0  0  0  0  0  0  0  0  0  0  0  0
    0.2790   11.6050   -3.0960 C   0  0  0  0  0  0  0  0  0  0  0  0
   -3.5310   15.3300   -0.7850 C   0  0  0  0  0  0  0  0  0  0  0  0
   -1.2760   14.7690   -0.6610 C   0  0  0  0  0  0  0  0  0  0  0  0
   -4.5230   14.4040   -2.1310 C   0  0  0  0  0  0  0  0  0  0  0  0
    0.5180   10.4640   -2.7380 O   0  0  0  0  0  0  0  0  0  0  0  0
    1.1390   12.6330   -2.8730 O   0  0  0  0  0  0  0  0  0  0  0  0
   -0.0880   14.6030   -0.8570 O   0  0  0  0  0  0  0  0  0  0  0  0
   -3.1030   15.3660    0.6630 C   0  0  0  0  0  0  0  0  0  0  0  0
   -1.7970   14.7830    0.6340 N   0  0  0  0  0  0  0  0  0  0  0  0
   -5.7840   15.0400   -2.0800 C   0  0  0  0  0  0  0  0  0  0  0  0
   -4.0930   13.7080   -0.9830 C   0  0  0  0  0  0  0  0  0  0  0  0
   -6.5460   14.9600   -0.8880 C   0  0  0  0  0  0  0  0  0  0  0  0
   -4.8610   13.6440    0.1860 C   0  0  0  0  0  0  0  0  0  0  0  0
   -6.0890   14.2750    0.2380 C   0  0  0  0  0  0  0  0  0  0  0  0
   -7.8100   15.5960   -0.8350 O   0  0  0  0  0  0  0  0  0  0  0  0
   -6.9030   14.2330    1.4430 C   0  0  0  0  0  0  0  0  0  0  0  0
   -8.7120   15.2760    0.1810 C   0  0  0  0  0  0  0  0  0  0  0  0
   -9.9210   15.4460    0.0890 O   0  0  0  0  0  0  0  0  0  0  0  0
   -8.1430   14.7070    1.4090 C   0  0  0  0  0  0  0  0  0  0  0  0
  2  1  1  6
  2  3  1  0
  2  4  1  0
  3  5  1  0
  4  6  2  3
  4  7  1  0
  5  8  1  0
  7  9  1  0
  7 10  1  0
  6 11  1  0
  8 12  2  0
  8 13  1  0
 10 14  2  0
  9 15  1  0
 10 16  1  0
 15 16  1  0
 11 17  2  0
 11 18  1  0
 17 19  1  0
 18 20  2  0
 19 21  2  0
 20 21  1  0
 19 22  1  0
 21 23  1  0
 22 24  1  0
 24 25  2  0
 23 26  2  0
 24 26  1  0
M  END
