mac-x0564-diamond-x1015_0_A
     RDKit          3D

 21 24  0  0  0  0  0  0  0  0999 V2000
    1.0100   14.1970   -1.8860 O   0  0  0  0  0  0  0  0  0  0  0  0
   -0.0590   13.7700   -2.3080 C   0  0  0  0  0  0  0  0  0  0  0  0
   -0.0700   12.5400   -3.1700 N   0  0  2  0  0  0  0  0  0  0  0  0
   -1.3840   14.2250   -2.1070 C   0  0  0  0  0  0  0  0  0  0  0  0
    1.1480   11.8850   -3.2130 O   0  0  0  0  0  0  0  0  0  0  0  0
   -2.2430   14.2740   -3.1570 C   0  0  0  0  0  0  0  0  0  0  0  0
   -0.9220   12.6720   -4.4830 C   0  0  1  0  0  0  0  0  0  0  0  0
   -1.9580   14.6250   -0.9400 O   0  0  0  0  0  0  0  0  0  0  0  0
   -1.7920   13.8970   -4.4050 N   0  0  0  0  0  0  0  0  0  0  0  0
   -3.2570   14.9230   -1.2680 C   0  0  0  0  0  0  0  0  0  0  0  0
   -3.4810   14.7200   -2.6390 C   0  0  0  0  0  0  0  0  0  0  0  0
   -0.1310   12.6140   -5.8280 C   0  0  0  0  0  0  0  0  0  0  0  0
   -1.9100   11.4780   -4.5300 C   0  0  0  0  0  0  0  0  0  0  0  0
   -4.7610   14.9730   -3.1470 C   0  0  0  0  0  0  0  0  0  0  0  0
   -4.2360   15.3620   -0.3750 C   0  0  0  0  0  0  0  0  0  0  0  0
   -0.1150   11.5500   -6.7000 C   0  0  0  0  0  0  0  0  0  0  0  0
   -1.8900   10.4250   -5.3980 C   0  0  0  0  0  0  0  0  0  0  0  0
   -5.7600   15.4080   -2.2680 C   0  0  0  0  0  0  0  0  0  0  0  0
   -5.5010   15.5960   -0.9190 C   0  0  0  0  0  0  0  0  0  0  0  0
   -0.8640   10.2550   -6.4790 C   0  0  1  0  0  0  0  0  0  0  0  0
   -1.6450    9.6910   -7.9890 Cl  0  0  0  0  0  0  0  0  0  0  0  0
  1  2  2  0
  2  3  1  0
  2  4  1  0
  3  5  1  6
  4  6  2  0
  3  7  1  0
  4  8  1  0
  6  9  1  0
  7  9  1  0
  8 10  1  0
  6 11  1  0
 10 11  2  0
  7 12  1  6
  7 13  1  0
 11 14  1  0
 10 15  1  0
 12 16  2  0
 13 17  2  0
 14 18  2  0
 15 19  2  0
 18 19  1  0
 16 20  1  0
 17 20  1  0
 20 21  1  6
M  CHG  2   3   1   5  -1
M  END
