mac-x0411-diamond-x0727_0_A
     RDKit          3D

 17 18  0  0  0  0  0  0  0  0999 V2000
   -0.0970   11.2630   -9.2890 Cl  0  0  0  0  0  0  0  0  0  0  0  0
   -0.8570   11.0580   -7.6980 C   0  0  2  0  0  0  0  0  0  0  0  0
   -2.2220   11.7780   -7.6300 C   0  0  0  0  0  0  0  0  0  0  0  0
    0.0070   11.1410   -6.5040 N   0  0  0  0  0  0  0  0  0  0  0  0
   -1.0050    9.5760   -7.5600 C   0  0  1  0  0  0  0  0  0  0  0  0
    0.6980   12.3440   -5.8470 C   0  0  2  0  0  0  0  0  0  0  0  0
    0.4580    9.0650   -7.7220 C   0  0  0  0  0  0  0  0  0  0  0  0
   -2.9410   11.4680   -6.3190 C   0  0  2  0  0  0  0  0  0  0  0  0
   -1.6410    9.2840   -6.2440 C   0  0  0  0  0  0  0  0  0  0  0  0
    0.9320   10.5260   -7.4950 C   0  0  0  0  0  0  0  0  0  0  0  0
   -2.6540   12.8960   -5.2800 Cl  0  0  0  0  0  0  0  0  0  0  0  0
    0.8470   12.0250   -4.3240 C   0  0  0  0  0  0  0  0  0  0  0  0
   -0.0170   13.6830   -5.7290 C   0  0  0  0  0  0  0  0  0  0  0  0
    1.6650    8.9270   -7.8140 O   0  0  0  0  0  0  0  0  0  0  0  0
   -2.5090   10.1520   -5.6960 C   0  0  0  0  0  0  0  0  0  0  0  0
    1.4190   13.0380   -3.6230 O   0  0  0  0  0  0  0  0  0  0  0  0
    0.4860   10.9940   -3.7810 O   0  0  0  0  0  0  0  0  0  0  0  0
  2  1  1  6
  2  3  1  0
  2  4  1  0
  2  5  1  0
  4  6  1  0
  5  7  1  0
  3  8  1  0
  5  9  1  1
  4 10  1  0
  7 10  1  0
  8 11  1  1
  6 12  1  0
  6 13  1  1
  7 14  2  0
  8 15  1  0
  9 15  2  0
 12 16  1  0
 12 17  2  0
M  END
