mac-x0223-diamond-x0631_0_A
     RDKit          3D

 32 34  0  0  0  0  0  0  0  0999 V2000
    1.2360   18.4250   -5.7630 C   0  0  0  0  0  0  0  0  0  0  0  0
    0.2200   18.2300   -4.8110 O   0  0  0  0  0  0  0  0  0  0  0  0
   -0.2420   16.9580   -4.7210 C   0  0  0  0  0  0  0  0  0  0  0  0
   -1.6250   16.8470   -4.7660 C   0  0  0  0  0  0  0  0  0  0  0  0
    0.5400   15.8110   -4.5910 C   0  0  0  0  0  0  0  0  0  0  0  0
   -2.3310   18.0090   -4.8830 O   0  0  0  0  0  0  0  0  0  0  0  0
   -2.2540   15.6080   -4.6860 C   0  0  0  0  0  0  0  0  0  0  0  0
   -0.0680   14.5480   -4.5030 C   0  0  0  0  0  0  0  0  0  0  0  0
    0.7890   13.3100   -4.3550 C   0  0  0  0  0  0  0  0  0  0  0  0
   -1.4730   14.4580   -4.5540 C   0  0  0  0  0  0  0  0  0  0  0  0
    0.5560   12.5720   -3.0530 C   0  0  0  0  0  0  0  0  0  0  0  0
   -0.0960   11.4730   -2.9850 N   0  0  0  0  0  0  0  0  0  0  0  0
    1.1000   13.1810   -1.9840 O   0  0  0  0  0  0  0  0  0  0  0  0
   -0.6620   10.8630   -4.1770 C   0  0  0  0  0  0  0  0  0  0  0  0
    0.3210    9.8730   -4.7820 C   0  0  0  0  0  0  0  0  0  0  0  0
   -0.3530    8.7190   -5.5370 C   0  0  0  0  0  0  0  0  0  0  0  0
   -0.0310    8.4850   -7.0240 C   0  0  1  0  0  0  0  0  0  0  0  0
   -1.3800    8.2270   -7.7440 C   0  0  0  0  0  0  0  0  0  0  0  0
    0.8790    9.5170   -7.5630 N   0  0  0  0  0  0  0  0  0  0  0  0
   -2.4300    9.3170   -7.5880 C   0  0  0  0  0  0  0  0  0  0  0  0
    0.4090   10.8420   -7.4350 N   0  0  0  0  0  0  0  0  0  0  0  0
    1.3290    9.2930   -8.9130 N   0  0  0  0  0  0  0  0  0  0  0  0
    0.3360   11.3680   -8.7760 N   0  0  0  0  0  0  0  0  0  0  0  0
    0.6510   10.3040   -9.7100 C   0  0  1  0  0  0  0  0  0  0  0  0
    1.6030   10.7390  -10.7060 N   0  0  0  0  0  0  0  0  0  0  0  0
    2.0720    9.7340  -11.6660 C   0  0  2  0  0  0  0  0  0  0  0  0
    2.7670    8.7330  -10.9320 O   0  0  0  0  0  0  0  0  0  0  0  0
    3.0140   10.2030  -12.8170 C   0  0  1  0  0  0  0  0  0  0  0  0
    3.2240    9.3370  -13.9200 O   0  0  0  0  0  0  0  0  0  0  0  0
    2.6880   11.5480  -13.4540 C   0  0  0  0  0  0  0  0  0  0  0  0
    3.6470   11.5570  -14.6280 C   0  0  0  0  0  0  0  0  0  0  0  0
    4.1390   10.1180  -14.7070 C   0  0  0  0  0  0  0  0  0  0  0  0
  1  2  1  0
  2  3  1  0
  3  4  2  0
  3  5  1  0
  4  6  1  0
  4  7  1  0
  5  8  2  0
  8  9  1  0
  7 10  2  0
  8 10  1  0
  9 11  1  0
 11 12  2  3
 11 13  1  0
 12 14  1  0
 14 15  1  0
 15 16  1  0
 17 16  1  1
 17 18  1  0
 17 19  1  0
 18 20  1  0
 19 21  1  0
 19 22  1  0
 21 23  1  0
 22 24  1  0
 23 24  1  0
 24 25  1  6
 25 26  1  0
 26 27  1  1
 26 28  1  0
 28 29  1  0
 28 30  1  6
 30 31  1  0
 29 32  1  0
 31 32  1  0
M  END
