mac-x0305-mac-x0380
     RDKit          3D

 18 19  0  0  0  0  0  0  0  0999 V2000
    0.0290   13.1580   -0.4320 O   0  0  0  0  0  0  0  0  0  0  0  0
   -0.4560   14.0830   -1.2900 C   0  0  0  0  0  0  0  0  0  0  0  0
    0.0210   14.1300   -2.4200 O   0  0  0  0  0  0  0  0  0  0  0  0
   -1.5740   15.0100   -0.7630 C   0  0  2  0  0  0  0  0  0  0  0  0
   -2.0840   14.8040    0.6860 C   0  0  2  0  0  0  0  0  0  0  0  0
   -2.7880   15.0660   -1.6170 N   0  0  0  0  0  0  0  0  0  0  0  0
   -1.1090   14.3680    1.6300 O   0  0  0  0  0  0  0  0  0  0  0  0
   -3.3540   13.9300    0.7140 C   0  0  0  0  0  0  0  0  0  0  0  0
   -3.8840   15.7260   -0.8360 C   0  0  0  0  0  0  0  0  0  0  0  0
   -2.5030   15.6500   -2.9200 C   0  0  0  0  0  0  0  0  0  0  0  0
   -4.5500   14.7040    0.1320 C   0  0  2  0  0  0  0  0  0  0  0  0
   -3.4640   15.2580   -3.8690 O   0  0  0  0  0  0  0  0  0  0  0  0
   -5.3950   15.2570    1.2110 N   0  0  0  0  0  0  0  0  0  0  0  0
   -5.4060   13.9620   -0.8460 C   0  0  0  0  0  0  0  0  0  0  0  0
   -6.6170   14.7790    1.7070 C   0  0  0  0  0  0  0  0  0  0  0  0
   -7.1000   13.5890   -0.6750 S   0  0  0  0  0  0  0  0  0  0  0  0
   -6.9760   14.9110    2.8730 O   0  0  0  0  0  0  0  0  0  0  0  0
   -7.6400   14.1390    0.8530 C   0  0  0  0  0  0  0  0  0  0  0  0
  1  2  1  0
  2  3  2  0
  4  2  1  6
  4  5  1  0
  4  6  1  0
  5  7  1  1
  5  8  1  0
  6  9  1  0
  6 10  1  0
 11  8  1  1
  9 11  1  0
 10 12  1  0
 11 13  1  0
 11 14  1  0
 13 15  1  0
 14 16  2  0
 15 17  2  0
 15 18  1  0
 16 18  2  0
M  END
