mac-x0496-diamond-x0628_0_A
     RDKit          3D

 32 34  0  0  0  0  0  0  0  0999 V2000
   -9.9180   17.8230    4.7840 C   0  0  0  0  0  0  0  0  0  0  0  0
   -9.9460   16.8200    3.7020 C   0  0  0  0  0  0  0  0  0  0  0  0
  -10.9140   16.7370    2.7800 N   0  0  0  0  0  0  0  0  0  0  0  0
   -8.9590   15.8830    3.5770 N   0  0  0  0  0  0  0  0  0  0  0  0
  -10.5140   15.6590    1.9810 O   0  0  0  0  0  0  0  0  0  0  0  0
   -9.3420   15.2010    2.5230 C   0  0  0  0  0  0  0  0  0  0  0  0
   -8.6840   14.0410    1.8810 C   0  0  0  0  0  0  0  0  0  0  0  0
   -7.2730   14.3410    1.6850 N   0  0  0  0  0  0  0  0  0  0  0  0
   -6.8190   14.7080    0.4450 C   0  0  0  0  0  0  0  0  0  0  0  0
   -7.5540   14.9340   -0.5070 O   0  0  0  0  0  0  0  0  0  0  0  0
   -5.3500   14.8080    0.2990 C   0  0  0  0  0  0  0  0  0  0  0  0
   -4.5730   14.9580    1.4480 C   0  0  0  0  0  0  0  0  0  0  0  0
   -4.7490   14.7450   -0.9460 C   0  0  0  0  0  0  0  0  0  0  0  0
   -3.1860   15.0310    1.3560 C   0  0  0  0  0  0  0  0  0  0  0  0
   -3.3660   14.8210   -1.0290 C   0  0  0  0  0  0  0  0  0  0  0  0
   -2.7630   14.7190   -2.3450 C   0  0  0  0  0  0  0  0  0  0  0  0
   -2.5750   14.9620    0.1140 C   0  0  0  0  0  0  0  0  0  0  0  0
   -1.6070   14.3500   -2.7080 N   0  0  0  0  0  0  0  0  0  0  0  0
   -3.6430   15.0490   -3.3040 O   0  0  0  0  0  0  0  0  0  0  0  0
   -1.3980   14.2420   -4.1440 C   0  0  0  0  0  0  0  0  0  0  0  0
   -2.1930   12.9860   -4.5530 C   0  0  0  0  0  0  0  0  0  0  0  0
   -1.4270   11.9650   -5.3390 C   0  0  0  0  0  0  0  0  0  0  0  0
   -1.9040   10.8100   -5.7800 N   0  0  0  0  0  0  0  0  0  0  0  0
   -0.1090   12.0680   -5.7290 N   0  0  0  0  0  0  0  0  0  0  0  0
    0.8670   13.1170   -5.5110 C   0  0  0  0  0  0  0  0  0  0  0  0
   -0.8440   10.2490   -6.4380 C   0  0  0  0  0  0  0  0  0  0  0  0
    0.2650   10.9880   -6.4310 N   0  0  0  0  0  0  0  0  0  0  0  0
   -0.9110    8.9360   -7.1030 C   0  0  0  0  0  0  0  0  0  0  0  0
    1.7740   12.9160   -4.2880 C   0  0  0  0  0  0  0  0  0  0  0  0
    1.1250   12.2540   -3.1040 C   0  0  0  0  0  0  0  0  0  0  0  0
    0.5820   11.1610   -3.0700 O   0  0  0  0  0  0  0  0  0  0  0  0
    1.1940   12.9930   -1.9850 O   0  0  0  0  0  0  0  0  0  0  0  0
  1  2  1  0
  2  3  2  0
  2  4  1  0
  3  5  1  0
  4  6  2  0
  5  6  1  0
  6  7  1  0
  7  8  1  0
  8  9  1  0
  9 10  2  0
  9 11  1  0
 11 12  2  0
 11 13  1  0
 12 14  1  0
 13 15  2  0
 15 16  1  0
 14 17  2  0
 15 17  1  0
 16 18  2  3
 16 19  1  0
 18 20  1  0
 20 21  1  0
 21 22  1  0
 22 23  2  0
 22 24  1  0
 24 25  1  0
 23 26  1  0
 24 27  1  0
 26 27  2  0
 26 28  1  0
 25 29  1  0
 29 30  1  0
 30 31  2  0
 30 32  1  0
M  END
