mac-x0587-mac-x0159
     RDKit          3D

 25 27  0  0  0  0  0  0  0  0999 V2000
   -0.9500   14.2060   -5.3210 C   0  0  0  0  0  0  0  0  0  0  0  0
   -0.7740   14.9230   -3.9840 C   0  0  2  0  0  0  0  0  0  0  0  0
    0.5120   13.7780   -3.2760 S   0  0  0  0  0  0  0  0  0  0  0  0
   -2.1950   14.8920   -3.3290 C   0  0  0  0  0  0  0  0  0  0  0  0
   -0.2970   16.2220   -4.5030 C   0  0  0  0  0  0  0  0  0  0  0  0
    0.0730   12.0970   -3.7700 C   0  0  0  0  0  0  0  0  0  0  0  0
   -3.1580   15.1080   -4.0850 O   0  0  0  0  0  0  0  0  0  0  0  0
   -2.4990   14.6580   -1.9870 N   0  0  0  0  0  0  0  0  0  0  0  0
    0.9610   16.7590   -4.4040 C   0  0  0  0  0  0  0  0  0  0  0  0
   -1.2060   17.0050   -5.1920 N   0  0  0  0  0  0  0  0  0  0  0  0
    0.4020   11.1980   -2.6370 C   0  0  0  0  0  0  0  0  0  0  0  0
   -3.8180   15.0240   -1.4700 C   0  0  0  0  0  0  0  0  0  0  0  0
   -1.6210   14.9650   -0.8970 C   0  0  1  0  0  0  0  0  0  0  0  0
   -0.6380   18.1000   -5.6080 C   0  0  0  0  0  0  0  0  0  0  0  0
    1.0100   18.2630   -5.1970 S   0  0  0  0  0  0  0  0  0  0  0  0
    0.3810    9.9960   -2.5880 O   0  0  0  0  0  0  0  0  0  0  0  0
    0.7720   11.9420   -1.5690 O   0  0  0  0  0  0  0  0  0  0  0  0
   -1.3860   16.3070   -0.7910 O   0  0  0  0  0  0  0  0  0  0  0  0
   -1.3330   19.1530   -6.3860 C   0  0  0  0  0  0  0  0  0  0  0  0
   -3.7070   14.8900    0.0640 C   0  0  1  0  0  0  0  0  0  0  0  0
   -2.3280   14.4710    0.2440 N   0  0  0  0  0  0  0  0  0  0  0  0
   -0.3940   14.2750   -0.7040 N   0  0  0  0  0  0  0  0  0  0  0  0
   -4.0070   16.0660    0.8770 N   0  0  0  0  0  0  0  0  0  0  0  0
   -1.4550   15.0120    1.2910 N   0  0  0  0  0  0  0  0  0  0  0  0
   -0.1580   14.5540    0.7320 C   0  0  0  0  0  0  0  0  0  0  0  0
  2  1  1  6
  2  3  1  0
  2  4  1  0
  2  5  1  0
  3  6  1  0
  4  7  2  0
  4  8  1  0
  5  9  2  0
  5 10  1  0
  6 11  1  0
  8 12  1  0
  8 13  1  0
 10 14  2  0
  9 15  1  0
 14 15  1  0
 11 16  2  0
 11 17  1  0
 13 18  1  1
 14 19  1  0
 12 20  1  0
 13 21  1  0
 20 21  1  0
 13 22  1  0
 20 23  1  1
 21 24  1  0
 22 25  1  0
 24 25  1  0
M  END
