mac-x0138-diamond-x0910_1_A
     RDKit          3D

 18 20  0  0  0  0  0  0  0  0999 V2000
   -0.8290   14.6280   -3.2410 C   0  0  0  0  0  0  0  0  0  0  0  0
   -1.8730   14.7820   -2.2670 N   0  0  0  0  0  0  0  0  0  0  0  0
   -3.1800   15.0770   -2.5350 C   0  0  0  0  0  0  0  0  0  0  0  0
   -1.7340   14.6630   -0.9050 C   0  0  0  0  0  0  0  0  0  0  0  0
   -3.8860   15.1610   -1.4340 N   0  0  0  0  0  0  0  0  0  0  0  0
   -2.9990   14.9100   -0.4100 C   0  0  0  0  0  0  0  0  0  0  0  0
   -0.6380   14.3770   -0.1860 N   0  0  0  0  0  0  0  0  0  0  0  0
   -3.1540   14.8680    0.9860 C   0  0  0  0  0  0  0  0  0  0  0  0
   -0.9070   14.3550    1.1390 C   0  0  0  0  0  0  0  0  0  0  0  0
   -4.3950   15.1150    1.5560 N   0  0  0  0  0  0  0  0  0  0  0  0
    0.0920   14.0720    2.0290 N   0  0  0  0  0  0  0  0  0  0  0  0
   -2.0720   14.5840    1.7340 N   0  0  0  0  0  0  0  0  0  0  0  0
   -5.4400   15.1260    0.6780 N   0  0  0  0  0  0  0  0  0  0  0  0
   -6.6860   14.5390    0.7620 C   0  0  0  0  0  0  0  0  0  0  0  0
   -5.4210   15.7690   -0.5160 C   0  0  0  0  0  0  0  0  0  0  0  0
   -7.0610   13.8140    1.8350 N   0  0  0  0  0  0  0  0  0  0  0  0
   -7.3550   14.8210   -0.3380 N   0  0  0  0  0  0  0  0  0  0  0  0
   -6.5510   15.6000   -1.1430 N   0  0  0  0  0  0  0  0  0  0  0  0
  1  2  1  0
  2  3  1  0
  2  4  1  0
  3  5  2  0
  4  6  2  0
  5  6  1  0
  4  7  1  0
  6  8  1  0
  7  9  2  0
  8 10  1  0
  9 11  1  0
  8 12  2  0
  9 12  1  0
 10 13  1  0
 13 14  1  0
 13 15  1  0
 14 16  1  0
 14 17  2  0
 15 18  2  0
 17 18  1  0
M  END
