mac-x0417-mac-x0124
     RDKit          3D

 25 28  0  0  0  0  0  0  0  0999 V2000
    1.6530   12.7540   -2.6940 O   0  0  0  0  0  0  0  0  0  0  0  0
    0.7640   11.9350   -3.3040 C   0  0  0  0  0  0  0  0  0  0  0  0
    0.6660   10.7670   -2.9510 O   0  0  0  0  0  0  0  0  0  0  0  0
   -0.0730   12.5420   -4.4270 C   0  0  1  0  0  0  0  0  0  0  0  0
    0.1070   14.0670   -4.5610 C   0  0  0  0  0  0  0  0  0  0  0  0
    0.0430   11.6820   -5.6530 C   0  0  0  0  0  0  0  0  0  0  0  0
    0.0760   14.8440   -3.2220 C   0  0  0  0  0  0  0  0  0  0  0  0
    1.0970   11.7850   -6.4820 N   0  0  0  0  0  0  0  0  0  0  0  0
   -0.8620   10.6890   -6.0970 C   0  0  0  0  0  0  0  0  0  0  0  0
    0.8770   10.8450   -7.4870 O   0  0  0  0  0  0  0  0  0  0  0  0
   -0.2930   10.1900   -7.2520 C   0  0  0  0  0  0  0  0  0  0  0  0
   -2.0840   10.1510   -5.6700 C   0  0  0  0  0  0  0  0  0  0  0  0
   -1.1500   14.8610   -2.4040 N   0  0  0  0  0  0  0  0  0  0  0  0
   -0.8600    9.1770   -8.0260 C   0  0  0  0  0  0  0  0  0  0  0  0
   -2.6840    9.1380   -6.4120 C   0  0  0  0  0  0  0  0  0  0  0  0
   -2.4530   14.9530   -2.8530 C   0  0  0  0  0  0  0  0  0  0  0  0
   -1.1550   14.7990   -1.0240 C   0  0  0  0  0  0  0  0  0  0  0  0
   -2.0800    8.6570   -7.5720 C   0  0  0  0  0  0  0  0  0  0  0  0
   -3.2890   14.9600   -1.7430 C   0  0  0  0  0  0  0  0  0  0  0  0
   -2.4730   14.8650   -0.5800 C   0  0  0  0  0  0  0  0  0  0  0  0
   -0.0650   14.7010   -0.2510 N   0  0  0  0  0  0  0  0  0  0  0  0
   -2.6740   14.8300    0.8120 C   0  0  0  0  0  0  0  0  0  0  0  0
   -0.3870   14.6660    1.0580 C   0  0  0  0  0  0  0  0  0  0  0  0
   -3.9340   14.9120    1.3910 N   0  0  0  0  0  0  0  0  0  0  0  0
   -1.6080   14.7180    1.6280 N   0  0  0  0  0  0  0  0  0  0  0  0
  1  2  1  0
  2  3  2  0
  2  4  1  0
  4  5  1  6
  4  6  1  0
  5  7  1  0
  6  8  2  0
  6  9  1  0
  8 10  1  0
  9 11  2  0
 10 11  1  0
  9 12  1  0
  7 13  1  0
 11 14  1  0
 12 15  2  0
 13 16  1  0
 13 17  1  0
 14 18  2  0
 15 18  1  0
 16 19  2  0
 17 20  2  0
 19 20  1  0
 17 21  1  0
 20 22  1  0
 21 23  2  0
 22 24  1  0
 22 25  2  0
 23 25  1  0
M  END
