mac-x0204-mac-x0387
     RDKit          3D

 21 23  0  0  0  0  0  0  0  0999 V2000
    0.5220   12.9310   -2.5080 O   0  0  0  0  0  0  0  0  0  0  0  0
   -0.1190   14.1290   -2.9240 C   0  0  0  0  0  0  0  0  0  0  0  0
    0.8540   15.1570   -3.0630 O   0  0  0  0  0  0  0  0  0  0  0  0
   -1.0360   14.0230   -4.0880 C   0  0  0  0  0  0  0  0  0  0  0  0
   -1.2710   14.5110   -2.0400 C   0  0  0  0  0  0  0  0  0  0  0  0
   -1.5660   15.2040   -4.6240 C   0  0  0  0  0  0  0  0  0  0  0  0
   -1.4310   12.8150   -4.6420 C   0  0  0  0  0  0  0  0  0  0  0  0
   -1.3130   14.5510   -0.6440 C   0  0  0  0  0  0  0  0  0  0  0  0
   -2.4330   14.8520   -2.7810 C   0  0  0  0  0  0  0  0  0  0  0  0
   -2.4640   15.1330   -5.6610 C   0  0  0  0  0  0  0  0  0  0  0  0
   -2.3070   12.7190   -5.6670 N   0  0  0  0  0  0  0  0  0  0  0  0
   -2.5380   14.9400   -0.0560 C   0  0  0  0  0  0  0  0  0  0  0  0
   -0.2450   14.2390    0.2040 C   0  0  0  0  0  0  0  0  0  0  0  0
   -3.6130   15.2280   -2.1950 C   0  0  0  0  0  0  0  0  0  0  0  0
   -3.0120   16.2560   -6.2070 O   0  0  0  0  0  0  0  0  0  0  0  0
   -2.8080   13.8830   -6.1520 C   0  0  0  0  0  0  0  0  0  0  0  0
   -2.6190   14.9920    1.3140 C   0  0  0  0  0  0  0  0  0  0  0  0
   -0.4380   14.3150    1.5570 C   0  0  0  0  0  0  0  0  0  0  0  0
   -3.6650   15.2730   -0.8320 C   0  0  0  0  0  0  0  0  0  0  0  0
   -3.8100   15.3910    1.9170 N   0  0  0  0  0  0  0  0  0  0  0  0
   -1.6040   14.6800    2.1150 N   0  0  0  0  0  0  0  0  0  0  0  0
  2  1  1  0
  2  3  1  0
  2  4  1  0
  2  5  1  0
  4  6  2  0
  4  7  1  0
  5  8  1  0
  5  9  2  0
  6 10  1  0
  7 11  2  0
  8 12  2  0
  8 13  1  0
  9 14  1  0
 10 15  1  0
 10 16  2  0
 11 16  1  0
 12 17  1  0
 13 18  2  0
 12 19  1  0
 14 19  2  0
 17 20  1  0
 17 21  2  0
 18 21  1  0
M  END
