mac-x0223-mac-x0284
     RDKit          3D

 22 23  0  0  0  0  0  0  0  0999 V2000
    1.2290   18.5590   -5.6650 C   0  0  0  0  0  0  0  0  0  0  0  0
    0.3180   18.2970   -4.6220 O   0  0  0  0  0  0  0  0  0  0  0  0
   -0.1030   17.0180   -4.6660 C   0  0  0  0  0  0  0  0  0  0  0  0
   -1.4650   16.8900   -4.8730 C   0  0  0  0  0  0  0  0  0  0  0  0
    0.7030   15.8920   -4.5300 C   0  0  0  0  0  0  0  0  0  0  0  0
   -2.2320   18.0250   -4.9810 O   0  0  0  0  0  0  0  0  0  0  0  0
   -2.0480   15.6450   -4.9660 C   0  0  0  0  0  0  0  0  0  0  0  0
    0.1470   14.6120   -4.6060 C   0  0  0  0  0  0  0  0  0  0  0  0
    1.0390   13.3860   -4.4380 C   0  0  0  0  0  0  0  0  0  0  0  0
   -1.2370   14.4990   -4.8340 C   0  0  0  0  0  0  0  0  0  0  0  0
    0.7750   12.6940   -3.0980 C   0  0  0  0  0  0  0  0  0  0  0  0
    0.9930   11.5090   -2.8930 O   0  0  0  0  0  0  0  0  0  0  0  0
    0.2090   13.5340   -2.1830 N   0  0  0  0  0  0  0  0  0  0  0  0
   -0.9960   13.5600   -2.5800 C   0  0  0  0  0  0  0  0  0  0  0  0
   -2.1670   14.2760   -2.0730 C   0  0  0  0  0  0  0  0  0  0  0  0
   -2.3380   14.6850   -0.7470 C   0  0  0  0  0  0  0  0  0  0  0  0
   -3.1560   14.5290   -3.0080 C   0  0  0  0  0  0  0  0  0  0  0  0
   -3.0860   14.1620   -4.3170 O   0  0  0  0  0  0  0  0  0  0  0  0
   -3.5290   15.3500   -0.3840 C   0  0  0  0  0  0  0  0  0  0  0  0
   -4.3160   15.1830   -2.6590 C   0  0  0  0  0  0  0  0  0  0  0  0
   -3.7680   15.7970    1.0210 C   0  0  0  0  0  0  0  0  0  0  0  0
   -4.5050   15.5940   -1.3520 C   0  0  0  0  0  0  0  0  0  0  0  0
  1  2  1  0
  2  3  1  0
  3  4  2  0
  3  5  1  0
  4  6  1  0
  4  7  1  0
  5  8  2  0
  8  9  1  0
  7 10  2  0
  8 10  1  0
  9 11  1  0
 11 12  2  0
 11 13  1  0
 13 14  2  3
 14 15  1  0
 15 16  2  0
 15 17  1  0
 17 18  1  0
 16 19  1  0
 17 20  2  0
 19 21  1  0
 19 22  2  0
 20 22  1  0
M  END
