mac-x0496-mac-x0576
     RDKit          3D

 23 25  0  0  0  0  0  0  0  0999 V2000
   -9.8850   17.7660    4.7670 C   0  0  0  0  0  0  0  0  0  0  0  0
   -9.9550   16.7740    3.6740 C   0  0  0  0  0  0  0  0  0  0  0  0
  -11.0110   16.6560    2.8600 N   0  0  0  0  0  0  0  0  0  0  0  0
   -8.9410   15.8930    3.4180 N   0  0  0  0  0  0  0  0  0  0  0  0
  -10.6470   15.6240    1.9940 O   0  0  0  0  0  0  0  0  0  0  0  0
   -9.4060   15.2160    2.3920 C   0  0  0  0  0  0  0  0  0  0  0  0
   -8.7810   14.0990    1.6360 C   0  0  0  0  0  0  0  0  0  0  0  0
   -7.3430   14.3110    1.5400 N   0  0  0  0  0  0  0  0  0  0  0  0
   -6.7540   14.5820    0.3240 C   0  0  0  0  0  0  0  0  0  0  0  0
   -7.3670   14.5220   -0.7320 O   0  0  0  0  0  0  0  0  0  0  0  0
   -5.2770   14.9730    0.4270 C   0  0  1  0  0  0  0  0  0  0  0  0
   -4.3340   13.8670    0.8660 C   0  0  0  0  0  0  0  0  0  0  0  0
   -4.6850   15.4780   -0.9110 C   0  0  0  0  0  0  0  0  0  0  0  0
   -2.9890   14.4850    0.5100 C   0  0  2  0  0  0  0  0  0  0  0  0
   -3.1900   15.0370   -0.9060 C   0  0  1  0  0  0  0  0  0  0  0  0
   -2.8510   14.2780   -2.1890 C   0  0  0  0  0  0  0  0  0  0  0  0
   -2.0460   15.9840   -0.9080 C   0  0  0  0  0  0  0  0  0  0  0  0
   -1.8200   13.6640    0.6120 N   0  0  0  0  0  0  0  0  0  0  0  0
   -1.8450   13.6180   -2.3630 O   0  0  0  0  0  0  0  0  0  0  0  0
   -3.7450   14.4510   -3.1950 O   0  0  0  0  0  0  0  0  0  0  0  0
   -0.5900   14.2370    0.2260 C   0  0  1  0  0  0  0  0  0  0  0  0
   -0.7280   15.5160   -0.4180 N   0  0  0  0  0  0  0  0  0  0  0  0
    0.0280   14.5480    1.4560 N   0  0  0  0  0  0  0  0  0  0  0  0
  1  2  1  0
  2  3  2  0
  2  4  1  0
  3  5  1  0
  4  6  2  0
  5  6  1  0
  6  7  1  0
  7  8  1  0
  8  9  1  0
  9 10  2  0
 11  9  1  6
 11 12  1  0
 11 13  1  0
 14 12  1  6
 13 15  1  0
 14 15  1  0
 15 16  1  6
 15 17  1  0
 14 18  1  0
 16 19  2  0
 16 20  1  0
 18 21  1  0
 17 22  1  0
 21 22  1  0
 21 23  1  1
M  END
