mac-x0302-mac-x0206
     RDKit          3D

 20 22  0  0  0  0  0  0  0  0999 V2000
    0.8770   14.5420   -3.8490 O   0  0  0  0  0  0  0  0  0  0  0  0
    0.0510   14.2900   -2.8120 C   0  0  0  0  0  0  0  0  0  0  0  0
    0.4280   13.5890   -1.8890 O   0  0  0  0  0  0  0  0  0  0  0  0
   -1.3220   14.9590   -2.9390 C   0  0  0  0  0  0  0  0  0  0  0  0
   -2.4830   14.0670   -2.6640 N   0  0  0  0  0  0  0  0  0  0  0  0
   -3.7540   14.5610   -2.0570 C   0  0  1  0  0  0  0  0  0  0  0  0
   -4.4540   15.0700   -3.1860 O   0  0  0  0  0  0  0  0  0  0  0  0
   -4.5740   13.4200   -1.3180 C   0  0  1  0  0  0  0  0  0  0  0  0
   -3.5620   15.6150   -0.9940 C   0  0  1  0  0  0  0  0  0  0  0  0
   -3.6200   12.3270   -1.1710 N   0  0  0  0  0  0  0  0  0  0  0  0
   -4.7780   16.0430   -0.0900 C   0  0  2  0  0  0  0  0  0  0  0  0
   -2.4770   15.0840   -0.0700 C   0  0  0  0  0  0  0  0  0  0  0  0
   -5.0590   13.7610    0.1470 C   0  0  1  0  0  0  0  0  0  0  0  0
   -4.1170   16.0560    1.2630 C   0  0  0  0  0  0  0  0  0  0  0  0
   -2.9160   15.5040    1.2570 C   0  0  0  0  0  0  0  0  0  0  0  0
   -5.7870   15.0390    0.2420 C   0  0  2  0  0  0  0  0  0  0  0  0
   -5.8820   12.8550    1.0160 C   0  0  0  0  0  0  0  0  0  0  0  0
   -7.2350   15.0450   -0.1280 C   0  0  0  0  0  0  0  0  0  0  0  0
   -7.2250   13.0150    1.1210 C   0  0  0  0  0  0  0  0  0  0  0  0
   -7.9290   14.0270    0.3570 C   0  0  0  0  0  0  0  0  0  0  0  0
  1  2  1  0
  2  3  2  0
  2  4  1  0
  4  5  1  0
  5  6  1  0
  6  7  1  6
  6  8  1  0
  6  9  1  0
  8 10  1  1
  9 11  1  0
  9 12  1  1
  8 13  1  0
 11 14  1  1
 12 15  1  0
 14 15  2  0
 11 16  1  0
 13 16  1  0
 13 17  1  6
 16 18  1  6
 17 19  2  0
 18 20  2  0
 19 20  1  0
M  END
