mac-x0142-mac-x1494
     RDKit          3D

 24 28  0  0  0  0  0  0  0  0999 V2000
   -4.5350   13.9760    1.3190 O   0  0  0  0  0  0  0  0  0  0  0  0
   -3.7510   15.0580    1.2140 N   0  0  1  0  0  0  0  0  0  0  0  0
   -2.3600   14.7920    0.8170 C   0  0  0  0  0  0  0  0  0  0  0  0
   -4.0830   15.8790    0.0380 C   0  0  0  0  0  0  0  0  0  0  0  0
   -1.3690   14.6040    1.6520 N   0  0  0  0  0  0  0  0  0  0  0  0
   -2.2390   14.7760   -0.5570 C   0  0  0  0  0  0  0  0  0  0  0  0
   -3.5640   15.0380   -1.1560 C   0  0  2  0  0  0  0  0  0  0  0  0
   -0.2140   14.4070    1.0390 C   0  0  0  0  0  0  0  0  0  0  0  0
   -1.0070   14.5580   -1.1250 C   0  0  0  0  0  0  0  0  0  0  0  0
   -3.3680   15.7650   -2.4620 C   0  0  0  0  0  0  0  0  0  0  0  0
   -4.5980   13.9490   -1.3230 C   0  0  0  0  0  0  0  0  0  0  0  0
   -0.8540   14.5330   -2.5510 N   0  0  0  0  0  0  0  0  0  0  0  0
    0.0430   14.3700   -0.3020 N   0  0  0  0  0  0  0  0  0  0  0  0
   -3.2870   14.8420   -3.6400 C   0  0  2  0  0  0  0  0  0  0  0  0
   -5.1000   13.6090   -2.5330 C   0  0  0  0  0  0  0  0  0  0  0  0
   -2.6590   15.6220   -5.1250 Cl  0  0  0  0  0  0  0  0  0  0  0  0
   -1.4520   13.2760   -3.0880 C   0  0  0  0  0  0  0  0  0  0  0  0
    0.5080   14.8460   -3.0370 C   0  0  0  0  0  0  0  0  0  0  0  0
   -4.6650   14.2500   -3.8230 C   0  0  0  0  0  0  0  0  0  0  0  0
    0.9330   13.7250   -3.9700 C   0  0  0  0  0  0  0  0  0  0  0  0
   -1.3460   13.0580   -4.6100 C   0  0  0  0  0  0  0  0  0  0  0  0
    2.3970   13.3660   -4.1240 C   0  0  0  0  0  0  0  0  0  0  0  0
    1.4990   12.4800   -3.3230 C   0  0  0  0  0  0  0  0  0  0  0  0
    0.0050   13.5040   -5.1370 C   0  0  0  0  0  0  0  0  0  0  0  0
  2  1  1  6
  2  3  1  0
  2  4  1  0
  3  5  2  0
  3  6  1  0
  7  4  1  1
  6  7  1  0
  5  8  1  0
  6  9  2  0
  7 10  1  0
  7 11  1  0
  9 12  1  0
  8 13  2  0
  9 13  1  0
 10 14  1  0
 11 15  2  0
 14 16  1  6
 12 17  1  0
 12 18  1  0
 14 19  1  0
 15 19  1  0
 20 18  1  0
 17 21  1  0
 20 22  1  0
 20 23  1  0
 22 23  1  0
 20 24  1  0
 21 24  1  0
M  CHG  2   1  -1   2   1
M  END
