mac-x0341-mac-x0213
     RDKit          3D

 26 29  0  0  0  0  0  0  0  0999 V2000
   -7.0930   14.6320    2.3660 N   0  0  0  0  0  0  0  0  0  0  0  0
   -6.2600   14.7110    1.2970 C   0  0  0  0  0  0  0  0  0  0  0  0
   -4.9990   14.7520    1.5160 N   0  0  0  0  0  0  0  0  0  0  0  0
   -6.7900   14.7530    0.0370 N   0  0  0  0  0  0  0  0  0  0  0  0
   -6.0190   14.9780   -1.0900 C   0  0  0  0  0  0  0  0  0  0  0  0
   -4.1290   14.8150    0.4370 C   0  0  0  0  0  0  0  0  0  0  0  0
   -6.5090   15.1910   -2.1880 O   0  0  0  0  0  0  0  0  0  0  0  0
   -4.5600   14.9260   -0.8790 C   0  0  0  0  0  0  0  0  0  0  0  0
   -2.7790   14.7530    0.7160 C   0  0  0  0  0  0  0  0  0  0  0  0
   -1.8350   14.7980   -0.3020 C   0  0  0  0  0  0  0  0  0  0  0  0
   -3.6450   14.9780   -1.9350 C   0  0  0  0  0  0  0  0  0  0  0  0
   -0.3780   14.7290    0.0870 C   0  0  0  0  0  0  0  0  0  0  0  0
   -2.2760   14.9100   -1.6420 C   0  0  0  0  0  0  0  0  0  0  0  0
    0.4060   13.6920   -0.6950 C   0  0  0  0  0  0  0  0  0  0  0  0
    0.3430   13.9860   -2.0880 N   0  0  0  0  0  0  0  0  0  0  0  0
    0.1680   13.0820   -2.9510 C   0  0  0  0  0  0  0  0  0  0  0  0
    0.0380   11.7610   -2.7060 O   0  0  0  0  0  0  0  0  0  0  0  0
    0.0900   13.6140   -4.3420 C   0  0  0  0  0  0  0  0  0  0  0  0
   -1.3590   14.0650   -4.6170 C   0  0  0  0  0  0  0  0  0  0  0  0
    1.0270   14.8300   -4.4600 C   0  0  0  0  0  0  0  0  0  0  0  0
   -1.2220   15.5280   -4.9130 C   0  0  0  0  0  0  0  0  0  0  0  0
    0.1050   15.9530   -4.8260 C   0  0  0  0  0  0  0  0  0  0  0  0
   -2.2360   16.4160   -5.2470 C   0  0  0  0  0  0  0  0  0  0  0  0
    0.4460   17.2690   -5.0690 C   0  0  0  0  0  0  0  0  0  0  0  0
   -1.8880   17.7450   -5.4980 C   0  0  0  0  0  0  0  0  0  0  0  0
   -0.5610   18.1640   -5.4090 C   0  0  0  0  0  0  0  0  0  0  0  0
  1  2  1  0
  2  3  2  0
  2  4  1  0
  4  5  1  0
  3  6  1  0
  5  7  2  0
  5  8  1  0
  6  8  2  0
  6  9  1  0
  9 10  2  0
  8 11  1  0
 10 12  1  0
 10 13  1  0
 11 13  2  0
 12 14  1  0
 14 15  1  0
 15 16  2  3
 16 17  1  0
 16 18  1  0
 18 19  1  0
 18 20  1  0
 19 21  1  0
 20 22  1  0
 21 22  2  0
 21 23  1  0
 22 24  1  0
 23 25  2  0
 24 26  2  0
 25 26  1  0
M  END
