mac-x0123-mac-x0341
     RDKit          3D

 15 17  0  0  0  0  0  0  0  0999 V2000
   -3.4630   14.4340    1.6780 N   0  0  0  0  0  0  0  0  0  0  0  0
   -4.6610   14.9970    1.0830 C   0  0  2  0  0  0  0  0  0  0  0  0
   -5.8960   14.1060    1.3050 C   0  0  2  0  0  0  0  0  0  0  0  0
   -4.3040   15.2740   -0.3140 N   0  0  0  0  0  0  0  0  0  0  0  0
   -5.3660   15.3550   -1.3110 C   0  0  2  0  0  0  0  0  0  0  0  0
   -7.0860   14.4360    0.4260 C   0  0  1  0  0  0  0  0  0  0  0  0
   -6.7590   14.2320    2.5350 C   0  0  0  0  0  0  0  0  0  0  0  0
   -3.1670   14.5570   -0.9010 N   0  0  0  0  0  0  0  0  0  0  0  0
   -6.8610   14.8990   -0.9800 C   0  0  1  0  0  0  0  0  0  0  0  0
   -8.0570   13.3550    0.8140 C   0  0  0  0  0  0  0  0  0  0  0  0
   -8.0020   13.7780    2.2550 C   0  0  0  0  0  0  0  0  0  0  0  0
   -4.8590   14.5580   -2.4560 N   0  0  0  0  0  0  0  0  0  0  0  0
   -3.4180   14.6920   -2.3260 C   0  0  0  0  0  0  0  0  0  0  0  0
   -7.7730   16.0060   -1.0010 N   0  0  0  0  0  0  0  0  0  0  0  0
   -7.3150   14.0000   -1.9680 O   0  0  0  0  0  0  0  0  0  0  0  0
  2  1  1  6
  2  3  1  0
  2  4  1  0
  4  5  1  0
  3  6  1  0
  3  7  1  1
  4  8  1  0
  5  9  1  0
  6  9  1  0
  6 10  1  6
  7 11  2  0
 10 11  1  0
  5 12  1  6
  8 13  1  0
 12 13  1  0
  9 14  1  1
  9 15  1  0
M  END
