mac-x0436-diamond-x0626_0_A
     RDKit          3D

 29 31  0  0  0  0  0  0  0  0999 V2000
    1.2200   11.6750   -2.7580 O   0  0  0  0  0  0  0  0  0  0  0  0
    1.3430   12.9080   -3.2930 C   0  0  0  0  0  0  0  0  0  0  0  0
    1.3350   13.9120   -2.5190 N   0  0  0  0  0  0  0  0  0  0  0  0
    1.4670   12.9840   -4.7770 C   0  0  0  0  0  0  0  0  0  0  0  0
    0.1580   13.2370   -5.4710 C   0  0  0  0  0  0  0  0  0  0  0  0
    1.2430   13.7280   -1.1130 C   0  0  0  0  0  0  0  0  0  0  0  0
    0.6440   14.8820   -0.3450 C   0  0  0  0  0  0  0  0  0  0  0  0
   -0.5390   11.9390   -5.7540 C   0  0  0  0  0  0  0  0  0  0  0  0
   -0.2170   14.4320    0.8270 C   0  0  0  0  0  0  0  0  0  0  0  0
   -1.7630   11.5880   -4.9120 C   0  0  0  0  0  0  0  0  0  0  0  0
   -0.0670   11.1840   -6.6910 N   0  0  0  0  0  0  0  0  0  0  0  0
   -2.1180   12.3160   -3.9970 O   0  0  0  0  0  0  0  0  0  0  0  0
   -2.3950   10.4240   -5.2580 N   0  0  0  0  0  0  0  0  0  0  0  0
   -0.7270    9.9850   -6.9530 C   0  0  0  0  0  0  0  0  0  0  0  0
   -1.6260   14.5980    0.4500 C   0  0  0  0  0  0  0  0  0  0  0  0
   -1.8790    9.5930   -6.2570 C   0  0  0  0  0  0  0  0  0  0  0  0
   -0.2130    9.1560   -7.9470 C   0  0  0  0  0  0  0  0  0  0  0  0
   -2.6120   14.6560    1.4120 N   0  0  0  0  0  0  0  0  0  0  0  0
   -2.0400   14.7060   -0.8570 C   0  0  0  0  0  0  0  0  0  0  0  0
   -0.8450    7.9500   -8.2440 C   0  0  0  0  0  0  0  0  0  0  0  0
   -2.5170    8.3890   -6.5480 C   0  0  0  0  0  0  0  0  0  0  0  0
   -3.7680   14.8030    0.7750 C   0  0  0  0  0  0  0  0  0  0  0  0
   -3.7220   14.8910   -0.9200 S   0  0  0  0  0  0  0  0  0  0  0  0
   -4.9650   14.8770    1.4150 N   0  0  0  0  0  0  0  0  0  0  0  0
   -1.9920    7.5670   -7.5490 C   0  0  0  0  0  0  0  0  0  0  0  0
   -6.1550   14.7170    0.7500 C   0  0  0  0  0  0  0  0  0  0  0  0
   -6.3440   14.8220   -0.4570 O   0  0  0  0  0  0  0  0  0  0  0  0
   -7.2830   14.3820    1.7060 C   0  0  0  0  0  0  0  0  0  0  0  0
   -8.6420   14.6030    1.0650 C   0  0  0  0  0  0  0  0  0  0  0  0
  1  2  1  0
  2  3  2  3
  2  4  1  0
  4  5  1  0
  3  6  1  0
  6  7  1  0
  5  8  1  0
  7  9  1  0
  8 10  1  0
  8 11  2  0
 10 12  2  0
 10 13  1  0
 11 14  1  0
  9 15  1  0
 13 16  1  0
 14 16  2  0
 14 17  1  0
 15 18  1  0
 15 19  2  0
 17 20  2  0
 16 21  1  0
 18 22  2  0
 19 23  1  0
 22 23  1  0
 22 24  1  0
 20 25  1  0
 21 25  2  0
 24 26  1  0
 26 27  2  0
 26 28  1  0
 28 29  1  0
M  END
