mac-x0213-mac-x0397
     RDKit          3D

 25 28  0  0  0  0  0  0  0  0999 V2000
    0.0740   11.4270   -3.0680 O   0  0  0  0  0  0  0  0  0  0  0  0
    0.4290   12.7760   -2.8500 C   0  0  0  0  0  0  0  0  0  0  0  0
    1.7430   12.7680   -2.3550 O   0  0  0  0  0  0  0  0  0  0  0  0
   -0.4540   13.3820   -1.7730 C   0  0  0  0  0  0  0  0  0  0  0  0
    0.3100   13.6310   -4.1400 C   0  0  0  0  0  0  0  0  0  0  0  0
   -1.1180   14.7010   -2.1630 C   0  0  0  0  0  0  0  0  0  0  0  0
   -1.1590   13.9930   -4.5250 C   0  0  0  0  0  0  0  0  0  0  0  0
    1.1110   14.9680   -4.0780 C   0  0  0  0  0  0  0  0  0  0  0  0
   -1.1120   15.4600   -4.8380 C   0  0  0  0  0  0  0  0  0  0  0  0
    0.1520   16.0000   -4.5970 C   0  0  0  0  0  0  0  0  0  0  0  0
   -2.4910   14.8030   -1.6020 C   0  0  0  0  0  0  0  0  0  0  0  0
   -2.1470   16.2600   -5.3160 C   0  0  0  0  0  0  0  0  0  0  0  0
    0.4140   17.3400   -4.8320 C   0  0  0  0  0  0  0  0  0  0  0  0
   -3.6590   14.9380   -2.3680 C   0  0  0  0  0  0  0  0  0  0  0  0
   -2.5500   14.7480   -0.2270 C   0  0  0  0  0  0  0  0  0  0  0  0
   -1.8860   17.6090   -5.5570 C   0  0  0  0  0  0  0  0  0  0  0  0
   -0.6190   18.1420   -5.3190 C   0  0  0  0  0  0  0  0  0  0  0  0
   -3.7770   14.8170    0.3880 C   0  0  0  0  0  0  0  0  0  0  0  0
   -4.8910   15.0000   -1.7000 C   0  0  0  0  0  0  0  0  0  0  0  0
   -6.3930   15.1470   -2.4920 Cl  0  0  0  0  0  0  0  0  0  0  0  0
   -4.9680   14.9360   -0.3070 C   0  0  0  0  0  0  0  0  0  0  0  0
   -4.0820   14.7700    2.0440 S   0  0  0  0  0  0  0  0  0  0  0  0
   -5.7570   14.8930    1.7460 C   0  0  0  0  0  0  0  0  0  0  0  0
   -6.0970   14.9720    0.4920 N   0  0  0  0  0  0  0  0  0  0  0  0
   -6.6450   14.9080    2.7480 N   0  0  0  0  0  0  0  0  0  0  0  0
  2  1  1  0
  2  3  1  0
  2  4  1  0
  2  5  1  0
  4  6  1  0
  5  7  1  0
  5  8  1  0
  7  9  1  0
  8 10  1  0
  9 10  2  0
  6 11  1  0
  9 12  1  0
 10 13  1  0
 11 14  2  0
 11 15  1  0
 12 16  2  0
 13 17  2  0
 16 17  1  0
 15 18  2  0
 14 19  1  0
 19 20  1  0
 18 21  1  0
 19 21  2  0
 18 22  1  0
 22 23  1  0
 21 24  1  0
 23 24  2  0
 23 25  1  0
M  END
