mac-x0277-mac-x0188
     RDKit          3D

 24 26  0  0  0  0  0  0  0  0999 V2000
   -0.9250   18.7560   -5.9810 Cl  0  0  0  0  0  0  0  0  0  0  0  0
   -0.4710   17.2870   -5.2150 C   0  0  0  0  0  0  0  0  0  0  0  0
   -1.3740   16.2580   -5.0860 C   0  0  0  0  0  0  0  0  0  0  0  0
    0.8300   17.1350   -4.7170 C   0  0  0  0  0  0  0  0  0  0  0  0
   -2.9930   16.2850   -5.6600 Cl  0  0  0  0  0  0  0  0  0  0  0  0
   -0.9910   15.1200   -4.4670 C   0  0  0  0  0  0  0  0  0  0  0  0
    1.2170   15.9380   -4.0800 C   0  0  0  0  0  0  0  0  0  0  0  0
    0.2680   14.9270   -3.9590 C   0  0  0  0  0  0  0  0  0  0  0  0
    0.3400   13.5710   -3.3280 C   0  0  2  0  0  0  0  0  0  0  0  0
    1.2410   13.1490   -2.1820 C   0  0  0  0  0  0  0  0  0  0  0  0
   -0.3690   12.5380   -4.1520 C   0  0  2  0  0  0  0  0  0  0  0  0
    0.7620   11.9340   -1.6430 O   0  0  0  0  0  0  0  0  0  0  0  0
    2.5530   12.9220   -2.5630 O   0  0  0  0  0  0  0  0  0  0  0  0
    1.2610   14.1560   -1.1840 O   0  0  0  0  0  0  0  0  0  0  0  0
   -0.9580   13.0880   -5.3410 O   0  0  0  0  0  0  0  0  0  0  0  0
   -1.5390   12.0150   -3.3850 C   0  0  0  0  0  0  0  0  0  0  0  0
   -2.2510   13.6740   -4.9470 N   0  0  0  0  0  0  0  0  0  0  0  0
   -2.6420   13.0420   -3.6710 C   0  0  2  0  0  0  0  0  0  0  0  0
   -3.1530   13.9750   -2.5600 C   0  0  0  0  0  0  0  0  0  0  0  0
   -4.3110   14.7520   -2.7470 C   0  0  0  0  0  0  0  0  0  0  0  0
   -2.5080   14.0840   -1.3070 C   0  0  0  0  0  0  0  0  0  0  0  0
   -4.8040   15.5820   -1.7380 C   0  0  0  0  0  0  0  0  0  0  0  0
   -3.0050   14.9200   -0.2970 C   0  0  0  0  0  0  0  0  0  0  0  0
   -4.1570   15.6670   -0.5170 C   0  0  0  0  0  0  0  0  0  0  0  0
  1  2  1  0
  2  3  2  0
  2  4  1  0
  3  5  1  0
  3  6  1  0
  4  7  2  0
  6  8  2  0
  7  8  1  0
  8  9  1  0
  9 10  1  6
  9 11  1  0
 10 12  1  0
 10 13  1  0
 10 14  1  0
 11 15  1  0
 11 16  1  1
 15 17  1  0
 16 18  1  0
 17 18  1  0
 18 19  1  1
 19 20  2  0
 19 21  1  0
 20 22  1  0
 21 23  2  0
 22 24  2  0
 23 24  1  0
M  END
