mac-x0568-mac-x0302
     RDKit          3D

 15 15  0  0  0  0  0  0  0  0999 V2000
   -8.3210   14.3250    1.5790 C   0  0  0  0  0  0  0  0  0  0  0  0
   -7.0390   14.5500    0.8380 C   0  0  0  0  0  0  0  0  0  0  0  0
   -5.8280   14.6080    1.5210 C   0  0  0  0  0  0  0  0  0  0  0  0
   -7.1230   14.6940   -0.4940 N   0  0  0  0  0  0  0  0  0  0  0  0
   -5.9730   14.9030   -1.1700 C   0  0  0  0  0  0  0  0  0  0  0  0
   -4.6460   14.8220    0.8040 C   0  0  0  0  0  0  0  0  0  0  0  0
   -4.7090   14.9770   -0.5890 C   0  0  0  0  0  0  0  0  0  0  0  0
   -3.5280   15.2270   -1.5150 C   0  0  2  0  0  0  0  0  0  0  0  0
   -4.0120   15.0030   -2.9160 N   0  0  0  0  0  0  0  0  0  0  0  0
   -2.1990   14.5710   -1.2560 N   0  0  0  0  0  0  0  0  0  0  0  0
   -1.4450   14.3910   -2.5570 C   0  0  0  0  0  0  0  0  0  0  0  0
   -3.3750   15.6240   -3.7730 O   0  0  0  0  0  0  0  0  0  0  0  0
    0.0280   13.9810   -2.3640 C   0  0  0  0  0  0  0  0  0  0  0  0
    0.7550   14.0620   -3.5130 O   0  0  0  0  0  0  0  0  0  0  0  0
    0.5130   13.6140   -1.3170 O   0  0  0  0  0  0  0  0  0  0  0  0
  1  2  1  0
  2  3  2  0
  2  4  1  0
  4  5  2  0
  3  6  1  0
  5  7  1  0
  6  7  2  0
  7  8  1  0
  8  9  1  6
  8 10  1  0
 10 11  1  0
  9 12  2  0
 11 13  1  0
 13 14  1  0
 13 15  2  0
M  END
