mac-x0361-mac-x0375
     RDKit          3D

 23 24  0  0  0  0  0  0  0  0999 V2000
   -6.0260   14.7680    1.5930 N   0  0  0  0  0  0  0  0  0  0  0  0
   -6.3710   14.7500    0.2670 C   0  0  0  0  0  0  0  0  0  0  0  0
   -7.5490   14.6530   -0.0610 O   0  0  0  0  0  0  0  0  0  0  0  0
   -5.2760   14.8580   -0.7440 C   0  0  0  0  0  0  0  0  0  0  0  0
   -3.9460   14.8050   -0.3140 C   0  0  0  0  0  0  0  0  0  0  0  0
   -5.5380   15.0070   -2.1060 C   0  0  0  0  0  0  0  0  0  0  0  0
   -2.8950   14.9000   -1.2430 C   0  0  0  0  0  0  0  0  0  0  0  0
   -4.4830   15.0990   -3.0290 C   0  0  0  0  0  0  0  0  0  0  0  0
   -3.1570   15.0500   -2.6150 C   0  0  0  0  0  0  0  0  0  0  0  0
   -2.0650   15.1390   -3.4600 O   0  0  0  0  0  0  0  0  0  0  0  0
   -0.7820   14.6040   -3.0780 C   0  0  0  0  0  0  0  0  0  0  0  0
   -0.0250   14.0760   -4.3220 C   0  0  0  0  0  0  0  0  0  0  0  0
   -0.0320   12.5390   -4.3670 C   0  0  2  0  0  0  0  0  0  0  0  0
    0.8670   11.9890   -3.2770 C   0  0  0  0  0  0  0  0  0  0  0  0
    0.2810   12.0120   -5.6670 O   0  0  0  0  0  0  0  0  0  0  0  0
    1.8020   12.8350   -2.8080 O   0  0  0  0  0  0  0  0  0  0  0  0
    0.7790   10.8670   -2.8120 O   0  0  0  0  0  0  0  0  0  0  0  0
   -0.6470   11.0450   -5.9460 C   0  0  0  0  0  0  0  0  0  0  0  0
   -0.3210    9.9640   -6.7670 C   0  0  0  0  0  0  0  0  0  0  0  0
   -1.9210   11.1510   -5.3960 C   0  0  0  0  0  0  0  0  0  0  0  0
   -1.2840    8.9880   -7.0250 C   0  0  0  0  0  0  0  0  0  0  0  0
   -2.8770   10.1790   -5.6560 C   0  0  0  0  0  0  0  0  0  0  0  0
   -2.5620    9.0950   -6.4690 C   0  0  0  0  0  0  0  0  0  0  0  0
  1  2  1  0
  2  3  2  0
  2  4  1  0
  4  5  2  0
  4  6  1  0
  5  7  1  0
  6  8  2  0
  7  9  2  0
  8  9  1  0
  9 10  1  0
 10 11  1  0
 11 12  1  0
 13 12  1  6
 13 14  1  0
 13 15  1  0
 14 16  1  0
 14 17  2  0
 15 18  1  0
 18 19  2  0
 18 20  1  0
 19 21  1  0
 20 22  2  0
 21 23  2  0
 22 23  1  0
M  END
