mac-x0212-mac-x0357
     RDKit          3D

 24 25  0  0  0  0  0  0  0  0999 V2000
   -6.5860   12.7290    1.4140 C   0  0  0  0  0  0  0  0  0  0  0  0
   -7.0390   14.4170    1.0720 S   0  0  0  0  0  0  0  0  0  0  0  0
   -7.8960   14.8860    2.1390 O   0  0  0  0  0  0  0  0  0  0  0  0
   -7.4400   14.5280   -0.3140 O   0  0  0  0  0  0  0  0  0  0  0  0
   -5.5390   15.1580    1.3270 N   0  0  0  0  0  0  0  0  0  0  0  0
   -4.6300   15.0340    0.2440 C   0  0  0  0  0  0  0  0  0  0  0  0
   -3.4240   14.4320    0.5290 C   0  0  0  0  0  0  0  0  0  0  0  0
   -4.9330   15.4850   -1.0590 C   0  0  0  0  0  0  0  0  0  0  0  0
   -2.5020   14.2580   -0.4730 C   0  0  0  0  0  0  0  0  0  0  0  0
   -3.9920   15.3060   -2.0840 C   0  0  0  0  0  0  0  0  0  0  0  0
   -2.7850   14.6850   -1.7680 C   0  0  0  0  0  0  0  0  0  0  0  0
   -1.7060   14.4050   -2.7010 C   0  0  0  0  0  0  0  0  0  0  0  0
   -0.6960   13.8510   -2.1620 N   0  0  0  0  0  0  0  0  0  0  0  0
   -1.8970   14.7420   -3.9990 O   0  0  0  0  0  0  0  0  0  0  0  0
    0.4800   13.4570   -2.8680 C   0  0  1  0  0  0  0  0  0  0  0  0
    1.3860   12.7320   -2.0400 O   0  0  0  0  0  0  0  0  0  0  0  0
    0.1480   12.6520   -4.1080 C   0  0  0  0  0  0  0  0  0  0  0  0
    1.1180   12.4590   -5.0810 C   0  0  0  0  0  0  0  0  0  0  0  0
   -1.1380   12.1000   -4.2850 C   0  0  0  0  0  0  0  0  0  0  0  0
    2.4930   13.0340   -4.8830 C   0  0  0  0  0  0  0  0  0  0  0  0
   -1.4490   11.3660   -5.4310 C   0  0  0  0  0  0  0  0  0  0  0  0
    0.7840   11.7270   -6.2230 C   0  0  0  0  0  0  0  0  0  0  0  0
    1.7220   11.5420   -7.1750 O   0  0  0  0  0  0  0  0  0  0  0  0
   -0.4820   11.1810   -6.4080 C   0  0  0  0  0  0  0  0  0  0  0  0
  1  2  1  0
  2  3  2  0
  2  4  2  0
  2  5  1  0
  5  6  1  0
  6  7  2  0
  6  8  1  0
  7  9  1  0
  8 10  2  0
  9 11  2  0
 10 11  1  0
 11 12  1  0
 12 13  2  3
 12 14  1  0
 13 15  1  0
 15 16  1  1
 15 17  1  0
 17 18  2  0
 17 19  1  0
 18 20  1  0
 19 21  2  0
 18 22  1  0
 22 23  1  0
 21 24  1  0
 22 24  2  0
M  END
