mac-x0436-diamond-x0711_0_A
     RDKit          3D

 27 31  0  0  0  0  0  0  0  0999 V2000
    2.4780   14.2400   -1.9110 O   0  0  0  0  0  0  0  0  0  0  0  0
    1.4700   13.7050   -2.7350 C   0  0  0  0  0  0  0  0  0  0  0  0
    0.2310   13.8590   -2.5700 N   0  0  0  0  0  0  0  0  0  0  0  0
    1.7020   12.8760   -3.9080 C   0  0  0  0  0  0  0  0  0  0  0  0
    0.3350   12.4620   -4.2790 C   0  0  0  0  0  0  0  0  0  0  0  0
   -0.9090   13.2710   -3.3160 S   0  0  0  0  0  0  0  0  0  0  0  0
   -1.9700   12.4430   -4.0510 N   0  0  0  0  0  0  0  0  0  0  0  0
   -1.1950   14.4150   -2.0770 N   0  0  0  0  0  0  0  0  0  0  0  0
   -0.3350   11.5670   -5.1870 C   0  0  0  0  0  0  0  0  0  0  0  0
   -1.7450   11.5860   -4.9170 C   0  0  0  0  0  0  0  0  0  0  0  0
    0.1290   10.7950   -6.1260 N   0  0  0  0  0  0  0  0  0  0  0  0
   -2.5170   14.5670   -1.5710 C   0  0  0  0  0  0  0  0  0  0  0  0
   -2.6390   10.7030   -5.6200 N   0  0  0  0  0  0  0  0  0  0  0  0
   -0.6890    9.8940   -6.8220 C   0  0  0  0  0  0  0  0  0  0  0  0
   -3.6550   14.9700   -2.2370 C   0  0  0  0  0  0  0  0  0  0  0  0
   -2.7280   14.2560   -0.2180 C   0  0  0  0  0  0  0  0  0  0  0  0
   -2.0340    9.8400   -6.5600 C   0  0  0  0  0  0  0  0  0  0  0  0
   -0.1260    9.0270   -7.7700 C   0  0  0  0  0  0  0  0  0  0  0  0
   -4.9050   15.0510   -1.6410 C   0  0  0  0  0  0  0  0  0  0  0  0
   -3.9490   14.3280    0.3870 C   0  0  0  0  0  0  0  0  0  0  0  0
   -0.8870    8.1120   -8.4450 C   0  0  0  0  0  0  0  0  0  0  0  0
   -2.8220    8.9280   -7.2230 C   0  0  0  0  0  0  0  0  0  0  0  0
   -5.0790   14.7210   -0.3130 C   0  0  0  0  0  0  0  0  0  0  0  0
   -6.3650   14.7550    0.3900 C   0  0  0  0  0  0  0  0  0  0  0  0
   -2.2420    8.0870   -8.1430 C   0  0  0  0  0  0  0  0  0  0  0  0
   -6.4810   14.7030    1.8010 N   0  0  0  0  0  0  0  0  0  0  0  0
   -7.4170   14.8140   -0.3410 O   0  0  0  0  0  0  0  0  0  0  0  0
  1  2  1  0
  2  3  2  0
  2  4  1  0
  4  5  1  0
  3  6  1  0
  5  6  2  0
  6  7  1  0
  6  8  1  0
  5  9  1  0
  7 10  2  0
  9 10  1  0
  9 11  2  0
  8 12  1  0
 10 13  1  0
 11 14  1  0
 12 15  2  0
 12 16  1  0
 13 17  1  0
 14 17  2  0
 14 18  1  0
 15 19  1  0
 16 20  2  0
 18 21  2  0
 17 22  1  0
 19 23  2  0
 20 23  1  0
 23 24  1  0
 21 25  1  0
 22 25  2  0
 24 26  1  0
 24 27  2  0
M  END
