mac-x0277-diamond-x0962_0_A
     RDKit          3D

 21 22  0  0  0  0  0  0  0  0999 V2000
   -1.2240   18.4840   -5.2060 Cl  0  0  0  0  0  0  0  0  0  0  0  0
   -0.5360   16.9230   -4.9560 C   0  0  0  0  0  0  0  0  0  0  0  0
   -1.2920   15.7650   -5.1030 C   0  0  0  0  0  0  0  0  0  0  0  0
    0.8110   16.8440   -4.5950 C   0  0  0  0  0  0  0  0  0  0  0  0
   -2.7540   15.7760   -5.4780 C   0  0  0  0  0  0  0  0  0  0  0  0
   -0.6640   14.5210   -4.8890 C   0  0  0  0  0  0  0  0  0  0  0  0
    1.4160   15.6030   -4.3800 C   0  0  0  0  0  0  0  0  0  0  0  0
   -3.4790   14.5470   -4.9470 C   0  0  0  0  0  0  0  0  0  0  0  0
    0.6820   14.4230   -4.5260 C   0  0  0  0  0  0  0  0  0  0  0  0
    1.3050   13.0620   -4.3000 C   0  0  0  0  0  0  0  0  0  0  0  0
   -2.6860   13.8080   -3.8700 C   0  0  0  0  0  0  0  0  0  0  0  0
    0.9690   12.4830   -2.9420 C   0  0  0  0  0  0  0  0  0  0  0  0
   -2.9450   14.3710   -2.5550 C   0  0  0  0  0  0  0  0  0  0  0  0
    0.4650   11.2330   -3.0170 O   0  0  0  0  0  0  0  0  0  0  0  0
    1.1020   13.0030   -1.8500 O   0  0  0  0  0  0  0  0  0  0  0  0
   -3.3130   14.7210   -1.4920 C   0  0  0  0  0  0  0  0  0  0  0  0
   -3.9670   14.9500   -0.2840 C   0  0  0  0  0  0  0  0  0  0  0  0
   -3.4200   15.3560    0.8950 N   0  0  0  0  0  0  0  0  0  0  0  0
   -5.3020   14.8020   -0.0460 C   0  0  0  0  0  0  0  0  0  0  0  0
   -4.4430   15.4370    1.7900 C   0  0  0  0  0  0  0  0  0  0  0  0
   -5.5940   15.1000    1.2480 N   0  0  0  0  0  0  0  0  0  0  0  0
  1  2  1  0
  2  3  2  0
  2  4  1  0
  3  5  1  0
  3  6  1  0
  4  7  2  0
  5  8  1  0
  6  9  2  0
  7  9  1  0
  9 10  1  0
  8 11  1  0
 10 12  1  0
 11 13  1  0
 12 14  1  0
 12 15  2  0
 13 16  3  0
 16 17  1  0
 17 18  1  0
 17 19  2  0
 18 20  1  0
 19 21  1  0
 20 21  2  0
M  END
