mac-x0142-mac-x0567
     RDKit          3D

 17 20  0  0  0  0  0  0  0  0999 V2000
    2.3160   13.2710   -4.3430 C   0  0  0  0  0  0  0  0  0  0  0  0
    1.4840   12.4990   -3.3630 C   0  0  0  0  0  0  0  0  0  0  0  0
    0.8700   13.6570   -4.1210 C   0  0  0  0  0  0  0  0  0  0  0  0
   -0.1230   13.3320   -5.2160 C   0  0  0  0  0  0  0  0  0  0  0  0
    0.5080   14.8770   -3.3060 C   0  0  0  0  0  0  0  0  0  0  0  0
   -1.5390   13.2060   -4.6630 C   0  0  0  0  0  0  0  0  0  0  0  0
   -0.8380   14.6610   -2.7520 N   0  0  0  0  0  0  0  0  0  0  0  0
   -1.8970   14.3800   -3.7450 C   0  0  0  0  0  0  0  0  0  0  0  0
   -1.1150   14.7020   -1.3730 C   0  0  0  0  0  0  0  0  0  0  0  0
   -0.1230   14.5280   -0.4240 N   0  0  0  0  0  0  0  0  0  0  0  0
   -2.3410   14.9290   -0.8530 C   0  0  0  0  0  0  0  0  0  0  0  0
   -0.3890   14.5250    0.9270 C   0  0  0  0  0  0  0  0  0  0  0  0
   -2.5360   14.9660    0.6190 C   0  0  0  0  0  0  0  0  0  0  0  0
   -3.6520   15.1960   -1.3560 C   0  0  0  0  0  0  0  0  0  0  0  0
   -1.5270   14.7170    1.4980 N   0  0  0  0  0  0  0  0  0  0  0  0
   -3.7590   15.2650    0.9450 N   0  0  0  0  0  0  0  0  0  0  0  0
   -4.4120   15.3950   -0.2690 C   0  0  0  0  0  0  0  0  0  0  0  0
  1  2  1  0
  3  1  1  0
  2  3  1  0
  3  4  1  0
  3  5  1  0
  4  6  1  0
  5  7  1  0
  6  8  1  0
  7  8  1  0
  7  9  1  0
  9 10  1  0
  9 11  2  0
 10 12  1  0
 11 13  1  0
 11 14  1  0
 12 15  2  0
 13 15  1  0
 13 16  2  0
 14 17  2  0
 16 17  1  0
M  END
