mac-x0341-diamond-x0900_0_A
     RDKit          3D

 12 13  0  0  0  0  0  0  0  0999 V2000
   -6.8540   14.7260    2.3280 N   0  0  0  0  0  0  0  0  0  0  0  0
   -6.0970   14.7720    1.2070 C   0  0  0  0  0  0  0  0  0  0  0  0
   -4.8160   14.8390    1.3380 N   0  0  0  0  0  0  0  0  0  0  0  0
   -6.7100   14.7450   -0.0100 N   0  0  0  0  0  0  0  0  0  0  0  0
   -6.0240   15.0040   -1.1750 C   0  0  0  0  0  0  0  0  0  0  0  0
   -4.0170   14.8480    0.2000 C   0  0  0  0  0  0  0  0  0  0  0  0
   -6.5900   15.2660   -2.2230 O   0  0  0  0  0  0  0  0  0  0  0  0
   -4.5580   14.9290   -1.0750 C   0  0  0  0  0  0  0  0  0  0  0  0
   -2.6340   14.7630    0.3510 C   0  0  0  0  0  0  0  0  0  0  0  0
   -1.8080   14.7570   -0.7740 C   0  0  0  0  0  0  0  0  0  0  0  0
   -3.7460   14.9300   -2.2080 C   0  0  0  0  0  0  0  0  0  0  0  0
   -2.3640   14.8420   -2.0530 C   0  0  0  0  0  0  0  0  0  0  0  0
  1  2  1  0
  2  3  2  0
  2  4  1  0
  4  5  1  0
  3  6  1  0
  5  7  2  0
  5  8  1  0
  6  8  2  0
  6  9  1  0
  9 10  2  0
  8 11  1  0
 10 12  1  0
 11 12  2  0
M  END
