mac-x0228-mac-x0453
     RDKit          3D

 15 16  0  0  0  0  0  0  0  0999 V2000
   -1.3620   14.5870   -1.2990 O   0  0  0  0  0  0  0  0  0  0  0  0
   -2.2470   14.6290   -2.3090 C   0  0  0  0  0  0  0  0  0  0  0  0
   -1.8560   14.5690   -3.4630 O   0  0  0  0  0  0  0  0  0  0  0  0
   -3.6760   14.7610   -1.8510 C   0  0  0  0  0  0  0  0  0  0  0  0
   -4.1650   14.5670   -0.5140 C   0  0  0  0  0  0  0  0  0  0  0  0
   -4.6090   15.1030   -2.8510 C   0  0  0  0  0  0  0  0  0  0  0  0
   -3.4260   14.1960    0.7240 C   0  0  0  0  0  0  0  0  0  0  0  0
   -5.5150   14.7310   -0.2860 C   0  0  0  0  0  0  0  0  0  0  0  0
   -5.9690   15.2560   -2.5620 C   0  0  0  0  0  0  0  0  0  0  0  0
   -4.3880   13.7100    1.8320 C   0  0  0  0  0  0  0  0  0  0  0  0
   -6.3890   15.0690   -1.2780 C   0  0  0  0  0  0  0  0  0  0  0  0
   -6.2640   14.5820    0.9890 C   0  0  0  0  0  0  0  0  0  0  0  0
   -5.5880   12.9650    1.4320 N   0  0  0  0  0  0  0  0  0  0  0  0
   -7.6860   15.1910   -0.8610 O   0  0  0  0  0  0  0  0  0  0  0  0
   -7.6880   14.6350    0.4670 C   0  0  0  0  0  0  0  0  0  0  0  0
  1  2  1  0
  2  3  2  0
  2  4  1  0
  4  5  2  0
  4  6  1  0
  5  7  1  0
  5  8  1  0
  6  9  2  0
  7 10  1  0
  8 11  2  0
  9 11  1  0
  8 12  1  0
 10 13  1  0
 11 14  1  0
 12 15  1  0
 14 15  1  0
M  END
