mac-x0415-mac-x0527
     RDKit          3D

 31 34  0  0  0  0  0  0  0  0999 V2000
    0.7840   11.2880   -3.2260 O   0  0  0  0  0  0  0  0  0  0  0  0
    1.3430   12.5120   -3.3220 C   0  0  0  0  0  0  0  0  0  0  0  0
    1.8570   13.0070   -2.3360 O   0  0  0  0  0  0  0  0  0  0  0  0
    1.2130   13.1000   -4.7150 C   0  0  0  0  0  0  0  0  0  0  0  0
    0.7270   14.5120   -4.7050 C   0  0  0  0  0  0  0  0  0  0  0  0
    1.6510   15.6200   -4.6340 C   0  0  0  0  0  0  0  0  0  0  0  0
   -0.4370   15.1980   -4.7460 C   0  0  0  0  0  0  0  0  0  0  0  0
    1.2200   16.8430   -4.6670 N   0  0  0  0  0  0  0  0  0  0  0  0
   -0.2020   16.6680   -4.6750 C   0  0  1  0  0  0  0  0  0  0  0  0
   -1.8340   14.8300   -4.8100 C   0  0  0  0  0  0  0  0  0  0  0  0
   -1.0550   17.4770   -5.5820 C   0  0  0  0  0  0  0  0  0  0  0  0
   -2.7320   15.7090   -5.3320 C   0  0  0  0  0  0  0  0  0  0  0  0
   -4.0960   15.5230   -5.4240 O   0  0  0  0  0  0  0  0  0  0  0  0
   -2.2810   17.0010   -5.8740 C   0  0  0  0  0  0  0  0  0  0  0  0
   -4.6910   14.7090   -4.3850 C   0  0  0  0  0  0  0  0  0  0  0  0
   -3.7030   13.8230   -3.8300 N   0  0  0  0  0  0  0  0  0  0  0  0
   -3.3970   13.6590   -2.5840 C   0  0  0  0  0  0  0  0  0  0  0  0
   -2.3970   12.7600   -2.3300 N   0  0  0  0  0  0  0  0  0  0  0  0
   -3.9500   14.2770   -1.3310 C   0  0  0  0  0  0  0  0  0  0  0  0
   -1.1230   12.8670   -3.0030 C   0  0  0  0  0  0  0  0  0  0  0  0
   -5.2940   14.5750   -1.2120 C   0  0  0  0  0  0  0  0  0  0  0  0
   -3.0580   14.4990   -0.3250 N   0  0  0  0  0  0  0  0  0  0  0  0
   -1.1120   11.9800   -4.2370 C   0  0  0  0  0  0  0  0  0  0  0  0
   -5.8140   15.0980   -0.0760 N   0  0  0  0  0  0  0  0  0  0  0  0
   -3.5790   15.0190    0.8020 C   0  0  0  0  0  0  0  0  0  0  0  0
   -1.3380   10.6080   -4.0810 C   0  0  0  0  0  0  0  0  0  0  0  0
   -0.8780   12.4790   -5.5350 C   0  0  0  0  0  0  0  0  0  0  0  0
   -4.9200   15.3070    0.9280 C   0  0  0  0  0  0  0  0  0  0  0  0
   -1.3260    9.7570   -5.1860 C   0  0  0  0  0  0  0  0  0  0  0  0
   -0.8650   11.6250   -6.6390 C   0  0  0  0  0  0  0  0  0  0  0  0
   -1.0890   10.2630   -6.4590 C   0  0  0  0  0  0  0  0  0  0  0  0
  1  2  1  0
  2  3  2  0
  2  4  1  0
  4  5  1  0
  5  6  1  0
  5  7  2  0
  6  8  2  0
  7  9  1  0
  8  9  1  0
  7 10  1  0
  9 11  1  6
 10 12  2  0
 12 13  1  0
 11 14  2  0
 12 14  1  0
 13 15  1  0
 15 16  1  0
 16 17  2  3
 17 18  1  0
 17 19  1  0
 18 20  1  0
 19 21  2  0
 19 22  1  0
 20 23  1  0
 21 24  1  0
 22 25  2  0
 23 26  2  0
 23 27  1  0
 24 28  2  0
 25 28  1  0
 26 29  1  0
 27 30  2  0
 29 31  2  0
 30 31  1  0
M  END
