mac-x0306-mac-x0358
     RDKit          3D

 23 25  0  0  0  0  0  0  0  0999 V2000
    1.8740   12.7290   -2.4890 O   0  0  0  0  0  0  0  0  0  0  0  0
    1.1830   11.9930   -3.3940 C   0  0  0  0  0  0  0  0  0  0  0  0
    0.6010   10.9630   -3.0690 O   0  0  0  0  0  0  0  0  0  0  0  0
    1.1500   12.5570   -4.8060 C   0  0  0  0  0  0  0  0  0  0  0  0
   -0.1060   13.3150   -4.7790 C   0  0  0  0  0  0  0  0  0  0  0  0
   -1.3230   12.6390   -4.8500 C   0  0  0  0  0  0  0  0  0  0  0  0
   -0.0510   14.6950   -4.6440 C   0  0  0  0  0  0  0  0  0  0  0  0
   -1.3170   11.2750   -5.0020 O   0  0  0  0  0  0  0  0  0  0  0  0
   -2.5040   13.3340   -4.7460 C   0  0  0  0  0  0  0  0  0  0  0  0
   -1.2180   15.3930   -4.5380 C   0  0  0  0  0  0  0  0  0  0  0  0
   -2.4210   14.7180   -4.5670 C   0  0  0  0  0  0  0  0  0  0  0  0
   -3.5960   15.5390   -4.3680 C   0  0  0  0  0  0  0  0  0  0  0  0
   -4.1380   15.2100   -3.0180 N   0  0  0  0  0  0  0  0  0  0  0  0
   -5.4650   14.9180   -3.0100 C   0  0  0  0  0  0  0  0  0  0  0  0
   -3.4500   15.0220   -1.7860 C   0  0  0  0  0  0  0  0  0  0  0  0
   -6.1990   15.0000   -1.9310 C   0  0  0  0  0  0  0  0  0  0  0  0
   -4.1120   15.0970   -0.5910 C   0  0  0  0  0  0  0  0  0  0  0  0
   -5.6100   15.4130   -0.6200 C   0  0  0  0  0  0  0  0  0  0  0  0
   -6.5840   14.8860    0.4140 C   0  0  0  0  0  0  0  0  0  0  0  0
   -6.3270   14.5820    1.7400 N   0  0  0  0  0  0  0  0  0  0  0  0
   -7.8600   14.6650    0.1380 N   0  0  0  0  0  0  0  0  0  0  0  0
   -8.4300   14.2230    1.2910 C   0  0  0  0  0  0  0  0  0  0  0  0
   -7.5020   14.1630    2.2960 C   0  0  0  0  0  0  0  0  0  0  0  0
  1  2  1  0
  2  3  2  0
  2  4  1  0
  4  5  1  0
  5  6  2  0
  5  7  1  0
  6  8  1  0
  6  9  1  0
  7 10  2  0
  9 11  2  0
 10 11  1  0
 11 12  1  0
 12 13  1  0
 13 14  1  0
 13 15  1  0
 14 16  2  0
 15 17  2  0
 16 18  1  0
 17 18  1  0
 18 19  1  0
 19 20  1  0
 19 21  2  0
 21 22  1  0
 20 23  1  0
 22 23  2  0
M  END
