mac-x0358-mac-x0546
     RDKit          3D

 22 24  0  0  0  0  0  0  0  0999 V2000
    1.8910   12.6920   -2.4340 O   0  0  0  0  0  0  0  0  0  0  0  0
    0.8070   12.0820   -2.9640 C   0  0  0  0  0  0  0  0  0  0  0  0
    0.6670   10.8790   -2.8570 O   0  0  0  0  0  0  0  0  0  0  0  0
   -0.1600   13.0670   -3.5940 C   0  0  2  0  0  0  0  0  0  0  0  0
   -1.0900   12.7570   -4.7330 C   0  0  0  0  0  0  0  0  0  0  0  0
    0.3600   14.3730   -3.9990 C   0  0  0  0  0  0  0  0  0  0  0  0
   -1.3870   11.4910   -5.2310 C   0  0  0  0  0  0  0  0  0  0  0  0
   -1.7140   13.8450   -5.3390 C   0  0  0  0  0  0  0  0  0  0  0  0
   -0.5560   15.5320   -3.9710 C   0  0  2  0  0  0  0  0  0  0  0  0
    1.5570   14.7440   -4.4270 C   0  0  0  0  0  0  0  0  0  0  0  0
   -0.8350   10.3530   -4.7250 O   0  0  0  0  0  0  0  0  0  0  0  0
   -2.2850   11.3400   -6.2870 C   0  0  0  0  0  0  0  0  0  0  0  0
   -2.6030   13.7030   -6.3860 C   0  0  0  0  0  0  0  0  0  0  0  0
   -1.8260   15.5430   -4.7380 C   0  0  0  0  0  0  0  0  0  0  0  0
    0.3980   16.5010   -4.5900 C   0  0  0  0  0  0  0  0  0  0  0  0
    1.5880   16.0630   -4.7800 N   0  0  0  0  0  0  0  0  0  0  0  0
   -2.8940   12.4470   -6.8610 C   0  0  0  0  0  0  0  0  0  0  0  0
   -2.2160   16.6550   -5.3780 C   0  0  0  0  0  0  0  0  0  0  0  0
   -0.0980   17.8410   -4.9170 C   0  0  0  0  0  0  0  0  0  0  0  0
   -3.3560   16.7850   -6.1230 O   0  0  0  0  0  0  0  0  0  0  0  0
   -1.3930   17.8600   -5.3060 C   0  0  0  0  0  0  0  0  0  0  0  0
   -4.2160   15.6400   -6.2020 C   0  0  0  0  0  0  0  0  0  0  0  0
  1  2  1  0
  2  3  2  0
  4  2  1  6
  4  5  1  0
  4  6  1  0
  5  7  2  0
  5  8  1  0
  6  9  1  0
  6 10  2  0
  7 11  1  0
  7 12  1  0
  8 13  2  0
  9 14  1  6
  9 15  1  0
 10 16  1  0
 15 16  2  0
 12 17  2  0
 13 17  1  0
 14 18  2  0
 15 19  1  0
 18 20  1  0
 18 21  1  0
 19 21  2  0
 20 22  1  0
M  END
