mac-x0180-mac-x0115
     RDKit          3D

 24 25  0  0  0  0  0  0  0  0999 V2000
   -7.7210   14.4840    1.2050 C   0  0  0  0  0  0  0  0  0  0  0  0
   -6.5810   14.6800    0.2380 C   0  0  0  0  0  0  0  0  0  0  0  0
   -6.7850   14.8600   -0.9540 O   0  0  0  0  0  0  0  0  0  0  0  0
   -5.3300   14.6380    0.8360 N   0  0  0  0  0  0  0  0  0  0  0  0
   -4.0580   14.4960    0.1110 C   0  0  2  0  0  0  0  0  0  0  0  0
   -3.0540   15.5570    0.5580 C   0  0  0  0  0  0  0  0  0  0  0  0
   -4.2070   14.5280   -1.3830 C   0  0  0  0  0  0  0  0  0  0  0  0
   -1.7050   15.4470   -0.1830 C   0  0  2  0  0  0  0  0  0  0  0  0
   -3.1240   14.6780   -2.1840 C   0  0  0  0  0  0  0  0  0  0  0  0
   -1.7010   14.8380   -1.6330 C   0  0  1  0  0  0  0  0  0  0  0  0
   -0.6400   14.7960    0.6650 C   0  0  0  0  0  0  0  0  0  0  0  0
   -0.8560   15.5390   -2.7110 C   0  0  0  0  0  0  0  0  0  0  0  0
   -0.7840   14.5280    1.8550 O   0  0  0  0  0  0  0  0  0  0  0  0
   -0.8390   13.6550   -1.6090 N   0  0  0  0  0  0  0  0  0  0  0  0
    0.5150   14.5090   -0.0220 N   0  0  0  0  0  0  0  0  0  0  0  0
   -0.7060   15.2490   -3.9360 N   0  0  0  0  0  0  0  0  0  0  0  0
   -0.1360   16.5660   -2.2900 O   0  0  0  0  0  0  0  0  0  0  0  0
    0.4660   13.9380   -1.2400 C   0  0  0  0  0  0  0  0  0  0  0  0
    0.1650   15.9830   -4.8080 C   0  0  0  0  0  0  0  0  0  0  0  0
    1.8420   13.6510   -2.1440 S   0  0  0  0  0  0  0  0  0  0  0  0
   -0.5540   16.6000   -5.8550 O   0  0  0  0  0  0  0  0  0  0  0  0
   -0.3710   17.9910   -6.0010 C   0  0  0  0  0  0  0  0  0  0  0  0
   -1.3650   18.6250   -5.0550 C   0  0  0  0  0  0  0  0  0  0  0  0
    1.0670   18.3250   -5.6650 C   0  0  0  0  0  0  0  0  0  0  0  0
  1  2  1  0
  2  3  2  0
  2  4  1  0
  5  4  1  1
  5  6  1  0
  5  7  1  0
  8  6  1  1
  7  9  2  0
  8 10  1  0
  9 10  1  0
  8 11  1  0
 10 12  1  6
 11 13  2  0
 10 14  1  0
 11 15  1  0
 12 16  2  3
 12 17  1  0
 14 18  1  0
 15 18  1  0
 16 19  1  0
 18 20  2  0
 19 21  1  0
 21 22  1  0
 22 23  1  0
 22 24  1  0
M  END
