mac-x0380-mac-x0345
     RDKit          3D

 17 18  0  0  0  0  0  0  0  0999 V2000
   -1.7190   14.5640   -2.5200 O   0  0  0  0  0  0  0  0  0  0  0  0
   -3.0220   14.5770   -2.9030 C   0  0  0  0  0  0  0  0  0  0  0  0
   -3.3530   15.0130   -3.9960 O   0  0  0  0  0  0  0  0  0  0  0  0
   -4.0090   14.0120   -1.8550 C   0  0  2  0  0  0  0  0  0  0  0  0
   -5.3600   14.7750   -1.7940 C   0  0  1  0  0  0  0  0  0  0  0  0
   -3.3000   14.0840   -0.5110 C   0  0  0  0  0  0  0  0  0  0  0  0
   -4.9470   16.0800   -1.2400 C   0  0  0  0  0  0  0  0  0  0  0  0
   -5.9670   14.9440   -3.1600 N   0  0  0  0  0  0  0  0  0  0  0  0
   -6.3060   14.6720   -0.5880 C   0  0  2  0  0  0  0  0  0  0  0  0
   -4.2210   13.9730    0.6920 C   0  0  1  0  0  0  0  0  0  0  0  0
   -3.1900   14.8560    2.0280 Br  0  0  0  0  0  0  0  0  0  0  0  0
   -5.4990   14.7990    0.7120 C   0  0  2  0  0  0  0  0  0  0  0  0
   -7.5660   13.3710   -0.4790 S   0  0  0  0  0  0  0  0  0  0  0  0
   -6.2440   14.6560    1.9750 N   0  0  0  0  0  0  0  0  0  0  0  0
   -8.1320   13.3570    1.1930 C   0  0  0  0  0  0  0  0  0  0  0  0
   -7.5490   14.3120    2.1670 C   0  0  0  0  0  0  0  0  0  0  0  0
   -8.2470   14.7360    3.0730 O   0  0  0  0  0  0  0  0  0  0  0  0
  1  2  1  0
  2  3  2  0
  4  2  1  6
  4  5  1  0
  4  6  1  0
  5  7  1  1
  5  8  1  0
  5  9  1  0
  6 10  1  0
 10 11  1  1
  9 12  1  0
 10 12  1  0
  9 13  1  1
 12 14  1  1
 13 15  2  0
 14 16  1  0
 15 16  1  0
 16 17  2  0
M  END
