mac-x0358-diamond-x0967_0_A
     RDKit          3D

 23 25  0  0  0  0  0  0  0  0999 V2000
    1.8610   12.8640   -2.4220 O   0  0  0  0  0  0  0  0  0  0  0  0
    1.1590   12.1180   -3.3030 C   0  0  0  0  0  0  0  0  0  0  0  0
    0.5920   11.1120   -2.9130 O   0  0  0  0  0  0  0  0  0  0  0  0
    1.1670   12.7000   -4.7000 C   0  0  0  0  0  0  0  0  0  0  0  0
   -0.1360   13.3900   -4.8320 C   0  0  0  0  0  0  0  0  0  0  0  0
   -1.2960   12.6410   -5.0300 C   0  0  0  0  0  0  0  0  0  0  0  0
   -0.1970   14.7760   -4.7300 C   0  0  0  0  0  0  0  0  0  0  0  0
   -1.2040   11.2810   -5.1400 O   0  0  0  0  0  0  0  0  0  0  0  0
   -2.5180   13.2700   -5.0970 C   0  0  0  0  0  0  0  0  0  0  0  0
   -1.4130   15.4080   -4.7960 C   0  0  0  0  0  0  0  0  0  0  0  0
   -2.5590   14.6570   -4.9630 C   0  0  0  0  0  0  0  0  0  0  0  0
   -3.8320   15.3640   -4.9650 C   0  0  0  0  0  0  0  0  0  0  0  0
   -4.7800   14.6190   -4.0180 C   0  0  0  0  0  0  0  0  0  0  0  0
   -4.6940   14.8020   -2.4900 C   0  0  0  0  0  0  0  0  0  0  0  0
   -5.9060   14.5860   -1.9830 N   0  0  0  0  0  0  0  0  0  0  0  0
   -3.6010   15.1240   -1.6630 C   0  0  0  0  0  0  0  0  0  0  0  0
   -6.1480   14.6530   -0.7000 C   0  0  0  0  0  0  0  0  0  0  0  0
   -3.8380   15.2050   -0.2740 C   0  0  0  0  0  0  0  0  0  0  0  0
   -7.4010   14.4100   -0.3300 N   0  0  0  0  0  0  0  0  0  0  0  0
   -5.1390   14.9610    0.2120 C   0  0  0  0  0  0  0  0  0  0  0  0
   -5.4810   15.0090    1.5640 C   0  0  0  0  0  0  0  0  0  0  0  0
   -7.7120   14.4550    0.9740 C   0  0  0  0  0  0  0  0  0  0  0  0
   -6.7940   14.7460    1.9560 C   0  0  0  0  0  0  0  0  0  0  0  0
  1  2  1  0
  2  3  2  0
  2  4  1  0
  4  5  1  0
  5  6  2  0
  5  7  1  0
  6  8  1  0
  6  9  1  0
  7 10  2  0
  9 11  2  0
 10 11  1  0
 11 12  1  0
 12 13  1  0
 13 14  1  0
 14 15  2  0
 14 16  1  0
 15 17  1  0
 16 18  2  0
 17 19  2  0
 17 20  1  0
 18 20  1  0
 20 21  2  0
 19 22  1  0
 21 23  1  0
 22 23  2  0
M  END
