mac-x0231-diamond-x0438_0_A
     RDKit          3D

 31 34  0  0  0  0  0  0  0  0999 V2000
    0.4890   10.8480   -3.2120 O   0  0  0  0  0  0  0  0  0  0  0  0
    1.2360   11.9540   -3.0260 C   0  0  0  0  0  0  0  0  0  0  0  0
    1.3780   12.4070   -1.9100 O   0  0  0  0  0  0  0  0  0  0  0  0
    1.8040   12.5210   -4.2880 C   0  0  0  0  0  0  0  0  0  0  0  0
    1.3620   13.9390   -4.3940 C   0  0  0  0  0  0  0  0  0  0  0  0
   -0.0520   14.1870   -4.6420 C   0  0  0  0  0  0  0  0  0  0  0  0
    2.2270   14.8710   -4.2100 N   0  0  0  0  0  0  0  0  0  0  0  0
   -0.4560   15.5100   -4.7000 C   0  0  0  0  0  0  0  0  0  0  0  0
    1.7920   16.1550   -4.2700 N   0  0  0  0  0  0  0  0  0  0  0  0
   -0.9700   13.1510   -4.8020 C   0  0  0  0  0  0  0  0  0  0  0  0
    0.5260   16.5730   -4.5420 C   0  0  0  0  0  0  0  0  0  0  0  0
   -1.7760   15.8190   -4.8990 C   0  0  0  0  0  0  0  0  0  0  0  0
   -2.2980   13.4600   -5.0030 C   0  0  0  0  0  0  0  0  0  0  0  0
    0.2210   17.7590   -4.6490 O   0  0  0  0  0  0  0  0  0  0  0  0
   -2.6870   14.7920   -5.0420 C   0  0  0  0  0  0  0  0  0  0  0  0
   -4.0770   15.1490   -5.2270 C   0  0  0  0  0  0  0  0  0  0  0  0
   -4.9870   14.6080   -4.1090 C   0  0  0  0  0  0  0  0  0  0  0  0
   -4.8380   14.7960   -2.5730 C   0  0  0  0  0  0  0  0  0  0  0  0
   -6.0590   14.5030   -2.0160 C   0  0  0  0  0  0  0  0  0  0  0  0
   -3.7550   15.1660   -1.7010 C   0  0  0  0  0  0  0  0  0  0  0  0
   -6.2270   14.5430   -0.6710 C   0  0  0  0  0  0  0  0  0  0  0  0
   -3.9630   15.2090   -0.2780 C   0  0  0  0  0  0  0  0  0  0  0  0
   -7.3440   14.2690    0.0470 N   0  0  0  0  0  0  0  0  0  0  0  0
   -5.2460   14.8750    0.2300 C   0  0  0  0  0  0  0  0  0  0  0  0
   -7.0440   14.4160    1.3640 C   0  0  0  0  0  0  0  0  0  0  0  0
   -5.7720   14.7970    1.5060 N   0  0  0  0  0  0  0  0  0  0  0  0
   -8.0380   14.1530    2.4470 C   0  0  0  0  0  0  0  0  0  0  0  0
   -9.2620   15.4180    2.7200 S   0  0  0  0  0  0  0  0  0  0  0  0
   -8.5920   16.1920    4.1710 C   0  0  0  0  0  0  0  0  0  0  0  0
  -10.5110   14.7920    3.1110 O   0  0  0  0  0  0  0  0  0  0  0  0
   -9.2560   16.3670    1.6230 O   0  0  0  0  0  0  0  0  0  0  0  0
  1  2  1  0
  2  3  2  0
  2  4  1  0
  4  5  1  0
  5  6  1  0
  5  7  2  0
  6  8  2  0
  7  9  1  0
  6 10  1  0
  8 11  1  0
  9 11  1  0
  8 12  1  0
 10 13  2  0
 11 14  2  0
 12 15  2  0
 13 15  1  0
 15 16  1  0
 16 17  1  0
 17 18  1  0
 18 19  2  0
 18 20  1  0
 19 21  1  0
 20 22  2  0
 21 23  1  0
 21 24  2  0
 22 24  1  0
 23 25  1  0
 24 26  1  0
 25 26  2  0
 25 27  1  0
 28 27  1  0
 28 29  1  0
 28 30  2  0
 28 31  2  0
M  END
