mac-x0226-mac-x0348
     RDKit          3D

 26 29  0  0  0  0  0  0  0  0999 V2000
    1.6010   12.3540   -2.4170 O   0  0  0  0  0  0  0  0  0  0  0  0
    0.6280   12.4510   -3.3490 C   0  0  0  0  0  0  0  0  0  0  0  0
   -0.4480   13.0410   -3.2250 N   0  0  0  0  0  0  0  0  0  0  0  0
    0.7770   12.0330   -4.6610 C   0  0  0  0  0  0  0  0  0  0  0  0
   -0.5250   13.7710   -2.0300 C   0  0  0  0  0  0  0  0  0  0  0  0
    1.8290   12.4870   -5.4560 C   0  0  0  0  0  0  0  0  0  0  0  0
    0.0330   11.2190   -5.4650 C   0  0  0  0  0  0  0  0  0  0  0  0
    0.3920   14.9580   -2.4160 C   0  0  0  0  0  0  0  0  0  0  0  0
    1.7750   12.0180   -6.6720 N   0  0  0  0  0  0  0  0  0  0  0  0
    0.6680   11.2470   -6.6800 N   0  0  0  0  0  0  0  0  0  0  0  0
    0.3170   10.6170   -7.8670 C   0  0  0  0  0  0  0  0  0  0  0  0
   -0.0370   15.8320   -3.6000 C   0  0  0  0  0  0  0  0  0  0  0  0
   -0.8660    9.8820   -7.9380 C   0  0  0  0  0  0  0  0  0  0  0  0
    1.1460   10.7380   -8.9740 C   0  0  0  0  0  0  0  0  0  0  0  0
    0.7450   16.8130   -4.1840 C   0  0  0  0  0  0  0  0  0  0  0  0
   -1.2800   15.8550   -4.3280 C   0  0  0  0  0  0  0  0  0  0  0  0
   -1.2170    9.2680   -9.1350 C   0  0  0  0  0  0  0  0  0  0  0  0
    0.7950   10.1250  -10.1680 C   0  0  0  0  0  0  0  0  0  0  0  0
    0.0510   17.4180   -5.1920 N   0  0  0  0  0  0  0  0  0  0  0  0
   -1.2010   16.8650   -5.3030 C   0  0  0  0  0  0  0  0  0  0  0  0
   -2.4680   15.1100   -4.2360 C   0  0  0  0  0  0  0  0  0  0  0  0
    0.5810   18.4870   -6.0030 C   0  0  0  0  0  0  0  0  0  0  0  0
   -0.3870    9.3900  -10.2490 C   0  0  0  0  0  0  0  0  0  0  0  0
   -3.5250   15.3820   -5.0900 C   0  0  0  0  0  0  0  0  0  0  0  0
   -2.2680   17.1540   -6.1640 C   0  0  0  0  0  0  0  0  0  0  0  0
   -3.4250   16.3830   -6.0280 C   0  0  0  0  0  0  0  0  0  0  0  0
  1  2  1  0
  2  3  2  3
  2  4  1  0
  3  5  1  0
  4  6  1  0
  4  7  2  0
  5  8  1  0
  6  9  2  0
  7 10  1  0
  9 10  1  0
 10 11  1  0
  8 12  1  0
 11 13  2  0
 11 14  1  0
 12 15  2  0
 12 16  1  0
 13 17  1  0
 14 18  2  0
 15 19  1  0
 16 20  2  0
 19 20  1  0
 16 21  1  0
 19 22  1  0
 17 23  2  0
 18 23  1  0
 21 24  2  0
 20 25  1  0
 24 26  1  0
 25 26  2  0
M  END
