mac-x0509-diamond-x0711_0_A
     RDKit          3D

 27 29  0  0  0  0  0  0  0  0999 V2000
   -2.2600    7.8500   -5.8240 O   0  0  0  0  0  0  0  0  0  0  0  0
   -1.3200    8.3390   -6.4240 C   0  0  0  0  0  0  0  0  0  0  0  0
   -1.1780    9.7840   -6.9240 C   0  0  2  0  0  0  0  0  0  0  0  0
   -0.1370    7.7080   -6.8030 N   0  0  0  0  0  0  0  0  0  0  0  0
   -2.4800   10.5560   -7.1580 C   0  0  0  0  0  0  0  0  0  0  0  0
   -0.2260    9.5970   -8.0670 C   0  0  0  0  0  0  0  0  0  0  0  0
    0.3760    8.3450   -7.9290 C   0  0  0  0  0  0  0  0  0  0  0  0
   -2.7060   11.8530   -6.3420 C   0  0  0  0  0  0  0  0  0  0  0  0
    0.1010   10.4280   -9.1230 C   0  0  0  0  0  0  0  0  0  0  0  0
    1.3220    7.8830   -8.8130 C   0  0  0  0  0  0  0  0  0  0  0  0
   -1.5390   12.4500   -5.5300 C   0  0  0  0  0  0  0  0  0  0  0  0
    1.0560    9.9780  -10.0370 C   0  0  0  0  0  0  0  0  0  0  0  0
    1.6650    8.7160   -9.8810 C   0  0  0  0  0  0  0  0  0  0  0  0
   -1.7880   12.7020   -4.0370 C   0  0  0  0  0  0  0  0  0  0  0  0
   -0.6350   13.7880   -3.1930 S   0  0  0  0  0  0  0  0  0  0  0  0
   -1.6180   15.0750   -2.6860 N   0  0  0  0  0  0  0  0  0  0  0  0
    0.3170   14.3040   -4.1500 O   0  0  0  0  0  0  0  0  0  0  0  0
   -0.1900   13.1450   -1.9740 O   0  0  0  0  0  0  0  0  0  0  0  0
   -2.7960   14.9180   -1.8680 C   0  0  0  0  0  0  0  0  0  0  0  0
   -4.0210   15.1600   -2.4790 C   0  0  0  0  0  0  0  0  0  0  0  0
   -2.7490   14.5580   -0.5140 C   0  0  0  0  0  0  0  0  0  0  0  0
   -5.2100   15.0520   -1.7560 C   0  0  0  0  0  0  0  0  0  0  0  0
   -3.9430   14.4470    0.2190 C   0  0  0  0  0  0  0  0  0  0  0  0
   -5.1800   14.6960   -0.4010 C   0  0  0  0  0  0  0  0  0  0  0  0
   -6.4440   14.5760    0.3860 C   0  0  0  0  0  0  0  0  0  0  0  0
   -6.4010   14.7040    1.7510 N   0  0  0  0  0  0  0  0  0  0  0  0
   -7.5170   14.3810   -0.1700 O   0  0  0  0  0  0  0  0  0  0  0  0
  1  2  2  0
  2  3  1  0
  2  4  1  0
  3  5  1  6
  3  6  1  0
  4  7  1  0
  6  7  2  0
  5  8  1  0
  6  9  1  0
  7 10  1  0
  8 11  1  0
  9 12  2  0
 10 13  2  0
 12 13  1  0
 11 14  1  0
 14 15  1  0
 15 16  1  0
 15 17  2  0
 15 18  2  0
 16 19  1  0
 19 20  2  0
 19 21  1  0
 20 22  1  0
 21 23  2  0
 22 24  2  0
 23 24  1  0
 24 25  1  0
 25 26  1  0
 25 27  2  0
M  END
