mac-x0305-diamond-x0805_0_A
     RDKit          3D

 26 28  0  0  0  0  0  0  0  0999 V2000
   -0.2640   12.7640   -0.9780 N   0  0  0  0  0  0  0  0  0  0  0  0
   -0.3430   14.1360   -0.8560 C   0  0  0  0  0  0  0  0  0  0  0  0
    0.6110   14.8670   -1.1220 O   0  0  0  0  0  0  0  0  0  0  0  0
    0.2640   12.2660   -2.0360 C   0  0  0  0  0  0  0  0  0  0  0  0
    0.4260   10.9350   -2.3060 O   0  0  0  0  0  0  0  0  0  0  0  0
   -1.6690   14.7040   -0.3890 C   0  0  0  0  0  0  0  0  0  0  0  0
    0.7420   13.2630   -3.0590 C   0  0  1  0  0  0  0  0  0  0  0  0
   -1.9970   14.8430    0.9600 C   0  0  0  0  0  0  0  0  0  0  0  0
   -2.5420   15.0860   -1.3830 N   0  0  0  0  0  0  0  0  0  0  0  0
    1.5620   12.7810   -4.2460 C   0  0  0  0  0  0  0  0  0  0  0  0
   -0.4050   14.2210   -3.4270 C   0  0  2  0  0  0  0  0  0  0  0  0
   -1.1540   14.4770    1.9660 O   0  0  0  0  0  0  0  0  0  0  0  0
   -3.2470   15.3840    1.2830 C   0  0  0  0  0  0  0  0  0  0  0  0
   -3.7360   15.6100   -1.0340 C   0  0  0  0  0  0  0  0  0  0  0  0
   -1.8450   13.7600   -3.2030 C   0  0  0  0  0  0  0  0  0  0  0  0
    2.1330   13.9070   -4.9280 O   0  0  0  0  0  0  0  0  0  0  0  0
   -0.1080   14.8260   -4.7830 C   0  0  0  0  0  0  0  0  0  0  0  0
   -4.1220   15.7730    0.2760 C   0  0  0  0  0  0  0  0  0  0  0  0
   -2.4880   12.9030   -4.1070 C   0  0  0  0  0  0  0  0  0  0  0  0
   -2.5660   14.1740   -2.0820 C   0  0  0  0  0  0  0  0  0  0  0  0
    1.3710   15.1290   -4.8240 C   0  0  0  0  0  0  0  0  0  0  0  0
   -3.8820   13.7610   -1.8420 C   0  0  0  0  0  0  0  0  0  0  0  0
   -3.8020   12.4850   -3.8770 C   0  0  0  0  0  0  0  0  0  0  0  0
   -4.6740   14.1100   -0.7750 O   0  0  0  0  0  0  0  0  0  0  0  0
   -4.4900   12.9160   -2.7480 C   0  0  0  0  0  0  0  0  0  0  0  0
   -4.5410   13.3850    0.4450 C   0  0  0  0  0  0  0  0  0  0  0  0
  1  2  1  0
  2  3  2  0
  1  4  2  3
  4  5  1  0
  2  6  1  0
  7  4  1  6
  6  8  2  0
  6  9  1  0
  7 10  1  0
  7 11  1  0
  8 12  1  0
  8 13  1  0
  9 14  2  0
 11 15  1  6
 10 16  1  0
 11 17  1  0
 13 18  2  0
 14 18  1  0
 15 19  2  0
 15 20  1  0
 16 21  1  0
 17 21  1  0
 20 22  2  0
 19 23  1  0
 22 24  1  0
 22 25  1  0
 23 25  2  0
 24 26  1  0
M  END
