mac-x0282-mac-x0138
     RDKit          3D

 11 12  0  0  0  0  0  0  0  0999 V2000
   -2.8900   15.6610   -3.2110 C   0  0  0  0  0  0  0  0  0  0  0  0
   -3.1180   15.5680   -1.7490 C   0  0  0  0  0  0  0  0  0  0  0  0
   -4.1930   15.7780   -0.9490 C   0  0  0  0  0  0  0  0  0  0  0  0
   -2.0960   15.1940   -0.8810 C   0  0  0  0  0  0  0  0  0  0  0  0
   -2.7080   15.2230    0.4610 C   0  0  0  0  0  0  0  0  0  0  0  0
   -3.9640   15.5770    0.4030 N   0  0  0  0  0  0  0  0  0  0  0  0
   -0.8310   14.8510   -1.0200 C   0  0  0  0  0  0  0  0  0  0  0  0
   -0.0660   14.4960    0.1500 C   0  0  0  0  0  0  0  0  0  0  0  0
   -1.9900   14.8760    1.5550 N   0  0  0  0  0  0  0  0  0  0  0  0
   -2.8660   14.1560    2.3260 N   0  0  0  0  0  0  0  0  0  0  0  0
   -0.6460   14.5100    1.3720 C   0  0  0  0  0  0  0  0  0  0  0  0
  1  2  1  0
  2  3  2  0
  2  4  1  0
  4  5  1  0
  3  6  1  0
  5  6  2  0
  4  7  2  0
  7  8  1  0
  5  9  1  0
  9 10  1  0
  8 11  2  0
  9 11  1  0
M  END
