mac-x0328-mac-x0404
     RDKit          3D

 26 28  0  0  0  0  0  0  0  0999 V2000
   -1.6970   15.0330   -3.3300 O   0  0  0  0  0  0  0  0  0  0  0  0
   -1.8610   14.7230   -2.0500 C   0  0  0  0  0  0  0  0  0  0  0  0
   -0.8450   14.3720   -1.3450 N   0  0  0  0  0  0  0  0  0  0  0  0
   -3.2640   14.8560   -1.6710 C   0  0  0  0  0  0  0  0  0  0  0  0
    0.4870   14.2920   -1.9640 C   0  0  0  0  0  0  0  0  0  0  0  0
   -3.5790   14.7720   -0.3180 C   0  0  0  0  0  0  0  0  0  0  0  0
   -4.2580   15.0580   -2.6330 C   0  0  0  0  0  0  0  0  0  0  0  0
    1.1290   13.0010   -1.8950 O   0  0  0  0  0  0  0  0  0  0  0  0
   -4.9020   14.8860    0.0860 C   0  0  0  0  0  0  0  0  0  0  0  0
   -5.5890   15.1720   -2.2210 C   0  0  0  0  0  0  0  0  0  0  0  0
    0.9630   12.1510   -2.9500 C   0  0  0  0  0  0  0  0  0  0  0  0
   -5.8960   15.0830   -0.8640 C   0  0  0  0  0  0  0  0  0  0  0  0
   -7.1810   15.1830   -0.4200 O   0  0  0  0  0  0  0  0  0  0  0  0
    0.4350   11.0480   -2.8670 O   0  0  0  0  0  0  0  0  0  0  0  0
    1.5320   12.7030   -4.2570 C   0  0  0  0  0  0  0  0  0  0  0  0
    1.2460   14.0520   -4.5690 O   0  0  0  0  0  0  0  0  0  0  0  0
   -0.0460   14.4430   -4.8490 C   0  0  0  0  0  0  0  0  0  0  0  0
   -0.2140   15.8290   -5.0670 C   0  0  0  0  0  0  0  0  0  0  0  0
   -1.1570   13.5920   -4.9280 C   0  0  0  0  0  0  0  0  0  0  0  0
   -1.4980   16.3530   -5.3590 C   0  0  0  0  0  0  0  0  0  0  0  0
   -2.4270   14.1130   -5.2160 C   0  0  0  0  0  0  0  0  0  0  0  0
    0.8660   16.7180   -5.0080 C   0  0  0  0  0  0  0  0  0  0  0  0
   -2.5970   15.4830   -5.4260 C   0  0  0  0  0  0  0  0  0  0  0  0
   -1.6510   17.7250   -5.5820 C   0  0  0  0  0  0  0  0  0  0  0  0
    0.7040   18.0810   -5.2330 C   0  0  0  0  0  0  0  0  0  0  0  0
   -0.5600   18.5810   -5.5230 C   0  0  0  0  0  0  0  0  0  0  0  0
  1  2  1  0
  2  3  2  3
  2  4  1  0
  3  5  1  0
  4  6  2  0
  4  7  1  0
  5  8  1  0
  6  9  1  0
  7 10  2  0
  8 11  1  0
  9 12  2  0
 10 12  1  0
 12 13  1  0
 11 14  2  0
 11 15  1  0
 15 16  1  0
 16 17  1  0
 17 18  1  0
 17 19  2  0
 18 20  2  0
 19 21  1  0
 18 22  1  0
 20 23  1  0
 21 23  2  0
 20 24  1  0
 22 25  2  0
 24 26  2  0
 25 26  1  0
M  END
