mac-x0159-diamond-x0471_0_A
     RDKit          3D

 31 35  0  0  0  0  0  0  0  0999 V2000
   -3.7040   16.3480    0.9130 N   0  0  0  0  0  0  0  0  0  0  0  0
   -3.5080   15.1270    0.1620 C   0  0  2  0  0  0  0  0  0  0  0  0
   -2.0350   14.6580    0.1600 C   0  0  1  0  0  0  0  0  0  0  0  0
   -3.9370   15.4340   -1.1900 N   0  0  0  0  0  0  0  0  0  0  0  0
   -4.2560   14.0210    0.9130 C   0  0  0  0  0  0  0  0  0  0  0  0
   -3.1390   14.8930   -2.2900 C   0  0  0  0  0  0  0  0  0  0  0  0
   -1.2260   15.3860   -0.8610 C   0  0  2  0  0  0  0  0  0  0  0  0
   -1.2510   14.9120    1.3560 N   0  0  0  0  0  0  0  0  0  0  0  0
   -5.7350   13.8970    0.6410 C   0  0  1  0  0  0  0  0  0  0  0  0
   -5.3840   15.4570   -1.3650 C   0  0  0  0  0  0  0  0  0  0  0  0
   -1.7380   15.3410   -2.1970 N   0  0  0  0  0  0  0  0  0  0  0  0
    0.0120   14.6800   -0.6330 N   0  0  0  0  0  0  0  0  0  0  0  0
    0.0740   14.6560    0.8280 C   0  0  0  0  0  0  0  0  0  0  0  0
   -6.6110   14.7410    1.4240 N   0  0  0  0  0  0  0  0  0  0  0  0
   -6.1100   14.2190   -0.7910 C   0  0  2  0  0  0  0  0  0  0  0  0
   -0.8430   14.8470   -3.2410 C   0  0  0  0  0  0  0  0  0  0  0  0
   -7.5800   14.3290   -0.6740 N   0  0  0  0  0  0  0  0  0  0  0  0
   -7.8780   14.7400    0.7030 C   0  0  1  0  0  0  0  0  0  0  0  0
   -8.9750   13.9080    1.4090 C   0  0  0  0  0  0  0  0  0  0  0  0
   -0.4110   16.0200   -4.0850 C   0  0  0  0  0  0  0  0  0  0  0  0
   -8.7450   13.7920    2.8490 N   0  0  0  0  0  0  0  0  0  0  0  0
    0.8860   16.4770   -4.2370 C   0  0  0  0  0  0  0  0  0  0  0  0
   -1.3690   16.7470   -4.7970 N   0  0  0  0  0  0  0  0  0  0  0  0
   -8.9470   14.8500    3.7210 C   0  0  0  0  0  0  0  0  0  0  0  0
   -0.7830   17.7210   -5.4570 C   0  0  0  0  0  0  0  0  0  0  0  0
    0.9200   17.8340   -5.2750 S   0  0  0  0  0  0  0  0  0  0  0  0
   -1.4900   18.7040   -6.3290 C   0  0  0  0  0  0  0  0  0  0  0  0
   -9.2660   15.9840    3.3600 O   0  0  0  0  0  0  0  0  0  0  0  0
   -8.7390   14.4560    5.1800 C   0  0  0  0  0  0  0  0  0  0  0  0
   -9.9680   13.7250    5.7140 C   0  0  0  0  0  0  0  0  0  0  0  0
   -8.3940   15.6710    6.0410 C   0  0  0  0  0  0  0  0  0  0  0  0
  2  1  1  1
  2  3  1  0
  2  4  1  0
  2  5  1  0
  4  6  1  0
  3  7  1  0
  3  8  1  1
  9  5  1  6
  4 10  1  0
  6 11  1  0
  7 11  1  0
  7 12  1  6
  8 13  1  0
 12 13  1  0
  9 14  1  0
  9 15  1  0
 15 10  1  1
 11 16  1  0
 15 17  1  0
 14 18  1  0
 17 18  1  0
 18 19  1  1
 16 20  1  0
 19 21  1  0
 20 22  2  0
 20 23  1  0
 21 24  1  0
 23 25  2  0
 22 26  1  0
 25 26  1  0
 25 27  1  0
 24 28  2  0
 24 29  1  0
 29 30  1  0
 29 31  1  0
M  END
