mac-x0188-mac-x0451
     RDKit          3D

 20 22  0  0  0  0  0  0  0  0999 V2000
    1.4670   13.4980   -5.0280 C   0  0  0  0  0  0  0  0  0  0  0  0
    0.1270   13.8050   -4.4890 C   0  0  0  0  0  0  0  0  0  0  0  0
   -0.9020   13.7670   -5.3730 O   0  0  0  0  0  0  0  0  0  0  0  0
   -0.3440   14.1350   -3.2310 C   0  0  0  0  0  0  0  0  0  0  0  0
    0.5030   14.2660   -2.0590 C   0  0  0  0  0  0  0  0  0  0  0  0
   -2.0750   14.0620   -4.7240 N   0  0  0  0  0  0  0  0  0  0  0  0
   -1.7610   14.2810   -3.4340 C   0  0  0  0  0  0  0  0  0  0  0  0
    0.8750   15.3330   -1.6230 O   0  0  0  0  0  0  0  0  0  0  0  0
    0.9190   13.1400   -1.4240 O   0  0  0  0  0  0  0  0  0  0  0  0
   -2.8480   14.5770   -2.5050 C   0  0  0  0  0  0  0  0  0  0  0  0
   -4.1300   14.8410   -2.9740 C   0  0  0  0  0  0  0  0  0  0  0  0
   -2.6100   14.5610   -1.1370 C   0  0  0  0  0  0  0  0  0  0  0  0
   -1.3680   14.3410   -0.7300 F   0  0  0  0  0  0  0  0  0  0  0  0
   -5.1800   15.0530   -2.0780 C   0  0  0  0  0  0  0  0  0  0  0  0
   -3.6620   14.7520   -0.2280 C   0  0  0  0  0  0  0  0  0  0  0  0
   -4.9490   14.9880   -0.6920 C   0  0  0  0  0  0  0  0  0  0  0  0
   -3.6980   14.7370    1.4980 S   0  0  0  0  0  0  0  0  0  0  0  0
   -5.3970   15.0050    1.4680 C   0  0  0  0  0  0  0  0  0  0  0  0
   -5.9160   15.1300    0.2780 N   0  0  0  0  0  0  0  0  0  0  0  0
   -6.1530   15.0810    2.5770 N   0  0  0  0  0  0  0  0  0  0  0  0
  1  2  1  0
  2  3  1  0
  2  4  2  0
  4  5  1  0
  3  6  1  0
  4  7  1  0
  6  7  2  0
  5  8  2  0
  5  9  1  0
  7 10  1  0
 10 11  2  0
 10 12  1  0
 12 13  1  0
 11 14  1  0
 12 15  2  0
 14 16  2  0
 15 16  1  0
 15 17  1  0
 17 18  1  0
 16 19  1  0
 18 19  2  0
 18 20  1  0
M  END
