mac-x0337-mac-x0188
     RDKit          3D

 26 28  0  0  0  0  0  0  0  0999 V2000
   -5.5580    8.6440   -2.2450 C   0  0  0  0  0  0  0  0  0  0  0  0
   -5.4190   10.1150   -2.0240 C   0  0  0  0  0  0  0  0  0  0  0  0
   -6.3800   10.7960   -1.2680 C   0  0  0  0  0  0  0  0  0  0  0  0
   -4.3300   10.8050   -2.5700 C   0  0  0  0  0  0  0  0  0  0  0  0
   -4.2130   12.1690   -2.3690 C   0  0  0  0  0  0  0  0  0  0  0  0
   -6.2640   12.1540   -1.0670 C   0  0  0  0  0  0  0  0  0  0  0  0
   -5.1940   12.8150   -1.6220 C   0  0  0  0  0  0  0  0  0  0  0  0
   -5.0910   14.5120   -1.3660 S   0  0  2  0  0  0  0  0  0  0  0  0
   -4.5060   15.1550   -2.6110 N   0  0  0  0  0  0  0  0  0  0  0  0
   -4.5090   14.6300   -0.0380 O   0  0  0  0  0  0  0  0  0  0  0  0
   -6.5840   15.2430   -1.1760 N   0  0  0  0  0  0  0  0  0  0  0  0
   -3.3890   15.3080   -1.8390 C   0  0  0  0  0  0  0  0  0  0  0  0
   -3.8650   15.8600   -0.6660 C   0  0  0  0  0  0  0  0  0  0  0  0
   -2.0680   14.9870   -2.0400 C   0  0  0  0  0  0  0  0  0  0  0  0
   -1.4420   14.3980   -3.2190 C   0  0  0  0  0  0  0  0  0  0  0  0
   -3.0410   16.1030    0.3780 C   0  0  0  0  0  0  0  0  0  0  0  0
   -1.2260   15.2490   -0.9500 C   0  0  0  0  0  0  0  0  0  0  0  0
   -2.0560   14.1850   -4.4030 N   0  0  0  0  0  0  0  0  0  0  0  0
   -0.0880   13.9740   -3.2690 C   0  0  0  0  0  0  0  0  0  0  0  0
   -1.7130   15.7940    0.2380 C   0  0  0  0  0  0  0  0  0  0  0  0
    0.9220   14.0170   -2.2390 C   0  0  0  0  0  0  0  0  0  0  0  0
    0.0770   13.5010   -4.5500 C   0  0  0  0  0  0  0  0  0  0  0  0
   -1.0960   13.6250   -5.2320 O   0  0  0  0  0  0  0  0  0  0  0  0
    1.2190   12.9200   -5.2840 C   0  0  0  0  0  0  0  0  0  0  0  0
    1.8100   14.8410   -2.1710 O   0  0  0  0  0  0  0  0  0  0  0  0
    0.8530   13.0610   -1.2830 O   0  0  0  0  0  0  0  0  0  0  0  0
  1  2  1  0
  2  3  2  0
  2  4  1  0
  4  5  2  0
  3  6  1  0
  5  7  1  0
  6  7  2  0
  7  8  1  0
  8  9  2  0
  8 10  2  0
  8 11  1  1
  9 12  1  0
 12 13  2  0
 12 14  1  0
 14 15  1  0
 13 16  1  0
 14 17  2  0
 15 18  2  0
 15 19  1  0
 16 20  2  0
 17 20  1  0
 19 21  1  0
 19 22  2  0
 18 23  1  0
 22 23  1  0
 22 24  1  0
 21 25  2  0
 21 26  1  0
M  END
