mac-x0223-mac-x0451
     RDKit          3D

 24 26  0  0  0  0  0  0  0  0999 V2000
    1.3170   18.4920   -5.8050 C   0  0  0  0  0  0  0  0  0  0  0  0
   -0.0010   18.0930   -6.0370 O   0  0  0  0  0  0  0  0  0  0  0  0
   -0.3720   16.9950   -5.3480 C   0  0  0  0  0  0  0  0  0  0  0  0
   -1.6410   17.0610   -4.8310 C   0  0  0  0  0  0  0  0  0  0  0  0
    0.4060   15.8570   -5.1330 C   0  0  0  0  0  0  0  0  0  0  0  0
   -2.3760   18.1760   -5.0380 O   0  0  0  0  0  0  0  0  0  0  0  0
   -2.1690   16.0390   -4.0980 C   0  0  0  0  0  0  0  0  0  0  0  0
   -0.0930   14.7870   -4.3820 C   0  0  0  0  0  0  0  0  0  0  0  0
    0.8270   13.5880   -4.2060 C   0  0  0  0  0  0  0  0  0  0  0  0
   -1.4030   14.9300   -3.8590 C   0  0  0  0  0  0  0  0  0  0  0  0
    0.5950   12.6750   -3.0250 C   0  0  0  0  0  0  0  0  0  0  0  0
   -1.9550   13.9860   -3.0880 O   0  0  0  0  0  0  0  0  0  0  0  0
    0.2200   11.5160   -3.1240 O   0  0  0  0  0  0  0  0  0  0  0  0
    0.8510   13.2370   -1.8250 O   0  0  0  0  0  0  0  0  0  0  0  0
   -2.9670   14.3010   -2.1730 C   0  0  0  0  0  0  0  0  0  0  0  0
   -4.2250   14.5530   -2.7110 C   0  0  0  0  0  0  0  0  0  0  0  0
   -2.7630   14.3350   -0.7800 C   0  0  0  0  0  0  0  0  0  0  0  0
   -3.8700   14.5770    0.0420 C   0  0  0  0  0  0  0  0  0  0  0  0
   -5.3110   14.8090   -1.8740 C   0  0  0  0  0  0  0  0  0  0  0  0
   -5.1360   14.8010   -0.4800 C   0  0  0  0  0  0  0  0  0  0  0  0
   -3.9560   14.6360    1.7560 S   0  0  0  0  0  0  0  0  0  0  0  0
   -5.6500   14.9080    1.6530 C   0  0  0  0  0  0  0  0  0  0  0  0
   -6.1310   14.9890    0.4460 N   0  0  0  0  0  0  0  0  0  0  0  0
   -6.4290   15.0270    2.7370 N   0  0  0  0  0  0  0  0  0  0  0  0
  1  2  1  0
  2  3  1  0
  3  4  2  0
  3  5  1  0
  4  6  1  0
  4  7  1  0
  5  8  2  0
  8  9  1  0
  7 10  2  0
  8 10  1  0
  9 11  1  0
 10 12  1  0
 11 13  2  0
 11 14  1  0
 12 15  1  0
 15 16  2  0
 15 17  1  0
 17 18  2  0
 16 19  1  0
 18 20  1  0
 19 20  2  0
 18 21  1  0
 21 22  1  0
 20 23  1  0
 22 23  2  0
 22 24  1  0
M  END
