mac-x0326-mac-x0590
     RDKit          3D

 28 32  0  0  0  0  0  0  0  0999 V2000
   -5.8140   15.2090   -2.0430 Cl  0  0  0  0  0  0  0  0  0  0  0  0
   -4.1350   14.5560   -1.8230 C   0  0  1  0  0  0  0  0  0  0  0  0
   -3.2820   14.4230   -3.1460 C   0  0  2  0  0  0  0  0  0  0  0  0
   -3.4470   15.4140   -0.7460 C   0  0  1  0  0  0  0  0  0  0  0  0
   -4.1380   15.3050    0.5790 N   0  0  0  0  0  0  0  0  0  0  0  0
   -2.7400   12.9870   -3.3750 C   0  0  0  0  0  0  0  0  0  0  0  0
   -2.1300   15.4390   -3.2800 C   0  0  2  0  0  0  0  0  0  0  0  0
   -1.9090   15.1150   -0.6890 C   0  0  1  0  0  0  0  0  0  0  0  0
   -1.7410   12.6920   -4.5120 C   0  0  0  0  0  0  0  0  0  0  0  0
   -1.1580   15.3640   -4.5050 C   0  0  2  0  0  0  0  0  0  0  0  0
   -1.2010   15.3510   -2.0670 C   0  0  2  0  0  0  0  0  0  0  0  0
   -1.2930   15.8010    0.4920 N   0  0  0  0  0  0  0  0  0  0  0  0
   -1.6600   13.7040   -0.2360 C   0  0  0  0  0  0  0  0  0  0  0  0
   -0.2460   12.9310   -4.1460 C   0  0  1  0  0  0  0  0  0  0  0  0
    0.0710   14.4360   -4.3290 C   0  0  0  0  0  0  0  0  0  0  0  0
   -0.2350   13.8160    0.0410 N   0  0  0  0  0  0  0  0  0  0  0  0
   -0.2250   14.9270    0.9570 C   0  0  0  0  0  0  0  0  0  0  0  0
   -0.3460   16.5620   -2.0790 C   0  0  0  0  0  0  0  0  0  0  0  0
   -0.4740   16.6390   -4.8110 C   0  0  0  0  0  0  0  0  0  0  0  0
    0.0930   12.4350   -2.7260 C   0  0  0  0  0  0  0  0  0  0  0  0
    0.1710   17.5100   -3.4890 S   0  0  0  0  0  0  0  0  0  0  0  0
    0.7600   11.9770   -4.7890 C   0  0  2  0  0  0  0  0  0  0  0  0
   -0.5350   11.2830   -2.4070 O   0  0  0  0  0  0  0  0  0  0  0  0
    0.8800   12.9630   -1.9590 O   0  0  0  0  0  0  0  0  0  0  0  0
    1.6590   11.4600   -3.6690 C   0  0  0  0  0  0  0  0  0  0  0  0
    1.8490   12.5130   -5.6740 C   0  0  0  0  0  0  0  0  0  0  0  0
    2.7560   13.1600   -4.6310 C   0  0  0  0  0  0  0  0  0  0  0  0
    2.4280   12.6000   -3.3570 O   0  0  0  0  0  0  0  0  0  0  0  0
  2  1  1  6
  2  3  1  0
  2  4  1  0
  4  5  1  1
  3  6  1  1
  3  7  1  0
  4  8  1  0
  6  9  1  0
  7 10  1  6
  7 11  1  0
  8 11  1  0
  8 12  1  0
  8 13  1  1
  9 14  1  0
 10 15  1  1
 14 15  1  0
 13 16  1  0
 12 17  1  0
 16 17  1  0
 11 18  1  1
 10 19  1  0
 14 20  1  1
 18 21  2  0
 19 21  2  0
 14 22  1  0
 20 23  1  0
 20 24  2  0
 22 25  1  1
 22 26  1  0
 26 27  1  0
 25 28  1  0
 27 28  1  0
M  END
