mac-x0190-mac-x0567
     RDKit          3D

 16 18  0  0  0  0  0  0  0  0999 V2000
   -8.9970   15.2040    2.3190 O   0  0  0  0  0  0  0  0  0  0  0  0
   -8.3720   14.0550    1.7630 C   0  0  0  0  0  0  0  0  0  0  0  0
   -7.1270   14.3980    0.9660 C   0  0  0  0  0  0  0  0  0  0  0  0
   -7.1410   14.7850   -0.2700 N   0  0  0  0  0  0  0  0  0  0  0  0
   -5.8690   14.2800    1.5660 N   0  0  0  0  0  0  0  0  0  0  0  0
   -5.8140   14.9860   -0.5570 C   0  0  0  0  0  0  0  0  0  0  0  0
   -5.0140   14.6150    0.6190 C   0  0  0  0  0  0  0  0  0  0  0  0
   -5.3800   15.4510   -1.7120 C   0  0  0  0  0  0  0  0  0  0  0  0
   -3.5540   14.5880    0.7190 C   0  0  0  0  0  0  0  0  0  0  0  0
   -4.0310   15.7200   -2.1000 C   0  0  0  0  0  0  0  0  0  0  0  0
   -2.6430   15.0140   -0.2190 N   0  0  0  0  0  0  0  0  0  0  0  0
   -2.7320   14.1250    1.7170 C   0  0  0  0  0  0  0  0  0  0  0  0
   -2.8970   15.5410   -1.4500 C   0  0  0  0  0  0  0  0  0  0  0  0
   -1.3890   14.3000    1.3170 C   0  0  0  0  0  0  0  0  0  0  0  0
   -1.3480   14.8440    0.1620 N   0  0  0  0  0  0  0  0  0  0  0  0
   -0.2650   13.9630    1.9890 N   0  0  0  0  0  0  0  0  0  0  0  0
  1  2  1  0
  2  3  1  0
  3  4  2  0
  3  5  1  0
  4  6  1  0
  5  7  2  0
  6  7  1  0
  6  8  2  0
  7  9  1  0
  8 10  1  0
  9 11  1  0
  9 12  2  0
 10 13  2  0
 11 13  1  0
 12 14  1  0
 11 15  1  0
 14 15  2  0
 14 16  1  0
M  END
