mac-x0224-mac-x1494
     RDKit          3D

 15 16  0  0  0  0  0  0  0  0999 V2000
   -2.4870   14.7830    1.7620 S   0  0  0  0  0  0  0  0  0  0  0  0
   -2.6120   15.1440   -0.0200 C   0  0  1  0  0  0  0  0  0  0  0  0
   -1.3400   14.5480   -0.6200 C   0  0  0  0  0  0  0  0  0  0  0  0
   -3.7970   14.4530   -0.3930 N   0  0  0  0  0  0  0  0  0  0  0  0
   -1.0840   14.9020   -2.0850 C   0  0  1  0  0  0  0  0  0  0  0  0
   -4.3800   14.7900   -1.6850 C   0  0  2  0  0  0  0  0  0  0  0  0
   -4.8630   14.7490    0.5840 C   0  0  0  0  0  0  0  0  0  0  0  0
    0.2350   14.2490   -2.4470 C   0  0  0  0  0  0  0  0  0  0  0  0
   -2.1800   14.5120   -3.0870 C   0  0  1  0  0  0  0  0  0  0  0  0
   -3.5160   15.2170   -2.8720 C   0  0  0  0  0  0  0  0  0  0  0  0
   -6.0430   15.0930   -0.1310 O   0  0  0  0  0  0  0  0  0  0  0  0
   -5.5320   15.6980   -1.3110 C   0  0  0  0  0  0  0  0  0  0  0  0
   -1.6860   14.7130   -4.4130 O   0  0  0  0  0  0  0  0  0  0  0  0
    1.1140   13.9970   -1.6460 O   0  0  0  0  0  0  0  0  0  0  0  0
    0.3710   13.9560   -3.7550 O   0  0  0  0  0  0  0  0  0  0  0  0
  2  1  1  1
  2  3  1  0
  2  4  1  0
  3  5  1  0
  4  6  1  0
  4  7  1  0
  5  8  1  6
  5  9  1  0
  6 10  1  6
  9 10  1  0
  7 11  1  0
  6 12  1  0
 11 12  1  0
  9 13  1  6
  8 14  2  0
  8 15  1  0
M  END
