mac-x0213-mac-x1493
     RDKit          3D

 25 28  0  0  0  0  0  0  0  0999 V2000
    0.1020   11.5830   -3.2480 O   0  0  0  0  0  0  0  0  0  0  0  0
    0.5030   12.8590   -3.0230 C   0  0  0  0  0  0  0  0  0  0  0  0
    1.1180   13.1390   -2.0110 O   0  0  0  0  0  0  0  0  0  0  0  0
    0.1070   13.8400   -4.1210 C   0  0  1  0  0  0  0  0  0  0  0  0
   -0.9930   14.7730   -3.6370 C   0  0  2  0  0  0  0  0  0  0  0  0
    1.2260   14.9030   -4.3580 C   0  0  0  0  0  0  0  0  0  0  0  0
   -2.3500   14.4560   -3.3780 N   0  0  0  0  0  0  0  0  0  0  0  0
   -0.8830   15.9470   -4.4950 C   0  0  0  0  0  0  0  0  0  0  0  0
    0.4140   16.0640   -4.9040 C   0  0  0  0  0  0  0  0  0  0  0  0
   -2.6980   14.6920   -2.2080 C   0  0  0  0  0  0  0  0  0  0  0  0
   -1.8890   16.8310   -4.8510 C   0  0  0  0  0  0  0  0  0  0  0  0
    0.7700   17.1400   -5.7010 C   0  0  0  0  0  0  0  0  0  0  0  0
   -1.7380   15.0780   -1.3580 O   0  0  0  0  0  0  0  0  0  0  0  0
   -1.5510   17.9070   -5.6540 C   0  0  0  0  0  0  0  0  0  0  0  0
   -0.2220   18.0630   -6.0720 C   0  0  0  0  0  0  0  0  0  0  0  0
   -3.9190   14.6630   -1.5060 C   0  0  0  0  0  0  0  0  0  0  0  0
   -3.9450   14.8250   -0.1420 C   0  0  0  0  0  0  0  0  0  0  0  0
   -5.0830   14.4810   -2.2080 C   0  0  0  0  0  0  0  0  0  0  0  0
   -5.1750   14.7920    0.4880 C   0  0  0  0  0  0  0  0  0  0  0  0
   -6.2930   14.4450   -1.6270 N   0  0  0  0  0  0  0  0  0  0  0  0
   -6.3330   14.5960   -0.2950 C   0  0  0  0  0  0  0  0  0  0  0  0
   -5.2730   14.9460    1.8670 C   0  0  0  0  0  0  0  0  0  0  0  0
   -7.5600   14.5580    0.3430 C   0  0  0  0  0  0  0  0  0  0  0  0
   -6.5210   14.9020    2.4830 C   0  0  0  0  0  0  0  0  0  0  0  0
   -7.6640   14.7070    1.7250 C   0  0  0  0  0  0  0  0  0  0  0  0
  1  2  1  0
  2  3  2  0
  4  2  1  1
  4  5  1  0
  4  6  1  0
  5  7  1  6
  5  8  1  0
  6  9  1  0
  8  9  2  0
  7 10  2  3
  8 11  1  0
  9 12  1  0
 10 13  1  0
 11 14  2  0
 12 15  2  0
 14 15  1  0
 10 16  1  0
 16 17  2  0
 16 18  1  0
 17 19  1  0
 18 20  2  0
 19 21  2  0
 20 21  1  0
 19 22  1  0
 21 23  1  0
 22 24  2  0
 23 25  2  0
 24 25  1  0
M  END
