mac-x0328-mac-x0124
     RDKit          3D

 19 21  0  0  0  0  0  0  0  0999 V2000
   -2.6140   13.8580   -4.4650 O   0  0  0  0  0  0  0  0  0  0  0  0
   -2.6480   13.5620   -3.0830 C   0  0  2  0  0  0  0  0  0  0  0  0
   -4.0100   13.8650   -2.4850 C   0  0  0  0  0  0  0  0  0  0  0  0
   -2.0000   14.5970   -2.3830 N   0  0  0  0  0  0  0  0  0  0  0  0
   -4.2700   13.4660   -1.1580 C   0  0  0  0  0  0  0  0  0  0  0  0
   -5.0200   14.5610   -3.1810 C   0  0  0  0  0  0  0  0  0  0  0  0
   -3.0920   15.4620   -2.2320 C   0  0  0  0  0  0  0  0  0  0  0  0
   -1.5750   14.1480   -1.0220 C   0  0  2  0  0  0  0  0  0  0  0  0
   -5.4860   13.7610   -0.5430 C   0  0  0  0  0  0  0  0  0  0  0  0
   -6.2370   14.8540   -2.5600 C   0  0  0  0  0  0  0  0  0  0  0  0
   -3.4980   15.6370   -0.9800 C   0  0  0  0  0  0  0  0  0  0  0  0
   -2.5330   14.9050   -0.1180 C   0  0  1  0  0  0  0  0  0  0  0  0
   -0.2940   14.4950   -0.4530 N   0  0  0  0  0  0  0  0  0  0  0  0
   -6.4590   14.4560   -1.2470 C   0  0  0  0  0  0  0  0  0  0  0  0
   -2.7410   14.2550    1.1520 C   0  0  2  0  0  0  0  0  0  0  0  0
   -0.2020   14.2330    0.9880 C   0  0  0  0  0  0  0  0  0  0  0  0
   -7.6300   14.7320   -0.6040 O   0  0  0  0  0  0  0  0  0  0  0  0
   -3.5460   15.0850    1.9930 N   0  0  0  0  0  0  0  0  0  0  0  0
   -1.4500   14.2050    1.7950 N   0  0  0  0  0  0  0  0  0  0  0  0
  2  1  1  6
  2  3  1  0
  2  4  1  0
  3  5  2  0
  3  6  1  0
  4  7  1  0
  4  8  1  0
  5  9  1  0
  6 10  2  0
  7 11  2  0
  8 12  1  0
 12 11  1  6
  8 13  1  1
  9 14  2  0
 10 14  1  0
 12 15  1  0
 13 16  1  0
 14 17  1  0
 15 18  1  1
 15 19  1  0
 16 19  1  0
M  END
