mac-x0326-mac-x0392
     RDKit          3D

 20 22  0  0  0  0  0  0  0  0999 V2000
   -5.2410   13.9580   -1.8840 Cl  0  0  0  0  0  0  0  0  0  0  0  0
   -3.7350   14.9340   -2.0410 C   0  0  2  0  0  0  0  0  0  0  0  0
   -2.5610   14.4210   -2.9160 C   0  0  1  0  0  0  0  0  0  0  0  0
   -2.9930   15.1560   -0.7170 C   0  0  0  0  0  0  0  0  0  0  0  0
   -2.3160   13.1530   -3.6610 C   0  0  0  0  0  0  0  0  0  0  0  0
   -1.8750   15.5400   -3.6210 C   0  0  2  0  0  0  0  0  0  0  0  0
   -1.4720   15.1500   -1.0950 C   0  0  2  0  0  0  0  0  0  0  0  0
   -0.8590   13.1130   -4.1600 C   0  0  1  0  0  0  0  0  0  0  0  0
   -0.6500   15.5100    0.0770 N   0  0  0  0  0  0  0  0  0  0  0  0
   -3.1430   12.3110   -3.8460 O   0  0  0  0  0  0  0  0  0  0  0  0
   -0.7170   15.2260   -4.5600 C   0  0  1  0  0  0  0  0  0  0  0  0
   -1.3240   16.0790   -2.3700 C   0  0  1  0  0  0  0  0  0  0  0  0
   -0.1280   11.8060   -4.3310 C   0  0  0  0  0  0  0  0  0  0  0  0
   -0.8340   13.9830   -5.3680 C   0  0  0  0  0  0  0  0  0  0  0  0
   -0.1240   16.9750   -2.5740 C   0  0  0  0  0  0  0  0  0  0  0  0
    0.1390   16.2810   -5.1170 C   0  0  0  0  0  0  0  0  0  0  0  0
    0.6610   11.4930   -3.0930 C   0  0  0  0  0  0  0  0  0  0  0  0
    0.7740   17.3970   -4.0140 S   0  0  0  0  0  0  0  0  0  0  0  0
    0.2810   10.3450   -2.5070 O   0  0  0  0  0  0  0  0  0  0  0  0
    1.5620   12.1850   -2.6300 O   0  0  0  0  0  0  0  0  0  0  0  0
  2  1  1  1
  2  3  1  0
  2  4  1  0
  3  5  1  6
  3  6  1  0
  4  7  1  0
  5  8  1  0
  7  9  1  1
  5 10  2  0
  6 11  1  6
  6 12  1  0
  7 12  1  0
  8 13  1  6
  8 14  1  0
 11 14  1  6
 12 15  1  6
 11 16  1  0
 13 17  1  0
 15 18  2  0
 16 18  2  0
 17 19  1  0
 17 20  2  0
M  END
