mac-x0412-mac-x0379
     RDKit          3D

 15 16  0  0  0  0  0  0  0  0999 V2000
   -7.6040   14.3060   -0.4470 O   0  0  0  0  0  0  0  0  0  0  0  0
   -6.6800   14.7950    0.1910 C   0  0  0  0  0  0  0  0  0  0  0  0
   -6.7420   14.8570    1.5570 N   0  0  0  0  0  0  0  0  0  0  0  0
   -5.4050   15.4160   -0.4720 C   0  0  1  0  0  0  0  0  0  0  0  0
   -4.1610   15.0140    0.2890 C   0  0  0  0  0  0  0  0  0  0  0  0
   -5.6230   14.8500    2.1790 C   0  0  0  0  0  0  0  0  0  0  0  0
   -5.2930   15.1270   -1.9190 C   0  0  0  0  0  0  0  0  0  0  0  0
   -6.6040   15.1160   -2.5900 C   0  0  0  0  0  0  0  0  0  0  0  0
   -4.2610   14.7390    1.5900 C   0  0  0  0  0  0  0  0  0  0  0  0
   -2.8940   14.9500   -0.4550 C   0  0  0  0  0  0  0  0  0  0  0  0
   -4.1250   14.8940   -2.5420 C   0  0  0  0  0  0  0  0  0  0  0  0
   -2.8590   14.8960   -1.8230 C   0  0  0  0  0  0  0  0  0  0  0  0
   -1.5800   14.8320   -2.6460 C   0  0  0  0  0  0  0  0  0  0  0  0
   -1.5140   14.6210   -3.8520 O   0  0  0  0  0  0  0  0  0  0  0  0
   -0.4380   15.0410   -1.9610 O   0  0  0  0  0  0  0  0  0  0  0  0
  1  2  2  0
  2  3  1  0
  4  2  1  1
  4  5  1  0
  3  6  2  0
  4  7  1  0
  7  8  1  0
  5  9  2  0
  6  9  1  0
  5 10  1  0
  7 11  2  0
 10 12  2  0
 11 12  1  0
 12 13  1  0
 13 14  2  0
 13 15  1  0
M  END
