mac-x0546-diamond-x0742_0_A
     RDKit          3D

 32 36  0  0  0  0  0  0  0  0999 V2000
   -4.4470   15.4180   -6.1610 C   0  0  0  0  0  0  0  0  0  0  0  0
   -3.5720   16.5450   -6.1240 O   0  0  0  0  0  0  0  0  0  0  0  0
   -2.3940   16.3400   -5.4810 C   0  0  0  0  0  0  0  0  0  0  0  0
   -1.9200   15.1360   -5.1440 C   0  0  0  0  0  0  0  0  0  0  0  0
   -1.6470   17.5650   -5.1740 C   0  0  0  0  0  0  0  0  0  0  0  0
   -0.6360   15.0490   -4.4270 C   0  0  2  0  0  0  0  0  0  0  0  0
   -0.3430   17.5590   -4.8220 C   0  0  0  0  0  0  0  0  0  0  0  0
    0.2500   16.2180   -4.7830 C   0  0  0  0  0  0  0  0  0  0  0  0
    0.3690   13.9820   -4.6790 C   0  0  0  0  0  0  0  0  0  0  0  0
    0.0710   12.5390   -4.5640 C   0  0  0  0  0  0  0  0  0  0  0  0
    1.4790   15.9240   -5.0150 N   0  0  0  0  0  0  0  0  0  0  0  0
    1.5170   14.5540   -4.9410 C   0  0  0  0  0  0  0  0  0  0  0  0
    0.2840   12.2990   -3.1280 C   0  0  0  0  0  0  0  0  0  0  0  0
    0.5540   13.3610   -2.4790 N   0  0  0  0  0  0  0  0  0  0  0  0
    0.1690   11.0240   -2.6920 O   0  0  0  0  0  0  0  0  0  0  0  0
    0.7830   13.3470   -1.0980 C   0  0  0  0  0  0  0  0  0  0  0  0
   -0.4040   13.7710   -0.3390 C   0  0  0  0  0  0  0  0  0  0  0  0
   -0.3950   14.0550    1.0300 C   0  0  0  0  0  0  0  0  0  0  0  0
   -1.5920   13.8760   -1.0210 C   0  0  0  0  0  0  0  0  0  0  0  0
   -1.4790   14.4220    1.7310 N   0  0  0  0  0  0  0  0  0  0  0  0
   -2.7190   14.2440   -0.3390 C   0  0  0  0  0  0  0  0  0  0  0  0
   -4.0650   14.3800   -0.9710 C   0  0  1  0  0  0  0  0  0  0  0  0
   -2.6140   14.5020    1.0100 C   0  0  0  0  0  0  0  0  0  0  0  0
   -5.2430   13.7480   -0.1580 C   0  0  1  0  0  0  0  0  0  0  0  0
   -4.5760   15.7440   -1.3620 C   0  0  0  0  0  0  0  0  0  0  0  0
   -3.8650   14.8860    1.6950 C   0  0  0  0  0  0  0  0  0  0  0  0
   -5.5360   12.2770   -0.5080 C   0  0  0  0  0  0  0  0  0  0  0  0
   -4.9970   13.9020    1.3570 C   0  0  0  0  0  0  0  0  0  0  0  0
   -6.5010   14.4970   -0.6590 C   0  0  0  0  0  0  0  0  0  0  0  0
   -6.0260   15.4720   -1.7300 C   0  0  0  0  0  0  0  0  0  0  0  0
   -4.9910   11.6710   -1.4340 O   0  0  0  0  0  0  0  0  0  0  0  0
   -6.5680   11.5930    0.3540 C   0  0  0  0  0  0  0  0  0  0  0  0
  1  2  1  0
  2  3  1  0
  3  4  2  0
  3  5  1  0
  6  4  1  6
  5  7  2  0
  6  8  1  0
  7  8  1  0
  6  9  1  0
  9 10  1  0
  8 11  2  0
  9 12  2  0
 11 12  1  0
 10 13  1  0
 13 14  2  3
 13 15  1  0
 14 16  1  0
 16 17  1  0
 17 18  2  0
 17 19  1  0
 18 20  1  0
 19 21  2  0
 21 22  1  0
 20 23  2  0
 21 23  1  0
 22 24  1  0
 22 25  1  1
 23 26  1  0
 24 27  1  1
 24 28  1  0
 26 28  1  0
 24 29  1  0
 25 30  1  0
 29 30  1  0
 27 31  2  0
 27 32  1  0
M  END
