mac-x0379-mac-x0224
     RDKit          3D

 11 11  0  0  0  0  0  0  0  0999 V2000
   -5.0310   14.9760    0.2360 C   0  0  0  0  0  0  0  0  0  0  0  0
   -3.9540   15.4630    1.6020 S   0  0  0  0  0  0  0  0  0  0  0  0
   -4.2040   14.9890   -0.9890 C   0  0  0  0  0  0  0  0  0  0  0  0
   -4.6570   15.1480   -2.2110 N   0  0  0  0  0  0  0  0  0  0  0  0
   -2.5130   14.7760   -0.8380 S   0  0  0  0  0  0  0  0  0  0  0  0
   -3.5990   15.1210   -3.0960 C   0  0  0  0  0  0  0  0  0  0  0  0
   -2.3510   14.9290   -2.5380 C   0  0  0  0  0  0  0  0  0  0  0  0
   -1.0460   14.8640   -3.1700 C   0  0  0  0  0  0  0  0  0  0  0  0
   -0.8830   14.6590   -4.3680 O   0  0  0  0  0  0  0  0  0  0  0  0
    0.2290   15.0610   -2.4300 N   0  0  0  0  0  0  0  0  0  0  0  0
    0.6270   14.0640   -1.8040 O   0  0  0  0  0  0  0  0  0  0  0  0
  1  2  1  0
  1  3  1  0
  3  4  2  0
  3  5  1  0
  4  6  1  0
  5  7  1  0
  6  7  2  0
  7  8  1  0
  8  9  2  0
  8 10  1  0
 10 11  2  0
M  END
