mac-x0337-mac-x0392
     RDKit          3D

 21 22  0  0  0  0  0  0  0  0999 V2000
   -5.8270    8.8410   -2.4450 C   0  0  0  0  0  0  0  0  0  0  0  0
   -5.4590   10.2210   -2.0080 C   0  0  0  0  0  0  0  0  0  0  0  0
   -6.3080   10.9190   -1.1450 C   0  0  0  0  0  0  0  0  0  0  0  0
   -4.2690   10.8060   -2.4560 C   0  0  0  0  0  0  0  0  0  0  0  0
   -3.9330   12.0870   -2.0410 C   0  0  0  0  0  0  0  0  0  0  0  0
   -5.9760   12.1940   -0.7310 C   0  0  0  0  0  0  0  0  0  0  0  0
   -4.8030   12.7510   -1.1840 C   0  0  0  0  0  0  0  0  0  0  0  0
   -4.4360   14.3430   -0.6380 S   0  0  2  0  0  0  0  0  0  0  0  0
   -4.0370   15.1220   -1.7990 O   0  0  0  0  0  0  0  0  0  0  0  0
   -3.7480   14.2030    0.7290 N   0  0  0  0  0  0  0  0  0  0  0  0
   -5.8350   15.1550   -0.1840 N   0  0  0  0  0  0  0  0  0  0  0  0
   -2.7320   15.1960    0.8720 N   0  0  0  0  0  0  0  0  0  0  0  0
   -3.0200   15.9020   -0.2390 C   0  0  0  0  0  0  0  0  0  0  0  0
   -1.4120   14.5660    1.0540 C   0  0  0  0  0  0  0  0  0  0  0  0
   -0.3440   14.9230   -0.0040 C   0  0  1  0  0  0  0  0  0  0  0  0
   -2.2330   16.0650   -1.2750 C   0  0  0  0  0  0  0  0  0  0  0  0
    0.4940   13.7530   -0.2740 N   0  0  0  0  0  0  0  0  0  0  0  0
   -0.8500   15.5400   -1.3350 C   0  0  2  0  0  0  0  0  0  0  0  0
   -0.6930   14.6490   -2.5660 C   0  0  0  0  0  0  0  0  0  0  0  0
   -1.5430   14.3390   -3.3840 O   0  0  0  0  0  0  0  0  0  0  0  0
    0.5670   14.1990   -2.7320 O   0  0  0  0  0  0  0  0  0  0  0  0
  1  2  1  0
  2  3  2  0
  2  4  1  0
  4  5  2  0
  3  6  1  0
  5  7  1  0
  6  7  2  0
  7  8  1  0
  8  9  2  0
  8 10  2  0
  8 11  1  1
 10 12  1  0
 12 13  1  0
 12 14  1  0
 14 15  1  0
 13 16  2  0
 15 17  1  6
 15 18  1  0
 16 18  1  0
 18 19  1  6
 19 20  2  0
 19 21  1  0
M  END
