mac-x0546-mac-x0441
     RDKit          3D

 28 31  0  0  0  0  0  0  0  0999 V2000
   -4.3070   15.3060   -5.8690 C   0  0  0  0  0  0  0  0  0  0  0  0
   -3.5120   16.2810   -5.1950 O   0  0  0  0  0  0  0  0  0  0  0  0
   -2.1660   16.1090   -5.2340 C   0  0  0  0  0  0  0  0  0  0  0  0
   -1.5180   14.9320   -5.1340 C   0  0  0  0  0  0  0  0  0  0  0  0
   -1.4250   17.3600   -5.4120 C   0  0  0  0  0  0  0  0  0  0  0  0
   -0.0300   14.8970   -5.2340 C   0  0  1  0  0  0  0  0  0  0  0  0
   -0.1050   17.4570   -5.1670 C   0  0  0  0  0  0  0  0  0  0  0  0
    0.5120   16.2020   -4.7080 C   0  0  0  0  0  0  0  0  0  0  0  0
    0.8520   13.9860   -4.4800 C   0  0  0  0  0  0  0  0  0  0  0  0
    0.8430   12.4860   -4.5220 C   0  0  1  0  0  0  0  0  0  0  0  0
    1.4800   16.0910   -3.8750 N   0  0  0  0  0  0  0  0  0  0  0  0
    1.6850   14.7410   -3.7570 C   0  0  0  0  0  0  0  0  0  0  0  0
    0.4500   11.9590   -3.1210 C   0  0  0  0  0  0  0  0  0  0  0  0
    0.1470   11.8570   -5.7080 N   0  0  0  0  0  0  0  0  0  0  0  0
    0.5630   12.5520   -2.0540 O   0  0  0  0  0  0  0  0  0  0  0  0
   -0.0540   10.7100   -3.1240 O   0  0  0  0  0  0  0  0  0  0  0  0
    1.0150   11.7890   -6.9120 N   0  0  0  0  0  0  0  0  0  0  0  0
   -0.5120   10.5370   -5.6070 C   0  0  2  0  0  0  0  0  0  0  0  0
    0.1800   11.0150   -7.8830 C   0  0  2  0  0  0  0  0  0  0  0  0
   -0.3000    9.8680   -6.9970 C   0  0  2  0  0  0  0  0  0  0  0  0
   -1.9790   10.6640   -5.2410 C   0  0  0  0  0  0  0  0  0  0  0  0
    0.8290   10.4540   -9.1660 C   0  0  0  0  0  0  0  0  0  0  0  0
   -1.4570    9.0680   -7.5390 C   0  0  0  0  0  0  0  0  0  0  0  0
   -2.9550   10.0120   -5.8940 C   0  0  0  0  0  0  0  0  0  0  0  0
    1.5330    9.3250   -8.9250 F   0  0  0  0  0  0  0  0  0  0  0  0
   -0.1070   10.1260  -10.0750 F   0  0  0  0  0  0  0  0  0  0  0  0
    1.6310   11.3090   -9.8130 F   0  0  0  0  0  0  0  0  0  0  0  0
   -2.6820    9.1430   -7.0090 C   0  0  0  0  0  0  0  0  0  0  0  0
  1  2  1  0
  2  3  1  0
  3  4  2  0
  3  5  1  0
  6  4  1  1
  5  7  2  0
  6  8  1  0
  7  8  1  0
  6  9  1  0
  9 10  1  0
  8 11  2  0
  9 12  2  0
 11 12  1  0
 10 13  1  1
 10 14  1  0
 13 15  2  0
 13 16  1  0
 14 17  1  0
 14 18  1  0
 17 19  1  0
 18 20  1  0
 19 20  1  0
 18 21  1  6
 19 22  1  6
 20 23  1  6
 21 24  2  0
 22 25  1  0
 22 26  1  0
 22 27  1  0
 23 28  2  0
 24 28  1  0
M  END
