mac-x0223-mac-x0302
     RDKit          3D

 24 25  0  0  0  0  0  0  0  0999 V2000
    1.2300   18.5070   -5.7340 C   0  0  0  0  0  0  0  0  0  0  0  0
    0.2610   18.2980   -4.7340 O   0  0  0  0  0  0  0  0  0  0  0  0
   -0.2460   17.0440   -4.7380 C   0  0  0  0  0  0  0  0  0  0  0  0
   -1.6160   17.0000   -4.9290 C   0  0  0  0  0  0  0  0  0  0  0  0
    0.4670   15.8700   -4.5690 C   0  0  0  0  0  0  0  0  0  0  0  0
   -2.2920   18.1760   -5.0630 O   0  0  0  0  0  0  0  0  0  0  0  0
   -2.3070   15.8010   -4.9770 C   0  0  0  0  0  0  0  0  0  0  0  0
   -0.2120   14.6430   -4.5950 C   0  0  0  0  0  0  0  0  0  0  0  0
    0.5300   13.3580   -4.3710 C   0  0  0  0  0  0  0  0  0  0  0  0
   -1.5990   14.6190   -4.8080 C   0  0  0  0  0  0  0  0  0  0  0  0
    0.2820   12.9290   -2.9010 C   0  0  0  0  0  0  0  0  0  0  0  0
   -0.2960   11.6290   -2.8210 O   0  0  0  0  0  0  0  0  0  0  0  0
    1.4780   12.8650   -2.1520 O   0  0  0  0  0  0  0  0  0  0  0  0
   -0.6780   14.0090   -2.2560 C   0  0  0  0  0  0  0  0  0  0  0  0
   -2.1050   13.8710   -2.5470 N   0  0  0  0  0  0  0  0  0  0  0  0
   -3.0140   14.9180   -2.4240 C   0  0  0  0  0  0  0  0  0  0  0  0
   -3.2210   15.7660   -3.2700 O   0  0  0  0  0  0  0  0  0  0  0  0
   -3.8100   14.9700   -1.1780 C   0  0  0  0  0  0  0  0  0  0  0  0
   -5.1990   14.9650   -1.3120 C   0  0  0  0  0  0  0  0  0  0  0  0
   -3.2170   15.0160    0.0870 C   0  0  0  0  0  0  0  0  0  0  0  0
   -5.9900   14.9990   -0.1770 C   0  0  0  0  0  0  0  0  0  0  0  0
   -4.0210   15.0540    1.2210 C   0  0  0  0  0  0  0  0  0  0  0  0
   -7.3510   14.9940   -0.2660 O   0  0  0  0  0  0  0  0  0  0  0  0
   -5.4070   15.0410    1.0900 C   0  0  0  0  0  0  0  0  0  0  0  0
  1  2  1  0
  2  3  1  0
  3  4  2  0
  3  5  1  0
  4  6  1  0
  4  7  1  0
  5  8  2  0
  8  9  1  0
  7 10  2  0
  8 10  1  0
  9 11  1  0
 11 12  1  0
 11 13  1  0
 11 14  1  0
 14 15  1  0
 15 16  1  0
 16 17  2  0
 16 18  1  0
 18 19  2  0
 18 20  1  0
 19 21  1  0
 20 22  2  0
 21 23  1  0
 21 24  2  0
 22 24  1  0
M  END
