mac-x0212-mac-x0361
     RDKit          3D

 14 14  0  0  0  0  0  0  0  0999 V2000
   -6.4740   12.7350    1.4160 C   0  0  0  0  0  0  0  0  0  0  0  0
   -6.9090   14.4240    1.0580 S   0  0  0  0  0  0  0  0  0  0  0  0
   -7.7530   14.9070    2.1330 O   0  0  0  0  0  0  0  0  0  0  0  0
   -7.3270   14.5250   -0.3220 O   0  0  0  0  0  0  0  0  0  0  0  0
   -5.3910   15.1590    1.2910 N   0  0  0  0  0  0  0  0  0  0  0  0
   -4.4940   15.0190    0.1860 C   0  0  0  0  0  0  0  0  0  0  0  0
   -3.2580   14.4240    0.4150 C   0  0  0  0  0  0  0  0  0  0  0  0
   -4.8460   15.4580   -1.0970 C   0  0  0  0  0  0  0  0  0  0  0  0
   -2.3630   14.2530   -0.6410 C   0  0  0  0  0  0  0  0  0  0  0  0
   -3.9510   15.2880   -2.1610 C   0  0  0  0  0  0  0  0  0  0  0  0
   -2.7120   14.6810   -1.9300 C   0  0  0  0  0  0  0  0  0  0  0  0
   -1.7370   14.4690   -3.0270 C   0  0  0  0  0  0  0  0  0  0  0  0
   -0.5860   14.1180   -2.8340 O   0  0  0  0  0  0  0  0  0  0  0  0
   -2.2600   14.6910   -4.2530 O   0  0  0  0  0  0  0  0  0  0  0  0
  1  2  1  0
  2  3  2  0
  2  4  2  0
  2  5  1  0
  5  6  1  0
  6  7  2  0
  6  8  1  0
  7  9  1  0
  8 10  2  0
  9 11  2  0
 10 11  1  0
 11 12  1  0
 12 13  2  0
 12 14  1  0
M  END
