mac-x0344-mac-x0358
     RDKit          3D

 18 20  0  0  0  0  0  0  0  0999 V2000
    1.9510   13.3040   -4.7450 O   0  0  0  0  0  0  0  0  0  0  0  0
    0.8220   13.0110   -3.9670 C   0  0  0  0  0  0  0  0  0  0  0  0
    1.1010   13.3700   -2.6290 O   0  0  0  0  0  0  0  0  0  0  0  0
    0.2400   11.5560   -4.0960 C   0  0  0  0  0  0  0  0  0  0  0  0
   -0.3990   13.7280   -4.5190 C   0  0  0  0  0  0  0  0  0  0  0  0
    0.3620   10.6480   -3.2820 O   0  0  0  0  0  0  0  0  0  0  0  0
   -0.4560   11.6050   -5.3140 N   0  0  0  0  0  0  0  0  0  0  0  0
   -1.1290   12.8340   -5.3030 C   0  0  0  0  0  0  0  0  0  0  0  0
   -0.8280   15.0370   -4.3410 C   0  0  0  0  0  0  0  0  0  0  0  0
   -0.9910   10.5140   -6.0190 C   0  0  0  0  0  0  0  0  0  0  0  0
   -2.3140   13.2240   -5.9130 C   0  0  0  0  0  0  0  0  0  0  0  0
   -2.0200   15.4390   -4.9570 C   0  0  0  0  0  0  0  0  0  0  0  0
   -0.6690   10.3150   -7.3640 C   0  0  0  0  0  0  0  0  0  0  0  0
   -1.8600    9.6130   -5.4150 C   0  0  0  0  0  0  0  0  0  0  0  0
   -2.7600   14.5360   -5.7350 C   0  0  0  0  0  0  0  0  0  0  0  0
   -1.2180    9.2440   -8.0780 C   0  0  0  0  0  0  0  0  0  0  0  0
   -2.4110    8.5520   -6.1140 C   0  0  0  0  0  0  0  0  0  0  0  0
   -2.0930    8.3650   -7.4470 C   0  0  0  0  0  0  0  0  0  0  0  0
  2  1  1  0
  2  3  1  0
  2  4  1  0
  2  5  1  0
  4  6  2  0
  4  7  1  0
  5  8  2  0
  7  8  1  0
  5  9  1  0
  7 10  1  0
  8 11  1  0
  9 12  2  0
 10 13  2  0
 10 14  1  0
 11 15  2  0
 12 15  1  0
 13 16  1  0
 14 17  2  0
 16 18  2  0
 17 18  1  0
M  END
