mac-x0510-diamond-x0969_0_A
     RDKit          3D

 14 16  0  0  0  0  0  0  0  0999 V2000
   -3.1170   15.1850   -2.6170 O   0  0  0  0  0  0  0  0  0  0  0  0
   -3.3370   15.2130   -1.4140 C   0  0  0  0  0  0  0  0  0  0  0  0
   -2.3890   14.9470   -0.3850 C   0  0  0  0  0  0  0  0  0  0  0  0
   -4.5550   15.5240   -0.8770 N   0  0  0  0  0  0  0  0  0  0  0  0
   -5.0200   14.6620    0.1880 C   0  0  0  0  0  0  0  0  0  0  0  0
   -2.7400   14.7390    0.9120 C   0  0  0  0  0  0  0  0  0  0  0  0
   -1.0260   14.8490   -0.4020 N   0  0  0  0  0  0  0  0  0  0  0  0
   -4.0340   14.7570    1.2810 N   0  0  0  0  0  0  0  0  0  0  0  0
   -1.6690   14.5310    1.7130 N   0  0  0  0  0  0  0  0  0  0  0  0
   -0.6390   14.6000    0.8900 C   0  0  0  0  0  0  0  0  0  0  0  0
   -6.4850   14.9190    0.5820 C   0  0  0  0  0  0  0  0  0  0  0  0
   -5.1910   13.2930   -0.4690 C   0  0  0  0  0  0  0  0  0  0  0  0
   -7.2390   13.7010    0.3340 N   0  0  0  0  0  0  0  0  0  0  0  0
   -6.6090   13.2530   -0.8660 N   0  0  0  0  0  0  0  0  0  0  0  0
  1  2  2  0
  2  3  1  0
  2  4  1  0
  5  4  1  0
  3  6  2  0
  3  7  1  0
  5  8  1  0
  6  8  1  0
  6  9  1  0
  7 10  1  0
  9 10  2  0
  5 11  1  0
  5 12  1  0
 11 13  1  0
 12 14  1  0
 13 14  1  0
M  END
