mac-x0303-mac-x0348
     RDKit          3D

 31 34  0  0  0  0  0  0  0  0999 V2000
   -8.3580   12.8440    2.5920 N   0  0  0  0  0  0  0  0  0  0  0  0
   -8.5400   14.4100    1.9960 S   0  0  0  0  0  0  0  0  0  0  0  0
   -8.4040   15.3450    3.0860 O   0  0  0  0  0  0  0  0  0  0  0  0
   -9.6760   14.4260    1.1060 O   0  0  0  0  0  0  0  0  0  0  0  0
   -7.1270   14.6990    0.9850 C   0  0  0  0  0  0  0  0  0  0  0  0
   -7.1380   14.8370   -0.3790 N   0  0  0  0  0  0  0  0  0  0  0  0
   -5.9090   14.8250    1.4680 N   0  0  0  0  0  0  0  0  0  0  0  0
   -5.8410   15.0750   -0.7840 C   0  0  0  0  0  0  0  0  0  0  0  0
   -5.1070   15.0610    0.3930 C   0  0  0  0  0  0  0  0  0  0  0  0
   -5.2630   15.2960   -2.0260 C   0  0  0  0  0  0  0  0  0  0  0  0
   -3.7240   15.2780    0.3590 C   0  0  0  0  0  0  0  0  0  0  0  0
   -3.8720   15.5150   -2.0440 C   0  0  0  0  0  0  0  0  0  0  0  0
   -3.0970   15.5110   -0.8690 C   0  0  0  0  0  0  0  0  0  0  0  0
   -1.6000   15.7600   -0.9320 C   0  0  0  0  0  0  0  0  0  0  0  0
   -0.6700   14.5580   -0.7510 C   0  0  0  0  0  0  0  0  0  0  0  0
    0.5320   14.6760   -1.6980 C   0  0  0  0  0  0  0  0  0  0  0  0
    0.2080   14.2730   -3.1540 C   0  0  2  0  0  0  0  0  0  0  0  0
    0.9960   13.0720   -3.6230 C   0  0  0  0  0  0  0  0  0  0  0  0
   -0.0440   15.4480   -4.0600 C   0  0  0  0  0  0  0  0  0  0  0  0
    0.7010   12.0350   -2.5910 C   0  0  0  0  0  0  0  0  0  0  0  0
    0.8490   16.4410   -4.4030 C   0  0  0  0  0  0  0  0  0  0  0  0
   -1.2500   15.7450   -4.7160 C   0  0  0  0  0  0  0  0  0  0  0  0
    0.7390   12.2400   -1.3920 O   0  0  0  0  0  0  0  0  0  0  0  0
    0.3460   10.8380   -3.0880 O   0  0  0  0  0  0  0  0  0  0  0  0
    0.2200   17.3210   -5.2390 N   0  0  0  0  0  0  0  0  0  0  0  0
   -1.0730   16.9210   -5.4370 C   0  0  0  0  0  0  0  0  0  0  0  0
   -2.4880   15.0930   -4.7440 C   0  0  0  0  0  0  0  0  0  0  0  0
    0.8300   18.4920   -5.8170 C   0  0  0  0  0  0  0  0  0  0  0  0
   -3.5140   15.6280   -5.4770 C   0  0  0  0  0  0  0  0  0  0  0  0
   -2.1050   17.4740   -6.1780 C   0  0  0  0  0  0  0  0  0  0  0  0
   -3.3080   16.7920   -6.1640 C   0  0  0  0  0  0  0  0  0  0  0  0
  2  1  1  0
  2  3  2  0
  2  4  2  0
  2  5  1  0
  5  6  1  0
  5  7  2  0
  6  8  1  0
  7  9  1  0
  8  9  2  0
  8 10  1  0
  9 11  1  0
 10 12  2  0
 11 13  2  0
 12 13  1  0
 13 14  1  0
 14 15  1  0
 15 16  1  0
 17 16  1  1
 17 18  1  0
 17 19  1  0
 18 20  1  0
 19 21  2  0
 19 22  1  0
 20 23  2  0
 20 24  1  0
 21 25  1  0
 22 26  2  0
 25 26  1  0
 22 27  1  0
 25 28  1  0
 27 29  2  0
 26 30  1  0
 29 31  1  0
 30 31  2  0
M  END
