mac-x0321-mac-x1494
     RDKit          3D

 13 14  0  0  0  0  0  0  0  0999 V2000
   -0.9280   14.6840   -1.7530 O   0  0  0  0  0  0  0  0  0  0  0  0
   -1.9520   14.6020   -2.6270 C   0  0  0  0  0  0  0  0  0  0  0  0
   -1.7690   14.8920   -3.8000 O   0  0  0  0  0  0  0  0  0  0  0  0
   -3.2530   14.1170   -1.9950 C   0  0  1  0  0  0  0  0  0  0  0  0
   -3.5300   14.4420   -0.4990 C   0  0  0  0  0  0  0  0  0  0  0  0
   -4.4260   14.5650   -2.8620 C   0  0  0  0  0  0  0  0  0  0  0  0
   -5.4860   15.2540   -2.4220 C   0  0  0  0  0  0  0  0  0  0  0  0
   -4.2400   15.7720   -0.3940 C   0  0  0  0  0  0  0  0  0  0  0  0
   -4.2590   13.3010    0.2580 C   0  0  0  0  0  0  0  0  0  0  0  0
   -2.4220   14.2980    0.5810 C   0  0  0  0  0  0  0  0  0  0  0  0
   -5.6210   15.6820   -1.0080 C   0  0  2  0  0  0  0  0  0  0  0  0
   -3.3340   13.4600    1.3720 N   0  0  0  0  0  0  0  0  0  0  0  0
   -6.4890   14.7160   -0.2570 C   0  0  0  0  0  0  0  0  0  0  0  0
  1  2  1  0
  2  3  2  0
  4  2  1  6
  4  5  1  0
  4  6  1  0
  6  7  2  0
  5  8  1  0
  5  9  1  0
  5 10  1  0
  7 11  1  0
  8 11  1  0
  9 12  1  0
 10 12  1  0
 11 13  1  1
M  END
