mac-x0411-mac-x0338
     RDKit          3D

 24 25  0  0  0  0  0  0  0  0999 V2000
    0.4540    8.8160   -7.6420 Cl  0  0  0  0  0  0  0  0  0  0  0  0
   -0.7550    9.7600   -6.8370 C   0  0  0  0  0  0  0  0  0  0  0  0
   -0.4990   11.0270   -6.2430 C   0  0  0  0  0  0  0  0  0  0  0  0
   -2.0300    9.2140   -6.8010 C   0  0  0  0  0  0  0  0  0  0  0  0
    0.7850   11.5330   -6.2850 O   0  0  0  0  0  0  0  0  0  0  0  0
   -1.5520   11.7640   -5.6220 C   0  0  0  0  0  0  0  0  0  0  0  0
   -3.0630    9.9110   -6.1940 C   0  0  0  0  0  0  0  0  0  0  0  0
   -1.2970   13.1520   -4.9820 C   0  0  0  0  0  0  0  0  0  0  0  0
    1.1360   12.4690   -5.2470 C   0  0  0  0  0  0  0  0  0  0  0  0
   -2.8290   11.1680   -5.6190 C   0  0  0  0  0  0  0  0  0  0  0  0
    0.9120   11.9160   -3.8390 C   0  0  0  0  0  0  0  0  0  0  0  0
   -2.3330   14.3150   -5.1340 C   0  0  0  0  0  0  0  0  0  0  0  0
    1.3610   12.7630   -2.8810 O   0  0  0  0  0  0  0  0  0  0  0  0
    0.4160   10.8560   -3.5030 O   0  0  0  0  0  0  0  0  0  0  0  0
   -3.7430   14.1940   -4.5050 C   0  0  0  0  0  0  0  0  0  0  0  0
   -4.0030   14.5010   -3.0230 C   0  0  0  0  0  0  0  0  0  0  0  0
   -3.0100   14.7310   -2.0590 C   0  0  0  0  0  0  0  0  0  0  0  0
   -5.3070   14.5250   -2.6650 N   0  0  0  0  0  0  0  0  0  0  0  0
   -3.2880   14.9590   -0.7360 N   0  0  0  0  0  0  0  0  0  0  0  0
   -5.5980   14.7460   -1.3650 C   0  0  0  0  0  0  0  0  0  0  0  0
   -4.6200   14.9460   -0.4240 C   0  0  0  0  0  0  0  0  0  0  0  0
   -5.0510   15.1410    0.9830 C   0  0  0  0  0  0  0  0  0  0  0  0
   -4.0920   15.4360    1.8930 N   0  0  0  0  0  0  0  0  0  0  0  0
   -6.2220   15.0100    1.3190 O   0  0  0  0  0  0  0  0  0  0  0  0
  1  2  1  0
  2  3  2  0
  2  4  1  0
  3  5  1  0
  3  6  1  0
  4  7  2  0
  6  8  1  0
  5  9  1  0
  6 10  2  0
  7 10  1  0
  9 11  1  0
  8 12  1  0
 11 13  1  0
 11 14  2  0
 12 15  1  0
 15 16  1  0
 16 17  2  0
 16 18  1  0
 17 19  1  0
 18 20  2  0
 19 21  2  0
 20 21  1  0
 21 22  1  0
 22 23  1  0
 22 24  2  0
M  END
