mac-x0584-diamond-x0421_0_A
     RDKit          3D

 23 27  0  0  0  0  0  0  0  0999 V2000
   -5.2270   15.0680   -2.6280 N   0  0  0  0  0  0  0  0  0  0  0  0
   -4.0530   14.5720   -2.1920 C   0  0  0  0  0  0  0  0  0  0  0  0
   -3.2250   14.0880   -2.9390 O   0  0  0  0  0  0  0  0  0  0  0  0
   -3.7570   14.6250   -0.7870 C   0  0  0  0  0  0  0  0  0  0  0  0
   -2.4800   14.7510   -0.5080 C   0  0  0  0  0  0  0  0  0  0  0  0
   -4.6070   14.5300    0.4220 C   0  0  0  0  0  0  0  0  0  0  0  0
   -2.4970   14.7540    0.9420 C   0  0  0  0  0  0  0  0  0  0  0  0
   -1.2080   14.8770   -1.2390 C   0  0  0  0  0  0  0  0  0  0  0  0
   -3.6440   14.6770    1.5340 N   0  0  0  0  0  0  0  0  0  0  0  0
   -6.0730   14.8540    0.5860 C   0  0  0  0  0  0  0  0  0  0  0  0
   -5.6280   13.4270    0.5900 C   0  0  0  0  0  0  0  0  0  0  0  0
   -1.0850   14.9490   -2.6470 N   0  0  0  0  0  0  0  0  0  0  0  0
   -0.1390   14.9560   -0.5050 N   0  0  0  0  0  0  0  0  0  0  0  0
   -1.3220   14.8270    1.5820 N   0  0  0  0  0  0  0  0  0  0  0  0
    0.1860   14.8900   -3.4100 C   0  0  1  0  0  0  0  0  0  0  0  0
   -2.2020   15.1800   -3.5780 C   0  0  0  0  0  0  0  0  0  0  0  0
   -0.2520   14.9300    0.8680 C   0  0  0  0  0  0  0  0  0  0  0  0
    0.7000   13.4800   -3.3510 C   0  0  0  0  0  0  0  0  0  0  0  0
   -0.1730   15.3290   -4.8460 C   0  0  0  0  0  0  0  0  0  0  0  0
   -1.5900   15.8800   -4.7750 C   0  0  0  0  0  0  0  0  0  0  0  0
    1.6100   12.7820   -4.3860 C   0  0  0  0  0  0  0  0  0  0  0  0
   -0.4070   12.5370   -3.7940 C   0  0  0  0  0  0  0  0  0  0  0  0
    0.6150   11.5990   -4.3330 C   0  0  0  0  0  0  0  0  0  0  0  0
  1  2  1  0
  2  3  2  0
  2  4  1  0
  4  5  2  0
  4  6  1  0
  5  7  1  0
  5  8  1  0
  6  9  1  0
  7  9  2  0
  6 10  1  0
  6 11  1  0
 10 11  1  0
  8 12  1  0
  8 13  2  0
  7 14  1  0
 12 15  1  0
 12 16  1  0
 13 17  1  0
 14 17  2  0
 15 18  1  6
 15 19  1  0
 16 20  1  0
 19 20  1  0
 18 21  1  0
 18 22  1  0
 21 23  1  0
 22 23  1  0
M  END
