mac-x0226-diamond-x0626_0_A
     RDKit          3D

 28 30  0  0  0  0  0  0  0  0999 V2000
    1.6210   12.3660   -2.1490 O   0  0  0  0  0  0  0  0  0  0  0  0
    0.4050   11.9420   -2.7210 C   0  0  0  0  0  0  0  0  0  0  0  0
    0.1340   10.6610   -2.1510 O   0  0  0  0  0  0  0  0  0  0  0  0
   -0.6550   12.9660   -2.2720 C   0  0  0  0  0  0  0  0  0  0  0  0
    0.5710   11.8650   -4.2020 C   0  0  0  0  0  0  0  0  0  0  0  0
   -0.0820   14.3400   -1.8680 C   0  0  0  0  0  0  0  0  0  0  0  0
    1.4540   12.6130   -5.0110 C   0  0  0  0  0  0  0  0  0  0  0  0
   -0.0850   11.0530   -5.1050 C   0  0  0  0  0  0  0  0  0  0  0  0
    0.6580   14.2550   -0.5330 C   0  0  0  0  0  0  0  0  0  0  0  0
    1.3640   12.2970   -6.3010 N   0  0  0  0  0  0  0  0  0  0  0  0
    0.4100   11.3280   -6.3550 N   0  0  0  0  0  0  0  0  0  0  0  0
   -0.1530   14.6160    0.7150 C   0  0  0  0  0  0  0  0  0  0  0  0
    0.0260   10.7170   -7.5830 C   0  0  0  0  0  0  0  0  0  0  0  0
   -1.1060    9.9110   -7.6710 C   0  0  0  0  0  0  0  0  0  0  0  0
    0.7900   10.9220   -8.7250 C   0  0  0  0  0  0  0  0  0  0  0  0
   -1.5950   14.7130    0.4030 C   0  0  0  0  0  0  0  0  0  0  0  0
   -1.4490    9.3280   -8.8940 C   0  0  0  0  0  0  0  0  0  0  0  0
    0.4580   10.3480   -9.9420 C   0  0  0  0  0  0  0  0  0  0  0  0
   -2.5270   14.7140    1.4230 N   0  0  0  0  0  0  0  0  0  0  0  0
   -2.1130   14.8050   -0.8740 C   0  0  0  0  0  0  0  0  0  0  0  0
   -0.6680    9.5460  -10.0280 C   0  0  0  0  0  0  0  0  0  0  0  0
   -3.7240   14.8190    0.8710 C   0  0  0  0  0  0  0  0  0  0  0  0
   -3.8060   14.9140   -0.8270 S   0  0  0  0  0  0  0  0  0  0  0  0
   -4.9460   14.8630    1.4510 N   0  0  0  0  0  0  0  0  0  0  0  0
   -6.1350   14.6900    0.8120 C   0  0  0  0  0  0  0  0  0  0  0  0
   -6.1810   14.8320   -0.4160 O   0  0  0  0  0  0  0  0  0  0  0  0
   -7.3670   14.3350    1.6180 C   0  0  0  0  0  0  0  0  0  0  0  0
   -8.6490   14.6620    0.8700 C   0  0  0  0  0  0  0  0  0  0  0  0
  2  1  1  0
  2  3  1  0
  2  4  1  0
  2  5  1  0
  4  6  1  0
  5  7  1  0
  5  8  2  0
  6  9  1  0
  7 10  2  0
  8 11  1  0
 10 11  1  0
  9 12  1  0
 11 13  1  0
 13 14  2  0
 13 15  1  0
 12 16  1  0
 14 17  1  0
 15 18  2  0
 16 19  1  0
 16 20  2  0
 17 21  2  0
 18 21  1  0
 19 22  2  0
 20 23  1  0
 22 23  1  0
 22 24  1  0
 24 25  1  0
 25 26  2  0
 25 27  1  0
 27 28  1  0
M  END
