mac-x0321-mac-x0271
     RDKit          3D

 16 17  0  0  0  0  0  0  0  0999 V2000
   -4.3440   15.6190    1.6900 Cl  0  0  0  0  0  0  0  0  0  0  0  0
   -4.7200   15.7920   -0.0550 C   0  0  1  0  0  0  0  0  0  0  0  0
   -3.3470   15.5520   -0.7470 C   0  0  0  0  0  0  0  0  0  0  0  0
   -5.8850   14.8680   -0.5330 C   0  0  2  0  0  0  0  0  0  0  0  0
   -3.3270   14.4830   -1.8500 C   0  0  2  0  0  0  0  0  0  0  0  0
   -5.7710   14.6910   -2.0330 C   0  0  0  0  0  0  0  0  0  0  0  0
   -7.2430   15.4440   -0.3740 O   0  0  0  0  0  0  0  0  0  0  0  0
   -5.7500   13.6380    0.3130 C   0  0  0  0  0  0  0  0  0  0  0  0
   -2.0740   14.6270   -2.7260 C   0  0  0  0  0  0  0  0  0  0  0  0
   -4.5970   14.5230   -2.6400 C   0  0  0  0  0  0  0  0  0  0  0  0
   -6.4990   13.4380    1.4050 C   0  0  0  0  0  0  0  0  0  0  0  0
   -8.1310   15.0490    0.5880 C   0  0  0  0  0  0  0  0  0  0  0  0
   -0.9270   14.6850   -2.0010 O   0  0  0  0  0  0  0  0  0  0  0  0
   -2.0610   14.6790   -3.9450 O   0  0  0  0  0  0  0  0  0  0  0  0
   -9.3530   15.1960    0.4710 O   0  0  0  0  0  0  0  0  0  0  0  0
   -7.5260   14.4170    1.8100 C   0  0  0  0  0  0  0  0  0  0  0  0
  2  1  1  1
  2  3  1  0
  2  4  1  0
  3  5  1  0
  4  6  1  6
  4  7  1  0
  4  8  1  0
  5  9  1  6
  5 10  1  0
  6 10  2  0
  8 11  2  0
  7 12  1  0
  9 13  1  0
  9 14  2  0
 12 15  2  0
 11 16  1  0
 12 16  1  0
M  END
