mac-x0139-mac-x0496
     RDKit          3D

 27 29  0  0  0  0  0  0  0  0999 V2000
   -2.4150   14.5080   -3.3130 C   0  0  0  0  0  0  0  0  0  0  0  0
   -1.2960   14.8780   -2.4470 N   0  0  0  0  0  0  0  0  0  0  0  0
    0.0710   14.8220   -3.0400 C   0  0  0  0  0  0  0  0  0  0  0  0
   -3.2060   15.6500   -3.5560 O   0  0  0  0  0  0  0  0  0  0  0  0
   -1.4250   14.8370   -1.0380 C   0  0  0  0  0  0  0  0  0  0  0  0
    0.3530   13.5640   -3.8500 C   0  0  0  0  0  0  0  0  0  0  0  0
   -2.6470   14.8160   -0.4290 C   0  0  0  0  0  0  0  0  0  0  0  0
   -0.2460   14.8480   -0.2850 N   0  0  0  0  0  0  0  0  0  0  0  0
    0.9570   12.4960   -2.9910 C   0  0  0  0  0  0  0  0  0  0  0  0
   -2.6770   14.7850    1.0450 C   0  0  0  0  0  0  0  0  0  0  0  0
   -0.3460   14.8150    1.0060 C   0  0  0  0  0  0  0  0  0  0  0  0
   -4.0350   14.8150   -0.7850 C   0  0  0  0  0  0  0  0  0  0  0  0
    1.8570   12.6470   -2.1900 O   0  0  0  0  0  0  0  0  0  0  0  0
    0.3970   11.2850   -3.1760 O   0  0  0  0  0  0  0  0  0  0  0  0
   -1.5030   14.7420    1.7060 N   0  0  0  0  0  0  0  0  0  0  0  0
   -3.8880   14.7920    1.5110 N   0  0  0  0  0  0  0  0  0  0  0  0
   -4.7190   14.7880    0.3900 C   0  0  0  0  0  0  0  0  0  0  0  0
   -6.2400   14.7340    0.4270 C   0  0  0  0  0  0  0  0  0  0  0  0
   -6.9550   14.4500    1.5780 N   0  0  0  0  0  0  0  0  0  0  0  0
   -6.9030   14.9310   -0.5980 O   0  0  0  0  0  0  0  0  0  0  0  0
   -8.3920   14.1760    1.7030 C   0  0  0  0  0  0  0  0  0  0  0  0
   -9.1590   15.2510    2.4050 C   0  0  0  0  0  0  0  0  0  0  0  0
  -10.3990   15.5810    1.9200 O   0  0  0  0  0  0  0  0  0  0  0  0
   -8.8260   15.9580    3.4620 N   0  0  0  0  0  0  0  0  0  0  0  0
   -9.9100   16.7720    3.6400 C   0  0  0  0  0  0  0  0  0  0  0  0
  -10.8940   16.5910    2.7530 N   0  0  0  0  0  0  0  0  0  0  0  0
   -9.9730   17.7630    4.7310 C   0  0  0  0  0  0  0  0  0  0  0  0
  1  2  1  0
  2  3  1  0
  1  4  1  0
  2  5  1  0
  3  6  1  0
  5  7  2  0
  5  8  1  0
  6  9  1  0
  7 10  1  0
  8 11  2  0
  7 12  1  0
  9 13  2  0
  9 14  1  0
 10 15  1  0
 11 15  1  0
 10 16  2  0
 12 17  2  0
 16 17  1  0
 17 18  1  0
 18 19  1  0
 18 20  2  0
 19 21  1  0
 21 22  1  0
 22 23  1  0
 22 24  2  0
 24 25  1  0
 23 26  1  0
 25 26  2  0
 25 27  1  0
M  END
