mac-x0271-mac-x0338
     RDKit          3D

 15 16  0  0  0  0  0  0  0  0999 V2000
   -3.8510   15.3340   -3.1580 O   0  0  0  0  0  0  0  0  0  0  0  0
   -4.6000   15.1960   -2.0230 C   0  0  0  0  0  0  0  0  0  0  0  0
   -3.9340   15.2780   -0.8090 C   0  0  0  0  0  0  0  0  0  0  0  0
   -5.9830   14.9850   -2.0600 C   0  0  0  0  0  0  0  0  0  0  0  0
   -6.6750   14.8450   -0.8420 C   0  0  0  0  0  0  0  0  0  0  0  0
   -4.6780   15.1360    0.3650 C   0  0  0  0  0  0  0  0  0  0  0  0
   -4.1040   15.2220    1.6710 C   0  0  0  0  0  0  0  0  0  0  0  0
   -6.0240   14.9110    0.3690 C   0  0  0  0  0  0  0  0  0  0  0  0
   -8.0720   14.6330   -0.8560 O   0  0  0  0  0  0  0  0  0  0  0  0
   -2.9330   14.5930    1.8950 N   0  0  0  0  0  0  0  0  0  0  0  0
   -4.7130   15.8470    2.5100 O   0  0  0  0  0  0  0  0  0  0  0  0
   -6.7890   14.7420    1.6090 C   0  0  0  0  0  0  0  0  0  0  0  0
   -8.8290   14.8230    0.3050 C   0  0  0  0  0  0  0  0  0  0  0  0
  -10.0270   15.0730    0.2960 O   0  0  0  0  0  0  0  0  0  0  0  0
   -8.1090   14.7020    1.5730 C   0  0  0  0  0  0  0  0  0  0  0  0
  1  2  1  0
  2  3  2  0
  2  4  1  0
  4  5  2  0
  3  6  1  0
  6  7  1  0
  5  8  1  0
  6  8  2  0
  5  9  1  0
  7 10  1  0
  7 11  2  0
  8 12  1  0
  9 13  1  0
 13 14  2  0
 12 15  2  0
 13 15  1  0
M  END
