mac-x0228-mac-x0204
     RDKit          3D

 21 23  0  0  0  0  0  0  0  0999 V2000
   -0.8090   14.1150   -2.5820 C   0  0  0  0  0  0  0  0  0  0  0  0
   -1.6960   15.1990   -1.9650 C   0  0  0  0  0  0  0  0  0  0  0  0
   -1.1620   16.2690   -1.8490 O   0  0  0  0  0  0  0  0  0  0  0  0
   -0.5700   12.9580   -1.8050 O   0  0  0  0  0  0  0  0  0  0  0  0
    0.4740   14.6830   -2.8400 O   0  0  0  0  0  0  0  0  0  0  0  0
   -1.5030   13.9120   -3.8640 C   0  0  0  0  0  0  0  0  0  0  0  0
   -3.1550   15.0800   -1.6040 C   0  0  0  0  0  0  0  0  0  0  0  0
   -1.9470   15.0660   -4.5130 C   0  0  0  0  0  0  0  0  0  0  0  0
   -1.7660   12.6890   -4.4490 C   0  0  0  0  0  0  0  0  0  0  0  0
   -3.5940   14.7820   -0.3080 C   0  0  0  0  0  0  0  0  0  0  0  0
   -4.1250   15.2920   -2.6210 C   0  0  0  0  0  0  0  0  0  0  0  0
   -2.6300   14.9650   -5.6940 C   0  0  0  0  0  0  0  0  0  0  0  0
   -2.4330   12.5550   -5.6150 N   0  0  0  0  0  0  0  0  0  0  0  0
   -3.0500   16.1190   -6.2920 O   0  0  0  0  0  0  0  0  0  0  0  0
   -4.9590   14.7140   -0.0700 C   0  0  0  0  0  0  0  0  0  0  0  0
   -5.5000   15.2180   -2.3550 C   0  0  0  0  0  0  0  0  0  0  0  0
   -2.8540   13.7000   -6.2110 C   0  0  0  0  0  0  0  0  0  0  0  0
   -5.8890   14.9310   -1.0680 C   0  0  0  0  0  0  0  0  0  0  0  0
   -5.6630   14.4170    1.1980 C   0  0  0  0  0  0  0  0  0  0  0  0
   -7.1920   14.8340   -0.6590 O   0  0  0  0  0  0  0  0  0  0  0  0
   -7.1100   14.3710    0.7090 C   0  0  0  0  0  0  0  0  0  0  0  0
  1  2  1  0
  2  3  2  0
  1  4  1  0
  1  5  1  0
  1  6  1  0
  2  7  1  0
  6  8  2  0
  6  9  1  0
  7 10  2  0
  7 11  1  0
  8 12  1  0
  9 13  2  0
 12 14  1  0
 10 15  1  0
 11 16  2  0
 12 17  2  0
 13 17  1  0
 15 18  2  0
 16 18  1  0
 15 19  1  0
 18 20  1  0
 19 21  1  0
 20 21  1  0
M  END
