mac-x0567-mac-x0341
     RDKit          3D

 16 18  0  0  0  0  0  0  0  0999 V2000
    0.4550   14.2380   -0.2030 N   0  0  0  0  0  0  0  0  0  0  0  0
   -0.7750   14.4270    0.3470 C   0  0  0  0  0  0  0  0  0  0  0  0
   -1.0140   14.4580    1.6310 N   0  0  0  0  0  0  0  0  0  0  0  0
   -2.0180   14.6300   -0.3880 C   0  0  0  0  0  0  0  0  0  0  0  0
   -2.4430   14.6370    1.8400 N   0  0  0  0  0  0  0  0  0  0  0  0
   -2.9820   14.7040    0.6760 C   0  0  0  0  0  0  0  0  0  0  0  0
   -2.3890   14.7510   -1.6650 C   0  0  0  0  0  0  0  0  0  0  0  0
   -4.4050   14.8120    0.3610 C   0  0  0  0  0  0  0  0  0  0  0  0
   -3.7930   14.9590   -1.9900 C   0  0  0  0  0  0  0  0  0  0  0  0
   -4.7510   14.9810   -1.0410 C   0  0  0  0  0  0  0  0  0  0  0  0
   -5.2580   14.7160    1.3070 N   0  0  0  0  0  0  0  0  0  0  0  0
   -6.5620   14.7650    0.9800 C   0  0  0  0  0  0  0  0  0  0  0  0
   -6.1850   15.1500   -1.2930 C   0  0  0  0  0  0  0  0  0  0  0  0
   -7.4350   14.5970    2.0060 N   0  0  0  0  0  0  0  0  0  0  0  0
   -6.5930   15.4160   -2.4070 O   0  0  0  0  0  0  0  0  0  0  0  0
   -7.0120   14.9630   -0.2140 N   0  0  0  0  0  0  0  0  0  0  0  0
  1  2  1  0
  2  3  2  0
  2  4  1  0
  3  5  1  0
  4  6  1  0
  5  6  2  0
  4  7  2  0
  6  8  1  0
  7  9  1  0
  8 10  1  0
  9 10  2  0
  8 11  2  0
 11 12  1  0
 10 13  1  0
 12 14  1  0
 13 15  2  0
 12 16  2  0
 13 16  1  0
M  END
