mac-x0345-diamond-x0926_0_A
     RDKit          3D

  9  9  0  0  0  0  0  0  0  0999 V2000
   -7.4550   14.5250    0.8400 C   0  0  0  0  0  0  0  0  0  0  0  0
   -6.3380   14.8290   -0.1220 C   0  0  0  0  0  0  0  0  0  0  0  0
   -6.6560   14.7480   -1.4310 N   0  0  0  0  0  0  0  0  0  0  0  0
   -5.0550   15.1710    0.2920 C   0  0  0  0  0  0  0  0  0  0  0  0
   -4.5320   15.3000    2.0770 Br  0  0  0  0  0  0  0  0  0  0  0  0
   -4.0820   15.4380   -0.6440 C   0  0  0  0  0  0  0  0  0  0  0  0
   -5.6990   15.0070   -2.3280 C   0  0  0  0  0  0  0  0  0  0  0  0
   -6.0860   14.8980   -3.6540 N   0  0  0  0  0  0  0  0  0  0  0  0
   -4.4050   15.3560   -1.9830 C   0  0  0  0  0  0  0  0  0  0  0  0
  1  2  1  0
  2  3  2  0
  2  4  1  0
  4  5  1  0
  4  6  2  0
  3  7  1  0
  7  8  1  0
  6  9  1  0
  7  9  2  0
M  END
