mac-x0404-mac-x0455
     RDKit          3D

 26 28  0  0  0  0  0  0  0  0999 V2000
    1.5640   12.8850   -2.5620 O   0  0  0  0  0  0  0  0  0  0  0  0
    2.2180   13.2410   -3.7000 C   0  0  0  0  0  0  0  0  0  0  0  0
    3.2180   12.7110   -4.1600 O   0  0  0  0  0  0  0  0  0  0  0  0
    0.8270   13.8360   -1.9370 C   0  0  0  0  0  0  0  0  0  0  0  0
    1.5400   14.4410   -4.3830 C   0  0  0  0  0  0  0  0  0  0  0  0
   -0.6860   13.5750   -2.1350 C   0  0  1  0  0  0  0  0  0  0  0  0
    1.2350   14.7970   -1.2940 O   0  0  0  0  0  0  0  0  0  0  0  0
    0.3330   14.8920   -3.7770 O   0  0  0  0  0  0  0  0  0  0  0  0
   -1.3050   13.3480   -0.7590 C   0  0  0  0  0  0  0  0  0  0  0  0
   -1.3260   14.7900   -2.5420 O   0  0  0  0  0  0  0  0  0  0  0  0
   -0.9200   12.5000   -3.2190 C   0  0  0  0  0  0  0  0  0  0  0  0
   -0.7330   15.4190   -4.4800 C   0  0  0  0  0  0  0  0  0  0  0  0
   -1.7640   11.3990   -2.9570 C   0  0  0  0  0  0  0  0  0  0  0  0
   -0.3210   12.5520   -4.4970 C   0  0  0  0  0  0  0  0  0  0  0  0
   -0.5010   16.6380   -5.1610 C   0  0  0  0  0  0  0  0  0  0  0  0
   -2.0030   14.8250   -4.5420 C   0  0  0  0  0  0  0  0  0  0  0  0
   -1.9900   10.4100   -3.9220 C   0  0  0  0  0  0  0  0  0  0  0  0
   -0.5480   11.5610   -5.4580 C   0  0  0  0  0  0  0  0  0  0  0  0
   -1.5560   17.2360   -5.8860 C   0  0  0  0  0  0  0  0  0  0  0  0
   -3.0300   15.4220   -5.2540 C   0  0  0  0  0  0  0  0  0  0  0  0
    0.7430   17.2840   -5.1500 C   0  0  0  0  0  0  0  0  0  0  0  0
   -1.3830   10.4900   -5.1700 C   0  0  0  0  0  0  0  0  0  0  0  0
   -2.8100   16.6180   -5.9190 C   0  0  0  0  0  0  0  0  0  0  0  0
   -1.3440   18.4420   -6.5720 C   0  0  0  0  0  0  0  0  0  0  0  0
    0.9470   18.4770   -5.8380 C   0  0  0  0  0  0  0  0  0  0  0  0
   -0.0960   19.0550   -6.5490 C   0  0  0  0  0  0  0  0  0  0  0  0
  1  2  1  0
  2  3  2  0
  1  4  1  0
  2  5  1  0
  4  6  1  0
  4  7  2  0
  5  8  1  0
  6  9  1  1
  6 10  1  0
  6 11  1  0
  8 12  1  0
 11 13  2  0
 11 14  1  0
 12 15  1  0
 12 16  2  0
 13 17  1  0
 14 18  2  0
 15 19  2  0
 16 20  1  0
 15 21  1  0
 17 22  2  0
 18 22  1  0
 19 23  1  0
 20 23  2  0
 19 24  1  0
 21 25  2  0
 24 26  2  0
 25 26  1  0
M  END
