mac-x0527-mac-x0412
     RDKit          3D

 22 24  0  0  0  0  0  0  0  0999 V2000
   -4.6060   14.4160   -3.5340 O   0  0  0  0  0  0  0  0  0  0  0  0
   -3.7730   14.3950   -2.6410 C   0  0  0  0  0  0  0  0  0  0  0  0
   -2.4230   14.2230   -2.8770 N   0  0  0  0  0  0  0  0  0  0  0  0
   -4.0610   14.6080   -1.1830 C   0  0  0  0  0  0  0  0  0  0  0  0
   -1.6030   14.5210   -4.0350 C   0  0  0  0  0  0  0  0  0  0  0  0
   -5.2540   14.8060   -0.4860 C   0  0  0  0  0  0  0  0  0  0  0  0
   -2.8240   14.5470   -0.6020 N   0  0  0  0  0  0  0  0  0  0  0  0
   -1.2160   13.2300   -4.7010 C   0  0  0  0  0  0  0  0  0  0  0  0
   -2.5010   15.1950    0.3920 C   0  0  0  0  0  0  0  0  0  0  0  0
   -6.7090   14.7780   -0.8430 C   0  0  0  0  0  0  0  0  0  0  0  0
   -5.2890   15.1370    0.8990 C   0  0  0  0  0  0  0  0  0  0  0  0
   -7.3080   15.5030   -1.6020 O   0  0  0  0  0  0  0  0  0  0  0  0
   -1.9870   12.0870   -4.4590 C   0  0  0  0  0  0  0  0  0  0  0  0
   -0.1070   13.1350   -5.5590 C   0  0  0  0  0  0  0  0  0  0  0  0
   -4.5170   16.0970    1.2830 N   0  0  0  0  0  0  0  0  0  0  0  0
   -3.3360   16.1460    1.0470 C   0  0  0  0  0  0  0  0  0  0  0  0
   -6.1130   14.6180    1.7600 C   0  0  0  0  0  0  0  0  0  0  0  0
   -7.3140   13.7520   -0.0960 N   0  0  0  0  0  0  0  0  0  0  0  0
   -1.6710   10.8710   -5.0540 C   0  0  0  0  0  0  0  0  0  0  0  0
    0.2110   11.9130   -6.1580 C   0  0  0  0  0  0  0  0  0  0  0  0
   -6.9980   13.6750    1.1630 C   0  0  0  0  0  0  0  0  0  0  0  0
   -0.5710   10.7820   -5.9050 C   0  0  0  0  0  0  0  0  0  0  0  0
  1  2  2  0
  2  3  1  0
  2  4  1  0
  3  5  1  0
  4  6  2  0
  4  7  1  0
  5  8  1  0
  7  9  2  0
  6 10  1  0
  6 11  1  0
 10 12  2  0
  8 13  2  0
  8 14  1  0
 11 15  1  0
  9 16  1  0
 15 16  2  0
 11 17  2  0
 10 18  1  0
 13 19  1  0
 14 20  2  0
 17 21  1  0
 18 21  2  0
 19 22  2  0
 20 22  1  0
M  END
