mac-x0123-diamond-x0727_0_A
     RDKit          3D

 29 32  0  0  0  0  0  0  0  0999 V2000
   -3.7590   15.0640    1.7080 N   0  0  0  0  0  0  0  0  0  0  0  0
   -4.7760   14.8550    0.7920 C   0  0  0  0  0  0  0  0  0  0  0  0
   -6.0660   14.6250    1.1020 C   0  0  0  0  0  0  0  0  0  0  0  0
   -4.4400   14.8730   -0.5750 N   0  0  0  0  0  0  0  0  0  0  0  0
   -5.3980   14.6870   -1.5810 C   0  0  0  0  0  0  0  0  0  0  0  0
   -7.0120   14.4510   -0.0340 C   0  0  0  0  0  0  0  0  0  0  0  0
   -6.8470   14.4940    2.3660 C   0  0  0  0  0  0  0  0  0  0  0  0
   -3.2150   15.0540   -1.1290 N   0  0  0  0  0  0  0  0  0  0  0  0
   -6.7200   14.4770   -1.2940 N   0  0  0  0  0  0  0  0  0  0  0  0
   -8.4040   14.2370    0.4790 C   0  0  0  0  0  0  0  0  0  0  0  0
   -8.2990   14.6790    1.9400 C   0  0  0  0  0  0  0  0  0  0  0  0
   -4.7940   14.7500   -2.7500 N   0  0  0  0  0  0  0  0  0  0  0  0
   -3.4850   14.9720   -2.4300 C   0  0  0  0  0  0  0  0  0  0  0  0
   -2.4290   15.1180   -3.4630 C   0  0  0  0  0  0  0  0  0  0  0  0
   -2.0700   13.8110   -4.1640 C   0  0  0  0  0  0  0  0  0  0  0  0
   -1.0650   14.0970   -5.2790 C   0  0  0  0  0  0  0  0  0  0  0  0
    0.4050   13.8400   -4.9110 C   0  0  0  0  0  0  0  0  0  0  0  0
    0.7970   12.3700   -4.7200 C   0  0  2  0  0  0  0  0  0  0  0  0
    0.0920   11.4350   -5.6010 N   0  0  0  0  0  0  0  0  0  0  0  0
    0.7060   11.8690   -3.2710 C   0  0  0  0  0  0  0  0  0  0  0  0
    0.1000   10.8720   -2.9040 O   0  0  0  0  0  0  0  0  0  0  0  0
    0.6650   11.0950   -6.7970 C   0  0  0  0  0  0  0  0  0  0  0  0
    1.3670   12.6280   -2.3770 O   0  0  0  0  0  0  0  0  0  0  0  0
    1.6230   11.6870   -7.2220 O   0  0  0  0  0  0  0  0  0  0  0  0
    0.0610    9.9190   -7.5520 C   0  0  0  0  0  0  0  0  0  0  0  0
   -1.2200   10.2940   -8.2980 C   0  0  0  0  0  0  0  0  0  0  0  0
   -0.2880    8.7250   -6.6490 C   0  0  0  0  0  0  0  0  0  0  0  0
   -2.1650    9.1160   -8.0930 C   0  0  0  0  0  0  0  0  0  0  0  0
   -1.7960    8.5730   -6.7240 C   0  0  0  0  0  0  0  0  0  0  0  0
  1  2  1  0
  2  3  2  0
  2  4  1  0
  4  5  1  0
  3  6  1  0
  3  7  1  0
  4  8  1  0
  5  9  1  0
  6  9  2  0
  6 10  1  0
  7 11  1  0
 10 11  1  0
  5 12  2  0
  8 13  2  0
 12 13  1  0
 13 14  1  0
 14 15  1  0
 15 16  1  0
 16 17  1  0
 18 17  1  1
 18 19  1  0
 18 20  1  0
 20 21  2  0
 19 22  1  0
 20 23  1  0
 22 24  2  0
 22 25  1  0
 25 26  1  0
 25 27  1  0
 26 28  1  0
 27 29  1  0
 28 29  1  0
M  END
