mac-x0178-mac-x0392
     RDKit          3D

 23 24  0  0  0  0  0  0  0  0999 V2000
   -0.3090   18.4220   -6.6790 N   0  0  0  0  0  0  0  0  0  0  0  0
   -1.5510   17.7000   -5.8230 S   0  0  0  0  0  0  0  0  0  0  0  0
   -2.5250   17.2560   -6.7880 O   0  0  0  0  0  0  0  0  0  0  0  0
   -1.8970   18.6050   -4.7510 O   0  0  0  0  0  0  0  0  0  0  0  0
   -0.7330   16.2940   -5.1330 C   0  0  0  0  0  0  0  0  0  0  0  0
    0.6350   16.0070   -5.2550 C   0  0  0  0  0  0  0  0  0  0  0  0
   -1.5260   15.4620   -4.4280 C   0  0  0  0  0  0  0  0  0  0  0  0
    1.1650   14.8460   -4.6420 C   0  0  0  0  0  0  0  0  0  0  0  0
   -0.9980   14.3530   -3.8290 C   0  0  0  0  0  0  0  0  0  0  0  0
   -1.9160   13.7340   -3.1230 N   0  0  0  0  0  0  0  0  0  0  0  0
    0.3240   14.0040   -3.9140 C   0  0  0  0  0  0  0  0  0  0  0  0
    0.8440   12.7920   -3.2390 C   0  0  0  0  0  0  0  0  0  0  0  0
   -1.5510   14.4180   -2.1210 C   0  0  0  0  0  0  0  0  0  0  0  0
    1.5720   12.7740   -2.2640 O   0  0  0  0  0  0  0  0  0  0  0  0
    0.4030   11.6710   -3.8230 O   0  0  0  0  0  0  0  0  0  0  0  0
   -0.4780   15.2430   -2.2030 O   0  0  0  0  0  0  0  0  0  0  0  0
   -2.0810   14.5180   -0.8140 C   0  0  0  0  0  0  0  0  0  0  0  0
   -1.2740   14.1760    0.2530 C   0  0  0  0  0  0  0  0  0  0  0  0
   -3.3850   14.9730   -0.6770 C   0  0  0  0  0  0  0  0  0  0  0  0
    0.0590   13.7130    0.0880 N   0  0  0  0  0  0  0  0  0  0  0  0
   -3.8690   15.0810    0.5880 C   0  0  0  0  0  0  0  0  0  0  0  0
   -1.8690   14.3220    1.4700 C   0  0  0  0  0  0  0  0  0  0  0  0
   -3.1420   14.7650    1.6720 N   0  0  0  0  0  0  0  0  0  0  0  0
  2  1  1  0
  2  3  2  0
  2  4  2  0
  2  5  1  0
  5  6  2  0
  5  7  1  0
  6  8  1  0
  7  9  2  0
  9 10  1  0
  8 11  2  0
  9 11  1  0
 11 12  1  0
 10 13  2  3
 12 14  2  0
 12 15  1  0
 13 16  1  0
 13 17  1  0
 17 18  2  0
 17 19  1  0
 18 20  1  0
 19 21  2  0
 18 22  1  0
 21 23  1  0
 22 23  2  0
M  END
