mac-x0226-mac-x0588
     RDKit          3D

 32 36  0  0  0  0  0  0  0  0999 V2000
    1.5560   12.2410   -2.1790 O   0  0  0  0  0  0  0  0  0  0  0  0
    0.4100   11.7780   -2.8490 C   0  0  0  0  0  0  0  0  0  0  0  0
    0.0790   10.4920   -2.3150 O   0  0  0  0  0  0  0  0  0  0  0  0
   -0.7000   12.7910   -2.6640 C   0  0  0  0  0  0  0  0  0  0  0  0
    0.6250   11.7560   -4.3200 C   0  0  0  0  0  0  0  0  0  0  0  0
   -0.3810   14.0180   -3.5410 C   0  0  0  0  0  0  0  0  0  0  0  0
    1.5280   12.5180   -5.0900 C   0  0  0  0  0  0  0  0  0  0  0  0
   -0.0300   10.9810   -5.2460 C   0  0  0  0  0  0  0  0  0  0  0  0
   -1.3560   15.1960   -3.3770 C   0  0  1  0  0  0  0  0  0  0  0  0
    1.4490   12.2390   -6.3910 N   0  0  0  0  0  0  0  0  0  0  0  0
    0.4840   11.2850   -6.4820 N   0  0  0  0  0  0  0  0  0  0  0  0
    0.0950   10.7060   -7.7120 C   0  0  0  0  0  0  0  0  0  0  0  0
   -2.0280   14.9570   -2.0680 N   0  0  0  0  0  0  0  0  0  0  0  0
   -0.6350   16.5560   -3.6860 C   0  0  2  0  0  0  0  0  0  0  0  0
   -1.0490    9.9050   -7.7440 C   0  0  0  0  0  0  0  0  0  0  0  0
    0.8060   10.9000   -8.8930 C   0  0  0  0  0  0  0  0  0  0  0  0
   -3.4010   15.4380   -2.0600 C   0  0  0  0  0  0  0  0  0  0  0  0
   -1.3470   15.3720   -0.8690 C   0  0  1  0  0  0  0  0  0  0  0  0
   -1.5500   17.5100   -4.3180 O   0  0  0  0  0  0  0  0  0  0  0  0
    0.5320   16.4180   -4.6750 C   0  0  0  0  0  0  0  0  0  0  0  0
   -1.4610    9.3180   -8.9400 C   0  0  0  0  0  0  0  0  0  0  0  0
    0.4020   10.3190  -10.0840 C   0  0  0  0  0  0  0  0  0  0  0  0
   -4.2020   14.6860   -1.1300 N   0  0  0  0  0  0  0  0  0  0  0  0
   -2.2960   15.4330    0.3460 C   0  0  1  0  0  0  0  0  0  0  0  0
   -0.3630   14.3940   -0.4490 N   0  0  0  0  0  0  0  0  0  0  0  0
    0.5880   17.7810   -5.3080 C   0  0  0  0  0  0  0  0  0  0  0  0
   -0.8790   18.1320   -5.4190 C   0  0  0  0  0  0  0  0  0  0  0  0
   -0.7350    9.5260  -10.1100 C   0  0  0  0  0  0  0  0  0  0  0  0
   -3.5910   14.6030    0.1840 C   0  0  1  0  0  0  0  0  0  0  0  0
   -1.4320   15.1540    1.4980 N   0  0  0  0  0  0  0  0  0  0  0  0
   -0.1670   14.6710    0.9570 C   0  0  0  0  0  0  0  0  0  0  0  0
   -4.6580   15.0310    1.0670 N   0  0  0  0  0  0  0  0  0  0  0  0
  2  1  1  0
  2  3  1  0
  2  4  1  0
  2  5  1  0
  4  6  1  0
  5  7  1  0
  5  8  2  0
  9  6  1  1
  7 10  2  0
  8 11  1  0
 10 11  1  0
 11 12  1  0
  9 13  1  0
  9 14  1  0
 12 15  2  0
 12 16  1  0
 13 17  1  0
 13 18  1  0
 14 19  1  0
 14 20  1  6
 15 21  1  0
 16 22  2  0
 17 23  1  0
 18 24  1  0
 18 25  1  1
 20 26  1  0
 19 27  1  0
 26 27  1  0
 21 28  2  0
 22 28  1  0
 23 29  1  0
 24 29  1  0
 24 30  1  1
 25 31  1  0
 30 31  1  0
 29 32  1  1
M  END
