mac-x0282-mac-x0568
     RDKit          3D

 19 21  0  0  0  0  0  0  0  0999 V2000
   -8.1390   14.3060    1.3990 C   0  0  0  0  0  0  0  0  0  0  0  0
   -6.9550   14.4270    0.4790 C   0  0  0  0  0  0  0  0  0  0  0  0
   -5.7280   13.8560    0.8120 C   0  0  0  0  0  0  0  0  0  0  0  0
   -7.1320   15.1080   -0.6720 N   0  0  0  0  0  0  0  0  0  0  0  0
   -6.0700   15.2380   -1.5200 C   0  0  0  0  0  0  0  0  0  0  0  0
   -4.6400   13.9970   -0.0790 C   0  0  0  0  0  0  0  0  0  0  0  0
   -4.7930   14.7150   -1.2960 C   0  0  0  0  0  0  0  0  0  0  0  0
   -3.6750   14.9230   -2.3230 C   0  0  0  0  0  0  0  0  0  0  0  0
   -4.0230   15.1680   -3.4610 O   0  0  0  0  0  0  0  0  0  0  0  0
   -2.3000   14.8640   -2.0900 N   0  0  0  0  0  0  0  0  0  0  0  0
   -1.8270   14.6980   -0.8410 C   0  0  0  0  0  0  0  0  0  0  0  0
   -2.7510   14.9870    0.0810 C   0  0  0  0  0  0  0  0  0  0  0  0
   -0.5590   14.2690   -0.4460 C   0  0  0  0  0  0  0  0  0  0  0  0
   -4.0840   15.4490    0.0200 C   0  0  0  0  0  0  0  0  0  0  0  0
   -2.4260   14.8300    1.3770 C   0  0  0  0  0  0  0  0  0  0  0  0
   -0.3610   14.1630    0.9250 C   0  0  0  0  0  0  0  0  0  0  0  0
   -4.5250   15.5290    1.2910 C   0  0  0  0  0  0  0  0  0  0  0  0
   -3.5180   15.1530    2.0920 N   0  0  0  0  0  0  0  0  0  0  0  0
   -1.2690   14.4330    1.8760 N   0  0  0  0  0  0  0  0  0  0  0  0
  1  2  1  0
  2  3  2  0
  2  4  1  0
  4  5  2  0
  3  6  1  0
  5  7  1  0
  6  7  2  0
  7  8  1  0
  8  9  2  0
  8 10  1  0
 10 11  1  0
 11 12  1  0
 11 13  2  0
 12 14  1  0
 12 15  2  0
 13 16  1  0
 14 17  2  0
 15 18  1  0
 17 18  1  0
 15 19  1  0
 16 19  2  0
M  END
