mac-x0439-mac-x0587
     RDKit          3D

 27 30  0  0  0  0  0  0  0  0999 V2000
   -2.7460   15.8370   -3.6430 N   0  0  0  0  0  0  0  0  0  0  0  0
   -2.5180   14.5360   -3.1360 C   0  0  2  0  0  0  0  0  0  0  0  0
   -2.6990   13.5810   -4.3510 C   0  0  1  0  0  0  0  0  0  0  0  0
   -1.8200   16.3700   -4.4720 C   0  0  0  0  0  0  0  0  0  0  0  0
   -0.4620   15.9100   -4.3140 C   0  0  0  0  0  0  0  0  0  0  0  0
   -2.1290   17.3190   -5.4680 C   0  0  0  0  0  0  0  0  0  0  0  0
   -3.2430   14.3600   -1.8840 N   0  0  0  0  0  0  0  0  0  0  0  0
   -2.1070   14.2620   -5.5900 C   0  0  0  0  0  0  0  0  0  0  0  0
   -2.1170   11.8320   -4.3520 S   0  0  0  0  0  0  0  0  0  0  0  0
    0.2670   14.9710   -3.4060 C   0  0  0  0  0  0  0  0  0  0  0  0
    0.3730   16.4910   -5.2380 C   0  0  0  0  0  0  0  0  0  0  0  0
   -1.2160   17.8670   -6.3130 C   0  0  0  0  0  0  0  0  0  0  0  0
   -4.4650   15.1190   -1.6730 C   0  0  0  0  0  0  0  0  0  0  0  0
   -2.6090   14.1880   -0.6480 C   0  0  0  0  0  0  0  0  0  0  0  0
   -0.0760   14.1640   -2.2550 C   0  0  0  0  0  0  0  0  0  0  0  0
   -0.3200   12.0570   -4.2710 C   0  0  0  0  0  0  0  0  0  0  0  0
   -1.4890   13.7630   -0.4260 O   0  0  0  0  0  0  0  0  0  0  0  0
    0.0500   17.4410   -6.1940 C   0  0  0  0  0  0  0  0  0  0  0  0
   -4.5210   15.3870   -0.1760 C   0  0  0  0  0  0  0  0  0  0  0  0
   -3.4690   14.5800    0.3560 N   0  0  0  0  0  0  0  0  0  0  0  0
    1.6200   16.1300   -5.2480 C   0  0  0  0  0  0  0  0  0  0  0  0
    1.5790   14.7150   -3.5470 C   0  0  0  0  0  0  0  0  0  0  0  0
   -0.3150   15.0370   -1.2810 O   0  0  0  0  0  0  0  0  0  0  0  0
   -0.1370   12.9010   -1.9570 N   0  0  0  0  0  0  0  0  0  0  0  0
    0.1590   11.9000   -2.8500 C   0  0  0  0  0  0  0  0  0  0  0  0
    2.2710   15.2620   -4.4590 N   0  0  0  0  0  0  0  0  0  0  0  0
    0.7620   10.8880   -2.5190 O   0  0  0  0  0  0  0  0  0  0  0  0
  1  2  1  0
  2  3  1  0
  1  4  1  0
  4  5  1  0
  4  6  2  0
  2  7  1  1
  3  8  1  6
  3  9  1  0
  5 10  2  0
  5 11  1  0
  6 12  1  0
  7 13  1  0
  7 14  1  0
 10 15  1  0
  9 16  1  0
 14 17  2  0
 11 18  1  0
 12 18  2  0
 13 19  1  0
 14 20  1  0
 19 20  1  0
 11 21  2  0
 10 22  1  0
 15 23  1  0
 15 24  2  0
 16 25  1  0
 24 25  1  0
 21 26  1  0
 22 26  2  0
 25 27  2  0
M  END
