mac-x1493-mac-x0576
     RDKit          3D

 20 22  0  0  0  0  0  0  0  0999 V2000
   -1.4160   14.4680   -2.0650 O   0  0  0  0  0  0  0  0  0  0  0  0
   -2.5260   14.8160   -2.7530 C   0  0  0  0  0  0  0  0  0  0  0  0
   -2.4550   14.9170   -3.9650 O   0  0  0  0  0  0  0  0  0  0  0  0
   -3.7400   15.0390   -1.8580 C   0  0  2  0  0  0  0  0  0  0  0  0
   -3.4610   14.9630   -0.3230 C   0  0  2  0  0  0  0  0  0  0  0  0
   -4.8990   14.1610   -2.2820 C   0  0  0  0  0  0  0  0  0  0  0  0
   -4.7600   14.9510    0.5020 C   0  0  0  0  0  0  0  0  0  0  0  0
   -6.1600   14.4590   -1.5250 N   0  0  1  0  0  0  0  0  0  0  0  0
   -2.2620   15.9050   -0.0220 C   0  0  0  0  0  0  0  0  0  0  0  0
   -2.8520   13.6480    0.1940 C   0  0  0  0  0  0  0  0  0  0  0  0
   -7.0350   13.4410   -1.4840 O   0  0  0  0  0  0  0  0  0  0  0  0
   -5.9900   14.7000   -0.1070 C   0  0  0  0  0  0  0  0  0  0  0  0
   -4.7840   15.1550    1.8780 C   0  0  0  0  0  0  0  0  0  0  0  0
   -0.9240   15.3420   -0.3470 N   0  0  0  0  0  0  0  0  0  0  0  0
   -1.8550   13.9940    1.1890 N   0  0  0  0  0  0  0  0  0  0  0  0
   -7.1900   14.6390    0.6170 C   0  0  0  0  0  0  0  0  0  0  0  0
   -5.9870   15.0940    2.6050 C   0  0  0  0  0  0  0  0  0  0  0  0
   -0.6610   14.2290    0.4920 C   0  0  2  0  0  0  0  0  0  0  0  0
    0.1830   14.6760    1.5020 N   0  0  0  0  0  0  0  0  0  0  0  0
   -7.1910   14.8310    1.9790 C   0  0  0  0  0  0  0  0  0  0  0  0
  1  2  1  0
  2  3  2  0
  4  2  1  6
  4  5  1  0
  4  6  1  0
  5  7  1  0
  6  8  1  0
  5  9  1  1
  5 10  1  0
  8 11  1  1
  7 12  2  0
  8 12  1  0
  7 13  1  0
  9 14  1  0
 10 15  1  0
 12 16  1  0
 13 17  2  0
 14 18  1  0
 15 18  1  0
 18 19  1  1
 16 20  2  0
 17 20  1  0
M  CHG  2   8   1  11  -1
M  END
