mac-x0375-mac-x0357
     RDKit          3D

 16 17  0  0  0  0  0  0  0  0999 V2000
    2.0730   12.7940   -2.0580 O   0  0  0  0  0  0  0  0  0  0  0  0
    0.7590   12.4120   -2.2810 C   0  0  0  0  0  0  0  0  0  0  0  0
    0.5520   11.1050   -1.7790 O   0  0  0  0  0  0  0  0  0  0  0  0
   -0.0850   13.3550   -1.6570 O   0  0  0  0  0  0  0  0  0  0  0  0
    0.4850   12.4170   -3.7300 C   0  0  0  0  0  0  0  0  0  0  0  0
   -0.1490   11.3600   -4.2810 C   0  0  0  0  0  0  0  0  0  0  0  0
    0.8350   13.4420   -4.5500 C   0  0  0  0  0  0  0  0  0  0  0  0
    0.5530   13.3910   -5.8910 C   0  0  0  0  0  0  0  0  0  0  0  0
   -0.4350   11.3190   -5.6160 C   0  0  0  0  0  0  0  0  0  0  0  0
   -1.1350   10.2100   -6.0690 C   0  0  0  0  0  0  0  0  0  0  0  0
   -0.0840   12.3260   -6.4450 C   0  0  0  0  0  0  0  0  0  0  0  0
   -0.6360    9.1940   -6.8630 C   0  0  0  0  0  0  0  0  0  0  0  0
   -2.4440   10.2120   -5.6320 C   0  0  0  0  0  0  0  0  0  0  0  0
   -1.4930    8.1610   -7.2160 C   0  0  0  0  0  0  0  0  0  0  0  0
   -3.2930    9.2010   -5.9730 C   0  0  0  0  0  0  0  0  0  0  0  0
   -2.8180    8.1710   -6.7690 C   0  0  0  0  0  0  0  0  0  0  0  0
  2  1  1  0
  2  3  1  0
  2  4  1  0
  2  5  1  0
  5  6  2  0
  5  7  1  0
  7  8  2  0
  6  9  1  0
  9 10  1  0
  8 11  1  0
  9 11  2  0
 10 12  2  0
 10 13  1  0
 12 14  1  0
 13 15  2  0
 14 16  2  0
 15 16  1  0
M  END
