mac-x0398-mac-x0338
     RDKit          3D

 12 12  0  0  0  0  0  0  0  0999 V2000
   -6.4130   14.8120    2.1020 N   0  0  0  0  0  0  0  0  0  0  0  0
   -5.6500   14.9050    0.9180 C   0  0  0  0  0  0  0  0  0  0  0  0
   -4.2440   14.9220    0.9570 C   0  0  0  0  0  0  0  0  0  0  0  0
   -6.2890   14.9820   -0.3160 C   0  0  0  0  0  0  0  0  0  0  0  0
   -5.5430   15.0710   -1.4870 C   0  0  0  0  0  0  0  0  0  0  0  0
   -3.4930   15.0080   -0.2150 C   0  0  0  0  0  0  0  0  0  0  0  0
   -3.5820   14.8530    2.1880 N   0  0  0  0  0  0  0  0  0  0  0  0
   -6.2560   15.1400   -2.6560 O   0  0  0  0  0  0  0  0  0  0  0  0
   -4.1440   15.0800   -1.4500 C   0  0  0  0  0  0  0  0  0  0  0  0
   -3.4060   15.1620   -2.7310 C   0  0  0  0  0  0  0  0  0  0  0  0
   -4.0000   15.1920   -3.7960 O   0  0  0  0  0  0  0  0  0  0  0  0
   -2.0640   15.1810   -2.6520 O   0  0  0  0  0  0  0  0  0  0  0  0
  1  2  1  0
  2  3  2  0
  2  4  1  0
  4  5  2  0
  3  6  1  0
  3  7  1  0
  5  8  1  0
  5  9  1  0
  6  9  2  0
  9 10  1  0
 10 11  2  0
 10 12  1  0
M  END
