mac-x0321-mac-x0226
     RDKit          3D

 25 27  0  0  0  0  0  0  0  0999 V2000
   -4.3600   15.3750    1.7130 Cl  0  0  0  0  0  0  0  0  0  0  0  0
   -4.3720   15.2710    0.0050 C   0  0  0  0  0  0  0  0  0  0  0  0
   -3.1790   15.0450   -0.6570 C   0  0  0  0  0  0  0  0  0  0  0  0
   -5.5650   15.4130   -0.6990 C   0  0  0  0  0  0  0  0  0  0  0  0
   -3.1730   14.9620   -2.0490 C   0  0  0  0  0  0  0  0  0  0  0  0
   -5.5630   15.3310   -2.0830 C   0  0  0  0  0  0  0  0  0  0  0  0
   -1.9350   14.7250   -2.8270 C   0  0  0  0  0  0  0  0  0  0  0  0
   -4.3670   15.1050   -2.7600 C   0  0  0  0  0  0  0  0  0  0  0  0
   -0.8820   14.5030   -2.0070 O   0  0  0  0  0  0  0  0  0  0  0  0
   -1.9100   14.7330   -4.0450 O   0  0  0  0  0  0  0  0  0  0  0  0
    0.2690   13.9930   -2.6840 C   0  0  0  0  0  0  0  0  0  0  0  0
    0.7700   12.8230   -2.0310 O   0  0  0  0  0  0  0  0  0  0  0  0
    0.5150   11.6560   -2.6850 C   0  0  0  0  0  0  0  0  0  0  0  0
    0.2370   10.5920   -2.1220 O   0  0  0  0  0  0  0  0  0  0  0  0
    0.6340   11.7270   -4.1290 C   0  0  0  0  0  0  0  0  0  0  0  0
    1.4380   12.5760   -4.9190 C   0  0  0  0  0  0  0  0  0  0  0  0
   -0.0230   10.9430   -5.0550 C   0  0  0  0  0  0  0  0  0  0  0  0
    1.3070   12.3400   -6.2260 N   0  0  0  0  0  0  0  0  0  0  0  0
    0.4050   11.3220   -6.3070 N   0  0  0  0  0  0  0  0  0  0  0  0
    0.0110   10.7610   -7.5550 C   0  0  0  0  0  0  0  0  0  0  0  0
   -1.1510    9.9970   -7.6400 C   0  0  0  0  0  0  0  0  0  0  0  0
    0.7660   10.9500   -8.7060 C   0  0  0  0  0  0  0  0  0  0  0  0
   -1.5370    9.4400   -8.8630 C   0  0  0  0  0  0  0  0  0  0  0  0
    0.3910   10.4020   -9.9220 C   0  0  0  0  0  0  0  0  0  0  0  0
   -0.7640    9.6430  -10.0060 C   0  0  0  0  0  0  0  0  0  0  0  0
  1  2  1  0
  2  3  2  0
  2  4  1  0
  3  5  1  0
  4  6  2  0
  5  7  1  0
  5  8  2  0
  6  8  1  0
  7  9  1  0
  7 10  2  0
  9 11  1  0
 11 12  1  0
 12 13  1  0
 13 14  2  0
 13 15  1  0
 15 16  1  0
 15 17  2  0
 16 18  2  0
 17 19  1  0
 18 19  1  0
 19 20  1  0
 20 21  2  0
 20 22  1  0
 21 23  1  0
 22 24  2  0
 23 25  2  0
 24 25  1  0
M  END
