mac-x0148-diamond-x0844_0_A
     RDKit          3D

 20 23  0  0  0  0  0  0  0  0999 V2000
   -5.8200   15.1550   -0.0320 O   0  0  0  0  0  0  0  0  0  0  0  0
   -4.5830   15.0610    0.0310 C   0  0  0  0  0  0  0  0  0  0  0  0
   -3.7810   15.2220    1.1390 N   0  0  0  0  0  0  0  0  0  0  0  0
   -3.6990   14.7280   -1.1240 C   0  0  0  0  0  0  0  0  0  0  0  0
   -4.3400   14.4530   -2.8040 Br  0  0  0  0  0  0  0  0  0  0  0  0
   -2.5880   14.9870    0.7150 C   0  0  0  0  0  0  0  0  0  0  0  0
   -2.4530   14.6650   -0.6810 C   0  0  0  0  0  0  0  0  0  0  0  0
   -1.4740   15.0490    1.4770 N   0  0  0  0  0  0  0  0  0  0  0  0
   -1.1170   14.3770   -1.2170 C   0  0  0  0  0  0  0  0  0  0  0  0
   -0.8660   13.9290   -2.5240 N   0  0  0  0  0  0  0  0  0  0  0  0
   -0.1110   14.4810   -0.3930 N   0  0  0  0  0  0  0  0  0  0  0  0
   -0.3330   14.8230    0.9190 C   0  0  0  0  0  0  0  0  0  0  0  0
   -0.9810   14.7480   -3.7740 C   0  0  2  0  0  0  0  0  0  0  0  0
    0.0630   12.7960   -2.5960 C   0  0  0  0  0  0  0  0  0  0  0  0
   -2.2750   15.5270   -4.0290 C   0  0  0  0  0  0  0  0  0  0  0  0
   -0.8450   13.9440   -5.0870 C   0  0  2  0  0  0  0  0  0  0  0  0
   -0.3300   11.8730   -3.7240 C   0  0  0  0  0  0  0  0  0  0  0  0
   -2.2990   13.6740   -5.4310 C   0  0  0  0  0  0  0  0  0  0  0  0
   -3.0010   14.8760   -5.0990 O   0  0  0  0  0  0  0  0  0  0  0  0
   -0.0820   12.6080   -5.0240 C   0  0  0  0  0  0  0  0  0  0  0  0
  1  2  2  0
  2  3  1  0
  2  4  1  0
  4  5  1  0
  3  6  2  0
  4  7  2  0
  6  7  1  0
  6  8  1  0
  7  9  1  0
  9 10  1  0
  9 11  2  0
  8 12  2  0
 11 12  1  0
 10 13  1  0
 10 14  1  0
 13 15  1  6
 13 16  1  0
 14 17  1  0
 16 18  1  1
 15 19  1  0
 18 19  1  0
 16 20  1  0
 17 20  1  0
M  END
