mac-x0417-mac-x0588
     RDKit          3D

 30 34  0  0  0  0  0  0  0  0999 V2000
    1.6850   12.5360   -2.5340 O   0  0  0  0  0  0  0  0  0  0  0  0
    0.7200   11.7590   -3.0750 C   0  0  0  0  0  0  0  0  0  0  0  0
    0.5840   10.6200   -2.6770 O   0  0  0  0  0  0  0  0  0  0  0  0
   -0.0370   12.4840   -4.1510 C   0  0  1  0  0  0  0  0  0  0  0  0
    0.3320   13.9790   -4.0730 C   0  0  0  0  0  0  0  0  0  0  0  0
    0.0410   11.7110   -5.4630 C   0  0  0  0  0  0  0  0  0  0  0  0
   -0.4930   15.1230   -3.3390 C   0  0  2  0  0  0  0  0  0  0  0  0
    1.0340   11.8640   -6.3610 N   0  0  0  0  0  0  0  0  0  0  0  0
   -0.8800   10.7290   -5.9140 C   0  0  0  0  0  0  0  0  0  0  0  0
    0.7600   10.9800   -7.4000 O   0  0  0  0  0  0  0  0  0  0  0  0
   -0.3830   10.3010   -7.1310 C   0  0  0  0  0  0  0  0  0  0  0  0
   -2.0690   10.1530   -5.4360 C   0  0  0  0  0  0  0  0  0  0  0  0
   -1.5280   14.7610   -2.2530 N   0  0  0  0  0  0  0  0  0  0  0  0
   -0.8720   16.1660   -4.4310 C   0  0  1  0  0  0  0  0  0  0  0  0
   -0.9840    9.3270   -7.9270 C   0  0  0  0  0  0  0  0  0  0  0  0
   -2.7000    9.1720   -6.2060 C   0  0  0  0  0  0  0  0  0  0  0  0
   -2.8710   15.2840   -2.4910 C   0  0  0  0  0  0  0  0  0  0  0  0
   -1.0740   15.1950   -0.9280 C   0  0  1  0  0  0  0  0  0  0  0  0
   -1.4560   17.4360   -4.0260 O   0  0  0  0  0  0  0  0  0  0  0  0
    0.4380   16.5930   -5.1060 C   0  0  0  0  0  0  0  0  0  0  0  0
   -2.1670    8.7660   -7.4320 C   0  0  0  0  0  0  0  0  0  0  0  0
   -3.8710   14.7820   -1.5240 N   0  0  0  0  0  0  0  0  0  0  0  0
   -2.1480   15.3280    0.1650 C   0  0  1  0  0  0  0  0  0  0  0  0
   -0.1870   14.2020   -0.3400 N   0  0  0  0  0  0  0  0  0  0  0  0
    0.2950   18.0560   -5.4150 C   0  0  0  0  0  0  0  0  0  0  0  0
   -1.1640   18.3030   -5.1140 C   0  0  0  0  0  0  0  0  0  0  0  0
   -3.4390   14.5930   -0.1470 C   0  0  1  0  0  0  0  0  0  0  0  0
   -1.5040   14.9300    1.4270 N   0  0  0  0  0  0  0  0  0  0  0  0
   -0.1580   14.5430    1.0660 C   0  0  0  0  0  0  0  0  0  0  0  0
   -4.5540   14.9600    0.7300 N   0  0  0  0  0  0  0  0  0  0  0  0
  1  2  1  0
  2  3  2  0
  2  4  1  0
  4  5  1  6
  4  6  1  0
  7  5  1  6
  6  8  2  0
  6  9  1  0
  8 10  1  0
  9 11  2  0
 10 11  1  0
  9 12  1  0
  7 13  1  0
  7 14  1  0
 11 15  1  0
 12 16  2  0
 13 17  1  0
 13 18  1  0
 14 19  1  0
 14 20  1  1
 15 21  2  0
 16 21  1  0
 17 22  1  0
 18 23  1  0
 18 24  1  1
 20 25  1  0
 19 26  1  0
 25 26  1  0
 22 27  1  0
 23 27  1  0
 23 28  1  1
 24 29  1  0
 28 29  1  0
 27 30  1  1
M  END
