mac-x0206-mac-x0396
     RDKit          3D

 11 11  0  0  0  0  0  0  0  0999 V2000
   -3.6510   15.8830   -0.6450 N   0  0  0  0  0  0  0  0  0  0  0  0
   -4.2520   14.6470   -0.5680 C   0  0  0  0  0  0  0  0  0  0  0  0
   -4.4060   14.1970   -1.8770 O   0  0  0  0  0  0  0  0  0  0  0  0
   -3.1810   13.9400    0.0490 N   0  0  0  0  0  0  0  0  0  0  0  0
   -5.5540   14.6930    0.1980 C   0  0  0  0  0  0  0  0  0  0  0  0
   -6.8060   14.6930   -0.4510 C   0  0  0  0  0  0  0  0  0  0  0  0
   -5.5680   14.7360    1.6030 C   0  0  0  0  0  0  0  0  0  0  0  0
   -6.8580   14.6610   -1.8210 O   0  0  0  0  0  0  0  0  0  0  0  0
   -8.0060   14.7260    0.2620 C   0  0  0  0  0  0  0  0  0  0  0  0
   -6.7690   14.7690    2.3200 C   0  0  0  0  0  0  0  0  0  0  0  0
   -7.9850   14.7630    1.6510 C   0  0  0  0  0  0  0  0  0  0  0  0
  1  2  1  0
  2  3  1  0
  2  4  1  0
  2  5  1  0
  5  6  2  0
  5  7  1  0
  6  8  1  0
  6  9  1  0
  7 10  2  0
  9 11  2  0
 10 11  1  0
M  END
