mac-x0381-mac-x0338
     RDKit          3D

 23 25  0  0  0  0  0  0  0  0999 V2000
   -8.2260   13.5760    4.4420 N   0  0  0  0  0  0  0  0  0  0  0  0
   -8.5020   14.5960    3.5780 C   0  0  0  0  0  0  0  0  0  0  0  0
   -7.6130   15.0990    2.8560 N   0  0  0  0  0  0  0  0  0  0  0  0
   -9.8290   15.1320    3.3680 C   0  0  0  0  0  0  0  0  0  0  0  0
   -6.2750   14.6860    2.8050 C   0  0  0  0  0  0  0  0  0  0  0  0
   -9.9090   15.9150    2.2290 C   0  0  0  0  0  0  0  0  0  0  0  0
  -10.9140   14.8920    4.1890 C   0  0  0  0  0  0  0  0  0  0  0  0
   -5.9690   14.6560    1.4180 N   0  0  0  0  0  0  0  0  0  0  0  0
  -11.1050   16.4900    1.8610 C   0  0  0  0  0  0  0  0  0  0  0  0
  -12.1350   15.4690    3.8280 C   0  0  0  0  0  0  0  0  0  0  0  0
   -4.8450   15.0330    0.9820 C   0  0  0  0  0  0  0  0  0  0  0  0
  -12.2410   16.2630    2.6670 C   0  0  0  0  0  0  0  0  0  0  0  0
  -11.1930   17.2790    0.7110 C   0  0  0  0  0  0  0  0  0  0  0  0
   -3.9000   15.4770    1.8690 N   0  0  0  0  0  0  0  0  0  0  0  0
  -13.4560   16.8390    2.2820 C   0  0  0  0  0  0  0  0  0  0  0  0
  -12.4100   17.8450    0.3450 C   0  0  0  0  0  0  0  0  0  0  0  0
   -4.4910   15.0200   -0.4370 C   0  0  0  0  0  0  0  0  0  0  0  0
  -13.5380   17.6230    1.1300 C   0  0  0  0  0  0  0  0  0  0  0  0
   -3.1700   14.9240   -0.7100 N   0  0  0  0  0  0  0  0  0  0  0  0
   -5.4740   15.0960   -1.4050 C   0  0  0  0  0  0  0  0  0  0  0  0
   -2.8870   14.9100   -2.0240 C   0  0  0  0  0  0  0  0  0  0  0  0
   -5.1790   15.0760   -2.7190 N   0  0  0  0  0  0  0  0  0  0  0  0
   -3.8650   14.9830   -3.0040 C   0  0  0  0  0  0  0  0  0  0  0  0
  1  2  1  0
  2  3  2  3
  2  4  1  0
  3  5  1  0
  4  6  2  0
  4  7  1  0
  5  8  1  0
  6  9  1  0
  7 10  2  0
  8 11  2  3
  9 12  2  0
 10 12  1  0
  9 13  1  0
 11 14  1  0
 12 15  1  0
 13 16  2  0
 11 17  1  0
 15 18  2  0
 16 18  1  0
 17 19  2  0
 17 20  1  0
 19 21  1  0
 20 22  2  0
 21 23  2  0
 22 23  1  0
M  END
