mac-x0348-diamond-x0849_0_A
     RDKit          3D

 27 30  0  0  0  0  0  0  0  0999 V2000
    0.5540   18.5670   -6.3580 C   0  0  0  0  0  0  0  0  0  0  0  0
    0.0570   17.4810   -5.5450 N   0  0  0  0  0  0  0  0  0  0  0  0
    0.8060   16.8030   -4.6510 C   0  0  0  0  0  0  0  0  0  0  0  0
   -1.2110   16.9680   -5.5370 C   0  0  0  0  0  0  0  0  0  0  0  0
    0.0740   15.8400   -4.0400 C   0  0  0  0  0  0  0  0  0  0  0  0
   -1.2400   15.9450   -4.5740 C   0  0  0  0  0  0  0  0  0  0  0  0
   -2.3300   17.3140   -6.2870 C   0  0  0  0  0  0  0  0  0  0  0  0
    0.6640   14.9120   -3.0260 C   0  0  0  0  0  0  0  0  0  0  0  0
   -2.4540   15.2880   -4.3420 C   0  0  0  0  0  0  0  0  0  0  0  0
   -3.4850   16.5960   -6.0450 C   0  0  0  0  0  0  0  0  0  0  0  0
    0.7460   13.4710   -3.5670 C   0  0  0  0  0  0  0  0  0  0  0  0
   -2.7470   14.2530   -3.3140 C   0  0  0  0  0  0  0  0  0  0  0  0
   -3.5470   15.6280   -5.1060 C   0  0  0  0  0  0  0  0  0  0  0  0
    0.6840   12.4420   -2.4750 C   0  0  0  0  0  0  0  0  0  0  0  0
   -3.6110   14.9780   -2.4040 O   0  0  0  0  0  0  0  0  0  0  0  0
    0.7280   12.6750   -1.2820 O   0  0  0  0  0  0  0  0  0  0  0  0
    0.5680   11.1750   -2.9140 O   0  0  0  0  0  0  0  0  0  0  0  0
   -3.5960   14.9650   -1.0180 C   0  0  0  0  0  0  0  0  0  0  0  0
   -2.3830   14.7890   -0.2950 C   0  0  0  0  0  0  0  0  0  0  0  0
   -4.7670   15.1280   -0.3000 C   0  0  0  0  0  0  0  0  0  0  0  0
   -2.4570   14.7810    1.1120 C   0  0  0  0  0  0  0  0  0  0  0  0
   -4.7060   15.1060    1.0710 C   0  0  0  0  0  0  0  0  0  0  0  0
   -1.1040   14.6260   -0.8630 C   0  0  0  0  0  0  0  0  0  0  0  0
   -3.5850   14.9360    1.7600 N   0  0  0  0  0  0  0  0  0  0  0  0
   -1.3990   14.6170    1.8700 N   0  0  0  0  0  0  0  0  0  0  0  0
    0.0100   14.4660   -0.0460 C   0  0  0  0  0  0  0  0  0  0  0  0
   -0.2090   14.4690    1.3110 C   0  0  0  0  0  0  0  0  0  0  0  0
  1  2  1  0
  2  3  1  0
  2  4  1  0
  3  5  2  0
  4  6  2  0
  5  6  1  0
  4  7  1  0
  5  8  1  0
  6  9  1  0
  7 10  2  0
  8 11  1  0
  9 12  1  0
  9 13  2  0
 10 13  1  0
 11 14  1  0
 12 15  1  0
 14 16  2  0
 14 17  1  0
 15 18  1  0
 18 19  1  0
 18 20  2  0
 19 21  2  0
 20 22  1  0
 19 23  1  0
 21 24  1  0
 22 24  2  0
 21 25  1  0
 23 26  2  0
 25 27  2  0
 26 27  1  0
M  END
