mac-x0411-mac-x0306
     RDKit          3D

 26 28  0  0  0  0  0  0  0  0999 V2000
    0.6290    8.7640   -7.6630 Cl  0  0  0  0  0  0  0  0  0  0  0  0
   -0.6360    9.5320   -6.7630 C   0  0  0  0  0  0  0  0  0  0  0  0
   -0.5090   10.8180   -6.1870 C   0  0  0  0  0  0  0  0  0  0  0  0
   -1.8200    8.8130   -6.6340 C   0  0  0  0  0  0  0  0  0  0  0  0
    0.6860   11.5030   -6.3280 O   0  0  0  0  0  0  0  0  0  0  0  0
   -1.6070   11.3850   -5.4830 C   0  0  0  0  0  0  0  0  0  0  0  0
   -2.8930    9.3570   -5.9390 C   0  0  0  0  0  0  0  0  0  0  0  0
   -1.5700   12.7750   -4.8540 C   0  0  0  0  0  0  0  0  0  0  0  0
    1.0330   12.4610   -5.3070 C   0  0  0  0  0  0  0  0  0  0  0  0
   -2.7900   10.6270   -5.3740 C   0  0  0  0  0  0  0  0  0  0  0  0
    0.8810   11.9190   -3.8870 C   0  0  0  0  0  0  0  0  0  0  0  0
   -2.2800   12.9630   -3.5060 C   0  0  0  0  0  0  0  0  0  0  0  0
    1.3850   12.7210   -2.9300 O   0  0  0  0  0  0  0  0  0  0  0  0
    0.3680   10.8560   -3.5730 O   0  0  0  0  0  0  0  0  0  0  0  0
   -1.9660   14.3420   -2.8930 C   0  0  0  0  0  0  0  0  0  0  0  0
   -3.0640   14.8200   -2.0380 N   0  0  0  0  0  0  0  0  0  0  0  0
   -4.3280   15.0200   -2.5800 C   0  0  0  0  0  0  0  0  0  0  0  0
   -2.9660   14.6470   -0.6580 C   0  0  0  0  0  0  0  0  0  0  0  0
   -5.4120   15.2720   -1.8390 C   0  0  0  0  0  0  0  0  0  0  0  0
   -3.9770   14.8760    0.1890 C   0  0  0  0  0  0  0  0  0  0  0  0
   -5.3170   15.3660   -0.3300 C   0  0  0  0  0  0  0  0  0  0  0  0
   -6.5530   14.8810    0.4120 C   0  0  0  0  0  0  0  0  0  0  0  0
   -6.5550   14.5180    1.7500 N   0  0  0  0  0  0  0  0  0  0  0  0
   -7.7760   14.7540   -0.0780 N   0  0  0  0  0  0  0  0  0  0  0  0
   -8.5640   14.3150    0.9490 C   0  0  0  0  0  0  0  0  0  0  0  0
   -7.8250   14.1630    2.0920 C   0  0  0  0  0  0  0  0  0  0  0  0
  1  2  1  0
  2  3  2  0
  2  4  1  0
  3  5  1  0
  3  6  1  0
  4  7  2  0
  6  8  1  0
  5  9  1  0
  6 10  2  0
  7 10  1  0
  9 11  1  0
  8 12  1  0
 11 13  1  0
 11 14  2  0
 12 15  1  0
 15 16  1  0
 16 17  1  0
 16 18  1  0
 17 19  2  0
 18 20  2  0
 19 21  1  0
 20 21  1  0
 21 22  1  0
 22 23  1  0
 22 24  2  0
 24 25  1  0
 23 26  1  0
 25 26  2  0
M  END
