mac-x0345-diamond-x0837_0_A
     RDKit          3D

 10 10  0  0  0  0  0  0  0  0999 V2000
   -7.4420   14.7850    0.7380 C   0  0  0  0  0  0  0  0  0  0  0  0
   -6.3090   14.9440   -0.2430 C   0  0  0  0  0  0  0  0  0  0  0  0
   -6.6640   14.7660   -1.5310 N   0  0  0  0  0  0  0  0  0  0  0  0
   -4.9850   15.2450    0.0970 C   0  0  0  0  0  0  0  0  0  0  0  0
   -4.3200   15.5690    1.8030 Br  0  0  0  0  0  0  0  0  0  0  0  0
   -4.0250   15.3220   -0.8800 C   0  0  0  0  0  0  0  0  0  0  0  0
   -5.7200   14.8600   -2.4800 C   0  0  0  0  0  0  0  0  0  0  0  0
   -6.1630   14.6760   -3.7900 N   0  0  0  0  0  0  0  0  0  0  0  0
   -4.3890   15.1170   -2.1860 C   0  0  0  0  0  0  0  0  0  0  0  0
   -2.9270   15.1880   -3.6680 I   0  0  0  0  0  0  0  0  0  0  0  0
  1  2  1  0
  2  3  2  0
  2  4  1  0
  4  5  1  0
  4  6  2  0
  3  7  1  0
  7  8  1  0
  6  9  1  0
  7  9  2  0
  9 10  1  0
M  END
