mac-x0213-diamond-x0592_0_A
     RDKit          3D

 25 27  0  0  0  0  0  0  0  0999 V2000
   -0.0120   11.8450   -2.6220 O   0  0  0  0  0  0  0  0  0  0  0  0
    0.1060   13.1690   -2.8310 C   0  0  0  0  0  0  0  0  0  0  0  0
    0.0770   13.9400   -1.8410 N   0  0  0  0  0  0  0  0  0  0  0  0
    0.2210   13.6550   -4.2230 C   0  0  0  0  0  0  0  0  0  0  0  0
   -0.1150   13.5360   -0.4830 C   0  0  0  0  0  0  0  0  0  0  0  0
   -1.2080   14.0380   -4.6670 C   0  0  0  0  0  0  0  0  0  0  0  0
    1.1170   14.9140   -4.3220 C   0  0  0  0  0  0  0  0  0  0  0  0
   -0.9300   14.6200    0.1980 C   0  0  0  0  0  0  0  0  0  0  0  0
   -1.1270   15.5090   -4.9340 C   0  0  0  0  0  0  0  0  0  0  0  0
    0.1690   15.9950   -4.7490 C   0  0  0  0  0  0  0  0  0  0  0  0
   -2.2680   14.6890   -0.4240 N   0  0  0  0  0  0  0  0  0  0  0  0
   -2.1610   16.3480   -5.3290 C   0  0  0  0  0  0  0  0  0  0  0  0
    0.4570   17.3350   -4.9580 C   0  0  0  0  0  0  0  0  0  0  0  0
   -3.1960   14.7540    0.4370 C   0  0  0  0  0  0  0  0  0  0  0  0
   -1.8700   17.6940   -5.5430 C   0  0  0  0  0  0  0  0  0  0  0  0
   -0.5740   18.1800   -5.3590 C   0  0  0  0  0  0  0  0  0  0  0  0
   -3.0000   14.7620    1.7820 N   0  0  0  0  0  0  0  0  0  0  0  0
   -4.5990   14.8220    0.0580 C   0  0  0  0  0  0  0  0  0  0  0  0
   -5.2380   15.1600   -1.1690 C   0  0  0  0  0  0  0  0  0  0  0  0
   -5.6520   14.5490    0.8950 C   0  0  0  0  0  0  0  0  0  0  0  0
   -6.5830   15.0970   -1.0860 N   0  0  0  0  0  0  0  0  0  0  0  0
   -6.7920   14.7230    0.1890 N   0  0  0  0  0  0  0  0  0  0  0  0
   -8.1190   14.5340    0.7370 C   0  0  0  0  0  0  0  0  0  0  0  0
   -8.0300   14.1130    2.2040 C   0  0  0  0  0  0  0  0  0  0  0  0
   -7.2610   15.0370    2.9800 O   0  0  0  0  0  0  0  0  0  0  0  0
  1  2  1  0
  2  3  2  3
  2  4  1  0
  3  5  1  0
  4  6  1  0
  4  7  1  0
  5  8  1  0
  6  9  1  0
  7 10  1  0
  9 10  2  0
  8 11  1  0
  9 12  1  0
 10 13  1  0
 11 14  2  3
 12 15  2  0
 13 16  2  0
 15 16  1  0
 14 17  1  0
 14 18  1  0
 18 19  1  0
 18 20  2  0
 19 21  2  0
 20 22  1  0
 21 22  1  0
 22 23  1  0
 23 24  1  0
 24 25  1  0
M  END
