mac-x0182-mac-x0116
     RDKit          3D

 30 34  0  0  0  0  0  0  0  0999 V2000
    1.6680   11.8280   -7.0550 O   0  0  0  0  0  0  0  0  0  0  0  0
    0.7650   11.4940   -6.3360 C   0  0  0  0  0  0  0  0  0  0  0  0
    0.5620   11.9570   -5.0740 N   0  0  0  0  0  0  0  0  0  0  0  0
   -0.2470   10.4820   -6.7170 C   0  0  0  0  0  0  0  0  0  0  0  0
   -0.6020   11.0670   -4.2700 S   0  0  2  0  0  0  0  0  0  0  0  0
   -1.0840   10.1460   -5.6570 C   0  0  0  0  0  0  0  0  0  0  0  0
   -0.4100    9.8840   -7.9540 C   0  0  0  0  0  0  0  0  0  0  0  0
   -1.5990   12.1470   -3.9240 N   0  0  0  0  0  0  0  0  0  0  0  0
    0.0950   10.2240   -3.3380 O   0  0  0  0  0  0  0  0  0  0  0  0
   -2.1020    9.2240   -5.7640 C   0  0  0  0  0  0  0  0  0  0  0  0
   -1.4350    8.9410   -8.0970 C   0  0  0  0  0  0  0  0  0  0  0  0
   -1.1000   13.1470   -2.9700 C   0  0  0  0  0  0  0  0  0  0  0  0
   -2.2750    8.6140   -7.0090 C   0  0  0  0  0  0  0  0  0  0  0  0
   -1.7510   14.5270   -3.0970 C   0  0  0  0  0  0  0  0  0  0  0  0
   -2.4120   14.8850   -1.8550 N   0  0  0  0  0  0  0  0  0  0  0  0
   -3.7630   15.1270   -1.8380 C   0  0  0  0  0  0  0  0  0  0  0  0
   -1.7790   14.7310   -0.6450 C   0  0  0  0  0  0  0  0  0  0  0  0
   -4.5080   15.1930   -0.7910 N   0  0  0  0  0  0  0  0  0  0  0  0
   -2.5790   14.7910    0.5830 C   0  0  0  0  0  0  0  0  0  0  0  0
   -0.5330   14.5350   -0.3130 N   0  0  0  0  0  0  0  0  0  0  0  0
   -3.9110   15.0110    0.4530 C   0  0  0  0  0  0  0  0  0  0  0  0
   -1.7380   14.5990    1.6500 N   0  0  0  0  0  0  0  0  0  0  0  0
   -0.5800   14.4640    1.0810 C   0  0  0  0  0  0  0  0  0  0  0  0
   -4.7220   15.0650    1.5700 N   0  0  0  0  0  0  0  0  0  0  0  0
   -6.1340   14.7370    1.5050 C   0  0  0  0  0  0  0  0  0  0  0  0
   -6.5060   13.2980    1.5790 C   0  0  0  0  0  0  0  0  0  0  0  0
   -6.4630   12.5830    0.4190 O   0  0  0  0  0  0  0  0  0  0  0  0
   -6.9170   12.4900    2.6210 C   0  0  0  0  0  0  0  0  0  0  0  0
   -7.1390   11.2190    2.0710 C   0  0  0  0  0  0  0  0  0  0  0  0
   -6.8500   11.3240    0.7300 C   0  0  0  0  0  0  0  0  0  0  0  0
  1  2  2  0
  2  3  1  0
  2  4  1  0
  5  3  1  6
  4  6  2  0
  5  6  1  0
  4  7  1  0
  5  8  2  0
  5  9  2  0
  6 10  1  0
  7 11  2  0
  8 12  1  0
 10 13  2  0
 11 13  1  0
 12 14  1  0
 14 15  1  0
 15 16  1  0
 15 17  1  0
 16 18  2  0
 17 19  1  0
 17 20  2  0
 18 21  1  0
 19 21  2  0
 19 22  1  0
 20 23  1  0
 22 23  2  0
 21 24  1  0
 24 25  1  0
 25 26  1  0
 26 27  1  0
 26 28  2  0
 28 29  1  0
 27 30  1  0
 29 30  2  0
M  END
