mac-x0139-mac-x0123
     RDKit          3D

 28 32  0  0  0  0  0  0  0  0999 V2000
    0.4010   15.9890   -3.4020 C   0  0  0  0  0  0  0  0  0  0  0  0
    0.1580   14.8090   -2.5920 N   0  0  0  0  0  0  0  0  0  0  0  0
   -0.1690   13.7240   -3.5050 C   0  0  0  0  0  0  0  0  0  0  0  0
   -0.6340   14.7760   -1.4350 C   0  0  0  0  0  0  0  0  0  0  0  0
    1.0760   13.2810   -4.2250 C   0  0  0  0  0  0  0  0  0  0  0  0
   -2.0020   14.7610   -1.5590 C   0  0  0  0  0  0  0  0  0  0  0  0
   -0.1490   14.7380   -0.1590 N   0  0  0  0  0  0  0  0  0  0  0  0
    1.7450   12.3190   -3.3200 C   0  0  0  0  0  0  0  0  0  0  0  0
   -2.8610   14.6990   -0.4480 C   0  0  0  0  0  0  0  0  0  0  0  0
   -1.0420   14.6880    0.8730 C   0  0  0  0  0  0  0  0  0  0  0  0
   -2.7690   14.7940   -2.7110 C   0  0  0  0  0  0  0  0  0  0  0  0
    2.9360   12.3290   -3.0770 O   0  0  0  0  0  0  0  0  0  0  0  0
    0.8730   11.4310   -2.7860 O   0  0  0  0  0  0  0  0  0  0  0  0
   -2.3990   14.6640    0.8300 N   0  0  0  0  0  0  0  0  0  0  0  0
   -4.1860   14.6770   -0.9840 N   0  0  0  0  0  0  0  0  0  0  0  0
   -4.0330   14.7470   -2.3490 C   0  0  0  0  0  0  0  0  0  0  0  0
   -5.5580   14.6060   -0.6600 C   0  0  0  0  0  0  0  0  0  0  0  0
   -6.2240   14.5850   -1.8800 N   0  0  0  0  0  0  0  0  0  0  0  0
   -6.3540   14.5180    0.4260 C   0  0  0  0  0  0  0  0  0  0  0  0
   -7.6020   14.4990   -2.0290 C   0  0  0  0  0  0  0  0  0  0  0  0
   -7.8370   14.4530    0.1710 C   0  0  0  0  0  0  0  0  0  0  0  0
   -6.2190   14.4410    1.8790 C   0  0  0  0  0  0  0  0  0  0  0  0
   -5.6530   14.6270   -3.1110 N   0  0  0  0  0  0  0  0  0  0  0  0
   -8.4310   14.4410   -0.9670 N   0  0  0  0  0  0  0  0  0  0  0  0
   -8.6360   14.4000    1.4300 C   0  0  0  0  0  0  0  0  0  0  0  0
   -7.5990   14.6720    2.5010 C   0  0  0  0  0  0  0  0  0  0  0  0
   -7.8970   14.4800   -3.3040 N   0  0  0  0  0  0  0  0  0  0  0  0
   -6.6940   14.5620   -3.9150 C   0  0  0  0  0  0  0  0  0  0  0  0
  1  2  1  0
  2  3  1  0
  2  4  1  0
  3  5  1  0
  4  6  2  0
  4  7  1  0
  5  8  1  0
  6  9  1  0
  7 10  2  0
  6 11  1  0
  8 12  2  0
  8 13  1  0
  9 14  2  0
 10 14  1  0
  9 15  1  0
 11 16  2  0
 15 16  1  0
 15 17  1  0
 17 18  1  0
 17 19  2  0
 18 20  1  0
 19 21  1  0
 19 22  1  0
 18 23  1  0
 20 24  1  0
 21 24  2  0
 21 25  1  0
 22 26  1  0
 25 26  1  0
 20 27  2  0
 23 28  2  0
 27 28  1  0
M  END
