mac-x0283-mac-x0255
     RDKit          3D

 26 29  0  0  0  0  0  0  0  0999 V2000
   -6.8810   14.5550    2.4400 N   0  0  0  0  0  0  0  0  0  0  0  0
   -6.6750   14.7210    1.1150 C   0  0  0  0  0  0  0  0  0  0  0  0
   -7.6610   14.8130    0.2200 N   0  0  0  0  0  0  0  0  0  0  0  0
   -5.3980   14.8260    0.5040 C   0  0  0  0  0  0  0  0  0  0  0  0
   -7.0380   14.9880   -1.0050 O   0  0  0  0  0  0  0  0  0  0  0  0
   -5.6880   14.9960   -0.8370 C   0  0  0  0  0  0  0  0  0  0  0  0
   -4.0480   14.7980    0.9030 C   0  0  0  0  0  0  0  0  0  0  0  0
   -4.7280   15.1460   -1.8340 C   0  0  0  0  0  0  0  0  0  0  0  0
   -3.0390   14.9350   -0.0600 C   0  0  0  0  0  0  0  0  0  0  0  0
   -1.5900   14.8820    0.3910 C   0  0  0  0  0  0  0  0  0  0  0  0
   -3.3910   15.1110   -1.4170 C   0  0  0  0  0  0  0  0  0  0  0  0
   -0.6110   14.7340   -0.7770 C   0  0  0  0  0  0  0  0  0  0  0  0
    0.0600   13.3760   -0.7260 C   0  0  0  0  0  0  0  0  0  0  0  0
    1.0340   13.2160   -1.7750 O   0  0  0  0  0  0  0  0  0  0  0  0
    0.7850   12.2610   -2.7230 C   0  0  0  0  0  0  0  0  0  0  0  0
    0.2710   11.1740   -2.4970 O   0  0  0  0  0  0  0  0  0  0  0  0
    1.2610   12.7750   -4.0700 C   0  0  0  0  0  0  0  0  0  0  0  0
    0.5970   14.0680   -4.4320 C   0  0  0  0  0  0  0  0  0  0  0  0
    1.1830   15.2970   -4.6310 C   0  0  0  0  0  0  0  0  0  0  0  0
   -1.0980   14.1450   -4.6550 S   0  0  0  0  0  0  0  0  0  0  0  0
    0.2440   16.3210   -4.9800 C   0  0  0  0  0  0  0  0  0  0  0  0
   -1.0620   15.8210   -5.0300 C   0  0  0  0  0  0  0  0  0  0  0  0
    0.4450   17.6860   -5.2680 C   0  0  0  0  0  0  0  0  0  0  0  0
   -2.1570   16.6480   -5.3570 C   0  0  0  0  0  0  0  0  0  0  0  0
   -0.6350   18.5020   -5.5970 C   0  0  0  0  0  0  0  0  0  0  0  0
   -1.9170   17.9900   -5.6410 C   0  0  0  0  0  0  0  0  0  0  0  0
  1  2  1  0
  2  3  2  0
  2  4  1  0
  3  5  1  0
  4  6  2  0
  5  6  1  0
  4  7  1  0
  6  8  1  0
  7  9  2  0
  9 10  1  0
  8 11  2  0
  9 11  1  0
 10 12  1  0
 12 13  1  0
 13 14  1  0
 14 15  1  0
 15 16  2  0
 15 17  1  0
 17 18  1  0
 18 19  2  0
 18 20  1  0
 19 21  1  0
 20 22  1  0
 21 22  2  0
 21 23  1  0
 22 24  1  0
 23 25  2  0
 24 26  2  0
 25 26  1  0
M  END
