mac-x0305-mac-x0496
     RDKit          3D

 21 22  0  0  0  0  0  0  0  0999 V2000
    0.2800   13.2870   -0.4520 O   0  0  0  0  0  0  0  0  0  0  0  0
   -0.3600   14.2720   -1.1690 C   0  0  0  0  0  0  0  0  0  0  0  0
    0.2210   14.8340   -2.0820 O   0  0  0  0  0  0  0  0  0  0  0  0
   -1.7870   14.4980   -0.7190 C   0  0  0  0  0  0  0  0  0  0  0  0
   -2.1940   14.6040    0.6200 C   0  0  0  0  0  0  0  0  0  0  0  0
   -2.6710   14.5800   -1.7470 N   0  0  0  0  0  0  0  0  0  0  0  0
   -1.3320   14.5500    1.6930 O   0  0  0  0  0  0  0  0  0  0  0  0
   -3.5760   14.7620    0.8980 C   0  0  0  0  0  0  0  0  0  0  0  0
   -3.9790   14.7370   -1.4490 C   0  0  0  0  0  0  0  0  0  0  0  0
   -4.5400   14.8170   -0.1450 C   0  0  0  0  0  0  0  0  0  0  0  0
   -4.6800   14.7940   -2.6120 O   0  0  0  0  0  0  0  0  0  0  0  0
   -6.0530   14.9390    0.1630 C   0  0  0  0  0  0  0  0  0  0  0  0
   -6.6130   14.6430    1.4280 N   0  0  0  0  0  0  0  0  0  0  0  0
   -6.8100   15.2690   -0.7460 O   0  0  0  0  0  0  0  0  0  0  0  0
   -8.0430   14.2500    1.5540 C   0  0  0  0  0  0  0  0  0  0  0  0
   -8.8930   15.2550    2.2820 C   0  0  0  0  0  0  0  0  0  0  0  0
  -10.1480   15.5360    1.7820 O   0  0  0  0  0  0  0  0  0  0  0  0
   -8.6310   15.9470    3.3710 N   0  0  0  0  0  0  0  0  0  0  0  0
   -9.7610   16.6950    3.5520 C   0  0  0  0  0  0  0  0  0  0  0  0
  -10.7180   16.4910    2.6400 N   0  0  0  0  0  0  0  0  0  0  0  0
   -9.8960   17.6500    4.6740 C   0  0  0  0  0  0  0  0  0  0  0  0
  1  2  1  0
  2  3  2  0
  2  4  1  0
  4  5  2  0
  4  6  1  0
  5  7  1  0
  5  8  1  0
  6  9  2  0
  8 10  2  0
  9 10  1  0
  9 11  1  0
 10 12  1  0
 12 13  1  0
 12 14  2  0
 13 15  1  0
 15 16  1  0
 16 17  1  0
 16 18  2  0
 18 19  1  0
 17 20  1  0
 19 20  2  0
 19 21  1  0
M  END
