mac-x0360-diamond-x0587_0_A
     RDKit          3D

 23 24  0  0  0  0  0  0  0  0999 V2000
   -7.4060   11.4660    1.7300 Cl  0  0  0  0  0  0  0  0  0  0  0  0
   -6.2560   11.5910    0.4160 C   0  0  0  0  0  0  0  0  0  0  0  0
   -6.2030   10.6970   -0.6020 C   0  0  0  0  0  0  0  0  0  0  0  0
   -5.3620   12.6260    0.3820 C   0  0  0  0  0  0  0  0  0  0  0  0
   -4.4020   12.8690   -0.5940 C   0  0  0  0  0  0  0  0  0  0  0  0
   -5.2920   10.8320   -1.5950 C   0  0  0  0  0  0  0  0  0  0  0  0
   -5.2340    9.6430   -2.8940 Cl  0  0  0  0  0  0  0  0  0  0  0  0
   -3.3010   14.1450   -0.7590 S   0  0  0  0  0  0  0  0  0  0  0  0
   -4.4240   11.8840   -1.5910 C   0  0  0  0  0  0  0  0  0  0  0  0
   -2.2740   13.3890   -1.8330 N   0  0  0  0  0  0  0  0  0  0  0  0
   -4.6360   14.8480   -1.2230 C   0  0  0  0  0  0  0  0  0  0  0  0
   -2.8580   14.2230    0.8740 O   0  0  0  0  0  0  0  0  0  0  0  0
   -5.1230   14.0900   -2.2950 F   0  0  0  0  0  0  0  0  0  0  0  0
   -4.5430   16.1260   -1.7540 F   0  0  0  0  0  0  0  0  0  0  0  0
   -5.6420   14.8760   -0.1960 C   0  0  0  0  0  0  0  0  0  0  0  0
   -6.9650   14.7820   -0.4600 N   0  0  0  0  0  0  0  0  0  0  0  0
   -5.2550   14.9710    1.0670 N   0  0  0  0  0  0  0  0  0  0  0  0
   -7.8990   14.7770    0.4970 C   0  0  0  0  0  0  0  0  0  0  0  0
   -6.1220   14.9710    2.0630 C   0  0  0  0  0  0  0  0  0  0  0  0
   -7.4850   14.8770    1.8240 C   0  0  0  0  0  0  0  0  0  0  0  0
   -8.4190   14.9000    2.9100 C   0  0  0  0  0  0  0  0  0  0  0  0
   -7.9500   14.8330    4.2390 N   0  0  0  0  0  0  0  0  0  0  0  0
   -9.6480   15.0020    2.6730 O   0  0  0  0  0  0  0  0  0  0  0  0
  1  2  1  0
  2  3  2  0
  2  4  1  0
  4  5  2  0
  3  6  1  0
  6  7  1  0
  5  8  1  0
  5  9  1  0
  6  9  2  0
  8 10  1  0
  8 11  1  0
  8 12  2  0
 11 13  1  0
 11 14  1  0
 11 15  1  0
 15 16  2  0
 15 17  1  0
 16 18  1  0
 17 19  2  0
 18 20  2  0
 19 20  1  0
 20 21  1  0
 21 22  1  0
 21 23  2  0
M  END
