mac-x0381-diamond-x0969_0_A
     RDKit          3D

 22 25  0  0  0  0  0  0  0  0999 V2000
   -7.7370   14.3060    4.7800 N   0  0  0  0  0  0  0  0  0  0  0  0
   -7.9650   14.6630    3.4780 C   0  0  0  0  0  0  0  0  0  0  0  0
   -6.9230   14.4690    2.6940 N   0  0  0  0  0  0  0  0  0  0  0  0
   -9.3420   15.1880    3.1880 C   0  0  0  0  0  0  0  0  0  0  0  0
   -9.5430   15.9530    2.0430 C   0  0  0  0  0  0  0  0  0  0  0  0
  -10.4130   14.9250    4.0480 C   0  0  0  0  0  0  0  0  0  0  0  0
   -6.8020   14.6620    1.3320 C   0  0  0  0  0  0  0  0  0  0  0  0
  -10.8080   16.4680    1.7370 C   0  0  0  0  0  0  0  0  0  0  0  0
  -11.6850   15.4310    3.7530 C   0  0  0  0  0  0  0  0  0  0  0  0
   -7.7480   14.6460    0.4080 N   0  0  0  0  0  0  0  0  0  0  0  0
   -5.5710   14.9070    0.6680 N   0  0  0  0  0  0  0  0  0  0  0  0
  -11.8950   16.2040    2.5980 C   0  0  0  0  0  0  0  0  0  0  0  0
  -11.0040   17.2430    0.5860 C   0  0  0  0  0  0  0  0  0  0  0  0
   -7.1870   14.8590   -0.8350 N   0  0  0  0  0  0  0  0  0  0  0  0
   -5.8970   15.0090   -0.6800 C   0  0  0  0  0  0  0  0  0  0  0  0
   -4.2480   15.0350    1.1180 C   0  0  0  0  0  0  0  0  0  0  0  0
  -13.1620   16.7210    2.2780 C   0  0  0  0  0  0  0  0  0  0  0  0
  -12.2670   17.7520    0.2830 C   0  0  0  0  0  0  0  0  0  0  0  0
   -4.8440   15.2360   -1.6120 C   0  0  0  0  0  0  0  0  0  0  0  0
   -3.2570   15.2360    0.2370 C   0  0  0  0  0  0  0  0  0  0  0  0
  -13.3430   17.4900    1.1250 C   0  0  0  0  0  0  0  0  0  0  0  0
   -3.5800   15.3330   -1.1780 C   0  0  0  0  0  0  0  0  0  0  0  0
  1  2  1  0
  2  3  2  3
  2  4  1  0
  4  5  2  0
  4  6  1  0
  3  7  1  0
  5  8  1  0
  6  9  2  0
  7 10  2  0
  7 11  1  0
  8 12  2  0
  9 12  1  0
  8 13  1  0
 10 14  1  0
 11 15  1  0
 14 15  2  0
 11 16  1  0
 12 17  1  0
 13 18  2  0
 15 19  1  0
 16 20  2  0
 17 21  2  0
 18 21  1  0
 19 22  2  0
 20 22  1  0
M  END
