mac-x0365-mac-x0354
     RDKit          3D

 28 30  0  0  0  0  0  0  0  0999 V2000
   -0.6890   14.7920   -1.1780 O   0  0  0  0  0  0  0  0  0  0  0  0
   -1.6650   14.8010   -2.1010 C   0  0  0  0  0  0  0  0  0  0  0  0
   -1.4370   14.7560   -3.3600 N   0  0  0  0  0  0  0  0  0  0  0  0
   -3.0290   14.8870   -1.5330 C   0  0  0  0  0  0  0  0  0  0  0  0
   -0.0370   14.6990   -3.8380 C   0  0  0  0  0  0  0  0  0  0  0  0
   -4.1100   14.9940   -2.4130 C   0  0  0  0  0  0  0  0  0  0  0  0
   -3.2480   14.8650   -0.1450 C   0  0  0  0  0  0  0  0  0  0  0  0
    0.9640   14.0330   -2.8660 C   0  0  0  0  0  0  0  0  0  0  0  0
   -5.3900   15.0720   -1.8940 C   0  0  0  0  0  0  0  0  0  0  0  0
   -4.5470   14.9470    0.3610 C   0  0  0  0  0  0  0  0  0  0  0  0
   -6.4410   15.1700   -2.7160 F   0  0  0  0  0  0  0  0  0  0  0  0
    0.6150   12.6550   -2.4970 N   0  0  0  0  0  0  0  0  0  0  0  0
   -5.6140   15.0480   -0.5280 C   0  0  0  0  0  0  0  0  0  0  0  0
   -6.8880   15.1220   -0.0450 O   0  0  0  0  0  0  0  0  0  0  0  0
    0.5840   11.7270   -3.3630 C   0  0  0  0  0  0  0  0  0  0  0  0
    0.2520   10.4940   -2.9090 O   0  0  0  0  0  0  0  0  0  0  0  0
    0.8700   11.8170   -4.7670 C   0  0  0  0  0  0  0  0  0  0  0  0
    1.8650   12.6020   -5.3790 C   0  0  0  0  0  0  0  0  0  0  0  0
    0.2540   11.1560   -5.8350 C   0  0  0  0  0  0  0  0  0  0  0  0
    0.9040   11.5700   -6.9480 N   0  0  0  0  0  0  0  0  0  0  0  0
    1.8840   12.4490   -6.6910 N   0  0  0  0  0  0  0  0  0  0  0  0
   -0.8350   10.1990   -5.9240 C   0  0  0  0  0  0  0  0  0  0  0  0
    0.6100   11.1370   -8.3000 C   0  0  0  0  0  0  0  0  0  0  0  0
   -0.5960    8.8720   -6.3150 C   0  0  0  0  0  0  0  0  0  0  0  0
   -2.1270   10.6040   -5.6290 C   0  0  0  0  0  0  0  0  0  0  0  0
   -1.6520    7.9690   -6.3990 C   0  0  0  0  0  0  0  0  0  0  0  0
   -3.1810    9.7000   -5.7160 C   0  0  0  0  0  0  0  0  0  0  0  0
   -2.9420    8.3860   -6.0970 C   0  0  0  0  0  0  0  0  0  0  0  0
  1  2  1  0
  2  3  2  3
  2  4  1  0
  3  5  1  0
  4  6  2  0
  4  7  1  0
  5  8  1  0
  6  9  1  0
  7 10  2  0
  9 11  1  0
  8 12  1  0
  9 13  2  0
 10 13  1  0
 13 14  1  0
 12 15  2  3
 15 16  1  0
 15 17  1  0
 17 18  1  0
 17 19  2  0
 19 20  1  0
 18 21  2  0
 20 21  1  0
 19 22  1  0
 20 23  1  0
 22 24  2  0
 22 25  1  0
 24 26  1  0
 25 27  2  0
 26 28  2  0
 27 28  1  0
M  END
