mac-x0455-diamond-x0910_0_A
     RDKit          3D

 17 18  0  0  0  0  0  0  0  0999 V2000
   -2.0570   14.2760   -2.1650 C   0  0  0  0  0  0  0  0  0  0  0  0
   -0.9770   14.2280   -3.3020 C   0  0  1  0  0  0  0  0  0  0  0  0
   -1.0670   15.4490   -4.0690 O   0  0  0  0  0  0  0  0  0  0  0  0
   -1.5320   14.5690   -0.7840 C   0  0  0  0  0  0  0  0  0  0  0  0
    0.3980   14.1750   -2.6010 C   0  0  0  0  0  0  0  0  0  0  0  0
   -0.9890   13.0250   -4.2680 C   0  0  0  0  0  0  0  0  0  0  0  0
   -2.3270   14.6520    0.3060 N   0  0  0  0  0  0  0  0  0  0  0  0
   -0.2090   14.7750   -0.5190 N   0  0  0  0  0  0  0  0  0  0  0  0
    1.2390   15.0570   -2.5540 O   0  0  0  0  0  0  0  0  0  0  0  0
    0.6560   12.9970   -1.9960 O   0  0  0  0  0  0  0  0  0  0  0  0
   -2.0500   12.0960   -4.2730 C   0  0  0  0  0  0  0  0  0  0  0  0
    0.0680   12.8130   -5.1780 C   0  0  0  0  0  0  0  0  0  0  0  0
   -1.4290   14.9210    1.2740 N   0  0  0  0  0  0  0  0  0  0  0  0
   -0.1730   14.9920    0.7720 C   0  0  0  0  0  0  0  0  0  0  0  0
   -2.0480   11.0040   -5.1500 C   0  0  0  0  0  0  0  0  0  0  0  0
    0.0660   11.7220   -6.0530 C   0  0  0  0  0  0  0  0  0  0  0  0
   -0.9940   10.8170   -6.0370 C   0  0  0  0  0  0  0  0  0  0  0  0
  1  2  1  0
  2  3  1  6
  1  4  1  0
  2  5  1  0
  2  6  1  0
  4  7  2  0
  4  8  1  0
  5  9  2  0
  5 10  1  0
  6 11  2  0
  6 12  1  0
  7 13  1  0
  8 14  2  0
 13 14  1  0
 11 15  1  0
 12 16  2  0
 15 17  2  0
 16 17  1  0
M  END
