mac-x0397-mac-x0567
     RDKit          3D

 16 18  0  0  0  0  0  0  0  0999 V2000
   -6.5310   14.6550   -2.5310 Cl  0  0  0  0  0  0  0  0  0  0  0  0
   -5.0610   15.3390   -1.7980 C   0  0  1  0  0  0  0  0  0  0  0  0
   -4.9750   14.9470   -0.3740 C   0  0  0  0  0  0  0  0  0  0  0  0
   -3.8290   14.9490   -2.5870 C   0  0  0  0  0  0  0  0  0  0  0  0
   -6.0970   14.9340    0.4170 N   0  0  0  0  0  0  0  0  0  0  0  0
   -3.7950   14.5960    0.2360 C   0  0  0  0  0  0  0  0  0  0  0  0
   -2.6580   14.6100   -2.0130 C   0  0  0  0  0  0  0  0  0  0  0  0
   -5.7740   14.5930    1.6210 C   0  0  0  0  0  0  0  0  0  0  0  0
   -4.1050   14.2410    1.8600 S   0  0  0  0  0  0  0  0  0  0  0  0
   -2.4640   14.5880   -0.4740 C   0  0  2  0  0  0  0  0  0  0  0  0
   -6.6820   14.5320    2.5990 N   0  0  0  0  0  0  0  0  0  0  0  0
   -1.2270   13.7710    0.0400 C   0  0  1  0  0  0  0  0  0  0  0  0
   -1.9290   15.8810   -0.0130 C   0  0  0  0  0  0  0  0  0  0  0  0
    0.1270   14.1070   -0.4100 N   0  0  0  0  0  0  0  0  0  0  0  0
   -1.2180   14.1710    1.4420 N   0  0  0  0  0  0  0  0  0  0  0  0
   -1.6810   15.5600    1.3980 N   0  0  0  0  0  0  0  0  0  0  0  0
  2  1  1  6
  2  3  1  0
  2  4  1  0
  3  5  1  0
  3  6  2  0
  4  7  2  0
  5  8  2  0
  6  9  1  0
  8  9  1  0
  6 10  1  0
 10  7  1  6
  8 11  1  0
 10 12  1  0
 10 13  1  0
 12 14  1  6
 12 15  1  0
 13 16  1  0
 15 16  1  0
M  END
