mac-x0161-mac-x0116
     RDKit          3D

 24 27  0  0  0  0  0  0  0  0999 V2000
   -4.3920   15.1500    1.3740 N   0  0  0  0  0  0  0  0  0  0  0  0
   -5.8330   14.8200    1.4300 C   0  0  0  0  0  0  0  0  0  0  0  0
   -6.2040   13.3770    1.5240 C   0  0  0  0  0  0  0  0  0  0  0  0
   -3.6610   14.5770    0.2390 C   0  0  1  0  0  0  0  0  0  0  0  0
   -3.9260   15.4810   -0.8640 N   0  0  0  0  0  0  0  0  0  0  0  0
   -2.1500   14.3290    0.4520 C   0  0  1  0  0  0  0  0  0  0  0  0
   -3.3460   15.0250   -2.1240 C   0  0  0  0  0  0  0  0  0  0  0  0
   -1.3640   14.2540   -0.8600 C   0  0  1  0  0  0  0  0  0  0  0  0
   -1.3920   15.2760    1.2620 N   0  0  0  0  0  0  0  0  0  0  0  0
   -6.1100   12.6340    0.3810 O   0  0  0  0  0  0  0  0  0  0  0  0
   -6.6680   12.5860    2.5580 C   0  0  0  0  0  0  0  0  0  0  0  0
   -1.9000   15.0050   -1.9890 N   0  0  0  0  0  0  0  0  0  0  0  0
   -0.0120   14.6900   -0.4730 N   0  0  0  0  0  0  0  0  0  0  0  0
   -0.0430   14.8960    0.9560 C   0  0  0  0  0  0  0  0  0  0  0  0
   -6.8670   11.3030    2.0240 C   0  0  0  0  0  0  0  0  0  0  0  0
   -6.5120   11.3790    0.6990 C   0  0  0  0  0  0  0  0  0  0  0  0
   -1.1240   14.9070   -3.2350 C   0  0  0  0  0  0  0  0  0  0  0  0
   -0.8280   13.4970   -3.5990 C   0  0  0  0  0  0  0  0  0  0  0  0
   -1.2270   12.6710   -4.6210 C   0  0  0  0  0  0  0  0  0  0  0  0
    0.0190   12.8140   -2.7750 O   0  0  0  0  0  0  0  0  0  0  0  0
    0.1820   11.5220   -3.2510 N   0  0  0  0  0  0  0  0  0  0  0  0
   -0.5720   11.4630   -4.3500 C   0  0  0  0  0  0  0  0  0  0  0  0
   -0.6660   10.3360   -5.0900 O   0  0  0  0  0  0  0  0  0  0  0  0
   -1.7560   10.3270   -6.0030 C   0  0  0  0  0  0  0  0  0  0  0  0
  1  2  1  0
  2  3  1  0
  4  1  1  1
  4  5  1  0
  4  6  1  0
  5  7  1  0
  6  8  1  0
  6  9  1  1
  3 10  1  0
  3 11  2  0
  7 12  1  0
  8 12  1  0
  8 13  1  1
  9 14  1  0
 13 14  1  0
 11 15  1  0
 10 16  1  0
 15 16  2  0
 12 17  1  0
 17 18  1  0
 18 19  2  0
 18 20  1  0
 20 21  1  0
 19 22  1  0
 21 22  2  0
 22 23  1  0
 23 24  1  0
M  END
