mac-x0564-mac-x0255
     RDKit          3D

 22 26  0  0  0  0  0  0  0  0999 V2000
   -0.0090   12.8630   -1.5420 N   0  0  0  0  0  0  0  0  0  0  0  0
    0.6260   11.9830   -2.4120 C   0  0  0  0  0  0  0  0  0  0  0  0
    0.6860   10.7580   -2.2600 O   0  0  0  0  0  0  0  0  0  0  0  0
   -0.2550   13.9060   -2.2590 C   0  0  0  0  0  0  0  0  0  0  0  0
    1.1840   12.7540   -3.6270 C   0  0  0  0  0  0  0  0  0  0  0  0
   -1.0750   15.1110   -1.8280 C   0  0  1  0  0  0  0  0  0  0  0  0
    0.2530   13.8810   -3.5840 N   0  0  0  0  0  0  0  0  0  0  0  0
   -1.9800   14.9270   -3.0250 C   0  0  2  0  0  0  0  0  0  0  0  0
   -0.4990   14.3910   -4.7710 C   0  0  0  0  0  0  0  0  0  0  0  0
   -1.8940   15.2160   -0.6610 O   0  0  0  0  0  0  0  0  0  0  0  0
   -1.3780   15.6120   -4.2810 C   0  0  1  0  0  0  0  0  0  0  0  0
   -3.1660   14.6320   -0.9560 C   0  0  2  0  0  0  0  0  0  0  0  0
   -3.3780   14.6360   -2.5060 C   0  0  1  0  0  0  0  0  0  0  0  0
   -4.6880   15.1380   -3.0090 C   0  0  0  0  0  0  0  0  0  0  0  0
   -4.3400   15.0860   -0.1390 C   0  0  0  0  0  0  0  0  0  0  0  0
   -2.4040   16.1770   -5.3270 C   0  0  0  0  0  0  0  0  0  0  0  0
   -0.2910   16.6370   -3.9290 C   0  0  0  0  0  0  0  0  0  0  0  0
   -5.6520   15.5120   -2.1620 C   0  0  0  0  0  0  0  0  0  0  0  0
   -5.4810   15.4740   -0.7320 C   0  0  0  0  0  0  0  0  0  0  0  0
   -0.1400   17.8270   -4.5200 C   0  0  0  0  0  0  0  0  0  0  0  0
   -2.0730   17.5210   -5.9410 C   0  0  0  0  0  0  0  0  0  0  0  0
   -1.0260   18.2670   -5.5610 C   0  0  0  0  0  0  0  0  0  0  0  0
  1  2  1  0
  2  3  2  0
  1  4  2  0
  2  5  1  0
  4  6  1  0
  4  7  1  0
  5  7  1  0
  6  8  1  0
  7  9  1  0
  6 10  1  1
  8 11  1  1
 11  9  1  6
 10 12  1  0
  8 13  1  0
 12 13  1  0
 13 14  1  1
 12 15  1  1
 11 16  1  0
 11 17  1  0
 14 18  2  0
 15 19  2  0
 18 19  1  0
 17 20  2  0
 16 21  1  0
 20 22  1  0
 21 22  2  0
M  END
