mac-x0282-mac-x0319
     RDKit          3D

 21 23  0  0  0  0  0  0  0  0999 V2000
    0.8180   11.1150   -2.5690 O   0  0  0  0  0  0  0  0  0  0  0  0
    0.9440   12.3580   -3.0850 C   0  0  0  0  0  0  0  0  0  0  0  0
    0.9690   13.4820   -2.4520 N   0  0  0  0  0  0  0  0  0  0  0  0
    1.0300   12.5650   -4.5480 C   0  0  0  0  0  0  0  0  0  0  0  0
    0.8800   13.5250   -1.0330 C   0  0  0  0  0  0  0  0  0  0  0  0
    0.3990   13.9140   -4.6420 C   0  0  0  0  0  0  0  0  0  0  0  0
   -0.3740   14.0490   -0.4330 C   0  0  0  0  0  0  0  0  0  0  0  0
    1.1590   15.0810   -4.4470 C   0  0  0  0  0  0  0  0  0  0  0  0
   -0.9710   14.0180   -4.8990 C   0  0  0  0  0  0  0  0  0  0  0  0
   -1.4330   14.4400   -1.2330 C   0  0  0  0  0  0  0  0  0  0  0  0
   -0.5050   14.1290    0.9600 C   0  0  0  0  0  0  0  0  0  0  0  0
    0.5300   16.3190   -4.5100 C   0  0  0  0  0  0  0  0  0  0  0  0
   -1.5810   15.2630   -4.9600 C   0  0  0  0  0  0  0  0  0  0  0  0
    1.2650   17.4460   -4.3100 O   0  0  0  0  0  0  0  0  0  0  0  0
   -2.5840   14.8760   -0.5950 C   0  0  0  0  0  0  0  0  0  0  0  0
   -1.5950   14.5460    1.6400 N   0  0  0  0  0  0  0  0  0  0  0  0
   -0.8300   16.4180   -4.7660 C   0  0  0  0  0  0  0  0  0  0  0  0
   -3.8480   15.3350   -1.0260 C   0  0  0  0  0  0  0  0  0  0  0  0
   -2.5880   14.8960    0.8010 C   0  0  0  0  0  0  0  0  0  0  0  0
   -4.5810   15.6090    0.0950 C   0  0  0  0  0  0  0  0  0  0  0  0
   -3.8090   15.3410    1.1930 N   0  0  0  0  0  0  0  0  0  0  0  0
  1  2  1  0
  2  3  2  3
  2  4  1  0
  3  5  1  0
  4  6  1  0
  5  7  1  0
  6  8  2  0
  6  9  1  0
  7 10  2  0
  7 11  1  0
  8 12  1  0
  9 13  2  0
 12 14  1  0
 10 15  1  0
 11 16  2  0
 12 17  2  0
 13 17  1  0
 15 18  1  0
 15 19  2  0
 16 19  1  0
 18 20  2  0
 19 21  1  0
 20 21  1  0
M  END
