mac-x0357-mac-x0182
     RDKit          3D

 17 18  0  0  0  0  0  0  0  0999 V2000
    1.6010   13.9050   -4.8090 C   0  0  0  0  0  0  0  0  0  0  0  0
    1.2420   12.4270   -4.7120 C   0  0  2  0  0  0  0  0  0  0  0  0
    0.8710   11.7860   -6.0950 C   0  0  2  0  0  0  0  0  0  0  0  0
    0.2670   12.0650   -3.5570 C   0  0  1  0  0  0  0  0  0  0  0  0
    0.8120   12.8200   -7.0130 O   0  0  0  0  0  0  0  0  0  0  0  0
    0.0760   13.1440   -2.5110 C   0  0  0  0  0  0  0  0  0  0  0  0
   -1.0550   11.4900   -4.0180 C   0  0  0  0  0  0  0  0  0  0  0  0
   -0.4560   10.9400   -6.2130 C   0  0  1  0  0  0  0  0  0  0  0  0
   -0.4810   14.2120   -2.7100 O   0  0  0  0  0  0  0  0  0  0  0  0
    0.5850   12.8340   -1.2870 O   0  0  0  0  0  0  0  0  0  0  0  0
   -1.6900   10.7940   -3.2370 O   0  0  0  0  0  0  0  0  0  0  0  0
   -1.4930   11.7380   -5.4400 C   0  0  0  0  0  0  0  0  0  0  0  0
   -0.7710   10.6910   -7.7390 C   0  0  0  0  0  0  0  0  0  0  0  0
   -0.5620    9.6240   -5.4540 C   0  0  0  0  0  0  0  0  0  0  0  0
   -1.2930    8.5890   -5.8930 C   0  0  0  0  0  0  0  0  0  0  0  0
   -1.7890    9.6090   -8.0140 C   0  0  0  0  0  0  0  0  0  0  0  0
   -2.0220    8.6340   -7.1300 C   0  0  0  0  0  0  0  0  0  0  0  0
  2  1  1  6
  2  3  1  0
  2  4  1  0
  3  5  1  6
  4  6  1  6
  4  7  1  0
  3  8  1  0
  6  9  2  0
  6 10  1  0
  7 11  2  0
  7 12  1  0
  8 12  1  1
  8 13  1  0
  8 14  1  0
 14 15  2  0
 13 16  1  0
 15 17  1  0
 16 17  2  0
M  END
