mac-x0346-mac-x0347
     RDKit          3D

 19 20  0  0  0  0  0  0  0  0999 V2000
   -8.5100   14.6970    1.0700 O   0  0  0  0  0  0  0  0  0  0  0  0
   -7.5550   14.7100    0.2070 N   0  0  0  0  0  0  0  0  0  0  0  0
   -6.5370   14.7200   -0.6690 C   0  0  0  0  0  0  0  0  0  0  0  0
   -6.5980   15.1370   -1.8800 O   0  0  0  0  0  0  0  0  0  0  0  0
   -5.1620   14.1950   -0.2940 C   0  0  1  0  0  0  0  0  0  0  0  0
   -4.2240   14.2200   -1.4230 C   0  0  1  0  0  0  0  0  0  0  0  0
   -4.6840   14.7860    0.9880 C   0  0  0  0  0  0  0  0  0  0  0  0
   -4.8990   14.7960   -2.5330 O   0  0  0  0  0  0  0  0  0  0  0  0
   -2.9120   14.9410   -1.3800 C   0  0  1  0  0  0  0  0  0  0  0  0
   -3.6050   15.7640    0.8270 C   0  0  0  0  0  0  0  0  0  0  0  0
   -2.8070   15.8410   -0.2060 C   0  0  0  0  0  0  0  0  0  0  0  0
   -1.6760   14.1000   -1.4400 C   0  0  0  0  0  0  0  0  0  0  0  0
   -3.0380   15.7720   -2.6700 C   0  0  0  0  0  0  0  0  0  0  0  0
   -0.9840   13.9060   -2.7600 C   0  0  2  0  0  0  0  0  0  0  0  0
   -2.7910   14.9690   -3.8440 N   0  0  0  0  0  0  0  0  0  0  0  0
    0.4990   13.9830   -2.5430 C   0  0  0  0  0  0  0  0  0  0  0  0
   -1.3410   14.8800   -3.8560 C   0  0  0  0  0  0  0  0  0  0  0  0
    1.3810   14.5540   -3.4450 O   0  0  0  0  0  0  0  0  0  0  0  0
    1.0000   13.4970   -1.4960 O   0  0  0  0  0  0  0  0  0  0  0  0
  1  2  1  0
  2  3  1  0
  3  4  2  0
  5  3  1  6
  5  6  1  0
  5  7  1  0
  6  8  1  6
  6  9  1  0
  7 10  1  0
  9 11  1  1
 10 11  2  0
  9 12  1  0
  9 13  1  0
 12 14  1  0
 13 15  1  0
 14 16  1  1
 14 17  1  0
 15 17  1  0
 16 18  1  0
 16 19  2  0
M  END
