mac-x0190-mac-x0433
     RDKit          3D

 12 13  0  0  0  0  0  0  0  0999 V2000
   -9.2360   15.0210    2.5040 O   0  0  0  0  0  0  0  0  0  0  0  0
   -9.0510   14.1960    1.3630 C   0  0  0  0  0  0  0  0  0  0  0  0
   -7.6910   14.4710    0.8490 C   0  0  0  0  0  0  0  0  0  0  0  0
   -7.4480   14.6420   -0.4860 N   0  0  0  0  0  0  0  0  0  0  0  0
   -6.5840   14.5850    1.5480 N   0  0  0  0  0  0  0  0  0  0  0  0
   -6.1120   14.8760   -0.6510 C   0  0  0  0  0  0  0  0  0  0  0  0
   -5.5900   14.8360    0.6340 C   0  0  0  0  0  0  0  0  0  0  0  0
   -5.3630   15.1080   -1.7930 C   0  0  0  0  0  0  0  0  0  0  0  0
   -4.2190   15.0390    0.8220 C   0  0  0  0  0  0  0  0  0  0  0  0
   -5.9520   15.1240   -3.0720 N   0  0  0  0  0  0  0  0  0  0  0  0
   -3.9890   15.3100   -1.5870 C   0  0  0  0  0  0  0  0  0  0  0  0
   -3.4290   15.2730   -0.3020 C   0  0  0  0  0  0  0  0  0  0  0  0
  1  2  1  0
  2  3  1  0
  3  4  1  0
  3  5  2  0
  4  6  1  0
  5  7  1  0
  6  7  2  0
  6  8  1  0
  7  9  1  0
  8 10  1  0
  8 11  2  0
  9 12  2  0
 11 12  1  0
M  END
