mac-x0345-mac-x0326
     RDKit          3D

 23 25  0  0  0  0  0  0  0  0999 V2000
   -7.5000   14.0950    0.4180 C   0  0  0  0  0  0  0  0  0  0  0  0
   -5.9830   13.8880    0.2430 C   0  0  1  0  0  0  0  0  0  0  0  0
   -5.6120   13.7760   -1.2030 N   0  0  0  0  0  0  0  0  0  0  0  0
   -5.1000   15.0440    0.7870 C   0  0  1  0  0  0  0  0  0  0  0  0
   -3.5390   14.5300    1.7970 Br  0  0  0  0  0  0  0  0  0  0  0  0
   -4.5000   15.8580   -0.3010 C   0  0  0  0  0  0  0  0  0  0  0  0
   -6.1250   14.9080   -1.9260 C   0  0  2  0  0  0  0  0  0  0  0  0
   -4.2120   13.9000   -1.2820 C   0  0  0  0  0  0  0  0  0  0  0  0
   -6.2410   14.8400   -3.3770 N   0  0  0  0  0  0  0  0  0  0  0  0
   -4.9780   15.7810   -1.5490 C   0  0  0  0  0  0  0  0  0  0  0  0
   -3.5480   14.1910   -2.4980 C   0  0  0  0  0  0  0  0  0  0  0  0
   -3.4050   13.7600   -0.1550 C   0  0  0  0  0  0  0  0  0  0  0  0
   -2.1410   14.3280   -2.5560 C   0  0  0  0  0  0  0  0  0  0  0  0
   -2.0170   13.8980   -0.1710 C   0  0  0  0  0  0  0  0  0  0  0  0
   -1.3820   14.5960   -3.6900 N   0  0  0  0  0  0  0  0  0  0  0  0
   -1.4070   14.1790   -1.3820 C   0  0  0  0  0  0  0  0  0  0  0  0
   -0.1030   14.6330   -3.3600 C   0  0  0  0  0  0  0  0  0  0  0  0
    0.2640   14.3890   -1.7030 S   0  0  0  0  0  0  0  0  0  0  0  0
    1.0210   14.8550   -4.3290 C   0  0  0  0  0  0  0  0  0  0  0  0
    1.6250   13.5100   -4.7350 C   0  0  0  0  0  0  0  0  0  0  0  0
    1.3640   12.4360   -3.6990 C   0  0  0  0  0  0  0  0  0  0  0  0
    0.5080   11.4670   -4.0890 O   0  0  0  0  0  0  0  0  0  0  0  0
    1.8790   12.4420   -2.5920 O   0  0  0  0  0  0  0  0  0  0  0  0
  2  1  1  6
  2  3  1  0
  2  4  1  0
  4  5  1  6
  4  6  1  0
  3  7  1  0
  3  8  1  0
  7  9  1  6
  6 10  2  0
  7 10  1  0
  8 11  2  0
  8 12  1  0
 11 13  1  0
 12 14  2  0
 13 15  1  0
 13 16  2  0
 14 16  1  0
 15 17  2  0
 16 18  1  0
 17 18  1  0
 17 19  1  0
 19 20  1  0
 20 21  1  0
 21 22  1  0
 21 23  2  0
M  END
