mac-x0159-mac-x0357
     RDKit          3D

 27 30  0  0  0  0  0  0  0  0999 V2000
   -4.5630   15.2920    1.0730 N   0  0  0  0  0  0  0  0  0  0  0  0
   -3.3800   15.4900    0.2340 C   0  0  1  0  0  0  0  0  0  0  0  0
   -2.1900   14.5630    0.4760 C   0  0  1  0  0  0  0  0  0  0  0  0
   -3.8520   15.4270   -1.1010 N   0  0  0  0  0  0  0  0  0  0  0  0
   -2.7890   15.5010   -2.0780 C   0  0  0  0  0  0  0  0  0  0  0  0
   -1.0790   14.5520   -0.6030 C   0  0  1  0  0  0  0  0  0  0  0  0
   -1.4900   14.8050    1.7240 N   0  0  0  0  0  0  0  0  0  0  0  0
   -1.3720   15.2520   -1.8270 N   0  0  0  0  0  0  0  0  0  0  0  0
    0.1040   14.9900    0.1570 N   0  0  0  0  0  0  0  0  0  0  0  0
   -0.1670   14.3550    1.4190 C   0  0  0  0  0  0  0  0  0  0  0  0
   -0.7870   14.7830   -2.9970 C   0  0  0  0  0  0  0  0  0  0  0  0
   -0.6230   13.4340   -3.1580 C   0  0  0  0  0  0  0  0  0  0  0  0
   -0.4430   15.8550   -3.9610 C   0  0  0  0  0  0  0  0  0  0  0  0
   -0.9130   12.5160   -2.1540 O   0  0  0  0  0  0  0  0  0  0  0  0
    0.8520   16.2740   -4.2390 C   0  0  0  0  0  0  0  0  0  0  0  0
   -1.4250   16.5580   -4.6630 N   0  0  0  0  0  0  0  0  0  0  0  0
   -0.2060   12.7500   -4.3530 C   0  0  0  0  0  0  0  0  0  0  0  0
   -0.8630   17.4760   -5.4300 C   0  0  0  0  0  0  0  0  0  0  0  0
    0.8440   17.5570   -5.3760 S   0  0  0  0  0  0  0  0  0  0  0  0
    1.0330   12.7160   -4.9710 C   0  0  0  0  0  0  0  0  0  0  0  0
   -1.3030   12.0580   -4.8900 C   0  0  0  0  0  0  0  0  0  0  0  0
   -1.6030   18.4170   -6.3120 C   0  0  0  0  0  0  0  0  0  0  0  0
    2.2660   13.4120   -4.4600 C   0  0  0  0  0  0  0  0  0  0  0  0
   -1.2050   11.3300   -6.0530 C   0  0  0  0  0  0  0  0  0  0  0  0
    1.0890   11.9790   -6.1420 C   0  0  0  0  0  0  0  0  0  0  0  0
    2.2600   11.9430   -6.7610 O   0  0  0  0  0  0  0  0  0  0  0  0
    0.0090   11.2950   -6.6930 C   0  0  0  0  0  0  0  0  0  0  0  0
  2  1  1  1
  2  3  1  0
  2  4  1  0
  4  5  1  0
  3  6  1  0
  3  7  1  1
  5  8  1  0
  6  8  1  0
  6  9  1  1
  7 10  1  0
  9 10  1  0
  8 11  1  0
 11 12  2  3
 11 13  1  0
 12 14  1  0
 13 15  2  0
 13 16  1  0
 12 17  1  0
 16 18  2  0
 15 19  1  0
 18 19  1  0
 17 20  2  0
 17 21  1  0
 18 22  1  0
 20 23  1  0
 21 24  2  0
 20 25  1  0
 25 26  1  0
 24 27  1  0
 25 27  2  0
M  END
