mac-x0148-mac-x0496
     RDKit          3D

 31 35  0  0  0  0  0  0  0  0999 V2000
   -9.7130   17.5450    4.6700 C   0  0  0  0  0  0  0  0  0  0  0  0
   -9.5990   16.6310    3.5050 C   0  0  0  0  0  0  0  0  0  0  0  0
  -10.4750   16.5800    2.4890 N   0  0  0  0  0  0  0  0  0  0  0  0
   -8.5620   15.7580    3.3900 N   0  0  0  0  0  0  0  0  0  0  0  0
   -9.9570   15.6040    1.6420 O   0  0  0  0  0  0  0  0  0  0  0  0
   -8.8120   15.1590    2.2400 C   0  0  0  0  0  0  0  0  0  0  0  0
   -8.0370   14.0980    1.5250 C   0  0  0  0  0  0  0  0  0  0  0  0
   -6.6160   14.4660    1.3890 N   0  0  0  0  0  0  0  0  0  0  0  0
   -6.0510   14.7560    0.1340 C   0  0  0  0  0  0  0  0  0  0  0  0
   -6.7830   14.9730   -0.8280 O   0  0  0  0  0  0  0  0  0  0  0  0
   -4.5010   14.7730    0.0290 C   0  0  0  0  0  0  0  0  0  0  0  0
   -3.7350   14.9730    1.1910 N   0  0  0  0  0  0  0  0  0  0  0  0
   -3.6740   14.6160   -1.0760 C   0  0  0  0  0  0  0  0  0  0  0  0
   -3.8600   14.4210   -2.4830 C   0  0  0  0  0  0  0  0  0  0  0  0
   -2.4880   14.9040    0.8030 C   0  0  0  0  0  0  0  0  0  0  0  0
   -2.3410   14.6440   -0.6320 C   0  0  0  0  0  0  0  0  0  0  0  0
   -3.0790   13.8040   -3.1780 O   0  0  0  0  0  0  0  0  0  0  0  0
   -4.9530   15.0140   -2.9670 O   0  0  0  0  0  0  0  0  0  0  0  0
   -1.4050   15.0130    1.6060 N   0  0  0  0  0  0  0  0  0  0  0  0
   -1.1160   14.4640   -1.1790 C   0  0  0  0  0  0  0  0  0  0  0  0
   -0.7950   14.1100   -2.5060 N   0  0  0  0  0  0  0  0  0  0  0  0
   -0.0670   14.6080   -0.3040 N   0  0  0  0  0  0  0  0  0  0  0  0
   -0.2670   14.8640    1.0180 C   0  0  0  0  0  0  0  0  0  0  0  0
   -0.9650   14.8940   -3.7920 C   0  0  2  0  0  0  0  0  0  0  0  0
    0.1180   12.9600   -2.5650 C   0  0  0  0  0  0  0  0  0  0  0  0
   -2.3200   15.5900   -4.0620 C   0  0  0  0  0  0  0  0  0  0  0  0
   -0.8590   13.9770   -5.0490 C   0  0  2  0  0  0  0  0  0  0  0  0
   -0.2850   11.9820   -3.6420 C   0  0  0  0  0  0  0  0  0  0  0  0
   -2.3030   13.7580   -5.4660 C   0  0  0  0  0  0  0  0  0  0  0  0
   -2.9690   14.9880   -5.2080 O   0  0  0  0  0  0  0  0  0  0  0  0
   -0.0770   12.6700   -4.9710 C   0  0  0  0  0  0  0  0  0  0  0  0
  1  2  1  0
  2  3  2  0
  2  4  1  0
  3  5  1  0
  4  6  2  0
  5  6  1  0
  6  7  1  0
  7  8  1  0
  8  9  1  0
  9 10  2  0
  9 11  1  0
 11 12  1  0
 11 13  2  0
 13 14  1  0
 12 15  2  0
 13 16  1  0
 15 16  1  0
 14 17  2  0
 14 18  1  0
 15 19  1  0
 16 20  2  0
 20 21  1  0
 20 22  1  0
 19 23  2  0
 22 23  1  0
 21 24  1  0
 21 25  1  0
 24 26  1  1
 24 27  1  0
 25 28  1  0
 27 29  1  1
 26 30  1  0
 29 30  1  0
 27 31  1  0
 28 31  1  0
M  END
