mac-x0132-diamond-x0969_0_A
     RDKit          3D

 12 13  0  0  0  0  0  0  0  0999 V2000
   -4.5580   15.4470    2.1170 N   0  0  0  0  0  0  0  0  0  0  0  0
   -5.2590   14.8030    1.0230 C   0  0  1  0  0  0  0  0  0  0  0  0
   -6.6880   14.8800    1.3610 N   0  0  0  0  0  0  0  0  0  0  0  0
   -4.9440   15.5190   -0.2820 C   0  0  2  0  0  0  0  0  0  0  0  0
   -6.9630   14.5140    2.7470 N   0  0  0  0  0  0  0  0  0  0  0  0
   -6.1000   15.2350   -1.2830 C   0  0  2  0  0  0  0  0  0  0  0  0
   -7.6110   14.3130    0.3810 C   0  0  0  0  0  0  0  0  0  0  0  0
   -3.5530   15.2030   -0.7730 C   0  0  0  0  0  0  0  0  0  0  0  0
   -6.9600   14.0950   -0.9010 N   0  0  0  0  0  0  0  0  0  0  0  0
   -5.6350   15.0600   -2.6960 C   0  0  0  0  0  0  0  0  0  0  0  0
   -3.2940   14.9380   -2.0510 C   0  0  0  0  0  0  0  0  0  0  0  0
   -4.3390   14.9310   -3.0350 C   0  0  0  0  0  0  0  0  0  0  0  0
  2  1  1  1
  2  3  1  0
  2  4  1  0
  3  5  1  0
  4  6  1  0
  3  7  1  0
  4  8  1  6
  6  9  1  0
  7  9  1  0
  6 10  1  6
  8 11  2  0
 10 12  2  0
 11 12  1  0
M  END
