mac-x0584-diamond-x0864_0_A
     RDKit          3D

 30 34  0  0  0  0  0  0  0  0999 V2000
    1.4210   11.6460   -7.1440 O   0  0  0  0  0  0  0  0  0  0  0  0
    0.2420   11.4200   -6.9170 C   0  0  0  0  0  0  0  0  0  0  0  0
   -0.5070   12.0260   -5.9340 N   0  0  0  0  0  0  0  0  0  0  0  0
   -0.4810   10.3970   -7.7000 C   0  0  0  0  0  0  0  0  0  0  0  0
    0.0530   13.2610   -5.3520 C   0  0  2  0  0  0  0  0  0  0  0  0
   -1.4800   11.2910   -5.2640 C   0  0  0  0  0  0  0  0  0  0  0  0
   -1.5620    9.8160   -7.1530 C   0  0  0  0  0  0  0  0  0  0  0  0
    1.1660   12.7570   -4.4210 C   0  0  0  0  0  0  0  0  0  0  0  0
   -2.5120    8.4810   -8.0330 Br  0  0  0  0  0  0  0  0  0  0  0  0
   -0.9570   14.0340   -4.4890 C   0  0  1  0  0  0  0  0  0  0  0  0
   -2.0110   10.2080   -5.8370 C   0  0  0  0  0  0  0  0  0  0  0  0
    1.2630   11.4150   -4.3460 O   0  0  0  0  0  0  0  0  0  0  0  0
    1.9190   13.4530   -3.7460 O   0  0  0  0  0  0  0  0  0  0  0  0
   -0.2300   14.4440   -3.2150 C   0  0  2  0  0  0  0  0  0  0  0  0
   -1.4930   15.4150   -4.8930 C   0  0  0  0  0  0  0  0  0  0  0  0
    0.2830   13.2740   -2.3960 C   0  0  0  0  0  0  0  0  0  0  0  0
   -1.1690   15.3310   -2.5530 N   0  0  0  0  0  0  0  0  0  0  0  0
   -2.1380   15.8230   -3.5600 C   0  0  0  0  0  0  0  0  0  0  0  0
    1.5210   12.4270   -2.7600 C   0  0  0  0  0  0  0  0  0  0  0  0
   -0.5570   11.9820   -2.3240 C   0  0  0  0  0  0  0  0  0  0  0  0
   -1.4330   15.2510   -1.2060 C   0  0  0  0  0  0  0  0  0  0  0  0
    0.5800   11.2130   -2.9950 C   0  0  0  0  0  0  0  0  0  0  0  0
   -0.3440   15.0610   -0.3890 N   0  0  0  0  0  0  0  0  0  0  0  0
   -2.6070   15.3220   -0.5900 C   0  0  0  0  0  0  0  0  0  0  0  0
   -0.4540   14.9030    0.9550 C   0  0  0  0  0  0  0  0  0  0  0  0
   -2.6520   15.1790    0.8860 C   0  0  0  0  0  0  0  0  0  0  0  0
   -3.9720   15.5070   -0.9430 C   0  0  0  0  0  0  0  0  0  0  0  0
   -1.5400   14.9410    1.6350 N   0  0  0  0  0  0  0  0  0  0  0  0
   -3.8550   15.3010    1.3470 N   0  0  0  0  0  0  0  0  0  0  0  0
   -4.6330   15.4900    0.2180 C   0  0  0  0  0  0  0  0  0  0  0  0
  1  2  2  0
  2  3  1  0
  2  4  1  0
  3  5  1  0
  3  6  1  0
  4  7  2  0
  5  8  1  1
  7  9  1  0
  5 10  1  0
  6 11  2  0
  7 11  1  0
  8 12  1  0
  8 13  2  0
 10 14  1  0
 10 15  1  6
 14 16  1  1
 14 17  1  0
 15 18  1  0
 17 18  1  0
 16 19  1  0
 16 20  1  0
 17 21  1  0
 19 22  1  0
 20 22  1  0
 21 23  1  0
 21 24  2  0
 23 25  1  0
 24 26  1  0
 24 27  1  0
 25 28  2  0
 26 28  1  0
 26 29  2  0
 27 30  2  0
 29 30  1  0
M  END
