mac-x0358-diamond-x0421_0_A
     RDKit          3D

 24 26  0  0  0  0  0  0  0  0999 V2000
    2.2800   12.4580   -2.4850 O   0  0  0  0  0  0  0  0  0  0  0  0
    0.9510   12.7480   -2.8340 C   0  0  0  0  0  0  0  0  0  0  0  0
    0.2130   11.5840   -2.4760 O   0  0  0  0  0  0  0  0  0  0  0  0
    0.8480   13.0730   -4.3500 C   0  0  0  0  0  0  0  0  0  0  0  0
    0.6090   13.9570   -1.9270 C   0  0  0  0  0  0  0  0  0  0  0  0
   -0.7630   13.9510   -1.2530 C   0  0  0  0  0  0  0  0  0  0  0  0
   -0.5170   13.5360   -4.8190 C   0  0  0  0  0  0  0  0  0  0  0  0
   -1.7430   14.4780   -2.1850 N   0  0  0  0  0  0  0  0  0  0  0  0
   -1.4980   12.6370   -5.2470 C   0  0  0  0  0  0  0  0  0  0  0  0
   -0.8160   14.9110   -4.8230 C   0  0  0  0  0  0  0  0  0  0  0  0
   -1.2220   11.2960   -5.2480 O   0  0  0  0  0  0  0  0  0  0  0  0
   -2.9140   14.8660   -1.8260 C   0  0  0  0  0  0  0  0  0  0  0  0
   -2.7500   13.0860   -5.6720 C   0  0  0  0  0  0  0  0  0  0  0  0
   -2.0690   15.3660   -5.2460 C   0  0  0  0  0  0  0  0  0  0  0  0
   -3.7920   15.3390   -2.7580 N   0  0  0  0  0  0  0  0  0  0  0  0
   -3.0340   14.4560   -5.6710 C   0  0  0  0  0  0  0  0  0  0  0  0
   -3.4970   14.8770   -0.4860 C   0  0  0  0  0  0  0  0  0  0  0  0
   -2.8870   15.0270    0.7480 C   0  0  0  0  0  0  0  0  0  0  0  0
   -4.8720   14.7160   -0.3010 N   0  0  0  0  0  0  0  0  0  0  0  0
   -3.8890   14.9540    1.6660 N   0  0  0  0  0  0  0  0  0  0  0  0
   -5.0560   14.7660    1.0000 C   0  0  0  0  0  0  0  0  0  0  0  0
   -6.4230   14.6260    1.7080 C   0  0  0  0  0  0  0  0  0  0  0  0
   -7.6960   14.6490    0.9050 C   0  0  0  0  0  0  0  0  0  0  0  0
   -7.2090   13.3610    1.5070 C   0  0  0  0  0  0  0  0  0  0  0  0
  2  1  1  0
  2  3  1  0
  2  4  1  0
  2  5  1  0
  5  6  1  0
  4  7  1  0
  6  8  1  0
  7  9  2  0
  7 10  1  0
  9 11  1  0
  8 12  2  3
  9 13  1  0
 10 14  2  0
 12 15  1  0
 13 16  2  0
 14 16  1  0
 12 17  1  0
 17 18  2  0
 17 19  1  0
 18 20  1  0
 19 21  2  0
 20 21  1  0
 21 22  1  0
 22 23  1  0
 22 24  1  0
 23 24  1  0
M  END
