mac-x0142-mac-x0451
     RDKit          3D

 22 26  0  0  0  0  0  0  0  0999 V2000
   -3.8130   14.6270   -2.6530 F   0  0  0  0  0  0  0  0  0  0  0  0
   -3.4810   14.7670   -1.3740 C   0  0  0  0  0  0  0  0  0  0  0  0
   -2.1320   14.8190   -0.9270 C   0  0  0  0  0  0  0  0  0  0  0  0
   -4.3280   14.8660   -0.2790 C   0  0  0  0  0  0  0  0  0  0  0  0
   -2.1890   14.9740    0.4420 C   0  0  0  0  0  0  0  0  0  0  0  0
   -0.8520   14.7560   -1.4960 C   0  0  0  0  0  0  0  0  0  0  0  0
   -3.4630   15.0050    0.7420 N   0  0  0  0  0  0  0  0  0  0  0  0
   -5.6670   14.8540    0.0940 N   0  0  0  0  0  0  0  0  0  0  0  0
   -0.6200   14.6010   -2.8670 N   0  0  0  0  0  0  0  0  0  0  0  0
    0.1950   14.8540   -0.6310 N   0  0  0  0  0  0  0  0  0  0  0  0
   -1.1980   15.0790    1.3220 N   0  0  0  0  0  0  0  0  0  0  0  0
   -5.7000   14.9390    1.4050 C   0  0  0  0  0  0  0  0  0  0  0  0
   -4.1710   15.1880    2.1990 S   0  0  0  0  0  0  0  0  0  0  0  0
   -6.7480   14.8740    2.2610 N   0  0  0  0  0  0  0  0  0  0  0  0
   -1.7250   14.4720   -3.8270 C   0  0  0  0  0  0  0  0  0  0  0  0
    0.7040   14.8840   -3.4000 C   0  0  0  0  0  0  0  0  0  0  0  0
   -0.0360   15.0130    0.6900 C   0  0  0  0  0  0  0  0  0  0  0  0
    1.0310   13.6620   -4.2260 C   0  0  0  0  0  0  0  0  0  0  0  0
   -1.3600   13.5100   -4.9870 C   0  0  0  0  0  0  0  0  0  0  0  0
    2.4450   13.1350   -4.3010 C   0  0  0  0  0  0  0  0  0  0  0  0
    1.4280   12.4160   -3.4640 C   0  0  0  0  0  0  0  0  0  0  0  0
    0.1180   13.4980   -5.4050 C   0  0  0  0  0  0  0  0  0  0  0  0
  1  2  1  0
  2  3  1  0
  2  4  2  0
  3  5  2  0
  3  6  1  0
  4  7  1  0
  5  7  1  0
  4  8  1  0
  6  9  1  0
  6 10  2  0
  5 11  1  0
  8 12  2  0
  7 13  1  0
 12 13  1  0
 12 14  1  0
  9 15  1  0
  9 16  1  0
 10 17  1  0
 11 17  2  0
 18 16  1  0
 15 19  1  0
 18 20  1  0
 18 21  1  0
 20 21  1  0
 18 22  1  0
 19 22  1  0
M  END
