mac-x0306-mac-x0354
     RDKit          3D

 29 32  0  0  0  0  0  0  0  0999 V2000
    0.5610   11.2050   -8.1750 C   0  0  0  0  0  0  0  0  0  0  0  0
    0.8690   11.6140   -6.8150 N   0  0  0  0  0  0  0  0  0  0  0  0
    1.8360   12.5080   -6.5470 N   0  0  0  0  0  0  0  0  0  0  0  0
    0.2430   11.1530   -5.7020 C   0  0  0  0  0  0  0  0  0  0  0  0
    1.8250   12.6140   -5.2210 C   0  0  0  0  0  0  0  0  0  0  0  0
    0.8520   11.7850   -4.6090 C   0  0  0  0  0  0  0  0  0  0  0  0
   -0.8240   10.1800   -5.8240 C   0  0  0  0  0  0  0  0  0  0  0  0
    0.5660   11.6130   -3.1830 C   0  0  0  0  0  0  0  0  0  0  0  0
   -0.5930    8.9540   -6.4570 C   0  0  0  0  0  0  0  0  0  0  0  0
   -2.0830   10.4700   -5.3140 C   0  0  0  0  0  0  0  0  0  0  0  0
    0.5580   12.4710   -2.2430 N   0  0  0  0  0  0  0  0  0  0  0  0
    0.2710   10.3500   -2.7690 O   0  0  0  0  0  0  0  0  0  0  0  0
   -1.6210    8.0210   -6.5740 C   0  0  0  0  0  0  0  0  0  0  0  0
   -3.1140    9.5390   -5.4300 C   0  0  0  0  0  0  0  0  0  0  0  0
    0.8420   13.8770   -2.4550 C   0  0  0  0  0  0  0  0  0  0  0  0
   -2.8790    8.3180   -6.0590 C   0  0  0  0  0  0  0  0  0  0  0  0
   -0.3140   14.6950   -1.8790 C   0  0  0  0  0  0  0  0  0  0  0  0
   -1.6410   14.5980   -2.6670 C   0  0  0  0  0  0  0  0  0  0  0  0
   -2.8520   14.9280   -1.8640 N   0  0  0  0  0  0  0  0  0  0  0  0
   -4.1010   15.0300   -2.4920 C   0  0  0  0  0  0  0  0  0  0  0  0
   -2.8640   14.6860   -0.4890 C   0  0  0  0  0  0  0  0  0  0  0  0
   -5.2470   15.2380   -1.8230 C   0  0  0  0  0  0  0  0  0  0  0  0
   -3.9420   14.8770    0.2840 C   0  0  0  0  0  0  0  0  0  0  0  0
   -5.2360   15.3870   -0.3130 C   0  0  0  0  0  0  0  0  0  0  0  0
   -6.4910   14.8970    0.3820 C   0  0  0  0  0  0  0  0  0  0  0  0
   -6.5230   14.5240    1.7170 N   0  0  0  0  0  0  0  0  0  0  0  0
   -7.6960   14.7730   -0.1480 N   0  0  0  0  0  0  0  0  0  0  0  0
   -8.5090   14.3240    0.8560 C   0  0  0  0  0  0  0  0  0  0  0  0
   -7.8030   14.1650    2.0170 C   0  0  0  0  0  0  0  0  0  0  0  0
  1  2  1  0
  2  3  1  0
  2  4  1  0
  3  5  2  0
  4  6  2  0
  5  6  1  0
  4  7  1  0
  6  8  1  0
  7  9  2  0
  7 10  1  0
  8 11  2  3
  8 12  1  0
  9 13  1  0
 10 14  2  0
 11 15  1  0
 13 16  2  0
 14 16  1  0
 15 17  1  0
 17 18  1  0
 18 19  1  0
 19 20  1  0
 19 21  1  0
 20 22  2  0
 21 23  2  0
 22 24  1  0
 23 24  1  0
 24 25  1  0
 25 26  1  0
 25 27  2  0
 27 28  1  0
 26 29  1  0
 28 29  2  0
M  END
