mac-x0361-mac-x0344
     RDKit          3D

 24 25  0  0  0  0  0  0  0  0999 V2000
   -6.1750   14.7400    1.6360 N   0  0  0  0  0  0  0  0  0  0  0  0
   -6.4480   14.7200    0.2970 C   0  0  0  0  0  0  0  0  0  0  0  0
   -7.6010   14.6120   -0.1020 O   0  0  0  0  0  0  0  0  0  0  0  0
   -5.3010   14.8330   -0.6420 C   0  0  0  0  0  0  0  0  0  0  0  0
   -3.9750   14.7980   -0.2020 C   0  0  0  0  0  0  0  0  0  0  0  0
   -5.5650   14.9760   -2.0060 C   0  0  0  0  0  0  0  0  0  0  0  0
   -2.9330   14.9070   -1.1280 C   0  0  0  0  0  0  0  0  0  0  0  0
   -4.5190   15.0800   -2.9280 C   0  0  0  0  0  0  0  0  0  0  0  0
   -3.1990   15.0490   -2.4960 C   0  0  0  0  0  0  0  0  0  0  0  0
   -2.1000   15.1490   -3.3100 O   0  0  0  0  0  0  0  0  0  0  0  0
   -0.8300   14.6830   -2.8520 C   0  0  0  0  0  0  0  0  0  0  0  0
    0.0320   14.2600   -4.0440 C   0  0  0  0  0  0  0  0  0  0  0  0
    1.0150   13.1020   -3.8190 C   0  0  0  0  0  0  0  0  0  0  0  0
    2.1490   13.3670   -4.6290 O   0  0  0  0  0  0  0  0  0  0  0  0
    1.4930   13.0780   -2.4890 O   0  0  0  0  0  0  0  0  0  0  0  0
    0.3950   11.7120   -4.1830 C   0  0  0  0  0  0  0  0  0  0  0  0
    0.2170   10.8810   -3.2930 O   0  0  0  0  0  0  0  0  0  0  0  0
    0.1060   11.5770   -5.5290 N   0  0  0  0  0  0  0  0  0  0  0  0
   -0.7510   10.6360   -6.1240 C   0  0  0  0  0  0  0  0  0  0  0  0
   -0.2980    9.9510   -7.2560 C   0  0  0  0  0  0  0  0  0  0  0  0
   -2.0200   10.3580   -5.6370 C   0  0  0  0  0  0  0  0  0  0  0  0
   -1.1120    9.0010   -7.8820 C   0  0  0  0  0  0  0  0  0  0  0  0
   -2.8370    9.4120   -6.2530 C   0  0  0  0  0  0  0  0  0  0  0  0
   -2.3850    8.7310   -7.3790 C   0  0  0  0  0  0  0  0  0  0  0  0
  1  2  1  0
  2  3  2  0
  2  4  1  0
  4  5  2  0
  4  6  1  0
  5  7  1  0
  6  8  2  0
  7  9  2  0
  8  9  1  0
  9 10  1  0
 10 11  1  0
 11 12  1  0
 12 13  1  0
 13 14  1  0
 13 15  1  0
 13 16  1  0
 16 17  2  0
 16 18  1  0
 18 19  1  0
 19 20  2  0
 19 21  1  0
 20 22  1  0
 21 23  2  0
 22 24  2  0
 23 24  1  0
M  END
