mac-x0472-mac-x0394
     RDKit          3D

 26 28  0  0  0  0  0  0  0  0999 V2000
   -4.6720   15.5220   -2.1340 O   0  0  0  0  0  0  0  0  0  0  0  0
   -3.6620   14.6780   -2.7150 S   0  0  1  0  0  0  0  0  0  0  0  0
   -3.1090   14.8010   -4.1580 N   0  0  0  0  0  0  0  0  0  0  0  0
   -2.3770   14.8190   -1.6300 N   0  0  0  0  0  0  0  0  0  0  0  0
   -4.2280   12.9970   -2.4220 C   0  0  0  0  0  0  0  0  0  0  0  0
   -2.6830   14.8280   -0.3090 C   0  0  0  0  0  0  0  0  0  0  0  0
   -3.4420   11.9000   -2.8010 C   0  0  0  0  0  0  0  0  0  0  0  0
   -5.4700   12.7970   -1.8010 C   0  0  0  0  0  0  0  0  0  0  0  0
   -1.7060   15.1510   -4.3990 C   0  0  0  0  0  0  0  0  0  0  0  0
   -1.9610   14.4080    0.7090 N   0  0  0  0  0  0  0  0  0  0  0  0
   -4.2160   15.4680    0.1890 S   0  0  0  0  0  0  0  0  0  0  0  0
   -3.9040   10.6030   -2.5590 C   0  0  0  0  0  0  0  0  0  0  0  0
   -5.9200   11.4990   -1.5640 C   0  0  0  0  0  0  0  0  0  0  0  0
   -0.7960   14.1290   -4.2630 C   0  0  0  0  0  0  0  0  0  0  0  0
   -1.2740   16.4400   -4.7440 C   0  0  0  0  0  0  0  0  0  0  0  0
   -3.7750   15.1080    1.7940 C   0  0  0  0  0  0  0  0  0  0  0  0
   -2.5890   14.5660    1.9200 N   0  0  0  0  0  0  0  0  0  0  0  0
   -5.1440   10.4090   -1.9430 C   0  0  0  0  0  0  0  0  0  0  0  0
    0.5640   14.3360   -4.4510 C   0  0  0  0  0  0  0  0  0  0  0  0
    0.0970   16.6550   -4.9340 C   0  0  0  0  0  0  0  0  0  0  0  0
    0.6820   18.2130   -5.3490 Cl  0  0  0  0  0  0  0  0  0  0  0  0
    1.4830   13.1680   -4.2730 C   0  0  0  0  0  0  0  0  0  0  0  0
    1.0110   15.6150   -4.7870 C   0  0  0  0  0  0  0  0  0  0  0  0
    1.0970   12.4020   -3.0300 C   0  0  0  0  0  0  0  0  0  0  0  0
    0.4140   11.2710   -3.3030 O   0  0  0  0  0  0  0  0  0  0  0  0
    1.3220   12.7070   -1.8780 O   0  0  0  0  0  0  0  0  0  0  0  0
  1  2  2  0
  2  3  2  0
  2  4  1  1
  2  5  1  0
  4  6  1  0
  5  7  2  0
  5  8  1  0
  3  9  1  0
  6 10  2  0
  6 11  1  0
  7 12  1  0
  8 13  2  0
  9 14  2  0
  9 15  1  0
 11 16  1  0
 10 17  1  0
 16 17  2  0
 12 18  2  0
 13 18  1  0
 14 19  1  0
 15 20  2  0
 20 21  1  0
 19 22  1  0
 19 23  2  0
 20 23  1  0
 22 24  1  0
 24 25  1  0
 24 26  2  0
M  END
