mac-x0182-diamond-x1012_0_A
     RDKit          3D

 23 25  0  0  0  0  0  0  0  0999 V2000
    1.7300   11.7400   -6.9950 O   0  0  0  0  0  0  0  0  0  0  0  0
    0.6910   11.5340   -6.4220 C   0  0  0  0  0  0  0  0  0  0  0  0
    0.1620   12.2680   -5.4190 N   0  0  0  0  0  0  0  0  0  0  0  0
   -0.1800   10.3750   -6.7160 C   0  0  0  0  0  0  0  0  0  0  0  0
   -0.8890   11.3590   -4.4720 S   0  0  2  0  0  0  0  0  0  0  0  0
   -1.1030   10.1490   -5.6990 C   0  0  0  0  0  0  0  0  0  0  0  0
   -0.1520    9.5620   -7.8340 C   0  0  0  0  0  0  0  0  0  0  0  0
   -2.1040   12.1220   -4.4680 O   0  0  0  0  0  0  0  0  0  0  0  0
   -0.0010   11.0560   -3.2750 N   0  0  0  0  0  0  0  0  0  0  0  0
   -2.0230    9.1240   -5.7310 C   0  0  0  0  0  0  0  0  0  0  0  0
   -1.0790    8.5140   -7.8980 C   0  0  0  0  0  0  0  0  0  0  0  0
    0.2980   12.2660   -2.6100 C   0  0  0  0  0  0  0  0  0  0  0  0
   -2.0050    8.2950   -6.8560 C   0  0  0  0  0  0  0  0  0  0  0  0
    0.6550   12.3620   -1.4330 O   0  0  0  0  0  0  0  0  0  0  0  0
    0.0860   13.5400   -3.4650 C   0  0  0  0  0  0  0  0  0  0  0  0
   -1.3220   14.0870   -3.2830 C   0  0  0  0  0  0  0  0  0  0  0  0
    1.0430   14.7380   -3.4000 C   0  0  0  0  0  0  0  0  0  0  0  0
   -1.6690   14.8880   -4.5300 C   0  0  0  0  0  0  0  0  0  0  0  0
    0.7130   15.7510   -4.5130 C   0  0  0  0  0  0  0  0  0  0  0  0
   -0.7290   15.9980   -4.7300 N   0  0  0  0  0  0  0  0  0  0  0  0
   -1.1730   17.2940   -4.8000 C   0  0  0  0  0  0  0  0  0  0  0  0
   -0.2310   18.2550   -4.8270 N   0  0  0  0  0  0  0  0  0  0  0  0
   -2.3560   17.6160   -4.8210 O   0  0  0  0  0  0  0  0  0  0  0  0
  1  2  2  0
  2  3  1  0
  2  4  1  0
  5  3  1  6
  4  6  2  0
  5  6  1  0
  4  7  1  0
  5  8  2  0
  5  9  2  0
  6 10  1  0
  7 11  2  0
  9 12  1  0
 10 13  2  0
 11 13  1  0
 12 14  2  0
 12 15  1  0
 15 16  1  0
 15 17  1  0
 16 18  1  0
 17 19  1  0
 18 20  1  0
 19 20  1  0
 20 21  1  0
 21 22  1  0
 21 23  2  0
M  END
