mac-x0404-mac-x0451
     RDKit          3D

 26 29  0  0  0  0  0  0  0  0999 V2000
    1.2390   12.5950   -1.8610 O   0  0  0  0  0  0  0  0  0  0  0  0
    0.9030   12.2350   -3.1110 C   0  0  0  0  0  0  0  0  0  0  0  0
    0.4780   11.1110   -3.3420 O   0  0  0  0  0  0  0  0  0  0  0  0
    1.0990   13.3510   -4.1180 C   0  0  0  0  0  0  0  0  0  0  0  0
    0.7440   14.5980   -3.4900 O   0  0  0  0  0  0  0  0  0  0  0  0
   -0.3810   15.1650   -4.0750 C   0  0  0  0  0  0  0  0  0  0  0  0
   -0.2570   16.2970   -4.8790 C   0  0  0  0  0  0  0  0  0  0  0  0
   -1.6610   14.6640   -3.8700 C   0  0  0  0  0  0  0  0  0  0  0  0
   -1.9730   13.6550   -3.0580 O   0  0  0  0  0  0  0  0  0  0  0  0
   -1.4000   16.8670   -5.4830 C   0  0  0  0  0  0  0  0  0  0  0  0
   -2.7720   15.2050   -4.4860 C   0  0  0  0  0  0  0  0  0  0  0  0
    0.9640   16.8970   -5.0980 C   0  0  0  0  0  0  0  0  0  0  0  0
   -2.6460   16.2980   -5.2950 C   0  0  0  0  0  0  0  0  0  0  0  0
   -1.2870   18.0080   -6.2690 C   0  0  0  0  0  0  0  0  0  0  0  0
    1.0770   18.0420   -5.8780 C   0  0  0  0  0  0  0  0  0  0  0  0
   -3.0300   14.0430   -2.2270 C   0  0  0  0  0  0  0  0  0  0  0  0
   -0.0470   18.5980   -6.4620 C   0  0  0  0  0  0  0  0  0  0  0  0
   -4.2720   14.4610   -2.7280 C   0  0  0  0  0  0  0  0  0  0  0  0
   -2.8110   13.9970   -0.8440 C   0  0  0  0  0  0  0  0  0  0  0  0
   -3.8790   14.3500   -0.0060 C   0  0  0  0  0  0  0  0  0  0  0  0
   -5.3120   14.8130   -1.8750 C   0  0  0  0  0  0  0  0  0  0  0  0
   -5.1180   14.7440   -0.4980 C   0  0  0  0  0  0  0  0  0  0  0  0
   -3.9440   14.3800    1.6990 S   0  0  0  0  0  0  0  0  0  0  0  0
   -5.5900   14.8680    1.6320 C   0  0  0  0  0  0  0  0  0  0  0  0
   -6.0750   15.0310    0.4410 N   0  0  0  0  0  0  0  0  0  0  0  0
   -6.3370   15.0700    2.7310 N   0  0  0  0  0  0  0  0  0  0  0  0
  1  2  1  0
  2  3  2  0
  2  4  1  0
  4  5  1  0
  5  6  1  0
  6  7  2  0
  6  8  1  0
  8  9  1  0
  7 10  1  0
  8 11  2  0
  7 12  1  0
 10 13  2  0
 11 13  1  0
 10 14  1  0
 12 15  2  0
  9 16  1  0
 14 17  2  0
 15 17  1  0
 16 18  2  0
 16 19  1  0
 19 20  2  0
 18 21  1  0
 20 22  1  0
 21 22  2  0
 20 23  1  0
 23 24  1  0
 22 25  1  0
 24 25  2  0
 24 26  1  0
M  END
