mac-x0142-mac-x0321
     RDKit          3D

 21 24  0  0  0  0  0  0  0  0999 V2000
   -4.5950   15.3540    1.9580 Cl  0  0  0  0  0  0  0  0  0  0  0  0
   -3.6800   15.1590    0.5410 N   0  0  0  0  0  0  0  0  0  0  0  0
   -2.3420   14.8880    0.4950 C   0  0  0  0  0  0  0  0  0  0  0  0
   -4.2240   15.2650   -0.7070 C   0  0  0  0  0  0  0  0  0  0  0  0
   -1.4800   14.7160    1.5100 N   0  0  0  0  0  0  0  0  0  0  0  0
   -2.0270   14.8220   -0.8380 C   0  0  0  0  0  0  0  0  0  0  0  0
   -3.1790   15.0500   -1.5950 C   0  0  0  0  0  0  0  0  0  0  0  0
   -3.1140   15.0410   -3.0280 C   0  0  0  0  0  0  0  0  0  0  0  0
   -0.2410   14.4890    1.0410 C   0  0  0  0  0  0  0  0  0  0  0  0
   -0.7270   14.5660   -1.2310 C   0  0  0  0  0  0  0  0  0  0  0  0
   -1.8930   15.4790   -3.4260 O   0  0  0  0  0  0  0  0  0  0  0  0
   -3.9110   14.6980   -3.8710 O   0  0  0  0  0  0  0  0  0  0  0  0
   -0.4470   14.4940   -2.6130 N   0  0  0  0  0  0  0  0  0  0  0  0
    0.1880   14.4040   -0.2510 N   0  0  0  0  0  0  0  0  0  0  0  0
   -1.5320   13.8640   -3.4320 C   0  0  0  0  0  0  0  0  0  0  0  0
    0.8690   14.8020   -3.1670 C   0  0  0  0  0  0  0  0  0  0  0  0
    1.2230   13.6800   -4.0990 C   0  0  0  0  0  0  0  0  0  0  0  0
   -1.0750   13.0200   -4.6300 C   0  0  0  0  0  0  0  0  0  0  0  0
    2.6190   13.1050   -4.2000 C   0  0  0  0  0  0  0  0  0  0  0  0
    1.5740   12.3890   -3.4040 C   0  0  0  0  0  0  0  0  0  0  0  0
    0.2360   13.5170   -5.2160 C   0  0  0  0  0  0  0  0  0  0  0  0
  1  2  1  0
  2  3  1  0
  2  4  1  0
  3  5  2  0
  3  6  1  0
  4  7  2  0
  6  7  1  0
  7  8  1  0
  5  9  1  0
  6 10  2  0
  8 11  1  0
  8 12  2  0
 10 13  1  0
  9 14  2  0
 10 14  1  0
 13 15  1  0
 13 16  1  0
 17 16  1  0
 15 18  1  0
 17 19  1  0
 17 20  1  0
 19 20  1  0
 17 21  1  0
 18 21  1  0
M  END
