mac-x0527-diamond-x0962_2_B
     RDKit          3D

 26 28  0  0  0  0  0  0  0  0999 V2000
   -3.8540   14.8430   -3.8360 O   0  0  0  0  0  0  0  0  0  0  0  0
   -3.1810   14.9180   -2.8150 C   0  0  0  0  0  0  0  0  0  0  0  0
   -1.8220   14.7140   -2.8090 N   0  0  0  0  0  0  0  0  0  0  0  0
   -3.8210   15.2670   -1.4570 C   0  0  1  0  0  0  0  0  0  0  0  0
   -1.0130   14.8310   -4.0030 C   0  0  0  0  0  0  0  0  0  0  0  0
   -5.3300   14.9000   -1.4700 C   0  0  0  0  0  0  0  0  0  0  0  0
   -3.0840   14.7310   -0.2870 N   0  0  0  0  0  0  0  0  0  0  0  0
   -0.9200   13.5350   -4.7790 C   0  0  0  0  0  0  0  0  0  0  0  0
   -5.9140   14.6340   -0.1220 N   0  0  0  0  0  0  0  0  0  0  0  0
   -3.7370   14.7760    0.9160 C   0  0  0  0  0  0  0  0  0  0  0  0
   -7.3320   14.9860    0.0290 C   0  0  0  0  0  0  0  0  0  0  0  0
   -2.0550   12.7610   -4.9990 C   0  0  0  0  0  0  0  0  0  0  0  0
    0.3040   13.0850   -5.2890 C   0  0  0  0  0  0  0  0  0  0  0  0
   -5.0760   14.7320    0.9890 C   0  0  0  0  0  0  0  0  0  0  0  0
   -8.3480   13.8910   -0.2400 C   0  0  0  0  0  0  0  0  0  0  0  0
   -1.9890   11.5510   -5.6980 C   0  0  0  0  0  0  0  0  0  0  0  0
    0.3750   11.8790   -5.9940 C   0  0  0  0  0  0  0  0  0  0  0  0
   -9.6850   14.2490    0.4530 C   0  0  0  0  0  0  0  0  0  0  0  0
   -0.7670   11.1120   -6.1940 C   0  0  0  0  0  0  0  0  0  0  0  0
   -9.6560   15.5400    1.3260 C   0  0  1  0  0  0  0  0  0  0  0  0
  -11.0310   16.0250    1.5000 N   0  0  0  0  0  0  0  0  0  0  0  0
   -9.0440   15.3260    2.6730 C   0  0  0  0  0  0  0  0  0  0  0  0
   -9.0670   16.2360    3.7180 N   0  0  0  0  0  0  0  0  0  0  0  0
   -8.3530   14.2550    3.1920 C   0  0  0  0  0  0  0  0  0  0  0  0
   -8.4030   15.6790    4.7730 C   0  0  0  0  0  0  0  0  0  0  0  0
   -7.9680   14.4780    4.4840 N   0  0  0  0  0  0  0  0  0  0  0  0
  1  2  2  0
  2  3  1  0
  4  2  1  6
  3  5  1  0
  4  6  1  0
  4  7  1  0
  5  8  1  0
  6  9  1  0
  7 10  1  0
  9 11  1  0
  8 12  2  0
  8 13  1  0
  9 14  1  0
 10 14  2  0
 11 15  1  0
 12 16  1  0
 13 17  2  0
 15 18  1  0
 16 19  2  0
 17 19  1  0
 18 20  1  0
 20 21  1  1
 20 22  1  0
 22 23  1  0
 22 24  2  0
 23 25  1  0
 24 26  1  0
 25 26  2  0
M  END
