mac-x0179-mac-x0567
     RDKit          3D

 27 30  0  0  0  0  0  0  0  0999 V2000
    2.2810   12.7580   -2.9560 O   0  0  0  0  0  0  0  0  0  0  0  0
    0.9460   12.6410   -3.3710 C   0  0  0  0  0  0  0  0  0  0  0  0
    0.6330   11.2670   -3.1310 O   0  0  0  0  0  0  0  0  0  0  0  0
    0.7530   12.9600   -4.8630 C   0  0  0  0  0  0  0  0  0  0  0  0
    0.0310   13.4700   -2.5000 C   0  0  0  0  0  0  0  0  0  0  0  0
    0.0060   12.9140   -1.1200 C   0  0  0  0  0  0  0  0  0  0  0  0
    0.0750   11.9610   -5.6460 N   0  0  0  0  0  0  0  0  0  0  0  0
    0.0640   13.9310   -0.0960 N   0  0  0  0  0  0  0  0  0  0  0  0
    0.7240   11.3570   -6.6530 C   0  0  0  0  0  0  0  0  0  0  0  0
   -1.0330   11.2420   -5.2760 C   0  0  0  0  0  0  0  0  0  0  0  0
    1.8080   11.5980   -7.0780 O   0  0  0  0  0  0  0  0  0  0  0  0
   -1.7560   11.3880   -4.3080 O   0  0  0  0  0  0  0  0  0  0  0  0
   -0.1240   10.2890   -7.1490 C   0  0  0  0  0  0  0  0  0  0  0  0
   -1.2110   10.2120   -6.2990 C   0  0  0  0  0  0  0  0  0  0  0  0
   -1.1160   14.3620    0.3880 C   0  0  0  0  0  0  0  0  0  0  0  0
    0.0290    9.4590   -8.2350 C   0  0  0  0  0  0  0  0  0  0  0  0
   -2.2150    9.2840   -6.4920 C   0  0  0  0  0  0  0  0  0  0  0  0
   -1.4550   14.5070    1.6920 N   0  0  0  0  0  0  0  0  0  0  0  0
   -2.2390   14.7400   -0.2990 C   0  0  0  0  0  0  0  0  0  0  0  0
   -0.9740    8.5110   -8.4530 C   0  0  0  0  0  0  0  0  0  0  0  0
   -2.0870    8.4240   -7.5880 C   0  0  0  0  0  0  0  0  0  0  0  0
   -2.7130   14.9460    1.8960 N   0  0  0  0  0  0  0  0  0  0  0  0
   -3.2270   15.1030    0.6750 C   0  0  0  0  0  0  0  0  0  0  0  0
   -2.3930   14.7670   -1.6860 C   0  0  0  0  0  0  0  0  0  0  0  0
   -4.4950   15.5370    0.2730 C   0  0  0  0  0  0  0  0  0  0  0  0
   -3.6750   15.2080   -2.0610 C   0  0  0  0  0  0  0  0  0  0  0  0
   -4.6850   15.5780   -1.1240 C   0  0  0  0  0  0  0  0  0  0  0  0
  2  1  1  0
  2  3  1  0
  2  4  1  0
  2  5  1  0
  5  6  1  0
  4  7  1  0
  6  8  1  0
  7  9  1  0
  7 10  1  0
  9 11  2  0
 10 12  2  0
  9 13  1  0
 10 14  1  0
 13 14  2  0
  8 15  1  0
 13 16  1  0
 14 17  1  0
 15 18  1  0
 15 19  2  0
 16 20  2  0
 17 21  2  0
 20 21  1  0
 18 22  1  0
 19 23  1  0
 22 23  2  0
 19 24  1  0
 23 25  1  0
 24 26  2  0
 25 27  2  0
 26 27  1  0
M  END
