mac-x0305-diamond-x0926_0_A
     RDKit          3D

 11 11  0  0  0  0  0  0  0  0999 V2000
   -0.1630   12.7380   -0.7430 O   0  0  0  0  0  0  0  0  0  0  0  0
   -0.5180   13.7830   -1.5040 C   0  0  0  0  0  0  0  0  0  0  0  0
    0.1560   14.0740   -2.4810 O   0  0  0  0  0  0  0  0  0  0  0  0
   -1.7810   14.5100   -1.0340 C   0  0  2  0  0  0  0  0  0  0  0  0
   -2.2450   14.3690    0.4580 C   0  0  1  0  0  0  0  0  0  0  0  0
   -2.8620   14.2600   -2.0110 N   0  0  0  0  0  0  0  0  0  0  0  0
   -1.2240   14.7720    1.4070 O   0  0  0  0  0  0  0  0  0  0  0  0
   -3.5070   15.2100    0.7360 C   0  0  0  0  0  0  0  0  0  0  0  0
   -3.9370   15.2350   -1.8310 C   0  0  0  0  0  0  0  0  0  0  0  0
   -4.4980   15.1240   -0.4220 C   0  0  0  0  0  0  0  0  0  0  0  0
   -5.7200   14.9560   -0.2390 O   0  0  0  0  0  0  0  0  0  0  0  0
  1  2  1  0
  2  3  2  0
  4  2  1  6
  4  5  1  0
  4  6  1  0
  5  7  1  1
  5  8  1  0
  6  9  1  0
  8 10  1  0
  9 10  1  0
 10 11  2  0
M  END
