mac-x0392-diamond-x0962_2_B
     RDKit          3D

 20 21  0  0  0  0  0  0  0  0999 V2000
    0.1780   13.6220   -0.1290 N   0  0  0  0  0  0  0  0  0  0  0  0
   -0.9600   14.5800   -0.0770 C   0  0  2  0  0  0  0  0  0  0  0  0
   -1.7420   14.5550    1.2660 C   0  0  0  0  0  0  0  0  0  0  0  0
   -1.8830   14.3300   -1.2990 C   0  0  2  0  0  0  0  0  0  0  0  0
   -1.1530   14.6370   -2.6130 C   0  0  0  0  0  0  0  0  0  0  0  0
   -3.1550   15.1330   -1.1980 C   0  0  0  0  0  0  0  0  0  0  0  0
   -3.2000   14.8460    1.1630 N   0  0  0  0  0  0  0  0  0  0  0  0
   -1.7060   14.7900   -3.6930 O   0  0  0  0  0  0  0  0  0  0  0  0
    0.1970   14.7320   -2.4980 O   0  0  0  0  0  0  0  0  0  0  0  0
   -4.0710   14.1070    2.0910 C   0  0  0  0  0  0  0  0  0  0  0  0
   -3.7210   15.3430   -0.0160 C   0  0  0  0  0  0  0  0  0  0  0  0
   -4.8230   14.9990    3.1060 C   0  0  0  0  0  0  0  0  0  0  0  0
   -6.0080   14.3160    3.8340 C   0  0  0  0  0  0  0  0  0  0  0  0
   -7.2820   14.9600    3.6600 N   0  0  0  0  0  0  0  0  0  0  0  0
   -7.9440   15.7140    4.5870 C   0  0  0  0  0  0  0  0  0  0  0  0
   -8.0280   14.9220    2.5220 C   0  0  0  0  0  0  0  0  0  0  0  0
   -9.1290   15.6880    2.8060 C   0  0  0  0  0  0  0  0  0  0  0  0
   -9.0740   16.1710    4.0940 N   0  0  0  0  0  0  0  0  0  0  0  0
  -10.2080   15.9820    1.9220 C   0  0  0  0  0  0  0  0  0  0  0  0
  -11.0530   16.2530    1.1730 N   0  0  0  0  0  0  0  0  0  0  0  0
  2  1  1  1
  2  3  1  0
  2  4  1  0
  4  5  1  6
  4  6  1  0
  3  7  1  0
  5  8  2  0
  5  9  1  0
  7 10  1  0
  6 11  2  0
  7 11  1  0
 10 12  1  0
 12 13  1  0
 13 14  1  0
 14 15  1  0
 14 16  1  0
 16 17  2  0
 15 18  2  0
 17 18  1  0
 17 19  1  0
 19 20  3  0
M  END
