mac-x0345-diamond-x0900_0_A
     RDKit          3D

  9  9  0  0  0  0  0  0  0  0999 V2000
   -7.4530   14.5280    0.7960 C   0  0  0  0  0  0  0  0  0  0  0  0
   -6.3300   14.8340   -0.1500 C   0  0  0  0  0  0  0  0  0  0  0  0
   -6.6450   14.7510   -1.4610 N   0  0  0  0  0  0  0  0  0  0  0  0
   -5.0470   15.1810    0.2690 C   0  0  0  0  0  0  0  0  0  0  0  0
   -4.5320   15.3190    2.0580 Br  0  0  0  0  0  0  0  0  0  0  0  0
   -4.0770   15.4450   -0.6700 C   0  0  0  0  0  0  0  0  0  0  0  0
   -5.6870   15.0070   -2.3580 C   0  0  0  0  0  0  0  0  0  0  0  0
   -6.0650   14.8930   -3.6850 N   0  0  0  0  0  0  0  0  0  0  0  0
   -4.3930   15.3590   -2.0130 C   0  0  0  0  0  0  0  0  0  0  0  0
  1  2  1  0
  2  3  2  0
  2  4  1  0
  4  5  1  0
  4  6  2  0
  3  7  1  0
  7  8  1  0
  6  9  1  0
  7  9  2  0
M  END
