mac-x0584-mac-x0373
     RDKit          3D

 28 32  0  0  0  0  0  0  0  0999 V2000
   -0.0410   11.1910   -1.6990 O   0  0  0  0  0  0  0  0  0  0  0  0
   -0.6510   12.2010   -2.3370 C   0  0  0  0  0  0  0  0  0  0  0  0
    0.0750   13.0470   -2.8390 O   0  0  0  0  0  0  0  0  0  0  0  0
   -2.1870   12.1930   -2.3720 C   0  0  1  0  0  0  0  0  0  0  0  0
   -2.5700   13.1070   -1.2550 C   0  0  0  0  0  0  0  0  0  0  0  0
   -2.7860   12.2810   -3.7620 C   0  0  0  0  0  0  0  0  0  0  0  0
   -1.8610   14.2610   -0.9330 C   0  0  0  0  0  0  0  0  0  0  0  0
   -3.5650   13.0490   -0.3350 C   0  0  0  0  0  0  0  0  0  0  0  0
   -1.9280   12.0410   -4.8530 C   0  0  0  0  0  0  0  0  0  0  0  0
   -4.1200   12.5750   -4.0250 C   0  0  0  0  0  0  0  0  0  0  0  0
   -2.3730   14.6390    0.3900 C   0  0  0  0  0  0  0  0  0  0  0  0
   -0.9640   15.0240   -1.5290 C   0  0  0  0  0  0  0  0  0  0  0  0
   -3.4820   14.0080    0.6780 N   0  0  0  0  0  0  0  0  0  0  0  0
   -2.3860   12.0930   -6.1630 C   0  0  0  0  0  0  0  0  0  0  0  0
   -4.5840   12.6260   -5.3370 C   0  0  0  0  0  0  0  0  0  0  0  0
   -0.5070   14.8180   -2.8040 N   0  0  0  0  0  0  0  0  0  0  0  0
   -0.5200   16.0700   -0.8120 N   0  0  0  0  0  0  0  0  0  0  0  0
   -1.7390   15.5620    1.1350 N   0  0  0  0  0  0  0  0  0  0  0  0
   -3.7190   12.3860   -6.4040 C   0  0  0  0  0  0  0  0  0  0  0  0
    0.8150   15.2600   -3.2370 C   0  0  1  0  0  0  0  0  0  0  0  0
   -1.4440   15.1620   -3.8920 C   0  0  0  0  0  0  0  0  0  0  0  0
   -0.8290   16.2060    0.4870 C   0  0  0  0  0  0  0  0  0  0  0  0
    1.4450   14.4050   -4.3250 C   0  0  0  0  0  0  0  0  0  0  0  0
    0.4570   16.6290   -3.8350 C   0  0  0  0  0  0  0  0  0  0  0  0
   -0.8000   16.3270   -4.6350 C   0  0  0  0  0  0  0  0  0  0  0  0
    2.1250   13.0640   -3.9100 C   0  0  0  0  0  0  0  0  0  0  0  0
    0.4870   13.5880   -5.2310 C   0  0  0  0  0  0  0  0  0  0  0  0
    1.4090   12.3760   -5.0880 C   0  0  0  0  0  0  0  0  0  0  0  0
  1  2  1  0
  2  3  2  0
  4  2  1  6
  4  5  1  0
  4  6  1  0
  5  7  1  0
  5  8  2  0
  6  9  2  0
  6 10  1  0
  7 11  1  0
  7 12  2  0
  8 13  1  0
 11 13  2  0
  9 14  1  0
 10 15  2  0
 12 16  1  0
 12 17  1  0
 11 18  1  0
 14 19  2  0
 15 19  1  0
 16 20  1  0
 16 21  1  0
 17 22  1  0
 18 22  2  0
 20 23  1  6
 20 24  1  0
 21 25  1  0
 24 25  1  0
 23 26  1  0
 23 27  1  0
 26 28  1  0
 27 28  1  0
M  END
