mac-x0139-mac-x0180
     RDKit          3D

 20 21  0  0  0  0  0  0  0  0999 V2000
   -2.2940   15.2190   -3.3390 C   0  0  0  0  0  0  0  0  0  0  0  0
   -1.0990   15.4400   -2.5060 N   0  0  0  0  0  0  0  0  0  0  0  0
    0.1900   14.9620   -3.0960 C   0  0  0  0  0  0  0  0  0  0  0  0
   -1.2470   15.2940   -1.1080 C   0  0  0  0  0  0  0  0  0  0  0  0
    0.1360   13.5840   -3.7600 C   0  0  0  0  0  0  0  0  0  0  0  0
   -2.4570   15.2000   -0.4990 C   0  0  0  0  0  0  0  0  0  0  0  0
   -0.0780   15.2530   -0.3550 N   0  0  0  0  0  0  0  0  0  0  0  0
    0.8590   12.5330   -2.9630 C   0  0  0  0  0  0  0  0  0  0  0  0
   -2.4690   15.0240    0.9670 C   0  0  0  0  0  0  0  0  0  0  0  0
   -0.1690   15.0910    0.9190 C   0  0  0  0  0  0  0  0  0  0  0  0
   -3.8510   15.2070   -0.8320 C   0  0  0  0  0  0  0  0  0  0  0  0
    1.7850   12.7170   -2.1970 O   0  0  0  0  0  0  0  0  0  0  0  0
    0.3850   11.2880   -3.1620 O   0  0  0  0  0  0  0  0  0  0  0  0
   -1.3100   14.9370    1.6180 N   0  0  0  0  0  0  0  0  0  0  0  0
   -3.6550   14.9650    1.4360 N   0  0  0  0  0  0  0  0  0  0  0  0
   -4.4800   15.0590    0.3470 C   0  0  0  0  0  0  0  0  0  0  0  0
   -5.7820   14.9760    0.7000 N   0  0  0  0  0  0  0  0  0  0  0  0
   -6.9620   14.7760    0.0650 C   0  0  0  0  0  0  0  0  0  0  0  0
   -8.2060   14.5700    0.8760 C   0  0  0  0  0  0  0  0  0  0  0  0
   -7.0000   14.7720   -1.1630 O   0  0  0  0  0  0  0  0  0  0  0  0
  1  2  1  0
  2  3  1  0
  2  4  1  0
  3  5  1  0
  4  6  2  0
  4  7  1  0
  5  8  1  0
  6  9  1  0
  7 10  2  0
  6 11  1  0
  8 12  2  0
  8 13  1  0
  9 14  1  0
 10 14  1  0
  9 15  2  0
 11 16  2  0
 15 16  1  0
 16 17  1  0
 17 18  1  0
 18 19  1  0
 18 20  2  0
M  END
