mac-x0228-mac-x0271
     RDKit          3D

 13 14  0  0  0  0  0  0  0  0999 V2000
   -1.1430   14.5680   -1.5170 O   0  0  0  0  0  0  0  0  0  0  0  0
   -2.0680   14.6580   -2.4870 C   0  0  0  0  0  0  0  0  0  0  0  0
   -1.7510   14.6700   -3.6660 O   0  0  0  0  0  0  0  0  0  0  0  0
   -3.4600   14.7420   -1.9650 C   0  0  0  0  0  0  0  0  0  0  0  0
   -3.8080   14.5280   -0.6130 C   0  0  0  0  0  0  0  0  0  0  0  0
   -4.4530   15.0510   -2.9070 C   0  0  0  0  0  0  0  0  0  0  0  0
   -5.1570   14.6320   -0.2620 C   0  0  0  0  0  0  0  0  0  0  0  0
   -5.7910   15.1480   -2.5270 C   0  0  0  0  0  0  0  0  0  0  0  0
   -6.1110   14.9370   -1.2110 C   0  0  0  0  0  0  0  0  0  0  0  0
   -5.8710   14.4640    1.0330 C   0  0  0  0  0  0  0  0  0  0  0  0
   -7.4010   15.0080   -0.7420 O   0  0  0  0  0  0  0  0  0  0  0  0
   -7.3300   14.6620    0.5940 C   0  0  0  0  0  0  0  0  0  0  0  0
   -8.3490   14.5570    1.2870 O   0  0  0  0  0  0  0  0  0  0  0  0
  1  2  1  0
  2  3  2  0
  2  4  1  0
  4  5  2  0
  4  6  1  0
  5  7  1  0
  6  8  2  0
  7  9  2  0
  8  9  1  0
  7 10  1  0
  9 11  1  0
 10 12  1  0
 11 12  1  0
 12 13  2  0
M  END
