mac-x0204-mac-x0496
     RDKit          3D

 28 30  0  0  0  0  0  0  0  0999 V2000
   -0.6820   13.3220   -1.6980 O   0  0  0  0  0  0  0  0  0  0  0  0
   -0.8990   14.4960   -2.4990 C   0  0  0  0  0  0  0  0  0  0  0  0
    0.3820   15.1020   -2.6460 O   0  0  0  0  0  0  0  0  0  0  0  0
   -1.9760   15.5120   -1.8830 C   0  0  1  0  0  0  0  0  0  0  0  0
   -1.5320   14.1460   -3.7950 C   0  0  0  0  0  0  0  0  0  0  0  0
   -2.8550   15.9480   -2.9530 O   0  0  0  0  0  0  0  0  0  0  0  0
   -1.9930   15.2150   -4.5580 C   0  0  0  0  0  0  0  0  0  0  0  0
   -1.7250   12.8610   -4.2860 C   0  0  0  0  0  0  0  0  0  0  0  0
   -2.8970   15.2470   -0.7070 C   0  0  0  0  0  0  0  0  0  0  0  0
   -2.6290   14.9890   -5.7390 C   0  0  0  0  0  0  0  0  0  0  0  0
   -2.3460   12.6070   -5.4600 N   0  0  0  0  0  0  0  0  0  0  0  0
   -2.3630   15.2300    0.5780 C   0  0  0  0  0  0  0  0  0  0  0  0
   -4.3000   15.0300   -0.8680 C   0  0  0  0  0  0  0  0  0  0  0  0
   -3.0950   16.0300   -6.4840 O   0  0  0  0  0  0  0  0  0  0  0  0
   -2.7890   13.6820   -6.1610 C   0  0  0  0  0  0  0  0  0  0  0  0
   -3.1850   15.0130    1.6720 C   0  0  0  0  0  0  0  0  0  0  0  0
   -5.1150   14.8110    0.2640 C   0  0  0  0  0  0  0  0  0  0  0  0
   -6.5890   14.5630    0.2800 C   0  0  0  0  0  0  0  0  0  0  0  0
   -4.5350   14.8130    1.5100 C   0  0  0  0  0  0  0  0  0  0  0  0
   -7.0900   14.0770    1.4850 N   0  0  0  0  0  0  0  0  0  0  0  0
   -7.2860   14.7730   -0.7040 O   0  0  0  0  0  0  0  0  0  0  0  0
   -8.5160   13.8770    1.6850 C   0  0  0  0  0  0  0  0  0  0  0  0
   -9.0820   15.0850    2.3220 C   0  0  0  0  0  0  0  0  0  0  0  0
  -10.0040   15.7790    1.6070 O   0  0  0  0  0  0  0  0  0  0  0  0
   -8.8200   15.6060    3.5030 N   0  0  0  0  0  0  0  0  0  0  0  0
   -9.6280   16.7010    3.5170 C   0  0  0  0  0  0  0  0  0  0  0  0
  -10.3580   16.8550    2.4060 N   0  0  0  0  0  0  0  0  0  0  0  0
   -9.6670   17.6240    4.6770 C   0  0  0  0  0  0  0  0  0  0  0  0
  2  1  1  0
  2  3  1  0
  2  4  1  0
  2  5  1  0
  4  6  1  6
  5  7  2  0
  5  8  1  0
  4  9  1  0
  7 10  1  0
  8 11  2  0
  9 12  2  0
  9 13  1  0
 10 14  1  0
 10 15  2  0
 11 15  1  0
 12 16  1  0
 13 17  2  0
 17 18  1  0
 16 19  2  0
 17 19  1  0
 18 20  1  0
 18 21  2  0
 20 22  1  0
 22 23  1  0
 23 24  1  0
 23 25  2  0
 25 26  1  0
 24 27  1  0
 26 27  2  0
 26 28  1  0
M  END
