mac-x0338-mac-x0284
     RDKit          3D

 13 13  0  0  0  0  0  0  0  0999 V2000
   -4.0590   14.9990    2.0090 N   0  0  0  0  0  0  0  0  0  0  0  0
   -4.9360   14.9790    0.9740 C   0  0  0  0  0  0  0  0  0  0  0  0
   -6.1480   14.9720    1.1520 O   0  0  0  0  0  0  0  0  0  0  0  0
   -4.3440   14.9480   -0.3880 C   0  0  0  0  0  0  0  0  0  0  0  0
   -2.9800   14.8020   -0.5040 N   0  0  0  0  0  0  0  0  0  0  0  0
   -5.1790   15.0630   -1.4900 C   0  0  0  0  0  0  0  0  0  0  0  0
   -2.4770   14.7710   -1.7850 C   0  0  0  0  0  0  0  0  0  0  0  0
   -4.6940   15.0290   -2.7600 N   0  0  0  0  0  0  0  0  0  0  0  0
   -0.9610   14.6090   -1.9600 C   0  0  0  0  0  0  0  0  0  0  0  0
   -3.3480   14.8870   -2.8700 C   0  0  0  0  0  0  0  0  0  0  0  0
   -2.8980   14.8650   -4.1630 O   0  0  0  0  0  0  0  0  0  0  0  0
   -0.1760   14.5420   -1.0180 O   0  0  0  0  0  0  0  0  0  0  0  0
   -0.4770   14.5440   -3.2300 O   0  0  0  0  0  0  0  0  0  0  0  0
  1  2  1  0
  2  3  2  0
  2  4  1  0
  4  5  2  0
  4  6  1  0
  5  7  1  0
  6  8  2  0
  7  9  1  0
  7 10  2  0
  8 10  1  0
 10 11  1  0
  9 12  2  0
  9 13  1  0
M  END
