mac-x0255-mac-x0576
     RDKit          3D

 26 29  0  0  0  0  0  0  0  0999 V2000
    1.6040   13.0740   -1.8380 O   0  0  0  0  0  0  0  0  0  0  0  0
    0.6860   12.2910   -2.4290 C   0  0  0  0  0  0  0  0  0  0  0  0
    0.0720   11.4690   -1.7770 O   0  0  0  0  0  0  0  0  0  0  0  0
    0.5720   12.5800   -3.8920 C   0  0  0  0  0  0  0  0  0  0  0  0
    0.1470   13.9760   -4.2380 C   0  0  0  0  0  0  0  0  0  0  0  0
   -0.8990   14.8150   -3.8770 C   0  0  0  0  0  0  0  0  0  0  0  0
    1.1040   14.7970   -5.3360 S   0  0  0  0  0  0  0  0  0  0  0  0
   -1.9630   14.5910   -2.9680 N   0  0  0  0  0  0  0  0  0  0  0  0
   -0.8950   16.0790   -4.5520 C   0  0  0  0  0  0  0  0  0  0  0  0
    0.1520   16.2130   -5.3650 C   0  0  0  0  0  0  0  0  0  0  0  0
   -1.7840   17.1540   -4.4970 C   0  0  0  0  0  0  0  0  0  0  0  0
    0.3400   17.3940   -6.0970 C   0  0  0  0  0  0  0  0  0  0  0  0
   -1.8340   14.6220   -1.6490 C   0  0  0  0  0  0  0  0  0  0  0  0
   -1.6250   18.3260   -5.2150 C   0  0  0  0  0  0  0  0  0  0  0  0
   -0.5550   18.4430   -6.0160 C   0  0  0  0  0  0  0  0  0  0  0  0
   -0.7200   14.8070   -0.8380 N   0  0  0  0  0  0  0  0  0  0  0  0
   -3.2000   14.4700   -0.9300 C   0  0  1  0  0  0  0  0  0  0  0  0
   -0.8170   14.4090    0.5230 C   0  0  1  0  0  0  0  0  0  0  0  0
   -3.1010   14.2750    0.6180 C   0  0  1  0  0  0  0  0  0  0  0  0
   -4.0780   15.5570   -1.3620 N   0  0  0  0  0  0  0  0  0  0  0  0
    0.2700   14.7000    1.3940 N   0  0  0  0  0  0  0  0  0  0  0  0
   -1.9500   14.8720    1.2580 N   0  0  0  0  0  0  0  0  0  0  0  0
   -4.2410   14.8110    1.3140 N   0  0  0  0  0  0  0  0  0  0  0  0
   -5.4190   15.4670   -0.8040 C   0  0  0  0  0  0  0  0  0  0  0  0
   -5.4460   14.9710    0.6510 C   0  0  0  0  0  0  0  0  0  0  0  0
   -6.5020   14.7310    1.2270 O   0  0  0  0  0  0  0  0  0  0  0  0
  1  2  1  0
  2  3  2  0
  2  4  1  0
  4  5  1  0
  5  6  2  0
  5  7  1  0
  6  8  1  0
  6  9  1  0
  7 10  1  0
  9 10  2  0
  9 11  1  0
 10 12  1  0
  8 13  2  3
 11 14  2  0
 12 15  2  0
 14 15  1  0
 13 16  1  0
 13 17  1  0
 16 18  1  0
 17 19  1  0
 17 20  1  1
 18 21  1  1
 18 22  1  0
 19 22  1  1
 19 23  1  0
 20 24  1  0
 23 25  1  0
 24 25  1  0
 25 26  2  0
M  END
