mac-x0347-mac-x0301
     RDKit          3D

 21 23  0  0  0  0  0  0  0  0999 V2000
    1.3370   15.2160   -2.9220 O   0  0  0  0  0  0  0  0  0  0  0  0
    0.4710   14.1140   -2.8320 C   0  0  0  0  0  0  0  0  0  0  0  0
    0.9770   13.1980   -1.8820 O   0  0  0  0  0  0  0  0  0  0  0  0
    0.4560   13.5710   -4.2550 C   0  0  0  0  0  0  0  0  0  0  0  0
   -1.0090   14.4480   -2.6100 C   0  0  1  0  0  0  0  0  0  0  0  0
   -0.5460   13.6460   -4.9700 O   0  0  0  0  0  0  0  0  0  0  0  0
   -1.5670   14.6860   -1.1670 C   0  0  2  0  0  0  0  0  0  0  0  0
   -1.4520   15.5550   -3.5920 C   0  0  0  0  0  0  0  0  0  0  0  0
   -3.0630   15.0840   -1.4340 C   0  0  1  0  0  0  0  0  0  0  0  0
   -2.8440   15.3620   -3.9610 N   0  0  0  0  0  0  0  0  0  0  0  0
   -0.8280   15.7730   -0.3930 C   0  0  0  0  0  0  0  0  0  0  0  0
   -1.2970   13.5330   -0.3140 O   0  0  0  0  0  0  0  0  0  0  0  0
   -3.5590   14.6910   -2.8590 C   0  0  0  0  0  0  0  0  0  0  0  0
   -4.0950   14.8440   -0.3640 C   0  0  0  0  0  0  0  0  0  0  0  0
   -0.8170   15.3570    0.9670 O   0  0  0  0  0  0  0  0  0  0  0  0
   -0.5010   14.0090    0.7880 C   0  0  0  0  0  0  0  0  0  0  0  0
   -3.8930   15.4640    0.8640 C   0  0  0  0  0  0  0  0  0  0  0  0
   -5.2330   14.0420   -0.5490 C   0  0  0  0  0  0  0  0  0  0  0  0
   -4.8020   15.2960    1.8950 C   0  0  0  0  0  0  0  0  0  0  0  0
   -6.1470   13.8720    0.4900 C   0  0  0  0  0  0  0  0  0  0  0  0
   -5.9300   14.4980    1.7080 C   0  0  0  0  0  0  0  0  0  0  0  0
  2  1  1  0
  2  3  1  0
  2  4  1  0
  5  2  1  1
  4  6  2  0
  5  7  1  0
  5  8  1  0
  7  9  1  0
  8 10  1  0
  7 11  1  1
  7 12  1  0
  9 13  1  0
 10 13  1  0
  9 14  1  1
 11 15  1  0
 12 16  1  0
 15 16  1  0
 14 17  2  0
 14 18  1  0
 17 19  1  0
 18 20  2  0
 19 21  2  0
 20 21  1  0
M  END
