mac-x0188-diamond-x0844_0_A
     RDKit          3D

 22 24  0  0  0  0  0  0  0  0999 V2000
    0.8640   13.3340   -5.5650 C   0  0  0  0  0  0  0  0  0  0  0  0
   -0.3040   13.6460   -4.7120 C   0  0  0  0  0  0  0  0  0  0  0  0
   -1.5320   13.6990   -5.2930 O   0  0  0  0  0  0  0  0  0  0  0  0
   -0.4310   13.9070   -3.3800 C   0  0  0  0  0  0  0  0  0  0  0  0
    0.6610   13.9390   -2.4440 C   0  0  0  0  0  0  0  0  0  0  0  0
   -2.4970   13.9940   -4.3280 N   0  0  0  0  0  0  0  0  0  0  0  0
   -1.8220   14.1170   -3.1740 C   0  0  0  0  0  0  0  0  0  0  0  0
    1.3840   14.9000   -2.2310 O   0  0  0  0  0  0  0  0  0  0  0  0
    0.8750   12.7890   -1.7700 O   0  0  0  0  0  0  0  0  0  0  0  0
   -2.3540   14.4110   -1.8410 C   0  0  0  0  0  0  0  0  0  0  0  0
   -3.5760   14.8950   -1.2970 C   0  0  0  0  0  0  0  0  0  0  0  0
   -1.3740   14.1400   -0.8730 C   0  0  0  0  0  0  0  0  0  0  0  0
   -3.7040   15.0570    0.0660 C   0  0  0  0  0  0  0  0  0  0  0  0
   -1.5610   14.3230    0.4900 C   0  0  0  0  0  0  0  0  0  0  0  0
   -4.9080   15.3590   -1.6090 C   0  0  2  0  0  0  0  0  0  0  0  0
   -2.7430   14.7860    0.9570 C   0  0  0  0  0  0  0  0  0  0  0  0
   -4.8830   15.8130   -0.1380 C   0  0  0  0  0  0  0  0  0  0  0  0
   -6.0450   14.3720   -1.8600 C   0  0  0  0  0  0  0  0  0  0  0  0
   -5.4870   15.1570    0.8590 C   0  0  0  0  0  0  0  0  0  0  0  0
   -6.8880   14.1540   -0.6150 C   0  0  0  0  0  0  0  0  0  0  0  0
   -8.1080   14.0790   -0.6190 O   0  0  0  0  0  0  0  0  0  0  0  0
   -6.2010   14.0850    0.5440 N   0  0  0  0  0  0  0  0  0  0  0  0
  1  2  1  0
  2  3  1  0
  2  4  2  0
  4  5  1  0
  3  6  1  0
  4  7  1  0
  6  7  2  0
  5  8  2  0
  5  9  1  0
  7 10  1  0
 10 11  1  0
 10 12  2  0
 11 13  2  0
 12 14  1  0
 15 11  1  1
 13 16  1  0
 14 16  2  0
 15 17  1  0
 15 18  1  0
 17 19  2  0
 18 20  1  0
 20 21  2  0
 19 22  1  0
 20 22  1  0
M  END
