mac-x0572-mac-x0306
     RDKit          3D

 13 14  0  0  0  0  0  0  0  0999 V2000
   -7.9240   14.5300    3.1850 C   0  0  0  0  0  0  0  0  0  0  0  0
   -7.1910   14.6370    1.8660 C   0  0  0  0  0  0  0  0  0  0  0  0
   -5.8370   14.7390    2.0330 N   0  0  0  0  0  0  0  0  0  0  0  0
   -7.8070   14.6350    0.6660 C   0  0  0  0  0  0  0  0  0  0  0  0
   -9.1720   14.5310    0.4820 O   0  0  0  0  0  0  0  0  0  0  0  0
   -6.9360   14.7660   -0.5580 C   0  0  0  0  0  0  0  0  0  0  0  0
   -5.0660   15.0730    1.0500 C   0  0  0  0  0  0  0  0  0  0  0  0
   -7.3400   14.3770   -1.6550 O   0  0  0  0  0  0  0  0  0  0  0  0
   -5.5680   15.3980   -0.3480 C   0  0  1  0  0  0  0  0  0  0  0  0
   -3.6150   15.1330    1.3230 C   0  0  0  0  0  0  0  0  0  0  0  0
   -2.7760   15.0900    0.2950 C   0  0  0  0  0  0  0  0  0  0  0  0
   -4.5280   15.1230   -1.3910 C   0  0  0  0  0  0  0  0  0  0  0  0
   -3.2300   14.9890   -1.0740 C   0  0  0  0  0  0  0  0  0  0  0  0
  1  2  1  0
  2  3  1  0
  2  4  2  0
  4  5  1  0
  4  6  1  0
  3  7  2  0
  6  8  2  0
  6  9  1  0
  7  9  1  0
  7 10  1  0
 10 11  2  0
  9 12  1  6
 11 13  1  0
 12 13  2  0
M  END
