mac-x0231-diamond-x1015_0_A
     RDKit          3D

 29 32  0  0  0  0  0  0  0  0999 V2000
    1.7390   12.4300   -2.5510 N   0  0  0  0  0  0  0  0  0  0  0  0
    2.5320   12.5030   -3.6260 C   0  0  0  0  0  0  0  0  0  0  0  0
    3.7250   12.2770   -3.5730 O   0  0  0  0  0  0  0  0  0  0  0  0
    0.4790   12.4300   -2.5670 C   0  0  0  0  0  0  0  0  0  0  0  0
    1.8270   12.8910   -4.8970 C   0  0  0  0  0  0  0  0  0  0  0  0
   -0.4750   12.4840   -3.5890 N   0  0  0  0  0  0  0  0  0  0  0  0
   -0.1790   12.4310   -1.4130 N   0  0  0  0  0  0  0  0  0  0  0  0
    1.1940   14.2650   -4.7910 C   0  0  0  0  0  0  0  0  0  0  0  0
   -1.6450   13.1510   -2.9310 C   0  0  1  0  0  0  0  0  0  0  0  0
   -1.0230   13.4460   -1.5810 C   0  0  0  0  0  0  0  0  0  0  0  0
   -0.6610   11.5910   -4.6890 C   0  0  0  0  0  0  0  0  0  0  0  0
   -2.0680   14.4990   -3.4630 C   0  0  0  0  0  0  0  0  0  0  0  0
   -1.2170   14.3930   -0.8360 O   0  0  0  0  0  0  0  0  0  0  0  0
   -0.2350   14.5440   -5.1450 C   0  0  0  0  0  0  0  0  0  0  0  0
    1.9940   15.1880   -4.3570 N   0  0  0  0  0  0  0  0  0  0  0  0
   -0.0530   11.7740   -5.9650 C   0  0  0  0  0  0  0  0  0  0  0  0
   -1.4800   10.4520   -4.5760 C   0  0  0  0  0  0  0  0  0  0  0  0
   -0.6670   15.8730   -5.0110 C   0  0  0  0  0  0  0  0  0  0  0  0
    1.5390   16.4570   -4.2340 N   0  0  0  0  0  0  0  0  0  0  0  0
   -1.1710   13.5920   -5.5890 C   0  0  0  0  0  0  0  0  0  0  0  0
   -0.2550   10.8900   -7.0350 C   0  0  0  0  0  0  0  0  0  0  0  0
   -1.6870    9.5620   -5.6430 C   0  0  0  0  0  0  0  0  0  0  0  0
    0.2860   16.8940   -4.5570 C   0  0  0  0  0  0  0  0  0  0  0  0
   -1.9930   16.2430   -5.3030 C   0  0  0  0  0  0  0  0  0  0  0  0
   -2.4910   13.9540   -5.8810 C   0  0  0  0  0  0  0  0  0  0  0  0
   -1.0740    9.7880   -6.8680 C   0  0  0  0  0  0  0  0  0  0  0  0
   -0.0370   18.0750   -4.4800 O   0  0  0  0  0  0  0  0  0  0  0  0
   -1.3370    8.6970   -8.1740 Cl  0  0  0  0  0  0  0  0  0  0  0  0
   -2.9090   15.2790   -5.7390 C   0  0  0  0  0  0  0  0  0  0  0  0
  1  2  1  0
  2  3  2  0
  1  4  2  3
  2  5  1  0
  4  6  1  0
  4  7  1  0
  5  8  1  0
  6  9  1  0
  7 10  1  0
  9 10  1  0
  6 11  1  0
  9 12  1  6
 10 13  2  0
  8 14  1  0
  8 15  2  0
 11 16  2  0
 11 17  1  0
 14 18  2  0
 15 19  1  0
 14 20  1  0
 16 21  1  0
 17 22  2  0
 18 23  1  0
 19 23  1  0
 18 24  1  0
 20 25  2  0
 21 26  2  0
 22 26  1  0
 23 27  2  0
 26 28  1  0
 24 29  2  0
 25 29  1  0
M  END
