mac-x0567-mac-x0568
     RDKit          3D

 20 22  0  0  0  0  0  0  0  0999 V2000
    0.6050   13.5360   -0.3720 N   0  0  0  0  0  0  0  0  0  0  0  0
   -0.4260   14.1160    0.2190 C   0  0  0  0  0  0  0  0  0  0  0  0
   -0.3590   14.5080    1.4870 N   0  0  0  0  0  0  0  0  0  0  0  0
   -1.6660   14.4590   -0.1570 C   0  0  0  0  0  0  0  0  0  0  0  0
   -1.4700   15.0770    1.9080 N   0  0  0  0  0  0  0  0  0  0  0  0
   -2.3010   15.0860    0.9620 C   0  0  0  0  0  0  0  0  0  0  0  0
   -2.2100   14.2530   -1.3590 C   0  0  0  0  0  0  0  0  0  0  0  0
   -3.5740   15.5970    0.9820 C   0  0  0  0  0  0  0  0  0  0  0  0
   -3.4900   14.7610   -1.2960 C   0  0  0  0  0  0  0  0  0  0  0  0
   -4.3610   14.6820   -2.3750 C   0  0  2  0  0  0  0  0  0  0  0  0
   -4.1500   15.4040   -0.2180 C   0  0  0  0  0  0  0  0  0  0  0  0
   -4.1140   13.5120   -3.0950 O   0  0  0  0  0  0  0  0  0  0  0  0
   -3.9690   15.7820   -3.1480 N   0  0  0  0  0  0  0  0  0  0  0  0
   -5.5320   14.6940   -1.3960 C   0  0  0  0  0  0  0  0  0  0  0  0
   -6.8020   15.1580   -1.6680 C   0  0  0  0  0  0  0  0  0  0  0  0
   -5.3270   14.1950   -0.0750 C   0  0  0  0  0  0  0  0  0  0  0  0
   -7.8150   15.1490   -0.7610 N   0  0  0  0  0  0  0  0  0  0  0  0
   -6.3450   14.1840    0.8670 C   0  0  0  0  0  0  0  0  0  0  0  0
   -7.5790   14.6680    0.4830 C   0  0  0  0  0  0  0  0  0  0  0  0
   -8.7150   14.6740    1.4580 C   0  0  0  0  0  0  0  0  0  0  0  0
  1  2  1  0
  2  3  1  0
  2  4  2  0
  3  5  1  0
  4  6  1  0
  5  6  2  0
  4  7  1  0
  6  8  1  0
  7  9  2  0
  9 10  1  0
  8 11  2  0
  9 11  1  0
 10 12  1  0
 10 13  1  6
 10 14  1  0
 14 15  2  0
 14 16  1  0
 15 17  1  0
 16 18  2  0
 17 19  2  0
 18 19  1  0
 19 20  1  0
M  END
