mac-x0333-mac-x0415
     RDKit          3D

 26 29  0  0  0  0  0  0  0  0999 V2000
   -1.7630   15.0010   -1.8870 O   0  0  0  0  0  0  0  0  0  0  0  0
   -2.9480   14.9700   -1.2140 C   0  0  0  0  0  0  0  0  0  0  0  0
   -2.8790   14.8580    0.1620 C   0  0  0  0  0  0  0  0  0  0  0  0
   -4.1200   15.0500   -1.9170 C   0  0  0  0  0  0  0  0  0  0  0  0
   -3.8590   15.1930   -3.3840 C   0  0  0  0  0  0  0  0  0  0  0  0
   -5.3070   14.9980   -1.1610 C   0  0  0  0  0  0  0  0  0  0  0  0
   -4.0460   14.8190    0.9000 C   0  0  0  0  0  0  0  0  0  0  0  0
   -4.7110   14.6280   -4.4910 C   0  0  0  0  0  0  0  0  0  0  0  0
   -5.2410   14.8840    0.2200 C   0  0  0  0  0  0  0  0  0  0  0  0
   -6.6040   15.0460   -1.5790 O   0  0  0  0  0  0  0  0  0  0  0  0
   -4.0380   15.2410   -5.6180 O   0  0  0  0  0  0  0  0  0  0  0  0
   -6.4660   14.8500    0.8110 O   0  0  0  0  0  0  0  0  0  0  0  0
   -7.3070   14.7590   -0.3470 C   0  0  0  0  0  0  0  0  0  0  0  0
   -2.6800   15.4670   -5.4000 C   0  0  0  0  0  0  0  0  0  0  0  0
   -2.1920   16.8110   -5.7850 C   0  0  0  0  0  0  0  0  0  0  0  0
   -1.8100   14.5580   -4.8690 C   0  0  0  0  0  0  0  0  0  0  0  0
   -0.4320   14.9230   -4.6840 C   0  0  0  0  0  0  0  0  0  0  0  0
   -0.9720   17.2560   -5.3940 C   0  0  0  0  0  0  0  0  0  0  0  0
    0.6760   14.1900   -4.5780 C   0  0  0  0  0  0  0  0  0  0  0  0
   -0.1360   16.3670   -4.5350 C   0  0  2  0  0  0  0  0  0  0  0  0
    0.9720   12.7440   -4.5810 C   0  0  0  0  0  0  0  0  0  0  0  0
    1.6880   15.2450   -4.4600 C   0  0  0  0  0  0  0  0  0  0  0  0
    1.3030   16.4860   -4.4830 N   0  0  0  0  0  0  0  0  0  0  0  0
    0.8540   12.2170   -3.1600 C   0  0  0  0  0  0  0  0  0  0  0  0
    0.2980   10.9920   -3.0920 O   0  0  0  0  0  0  0  0  0  0  0  0
    1.1950   12.7730   -2.1320 O   0  0  0  0  0  0  0  0  0  0  0  0
  1  2  1  0
  2  3  2  0
  2  4  1  0
  4  5  1  0
  4  6  2  0
  3  7  1  0
  5  8  1  0
  6  9  1  0
  7  9  2  0
  6 10  1  0
  8 11  1  0
  9 12  1  0
 10 13  1  0
 12 13  1  0
 11 14  1  0
 14 15  1  0
 14 16  2  0
 16 17  1  0
 15 18  2  0
 17 19  2  0
 17 20  1  0
 20 18  1  6
 19 21  1  0
 19 22  1  0
 20 23  1  0
 22 23  2  0
 21 24  1  0
 24 25  1  0
 24 26  2  0
M  END
