mac-x0333-diamond-x0864_0_A
     RDKit          3D

 25 27  0  0  0  0  0  0  0  0999 V2000
   -2.5640   15.1520   -2.8350 O   0  0  0  0  0  0  0  0  0  0  0  0
   -3.4240   15.0520   -1.7750 C   0  0  0  0  0  0  0  0  0  0  0  0
   -2.9150   14.7940   -0.4750 C   0  0  0  0  0  0  0  0  0  0  0  0
   -4.7900   15.2060   -2.0140 C   0  0  0  0  0  0  0  0  0  0  0  0
   -1.4310   14.6020   -0.2130 C   0  0  0  0  0  0  0  0  0  0  0  0
   -5.6340   15.1000   -0.9370 C   0  0  0  0  0  0  0  0  0  0  0  0
   -3.8220   14.7060    0.6000 C   0  0  0  0  0  0  0  0  0  0  0  0
   -0.5860   14.5030   -1.4990 C   0  0  0  0  0  0  0  0  0  0  0  0
   -5.1660   14.8630    0.3300 C   0  0  0  0  0  0  0  0  0  0  0  0
   -6.9920   15.2020   -0.9600 O   0  0  0  0  0  0  0  0  0  0  0  0
    0.7400   13.7740   -1.3550 C   0  0  0  0  0  0  0  0  0  0  0  0
   -6.1820   14.8050    1.2330 O   0  0  0  0  0  0  0  0  0  0  0  0
   -7.2860   14.6390    0.3320 C   0  0  0  0  0  0  0  0  0  0  0  0
    0.5800   12.3420   -1.5440 N   0  0  0  0  0  0  0  0  0  0  0  0
    0.5460   11.7930   -2.7030 C   0  0  0  0  0  0  0  0  0  0  0  0
    0.6450   12.4100   -4.0980 C   0  0  0  0  0  0  0  0  0  0  0  0
    0.3990   10.4460   -2.6490 O   0  0  0  0  0  0  0  0  0  0  0  0
   -0.1330   11.6790   -5.1070 N   0  0  0  0  0  0  0  0  0  0  0  0
   -1.3460   11.1080   -4.7590 C   0  0  0  0  0  0  0  0  0  0  0  0
    0.4820   11.4080   -6.3250 C   0  0  0  0  0  0  0  0  0  0  0  0
    1.4640   11.9970   -6.7550 O   0  0  0  0  0  0  0  0  0  0  0  0
   -1.9050   10.1570   -5.5190 C   0  0  0  0  0  0  0  0  0  0  0  0
   -0.1030   10.3000   -7.1230 C   0  0  0  0  0  0  0  0  0  0  0  0
   -1.2380    9.7160   -6.7220 C   0  0  0  0  0  0  0  0  0  0  0  0
   -2.0160    8.3110   -7.6730 Br  0  0  0  0  0  0  0  0  0  0  0  0
  1  2  1  0
  2  3  2  0
  2  4  1  0
  3  5  1  0
  4  6  2  0
  3  7  1  0
  5  8  1  0
  6  9  1  0
  7  9  2  0
  6 10  1  0
  8 11  1  0
  9 12  1  0
 10 13  1  0
 12 13  1  0
 11 14  1  0
 14 15  2  3
 15 16  1  0
 15 17  1  0
 16 18  1  0
 18 19  1  0
 18 20  1  0
 20 21  2  0
 19 22  2  0
 20 23  1  0
 22 24  1  0
 23 24  2  0
 24 25  1  0
M  END
