mac-x0306-diamond-x0855_0_A
     RDKit          3D

 24 26  0  0  0  0  0  0  0  0999 V2000
    1.4840   13.0510   -2.4390 O   0  0  0  0  0  0  0  0  0  0  0  0
    0.8760   12.0790   -3.1860 C   0  0  0  0  0  0  0  0  0  0  0  0
    0.6150   12.5460   -4.5950 C   0  0  0  0  0  0  0  0  0  0  0  0
    0.7610   14.2910   -2.2660 C   0  0  0  0  0  0  0  0  0  0  0  0
    0.5880   10.9680   -2.7490 O   0  0  0  0  0  0  0  0  0  0  0  0
   -0.6000   14.0550   -1.6000 C   0  0  0  0  0  0  0  0  0  0  0  0
   -1.7960   14.4390   -2.4920 C   0  0  0  0  0  0  0  0  0  0  0  0
   -0.4250   11.6990   -5.1400 N   0  0  0  0  0  0  0  0  0  0  0  0
   -2.9430   14.9590   -1.7090 N   0  0  0  0  0  0  0  0  0  0  0  0
   -0.3010   10.7670   -6.1310 C   0  0  0  0  0  0  0  0  0  0  0  0
   -1.6750   11.7940   -4.6400 N   0  0  0  0  0  0  0  0  0  0  0  0
   -4.1380   15.3530   -2.3150 C   0  0  0  0  0  0  0  0  0  0  0  0
   -2.9540   14.9670   -0.3140 C   0  0  0  0  0  0  0  0  0  0  0  0
   -1.5500   10.2250   -6.2630 C   0  0  0  0  0  0  0  0  0  0  0  0
   -2.3620   10.8830   -5.3370 C   0  0  0  0  0  0  0  0  0  0  0  0
   -2.1000    8.8780   -7.4280 Br  0  0  0  0  0  0  0  0  0  0  0  0
   -5.3300   15.1450   -1.7270 C   0  0  0  0  0  0  0  0  0  0  0  0
   -4.0730   14.7380    0.3790 C   0  0  0  0  0  0  0  0  0  0  0  0
   -5.3550   14.4460   -0.3770 C   0  0  0  0  0  0  0  0  0  0  0  0
   -6.6280   14.5910    0.4280 C   0  0  0  0  0  0  0  0  0  0  0  0
   -6.6590   14.5150    1.8100 N   0  0  0  0  0  0  0  0  0  0  0  0
   -7.8450   14.7900   -0.0470 N   0  0  0  0  0  0  0  0  0  0  0  0
   -8.6690   14.8450    1.0470 C   0  0  0  0  0  0  0  0  0  0  0  0
   -7.9550   14.6780    2.2050 C   0  0  0  0  0  0  0  0  0  0  0  0
  1  2  1  0
  2  3  1  0
  1  4  1  0
  2  5  2  0
  4  6  1  0
  6  7  1  0
  3  8  1  0
  7  9  1  0
  8 10  1  0
  8 11  1  0
  9 12  1  0
  9 13  1  0
 10 14  2  0
 11 15  2  0
 14 15  1  0
 14 16  1  0
 12 17  2  0
 13 18  2  0
 17 19  1  0
 18 19  1  0
 19 20  1  0
 20 21  1  0
 20 22  2  0
 22 23  1  0
 21 24  1  0
 23 24  2  0
M  END
