mac-x0555-mac-x0568
     RDKit          3D

 14 15  0  0  0  0  0  0  0  0999 V2000
   -6.7890   14.6610    2.5630 N   0  0  0  0  0  0  0  0  0  0  0  0
   -6.4710   14.6810    1.2040 C   0  0  0  0  0  0  0  0  0  0  0  0
   -7.4860   14.4140    0.2830 C   0  0  0  0  0  0  0  0  0  0  0  0
   -5.2130   14.9560    0.5760 C   0  0  0  0  0  0  0  0  0  0  0  0
   -3.8610   15.3040    1.0460 C   0  0  0  0  0  0  0  0  0  0  0  0
   -5.0440   14.9510   -0.7500 C   0  0  0  0  0  0  0  0  0  0  0  0
   -7.3330   14.4100   -1.0690 N   0  0  0  0  0  0  0  0  0  0  0  0
   -3.4950   16.4490    0.9690 O   0  0  0  0  0  0  0  0  0  0  0  0
   -2.9730   14.3390    1.4060 N   0  0  0  0  0  0  0  0  0  0  0  0
   -6.1150   14.6790   -1.5620 C   0  0  0  0  0  0  0  0  0  0  0  0
   -3.7680   15.2270   -1.2660 C   0  0  0  0  0  0  0  0  0  0  0  0
   -5.8720   14.6970   -2.9180 C   0  0  0  0  0  0  0  0  0  0  0  0
   -3.5360   15.2380   -2.6070 C   0  0  0  0  0  0  0  0  0  0  0  0
   -4.5960   14.9700   -3.4420 C   0  0  0  0  0  0  0  0  0  0  0  0
  1  2  1  0
  2  3  2  0
  2  4  1  0
  4  5  1  0
  4  6  2  0
  3  7  1  0
  5  8  2  0
  5  9  1  0
  6 10  1  0
  7 10  2  0
  6 11  1  0
 10 12  1  0
 11 13  2  0
 12 14  2  0
 13 14  1  0
M  END
