mac-x0159-mac-x0326
     RDKit          3D

 26 28  0  0  0  0  0  0  0  0999 V2000
   -4.3790   15.8500    0.5850 N   0  0  0  0  0  0  0  0  0  0  0  0
   -3.1730   15.6950   -0.2260 C   0  0  1  0  0  0  0  0  0  0  0  0
   -2.3400   14.5310    0.3740 C   0  0  0  0  0  0  0  0  0  0  0  0
   -3.5660   15.5640   -1.6370 N   0  0  0  0  0  0  0  0  0  0  0  0
   -5.3100   15.2740   -1.8010 Cl  0  0  0  0  0  0  0  0  0  0  0  0
   -2.7090   14.9090   -2.6790 C   0  0  2  0  0  0  0  0  0  0  0  0
   -1.5430   14.8080    1.5810 N   0  0  0  0  0  0  0  0  0  0  0  0
   -0.2080   14.2980    1.5640 C   0  0  0  0  0  0  0  0  0  0  0  0
   -1.1420   15.1610   -3.0560 C   0  0  1  0  0  0  0  0  0  0  0  0
   -3.3070   14.8260   -4.0930 C   0  0  0  0  0  0  0  0  0  0  0  0
    0.3600   14.8510    0.4040 N   0  0  0  0  0  0  0  0  0  0  0  0
   -0.6530   16.2940   -3.9860 C   0  0  0  0  0  0  0  0  0  0  0  0
   -2.3990   13.9490   -4.8420 N   0  0  0  0  0  0  0  0  0  0  0  0
    0.0720   14.9440   -2.0230 C   0  0  1  0  0  0  0  0  0  0  0  0
   -1.1180   13.9640   -4.0900 C   0  0  0  0  0  0  0  0  0  0  0  0
   -0.2730   14.2620   -0.7200 C   0  0  0  0  0  0  0  0  0  0  0  0
    0.6600   16.7170   -4.1460 C   0  0  0  0  0  0  0  0  0  0  0  0
   -1.5490   16.9970   -4.7830 N   0  0  0  0  0  0  0  0  0  0  0  0
    1.3520   14.2340   -2.5460 C   0  0  0  0  0  0  0  0  0  0  0  0
   -0.9130   17.9050   -5.4950 C   0  0  0  0  0  0  0  0  0  0  0  0
    0.7810   17.9880   -5.2770 S   0  0  0  0  0  0  0  0  0  0  0  0
    1.0830   12.8170   -2.3220 N   0  0  0  0  0  0  0  0  0  0  0  0
   -1.5700   18.8310   -6.4490 C   0  0  0  0  0  0  0  0  0  0  0  0
    0.8880   12.0850   -3.3300 C   0  0  0  0  0  0  0  0  0  0  0  0
    0.5900   10.8090   -3.0620 O   0  0  0  0  0  0  0  0  0  0  0  0
    0.9240   12.4510   -4.7810 C   0  0  0  0  0  0  0  0  0  0  0  0
  2  1  1  1
  2  3  1  0
  2  4  1  0
  4  5  1  0
  4  6  1  0
  3  7  1  0
  7  8  1  0
  6  9  1  0
  6 10  1  6
  8 11  1  0
  9 12  1  6
 10 13  1  0
  9 14  1  0
  9 15  1  0
 13 15  1  0
 11 16  1  0
 14 16  1  0
 12 17  2  0
 12 18  1  0
 14 19  1  6
 18 20  2  0
 17 21  1  0
 20 21  1  0
 19 22  1  0
 20 23  1  0
 22 24  2  3
 24 25  1  0
 24 26  1  0
M  END
