mac-x0321-mac-x0345
     RDKit          3D

 12 12  0  0  0  0  0  0  0  0999 V2000
   -4.3440   15.3310    1.6010 Cl  0  0  0  0  0  0  0  0  0  0  0  0
   -4.4900   15.1110   -0.0850 C   0  0  0  0  0  0  0  0  0  0  0  0
   -3.3010   15.0490   -0.8030 C   0  0  0  0  0  0  0  0  0  0  0  0
   -5.7340   14.9940   -0.7270 C   0  0  0  0  0  0  0  0  0  0  0  0
   -7.0700   14.9940   -0.0190 C   0  0  0  0  0  0  0  0  0  0  0  0
   -3.3170   14.8850   -2.1880 C   0  0  0  0  0  0  0  0  0  0  0  0
   -5.7330   14.8560   -2.1080 C   0  0  0  0  0  0  0  0  0  0  0  0
   -1.9930   14.8050   -2.8660 C   0  0  0  0  0  0  0  0  0  0  0  0
   -4.5550   14.8050   -2.8480 C   0  0  0  0  0  0  0  0  0  0  0  0
   -0.9360   14.7130   -2.0280 O   0  0  0  0  0  0  0  0  0  0  0  0
   -1.8170   14.8070   -4.0680 O   0  0  0  0  0  0  0  0  0  0  0  0
   -4.7110   14.6640   -4.2270 N   0  0  0  0  0  0  0  0  0  0  0  0
  1  2  1  0
  2  3  2  0
  2  4  1  0
  4  5  1  0
  3  6  1  0
  4  7  2  0
  6  8  1  0
  6  9  2  0
  7  9  1  0
  8 10  1  0
  8 11  2  0
  9 12  1  0
M  END
