mac-x0282-mac-x0271
     RDKit          3D

 16 18  0  0  0  0  0  0  0  0999 V2000
   -4.2120   15.8590   -1.6500 O   0  0  0  0  0  0  0  0  0  0  0  0
   -3.9690   14.6340   -0.9770 C   0  0  2  0  0  0  0  0  0  0  0  0
   -4.8800   14.2360    0.3100 C   0  0  1  0  0  0  0  0  0  0  0  0
   -2.5600   14.6300   -0.4230 C   0  0  0  0  0  0  0  0  0  0  0  0
   -2.5870   14.2340    0.8930 C   0  0  0  0  0  0  0  0  0  0  0  0
   -3.8730   13.8500    1.3010 N   0  0  0  0  0  0  0  0  0  0  0  0
   -1.3430   14.9420   -1.0020 C   0  0  0  0  0  0  0  0  0  0  0  0
   -5.7000   15.0110    1.3380 C   0  0  0  0  0  0  0  0  0  0  0  0
   -5.8770   13.1370   -0.1010 C   0  0  0  0  0  0  0  0  0  0  0  0
   -0.2000   14.8790   -0.2020 C   0  0  0  0  0  0  0  0  0  0  0  0
   -1.5260   14.1840    1.6950 N   0  0  0  0  0  0  0  0  0  0  0  0
   -7.0640   14.9580    1.4330 C   0  0  0  0  0  0  0  0  0  0  0  0
   -7.2070   13.6210   -0.4620 O   0  0  0  0  0  0  0  0  0  0  0  0
   -0.3520   14.5090    1.1310 C   0  0  0  0  0  0  0  0  0  0  0  0
   -7.9110   14.2400    0.5000 C   0  0  0  0  0  0  0  0  0  0  0  0
   -9.1380   14.2550    0.6030 O   0  0  0  0  0  0  0  0  0  0  0  0
  2  1  1  1
  2  3  1  0
  2  4  1  0
  4  5  2  0
  3  6  1  0
  5  6  1  0
  4  7  1  0
  3  8  1  1
  3  9  1  0
  7 10  2  0
  5 11  1  0
  8 12  2  0
  9 13  1  0
 10 14  1  0
 11 14  2  0
 12 15  1  0
 13 15  1  0
 15 16  2  0
M  END
