mac-x0321-diamond-x0910_0_A
     RDKit          3D

 15 16  0  0  0  0  0  0  0  0999 V2000
   -4.9220   15.2150    1.7310 Cl  0  0  0  0  0  0  0  0  0  0  0  0
   -4.7700   15.1670    0.0290 C   0  0  0  0  0  0  0  0  0  0  0  0
   -3.5420   14.8510   -0.4670 C   0  0  0  0  0  0  0  0  0  0  0  0
   -5.8300   15.4290   -0.8260 C   0  0  0  0  0  0  0  0  0  0  0  0
   -3.2970   14.7810   -1.8340 C   0  0  0  0  0  0  0  0  0  0  0  0
   -5.6240   15.3700   -2.2030 C   0  0  0  0  0  0  0  0  0  0  0  0
   -1.8920   14.4260   -2.2410 C   0  0  0  0  0  0  0  0  0  0  0  0
   -4.3590   15.0480   -2.7140 C   0  0  0  0  0  0  0  0  0  0  0  0
   -1.7310   13.0720   -2.5880 O   0  0  0  0  0  0  0  0  0  0  0  0
   -1.4590   15.1980   -3.3600 O   0  0  0  0  0  0  0  0  0  0  0  0
   -1.2050   14.7090   -0.9010 C   0  0  0  0  0  0  0  0  0  0  0  0
   -1.8660   14.6510    0.2800 N   0  0  0  0  0  0  0  0  0  0  0  0
    0.1120   15.0420   -0.7880 N   0  0  0  0  0  0  0  0  0  0  0  0
   -0.9130   14.9760    1.1520 N   0  0  0  0  0  0  0  0  0  0  0  0
    0.2500   15.2120    0.5120 C   0  0  0  0  0  0  0  0  0  0  0  0
  1  2  1  0
  2  3  2  0
  2  4  1  0
  3  5  1  0
  4  6  2  0
  5  7  1  0
  5  8  2  0
  6  8  1  0
  7  9  1  0
  7 10  1  0
  7 11  1  0
 11 12  2  0
 11 13  1  0
 12 14  1  0
 13 15  2  0
 14 15  1  0
M  END
