mac-x0415-mac-x0159
     RDKit          3D

 26 29  0  0  0  0  0  0  0  0999 V2000
    0.0700   11.3340   -3.1940 O   0  0  0  0  0  0  0  0  0  0  0  0
    0.9080   12.3950   -3.0970 C   0  0  0  0  0  0  0  0  0  0  0  0
    1.3840   12.7420   -2.0370 O   0  0  0  0  0  0  0  0  0  0  0  0
    1.1850   13.1040   -4.4150 C   0  0  0  0  0  0  0  0  0  0  0  0
    0.7830   14.5480   -4.3790 C   0  0  0  0  0  0  0  0  0  0  0  0
    1.7410   15.6220   -4.3680 C   0  0  0  0  0  0  0  0  0  0  0  0
   -0.3380   15.2750   -4.3540 C   0  0  0  0  0  0  0  0  0  0  0  0
    1.3100   16.8570   -4.3750 N   0  0  0  0  0  0  0  0  0  0  0  0
   -0.1300   16.7480   -4.3630 C   0  0  1  0  0  0  0  0  0  0  0  0
   -1.6800   14.8610   -4.3420 C   0  0  0  0  0  0  0  0  0  0  0  0
   -1.9770   13.7630   -3.3880 C   0  0  0  0  0  0  0  0  0  0  0  0
   -0.8980   17.3230   -5.5330 C   0  0  0  0  0  0  0  0  0  0  0  0
   -2.5210   15.5150   -5.1650 C   0  0  0  0  0  0  0  0  0  0  0  0
   -4.3030   15.0400   -5.4450 Br  0  0  0  0  0  0  0  0  0  0  0  0
   -0.3840   18.5330   -6.2580 C   0  0  0  0  0  0  0  0  0  0  0  0
   -2.0520   16.6980   -5.8930 C   0  0  0  0  0  0  0  0  0  0  0  0
   -2.2510   14.4300   -2.0900 N   0  0  0  0  0  0  0  0  0  0  0  0
   -3.4480   15.2610   -2.0340 C   0  0  0  0  0  0  0  0  0  0  0  0
   -1.5680   14.2250   -0.8150 C   0  0  2  0  0  0  0  0  0  0  0  0
   -4.3180   14.8480   -0.9450 N   0  0  0  0  0  0  0  0  0  0  0  0
   -2.1820   15.1180    0.2460 C   0  0  1  0  0  0  0  0  0  0  0  0
   -0.2230   14.7470   -0.6840 N   0  0  0  0  0  0  0  0  0  0  0  0
   -3.6620   14.7220    0.3400 C   0  0  1  0  0  0  0  0  0  0  0  0
   -1.3210   14.8680    1.4000 N   0  0  0  0  0  0  0  0  0  0  0  0
   -0.0190   14.6750    0.7630 C   0  0  0  0  0  0  0  0  0  0  0  0
   -4.4770   15.4960    1.2710 N   0  0  0  0  0  0  0  0  0  0  0  0
  1  2  1  0
  2  3  2  0
  2  4  1  0
  4  5  1  0
  5  6  1  0
  5  7  2  0
  6  8  2  0
  7  9  1  0
  9  8  1  6
  7 10  1  0
 10 11  1  0
  9 12  1  0
 10 13  2  0
 13 14  1  0
 12 15  1  0
 12 16  2  0
 13 16  1  0
 11 17  1  0
 17 18  1  0
 17 19  1  0
 18 20  1  0
 19 21  1  0
 19 22  1  6
 20 23  1  0
 21 23  1  0
 21 24  1  1
 22 25  1  0
 24 25  1  0
 23 26  1  1
M  END
