mac-x0396-diamond-x0253_0_A
     RDKit          3D

 26 27  0  0  0  0  0  0  0  0999 V2000
   -3.4570   15.1700    1.6960 N   0  0  0  0  0  0  0  0  0  0  0  0
   -3.7730   14.9040    0.3980 C   0  0  0  0  0  0  0  0  0  0  0  0
   -2.7720   14.7180   -0.3660 N   0  0  0  0  0  0  0  0  0  0  0  0
   -5.2060   14.8550    0.0840 C   0  0  0  0  0  0  0  0  0  0  0  0
   -1.4610   14.7950    0.2780 C   0  0  0  0  0  0  0  0  0  0  0  0
   -5.7100   15.0350   -1.1890 C   0  0  0  0  0  0  0  0  0  0  0  0
   -6.0850   14.6090    1.1290 C   0  0  0  0  0  0  0  0  0  0  0  0
   -0.3580   14.8060   -0.7490 C   0  0  0  0  0  0  0  0  0  0  0  0
   -7.0420   14.9740   -1.4560 N   0  0  0  0  0  0  0  0  0  0  0  0
   -7.4440   14.5440    0.8840 C   0  0  0  0  0  0  0  0  0  0  0  0
    0.2140   13.4210   -0.9280 C   0  0  0  0  0  0  0  0  0  0  0  0
   -7.8730   14.7320   -0.4150 C   0  0  0  0  0  0  0  0  0  0  0  0
    0.8300   13.4010   -2.2420 N   0  0  0  0  0  0  0  0  0  0  0  0
    0.7510   12.3730   -2.9890 C   0  0  0  0  0  0  0  0  0  0  0  0
    0.1400   11.2130   -2.6620 O   0  0  0  0  0  0  0  0  0  0  0  0
    1.3690   12.4460   -4.3570 C   0  0  0  0  0  0  0  0  0  0  0  0
    0.4860   11.9110   -5.3800 N   0  0  0  0  0  0  0  0  0  0  0  0
    1.1020   11.6960   -6.5730 C   0  0  0  0  0  0  0  0  0  0  0  0
    2.1800   12.2250   -6.7270 O   0  0  0  0  0  0  0  0  0  0  0  0
    0.4810   10.7960   -7.5940 C   0  0  0  0  0  0  0  0  0  0  0  0
   -0.5030    9.8980   -7.1600 C   0  0  0  0  0  0  0  0  0  0  0  0
    0.8400   10.8060   -8.9510 C   0  0  0  0  0  0  0  0  0  0  0  0
   -1.1190    9.0240   -8.0620 C   0  0  0  0  0  0  0  0  0  0  0  0
    0.2320    9.9400   -9.8510 C   0  0  0  0  0  0  0  0  0  0  0  0
   -2.1710    8.0640   -7.5890 C   0  0  0  0  0  0  0  0  0  0  0  0
   -0.7460    9.0520   -9.4110 C   0  0  0  0  0  0  0  0  0  0  0  0
  1  2  1  0
  2  3  2  3
  2  4  1  0
  3  5  1  0
  4  6  2  0
  4  7  1  0
  5  8  1  0
  6  9  1  0
  7 10  2  0
  8 11  1  0
  9 12  2  0
 10 12  1  0
 11 13  1  0
 13 14  2  3
 14 15  1  0
 14 16  1  0
 16 17  1  0
 17 18  1  0
 18 19  2  0
 18 20  1  0
 20 21  2  0
 20 22  1  0
 21 23  1  0
 22 24  2  0
 23 25  1  0
 23 26  2  0
 24 26  1  0
M  END
