mac-x0179-mac-x0283
     RDKit          3D

 28 31  0  0  0  0  0  0  0  0999 V2000
    1.5660   12.8860   -2.2600 O   0  0  0  0  0  0  0  0  0  0  0  0
    0.9740   12.1260   -3.2020 C   0  0  0  0  0  0  0  0  0  0  0  0
    0.6690   10.9750   -2.9440 O   0  0  0  0  0  0  0  0  0  0  0  0
    0.7750   12.8760   -4.5080 C   0  0  0  0  0  0  0  0  0  0  0  0
    0.0320   12.0410   -5.4310 N   0  0  0  0  0  0  0  0  0  0  0  0
    0.7080   11.5180   -6.5010 C   0  0  0  0  0  0  0  0  0  0  0  0
   -1.1520   11.3830   -5.2370 C   0  0  0  0  0  0  0  0  0  0  0  0
    1.7790   11.8510   -6.9320 O   0  0  0  0  0  0  0  0  0  0  0  0
   -2.1020   11.5350   -4.3950 N   0  0  0  0  0  0  0  0  0  0  0  0
   -0.0840   10.4230   -7.0410 C   0  0  0  0  0  0  0  0  0  0  0  0
   -1.2220   10.3300   -6.2660 C   0  0  0  0  0  0  0  0  0  0  0  0
   -2.2150   12.5150   -3.3280 C   0  0  0  0  0  0  0  0  0  0  0  0
    0.1600    9.5760   -8.1070 C   0  0  0  0  0  0  0  0  0  0  0  0
   -2.1850    9.3710   -6.5200 C   0  0  0  0  0  0  0  0  0  0  0  0
   -2.7570   13.8600   -3.8400 C   0  0  0  0  0  0  0  0  0  0  0  0
   -0.8010    8.6010   -8.3810 C   0  0  0  0  0  0  0  0  0  0  0  0
   -1.9670    8.4980   -7.5920 C   0  0  0  0  0  0  0  0  0  0  0  0
   -2.6460   15.0430   -2.8560 C   0  0  0  0  0  0  0  0  0  0  0  0
   -3.6110   14.9880   -1.6900 C   0  0  0  0  0  0  0  0  0  0  0  0
   -4.9800   14.9360   -1.9690 C   0  0  0  0  0  0  0  0  0  0  0  0
   -3.1640   14.9820   -0.3500 C   0  0  0  0  0  0  0  0  0  0  0  0
   -5.8420   14.8650   -0.8870 C   0  0  0  0  0  0  0  0  0  0  0  0
   -4.0670   14.9150    0.7250 C   0  0  0  0  0  0  0  0  0  0  0  0
   -7.1950   14.7980   -0.9580 O   0  0  0  0  0  0  0  0  0  0  0  0
   -5.4440   14.8490    0.4360 C   0  0  0  0  0  0  0  0  0  0  0  0
   -6.6770   14.7610    1.1430 C   0  0  0  0  0  0  0  0  0  0  0  0
   -7.7250   14.7290    0.3160 N   0  0  0  0  0  0  0  0  0  0  0  0
   -6.7880   14.7200    2.4830 N   0  0  0  0  0  0  0  0  0  0  0  0
  1  2  1  0
  2  3  2  0
  2  4  1  0
  4  5  1  0
  5  6  1  0
  5  7  1  0
  6  8  2  0
  7  9  2  3
  6 10  1  0
  7 11  1  0
 10 11  2  0
  9 12  1  0
 10 13  1  0
 11 14  1  0
 12 15  1  0
 13 16  2  0
 14 17  2  0
 16 17  1  0
 15 18  1  0
 18 19  1  0
 19 20  2  0
 19 21  1  0
 20 22  1  0
 21 23  2  0
 22 24  1  0
 22 25  2  0
 23 25  1  0
 25 26  1  0
 24 27  1  0
 26 27  2  0
 26 28  1  0
M  END
