mac-x0213-diamond-x0962_1_A
     RDKit          3D

 20 22  0  0  0  0  0  0  0  0999 V2000
   -0.0530   11.6020   -2.9920 O   0  0  0  0  0  0  0  0  0  0  0  0
    0.2830   12.8850   -2.7460 C   0  0  0  0  0  0  0  0  0  0  0  0
    0.8800   13.1870   -1.7300 O   0  0  0  0  0  0  0  0  0  0  0  0
   -0.1120   13.9110   -3.7860 C   0  0  1  0  0  0  0  0  0  0  0  0
   -1.3650   14.7290   -3.3680 C   0  0  2  0  0  0  0  0  0  0  0  0
    0.9690   14.9970   -4.0000 C   0  0  0  0  0  0  0  0  0  0  0  0
   -2.7200   14.0150   -3.3770 C   0  0  0  0  0  0  0  0  0  0  0  0
   -1.2150   15.8830   -4.3190 C   0  0  0  0  0  0  0  0  0  0  0  0
    0.1290   16.0490   -4.6590 C   0  0  0  0  0  0  0  0  0  0  0  0
   -3.5970   14.3930   -2.2270 C   0  0  0  0  0  0  0  0  0  0  0  0
   -2.1830   16.7240   -4.8320 C   0  0  0  0  0  0  0  0  0  0  0  0
    0.5310   17.0730   -5.5010 C   0  0  0  0  0  0  0  0  0  0  0  0
   -4.3810   14.5790   -1.3190 C   0  0  0  0  0  0  0  0  0  0  0  0
   -1.7940   17.7570   -5.6840 C   0  0  0  0  0  0  0  0  0  0  0  0
   -0.4420   17.9330   -6.0130 C   0  0  0  0  0  0  0  0  0  0  0  0
   -5.3770   14.6220   -0.2980 C   0  0  0  0  0  0  0  0  0  0  0  0
   -5.1620   14.7180    1.0470 N   0  0  0  0  0  0  0  0  0  0  0  0
   -6.7460   14.5680   -0.4350 C   0  0  0  0  0  0  0  0  0  0  0  0
   -6.3900   14.7080    1.6630 C   0  0  0  0  0  0  0  0  0  0  0  0
   -7.3690   14.6210    0.7890 N   0  0  0  0  0  0  0  0  0  0  0  0
  1  2  1  0
  2  3  2  0
  4  2  1  1
  4  5  1  0
  4  6  1  0
  5  7  1  6
  5  8  1  0
  6  9  1  0
  8  9  2  0
  7 10  1  0
  8 11  1  0
  9 12  1  0
 10 13  3  0
 11 14  2  0
 12 15  2  0
 14 15  1  0
 13 16  1  0
 16 17  1  0
 16 18  2  0
 17 19  1  0
 18 20  1  0
 19 20  2  0
M  END
