mac-x0397-mac-x0381
     RDKit          3D

 23 26  0  0  0  0  0  0  0  0999 V2000
   -6.7510   15.2570   -2.1640 Cl  0  0  0  0  0  0  0  0  0  0  0  0
   -5.2070   15.0840   -1.4640 C   0  0  0  0  0  0  0  0  0  0  0  0
   -5.1810   14.8960   -0.0640 C   0  0  0  0  0  0  0  0  0  0  0  0
   -4.0460   15.1240   -2.2360 C   0  0  0  0  0  0  0  0  0  0  0  0
   -6.2630   14.8220    0.8310 N   0  0  0  0  0  0  0  0  0  0  0  0
   -3.9210   14.7600    0.5190 C   0  0  0  0  0  0  0  0  0  0  0  0
   -2.8140   14.9760   -1.6190 C   0  0  0  0  0  0  0  0  0  0  0  0
   -5.8500   14.6340    2.0730 C   0  0  0  0  0  0  0  0  0  0  0  0
   -4.1210   14.5540    2.2100 S   0  0  0  0  0  0  0  0  0  0  0  0
   -2.7300   14.7940   -0.2340 C   0  0  0  0  0  0  0  0  0  0  0  0
   -6.5440   14.4720    3.2620 N   0  0  0  0  0  0  0  0  0  0  0  0
   -7.8160   14.5910    3.6920 C   0  0  0  0  0  0  0  0  0  0  0  0
   -7.9170   14.2380    5.0080 N   0  0  0  0  0  0  0  0  0  0  0  0
   -9.1650   14.9900    3.1200 C   0  0  0  0  0  0  0  0  0  0  0  0
   -9.3290   15.8040    2.0110 C   0  0  0  0  0  0  0  0  0  0  0  0
  -10.3150   14.5020    3.7680 C   0  0  0  0  0  0  0  0  0  0  0  0
  -10.5890   16.1500    1.5200 C   0  0  0  0  0  0  0  0  0  0  0  0
  -11.5900   14.8280    3.2850 C   0  0  0  0  0  0  0  0  0  0  0  0
  -11.7410   15.6490    2.1550 C   0  0  0  0  0  0  0  0  0  0  0  0
  -10.7230   16.9860    0.4030 C   0  0  0  0  0  0  0  0  0  0  0  0
  -12.9980   15.9870    1.6320 C   0  0  0  0  0  0  0  0  0  0  0  0
  -11.9790   17.3230   -0.0930 C   0  0  0  0  0  0  0  0  0  0  0  0
  -13.1220   16.8180    0.5200 C   0  0  0  0  0  0  0  0  0  0  0  0
  1  2  1  0
  2  3  2  0
  2  4  1  0
  3  5  1  0
  3  6  1  0
  4  7  2  0
  5  8  2  0
  6  9  1  0
  8  9  1  0
  6 10  2  0
  7 10  1  0
  8 11  1  0
 11 12  2  3
 12 13  1  0
 12 14  1  0
 14 15  2  0
 14 16  1  0
 15 17  1  0
 16 18  2  0
 17 19  2  0
 18 19  1  0
 17 20  1  0
 19 21  1  0
 20 22  2  0
 21 23  2  0
 22 23  1  0
M  END
