mac-x0283-diamond-x0910_1_A
     RDKit          3D

 10 11  0  0  0  0  0  0  0  0999 V2000
   -6.8930   14.6010    2.4550 N   0  0  0  0  0  0  0  0  0  0  0  0
   -6.7250   14.7250    1.1290 C   0  0  0  0  0  0  0  0  0  0  0  0
   -7.7300   14.7220    0.2540 N   0  0  0  0  0  0  0  0  0  0  0  0
   -5.4670   14.8820    0.4880 C   0  0  0  0  0  0  0  0  0  0  0  0
   -7.1460   14.8830   -0.9890 O   0  0  0  0  0  0  0  0  0  0  0  0
   -5.7980   14.9770   -0.8520 C   0  0  0  0  0  0  0  0  0  0  0  0
   -4.1090   14.9570    0.8530 C   0  0  0  0  0  0  0  0  0  0  0  0
   -4.8790   15.1430   -1.8800 C   0  0  0  0  0  0  0  0  0  0  0  0
   -3.1570   15.1180   -0.1580 C   0  0  0  0  0  0  0  0  0  0  0  0
   -3.5370   15.2100   -1.4990 C   0  0  0  0  0  0  0  0  0  0  0  0
  1  2  1  0
  2  3  2  0
  2  4  1  0
  3  5  1  0
  4  6  2  0
  5  6  1  0
  4  7  1  0
  6  8  1  0
  7  9  2  0
  8 10  2  0
  9 10  1  0
M  END
