mac-x0321-mac-x0124
     RDKit          3D

 18 20  0  0  0  0  0  0  0  0999 V2000
   -3.9870   14.9090    0.8570 C   0  0  0  0  0  0  0  0  0  0  0  0
   -4.5550   14.8800   -0.5210 C   0  0  0  0  0  0  0  0  0  0  0  0
   -3.7170   14.3110   -1.4770 C   0  0  0  0  0  0  0  0  0  0  0  0
   -2.4800   14.7110    0.6380 C   0  0  1  0  0  0  0  0  0  0  0  0
   -5.7960   15.3630   -0.9170 C   0  0  0  0  0  0  0  0  0  0  0  0
   -1.9260   15.5690   -0.4840 C   0  0  2  0  0  0  0  0  0  0  0  0
   -1.5500   14.8580    1.7380 N   0  0  0  0  0  0  0  0  0  0  0  0
   -4.0870   14.2310   -2.8000 C   0  0  0  0  0  0  0  0  0  0  0  0
   -6.1810   15.2810   -2.2520 C   0  0  0  0  0  0  0  0  0  0  0  0
   -2.6150   15.8700   -1.7830 C   0  0  0  0  0  0  0  0  0  0  0  0
   -0.6730   14.8090   -0.9270 C   0  0  1  0  0  0  0  0  0  0  0  0
   -0.2430   14.3290    1.3950 C   0  0  0  0  0  0  0  0  0  0  0  0
   -3.1480   13.6260   -3.7620 C   0  0  0  0  0  0  0  0  0  0  0  0
   -5.3250   14.7160   -3.2030 C   0  0  0  0  0  0  0  0  0  0  0  0
   -0.4850   15.2960   -2.2910 N   0  0  0  0  0  0  0  0  0  0  0  0
   -1.7270   15.6940   -2.7650 C   0  0  0  0  0  0  0  0  0  0  0  0
    0.2920   14.8880    0.1460 N   0  0  0  0  0  0  0  0  0  0  0  0
   -2.5500   14.2800   -4.6090 O   0  0  0  0  0  0  0  0  0  0  0  0
  1  2  1  0
  2  3  2  0
  4  1  1  1
  2  5  1  0
  4  6  1  0
  4  7  1  0
  3  8  1  0
  5  9  2  0
  6 10  1  6
  6 11  1  0
  7 12  1  0
  8 13  1  0
  8 14  2  0
  9 14  1  0
 11 15  1  6
 10 16  2  0
 15 16  1  0
 11 17  1  0
 12 17  1  0
 13 18  2  0
M  END
