mac-x0546-mac-x0213
     RDKit          3D

 15 16  0  0  0  0  0  0  0  0999 V2000
   -4.3660   15.3670   -6.0880 C   0  0  0  0  0  0  0  0  0  0  0  0
   -3.4350   16.4460   -6.0720 O   0  0  0  0  0  0  0  0  0  0  0  0
   -2.2810   16.2500   -5.3700 C   0  0  0  0  0  0  0  0  0  0  0  0
   -1.8120   15.0640   -4.9190 C   0  0  0  0  0  0  0  0  0  0  0  0
   -1.5400   17.4870   -5.1270 C   0  0  0  0  0  0  0  0  0  0  0  0
   -0.5430   15.0270   -4.1430 C   0  0  2  0  0  0  0  0  0  0  0  0
   -0.2500   17.5040   -4.7430 C   0  0  0  0  0  0  0  0  0  0  0  0
    0.3420   16.1680   -4.5950 C   0  0  0  0  0  0  0  0  0  0  0  0
    0.4900   13.9390   -4.2700 C   0  0  0  0  0  0  0  0  0  0  0  0
    0.1770   12.4890   -4.0180 C   0  0  0  0  0  0  0  0  0  0  0  0
    1.5680   15.8640   -4.8070 N   0  0  0  0  0  0  0  0  0  0  0  0
    1.6420   14.5100   -4.6150 C   0  0  0  0  0  0  0  0  0  0  0  0
    0.2490   11.9360   -2.5890 C   0  0  0  0  0  0  0  0  0  0  0  0
    0.4540   12.5210   -1.5370 O   0  0  0  0  0  0  0  0  0  0  0  0
    0.0390   10.5930   -2.5540 O   0  0  0  0  0  0  0  0  0  0  0  0
  1  2  1  0
  2  3  1  0
  3  4  2  0
  3  5  1  0
  6  4  1  6
  5  7  2  0
  6  8  1  0
  7  8  1  0
  6  9  1  0
  9 10  1  0
  8 11  2  0
  9 12  2  0
 11 12  1  0
 10 13  1  0
 13 14  2  0
 13 15  1  0
M  END
