mac-x0411-diamond-x0371_0_A
     RDKit          3D

 33 36  0  0  0  0  0  0  0  0999 V2000
    0.4070    8.7100   -7.3740 Cl  0  0  0  0  0  0  0  0  0  0  0  0
   -0.7770    9.7570   -6.6650 C   0  0  0  0  0  0  0  0  0  0  0  0
   -0.5590   11.1170   -6.2710 C   0  0  0  0  0  0  0  0  0  0  0  0
   -2.0200    9.1690   -6.5100 C   0  0  0  0  0  0  0  0  0  0  0  0
    0.6830   11.7060   -6.4080 O   0  0  0  0  0  0  0  0  0  0  0  0
   -1.6430   11.9080   -5.7410 C   0  0  0  0  0  0  0  0  0  0  0  0
   -3.0640    9.9050   -5.9880 C   0  0  0  0  0  0  0  0  0  0  0  0
   -1.4680   13.4220   -5.3670 C   0  0  0  0  0  0  0  0  0  0  0  0
    1.1490   12.5690   -5.3520 C   0  0  0  0  0  0  0  0  0  0  0  0
   -2.8790   11.2480   -5.6190 C   0  0  0  0  0  0  0  0  0  0  0  0
    0.9330   11.9830   -3.9610 C   0  0  0  0  0  0  0  0  0  0  0  0
   -1.4530   14.2080   -3.9950 C   0  0  0  0  0  0  0  0  0  0  0  0
    1.4040   12.7830   -2.9850 O   0  0  0  0  0  0  0  0  0  0  0  0
    0.4180   10.9140   -3.6780 O   0  0  0  0  0  0  0  0  0  0  0  0
   -2.7350   15.0430   -3.6070 C   0  0  0  0  0  0  0  0  0  0  0  0
   -3.4370   14.9350   -2.2330 C   0  0  0  0  0  0  0  0  0  0  0  0
   -2.7140   14.9230   -1.0180 C   0  0  0  0  0  0  0  0  0  0  0  0
   -4.8440   14.8380   -2.1600 C   0  0  0  0  0  0  0  0  0  0  0  0
   -5.4820   14.7150   -0.9100 C   0  0  0  0  0  0  0  0  0  0  0  0
   -3.3370   14.8080    0.2440 C   0  0  0  0  0  0  0  0  0  0  0  0
   -6.8220   14.5940   -0.6170 N   0  0  0  0  0  0  0  0  0  0  0  0
   -4.7260   14.6980    0.2470 C   0  0  0  0  0  0  0  0  0  0  0  0
   -5.6420   14.5510    1.2600 N   0  0  0  0  0  0  0  0  0  0  0  0
   -6.8950   14.4870    0.6980 C   0  0  0  0  0  0  0  0  0  0  0  0
   -8.1350   14.3130    1.5060 C   0  0  0  0  0  0  0  0  0  0  0  0
   -7.8670   14.6700    2.8740 N   0  0  0  0  0  0  0  0  0  0  0  0
   -8.6130   15.5190    3.6500 C   0  0  0  0  0  0  0  0  0  0  0  0
   -9.3630   16.3050    3.0690 O   0  0  0  0  0  0  0  0  0  0  0  0
   -8.5310   15.4820    5.0910 C   0  0  0  0  0  0  0  0  0  0  0  0
   -7.9840   14.4160    5.7440 O   0  0  0  0  0  0  0  0  0  0  0  0
   -8.9490   16.4170    6.0180 C   0  0  0  0  0  0  0  0  0  0  0  0
   -8.6350   15.8910    7.2950 C   0  0  0  0  0  0  0  0  0  0  0  0
   -8.0470   14.6730    7.0700 C   0  0  0  0  0  0  0  0  0  0  0  0
  1  2  1  0
  2  3  2  0
  2  4  1  0
  3  5  1  0
  3  6  1  0
  4  7  2  0
  6  8  1  0
  5  9  1  0
  6 10  2  0
  7 10  1  0
  9 11  1  0
  8 12  1  0
 11 13  1  0
 11 14  2  0
 12 15  1  0
 15 16  1  0
 16 17  2  0
 16 18  1  0
 18 19  2  0
 17 20  1  0
 19 21  1  0
 19 22  1  0
 20 22  2  0
 22 23  1  0
 21 24  2  0
 23 24  1  0
 24 25  1  0
 25 26  1  0
 26 27  1  0
 27 28  2  0
 27 29  1  0
 29 30  1  0
 29 31  2  0
 31 32  1  0
 30 33  1  0
 32 33  2  0
M  END
