mac-x0381-mac-x0132
     RDKit          3D

 26 29  0  0  0  0  0  0  0  0999 V2000
   -8.0760   13.2300    4.2310 N   0  0  0  0  0  0  0  0  0  0  0  0
   -8.1230   14.5340    3.8210 C   0  0  0  0  0  0  0  0  0  0  0  0
   -7.1040   15.3120    3.7520 N   0  0  0  0  0  0  0  0  0  0  0  0
   -9.4440   15.1240    3.4070 C   0  0  0  0  0  0  0  0  0  0  0  0
   -5.7810   14.8180    4.1340 C   0  0  0  0  0  0  0  0  0  0  0  0
   -9.5590   15.8910    2.2440 C   0  0  0  0  0  0  0  0  0  0  0  0
  -10.5790   14.8980    4.1950 C   0  0  0  0  0  0  0  0  0  0  0  0
   -4.9780   14.2480    2.9560 C   0  0  0  0  0  0  0  0  0  0  0  0
  -10.7900   16.4350    1.8540 C   0  0  0  0  0  0  0  0  0  0  0  0
  -11.8120   15.4330    3.8180 C   0  0  0  0  0  0  0  0  0  0  0  0
   -4.7480   15.2470    1.9720 N   0  0  0  0  0  0  0  0  0  0  0  0
  -11.9350   16.1990    2.6530 C   0  0  0  0  0  0  0  0  0  0  0  0
  -10.9180   17.2090    0.6880 C   0  0  0  0  0  0  0  0  0  0  0  0
  -13.1660   16.7350    2.2650 C   0  0  0  0  0  0  0  0  0  0  0  0
  -12.1540   17.7370    0.3170 C   0  0  0  0  0  0  0  0  0  0  0  0
   -5.5980   15.0030    0.9200 C   0  0  0  0  0  0  0  0  0  0  0  0
  -13.2800   17.4990    1.1050 C   0  0  0  0  0  0  0  0  0  0  0  0
   -5.0880   15.0320   -0.3700 C   0  0  0  0  0  0  0  0  0  0  0  0
   -6.8830   14.7510    1.2040 N   0  0  0  0  0  0  0  0  0  0  0  0
   -6.0230   14.7940   -1.3730 C   0  0  0  0  0  0  0  0  0  0  0  0
   -7.6760   14.5370    0.1640 C   0  0  0  0  0  0  0  0  0  0  0  0
   -3.7390   15.2760   -0.6990 C   0  0  0  0  0  0  0  0  0  0  0  0
   -7.3120   14.5500   -1.1190 N   0  0  0  0  0  0  0  0  0  0  0  0
   -5.5890   14.8120   -2.6870 C   0  0  0  0  0  0  0  0  0  0  0  0
   -3.3280   15.2780   -2.0250 C   0  0  0  0  0  0  0  0  0  0  0  0
   -4.2580   15.0490   -3.0250 C   0  0  0  0  0  0  0  0  0  0  0  0
  1  2  1  0
  2  3  2  3
  2  4  1  0
  3  5  1  0
  4  6  2  0
  4  7  1  0
  5  8  1  0
  6  9  1  0
  7 10  2  0
  8 11  1  0
  9 12  2  0
 10 12  1  0
  9 13  1  0
 12 14  1  0
 13 15  2  0
 11 16  1  0
 14 17  2  0
 15 17  1  0
 16 18  1  0
 16 19  2  0
 18 20  2  0
 19 21  1  0
 18 22  1  0
 20 23  1  0
 21 23  2  0
 20 24  1  0
 22 25  2  0
 24 26  2  0
 25 26  1  0
M  END
