mac-x0341-mac-x0137
     RDKit          3D

 23 26  0  0  0  0  0  0  0  0999 V2000
   -6.8200   14.7970    2.5640 N   0  0  0  0  0  0  0  0  0  0  0  0
   -6.0850   14.7990    1.4230 C   0  0  0  0  0  0  0  0  0  0  0  0
   -4.7860   14.9110    1.4510 N   0  0  0  0  0  0  0  0  0  0  0  0
   -6.7840   14.6900    0.2620 N   0  0  0  0  0  0  0  0  0  0  0  0
   -6.2360   15.0610   -0.9240 C   0  0  0  0  0  0  0  0  0  0  0  0
   -4.0620   14.8770    0.2350 C   0  0  0  0  0  0  0  0  0  0  0  0
   -6.8910   15.4290   -1.8880 O   0  0  0  0  0  0  0  0  0  0  0  0
   -4.7860   14.9570   -0.9740 C   0  0  0  0  0  0  0  0  0  0  0  0
   -2.6380   14.7510    0.1960 C   0  0  0  0  0  0  0  0  0  0  0  0
   -2.0590   14.7040   -1.0950 C   0  0  0  0  0  0  0  0  0  0  0  0
   -4.1890   14.9270   -2.2030 C   0  0  0  0  0  0  0  0  0  0  0  0
   -1.8340   14.6680    1.3080 N   0  0  0  0  0  0  0  0  0  0  0  0
   -2.8400   14.8000   -2.2550 C   0  0  0  0  0  0  0  0  0  0  0  0
   -0.5140   14.5450    1.0830 C   0  0  0  0  0  0  0  0  0  0  0  0
   -0.6860   14.5580   -1.1990 C   0  0  0  0  0  0  0  0  0  0  0  0
   -0.0900   14.4790   -2.4990 N   0  0  0  0  0  0  0  0  0  0  0  0
    0.0940   14.4840   -0.1170 N   0  0  0  0  0  0  0  0  0  0  0  0
   -0.9780   14.7190   -3.6710 C   0  0  0  0  0  0  0  0  0  0  0  0
    0.8250   13.3240   -2.6210 C   0  0  0  0  0  0  0  0  0  0  0  0
   -1.4740   13.4720   -4.4510 C   0  0  2  0  0  0  0  0  0  0  0  0
    0.1260   12.0630   -3.1340 C   0  0  0  0  0  0  0  0  0  0  0  0
   -2.6040   12.9910   -3.8360 F   0  0  0  0  0  0  0  0  0  0  0  0
   -0.4770   12.3140   -4.5070 C   0  0  0  0  0  0  0  0  0  0  0  0
  1  2  1  0
  2  3  2  0
  2  4  1  0
  4  5  1  0
  3  6  1  0
  5  7  2  0
  5  8  1  0
  6  8  2  0
  6  9  1  0
  9 10  2  0
  8 11  1  0
  9 12  1  0
 10 13  1  0
 11 13  2  0
 12 14  2  0
 10 15  1  0
 15 16  1  0
 14 17  1  0
 15 17  2  0
 16 18  1  0
 16 19  1  0
 18 20  1  0
 19 21  1  0
 20 22  1  1
 20 23  1  0
 21 23  1  0
M  END
