mac-x0306-mac-x0357
     RDKit          3D

 23 25  0  0  0  0  0  0  0  0999 V2000
    2.4020   13.1840   -4.5430 C   0  0  0  0  0  0  0  0  0  0  0  0
    1.0760   12.5330   -4.8250 C   0  0  0  0  0  0  0  0  0  0  0  0
    0.8560   11.8630   -6.0350 C   0  0  0  0  0  0  0  0  0  0  0  0
    0.0070   12.5550   -3.9080 C   0  0  0  0  0  0  0  0  0  0  0  0
    1.8060   11.7620   -6.9940 O   0  0  0  0  0  0  0  0  0  0  0  0
    0.0990   13.2300   -2.5950 C   0  0  0  0  0  0  0  0  0  0  0  0
   -1.2170   11.9280   -4.2040 C   0  0  0  0  0  0  0  0  0  0  0  0
   -0.3520   11.2410   -6.3340 C   0  0  0  0  0  0  0  0  0  0  0  0
   -0.6750   14.0830   -2.0320 N   0  0  0  0  0  0  0  0  0  0  0  0
    1.2050   12.8420   -1.9240 O   0  0  0  0  0  0  0  0  0  0  0  0
   -1.3940   11.2710   -5.4180 C   0  0  0  0  0  0  0  0  0  0  0  0
   -1.8970   14.5390   -2.6910 C   0  0  0  0  0  0  0  0  0  0  0  0
   -3.0340   14.9660   -1.8460 N   0  0  0  0  0  0  0  0  0  0  0  0
   -4.2530   15.3380   -2.3980 C   0  0  0  0  0  0  0  0  0  0  0  0
   -2.9780   14.9570   -0.4490 C   0  0  0  0  0  0  0  0  0  0  0  0
   -5.4130   15.1210   -1.7600 C   0  0  0  0  0  0  0  0  0  0  0  0
   -4.0670   14.7180    0.2980 C   0  0  0  0  0  0  0  0  0  0  0  0
   -5.3820   14.4300   -0.4070 C   0  0  0  0  0  0  0  0  0  0  0  0
   -6.6360   14.5810    0.4190 C   0  0  0  0  0  0  0  0  0  0  0  0
   -6.6490   14.5020    1.7990 N   0  0  0  0  0  0  0  0  0  0  0  0
   -7.8590   14.7870   -0.0340 N   0  0  0  0  0  0  0  0  0  0  0  0
   -8.6650   14.8430    1.0710 C   0  0  0  0  0  0  0  0  0  0  0  0
   -7.9330   14.6690    2.2190 C   0  0  0  0  0  0  0  0  0  0  0  0
  1  2  1  0
  2  3  2  0
  2  4  1  0
  3  5  1  0
  4  6  1  0
  4  7  2  0
  3  8  1  0
  6  9  2  3
  6 10  1  0
  7 11  1  0
  8 11  2  0
  9 12  1  0
 12 13  1  0
 13 14  1  0
 13 15  1  0
 14 16  2  0
 15 17  2  0
 16 18  1  0
 17 18  1  0
 18 19  1  0
 19 20  1  0
 19 21  2  0
 21 22  1  0
 20 23  1  0
 22 23  2  0
M  END
