mac-x0394-mac-x0271
     RDKit          3D

 25 27  0  0  0  0  0  0  0  0999 V2000
    0.9560   18.2970   -5.0950 Cl  0  0  0  0  0  0  0  0  0  0  0  0
    0.2240   16.7640   -4.9810 C   0  0  0  0  0  0  0  0  0  0  0  0
   -1.1450   16.6640   -5.1900 C   0  0  0  0  0  0  0  0  0  0  0  0
    0.9970   15.6450   -4.6890 C   0  0  0  0  0  0  0  0  0  0  0  0
    0.3950   14.3900   -4.6050 C   0  0  0  0  0  0  0  0  0  0  0  0
   -1.7670   15.4170   -5.1110 C   0  0  0  0  0  0  0  0  0  0  0  0
   -3.2530   15.2790   -5.3430 C   0  0  0  0  0  0  0  0  0  0  0  0
    1.2170   13.1640   -4.2910 C   0  0  0  0  0  0  0  0  0  0  0  0
   -0.9870   14.2860   -4.8180 C   0  0  0  0  0  0  0  0  0  0  0  0
    0.8170   12.4980   -2.9950 C   0  0  0  0  0  0  0  0  0  0  0  0
   -3.9940   14.7220   -4.1220 C   0  0  0  0  0  0  0  0  0  0  0  0
    0.1940   11.3160   -3.2040 O   0  0  0  0  0  0  0  0  0  0  0  0
    0.9880   12.9000   -1.8580 O   0  0  0  0  0  0  0  0  0  0  0  0
   -3.6460   15.4750   -2.9660 O   0  0  0  0  0  0  0  0  0  0  0  0
   -4.2490   15.2910   -1.7550 C   0  0  0  0  0  0  0  0  0  0  0  0
   -5.6490   15.2360   -1.7740 C   0  0  0  0  0  0  0  0  0  0  0  0
   -3.5820   15.1630   -0.5370 C   0  0  0  0  0  0  0  0  0  0  0  0
   -6.3480   15.0590   -0.5780 C   0  0  0  0  0  0  0  0  0  0  0  0
   -4.2900   14.9890    0.6540 C   0  0  0  0  0  0  0  0  0  0  0  0
   -5.6780   14.9360    0.6350 C   0  0  0  0  0  0  0  0  0  0  0  0
   -7.7630   15.0030   -0.6220 O   0  0  0  0  0  0  0  0  0  0  0  0
   -6.4460   14.7540    1.8520 C   0  0  0  0  0  0  0  0  0  0  0  0
   -8.5200   14.8770    0.5420 C   0  0  0  0  0  0  0  0  0  0  0  0
   -9.7450   14.8940    0.5420 O   0  0  0  0  0  0  0  0  0  0  0  0
   -7.7800   14.7240    1.8050 C   0  0  0  0  0  0  0  0  0  0  0  0
  1  2  1  0
  2  3  2  0
  2  4  1  0
  4  5  2  0
  3  6  1  0
  6  7  1  0
  5  8  1  0
  5  9  1  0
  6  9  2  0
  8 10  1  0
  7 11  1  0
 10 12  1  0
 10 13  2  0
 11 14  1  0
 14 15  1  0
 15 16  2  0
 15 17  1  0
 16 18  1  0
 17 19  2  0
 18 20  2  0
 19 20  1  0
 18 21  1  0
 20 22  1  0
 21 23  1  0
 23 24  2  0
 22 25  2  0
 23 25  1  0
M  END
