mac-x0131-diamond-x0910_0_A
     RDKit          3D

 19 21  0  0  0  0  0  0  0  0999 V2000
   -3.6660   14.7560   -4.1920 C   0  0  0  0  0  0  0  0  0  0  0  0
   -3.0310   15.3980   -2.9620 C   0  0  1  0  0  0  0  0  0  0  0  0
   -3.7280   15.0400   -1.6380 C   0  0  2  0  0  0  0  0  0  0  0  0
   -1.7100   14.8810   -2.6250 N   0  0  0  0  0  0  0  0  0  0  0  0
   -5.1610   15.5540   -1.5050 C   0  0  0  0  0  0  0  0  0  0  0  0
   -0.6650   14.7470   -3.6470 C   0  0  0  0  0  0  0  0  0  0  0  0
   -2.7220   15.6770   -0.6660 C   0  0  2  0  0  0  0  0  0  0  0  0
   -1.3480   15.3750   -1.2890 C   0  0  1  0  0  0  0  0  0  0  0  0
   -2.8300   15.3940    0.8310 C   0  0  1  0  0  0  0  0  0  0  0  0
   -0.6670   14.3010   -0.6250 N   0  0  0  0  0  0  0  0  0  0  0  0
   -0.4910   13.2900   -3.8880 C   0  0  0  0  0  0  0  0  0  0  0  0
   -4.0090   14.6300    1.1640 N   0  0  0  0  0  0  0  0  0  0  0  0
   -1.5930   13.1940   -0.7890 N   0  0  0  0  0  0  0  0  0  0  0  0
   -1.7410   14.7310    1.5130 N   0  0  0  0  0  0  0  0  0  0  0  0
   -0.4850   14.6420    0.7760 C   0  0  0  0  0  0  0  0  0  0  0  0
    0.5790   12.4220   -3.9960 C   0  0  0  0  0  0  0  0  0  0  0  0
   -1.6590   12.6090   -4.0360 O   0  0  0  0  0  0  0  0  0  0  0  0
   -1.3530   11.3150   -4.2320 C   0  0  0  0  0  0  0  0  0  0  0  0
   -0.0050   11.1430   -4.2160 C   0  0  0  0  0  0  0  0  0  0  0  0
  2  1  1  6
  2  3  1  0
  2  4  1  0
  3  5  1  6
  4  6  1  0
  3  7  1  0
  8  4  1  6
  7  8  1  0
  7  9  1  1
  8 10  1  0
  6 11  1  0
  9 12  1  6
 10 13  1  0
  9 14  1  0
 10 15  1  0
 14 15  1  0
 11 16  2  0
 11 17  1  0
 17 18  1  0
 16 19  1  0
 18 19  2  0
M  END
