mac-x0178-diamond-x0471_0_A
     RDKit          3D

 32 34  0  0  0  0  0  0  0  0999 V2000
   -0.6320   18.7140   -5.4150 N   0  0  0  0  0  0  0  0  0  0  0  0
   -1.4590   17.2440   -5.6290 S   0  0  2  0  0  0  0  0  0  0  0  0
   -2.0510   17.2650   -7.0090 O   0  0  0  0  0  0  0  0  0  0  0  0
   -2.7760   17.1140   -4.9110 N   0  0  0  0  0  0  0  0  0  0  0  0
   -0.7630   15.8690   -4.8680 C   0  0  0  0  0  0  0  0  0  0  0  0
   -3.4340   15.8740   -5.3010 C   0  0  0  0  0  0  0  0  0  0  0  0
    0.3220   16.0530   -4.0200 C   0  0  0  0  0  0  0  0  0  0  0  0
   -1.2850   14.6040   -5.0500 C   0  0  0  0  0  0  0  0  0  0  0  0
   -3.7480   14.9200   -4.1960 C   0  0  0  0  0  0  0  0  0  0  0  0
    0.8560   14.9850   -3.3570 C   0  0  0  0  0  0  0  0  0  0  0  0
   -0.7650   13.5260   -4.3940 C   0  0  0  0  0  0  0  0  0  0  0  0
   -3.1250   15.3200   -2.9080 C   0  0  0  0  0  0  0  0  0  0  0  0
    0.3030   13.7410   -3.5430 C   0  0  0  0  0  0  0  0  0  0  0  0
    0.8340   12.6180   -2.8340 C   0  0  0  0  0  0  0  0  0  0  0  0
   -3.9070   15.1060   -1.6910 C   0  0  0  0  0  0  0  0  0  0  0  0
    1.6300   12.7720   -1.8800 O   0  0  0  0  0  0  0  0  0  0  0  0
    0.4930   11.3010   -3.1300 O   0  0  0  0  0  0  0  0  0  0  0  0
   -5.2630   14.9310   -1.7550 C   0  0  0  0  0  0  0  0  0  0  0  0
   -3.3150   15.0730   -0.4380 C   0  0  0  0  0  0  0  0  0  0  0  0
   -5.9970   14.7160   -0.6010 C   0  0  0  0  0  0  0  0  0  0  0  0
   -4.0230   14.8690    0.7150 C   0  0  0  0  0  0  0  0  0  0  0  0
   -7.3040   14.5060   -0.3930 N   0  0  0  0  0  0  0  0  0  0  0  0
   -5.3970   14.6800    0.6350 C   0  0  0  0  0  0  0  0  0  0  0  0
   -7.5230   14.3340    0.9070 C   0  0  0  0  0  0  0  0  0  0  0  0
   -6.3680   14.4510    1.5300 N   0  0  0  0  0  0  0  0  0  0  0  0
   -8.8620   14.0450    1.5640 C   0  0  0  0  0  0  0  0  0  0  0  0
   -9.0160   14.7160    2.7490 N   0  0  0  0  0  0  0  0  0  0  0  0
   -9.1810   15.4580    3.8670 C   0  0  0  0  0  0  0  0  0  0  0  0
   -9.3110   16.7110    3.9260 O   0  0  0  0  0  0  0  0  0  0  0  0
   -9.2460   14.7730    5.2450 C   0  0  0  0  0  0  0  0  0  0  0  0
   -9.5930   13.3230    5.1780 C   0  0  0  0  0  0  0  0  0  0  0  0
   -8.0300   15.1260    6.0270 C   0  0  0  0  0  0  0  0  0  0  0  0
  2  1  1  1
  2  3  2  0
  2  4  2  0
  2  5  1  0
  4  6  1  0
  5  7  2  0
  5  8  1  0
  6  9  1  0
  7 10  1  0
  8 11  2  0
  9 12  1  0
 10 13  2  0
 11 13  1  0
 13 14  1  0
 12 15  1  0
 14 16  2  0
 14 17  1  0
 15 18  2  0
 15 19  1  0
 18 20  1  0
 19 21  2  0
 20 22  1  0
 20 23  2  0
 21 23  1  0
 22 24  1  0
 23 25  1  0
 24 25  2  0
 24 26  1  0
 26 27  1  0
 27 28  1  0
 28 29  2  0
 28 30  1  0
 30 31  1  0
 30 32  1  0
M  END
