mac-x0437-mac-x0338
     RDKit          3D

 26 28  0  0  0  0  0  0  0  0999 V2000
    2.1040   12.9910   -2.2210 O   0  0  0  0  0  0  0  0  0  0  0  0
    1.4140   12.2790   -3.1160 C   0  0  0  0  0  0  0  0  0  0  0  0
    0.9450   11.1990   -2.8070 O   0  0  0  0  0  0  0  0  0  0  0  0
    1.2630   12.9340   -4.4560 C   0  0  0  0  0  0  0  0  0  0  0  0
   -0.2350   13.0580   -4.6930 C   0  0  1  0  0  0  0  0  0  0  0  0
   -0.7630   14.4220   -5.1760 C   0  0  0  0  0  0  0  0  0  0  0  0
   -0.8380   11.8840   -5.3290 N   0  0  0  0  0  0  0  0  0  0  0  0
   -1.3480   15.3280   -4.0510 C   0  0  0  0  0  0  0  0  0  0  0  0
   -2.0330   11.4140   -4.8770 C   0  0  0  0  0  0  0  0  0  0  0  0
   -0.4270   11.0630   -6.3730 C   0  0  0  0  0  0  0  0  0  0  0  0
   -1.6480   14.6410   -2.6860 C   0  0  0  0  0  0  0  0  0  0  0  0
   -2.4330   10.3620   -5.5270 N   0  0  0  0  0  0  0  0  0  0  0  0
   -1.4620   10.1210   -6.4510 C   0  0  0  0  0  0  0  0  0  0  0  0
    0.6750   11.0030   -7.2380 C   0  0  0  0  0  0  0  0  0  0  0  0
   -1.4120    9.0930   -7.3980 C   0  0  0  0  0  0  0  0  0  0  0  0
    0.7040    9.9640   -8.1820 C   0  0  0  0  0  0  0  0  0  0  0  0
   -3.0580   14.8320   -2.1380 C   0  0  0  0  0  0  0  0  0  0  0  0
   -0.3230    9.0210   -8.2610 C   0  0  0  0  0  0  0  0  0  0  0  0
   -3.2860   14.8890   -0.7860 N   0  0  0  0  0  0  0  0  0  0  0  0
   -4.1140   14.9440   -3.0370 C   0  0  0  0  0  0  0  0  0  0  0  0
   -4.6050   15.0550   -0.4250 C   0  0  0  0  0  0  0  0  0  0  0  0
   -5.4030   15.1080   -2.6670 N   0  0  0  0  0  0  0  0  0  0  0  0
   -4.9710   15.1180    1.0090 C   0  0  0  0  0  0  0  0  0  0  0  0
   -5.6270   15.1630   -1.3410 C   0  0  0  0  0  0  0  0  0  0  0  0
   -3.9450   15.2730    1.8780 N   0  0  0  0  0  0  0  0  0  0  0  0
   -6.1360   15.0170    1.3810 O   0  0  0  0  0  0  0  0  0  0  0  0
  1  2  1  0
  2  3  2  0
  2  4  1  0
  5  4  1  6
  5  6  1  0
  5  7  1  0
  6  8  1  0
  7  9  1  0
  7 10  1  0
  8 11  1  0
  9 12  2  0
 10 13  2  0
 12 13  1  0
 10 14  1  0
 13 15  1  0
 14 16  2  0
 11 17  1  0
 15 18  2  0
 16 18  1  0
 17 19  2  0
 17 20  1  0
 19 21  1  0
 20 22  2  0
 21 23  1  0
 21 24  2  0
 22 24  1  0
 23 25  1  0
 23 26  2  0
M  END
