mac-x0139-mac-x0379
     RDKit          3D

 22 24  0  0  0  0  0  0  0  0999 V2000
   -1.0100   16.2000   -3.1780 C   0  0  0  0  0  0  0  0  0  0  0  0
   -1.6370   14.9420   -2.5270 C   0  0  1  0  0  0  0  0  0  0  0  0
   -1.0910   13.6970   -3.3090 C   0  0  0  0  0  0  0  0  0  0  0  0
   -1.3220   14.9400   -1.0050 C   0  0  0  0  0  0  0  0  0  0  0  0
   -3.1530   14.9640   -2.5640 C   0  0  0  0  0  0  0  0  0  0  0  0
    0.4010   13.6980   -3.6670 C   0  0  0  0  0  0  0  0  0  0  0  0
   -2.2780   14.5650   -0.1130 C   0  0  0  0  0  0  0  0  0  0  0  0
   -0.0590   15.3540   -0.6040 N   0  0  0  0  0  0  0  0  0  0  0  0
   -4.0590   14.4540   -3.4650 C   0  0  0  0  0  0  0  0  0  0  0  0
   -4.0070   15.7260   -1.2840 S   0  0  0  0  0  0  0  0  0  0  0  0
    1.0880   12.5140   -3.0460 C   0  0  0  0  0  0  0  0  0  0  0  0
   -1.9320   14.6210    1.3040 C   0  0  0  0  0  0  0  0  0  0  0  0
    0.1770   15.3120    0.6670 C   0  0  0  0  0  0  0  0  0  0  0  0
   -3.6370   14.1200   -0.0830 C   0  0  0  0  0  0  0  0  0  0  0  0
   -5.4820   15.2970   -2.0050 C   0  0  0  0  0  0  0  0  0  0  0  0
   -5.3870   14.6440   -3.1420 N   0  0  0  0  0  0  0  0  0  0  0  0
    2.1210   12.5170   -2.4130 O   0  0  0  0  0  0  0  0  0  0  0  0
    0.4150   11.3600   -3.2460 O   0  0  0  0  0  0  0  0  0  0  0  0
   -6.7500   15.6640   -1.3360 C   0  0  0  0  0  0  0  0  0  0  0  0
   -0.6910   14.8870    1.6180 N   0  0  0  0  0  0  0  0  0  0  0  0
   -2.9170   14.4090    2.0800 N   0  0  0  0  0  0  0  0  0  0  0  0
   -3.9560   14.0880    1.2180 C   0  0  0  0  0  0  0  0  0  0  0  0
  2  1  1  6
  2  3  1  0
  2  4  1  0
  2  5  1  0
  3  6  1  0
  4  7  2  0
  4  8  1  0
  5  9  2  0
  5 10  1  0
  6 11  1  0
  7 12  1  0
  8 13  2  0
  7 14  1  0
 10 15  1  0
  9 16  1  0
 15 16  2  0
 11 17  2  0
 11 18  1  0
 15 19  1  0
 12 20  1  0
 13 20  1  0
 12 21  2  0
 14 22  2  0
 21 22  1  0
M  END
