mac-x0179-mac-x0263
     RDKit          3D

 32 35  0  0  0  0  0  0  0  0999 V2000
    1.5790   12.9600   -2.1880 O   0  0  0  0  0  0  0  0  0  0  0  0
    1.0070   12.2120   -3.1440 C   0  0  0  0  0  0  0  0  0  0  0  0
    0.6800   11.0620   -2.8910 O   0  0  0  0  0  0  0  0  0  0  0  0
    0.8220   12.8920   -4.4900 C   0  0  0  0  0  0  0  0  0  0  0  0
    0.0480   12.0860   -5.4080 N   0  0  0  0  0  0  0  0  0  0  0  0
    0.7130   11.5270   -6.4640 C   0  0  0  0  0  0  0  0  0  0  0  0
   -1.1590   11.4660   -5.1960 C   0  0  0  0  0  0  0  0  0  0  0  0
    1.7940   11.8240   -6.9020 O   0  0  0  0  0  0  0  0  0  0  0  0
   -2.0950   11.6700   -4.3350 N   0  0  0  0  0  0  0  0  0  0  0  0
   -0.1070   10.4470   -6.9890 C   0  0  0  0  0  0  0  0  0  0  0  0
   -1.2510   10.3980   -6.2180 C   0  0  0  0  0  0  0  0  0  0  0  0
   -2.1270   12.6900   -3.2750 C   0  0  0  0  0  0  0  0  0  0  0  0
    0.1300    9.5820   -8.0450 C   0  0  0  0  0  0  0  0  0  0  0  0
   -2.2340    9.4570   -6.4690 C   0  0  0  0  0  0  0  0  0  0  0  0
   -2.4230   14.0970   -3.8420 C   0  0  0  0  0  0  0  0  0  0  0  0
   -0.8550    8.6260   -8.3140 C   0  0  0  0  0  0  0  0  0  0  0  0
   -2.0280    8.5630   -7.5320 C   0  0  0  0  0  0  0  0  0  0  0  0
   -2.8840   15.1770   -2.8240 C   0  0  0  0  0  0  0  0  0  0  0  0
   -4.3480   15.1170   -2.4620 C   0  0  0  0  0  0  0  0  0  0  0  0
   -5.7020   15.0460   -1.9940 C   0  0  0  0  0  0  0  0  0  0  0  0
   -3.6470   15.0090   -1.1750 C   0  0  0  0  0  0  0  0  0  0  0  0
   -6.2000   14.8840   -0.7170 C   0  0  0  0  0  0  0  0  0  0  0  0
   -4.1080   14.8590    0.1570 C   0  0  0  0  0  0  0  0  0  0  0  0
   -7.4860   14.7830   -0.2710 N   0  0  0  0  0  0  0  0  0  0  0  0
   -5.4450   14.7840    0.3830 C   0  0  0  0  0  0  0  0  0  0  0  0
   -7.4500   14.6120    1.0880 C   0  0  0  0  0  0  0  0  0  0  0  0
   -6.2050   14.6210    1.5100 N   0  0  0  0  0  0  0  0  0  0  0  0
   -8.6740   14.4390    1.9110 C   0  0  0  0  0  0  0  0  0  0  0  0
   -9.6900   15.5680    1.7850 C   0  0  0  0  0  0  0  0  0  0  0  0
  -10.7470   15.4200    2.8390 C   0  0  0  0  0  0  0  0  0  0  0  0
  -11.6020   14.4130    2.5810 O   0  0  0  0  0  0  0  0  0  0  0  0
  -10.8950   16.0950    3.8450 O   0  0  0  0  0  0  0  0  0  0  0  0
  1  2  1  0
  2  3  2  0
  2  4  1  0
  4  5  1  0
  5  6  1  0
  5  7  1  0
  6  8  2  0
  7  9  2  3
  6 10  1  0
  7 11  1  0
 10 11  2  0
  9 12  1  0
 10 13  1  0
 11 14  1  0
 12 15  1  0
 13 16  2  0
 14 17  2  0
 16 17  1  0
 15 18  1  0
 18 19  1  0
 19 20  2  0
 19 21  1  0
 20 22  1  0
 21 23  2  0
 22 24  1  0
 22 25  2  0
 23 25  1  0
 24 26  1  0
 25 27  1  0
 26 27  2  0
 26 28  1  0
 28 29  1  0
 29 30  1  0
 30 31  1  0
 30 32  2  0
M  END
