mac-x0338-mac-x0180
     RDKit          3D

 14 14  0  0  0  0  0  0  0  0999 V2000
   -4.3450   15.6240    1.9950 N   0  0  0  0  0  0  0  0  0  0  0  0
   -4.9170   14.6210    1.0710 C   0  0  1  0  0  0  0  0  0  0  0  0
   -6.4650   14.6320    1.0720 C   0  0  0  0  0  0  0  0  0  0  0  0
   -4.4370   14.7760   -0.3620 C   0  0  0  0  0  0  0  0  0  0  0  0
   -7.2600   14.5430    2.3470 C   0  0  0  0  0  0  0  0  0  0  0  0
   -7.0850   14.7080    0.0010 O   0  0  0  0  0  0  0  0  0  0  0  0
   -3.0950   14.7580   -0.6990 N   0  0  0  0  0  0  0  0  0  0  0  0
   -5.4180   14.9360   -1.3410 C   0  0  0  0  0  0  0  0  0  0  0  0
   -2.8410   14.9060   -2.0560 C   0  0  0  0  0  0  0  0  0  0  0  0
   -5.1490   15.0730   -2.6510 N   0  0  0  0  0  0  0  0  0  0  0  0
   -1.4280   14.9040   -2.5820 C   0  0  0  0  0  0  0  0  0  0  0  0
   -3.8470   15.0580   -2.9900 C   0  0  0  0  0  0  0  0  0  0  0  0
   -1.1540   14.8590   -3.7700 O   0  0  0  0  0  0  0  0  0  0  0  0
   -0.4900   14.9770   -1.6100 O   0  0  0  0  0  0  0  0  0  0  0  0
  2  1  1  1
  2  3  1  0
  2  4  1  0
  3  5  1  0
  3  6  2  0
  4  7  2  0
  4  8  1  0
  7  9  1  0
  8 10  2  0
  9 11  1  0
  9 12  2  0
 10 12  1  0
 11 13  2  0
 11 14  1  0
M  END
