mac-x0415-diamond-x0849_0_A
     RDKit          3D

 27 30  0  0  0  0  0  0  0  0999 V2000
   -0.0600   11.0330   -3.1100 O   0  0  0  0  0  0  0  0  0  0  0  0
    0.7220   12.1320   -3.1610 C   0  0  0  0  0  0  0  0  0  0  0  0
    1.2230   12.5720   -2.1410 O   0  0  0  0  0  0  0  0  0  0  0  0
    0.8390   12.6880   -4.5640 C   0  0  0  0  0  0  0  0  0  0  0  0
    0.6690   14.1500   -4.5080 C   0  0  0  0  0  0  0  0  0  0  0  0
    1.7710   15.0910   -4.4020 C   0  0  0  0  0  0  0  0  0  0  0  0
   -0.3620   14.9960   -4.5430 C   0  0  0  0  0  0  0  0  0  0  0  0
    1.5070   16.3540   -4.3780 N   0  0  0  0  0  0  0  0  0  0  0  0
    0.0740   16.4070   -4.3880 C   0  0  1  0  0  0  0  0  0  0  0  0
   -1.7710   14.7920   -4.6730 C   0  0  0  0  0  0  0  0  0  0  0  0
   -0.6270   17.3590   -5.2960 C   0  0  0  0  0  0  0  0  0  0  0  0
   -2.5010   15.7920   -5.2230 C   0  0  0  0  0  0  0  0  0  0  0  0
   -3.8620   15.6770   -5.3840 O   0  0  0  0  0  0  0  0  0  0  0  0
   -1.8800   17.0440   -5.6800 C   0  0  0  0  0  0  0  0  0  0  0  0
   -4.4200   14.5540   -4.6770 C   0  0  0  0  0  0  0  0  0  0  0  0
   -4.6000   14.8070   -3.1670 C   0  0  0  0  0  0  0  0  0  0  0  0
   -3.4430   15.2830   -2.4520 O   0  0  0  0  0  0  0  0  0  0  0  0
   -3.5070   15.2140   -1.0730 C   0  0  0  0  0  0  0  0  0  0  0  0
   -2.3250   14.8980   -0.3390 C   0  0  0  0  0  0  0  0  0  0  0  0
   -4.6800   15.4400   -0.3730 C   0  0  0  0  0  0  0  0  0  0  0  0
   -2.4220   14.8290    1.0600 C   0  0  0  0  0  0  0  0  0  0  0  0
   -4.6390   15.3420    0.9960 C   0  0  0  0  0  0  0  0  0  0  0  0
   -1.0510   14.6490   -0.8980 C   0  0  0  0  0  0  0  0  0  0  0  0
   -3.5470   15.0480    1.6860 N   0  0  0  0  0  0  0  0  0  0  0  0
   -1.4030   14.5450    1.8350 N   0  0  0  0  0  0  0  0  0  0  0  0
    0.0260   14.3580   -0.0700 C   0  0  0  0  0  0  0  0  0  0  0  0
   -0.2170   14.3200    1.2880 C   0  0  0  0  0  0  0  0  0  0  0  0
  1  2  1  0
  2  3  2  0
  2  4  1  0
  4  5  1  0
  5  6  1  0
  5  7  2  0
  6  8  2  0
  7  9  1  0
  8  9  1  0
  7 10  1  0
  9 11  1  6
 10 12  2  0
 12 13  1  0
 11 14  2  0
 12 14  1  0
 13 15  1  0
 15 16  1  0
 16 17  1  0
 17 18  1  0
 18 19  1  0
 18 20  2  0
 19 21  2  0
 20 22  1  0
 19 23  1  0
 21 24  1  0
 22 24  2  0
 21 25  1  0
 23 26  2  0
 25 27  2  0
 26 27  1  0
M  END
