mac-x0354-mac-x0415
     RDKit          3D

 26 29  0  0  0  0  0  0  0  0999 V2000
    0.8300   10.7450   -8.3120 C   0  0  0  0  0  0  0  0  0  0  0  0
    1.0360   11.3960   -7.0390 N   0  0  0  0  0  0  0  0  0  0  0  0
    2.0330   12.2410   -6.8920 N   0  0  0  0  0  0  0  0  0  0  0  0
    0.3100   11.2530   -5.9120 C   0  0  0  0  0  0  0  0  0  0  0  0
    1.9840   12.6680   -5.6840 C   0  0  0  0  0  0  0  0  0  0  0  0
    0.9340   12.1160   -4.9850 C   0  0  0  0  0  0  0  0  0  0  0  0
   -0.8170   10.3350   -5.9370 C   0  0  0  0  0  0  0  0  0  0  0  0
    0.7110   12.5100   -3.5760 C   0  0  2  0  0  0  0  0  0  0  0  0
   -0.6100    8.9940   -6.2960 C   0  0  0  0  0  0  0  0  0  0  0  0
   -2.1000   10.7660   -5.6240 C   0  0  0  0  0  0  0  0  0  0  0  0
    1.9420   12.3320   -2.7540 N   0  0  0  0  0  0  0  0  0  0  0  0
   -0.3910   11.7830   -3.0720 O   0  0  0  0  0  0  0  0  0  0  0  0
   -1.6710    8.1000   -6.3340 C   0  0  0  0  0  0  0  0  0  0  0  0
   -3.1610    9.8680   -5.6680 C   0  0  0  0  0  0  0  0  0  0  0  0
    0.5380   14.0740   -3.5640 C   0  0  1  0  0  0  0  0  0  0  0  0
    1.8530   13.0690   -1.7750 O   0  0  0  0  0  0  0  0  0  0  0  0
   -2.9490    8.5370   -6.0200 C   0  0  0  0  0  0  0  0  0  0  0  0
    1.8680   14.8620   -3.7660 C   0  0  0  0  0  0  0  0  0  0  0  0
   -0.2810   14.7580   -4.6620 C   0  0  2  0  0  0  0  0  0  0  0  0
    1.5300   16.1660   -4.3970 N   0  0  0  0  0  0  0  0  0  0  0  0
    0.0860   16.1960   -4.3600 C   0  0  1  0  0  0  0  0  0  0  0  0
   -1.7770   14.5300   -4.7650 C   0  0  0  0  0  0  0  0  0  0  0  0
   -0.6070   17.1840   -5.2340 C   0  0  0  0  0  0  0  0  0  0  0  0
   -2.6330   15.7730   -5.0120 C   0  0  2  0  0  0  0  0  0  0  0  0
   -4.0860   15.2810   -6.1940 Br  0  0  0  0  0  0  0  0  0  0  0  0
   -1.8970   16.9770   -5.5400 C   0  0  0  0  0  0  0  0  0  0  0  0
  1  2  1  0
  2  3  1  0
  2  4  1  0
  3  5  2  0
  4  6  2  0
  5  6  1  0
  4  7  1  0
  6  8  1  0
  7  9  2  0
  7 10  1  0
  8 11  1  0
  8 12  1  1
  9 13  1  0
 10 14  2  0
  8 15  1  0
 11 16  2  0
 13 17  2  0
 14 17  1  0
 15 18  1  6
 15 19  1  0
 18 20  1  0
 19 21  1  0
 20 21  1  0
 19 22  1  1
 21 23  1  6
 22 24  1  0
 24 25  1  6
 23 26  2  0
 24 26  1  0
M  END
