mac-x0587-mac-x0321
     RDKit          3D

 16 16  0  0  0  0  0  0  0  0999 V2000
    0.0810   16.1240   -4.1940 C   0  0  0  0  0  0  0  0  0  0  0  0
   -0.5890   14.8180   -3.7820 C   0  0  2  0  0  0  0  0  0  0  0  0
   -0.2210   13.4170   -4.9360 S   0  0  0  0  0  0  0  0  0  0  0  0
   -2.1040   14.9990   -3.4810 C   0  0  0  0  0  0  0  0  0  0  0  0
   -0.5980   11.9080   -3.9780 C   0  0  0  0  0  0  0  0  0  0  0  0
   -2.9050   15.2590   -4.3790 O   0  0  0  0  0  0  0  0  0  0  0  0
   -2.5170   14.8580   -2.1510 N   0  0  0  0  0  0  0  0  0  0  0  0
    0.4630   11.4770   -2.9990 C   0  0  0  0  0  0  0  0  0  0  0  0
   -3.8280   15.1650   -1.5890 C   0  0  0  0  0  0  0  0  0  0  0  0
   -1.6330   14.7450   -1.0570 C   0  0  0  0  0  0  0  0  0  0  0  0
    0.5290   10.3470   -2.5170 O   0  0  0  0  0  0  0  0  0  0  0  0
    1.3610   12.4280   -2.6750 O   0  0  0  0  0  0  0  0  0  0  0  0
   -0.4290   14.8910   -1.0080 O   0  0  0  0  0  0  0  0  0  0  0  0
   -3.7610   14.5690   -0.1820 C   0  0  1  0  0  0  0  0  0  0  0  0
   -2.3740   14.4310    0.0700 N   0  0  0  0  0  0  0  0  0  0  0  0
   -4.4130   15.5570    1.1060 Cl  0  0  0  0  0  0  0  0  0  0  0  0
  2  1  1  6
  2  3  1  0
  2  4  1  0
  3  5  1  0
  4  6  2  0
  4  7  1  0
  5  8  1  0
  7  9  1  0
  7 10  1  0
  8 11  2  0
  8 12  1  0
 10 13  2  0
  9 14  1  0
 10 15  1  0
 14 15  1  0
 14 16  1  1
M  END
