mac-x0453-mac-x0358
     RDKit          3D

 20 21  0  0  0  0  0  0  0  0999 V2000
   -6.8220   13.5160    2.1350 N   0  0  0  0  0  0  0  0  0  0  0  0
   -5.6800   13.4680    1.2130 C   0  0  0  0  0  0  0  0  0  0  0  0
   -5.2130   14.8820    0.8890 C   0  0  0  0  0  0  0  0  0  0  0  0
   -4.2000   14.9470   -0.1980 C   0  0  0  0  0  0  0  0  0  0  0  0
   -2.8580   14.6970   -0.1410 C   0  0  0  0  0  0  0  0  0  0  0  0
   -4.5680   15.3030   -1.4790 N   0  0  0  0  0  0  0  0  0  0  0  0
   -2.4010   14.9060   -1.4120 N   0  0  0  0  0  0  0  0  0  0  0  0
   -3.4610   15.2760   -2.2030 C   0  0  0  0  0  0  0  0  0  0  0  0
   -3.3090   15.5930   -3.6770 C   0  0  0  0  0  0  0  0  0  0  0  0
   -2.5470   14.5320   -4.3980 C   0  0  0  0  0  0  0  0  0  0  0  0
   -3.2100   13.7590   -5.3440 C   0  0  0  0  0  0  0  0  0  0  0  0
   -1.1960   14.2940   -4.1120 C   0  0  0  0  0  0  0  0  0  0  0  0
   -0.5070   13.2580   -4.7500 C   0  0  0  0  0  0  0  0  0  0  0  0
   -2.5360   12.7320   -5.9850 C   0  0  0  0  0  0  0  0  0  0  0  0
    0.9320   13.0140   -4.3910 C   0  0  0  0  0  0  0  0  0  0  0  0
   -1.2060   12.4870   -5.6770 C   0  0  0  0  0  0  0  0  0  0  0  0
    1.0250   12.2390   -3.1020 C   0  0  0  0  0  0  0  0  0  0  0  0
   -0.6190   11.4460   -6.3250 O   0  0  0  0  0  0  0  0  0  0  0  0
    1.6430   12.9150   -2.1180 O   0  0  0  0  0  0  0  0  0  0  0  0
    0.5950   11.1130   -2.9010 O   0  0  0  0  0  0  0  0  0  0  0  0
  1  2  1  0
  2  3  1  0
  3  4  1  0
  4  5  2  0
  4  6  1  0
  5  7  1  0
  6  8  2  0
  7  8  1  0
  8  9  1  0
  9 10  1  0
 10 11  2  0
 10 12  1  0
 12 13  2  0
 11 14  1  0
 13 15  1  0
 13 16  1  0
 14 16  2  0
 15 17  1  0
 16 18  1  0
 17 19  1  0
 17 20  2  0
M  END
