mac-x0439-diamond-x0950_1_A
     RDKit          3D

 18 19  0  0  0  0  0  0  0  0999 V2000
   -3.1670   15.7560   -4.9300 Cl  0  0  0  0  0  0  0  0  0  0  0  0
   -1.6930   16.5940   -5.1980 C   0  0  0  0  0  0  0  0  0  0  0  0
   -0.4370   15.8340   -4.9990 C   0  0  2  0  0  0  0  0  0  0  0  0
   -1.6490   17.8780   -5.6000 C   0  0  0  0  0  0  0  0  0  0  0  0
   -0.1400   14.7810   -3.9890 C   0  0  0  0  0  0  0  0  0  0  0  0
    0.7230   16.7370   -4.7140 C   0  0  0  0  0  0  0  0  0  0  0  0
   -0.3710   18.5380   -5.8370 C   0  0  0  0  0  0  0  0  0  0  0  0
    1.0520   15.0570   -3.4400 C   0  0  0  0  0  0  0  0  0  0  0  0
    1.5700   16.2620   -3.8670 N   0  0  0  0  0  0  0  0  0  0  0  0
    0.8050   18.0290   -5.4270 C   0  0  0  0  0  0  0  0  0  0  0  0
    1.7730   14.1690   -2.4640 C   0  0  0  0  0  0  0  0  0  0  0  0
    2.6460   14.8160   -1.6660 O   0  0  0  0  0  0  0  0  0  0  0  0
    1.7300   12.9070   -2.2780 N   0  0  0  0  0  0  0  0  0  0  0  0
    0.9160   12.1850   -3.1070 C   0  0  0  0  0  0  0  0  0  0  0  0
    1.2380   12.3150   -4.6180 C   0  0  2  0  0  0  0  0  0  0  0  0
    0.0010   11.4610   -2.6980 O   0  0  0  0  0  0  0  0  0  0  0  0
    0.9350   13.6510   -5.2370 C   0  0  0  0  0  0  0  0  0  0  0  0
    0.4970   11.3450   -5.3660 O   0  0  0  0  0  0  0  0  0  0  0  0
  1  2  1  0
  2  3  1  0
  2  4  2  0
  3  5  1  1
  3  6  1  0
  4  7  1  0
  5  8  2  0
  6  9  2  0
  8  9  1  0
  6 10  1  0
  7 10  2  0
  8 11  1  0
 11 12  1  0
 11 13  2  3
 13 14  1  0
 14 15  1  0
 14 16  2  0
 15 17  1  6
 15 18  1  0
M  END
