mac-x0439-mac-x0510
     RDKit          3D

 25 28  0  0  0  0  0  0  0  0999 V2000
   -3.1270   15.8970   -5.4820 Cl  0  0  0  0  0  0  0  0  0  0  0  0
   -1.7340   16.9050   -5.4020 C   0  0  0  0  0  0  0  0  0  0  0  0
   -0.8300   16.7970   -4.2390 C   0  0  1  0  0  0  0  0  0  0  0  0
   -1.4460   17.8040   -6.3530 C   0  0  0  0  0  0  0  0  0  0  0  0
   -0.5120   15.5950   -3.4480 C   0  0  0  0  0  0  0  0  0  0  0  0
    0.5810   17.1350   -4.6210 C   0  0  0  0  0  0  0  0  0  0  0  0
   -0.2360   18.6140   -6.2920 C   0  0  0  0  0  0  0  0  0  0  0  0
    0.8250   15.4410   -3.3890 C   0  0  0  0  0  0  0  0  0  0  0  0
    1.4950   16.3610   -4.1300 N   0  0  0  0  0  0  0  0  0  0  0  0
    0.7890   18.3130   -5.4740 C   0  0  0  0  0  0  0  0  0  0  0  0
    1.4750   14.3930   -2.5650 C   0  0  0  0  0  0  0  0  0  0  0  0
    2.8250   14.3440   -2.6920 O   0  0  0  0  0  0  0  0  0  0  0  0
    0.9430   13.5810   -1.7630 N   0  0  0  0  0  0  0  0  0  0  0  0
   -0.5070   13.7360   -1.6920 C   0  0  0  0  0  0  0  0  0  0  0  0
   -1.1430   14.1510   -0.4410 N   0  0  0  0  0  0  0  0  0  0  0  0
   -2.4110   14.6660   -0.3490 C   0  0  0  0  0  0  0  0  0  0  0  0
   -0.6450   14.1030    0.8380 C   0  0  0  0  0  0  0  0  0  0  0  0
   -2.6220   14.8460    0.9860 C   0  0  0  0  0  0  0  0  0  0  0  0
   -3.4020   14.9740   -1.3270 C   0  0  0  0  0  0  0  0  0  0  0  0
   -1.5320   14.5220    1.7270 N   0  0  0  0  0  0  0  0  0  0  0  0
   -3.2300   15.0500   -2.5370 O   0  0  0  0  0  0  0  0  0  0  0  0
   -3.8310   15.2880    1.4470 N   0  0  0  0  0  0  0  0  0  0  0  0
   -4.6280   15.2140   -0.7580 N   0  0  0  0  0  0  0  0  0  0  0  0
   -4.8930   15.1830    0.5820 C   0  0  0  0  0  0  0  0  0  0  0  0
   -6.0450   15.0410    0.9800 O   0  0  0  0  0  0  0  0  0  0  0  0
  1  2  1  0
  2  3  1  0
  2  4  2  0
  3  5  1  6
  3  6  1  0
  4  7  1  0
  5  8  2  0
  6  9  2  0
  8  9  1  0
  6 10  1  0
  7 10  2  0
  8 11  1  0
 11 12  1  0
 11 13  2  3
 13 14  1  0
 14 15  1  0
 15 16  1  0
 15 17  1  0
 16 18  2  0
 16 19  1  0
 17 20  2  0
 18 20  1  0
 19 21  2  0
 18 22  1  0
 19 23  1  0
 22 24  1  0
 23 24  1  0
 24 25  2  0
M  END
