mac-x0226-diamond-x0849_0_A
     RDKit          3D

 27 30  0  0  0  0  0  0  0  0999 V2000
    1.8750   12.1690   -2.2220 O   0  0  0  0  0  0  0  0  0  0  0  0
    0.6990   12.4580   -2.8870 C   0  0  0  0  0  0  0  0  0  0  0  0
   -0.2950   11.6450   -2.2680 O   0  0  0  0  0  0  0  0  0  0  0  0
    0.4830   13.9640   -2.6750 C   0  0  0  0  0  0  0  0  0  0  0  0
    0.8280   12.1670   -4.3320 C   0  0  0  0  0  0  0  0  0  0  0  0
   -0.9060   14.4150   -2.2780 C   0  0  0  0  0  0  0  0  0  0  0  0
    1.7870   12.7420   -5.1720 C   0  0  0  0  0  0  0  0  0  0  0  0
    0.1070   11.3300   -5.1640 C   0  0  0  0  0  0  0  0  0  0  0  0
    1.6960   12.3170   -6.4160 N   0  0  0  0  0  0  0  0  0  0  0  0
    0.6620   11.4460   -6.4200 N   0  0  0  0  0  0  0  0  0  0  0  0
   -1.1270   14.4900   -0.7950 C   0  0  0  0  0  0  0  0  0  0  0  0
    0.3080   10.8100   -7.6290 C   0  0  0  0  0  0  0  0  0  0  0  0
   -2.3910   14.8080   -0.2090 C   0  0  0  0  0  0  0  0  0  0  0  0
   -0.0320   14.2280    0.0410 C   0  0  0  0  0  0  0  0  0  0  0  0
   -0.9200   10.1480   -7.7510 C   0  0  0  0  0  0  0  0  0  0  0  0
    1.1880   10.8420   -8.7120 C   0  0  0  0  0  0  0  0  0  0  0  0
   -2.4320   14.8260    1.1860 C   0  0  0  0  0  0  0  0  0  0  0  0
   -3.6250   15.1120   -0.8480 C   0  0  0  0  0  0  0  0  0  0  0  0
   -0.2310   14.2830    1.3920 C   0  0  0  0  0  0  0  0  0  0  0  0
   -3.8680   15.1590   -2.7320 Br  0  0  0  0  0  0  0  0  0  0  0  0
   -1.2600    9.5290   -8.9550 C   0  0  0  0  0  0  0  0  0  0  0  0
    0.8460   10.2250   -9.9120 C   0  0  0  0  0  0  0  0  0  0  0  0
   -3.5140   15.0980    1.8740 N   0  0  0  0  0  0  0  0  0  0  0  0
   -4.7680   15.4020   -0.1090 C   0  0  0  0  0  0  0  0  0  0  0  0
   -1.3960   14.5700    1.9410 N   0  0  0  0  0  0  0  0  0  0  0  0
   -0.3780    9.5690  -10.0360 C   0  0  0  0  0  0  0  0  0  0  0  0
   -4.6490   15.3750    1.2520 C   0  0  0  0  0  0  0  0  0  0  0  0
  2  1  1  0
  2  3  1  0
  2  4  1  0
  2  5  1  0
  4  6  1  0
  5  7  1  0
  5  8  2  0
  7  9  2  0
  8 10  1  0
  9 10  1  0
  6 11  1  0
 10 12  1  0
 11 13  1  0
 11 14  2  0
 12 15  2  0
 12 16  1  0
 13 17  2  0
 13 18  1  0
 14 19  1  0
 18 20  1  0
 15 21  1  0
 16 22  2  0
 17 23  1  0
 18 24  2  0
 17 25  1  0
 19 25  2  0
 21 26  2  0
 22 26  1  0
 23 27  2  0
 24 27  1  0
M  END
