mac-x0255-diamond-x0689_0_A
     RDKit          3D

 23 25  0  0  0  0  0  0  0  0999 V2000
    2.2560   12.5200   -2.2000 O   0  0  0  0  0  0  0  0  0  0  0  0
    1.0730   12.4010   -2.9380 C   0  0  0  0  0  0  0  0  0  0  0  0
    0.4730   11.1390   -2.7260 O   0  0  0  0  0  0  0  0  0  0  0  0
    1.2540   12.7650   -4.4180 C   0  0  0  0  0  0  0  0  0  0  0  0
    0.1840   13.4850   -2.3610 C   0  0  0  0  0  0  0  0  0  0  0  0
    0.7240   14.1690   -1.1140 C   0  0  0  0  0  0  0  0  0  0  0  0
    0.5800   14.0740   -4.6960 C   0  0  0  0  0  0  0  0  0  0  0  0
    1.1630   15.3160   -4.7970 C   0  0  0  0  0  0  0  0  0  0  0  0
   -1.1110   14.1520   -4.9220 S   0  0  0  0  0  0  0  0  0  0  0  0
   -0.4230   14.4170   -0.2470 C   0  0  0  0  0  0  0  0  0  0  0  0
    0.2230   16.3500   -5.0760 C   0  0  0  0  0  0  0  0  0  0  0  0
   -1.0770   15.8510   -5.1690 C   0  0  0  0  0  0  0  0  0  0  0  0
   -1.6040   14.6870   -0.8600 C   0  0  0  0  0  0  0  0  0  0  0  0
   -0.4540   14.4010    1.1270 C   0  0  0  0  0  0  0  0  0  0  0  0
    0.4230   17.7310   -5.2650 C   0  0  0  0  0  0  0  0  0  0  0  0
   -2.1750   16.6870   -5.4420 C   0  0  0  0  0  0  0  0  0  0  0  0
   -2.7300   14.9370   -0.2190 N   0  0  0  0  0  0  0  0  0  0  0  0
   -1.5720   14.6420    1.8250 N   0  0  0  0  0  0  0  0  0  0  0  0
   -0.6630   18.5580   -5.5440 C   0  0  0  0  0  0  0  0  0  0  0  0
   -1.9370   18.0450   -5.6300 C   0  0  0  0  0  0  0  0  0  0  0  0
   -2.6680   14.9120    1.1050 C   0  0  0  0  0  0  0  0  0  0  0  0
   -3.8200   15.1950    1.7880 N   0  0  0  0  0  0  0  0  0  0  0  0
   -4.9610   15.2110    0.9190 C   0  0  0  0  0  0  0  0  0  0  0  0
  2  1  1  0
  2  3  1  0
  2  4  1  0
  2  5  1  0
  5  6  1  0
  4  7  1  0
  7  8  2  0
  7  9  1  0
  6 10  1  0
  8 11  1  0
  9 12  1  0
 11 12  2  0
 10 13  2  0
 10 14  1  0
 11 15  1  0
 12 16  1  0
 13 17  1  0
 14 18  2  0
 15 19  2  0
 16 20  2  0
 19 20  1  0
 17 21  2  0
 18 21  1  0
 21 22  1  0
 22 23  1  0
M  END
