mac-x0131-diamond-x0628_0_A
     RDKit          3D

 30 33  0  0  0  0  0  0  0  0999 V2000
   -3.8670   15.1160   -4.0030 C   0  0  0  0  0  0  0  0  0  0  0  0
   -3.3240   15.0560   -2.6200 C   0  0  0  0  0  0  0  0  0  0  0  0
   -3.9430   15.2480   -1.3970 C   0  0  0  0  0  0  0  0  0  0  0  0
   -2.0110   14.7730   -2.3650 N   0  0  0  0  0  0  0  0  0  0  0  0
   -5.3730   15.5800   -1.1740 C   0  0  0  0  0  0  0  0  0  0  0  0
   -1.0030   14.4990   -3.3400 C   0  0  0  0  0  0  0  0  0  0  0  0
   -2.9410   15.0670   -0.3820 C   0  0  0  0  0  0  0  0  0  0  0  0
   -1.7550   14.7730   -1.0250 C   0  0  0  0  0  0  0  0  0  0  0  0
   -2.8810   15.1180    1.0170 C   0  0  0  0  0  0  0  0  0  0  0  0
   -0.5560   14.5320   -0.4560 N   0  0  0  0  0  0  0  0  0  0  0  0
   -0.7690   13.0400   -3.2980 C   0  0  0  0  0  0  0  0  0  0  0  0
   -3.9790   15.4150    1.8060 N   0  0  0  0  0  0  0  0  0  0  0  0
   -1.7030   14.8730    1.6380 N   0  0  0  0  0  0  0  0  0  0  0  0
   -0.6270   14.6040    0.8820 C   0  0  0  0  0  0  0  0  0  0  0  0
    0.3520   12.2880   -3.3220 C   0  0  0  0  0  0  0  0  0  0  0  0
   -1.8600   12.2310   -3.2160 O   0  0  0  0  0  0  0  0  0  0  0  0
    1.6890   12.8160   -3.4100 C   0  0  0  0  0  0  0  0  0  0  0  0
   -1.4170   10.9510   -3.1950 C   0  0  0  0  0  0  0  0  0  0  0  0
   -0.0560   10.9260   -3.2570 C   0  0  0  0  0  0  0  0  0  0  0  0
    2.6270   11.8670   -3.0830 O   0  0  0  0  0  0  0  0  0  0  0  0
    1.9340   13.8760   -2.5180 O   0  0  0  0  0  0  0  0  0  0  0  0
    1.8500   13.2300   -4.8640 C   0  0  0  0  0  0  0  0  0  0  0  0
    0.5130   13.3070   -5.6380 C   0  0  0  0  0  0  0  0  0  0  0  0
   -0.2610   12.0960   -5.9000 N   0  0  0  0  0  0  0  0  0  0  0  0
    0.3340   11.0460   -6.4810 N   0  0  0  0  0  0  0  0  0  0  0  0
   -1.5940   11.8060   -5.6560 C   0  0  0  0  0  0  0  0  0  0  0  0
   -2.5890   12.7100   -5.0480 C   0  0  0  0  0  0  0  0  0  0  0  0
   -1.8530   10.5820   -6.0630 N   0  0  0  0  0  0  0  0  0  0  0  0
   -0.6620   10.1550   -6.5590 C   0  0  0  0  0  0  0  0  0  0  0  0
   -0.4900    8.8120   -7.1380 C   0  0  0  0  0  0  0  0  0  0  0  0
  1  2  1  0
  2  3  2  0
  2  4  1  0
  3  5  1  0
  4  6  1  0
  3  7  1  0
  4  8  1  0
  7  8  2  0
  7  9  1  0
  8 10  1  0
  6 11  1  0
  9 12  1  0
  9 13  2  0
 10 14  2  0
 13 14  1  0
 11 15  2  0
 11 16  1  0
 15 17  1  0
 16 18  1  0
 15 19  1  0
 18 19  2  0
 17 20  1  0
 17 21  1  0
 17 22  1  0
 22 23  1  0
 23 24  1  0
 24 25  1  0
 24 26  1  0
 26 27  1  0
 26 28  2  0
 25 29  2  0
 28 29  1  0
 29 30  1  0
M  END
