mac-x0137-mac-x0568
     RDKit          3D

 26 29  0  0  0  0  0  0  0  0999 V2000
   -2.8230   12.7120   -3.8810 F   0  0  0  0  0  0  0  0  0  0  0  0
   -1.7610   13.4130   -4.3620 C   0  0  2  0  0  0  0  0  0  0  0  0
   -0.6300   12.4230   -4.6100 C   0  0  0  0  0  0  0  0  0  0  0  0
   -1.4280   14.5530   -3.3690 C   0  0  0  0  0  0  0  0  0  0  0  0
   -0.5330   14.1570   -2.2350 N   0  0  0  0  0  0  0  0  0  0  0  0
    0.1660   12.1030   -3.3510 C   0  0  0  0  0  0  0  0  0  0  0  0
    0.6360   13.3600   -2.6330 C   0  0  0  0  0  0  0  0  0  0  0  0
   -0.8670   14.2990   -0.8580 C   0  0  0  0  0  0  0  0  0  0  0  0
    0.0400   13.8850    0.0810 N   0  0  0  0  0  0  0  0  0  0  0  0
   -1.9970   14.8190   -0.3210 C   0  0  0  0  0  0  0  0  0  0  0  0
   -0.2470   13.9470    1.4210 C   0  0  0  0  0  0  0  0  0  0  0  0
   -2.1920   14.8970    1.1360 C   0  0  0  0  0  0  0  0  0  0  0  0
   -3.1970   15.3920   -0.7450 C   0  0  0  0  0  0  0  0  0  0  0  0
   -3.4870   15.5240   -1.9840 N   0  0  0  0  0  0  0  0  0  0  0  0
   -1.2840   14.4240    1.9750 N   0  0  0  0  0  0  0  0  0  0  0  0
   -3.3100   15.4410    1.5070 N   0  0  0  0  0  0  0  0  0  0  0  0
   -3.9080   15.7480    0.3240 C   0  0  0  0  0  0  0  0  0  0  0  0
   -4.6150   14.9410   -2.3420 C   0  0  0  0  0  0  0  0  0  0  0  0
   -4.8940   14.5770   -3.4550 O   0  0  0  0  0  0  0  0  0  0  0  0
   -5.5450   14.7630   -1.2050 C   0  0  0  0  0  0  0  0  0  0  0  0
   -6.8360   15.1890   -1.3850 C   0  0  0  0  0  0  0  0  0  0  0  0
   -5.2050   14.1960    0.0400 C   0  0  0  0  0  0  0  0  0  0  0  0
   -7.7950   15.0910   -0.4420 N   0  0  0  0  0  0  0  0  0  0  0  0
   -6.1820   14.0920    1.0280 C   0  0  0  0  0  0  0  0  0  0  0  0
   -7.4630   14.5500    0.7460 C   0  0  0  0  0  0  0  0  0  0  0  0
   -8.5470   14.4600    1.7720 C   0  0  0  0  0  0  0  0  0  0  0  0
  2  1  1  1
  2  3  1  0
  2  4  1  0
  4  5  1  0
  3  6  1  0
  5  7  1  0
  6  7  1  0
  5  8  1  0
  8  9  1  0
  8 10  2  0
  9 11  1  0
 10 12  1  0
 10 13  1  0
 13 14  1  0
 11 15  2  0
 12 15  1  0
 12 16  2  0
 13 17  2  0
 16 17  1  0
 14 18  1  0
 18 19  2  0
 18 20  1  0
 20 21  2  0
 20 22  1  0
 21 23  1  0
 22 24  2  0
 23 25  2  0
 24 25  1  0
 25 26  1  0
M  END
