mac-x0131-diamond-x0371_0_A
     RDKit          3D

 35 40  0  0  0  0  0  0  0  0999 V2000
   -4.0940   14.7930   -4.4270 C   0  0  0  0  0  0  0  0  0  0  0  0
   -3.2570   14.7550   -3.1990 C   0  0  0  0  0  0  0  0  0  0  0  0
   -3.5320   14.7750   -1.8490 C   0  0  0  0  0  0  0  0  0  0  0  0
   -1.8380   14.6950   -3.2020 N   0  0  0  0  0  0  0  0  0  0  0  0
   -0.9200   14.6260   -4.3110 C   0  0  0  0  0  0  0  0  0  0  0  0
   -2.3400   14.7160   -1.0850 C   0  0  0  0  0  0  0  0  0  0  0  0
   -1.3130   14.6850   -1.9290 C   0  0  0  0  0  0  0  0  0  0  0  0
   -4.4220   14.8440   -0.8280 C   0  0  0  0  0  0  0  0  0  0  0  0
   -2.0520   14.6880    0.3240 C   0  0  0  0  0  0  0  0  0  0  0  0
   -0.0220   14.6500   -1.5720 N   0  0  0  0  0  0  0  0  0  0  0  0
   -0.6160   13.1870   -4.2360 C   0  0  0  0  0  0  0  0  0  0  0  0
   -5.6640   14.6230   -0.2160 C   0  0  0  0  0  0  0  0  0  0  0  0
   -3.4220   15.4310   -0.1810 C   0  0  0  0  0  0  0  0  0  0  0  0
   -2.9900   14.6840    1.3620 N   0  0  0  0  0  0  0  0  0  0  0  0
   -0.7830   14.6620    0.7250 N   0  0  0  0  0  0  0  0  0  0  0  0
    0.1400   14.6510   -0.2390 C   0  0  0  0  0  0  0  0  0  0  0  0
    0.5020   12.3870   -4.0920 C   0  0  0  0  0  0  0  0  0  0  0  0
   -1.7350   12.4150   -4.3110 O   0  0  0  0  0  0  0  0  0  0  0  0
   -6.9300   14.0930   -0.4650 N   0  0  0  0  0  0  0  0  0  0  0  0
   -5.6060   15.0810    1.1150 C   0  0  0  0  0  0  0  0  0  0  0  0
   -3.4250   15.8610    1.0470 C   0  0  0  0  0  0  0  0  0  0  0  0
   -1.3530   11.1320   -4.2130 C   0  0  0  0  0  0  0  0  0  0  0  0
   -0.0030   11.0560   -4.0760 C   0  0  0  0  0  0  0  0  0  0  0  0
   -6.7860   14.8150    1.6360 N   0  0  0  0  0  0  0  0  0  0  0  0
   -7.5610   14.2430    0.7170 C   0  0  0  0  0  0  0  0  0  0  0  0
   -4.5390   15.6900    1.7680 C   0  0  0  0  0  0  0  0  0  0  0  0
   -8.9120   13.9130    1.2040 C   0  0  0  0  0  0  0  0  0  0  0  0
   -8.8830   14.1200    2.6620 N   0  0  0  0  0  0  0  0  0  0  0  0
   -9.0870   15.2930    3.3970 C   0  0  0  0  0  0  0  0  0  0  0  0
   -9.5340   16.2480    2.7520 O   0  0  0  0  0  0  0  0  0  0  0  0
   -8.8120   15.3880    4.8310 C   0  0  0  0  0  0  0  0  0  0  0  0
   -8.1810   14.3220    5.4300 O   0  0  0  0  0  0  0  0  0  0  0  0
   -9.0450   16.3490    5.8100 C   0  0  0  0  0  0  0  0  0  0  0  0
   -8.5400   15.8420    7.0350 C   0  0  0  0  0  0  0  0  0  0  0  0
   -8.0210   14.6040    6.7500 C   0  0  0  0  0  0  0  0  0  0  0  0
  1  2  1  0
  2  3  2  0
  2  4  1  0
  4  5  1  0
  3  6  1  0
  4  7  1  0
  6  7  2  0
  3  8  1  0
  6  9  1  0
  7 10  1  0
  5 11  1  0
  8 12  1  0
  8 13  2  0
  9 14  1  0
  9 15  2  0
 10 16  2  0
 15 16  1  0
 11 17  2  0
 11 18  1  0
 12 19  1  0
 12 20  2  0
 13 21  1  0
 18 22  1  0
 17 23  1  0
 22 23  2  0
 20 24  1  0
 19 25  2  0
 24 25  1  0
 20 26  1  0
 21 26  2  0
 25 27  1  0
 27 28  1  0
 28 29  1  0
 29 30  2  0
 29 31  1  0
 31 32  1  0
 31 33  2  0
 33 34  1  0
 32 35  1  0
 34 35  2  0
M  END
