mac-x0380-mac-x0204
     RDKit          3D

 23 25  0  0  0  0  0  0  0  0999 V2000
   -1.0560   14.3540   -2.5430 C   0  0  0  0  0  0  0  0  0  0  0  0
   -2.4390   15.0700   -2.3320 C   0  0  0  0  0  0  0  0  0  0  0  0
   -2.9010   15.7230   -3.2740 O   0  0  0  0  0  0  0  0  0  0  0  0
   -0.6830   13.2280   -1.7740 O   0  0  0  0  0  0  0  0  0  0  0  0
    0.0780   15.2130   -2.6090 O   0  0  0  0  0  0  0  0  0  0  0  0
   -1.5600   14.0040   -3.8790 C   0  0  0  0  0  0  0  0  0  0  0  0
   -3.3590   15.0310   -1.1820 C   0  0  0  0  0  0  0  0  0  0  0  0
   -2.0560   15.0920   -4.5930 C   0  0  0  0  0  0  0  0  0  0  0  0
   -1.6230   12.7470   -4.4400 C   0  0  0  0  0  0  0  0  0  0  0  0
   -4.7370   15.0620   -1.3960 C   0  0  0  0  0  0  0  0  0  0  0  0
   -2.8560   14.9680    0.1130 C   0  0  0  0  0  0  0  0  0  0  0  0
   -2.6090   14.9030   -5.8140 C   0  0  0  0  0  0  0  0  0  0  0  0
   -2.1610   12.5280   -5.6580 N   0  0  0  0  0  0  0  0  0  0  0  0
   -3.1100   15.9570   -6.5190 O   0  0  0  0  0  0  0  0  0  0  0  0
   -5.6180   15.0300   -0.3260 C   0  0  0  0  0  0  0  0  0  0  0  0
   -3.7330   14.9400    1.1910 C   0  0  0  0  0  0  0  0  0  0  0  0
   -2.6500   13.6130   -6.3190 C   0  0  0  0  0  0  0  0  0  0  0  0
   -5.1150   14.9710    0.9710 C   0  0  0  0  0  0  0  0  0  0  0  0
   -7.3670   15.0600   -0.6550 S   0  0  0  0  0  0  0  0  0  0  0  0
   -5.9590   14.9360    2.0830 N   0  0  0  0  0  0  0  0  0  0  0  0
   -7.8840   14.1000    0.7790 C   0  0  0  0  0  0  0  0  0  0  0  0
   -7.2850   14.6060    2.0640 C   0  0  0  0  0  0  0  0  0  0  0  0
   -7.9680   14.7300    3.0870 O   0  0  0  0  0  0  0  0  0  0  0  0
  1  2  1  0
  2  3  2  0
  1  4  1  0
  1  5  1  0
  1  6  1  0
  2  7  1  0
  6  8  2  0
  6  9  1  0
  7 10  2  0
  7 11  1  0
  8 12  1  0
  9 13  2  0
 12 14  1  0
 10 15  1  0
 11 16  2  0
 12 17  2  0
 13 17  1  0
 15 18  2  0
 16 18  1  0
 15 19  1  0
 18 20  1  0
 19 21  1  0
 20 22  1  0
 21 22  1  0
 22 23  2  0
M  END
