mac-x0131-mac-x0404
     RDKit          3D

 33 37  0  0  0  0  0  0  0  0999 V2000
   -4.0650   14.4350   -3.8120 C   0  0  0  0  0  0  0  0  0  0  0  0
   -3.4060   14.5240   -2.4760 C   0  0  0  0  0  0  0  0  0  0  0  0
   -3.9630   14.9460   -1.2900 C   0  0  0  0  0  0  0  0  0  0  0  0
   -2.0720   14.1860   -2.2240 N   0  0  0  0  0  0  0  0  0  0  0  0
   -5.3610   15.4100   -1.0860 C   0  0  0  0  0  0  0  0  0  0  0  0
   -1.1100   13.7160   -3.2270 C   0  0  1  0  0  0  0  0  0  0  0  0
   -2.9460   14.8630   -0.2890 C   0  0  0  0  0  0  0  0  0  0  0  0
   -1.7930   14.4000   -0.9020 C   0  0  0  0  0  0  0  0  0  0  0  0
   -2.8500   15.1290    1.0810 C   0  0  0  0  0  0  0  0  0  0  0  0
   -0.6050   14.2000   -0.3090 N   0  0  0  0  0  0  0  0  0  0  0  0
   -1.0570   12.3660   -3.8010 C   0  0  0  0  0  0  0  0  0  0  0  0
   -1.2200   14.7990   -4.1380 C   0  0  0  0  0  0  0  0  0  0  0  0
   -3.9040   15.5930    1.8520 N   0  0  0  0  0  0  0  0  0  0  0  0
   -1.6750   14.9330    1.7090 N   0  0  0  0  0  0  0  0  0  0  0  0
   -0.6340   14.4920    0.9920 C   0  0  0  0  0  0  0  0  0  0  0  0
   -0.1030   11.7790   -4.6080 C   0  0  0  0  0  0  0  0  0  0  0  0
   -2.0580   11.5070   -3.5430 O   0  0  0  0  0  0  0  0  0  0  0  0
   -0.1000   15.5040   -4.2970 C   0  0  0  0  0  0  0  0  0  0  0  0
   -2.4190   15.1230   -4.7670 C   0  0  0  0  0  0  0  0  0  0  0  0
    1.0710   15.0730   -3.6470 O   0  0  0  0  0  0  0  0  0  0  0  0
   -1.7450   10.3610   -4.1820 C   0  0  0  0  0  0  0  0  0  0  0  0
   -0.5540   10.4790   -4.8470 C   0  0  0  0  0  0  0  0  0  0  0  0
   -0.1680   16.6330   -5.0720 C   0  0  0  0  0  0  0  0  0  0  0  0
   -2.4990   16.2370   -5.5600 C   0  0  0  0  0  0  0  0  0  0  0  0
    1.5740   13.7920   -4.1260 C   0  0  0  0  0  0  0  0  0  0  0  0
   -1.3640   17.0150   -5.7030 C   0  0  0  0  0  0  0  0  0  0  0  0
    0.9310   17.3860   -5.2110 C   0  0  0  0  0  0  0  0  0  0  0  0
    1.4200   12.6930   -3.0560 C   0  0  0  0  0  0  0  0  0  0  0  0
   -1.3790   18.1780   -6.4650 C   0  0  0  0  0  0  0  0  0  0  0  0
    0.9450   18.5380   -5.9560 C   0  0  0  0  0  0  0  0  0  0  0  0
    1.6490   13.1300   -1.8040 O   0  0  0  0  0  0  0  0  0  0  0  0
    1.1190   11.5180   -3.2210 O   0  0  0  0  0  0  0  0  0  0  0  0
   -0.2230   18.9410   -6.5900 C   0  0  0  0  0  0  0  0  0  0  0  0
  1  2  1  0
  2  3  2  0
  2  4  1  0
  3  5  1  0
  4  6  1  0
  3  7  1  0
  4  8  1  0
  7  8  2  0
  7  9  1  0
  8 10  1  0
  6 11  1  6
  6 12  1  0
  9 13  1  0
  9 14  2  0
 10 15  2  0
 14 15  1  0
 11 16  2  0
 11 17  1  0
 12 18  2  0
 12 19  1  0
 18 20  1  0
 17 21  1  0
 16 22  1  0
 21 22  2  0
 18 23  1  0
 19 24  2  0
 20 25  1  0
 23 26  2  0
 24 26  1  0
 23 27  1  0
 25 28  1  0
 26 29  1  0
 27 30  2  0
 28 31  1  0
 28 32  2  0
 29 33  2  0
 30 33  1  0
M  END
