mac-x0348-mac-x0212
     RDKit          3D

 28 30  0  0  0  0  0  0  0  0999 V2000
    0.7600   18.5910   -5.7440 C   0  0  0  0  0  0  0  0  0  0  0  0
    0.0590   17.4290   -5.2940 N   0  0  0  0  0  0  0  0  0  0  0  0
    0.5830   16.4760   -4.4650 C   0  0  0  0  0  0  0  0  0  0  0  0
   -1.2330   17.0960   -5.6390 C   0  0  0  0  0  0  0  0  0  0  0  0
   -0.4010   15.5330   -4.3080 C   0  0  0  0  0  0  0  0  0  0  0  0
   -1.5190   15.9000   -5.0270 C   0  0  0  0  0  0  0  0  0  0  0  0
   -2.1780   17.7180   -6.4340 C   0  0  0  0  0  0  0  0  0  0  0  0
   -0.3960   14.3400   -3.5920 C   0  0  0  0  0  0  0  0  0  0  0  0
   -2.7560   15.2720   -5.1940 C   0  0  0  0  0  0  0  0  0  0  0  0
   -3.4150   17.0760   -6.6010 C   0  0  0  0  0  0  0  0  0  0  0  0
    0.7090   13.4130   -4.0320 C   0  0  0  0  0  0  0  0  0  0  0  0
   -1.2420   13.9200   -2.6270 C   0  0  0  0  0  0  0  0  0  0  0  0
   -3.7030   15.8710   -5.9930 C   0  0  0  0  0  0  0  0  0  0  0  0
    0.9950   12.4000   -2.9490 C   0  0  0  0  0  0  0  0  0  0  0  0
   -0.9930   12.6650   -2.1840 O   0  0  0  0  0  0  0  0  0  0  0  0
   -2.4160   14.4150   -1.8700 C   0  0  0  0  0  0  0  0  0  0  0  0
    1.7080   12.5080   -1.9780 O   0  0  0  0  0  0  0  0  0  0  0  0
    0.3190   11.2420   -3.1380 O   0  0  0  0  0  0  0  0  0  0  0  0
   -2.3250   14.0800   -0.5220 C   0  0  0  0  0  0  0  0  0  0  0  0
   -3.5540   15.1170   -2.3240 C   0  0  0  0  0  0  0  0  0  0  0  0
   -3.3150   14.3920    0.3810 C   0  0  0  0  0  0  0  0  0  0  0  0
   -4.5710   15.4360   -1.3900 C   0  0  0  0  0  0  0  0  0  0  0  0
   -4.4410   15.0580   -0.0360 C   0  0  0  0  0  0  0  0  0  0  0  0
   -5.4590   15.3430    0.9060 N   0  0  0  0  0  0  0  0  0  0  0  0
   -6.8930   14.4570    0.9460 S   0  0  0  0  0  0  0  0  0  0  0  0
   -6.2960   12.8170    1.3140 C   0  0  0  0  0  0  0  0  0  0  0  0
   -7.7520   14.9060    2.0220 O   0  0  0  0  0  0  0  0  0  0  0  0
   -7.3800   14.4560   -0.4180 O   0  0  0  0  0  0  0  0  0  0  0  0
  1  2  1  0
  2  3  1  0
  2  4  1  0
  3  5  2  0
  4  6  2  0
  5  6  1  0
  4  7  1  0
  5  8  1  0
  6  9  1  0
  7 10  2  0
  8 11  1  0
  8 12  2  3
  9 13  2  0
 10 13  1  0
 11 14  1  0
 12 15  1  0
 12 16  1  0
 14 17  2  0
 14 18  1  0
 16 19  2  0
 16 20  1  0
 19 21  1  0
 20 22  2  0
 21 23  2  0
 22 23  1  0
 23 24  1  0
 25 24  1  0
 25 26  1  0
 25 27  2  0
 25 28  2  0
M  END
