mac-x0433-mac-x0138
     RDKit          3D

 19 21  0  0  0  0  0  0  0  0999 V2000
   -8.1250   14.6780    1.4460 C   0  0  0  0  0  0  0  0  0  0  0  0
   -6.9540   14.7900    0.5260 C   0  0  0  0  0  0  0  0  0  0  0  0
   -7.2330   14.9830   -0.7840 N   0  0  0  0  0  0  0  0  0  0  0  0
   -5.6610   14.6920    1.0360 C   0  0  0  0  0  0  0  0  0  0  0  0
   -4.6520   14.7940    0.1200 C   0  0  0  0  0  0  0  0  0  0  0  0
   -6.1890   15.0760   -1.5900 C   0  0  0  0  0  0  0  0  0  0  0  0
   -6.3700   15.2540   -2.9490 N   0  0  0  0  0  0  0  0  0  0  0  0
   -4.9470   14.9920   -1.1810 N   0  0  0  0  0  0  0  0  0  0  0  0
   -3.2020   14.7000    0.2490 C   0  0  0  0  0  0  0  0  0  0  0  0
   -2.7270   14.7960   -1.0110 C   0  0  0  0  0  0  0  0  0  0  0  0
   -2.3150   14.5220    1.3280 N   0  0  0  0  0  0  0  0  0  0  0  0
   -3.4010   14.9740   -2.1980 N   0  0  0  0  0  0  0  0  0  0  0  0
   -1.3910   14.7100   -1.2000 C   0  0  0  0  0  0  0  0  0  0  0  0
   -0.9910   14.4400    0.9920 C   0  0  0  0  0  0  0  0  0  0  0  0
   -0.0750   14.2300    2.0200 N   0  0  0  0  0  0  0  0  0  0  0  0
   -1.2500   14.8440   -2.5550 N   0  0  0  0  0  0  0  0  0  0  0  0
   -2.4880   14.9970   -3.1070 C   0  0  0  0  0  0  0  0  0  0  0  0
   -0.4620   14.5320   -0.2500 N   0  0  0  0  0  0  0  0  0  0  0  0
   -0.0220   14.8300   -3.2860 C   0  0  0  0  0  0  0  0  0  0  0  0
  1  2  1  0
  2  3  2  0
  2  4  1  0
  4  5  2  0
  3  6  1  0
  6  7  1  0
  5  8  1  0
  6  8  2  0
  5  9  1  0
  9 10  1  0
  9 11  2  0
 10 12  1  0
 10 13  2  0
 11 14  1  0
 14 15  1  0
 13 16  1  0
 12 17  2  0
 16 17  1  0
 13 18  1  0
 14 18  2  0
 16 19  1  0
M  END
