mac-x0357-mac-x0398
     RDKit          3D

 21 22  0  0  0  0  0  0  0  0999 V2000
    2.1400   13.4170   -4.4290 C   0  0  0  0  0  0  0  0  0  0  0  0
    0.8430   12.7320   -4.7720 C   0  0  0  0  0  0  0  0  0  0  0  0
    0.7720   11.9960   -5.9680 C   0  0  0  0  0  0  0  0  0  0  0  0
   -0.3240   12.7850   -3.9440 C   0  0  0  0  0  0  0  0  0  0  0  0
    1.8760   11.9360   -6.7700 O   0  0  0  0  0  0  0  0  0  0  0  0
   -0.3670   13.5390   -2.6450 C   0  0  0  0  0  0  0  0  0  0  0  0
   -1.4850   12.1040   -4.3450 C   0  0  0  0  0  0  0  0  0  0  0  0
   -0.3860   11.3260   -6.3530 C   0  0  0  0  0  0  0  0  0  0  0  0
   -1.3180   14.3260   -2.1170 N   0  0  0  0  0  0  0  0  0  0  0  0
    0.7990   13.2870   -2.0020 O   0  0  0  0  0  0  0  0  0  0  0  0
   -1.5140   11.3790   -5.5390 C   0  0  0  0  0  0  0  0  0  0  0  0
   -2.6210   14.7250   -2.5550 C   0  0  0  0  0  0  0  0  0  0  0  0
   -2.9710   15.0040   -3.7040 O   0  0  0  0  0  0  0  0  0  0  0  0
   -3.6460   14.8140   -1.4310 C   0  0  0  0  0  0  0  0  0  0  0  0
   -5.0450   15.0200   -1.5770 C   0  0  0  0  0  0  0  0  0  0  0  0
   -3.1480   14.6740   -0.1300 C   0  0  0  0  0  0  0  0  0  0  0  0
   -5.6900   15.1800   -2.7720 O   0  0  0  0  0  0  0  0  0  0  0  0
   -5.8820   15.0640   -0.4500 C   0  0  0  0  0  0  0  0  0  0  0  0
   -3.9910   14.7220    0.9820 C   0  0  0  0  0  0  0  0  0  0  0  0
   -5.3650   14.9100    0.8340 C   0  0  0  0  0  0  0  0  0  0  0  0
   -6.1900   14.9410    1.9660 N   0  0  0  0  0  0  0  0  0  0  0  0
  1  2  1  0
  2  3  2  0
  2  4  1  0
  3  5  1  0
  4  6  1  0
  4  7  2  0
  3  8  1  0
  6  9  2  3
  6 10  1  0
  7 11  1  0
  8 11  2  0
  9 12  1  0
 12 13  2  0
 12 14  1  0
 14 15  2  0
 14 16  1  0
 15 17  1  0
 15 18  1  0
 16 19  2  0
 18 20  2  0
 19 20  1  0
 20 21  1  0
M  END
