mac-x0231-mac-x0397
     RDKit          3D

 27 30  0  0  0  0  0  0  0  0999 V2000
    0.6450   10.8590   -3.3700 O   0  0  0  0  0  0  0  0  0  0  0  0
    1.3690   11.9770   -3.1630 C   0  0  0  0  0  0  0  0  0  0  0  0
    1.4880   12.4200   -2.0360 O   0  0  0  0  0  0  0  0  0  0  0  0
    1.9490   12.5700   -4.4160 C   0  0  0  0  0  0  0  0  0  0  0  0
    1.4730   13.9710   -4.4500 C   0  0  0  0  0  0  0  0  0  0  0  0
    0.0480   14.1560   -4.4770 C   0  0  0  0  0  0  0  0  0  0  0  0
    2.3020   14.9360   -4.3600 N   0  0  0  0  0  0  0  0  0  0  0  0
   -0.4130   15.4560   -4.4910 C   0  0  0  0  0  0  0  0  0  0  0  0
    1.8050   16.1980   -4.3270 N   0  0  0  0  0  0  0  0  0  0  0  0
   -0.8100   13.0660   -4.4560 C   0  0  0  0  0  0  0  0  0  0  0  0
    0.5230   16.5630   -4.5360 C   0  0  0  0  0  0  0  0  0  0  0  0
   -1.7450   15.6920   -4.4390 C   0  0  0  0  0  0  0  0  0  0  0  0
   -2.1500   13.3020   -4.4020 C   0  0  0  0  0  0  0  0  0  0  0  0
    0.1640   17.7200   -4.7430 O   0  0  0  0  0  0  0  0  0  0  0  0
   -2.5810   14.6100   -4.3730 C   0  0  0  0  0  0  0  0  0  0  0  0
   -3.9590   14.8770   -4.2360 C   0  0  0  0  0  0  0  0  0  0  0  0
   -4.2730   14.9060   -2.7420 C   0  0  0  0  0  0  0  0  0  0  0  0
   -5.5900   15.0880   -2.5470 C   0  0  0  0  0  0  0  0  0  0  0  0
   -3.3940   14.7650   -1.5930 C   0  0  0  0  0  0  0  0  0  0  0  0
   -3.9960   14.8110   -0.2830 C   0  0  0  0  0  0  0  0  0  0  0  0
   -6.1200   15.1300   -1.3130 C   0  0  0  0  0  0  0  0  0  0  0  0
   -7.7920   15.3630   -1.1640 Cl  0  0  0  0  0  0  0  0  0  0  0  0
   -5.3720   14.9870   -0.1490 C   0  0  0  0  0  0  0  0  0  0  0  0
   -3.3490   14.6820    1.3310 S   0  0  0  0  0  0  0  0  0  0  0  0
   -4.9260   14.8580    2.0000 C   0  0  0  0  0  0  0  0  0  0  0  0
   -5.8700   14.9990    1.1360 N   0  0  0  0  0  0  0  0  0  0  0  0
   -5.1780   14.8480    3.3210 N   0  0  0  0  0  0  0  0  0  0  0  0
  1  2  1  0
  2  3  2  0
  2  4  1  0
  4  5  1  0
  5  6  1  0
  5  7  2  0
  6  8  2  0
  7  9  1  0
  6 10  1  0
  8 11  1  0
  9 11  1  0
  8 12  1  0
 10 13  2  0
 11 14  2  0
 12 15  2  0
 13 15  1  0
 15 16  1  0
 16 17  1  0
 17 18  2  0
 17 19  1  0
 19 20  2  0
 18 21  1  0
 21 22  1  0
 20 23  1  0
 21 23  2  0
 20 24  1  0
 24 25  1  0
 23 26  1  0
 25 26  2  0
 25 27  1  0
M  END
