mac-x0142-mac-x0360
     RDKit          3D

 28 32  0  0  0  0  0  0  0  0999 V2000
   -8.3720   10.6080    1.3870 Cl  0  0  0  0  0  0  0  0  0  0  0  0
   -7.0910   11.2340    0.4320 C   0  0  0  0  0  0  0  0  0  0  0  0
   -6.5920   10.5400   -0.6620 C   0  0  0  0  0  0  0  0  0  0  0  0
   -6.5760   12.4390    0.7910 C   0  0  0  0  0  0  0  0  0  0  0  0
   -5.5550   12.9910    0.0800 C   0  0  0  0  0  0  0  0  0  0  0  0
   -5.5430   11.0890   -1.4010 C   0  0  0  0  0  0  0  0  0  0  0  0
   -4.9330   10.2010   -2.7490 Cl  0  0  0  0  0  0  0  0  0  0  0  0
   -4.9470   14.5610    0.6540 S   0  0  0  0  0  0  0  0  0  0  0  0
   -5.0100   12.3270   -1.0390 C   0  0  0  0  0  0  0  0  0  0  0  0
   -3.4890   14.0620   -0.0080 N   0  0  0  0  0  0  0  0  0  0  0  0
   -5.2060   15.6350   -0.6090 N   0  0  0  0  0  0  0  0  0  0  0  0
   -3.9330   15.6490   -0.7350 C   0  0  0  0  0  0  0  0  0  0  0  0
   -3.2380   15.7420    0.4820 N   0  0  0  0  0  0  0  0  0  0  0  0
   -3.1800   15.5390   -1.8070 C   0  0  0  0  0  0  0  0  0  0  0  0
   -2.0220   15.6140    0.1460 C   0  0  0  0  0  0  0  0  0  0  0  0
   -1.8650   15.4420   -1.3050 C   0  0  0  0  0  0  0  0  0  0  0  0
   -0.9770   15.6220    0.9920 N   0  0  0  0  0  0  0  0  0  0  0  0
   -0.6830   15.2170   -1.8280 C   0  0  0  0  0  0  0  0  0  0  0  0
   -0.5030   15.0220   -3.1950 N   0  0  0  0  0  0  0  0  0  0  0  0
    0.3520   15.1630   -0.9110 N   0  0  0  0  0  0  0  0  0  0  0  0
    0.1360   15.4070    0.4200 C   0  0  0  0  0  0  0  0  0  0  0  0
   -1.6430   14.6250   -4.0560 C   0  0  0  0  0  0  0  0  0  0  0  0
    0.8230   14.9670   -3.8010 C   0  0  0  0  0  0  0  0  0  0  0  0
    1.0180   13.5850   -4.3680 C   0  0  0  0  0  0  0  0  0  0  0  0
   -1.4380   13.2380   -4.6610 C   0  0  0  0  0  0  0  0  0  0  0  0
    2.4040   13.0480   -4.6150 C   0  0  0  0  0  0  0  0  0  0  0  0
    1.6120   12.5390   -3.4390 C   0  0  0  0  0  0  0  0  0  0  0  0
   -0.0630   13.1440   -5.3200 C   0  0  0  0  0  0  0  0  0  0  0  0
  1  2  1  0
  2  3  2  0
  2  4  1  0
  4  5  2  0
  3  6  1  0
  6  7  1  0
  5  8  1  0
  5  9  1  0
  6  9  2  0
  8 10  1  0
  8 11  2  3
 11 12  1  0
 12 13  1  0
 12 14  2  0
 13 15  2  0
 14 16  1  0
 15 16  1  0
 15 17  1  0
 16 18  2  0
 18 19  1  0
 18 20  1  0
 17 21  2  0
 20 21  1  0
 19 22  1  0
 19 23  1  0
 24 23  1  0
 22 25  1  0
 24 26  1  0
 24 27  1  0
 26 27  1  0
 24 28  1  0
 25 28  1  0
M  END
