mac-x0284-mac-x0433
     RDKit          3D

 18 19  0  0  0  0  0  0  0  0999 V2000
   -0.9710   15.1010   -4.6630 O   0  0  0  0  0  0  0  0  0  0  0  0
   -1.7490   15.0190   -3.5480 C   0  0  0  0  0  0  0  0  0  0  0  0
   -1.2790   14.7150   -2.2610 C   0  0  0  0  0  0  0  0  0  0  0  0
   -3.0670   15.2570   -3.7770 C   0  0  0  0  0  0  0  0  0  0  0  0
    0.1540   14.4660   -2.0560 C   0  0  0  0  0  0  0  0  0  0  0  0
   -2.1830   14.6410   -1.1630 C   0  0  0  0  0  0  0  0  0  0  0  0
   -3.9270   15.1830   -2.7370 C   0  0  0  0  0  0  0  0  0  0  0  0
    0.7820   14.5770   -1.0310 O   0  0  0  0  0  0  0  0  0  0  0  0
    0.7510   14.0770   -3.2000 O   0  0  0  0  0  0  0  0  0  0  0  0
   -3.5400   14.8760   -1.4340 C   0  0  0  0  0  0  0  0  0  0  0  0
   -4.7600   14.8650   -0.6950 C   0  0  0  0  0  0  0  0  0  0  0  0
   -5.5780   15.0270   -1.7120 N   0  0  0  0  0  0  0  0  0  0  0  0
   -5.1950   14.7250    0.6040 C   0  0  0  0  0  0  0  0  0  0  0  0
   -6.8380   15.0510   -1.5350 C   0  0  0  0  0  0  0  0  0  0  0  0
   -6.5910   14.7580    0.7030 C   0  0  0  0  0  0  0  0  0  0  0  0
   -7.2870   14.6070    2.0150 C   0  0  0  0  0  0  0  0  0  0  0  0
   -7.6010   15.2020   -2.6590 N   0  0  0  0  0  0  0  0  0  0  0  0
   -7.4130   14.9220   -0.3610 N   0  0  0  0  0  0  0  0  0  0  0  0
  1  2  1  0
  2  3  2  0
  2  4  1  0
  3  5  1  0
  3  6  1  0
  4  7  2  0
  5  8  2  0
  5  9  1  0
  6 10  2  0
  7 10  1  0
 10 11  1  0
 11 12  2  0
 11 13  1  0
 12 14  1  0
 13 15  2  0
 15 16  1  0
 14 17  1  0
 14 18  2  0
 15 18  1  0
M  END
