mac-x0587-diamond-x0662_0_A
     RDKit          3D

 32 34  0  0  0  0  0  0  0  0999 V2000
    0.0910   15.8450   -4.2210 C   0  0  0  0  0  0  0  0  0  0  0  0
   -0.8140   14.6270   -3.9590 C   0  0  2  0  0  0  0  0  0  0  0  0
   -0.6840   13.4790   -5.3750 S   0  0  0  0  0  0  0  0  0  0  0  0
   -2.2220   15.0290   -3.4980 C   0  0  0  0  0  0  0  0  0  0  0  0
    0.1530   12.0160   -4.9120 C   0  0  0  0  0  0  0  0  0  0  0  0
   -3.0320   15.5270   -4.2910 O   0  0  0  0  0  0  0  0  0  0  0  0
   -2.6030   14.8240   -2.1750 N   0  0  0  0  0  0  0  0  0  0  0  0
    0.6690   11.9910   -3.5030 C   0  0  0  0  0  0  0  0  0  0  0  0
    0.4380   10.8690   -5.5770 C   0  0  0  0  0  0  0  0  0  0  0  0
   -3.9620   15.1110   -1.7550 C   0  0  0  0  0  0  0  0  0  0  0  0
   -1.7820   14.7450   -1.0390 C   0  0  0  0  0  0  0  0  0  0  0  0
    0.6430   11.0210   -2.7560 O   0  0  0  0  0  0  0  0  0  0  0  0
    1.2190   13.1400   -3.0740 O   0  0  0  0  0  0  0  0  0  0  0  0
   -0.5690   14.7970   -0.9390 O   0  0  0  0  0  0  0  0  0  0  0  0
    1.0700    9.9780   -5.0080 O   0  0  0  0  0  0  0  0  0  0  0  0
   -3.8890   15.2010   -0.2390 C   0  0  0  0  0  0  0  0  0  0  0  0
   -2.6210   14.5970    0.0650 N   0  0  0  0  0  0  0  0  0  0  0  0
    0.0830   10.4620   -7.0000 C   0  0  0  0  0  0  0  0  0  0  0  0
   -1.0990    9.7510   -7.2330 C   0  0  0  0  0  0  0  0  0  0  0  0
    0.9180   10.7330   -8.0900 C   0  0  0  0  0  0  0  0  0  0  0  0
   -1.4270    9.3210   -8.5190 C   0  0  0  0  0  0  0  0  0  0  0  0
    0.6140   10.3000   -9.3990 C   0  0  0  0  0  0  0  0  0  0  0  0
    1.4080   10.5010  -10.5600 N   0  0  0  0  0  0  0  0  0  0  0  0
   -0.5750    9.5900   -9.5910 C   0  0  0  0  0  0  0  0  0  0  0  0
    2.1190    9.5310  -11.2730 C   0  0  0  0  0  0  0  0  0  0  0  0
    2.2110    8.3420  -10.9890 O   0  0  0  0  0  0  0  0  0  0  0  0
    2.8360   10.0370  -12.4770 C   0  0  0  0  0  0  0  0  0  0  0  0
    2.6770   11.2800  -13.1510 C   0  0  0  0  0  0  0  0  0  0  0  0
    3.7950    9.2900  -13.0780 N   0  0  0  0  0  0  0  0  0  0  0  0
    4.2220   10.0520  -14.0980 N   0  0  0  0  0  0  0  0  0  0  0  0
    3.5840   11.2560  -14.1890 C   0  0  0  0  0  0  0  0  0  0  0  0
    5.2690    9.5530  -14.9620 C   0  0  0  0  0  0  0  0  0  0  0  0
  2  1  1  6
  2  3  1  0
  2  4  1  0
  3  5  1  0
  4  6  2  0
  4  7  1  0
  5  8  1  0
  5  9  2  3
  7 10  1  0
  7 11  1  0
  8 12  2  0
  8 13  1  0
 11 14  2  0
  9 15  1  0
 10 16  1  0
 11 17  1  0
 16 17  1  0
  9 18  1  0
 18 19  2  0
 18 20  1  0
 19 21  1  0
 20 22  2  0
 22 23  1  0
 21 24  2  0
 22 24  1  0
 23 25  1  0
 25 26  2  0
 25 27  1  0
 27 28  1  0
 27 29  2  0
 29 30  1  0
 28 31  2  0
 30 31  1  0
 30 32  1  0
M  CHG  1  15  -1
M  END
