mac-x0338-diamond-x1018_0_A
     RDKit          3D

 14 15  0  0  0  0  0  0  0  0999 V2000
   -3.8050   15.6390    2.1450 N   0  0  0  0  0  0  0  0  0  0  0  0
   -4.8260   15.2340    1.4080 C   0  0  0  0  0  0  0  0  0  0  0  0
   -5.9620   15.2460    1.8820 O   0  0  0  0  0  0  0  0  0  0  0  0
   -4.5540   14.6440    0.0340 C   0  0  2  0  0  0  0  0  0  0  0  0
   -3.1650   14.7620   -0.4480 N   0  0  0  0  0  0  0  0  0  0  0  0
   -5.5970   14.9920   -1.0400 C   0  0  0  0  0  0  0  0  0  0  0  0
   -4.8780   13.2880    0.4920 C   0  0  0  0  0  0  0  0  0  0  0  0
   -3.0150   14.9030   -1.8180 C   0  0  0  0  0  0  0  0  0  0  0  0
   -5.3660   15.1940   -2.2990 N   0  0  0  0  0  0  0  0  0  0  0  0
   -6.8660   15.0770   -0.5570 N   0  0  0  0  0  0  0  0  0  0  0  0
   -6.1790   13.0240    0.6490 C   0  0  0  0  0  0  0  0  0  0  0  0
   -4.0430   15.1040   -2.6680 C   0  0  0  0  0  0  0  0  0  0  0  0
   -7.1320   14.1310    0.2830 C   0  0  0  0  0  0  0  0  0  0  0  0
   -8.7030   14.2040    0.9800 Cl  0  0  0  0  0  0  0  0  0  0  0  0
  1  2  1  0
  2  3  2  0
  4  2  1  1
  4  5  1  0
  4  6  1  0
  4  7  1  0
  5  8  1  0
  6  9  2  0
  6 10  1  0
  7 11  2  0
  8 12  2  0
  9 12  1  0
 10 13  2  0
 11 13  1  0
 13 14  1  0
M  END
