mac-x0433-diamond-x0895_0_A
     RDKit          3D

 15 16  0  0  0  0  0  0  0  0999 V2000
   -3.7840   13.3590    0.7350 C   0  0  0  0  0  0  0  0  0  0  0  0
   -5.0380   13.7110   -0.0550 C   0  0  1  0  0  0  0  0  0  0  0  0
   -6.0820   14.2560    0.9040 C   0  0  0  0  0  0  0  0  0  0  0  0
   -4.7320   14.6710   -1.0950 N   0  0  0  0  0  0  0  0  0  0  0  0
   -5.9140   15.3020   -1.6540 C   0  0  1  0  0  0  0  0  0  0  0  0
   -7.3640   14.2660    0.1200 C   0  0  1  0  0  0  0  0  0  0  0  0
   -3.7130   15.5240   -0.6340 C   0  0  1  0  0  0  0  0  0  0  0  0
   -8.4840   14.9310    0.9030 C   0  0  0  0  0  0  0  0  0  0  0  0
   -6.0140   15.0650   -3.0620 N   0  0  0  0  0  0  0  0  0  0  0  0
   -7.2220   14.8980   -1.1960 N   0  0  0  0  0  0  0  0  0  0  0  0
   -4.1860   16.1270    0.6040 N   0  0  0  0  0  0  0  0  0  0  0  0
   -2.4910   14.8920   -0.2450 N   0  0  0  0  0  0  0  0  0  0  0  0
   -3.7450   15.2190    1.6510 C   0  0  0  0  0  0  0  0  0  0  0  0
   -2.3760   14.8590    1.1400 C   0  0  0  0  0  0  0  0  0  0  0  0
   -1.3790   14.5940    1.7900 O   0  0  0  0  0  0  0  0  0  0  0  0
  2  1  1  1
  2  3  1  0
  2  4  1  0
  4  5  1  0
  3  6  1  0
  7  4  1  1
  6  8  1  1
  5  9  1  6
  5 10  1  0
  6 10  1  0
  7 11  1  0
  7 12  1  0
 11 13  1  0
 12 14  1  0
 13 14  1  0
 14 15  2  0
M  END
