mac-x0344-mac-x0148
     RDKit          3D

 30 34  0  0  0  0  0  0  0  0999 V2000
    1.8840   13.4560   -4.3720 O   0  0  0  0  0  0  0  0  0  0  0  0
    1.1200   12.7410   -3.3890 C   0  0  0  0  0  0  0  0  0  0  0  0
    1.8480   12.7100   -2.1810 O   0  0  0  0  0  0  0  0  0  0  0  0
    0.6070   11.3640   -3.8910 C   0  0  0  0  0  0  0  0  0  0  0  0
   -0.3050   13.2540   -3.2770 C   0  0  1  0  0  0  0  0  0  0  0  0
    0.4550   10.4420   -3.0960 O   0  0  0  0  0  0  0  0  0  0  0  0
    0.3120   11.3540   -5.2530 N   0  0  0  0  0  0  0  0  0  0  0  0
   -1.3730   12.2120   -3.0680 C   0  0  0  0  0  0  0  0  0  0  0  0
   -0.7610   14.5970   -2.8130 N   0  0  0  0  0  0  0  0  0  0  0  0
   -0.6130   10.5140   -5.9200 C   0  0  0  0  0  0  0  0  0  0  0  0
   -1.5930   14.8730   -4.0470 C   0  0  2  0  0  0  0  0  0  0  0  0
   -2.1970   12.3370   -4.3030 C   0  0  0  0  0  0  0  0  0  0  0  0
   -1.1450   14.6850   -1.4260 C   0  0  0  0  0  0  0  0  0  0  0  0
   -0.3330   10.1650   -7.2460 C   0  0  0  0  0  0  0  0  0  0  0  0
   -1.7770   10.0190   -5.3270 C   0  0  0  0  0  0  0  0  0  0  0  0
   -2.5990   15.9870   -4.2060 C   0  0  0  0  0  0  0  0  0  0  0  0
   -2.6250   13.7760   -4.3760 C   0  0  2  0  0  0  0  0  0  0  0  0
   -0.1420   14.5790   -0.4620 N   0  0  0  0  0  0  0  0  0  0  0  0
   -2.3760   14.8730   -0.8690 C   0  0  0  0  0  0  0  0  0  0  0  0
   -1.2060    9.3350   -7.9620 C   0  0  0  0  0  0  0  0  0  0  0  0
   -2.6490    9.1920   -6.0420 C   0  0  0  0  0  0  0  0  0  0  0  0
   -3.1090   14.2580   -5.7020 C   0  0  0  0  0  0  0  0  0  0  0  0
   -3.2530   15.6720   -5.4710 O   0  0  0  0  0  0  0  0  0  0  0  0
   -0.3770   14.5880    0.8920 C   0  0  0  0  0  0  0  0  0  0  0  0
   -2.5290   14.9280    0.6230 C   0  0  0  0  0  0  0  0  0  0  0  0
   -3.7260   15.0740   -1.3030 C   0  0  0  0  0  0  0  0  0  0  0  0
   -2.3630    8.8500   -7.3590 C   0  0  0  0  0  0  0  0  0  0  0  0
   -1.4990   14.7370    1.4840 N   0  0  0  0  0  0  0  0  0  0  0  0
   -3.7450   15.1770    0.9990 N   0  0  0  0  0  0  0  0  0  0  0  0
   -4.4470   15.2570   -0.1850 C   0  0  0  0  0  0  0  0  0  0  0  0
  2  1  1  0
  2  3  1  0
  2  4  1  0
  5  2  1  1
  4  6  2  0
  4  7  1  0
  5  8  1  0
  5  9  1  0
  7 10  1  0
  9 11  1  0
  8 12  1  0
  9 13  1  0
 10 14  2  0
 10 15  1  0
 11 16  1  1
 11 17  1  0
 17 12  1  6
 13 18  1  0
 13 19  2  0
 14 20  1  0
 15 21  2  0
 17 22  1  0
 16 23  1  0
 22 23  1  0
 18 24  1  0
 19 25  1  0
 19 26  1  0
 20 27  2  0
 21 27  1  0
 24 28  2  0
 25 28  1  0
 25 29  2  0
 26 30  2  0
 29 30  1  0
M  END
