mac-x0588-mac-x0137
     RDKit          3D

 22 25  0  0  0  0  0  0  0  0999 V2000
   -4.2980   15.4090    1.1860 N   0  0  0  0  0  0  0  0  0  0  0  0
   -3.4420   14.9640    0.0880 C   0  0  2  0  0  0  0  0  0  0  0  0
   -1.9750   15.4480    0.2220 C   0  0  2  0  0  0  0  0  0  0  0  0
   -4.1250   15.4790   -1.0660 N   0  0  0  0  0  0  0  0  0  0  0  0
   -3.4050   15.2640   -2.3070 C   0  0  0  0  0  0  0  0  0  0  0  0
   -1.2060   15.5010   -1.1270 C   0  0  2  0  0  0  0  0  0  0  0  0
   -1.0980   14.6750    1.1050 N   0  0  0  0  0  0  0  0  0  0  0  0
   -2.0330   15.7870   -2.3100 N   0  0  0  0  0  0  0  0  0  0  0  0
   -0.6620   14.0500   -1.2600 C   0  0  1  0  0  0  0  0  0  0  0  0
   -0.4160   13.7210    0.2290 C   0  0  0  0  0  0  0  0  0  0  0  0
   -1.2450   15.2930   -3.4460 C   0  0  0  0  0  0  0  0  0  0  0  0
   -1.6870   13.1110   -1.9670 C   0  0  0  0  0  0  0  0  0  0  0  0
    0.6640   13.8460   -2.0900 C   0  0  0  0  0  0  0  0  0  0  0  0
   -0.9980   16.2080   -4.6300 C   0  0  1  0  0  0  0  0  0  0  0  0
   -1.6520   13.0570   -3.5070 C   0  0  2  0  0  0  0  0  0  0  0  0
    0.7000   12.5360   -2.9240 C   0  0  0  0  0  0  0  0  0  0  0  0
   -2.7120   12.3310   -3.9510 F   0  0  0  0  0  0  0  0  0  0  0  0
   -1.5810   17.5200   -4.4590 O   0  0  0  0  0  0  0  0  0  0  0  0
    0.5000   16.4090   -4.8780 C   0  0  0  0  0  0  0  0  0  0  0  0
   -0.3660   12.4510   -4.0160 C   0  0  0  0  0  0  0  0  0  0  0  0
    0.4910   17.7290   -5.5880 C   0  0  0  0  0  0  0  0  0  0  0  0
   -0.5700   18.4490   -4.8010 C   0  0  0  0  0  0  0  0  0  0  0  0
  2  1  1  1
  2  3  1  0
  2  4  1  0
  4  5  1  0
  3  6  1  0
  3  7  1  1
  5  8  1  0
  6  8  1  6
  6  9  1  0
  7 10  1  0
  9 10  1  1
  8 11  1  0
  9 12  1  0
  9 13  1  0
 14 11  1  1
 12 15  1  0
 13 16  1  0
 15 17  1  1
 14 18  1  0
 14 19  1  0
 15 20  1  0
 16 20  1  0
 19 21  1  0
 18 22  1  0
 21 22  1  0
M  END
