mac-x0301-mac-x0231
     RDKit          3D

 27 30  0  0  0  0  0  0  0  0999 V2000
   -1.5390   14.9480   -3.4620 O   0  0  0  0  0  0  0  0  0  0  0  0
   -1.6880   13.7450   -2.8980 C   0  0  0  0  0  0  0  0  0  0  0  0
   -1.4180   12.8400   -3.7970 N   0  0  0  0  0  0  0  0  0  0  0  0
   -2.0690   14.1970   -1.5790 C   0  0  0  0  0  0  0  0  0  0  0  0
   -1.4480   14.0780   -0.3560 C   0  0  0  0  0  0  0  0  0  0  0  0
   -3.2870   14.9040   -1.6510 C   0  0  0  0  0  0  0  0  0  0  0  0
   -1.4010   13.9750   -4.4660 C   0  0  0  0  0  0  0  0  0  0  0  0
   -2.0510   14.6640    0.7520 C   0  0  0  0  0  0  0  0  0  0  0  0
   -3.8730   15.4750   -0.5260 C   0  0  0  0  0  0  0  0  0  0  0  0
   -0.2790   13.4600   -0.0100 O   0  0  0  0  0  0  0  0  0  0  0  0
   -0.2620   14.6910   -4.6580 C   0  0  0  0  0  0  0  0  0  0  0  0
   -2.6730   14.4170   -4.8610 C   0  0  0  0  0  0  0  0  0  0  0  0
   -3.2440   15.3540    0.7030 C   0  0  0  0  0  0  0  0  0  0  0  0
   -1.3270   14.4840    1.8790 O   0  0  0  0  0  0  0  0  0  0  0  0
   -0.0930   14.0900    1.2790 C   0  0  0  0  0  0  0  0  0  0  0  0
    1.1330   14.2640   -4.3220 C   0  0  0  0  0  0  0  0  0  0  0  0
   -0.4500   15.9540   -5.1820 C   0  0  0  0  0  0  0  0  0  0  0  0
   -2.8380   15.6560   -5.4310 C   0  0  0  0  0  0  0  0  0  0  0  0
    1.5660   12.8100   -4.1940 C   0  0  0  0  0  0  0  0  0  0  0  0
    0.7200   16.7840   -5.2840 C   0  0  0  0  0  0  0  0  0  0  0  0
    2.0750   15.1260   -4.1930 N   0  0  0  0  0  0  0  0  0  0  0  0
   -1.7130   16.4460   -5.5710 C   0  0  0  0  0  0  0  0  0  0  0  0
    1.1960   12.1260   -2.9180 C   0  0  0  0  0  0  0  0  0  0  0  0
    0.7910   17.7350   -6.0410 O   0  0  0  0  0  0  0  0  0  0  0  0
    1.6970   16.4090   -4.3950 N   0  0  0  0  0  0  0  0  0  0  0  0
    0.6230   10.9050   -3.0700 O   0  0  0  0  0  0  0  0  0  0  0  0
    1.3940   12.6140   -1.8230 O   0  0  0  0  0  0  0  0  0  0  0  0
  1  2  1  0
  2  3  2  3
  2  4  1  0
  4  5  1  0
  4  6  2  0
  3  7  1  0
  5  8  2  0
  6  9  1  0
  5 10  1  0
  7 11  1  0
  7 12  2  0
  8 13  1  0
  9 13  2  0
  8 14  1  0
 10 15  1  0
 14 15  1  0
 11 16  1  0
 11 17  2  0
 12 18  1  0
 16 19  1  0
 17 20  1  0
 16 21  2  0
 17 22  1  0
 18 22  2  0
 19 23  1  0
 20 24  2  0
 20 25  1  0
 21 25  1  0
 23 26  1  0
 23 27  2  0
M  END
