mac-x0182-diamond-x0253_0_A
     RDKit          3D

 24 27  0  0  0  0  0  0  0  0999 V2000
    0.3530   12.2500   -6.2870 N   0  0  0  0  0  0  0  0  0  0  0  0
    1.2680   11.6790   -6.6930 C   0  0  0  0  0  0  0  0  0  0  0  0
    2.3650   12.1130   -6.1150 N   0  0  0  0  0  0  0  0  0  0  0  0
   -0.8970   11.7380   -6.4830 C   0  0  1  0  0  0  0  0  0  0  0  0
   -1.5230   11.8310   -4.8830 S   0  0  2  0  0  0  0  0  0  0  0  0
   -1.9460   11.8200   -7.5960 C   0  0  1  0  0  0  0  0  0  0  0  0
    0.8770   10.5550   -7.6470 C   0  0  0  0  0  0  0  0  0  0  0  0
   -1.9330   13.1900   -4.6160 O   0  0  0  0  0  0  0  0  0  0  0  0
   -0.2740   11.2280   -4.1260 N   0  0  0  0  0  0  0  0  0  0  0  0
    1.9110   12.7570   -4.7980 C   0  0  0  0  0  0  0  0  0  0  0  0
   -2.9520   10.9200   -5.5510 C   0  0  1  0  0  0  0  0  0  0  0  0
   -1.8370   10.6290   -8.5240 C   0  0  0  0  0  0  0  0  0  0  0  0
    0.2670    9.3910   -7.1570 C   0  0  0  0  0  0  0  0  0  0  0  0
    1.0760   10.6660   -9.0330 C   0  0  0  0  0  0  0  0  0  0  0  0
   -3.2670   11.6950   -6.8410 C   0  0  0  0  0  0  0  0  0  0  0  0
    0.8990   12.0290   -3.7800 C   0  0  0  0  0  0  0  0  0  0  0  0
   -2.6870    9.4450   -5.7570 C   0  0  0  0  0  0  0  0  0  0  0  0
   -2.0060    9.3370   -8.1810 C   0  0  0  0  0  0  0  0  0  0  0  0
   -0.1380    8.3730   -8.0290 C   0  0  0  0  0  0  0  0  0  0  0  0
    0.6810    9.6600   -9.8980 C   0  0  0  0  0  0  0  0  0  0  0  0
   -0.8020    7.1340   -7.5010 C   0  0  0  0  0  0  0  0  0  0  0  0
    1.1560   12.2050   -2.5800 O   0  0  0  0  0  0  0  0  0  0  0  0
   -2.3030    8.8070   -6.8630 C   0  0  0  0  0  0  0  0  0  0  0  0
    0.0730    8.5160   -9.4030 C   0  0  0  0  0  0  0  0  0  0  0  0
  1  2  2  0
  2  3  1  0
  4  1  1  6
  4  5  1  0
  4  6  1  0
  2  7  1  0
  5  8  2  0
  5  9  2  0
  3 10  1  0
  5 11  1  6
  6 12  1  6
  7 13  2  0
  7 14  1  0
  6 15  1  0
 11 15  1  0
  9 16  1  0
 10 16  1  0
 11 17  1  6
 12 18  2  0
 13 19  1  0
 14 20  2  0
 19 21  1  0
 16 22  2  0
 17 23  2  0
 18 23  1  0
 19 24  2  0
 20 24  1  0
M  END
