mac-x0346-mac-x0284
     RDKit          3D

 22 23  0  0  0  0  0  0  0  0999 V2000
   -7.4770   14.4840    0.6220 O   0  0  0  0  0  0  0  0  0  0  0  0
   -7.3720   14.2740   -0.7860 N   0  0  0  0  0  0  0  0  0  0  0  0
   -6.1880   14.6990   -1.3900 C   0  0  0  0  0  0  0  0  0  0  0  0
   -6.1560   14.9260   -2.5910 O   0  0  0  0  0  0  0  0  0  0  0  0
   -5.0140   14.8670   -0.4740 C   0  0  0  0  0  0  0  0  0  0  0  0
   -4.7530   16.0680   -0.0260 C   0  0  0  0  0  0  0  0  0  0  0  0
   -4.1880   13.8810   -0.0770 C   0  0  0  0  0  0  0  0  0  0  0  0
   -5.5860   16.9620   -0.5330 O   0  0  0  0  0  0  0  0  0  0  0  0
   -4.3820   12.5900   -0.6620 C   0  0  0  0  0  0  0  0  0  0  0  0
   -3.7120   16.3590    0.8640 C   0  0  0  0  0  0  0  0  0  0  0  0
   -3.1350   14.1010    0.8040 C   0  0  0  0  0  0  0  0  0  0  0  0
   -2.8930   15.3400    1.2880 C   0  0  0  0  0  0  0  0  0  0  0  0
   -3.6140   13.1960   -1.8090 C   0  0  0  0  0  0  0  0  0  0  0  0
   -2.2270   13.3990   -1.6630 C   0  0  0  0  0  0  0  0  0  0  0  0
   -4.2430   13.5990   -2.9880 C   0  0  0  0  0  0  0  0  0  0  0  0
   -1.4790   13.9970   -2.6850 C   0  0  0  0  0  0  0  0  0  0  0  0
   -3.5070   14.1970   -4.0050 C   0  0  0  0  0  0  0  0  0  0  0  0
   -0.0200   14.1590   -2.4390 C   0  0  0  0  0  0  0  0  0  0  0  0
   -2.1360   14.3960   -3.8580 C   0  0  0  0  0  0  0  0  0  0  0  0
   -1.5090   14.9900   -4.9230 O   0  0  0  0  0  0  0  0  0  0  0  0
    0.5290   14.4770   -1.4000 O   0  0  0  0  0  0  0  0  0  0  0  0
    0.7110   13.9030   -3.5400 O   0  0  0  0  0  0  0  0  0  0  0  0
  1  2  1  0
  2  3  1  0
  3  4  2  0
  3  5  1  0
  5  6  2  0
  5  7  1  0
  6  8  1  0
  7  9  1  0
  6 10  1  0
  7 11  2  0
 10 12  2  0
 11 12  1  0
  9 13  1  0
 13 14  2  0
 13 15  1  0
 14 16  1  0
 15 17  2  0
 16 18  1  0
 16 19  2  0
 17 19  1  0
 19 20  1  0
 18 21  2  0
 18 22  1  0
M  END
