mac-x0572-mac-x0139
     RDKit          3D

 24 26  0  0  0  0  0  0  0  0999 V2000
   -7.8160   14.9790    3.1370 C   0  0  0  0  0  0  0  0  0  0  0  0
   -7.4470   13.9320    2.0820 C   0  0  2  0  0  0  0  0  0  0  0  0
   -5.9930   13.7120    2.0350 N   0  0  0  0  0  0  0  0  0  0  0  0
   -8.1500   14.1240    0.7290 C   0  0  1  0  0  0  0  0  0  0  0  0
   -9.3080   14.9370    0.8390 O   0  0  0  0  0  0  0  0  0  0  0  0
   -7.2520   14.6900   -0.3670 C   0  0  0  0  0  0  0  0  0  0  0  0
   -5.1810   14.4690    1.0840 C   0  0  2  0  0  0  0  0  0  0  0  0
   -7.7650   15.2980   -1.2970 O   0  0  0  0  0  0  0  0  0  0  0  0
   -5.7490   14.4590   -0.3200 C   0  0  2  0  0  0  0  0  0  0  0  0
   -3.7060   13.9790    1.0300 C   0  0  0  0  0  0  0  0  0  0  0  0
   -2.8050   14.8060    0.0690 C   0  0  2  0  0  0  0  0  0  0  0  0
   -5.0040   15.4670   -1.0860 C   0  0  0  0  0  0  0  0  0  0  0  0
   -3.6960   15.6140   -0.9000 C   0  0  0  0  0  0  0  0  0  0  0  0
   -1.6750   14.2070   -0.8810 C   0  0  1  0  0  0  0  0  0  0  0  0
   -1.9680   15.5700    1.0570 N   0  0  0  0  0  0  0  0  0  0  0  0
   -1.3310   14.7970   -2.1920 N   0  0  0  0  0  0  0  0  0  0  0  0
   -0.5710   15.1450    0.9540 C   0  0  0  0  0  0  0  0  0  0  0  0
   -0.4600   14.1620   -0.0830 N   0  0  0  0  0  0  0  0  0  0  0  0
   -2.3280   14.8160   -3.2660 C   0  0  0  0  0  0  0  0  0  0  0  0
    0.0640   14.7420   -2.6730 C   0  0  0  0  0  0  0  0  0  0  0  0
    0.3190   13.6150   -3.6740 C   0  0  0  0  0  0  0  0  0  0  0  0
    0.9570   12.4650   -2.9460 C   0  0  0  0  0  0  0  0  0  0  0  0
    1.8900   12.5960   -2.1870 O   0  0  0  0  0  0  0  0  0  0  0  0
    0.4020   11.2630   -3.2010 O   0  0  0  0  0  0  0  0  0  0  0  0
  2  1  1  1
  2  3  1  0
  2  4  1  0
  4  5  1  1
  4  6  1  0
  3  7  1  0
  6  8  2  0
  6  9  1  0
  7  9  1  0
  7 10  1  6
 11 10  1  1
  9 12  1  6
 11 13  1  0
 12 13  2  0
 11 14  1  0
 11 15  1  0
 14 16  1  6
 15 17  1  0
 14 18  1  0
 17 18  1  0
 16 19  1  0
 16 20  1  0
 20 21  1  0
 21 22  1  0
 22 23  2  0
 22 24  1  0
M  END
