mac-x0387-diamond-x0591_0_A
     RDKit          3D

 24 26  0  0  0  0  0  0  0  0999 V2000
   -3.8200   15.6210    1.6380 N   0  0  0  0  0  0  0  0  0  0  0  0
   -2.6300   15.1190    1.1030 C   0  0  0  0  0  0  0  0  0  0  0  0
   -1.6850   14.8100    2.0070 N   0  0  0  0  0  0  0  0  0  0  0  0
   -2.4120   14.9320   -0.2690 C   0  0  0  0  0  0  0  0  0  0  0  0
   -1.1500   14.3890   -0.6010 C   0  0  0  0  0  0  0  0  0  0  0  0
   -0.4990   14.3190    1.6210 C   0  0  0  0  0  0  0  0  0  0  0  0
   -3.4050   15.2450   -1.4130 C   0  0  0  0  0  0  0  0  0  0  0  0
   -0.1930   14.0920    0.3310 C   0  0  0  0  0  0  0  0  0  0  0  0
   -0.8110   14.0960   -1.9490 C   0  0  0  0  0  0  0  0  0  0  0  0
   -3.2620   14.1450   -2.4940 C   0  0  1  0  0  0  0  0  0  0  0  0
   -1.7850   13.9540   -2.8010 C   0  0  0  0  0  0  0  0  0  0  0  0
   -4.1490   13.1370   -1.7260 C   0  0  0  0  0  0  0  0  0  0  0  0
   -3.8390   14.2180   -3.9240 C   0  0  2  0  0  0  0  0  0  0  0  0
   -2.7140   14.8250   -5.2500 S   0  0  0  0  0  0  0  0  0  0  0  0
   -5.6680   13.6100   -1.7560 C   0  0  1  0  0  0  0  0  0  0  0  0
   -5.2390   14.6710   -3.9910 C   0  0  0  0  0  0  0  0  0  0  0  0
   -6.2450   14.3980   -0.5510 C   0  0  0  0  0  0  0  0  0  0  0  0
   -1.6340   15.8920   -4.5190 N   0  0  0  0  0  0  0  0  0  0  0  0
   -1.8710   13.7290   -5.6760 O   0  0  0  0  0  0  0  0  0  0  0  0
   -3.4130   15.6420   -6.2070 O   0  0  0  0  0  0  0  0  0  0  0  0
   -6.0690   14.3980   -2.9960 C   0  0  0  0  0  0  0  0  0  0  0  0
   -5.7370   14.1220    0.6940 N   0  0  0  0  0  0  0  0  0  0  0  0
   -7.1470   15.2170   -0.6920 O   0  0  0  0  0  0  0  0  0  0  0  0
   -6.5600   14.3950    1.8480 C   0  0  0  0  0  0  0  0  0  0  0  0
  1  2  1  0
  2  3  2  0
  2  4  1  0
  4  5  2  0
  3  6  1  0
  4  7  1  0
  5  8  1  0
  6  8  2  0
  5  9  1  0
 10  7  1  1
  9 11  2  0
 10 11  1  0
 10 12  1  0
 10 13  1  0
 13 14  1  6
 12 15  1  0
 13 16  1  0
 15 17  1  1
 14 18  1  0
 14 19  2  0
 14 20  2  0
 15 21  1  0
 16 21  2  0
 17 22  1  0
 17 23  2  0
 22 24  1  0
M  END
