mac-x0131-diamond-x0689_0_A
     RDKit          3D

 19 21  0  0  0  0  0  0  0  0999 V2000
   -3.5300   15.0830   -4.2070 C   0  0  0  0  0  0  0  0  0  0  0  0
   -3.0280   15.0100   -2.8090 C   0  0  0  0  0  0  0  0  0  0  0  0
   -3.7200   15.1410   -1.6110 C   0  0  0  0  0  0  0  0  0  0  0  0
   -1.7020   14.7870   -2.4990 N   0  0  0  0  0  0  0  0  0  0  0  0
   -5.1830   15.4010   -1.5130 C   0  0  0  0  0  0  0  0  0  0  0  0
   -0.6140   14.5930   -3.4440 C   0  0  0  0  0  0  0  0  0  0  0  0
   -2.7630   14.9820   -0.5280 C   0  0  0  0  0  0  0  0  0  0  0  0
   -1.5320   14.7680   -1.1400 C   0  0  0  0  0  0  0  0  0  0  0  0
   -2.7550   14.9920    0.8990 C   0  0  0  0  0  0  0  0  0  0  0  0
   -0.3510   14.5740   -0.5260 N   0  0  0  0  0  0  0  0  0  0  0  0
   -0.4590   13.1400   -3.6500 C   0  0  0  0  0  0  0  0  0  0  0  0
   -3.8980   15.2080    1.6650 N   0  0  0  0  0  0  0  0  0  0  0  0
   -1.5730   14.7850    1.5350 N   0  0  0  0  0  0  0  0  0  0  0  0
   -0.4680   14.5980    0.8050 C   0  0  0  0  0  0  0  0  0  0  0  0
    0.4390   12.1900   -3.2120 C   0  0  0  0  0  0  0  0  0  0  0  0
   -1.4030   12.5570   -4.4410 O   0  0  0  0  0  0  0  0  0  0  0  0
   -5.1250   15.0500    0.9450 C   0  0  0  0  0  0  0  0  0  0  0  0
   -1.1090   11.2380   -4.5040 C   0  0  0  0  0  0  0  0  0  0  0  0
    0.0060   10.9620   -3.7650 C   0  0  0  0  0  0  0  0  0  0  0  0
  1  2  1  0
  2  3  2  0
  2  4  1  0
  3  5  1  0
  4  6  1  0
  3  7  1  0
  4  8  1  0
  7  8  2  0
  7  9  1  0
  8 10  1  0
  6 11  1  0
  9 12  1  0
  9 13  2  0
 10 14  2  0
 13 14  1  0
 11 15  2  0
 11 16  1  0
 12 17  1  0
 16 18  1  0
 15 19  1  0
 18 19  2  0
M  END
