mac-x0282-mac-x0527
     RDKit          3D

 19 21  0  0  0  0  0  0  0  0999 V2000
   -4.2450   15.3040   -3.4130 O   0  0  0  0  0  0  0  0  0  0  0  0
   -3.2800   15.1240   -2.6890 C   0  0  0  0  0  0  0  0  0  0  0  0
   -1.9850   14.9400   -3.1330 N   0  0  0  0  0  0  0  0  0  0  0  0
   -3.2860   15.0660   -1.2400 C   0  0  0  0  0  0  0  0  0  0  0  0
   -1.5960   14.8470   -4.5100 C   0  0  0  0  0  0  0  0  0  0  0  0
   -4.3110   15.2450   -0.3110 C   0  0  0  0  0  0  0  0  0  0  0  0
   -2.1190   14.7930   -0.5120 C   0  0  0  0  0  0  0  0  0  0  0  0
   -2.4290   14.8030    0.8290 C   0  0  0  0  0  0  0  0  0  0  0  0
   -3.7650   15.0780    0.9480 N   0  0  0  0  0  0  0  0  0  0  0  0
   -0.8010   14.5370   -0.8860 C   0  0  0  0  0  0  0  0  0  0  0  0
   -1.2670   13.4260   -4.8780 C   0  0  0  0  0  0  0  0  0  0  0  0
    0.1140   14.3110    0.1050 C   0  0  0  0  0  0  0  0  0  0  0  0
   -1.5740   14.5830    1.8390 N   0  0  0  0  0  0  0  0  0  0  0  0
   -2.0740   12.3650   -4.4410 C   0  0  0  0  0  0  0  0  0  0  0  0
   -0.1420   13.1440   -5.6730 C   0  0  0  0  0  0  0  0  0  0  0  0
   -0.3120   14.3430    1.4240 C   0  0  0  0  0  0  0  0  0  0  0  0
   -1.7670   11.0520   -4.7940 C   0  0  0  0  0  0  0  0  0  0  0  0
    0.1620   11.8300   -6.0260 C   0  0  0  0  0  0  0  0  0  0  0  0
   -0.6510   10.7830   -5.5880 C   0  0  0  0  0  0  0  0  0  0  0  0
  1  2  2  0
  2  3  1  0
  2  4  1  0
  3  5  1  0
  4  6  2  0
  4  7  1  0
  7  8  2  0
  6  9  1  0
  8  9  1  0
  7 10  1  0
  5 11  1  0
 10 12  2  0
  8 13  1  0
 11 14  2  0
 11 15  1  0
 12 16  1  0
 13 16  2  0
 14 17  1  0
 15 18  2  0
 17 19  2  0
 18 19  1  0
M  END
