mac-x0131-diamond-x0910_1_A
     RDKit          3D

 23 26  0  0  0  0  0  0  0  0999 V2000
   -4.0150   14.8730   -3.8830 C   0  0  0  0  0  0  0  0  0  0  0  0
   -3.2920   14.8660   -2.5770 C   0  0  0  0  0  0  0  0  0  0  0  0
   -3.7630   14.8620   -1.2450 C   0  0  0  0  0  0  0  0  0  0  0  0
   -1.8940   14.8480   -2.4860 N   0  0  0  0  0  0  0  0  0  0  0  0
   -0.9100   14.8280   -3.5620 C   0  0  0  0  0  0  0  0  0  0  0  0
   -2.6420   14.8560   -0.3910 C   0  0  0  0  0  0  0  0  0  0  0  0
   -1.5140   14.8450   -1.1690 C   0  0  0  0  0  0  0  0  0  0  0  0
   -5.0540   14.8420   -0.6160 N   0  0  0  0  0  0  0  0  0  0  0  0
   -2.4500   14.8580    0.9870 C   0  0  0  0  0  0  0  0  0  0  0  0
   -0.2530   14.8380   -0.7090 N   0  0  0  0  0  0  0  0  0  0  0  0
   -0.6310   13.3980   -3.8290 C   0  0  0  0  0  0  0  0  0  0  0  0
   -6.3070   14.6700   -1.1240 N   0  0  0  0  0  0  0  0  0  0  0  0
   -5.1710   14.9720    0.7410 C   0  0  0  0  0  0  0  0  0  0  0  0
   -3.4760   14.8850    1.8970 N   0  0  0  0  0  0  0  0  0  0  0  0
   -1.2280   14.8420    1.5020 N   0  0  0  0  0  0  0  0  0  0  0  0
   -0.2140   14.8420    0.6340 C   0  0  0  0  0  0  0  0  0  0  0  0
    0.4960   12.6220   -4.0160 C   0  0  0  0  0  0  0  0  0  0  0  0
   -1.7470   12.6190   -3.9110 O   0  0  0  0  0  0  0  0  0  0  0  0
   -7.0490   14.6960   -0.0070 C   0  0  0  0  0  0  0  0  0  0  0  0
   -6.3920   14.8780    1.1400 N   0  0  0  0  0  0  0  0  0  0  0  0
   -8.3600   14.5590    0.0930 N   0  0  0  0  0  0  0  0  0  0  0  0
   -1.3440   11.3570   -4.1450 C   0  0  0  0  0  0  0  0  0  0  0  0
    0.0140   11.3030   -4.2180 C   0  0  0  0  0  0  0  0  0  0  0  0
  1  2  1  0
  2  3  2  0
  2  4  1  0
  4  5  1  0
  3  6  1  0
  4  7  1  0
  6  7  2  0
  3  8  1  0
  6  9  1  0
  7 10  1  0
  5 11  1  0
  8 12  1  0
  8 13  1  0
  9 14  1  0
  9 15  2  0
 10 16  2  0
 15 16  1  0
 11 17  2  0
 11 18  1  0
 12 19  2  0
 13 20  2  0
 19 20  1  0
 19 21  1  0
 18 22  1  0
 17 23  1  0
 22 23  2  0
M  END
