mac-x0179-mac-x0161
     RDKit          3D

 31 35  0  0  0  0  0  0  0  0999 V2000
    2.2190   13.1250   -3.6010 O   0  0  0  0  0  0  0  0  0  0  0  0
    1.3920   12.3130   -4.2920 C   0  0  0  0  0  0  0  0  0  0  0  0
    0.8310   11.4230   -3.6770 O   0  0  0  0  0  0  0  0  0  0  0  0
    1.2630   12.5940   -5.8020 C   0  0  0  0  0  0  0  0  0  0  0  0
    0.2930   11.7900   -6.5790 N   0  0  0  0  0  0  0  0  0  0  0  0
    0.6500   10.9010   -7.5450 C   0  0  0  0  0  0  0  0  0  0  0  0
   -1.0640   11.4850   -6.1580 C   0  0  1  0  0  0  0  0  0  0  0  0
    1.3590   11.0410   -8.4940 O   0  0  0  0  0  0  0  0  0  0  0  0
   -0.0550    9.6720   -7.2230 C   0  0  0  0  0  0  0  0  0  0  0  0
   -1.1070    9.9920   -6.3610 C   0  0  0  0  0  0  0  0  0  0  0  0
   -1.0700   12.0190   -4.7840 C   0  0  0  0  0  0  0  0  0  0  0  0
   -2.1130   12.1230   -7.0530 C   0  0  0  0  0  0  0  0  0  0  0  0
    0.2210    8.4050   -7.6640 C   0  0  0  0  0  0  0  0  0  0  0  0
   -1.9390    8.9880   -5.9000 C   0  0  0  0  0  0  0  0  0  0  0  0
   -0.9340   13.3950   -4.6220 C   0  0  0  0  0  0  0  0  0  0  0  0
   -1.1770   11.3790   -3.6100 N   0  0  0  0  0  0  0  0  0  0  0  0
   -0.6120    7.3960   -7.2080 C   0  0  0  0  0  0  0  0  0  0  0  0
   -1.6820    7.6800   -6.3350 C   0  0  0  0  0  0  0  0  0  0  0  0
   -0.9500   13.5970   -3.3070 C   0  0  0  0  0  0  0  0  0  0  0  0
   -1.0950   12.3940   -2.6670 O   0  0  0  0  0  0  0  0  0  0  0  0
   -0.8480   14.7980   -2.4940 C   0  0  0  0  0  0  0  0  0  0  0  0
   -1.9060   14.9990   -1.5480 N   0  0  0  0  0  0  0  0  0  0  0  0
   -3.2810   15.0010   -2.0100 C   0  0  0  0  0  0  0  0  0  0  0  0
   -1.6950   14.3540   -0.3180 C   0  0  2  0  0  0  0  0  0  0  0  0
   -4.2220   14.7740   -0.9080 N   0  0  0  0  0  0  0  0  0  0  0  0
   -2.3710   15.1120    0.7880 C   0  0  1  0  0  0  0  0  0  0  0  0
   -0.3460   14.4630    0.1730 N   0  0  0  0  0  0  0  0  0  0  0  0
   -3.8370   15.3980    0.3570 C   0  0  2  0  0  0  0  0  0  0  0  0
   -1.9640   14.2620    1.8770 N   0  0  0  0  0  0  0  0  0  0  0  0
   -0.5310   14.0750    1.5650 C   0  0  0  0  0  0  0  0  0  0  0  0
   -4.9010   14.9380    1.2370 N   0  0  0  0  0  0  0  0  0  0  0  0
  1  2  1  0
  2  3  2  0
  2  4  1  0
  4  5  1  0
  5  6  1  0
  5  7  1  0
  6  8  2  0
  6  9  1  0
  7 10  1  0
  9 10  2  0
  7 11  1  0
  7 12  1  6
  9 13  1  0
 10 14  1  0
 11 15  1  0
 11 16  2  0
 13 17  2  0
 14 18  2  0
 17 18  1  0
 15 19  2  0
 16 20  1  0
 19 20  1  0
 19 21  1  0
 21 22  1  0
 22 23  1  0
 22 24  1  0
 23 25  1  0
 24 26  1  0
 24 27  1  1
 25 28  1  0
 26 28  1  0
 26 29  1  1
 27 30  1  0
 29 30  1  0
 28 31  1  1
M  END
