mac-x0182-mac-x0415
     RDKit          3D

 25 28  0  0  0  0  0  0  0  0999 V2000
    1.6730   11.7260   -6.9600 O   0  0  0  0  0  0  0  0  0  0  0  0
    0.6050   11.5220   -6.4240 C   0  0  0  0  0  0  0  0  0  0  0  0
    0.0450   12.2710   -5.4360 N   0  0  0  0  0  0  0  0  0  0  0  0
   -0.2730   10.3810   -6.7370 C   0  0  0  0  0  0  0  0  0  0  0  0
   -0.9760   11.3340   -4.4680 S   0  0  2  0  0  0  0  0  0  0  0  0
   -1.2010   10.1510   -5.7220 C   0  0  0  0  0  0  0  0  0  0  0  0
   -0.2450    9.5880   -7.8670 C   0  0  0  0  0  0  0  0  0  0  0  0
   -2.1610   12.1360   -4.3540 O   0  0  0  0  0  0  0  0  0  0  0  0
   -0.0630   10.9620   -3.3250 N   0  0  0  0  0  0  0  0  0  0  0  0
   -2.1240    9.1370   -5.7850 C   0  0  0  0  0  0  0  0  0  0  0  0
   -1.1740    8.5520   -7.9600 C   0  0  0  0  0  0  0  0  0  0  0  0
    0.6200   12.0610   -2.7700 C   0  0  0  0  0  0  0  0  0  0  0  0
   -2.1060    8.3280   -6.9230 C   0  0  0  0  0  0  0  0  0  0  0  0
    0.5630   12.3900   -1.5730 O   0  0  0  0  0  0  0  0  0  0  0  0
    1.4860   12.8380   -3.7650 C   0  0  0  0  0  0  0  0  0  0  0  0
    1.0260   14.2060   -4.1850 C   0  0  0  0  0  0  0  0  0  0  0  0
    1.8590   15.3560   -3.8880 C   0  0  0  0  0  0  0  0  0  0  0  0
   -0.0260   14.8420   -4.7850 C   0  0  0  0  0  0  0  0  0  0  0  0
    1.4760   16.5340   -4.2420 N   0  0  0  0  0  0  0  0  0  0  0  0
    0.2780   16.2970   -4.9800 C   0  0  2  0  0  0  0  0  0  0  0  0
   -1.3170   14.4250   -5.3000 C   0  0  0  0  0  0  0  0  0  0  0  0
   -0.8400   17.2220   -4.7570 C   0  0  0  0  0  0  0  0  0  0  0  0
   -2.2990   15.3700   -5.3760 C   0  0  0  0  0  0  0  0  0  0  0  0
   -4.0170   15.0020   -6.0190 Br  0  0  0  0  0  0  0  0  0  0  0  0
   -2.0640   16.7500   -4.9590 C   0  0  0  0  0  0  0  0  0  0  0  0
  1  2  2  0
  2  3  1  0
  2  4  1  0
  5  3  1  6
  4  6  2  0
  5  6  1  0
  4  7  1  0
  5  8  2  0
  5  9  2  0
  6 10  1  0
  7 11  2  0
  9 12  1  0
 10 13  2  0
 11 13  1  0
 12 14  2  0
 12 15  1  0
 15 16  1  0
 16 17  1  0
 16 18  2  0
 17 19  2  0
 18 20  1  0
 19 20  1  0
 18 21  1  0
 20 22  1  1
 21 23  2  0
 23 24  1  0
 22 25  2  0
 23 25  1  0
M  END
