mac-x0365-diamond-x0465_0_A
     RDKit          3D

 26 27  0  0  0  0  0  0  0  0999 V2000
   -0.7080   15.2920   -1.3450 O   0  0  0  0  0  0  0  0  0  0  0  0
   -1.7130   14.6680   -2.1110 C   0  0  0  0  0  0  0  0  0  0  0  0
   -1.6520   15.2050   -3.4180 O   0  0  0  0  0  0  0  0  0  0  0  0
   -1.2390   13.2370   -2.0440 C   0  0  0  0  0  0  0  0  0  0  0  0
   -3.0930   14.8310   -1.5010 C   0  0  0  0  0  0  0  0  0  0  0  0
    0.2180   13.1740   -1.6110 C   0  0  0  0  0  0  0  0  0  0  0  0
   -4.2070   14.9500   -2.3460 C   0  0  0  0  0  0  0  0  0  0  0  0
   -3.3040   14.8600   -0.1090 C   0  0  0  0  0  0  0  0  0  0  0  0
    0.6050   11.8440   -1.9030 N   0  0  0  0  0  0  0  0  0  0  0  0
   -5.4800   15.0790   -1.8150 C   0  0  0  0  0  0  0  0  0  0  0  0
   -4.5910   14.9910    0.4220 C   0  0  0  0  0  0  0  0  0  0  0  0
   -6.5180   15.1810   -2.6500 F   0  0  0  0  0  0  0  0  0  0  0  0
    0.8430   11.4580   -3.1140 C   0  0  0  0  0  0  0  0  0  0  0  0
   -5.6800   15.0950   -0.4430 C   0  0  0  0  0  0  0  0  0  0  0  0
   -6.9580   15.2070    0.0230 O   0  0  0  0  0  0  0  0  0  0  0  0
    0.7700   12.3360   -4.3830 C   0  0  1  0  0  0  0  0  0  0  0  0
    1.1760   10.1870   -3.3810 O   0  0  0  0  0  0  0  0  0  0  0  0
    2.0670   13.1370   -4.5430 C   0  0  0  0  0  0  0  0  0  0  0  0
    0.6660   11.4840   -5.5340 O   0  0  0  0  0  0  0  0  0  0  0  0
   -0.4880   10.7640   -5.7230 C   0  0  0  0  0  0  0  0  0  0  0  0
   -0.6210    9.7400   -6.6620 C   0  0  0  0  0  0  0  0  0  0  0  0
   -1.5860   11.0890   -4.9200 C   0  0  0  0  0  0  0  0  0  0  0  0
    0.4030    9.4040   -7.4560 F   0  0  0  0  0  0  0  0  0  0  0  0
   -1.8150    9.0420   -6.8020 C   0  0  0  0  0  0  0  0  0  0  0  0
   -2.7910   10.3930   -5.0570 C   0  0  0  0  0  0  0  0  0  0  0  0
   -2.9050    9.3680   -5.9980 C   0  0  0  0  0  0  0  0  0  0  0  0
  2  1  1  0
  2  3  1  0
  2  4  1  0
  2  5  1  0
  4  6  1  0
  5  7  2  0
  5  8  1  0
  6  9  1  0
  7 10  1  0
  8 11  2  0
 10 12  1  0
  9 13  2  3
 10 14  2  0
 11 14  1  0
 14 15  1  0
 13 16  1  0
 13 17  1  0
 16 18  1  6
 16 19  1  0
 19 20  1  0
 20 21  2  0
 20 22  1  0
 21 23  1  0
 21 24  1  0
 22 25  2  0
 24 26  2  0
 25 26  1  0
M  END
