mac-x0341-diamond-x1012_0_A
     RDKit          3D

 25 27  0  0  0  0  0  0  0  0999 V2000
   -7.0480   14.7120    2.2820 N   0  0  0  0  0  0  0  0  0  0  0  0
   -6.2300   14.7720    1.2060 C   0  0  0  0  0  0  0  0  0  0  0  0
   -4.9860   14.8650    1.4480 N   0  0  0  0  0  0  0  0  0  0  0  0
   -6.7290   14.7280   -0.0650 N   0  0  0  0  0  0  0  0  0  0  0  0
   -5.9330   15.0100   -1.1620 C   0  0  0  0  0  0  0  0  0  0  0  0
   -4.0860   14.8670    0.4090 C   0  0  0  0  0  0  0  0  0  0  0  0
   -6.4010   15.2880   -2.2570 O   0  0  0  0  0  0  0  0  0  0  0  0
   -4.4730   14.9340   -0.9180 C   0  0  0  0  0  0  0  0  0  0  0  0
   -2.7520   14.7800    0.7560 C   0  0  0  0  0  0  0  0  0  0  0  0
   -1.7920   14.7540   -0.2270 C   0  0  0  0  0  0  0  0  0  0  0  0
   -3.5110   14.9150   -1.9400 C   0  0  0  0  0  0  0  0  0  0  0  0
   -2.1500   14.8190   -1.5660 C   0  0  0  0  0  0  0  0  0  0  0  0
   -1.0060   14.7780   -2.5250 C   0  0  0  0  0  0  0  0  0  0  0  0
   -1.1550   13.8700   -3.7180 C   0  0  1  0  0  0  0  0  0  0  0  0
   -1.5780   14.7050   -4.9190 C   0  0  0  0  0  0  0  0  0  0  0  0
    0.2250   13.2740   -3.9510 C   0  0  2  0  0  0  0  0  0  0  0  0
    0.6420   12.3850   -2.7870 C   0  0  0  0  0  0  0  0  0  0  0  0
    1.2090   14.4710   -4.0520 C   0  0  0  0  0  0  0  0  0  0  0  0
   -0.7070   15.8820   -5.0200 N   0  0  0  0  0  0  0  0  0  0  0  0
   -1.2920   17.1180   -4.8200 C   0  0  0  0  0  0  0  0  0  0  0  0
    0.2100   11.1130   -2.8960 O   0  0  0  0  0  0  0  0  0  0  0  0
    1.2860   12.7130   -1.8140 O   0  0  0  0  0  0  0  0  0  0  0  0
    0.7440   15.6450   -4.9420 C   0  0  0  0  0  0  0  0  0  0  0  0
   -0.4450   18.1620   -4.6830 N   0  0  0  0  0  0  0  0  0  0  0  0
   -2.4920   17.3310   -4.7520 O   0  0  0  0  0  0  0  0  0  0  0  0
  1  2  1  0
  2  3  2  0
  2  4  1  0
  4  5  1  0
  3  6  1  0
  5  7  2  0
  5  8  1  0
  6  8  2  0
  6  9  1  0
  9 10  2  0
  8 11  1  0
 10 12  1  0
 11 12  2  0
 12 13  1  0
 14 13  1  1
 14 15  1  0
 14 16  1  0
 16 17  1  1
 16 18  1  0
 15 19  1  0
 19 20  1  0
 17 21  1  0
 17 22  2  0
 18 23  1  0
 19 23  1  0
 20 24  1  0
 20 25  2  0
M  END
