mac-x0328-diamond-x0950_0_A
     RDKit          3D

 17 17  0  0  0  0  0  0  0  0999 V2000
   -1.8420   14.9370   -3.6350 O   0  0  0  0  0  0  0  0  0  0  0  0
   -1.9420   14.7150   -2.3120 C   0  0  0  0  0  0  0  0  0  0  0  0
   -0.8860   14.3970   -1.6570 N   0  0  0  0  0  0  0  0  0  0  0  0
   -3.3190   14.8880   -1.8530 C   0  0  0  0  0  0  0  0  0  0  0  0
    0.4000   14.2660   -2.3380 C   0  0  0  0  0  0  0  0  0  0  0  0
   -3.5870   14.9070   -0.4820 C   0  0  0  0  0  0  0  0  0  0  0  0
   -4.3570   15.0290   -2.7800 C   0  0  0  0  0  0  0  0  0  0  0  0
    1.0400   13.0030   -2.0710 O   0  0  0  0  0  0  0  0  0  0  0  0
   -4.8970   15.0620   -0.0360 C   0  0  0  0  0  0  0  0  0  0  0  0
   -5.6660   15.1850   -2.3270 C   0  0  0  0  0  0  0  0  0  0  0  0
    0.9620   12.0890   -3.0810 C   0  0  0  0  0  0  0  0  0  0  0  0
   -5.9260   15.1970   -0.9640 C   0  0  0  0  0  0  0  0  0  0  0  0
   -7.1960   15.3420   -0.4970 O   0  0  0  0  0  0  0  0  0  0  0  0
    1.5730   12.6590   -4.3690 C   0  0  1  0  0  0  0  0  0  0  0  0
    0.4780   10.9680   -2.9740 O   0  0  0  0  0  0  0  0  0  0  0  0
    3.0640   12.3820   -4.3780 C   0  0  0  0  0  0  0  0  0  0  0  0
    0.9870   12.1260   -5.5520 O   0  0  0  0  0  0  0  0  0  0  0  0
  1  2  1  0
  2  3  2  3
  2  4  1  0
  3  5  1  0
  4  6  2  0
  4  7  1  0
  5  8  1  0
  6  9  1  0
  7 10  2  0
  8 11  1  0
  9 12  2  0
 10 12  1  0
 12 13  1  0
 11 14  1  0
 11 15  2  0
 14 16  1  6
 14 17  1  0
M  END
