mac-x0394-diamond-x1015_0_A
     RDKit          3D

 26 29  0  0  0  0  0  0  0  0999 V2000
    1.0080   18.2750   -4.4220 Cl  0  0  0  0  0  0  0  0  0  0  0  0
    0.3550   16.7560   -4.7250 C   0  0  0  0  0  0  0  0  0  0  0  0
   -0.9940   16.6650   -4.9870 C   0  0  0  0  0  0  0  0  0  0  0  0
    1.1910   15.6550   -4.7050 C   0  0  0  0  0  0  0  0  0  0  0  0
    0.6970   14.3940   -4.9610 C   0  0  0  0  0  0  0  0  0  0  0  0
   -1.5280   15.4290   -5.2420 C   0  0  0  0  0  0  0  0  0  0  0  0
   -3.2210   15.3290   -5.5740 Cl  0  0  0  0  0  0  0  0  0  0  0  0
    1.6680   13.2170   -4.9470 C   0  0  0  0  0  0  0  0  0  0  0  0
   -0.7000   14.2830   -5.2370 C   0  0  0  0  0  0  0  0  0  0  0  0
    2.0480   12.5990   -3.6060 C   0  0  2  0  0  0  0  0  0  0  0  0
    0.8370   12.1330   -2.8430 C   0  0  2  0  0  0  0  0  0  0  0  0
    2.6720   13.4870   -2.5720 C   0  0  0  0  0  0  0  0  0  0  0  0
    1.9410   13.7760   -1.5680 N   0  0  0  0  0  0  0  0  0  0  0  0
   -0.4870   12.1140   -3.5010 N   0  0  0  0  0  0  0  0  0  0  0  0
    0.7550   13.1750   -1.8440 N   0  0  0  0  0  0  0  0  0  0  0  0
   -0.8980   13.5590   -3.4040 C   0  0  2  0  0  0  0  0  0  0  0  0
   -0.2400   14.0720   -2.1300 C   0  0  0  0  0  0  0  0  0  0  0  0
   -0.6670   11.4230   -4.7260 C   0  0  0  0  0  0  0  0  0  0  0  0
   -2.3720   13.8700   -3.4950 C   0  0  0  0  0  0  0  0  0  0  0  0
   -0.5150   15.0730   -1.5070 O   0  0  0  0  0  0  0  0  0  0  0  0
   -0.0530   11.7130   -5.9690 C   0  0  0  0  0  0  0  0  0  0  0  0
   -1.5560   10.3400   -4.6900 C   0  0  0  0  0  0  0  0  0  0  0  0
   -0.3250   10.9480   -7.1110 C   0  0  0  0  0  0  0  0  0  0  0  0
   -1.8310    9.5750   -5.8270 C   0  0  0  0  0  0  0  0  0  0  0  0
   -1.2150    9.8820   -7.0340 C   0  0  0  0  0  0  0  0  0  0  0  0
   -1.5630    8.9400   -8.4330 Cl  0  0  0  0  0  0  0  0  0  0  0  0
  1  2  1  0
  2  3  2  0
  2  4  1  0
  4  5  2  0
  3  6  1  0
  6  7  1  0
  5  8  1  0
  5  9  1  0
  6  9  2  0
 10  8  1  6
 10 11  1  0
 10 12  1  0
 12 13  2  0
 11 14  1  6
 11 15  1  0
 13 15  1  0
 14 16  1  0
 15 17  1  0
 16 17  1  0
 14 18  1  0
 16 19  1  1
 17 20  2  0
 18 21  2  0
 18 22  1  0
 21 23  1  0
 22 24  2  0
 23 25  2  0
 24 25  1  0
 25 26  1  0
M  END
