mac-x0564-mac-x0333
     RDKit          3D

 18 21  0  0  0  0  0  0  0  0999 V2000
    0.9760   14.1840   -1.1210 O   0  0  0  0  0  0  0  0  0  0  0  0
    0.0500   14.2570   -1.9100 C   0  0  0  0  0  0  0  0  0  0  0  0
    0.2760   14.6120   -3.2390 N   0  0  0  0  0  0  0  0  0  0  0  0
   -1.4160   13.9740   -1.5600 C   0  0  2  0  0  0  0  0  0  0  0  0
   -2.1920   14.4020   -2.8010 C   0  0  1  0  0  0  0  0  0  0  0  0
   -0.3710   13.9770   -4.3540 C   0  0  0  0  0  0  0  0  0  0  0  0
   -2.1510   14.5400   -0.4610 O   0  0  0  0  0  0  0  0  0  0  0  0
   -1.7970   13.8100   -4.0870 N   0  0  0  0  0  0  0  0  0  0  0  0
   -3.4110   15.0180   -1.0130 C   0  0  1  0  0  0  0  0  0  0  0  0
   -3.5970   14.2070   -2.2700 C   0  0  1  0  0  0  0  0  0  0  0  0
   -4.5750   14.9050   -3.1410 C   0  0  2  0  0  0  0  0  0  0  0  0
   -4.6830   15.2250   -0.1570 C   0  0  1  0  0  0  0  0  0  0  0  0
   -3.8340   16.0830   -3.4350 O   0  0  0  0  0  0  0  0  0  0  0  0
   -5.9200   15.1410   -2.4330 C   0  0  0  0  0  0  0  0  0  0  0  0
   -5.8790   15.6400   -1.0000 C   0  0  1  0  0  0  0  0  0  0  0  0
   -5.1710   14.0690    0.5260 O   0  0  0  0  0  0  0  0  0  0  0  0
   -7.0460   15.1750   -0.3110 O   0  0  0  0  0  0  0  0  0  0  0  0
   -6.5640   14.3260    0.7320 C   0  0  0  0  0  0  0  0  0  0  0  0
  1  2  2  0
  2  3  1  0
  2  4  1  0
  4  5  1  0
  3  6  1  0
  4  7  1  1
  5  8  1  6
  6  8  1  0
  9  7  1  1
  5 10  1  0
  9 10  1  0
 10 11  1  6
  9 12  1  0
 11 13  1  1
 11 14  1  0
 12 15  1  0
 15 14  1  6
 12 16  1  6
 15 17  1  0
 16 18  1  0
 17 18  1  0
M  END
