mac-x0398-mac-x0213
     RDKit          3D

 23 25  0  0  0  0  0  0  0  0999 V2000
   -6.2880   14.8130    2.2590 N   0  0  0  0  0  0  0  0  0  0  0  0
   -5.5640   14.8760    1.0530 C   0  0  0  0  0  0  0  0  0  0  0  0
   -4.1620   14.8340    1.0340 C   0  0  0  0  0  0  0  0  0  0  0  0
   -6.2550   14.9850   -0.1580 C   0  0  0  0  0  0  0  0  0  0  0  0
   -5.5710   15.0480   -1.3680 C   0  0  0  0  0  0  0  0  0  0  0  0
   -3.4700   14.8960   -0.1850 C   0  0  0  0  0  0  0  0  0  0  0  0
   -6.2680   15.1520   -2.5380 O   0  0  0  0  0  0  0  0  0  0  0  0
   -4.1830   15.0000   -1.3960 C   0  0  0  0  0  0  0  0  0  0  0  0
   -3.4910   15.0540   -2.7020 C   0  0  0  0  0  0  0  0  0  0  0  0
   -4.0310   15.1800   -3.7870 O   0  0  0  0  0  0  0  0  0  0  0  0
   -2.1550   14.9320   -2.5200 O   0  0  0  0  0  0  0  0  0  0  0  0
   -1.3550   14.5640   -3.6530 C   0  0  2  0  0  0  0  0  0  0  0  0
    0.0850   14.2850   -3.1870 C   0  0  1  0  0  0  0  0  0  0  0  0
   -1.1830   15.8170   -4.4700 C   0  0  0  0  0  0  0  0  0  0  0  0
    0.4950   12.8630   -2.9200 C   0  0  0  0  0  0  0  0  0  0  0  0
    0.1660   16.0850   -4.7280 C   0  0  0  0  0  0  0  0  0  0  0  0
    1.0500   15.0290   -4.1430 C   0  0  0  0  0  0  0  0  0  0  0  0
   -2.1770   16.6620   -4.9440 C   0  0  0  0  0  0  0  0  0  0  0  0
   -0.0970   11.9000   -3.6500 O   0  0  0  0  0  0  0  0  0  0  0  0
    1.3170   12.5750   -2.0720 O   0  0  0  0  0  0  0  0  0  0  0  0
   -1.8030   17.7920   -5.6700 C   0  0  0  0  0  0  0  0  0  0  0  0
    0.5410   17.2070   -5.4440 C   0  0  0  0  0  0  0  0  0  0  0  0
   -0.4540   18.0640   -5.9140 C   0  0  0  0  0  0  0  0  0  0  0  0
  1  2  1  0
  2  3  2  0
  2  4  1  0
  4  5  2  0
  3  6  1  0
  5  7  1  0
  5  8  1  0
  6  8  2  0
  8  9  1  0
  9 10  2  0
  9 11  1  0
 12 11  1  1
 12 13  1  0
 12 14  1  0
 13 15  1  6
 14 16  2  0
 13 17  1  0
 16 17  1  0
 14 18  1  0
 15 19  1  0
 15 20  2  0
 18 21  2  0
 16 22  1  0
 21 23  1  0
 22 23  2  0
M  END
