mac-x0365-diamond-x0844_0_A
     RDKit          3D

 11 11  0  0  0  0  0  0  0  0999 V2000
   -0.6970   14.8290   -1.3920 O   0  0  0  0  0  0  0  0  0  0  0  0
   -1.7290   14.8020   -2.2530 C   0  0  0  0  0  0  0  0  0  0  0  0
   -1.5480   14.7060   -3.4510 O   0  0  0  0  0  0  0  0  0  0  0  0
   -3.0530   14.9070   -1.5930 C   0  0  0  0  0  0  0  0  0  0  0  0
   -4.1640   15.0090   -2.4300 C   0  0  0  0  0  0  0  0  0  0  0  0
   -3.2250   14.9040   -0.1960 C   0  0  0  0  0  0  0  0  0  0  0  0
   -5.4260   15.1020   -1.8730 C   0  0  0  0  0  0  0  0  0  0  0  0
   -4.5080   15.0010    0.3530 C   0  0  0  0  0  0  0  0  0  0  0  0
   -6.4970   15.1950   -2.6650 F   0  0  0  0  0  0  0  0  0  0  0  0
   -5.6040   15.0960   -0.5000 C   0  0  0  0  0  0  0  0  0  0  0  0
   -6.8640   15.1810    0.0150 O   0  0  0  0  0  0  0  0  0  0  0  0
  1  2  1  0
  2  3  2  0
  2  4  1  0
  4  5  2  0
  4  6  1  0
  5  7  1  0
  6  8  2  0
  7  9  1  0
  7 10  2  0
  8 10  1  0
 10 11  1  0
M  END
