mac-x0206-diamond-x0900_0_A
     RDKit          3D

 10 10  0  0  0  0  0  0  0  0999 V2000
   -3.0600   15.0530   -0.3790 N   0  0  0  0  0  0  0  0  0  0  0  0
   -4.2900   15.1490   -0.9660 C   0  0  0  0  0  0  0  0  0  0  0  0
   -4.4070   15.3680   -2.1620 O   0  0  0  0  0  0  0  0  0  0  0  0
   -5.4580   14.9690   -0.0700 C   0  0  0  0  0  0  0  0  0  0  0  0
   -6.7390   14.7620   -0.6000 C   0  0  0  0  0  0  0  0  0  0  0  0
   -5.2840   15.0040    1.3220 C   0  0  0  0  0  0  0  0  0  0  0  0
   -6.9250   14.7260   -1.9490 O   0  0  0  0  0  0  0  0  0  0  0  0
   -7.8370   14.5920    0.2430 C   0  0  0  0  0  0  0  0  0  0  0  0
   -6.3930   14.8340    2.1590 C   0  0  0  0  0  0  0  0  0  0  0  0
   -7.6630   14.6270    1.6250 C   0  0  0  0  0  0  0  0  0  0  0  0
  1  2  1  0
  2  3  2  0
  2  4  1  0
  4  5  2  0
  4  6  1  0
  5  7  1  0
  5  8  1  0
  6  9  2  0
  8 10  2  0
  9 10  1  0
M  END
