mac-x0341-mac-x0124
     RDKit          3D

 18 20  0  0  0  0  0  0  0  0999 V2000
   -7.0700   14.3540    2.2930 N   0  0  0  0  0  0  0  0  0  0  0  0
   -6.3230   14.5390    1.1750 C   0  0  0  0  0  0  0  0  0  0  0  0
   -4.9840   14.6020    1.3710 N   0  0  0  0  0  0  0  0  0  0  0  0
   -6.9120   14.6630    0.0280 N   0  0  0  0  0  0  0  0  0  0  0  0
   -6.2100   14.8730   -1.1290 C   0  0  0  0  0  0  0  0  0  0  0  0
   -4.2010   14.7470    0.3540 C   0  0  0  0  0  0  0  0  0  0  0  0
   -6.7360   15.0750   -2.2120 O   0  0  0  0  0  0  0  0  0  0  0  0
   -4.7470   14.8390   -1.0100 C   0  0  0  0  0  0  0  0  0  0  0  0
   -2.6750   14.9350    0.5220 C   0  0  2  0  0  0  0  0  0  0  0  0
   -2.9300   16.2490    1.0270 N   0  0  0  0  0  0  0  0  0  0  0  0
   -1.9520   14.8800   -0.7990 C   0  0  0  0  0  0  0  0  0  0  0  0
   -3.9470   14.8970   -2.0980 C   0  0  0  0  0  0  0  0  0  0  0  0
   -1.9230   14.3300    1.6230 N   0  0  0  0  0  0  0  0  0  0  0  0
   -2.4990   14.8680   -2.0060 C   0  0  0  0  0  0  0  0  0  0  0  0
   -0.6450   14.1870    1.4790 C   0  0  0  0  0  0  0  0  0  0  0  0
   -0.5090   14.8620   -0.6690 C   0  0  0  0  0  0  0  0  0  0  0  0
   -1.7080   14.8350   -3.2980 C   0  0  0  0  0  0  0  0  0  0  0  0
    0.1000   14.5430    0.3920 N   0  0  0  0  0  0  0  0  0  0  0  0
  1  2  1  0
  2  3  1  0
  2  4  2  0
  4  5  1  0
  3  6  2  0
  5  7  2  0
  5  8  1  0
  6  8  1  0
  6  9  1  0
  9 10  1  1
  9 11  1  0
  8 12  2  0
  9 13  1  0
 11 14  2  0
 12 14  1  0
 13 15  2  0
 11 16  1  0
 14 17  1  0
 15 18  1  0
 16 18  2  0
M  END
