mac-x0302-mac-x0344
     RDKit          3D

 23 24  0  0  0  0  0  0  0  0999 V2000
    1.5470   13.9700   -3.8090 O   0  0  0  0  0  0  0  0  0  0  0  0
    0.3720   13.3770   -3.2780 C   0  0  0  0  0  0  0  0  0  0  0  0
    0.5710   13.3680   -1.8680 O   0  0  0  0  0  0  0  0  0  0  0  0
   -0.9030   14.2470   -3.5530 C   0  0  0  0  0  0  0  0  0  0  0  0
    0.1800   11.8990   -3.8320 C   0  0  0  0  0  0  0  0  0  0  0  0
   -1.6950   14.5860   -2.3600 N   0  0  0  0  0  0  0  0  0  0  0  0
    0.1990   10.9600   -3.0290 O   0  0  0  0  0  0  0  0  0  0  0  0
   -0.0050   11.7740   -5.2080 N   0  0  0  0  0  0  0  0  0  0  0  0
   -2.9830   15.0910   -2.4780 C   0  0  0  0  0  0  0  0  0  0  0  0
   -0.7920   10.7940   -5.8640 C   0  0  0  0  0  0  0  0  0  0  0  0
   -3.4190   15.5340   -3.5340 O   0  0  0  0  0  0  0  0  0  0  0  0
   -3.8150   15.0730   -1.2470 C   0  0  0  0  0  0  0  0  0  0  0  0
   -0.3220   10.2690   -7.0800 C   0  0  0  0  0  0  0  0  0  0  0  0
   -2.0060   10.3260   -5.3580 C   0  0  0  0  0  0  0  0  0  0  0  0
   -5.2080   15.0600   -1.3910 C   0  0  0  0  0  0  0  0  0  0  0  0
   -3.2400   15.0650    0.0280 C   0  0  0  0  0  0  0  0  0  0  0  0
   -1.0600    9.2940   -7.7690 C   0  0  0  0  0  0  0  0  0  0  0  0
   -2.7410    9.3520   -6.0480 C   0  0  0  0  0  0  0  0  0  0  0  0
   -6.0040   15.0330   -0.2540 C   0  0  0  0  0  0  0  0  0  0  0  0
   -4.0500   15.0410    1.1600 C   0  0  0  0  0  0  0  0  0  0  0  0
   -2.2690    8.8370   -7.2500 C   0  0  0  0  0  0  0  0  0  0  0  0
   -7.3640   15.0170   -0.3520 O   0  0  0  0  0  0  0  0  0  0  0  0
   -5.4360   15.0210    1.0160 C   0  0  0  0  0  0  0  0  0  0  0  0
  2  1  1  0
  2  3  1  0
  2  4  1  0
  2  5  1  0
  4  6  1  0
  5  7  2  0
  5  8  1  0
  6  9  1  0
  8 10  1  0
  9 11  2  0
  9 12  1  0
 10 13  2  0
 10 14  1  0
 12 15  2  0
 12 16  1  0
 13 17  1  0
 14 18  2  0
 15 19  1  0
 16 20  2  0
 17 21  2  0
 18 21  1  0
 19 22  1  0
 19 23  2  0
 20 23  1  0
M  END
