mac-x0527-mac-x0255
     RDKit          3D

 29 32  0  0  0  0  0  0  0  0999 V2000
   -4.6240   14.5900   -3.6930 O   0  0  0  0  0  0  0  0  0  0  0  0
   -3.7950   14.8380   -2.8430 C   0  0  0  0  0  0  0  0  0  0  0  0
   -2.5070   15.0700   -3.1400 N   0  0  0  0  0  0  0  0  0  0  0  0
   -4.1590   14.9260   -1.4030 C   0  0  0  0  0  0  0  0  0  0  0  0
   -1.4750   14.1010   -3.2910 C   0  0  1  0  0  0  0  0  0  0  0  0
   -5.4940   15.0180   -1.0880 C   0  0  0  0  0  0  0  0  0  0  0  0
   -3.1740   14.9090   -0.4510 N   0  0  0  0  0  0  0  0  0  0  0  0
   -1.5270   12.8880   -4.2200 C   0  0  0  0  0  0  0  0  0  0  0  0
   -5.9270   15.0940    0.1860 N   0  0  0  0  0  0  0  0  0  0  0  0
   -3.6190   14.9920    0.8260 C   0  0  0  0  0  0  0  0  0  0  0  0
   -0.4660   14.8450   -4.0130 C   0  0  0  0  0  0  0  0  0  0  0  0
   -2.3730   11.7850   -4.1150 C   0  0  0  0  0  0  0  0  0  0  0  0
   -0.5910   12.8820   -5.3020 C   0  0  0  0  0  0  0  0  0  0  0  0
   -4.9630   15.0810    1.1350 C   0  0  0  0  0  0  0  0  0  0  0  0
    0.7970   14.3970   -4.1790 C   0  0  0  0  0  0  0  0  0  0  0  0
   -0.7510   16.1460   -4.6500 C   0  0  0  0  0  0  0  0  0  0  0  0
    1.5630   13.1590   -3.7760 C   0  0  0  0  0  0  0  0  0  0  0  0
   -2.2880   10.7290   -5.0320 C   0  0  0  0  0  0  0  0  0  0  0  0
   -0.5060   11.8340   -6.2100 C   0  0  0  0  0  0  0  0  0  0  0  0
    0.3300   16.6150   -5.2550 C   0  0  0  0  0  0  0  0  0  0  0  0
    1.5780   15.5390   -5.0410 S   0  0  0  0  0  0  0  0  0  0  0  0
   -1.8880   16.9810   -4.7630 C   0  0  0  0  0  0  0  0  0  0  0  0
    0.9300   12.4430   -2.6200 C   0  0  0  0  0  0  0  0  0  0  0  0
   -1.3590   10.7510   -6.0720 C   0  0  0  0  0  0  0  0  0  0  0  0
   -1.8580   18.1960   -5.4570 C   0  0  0  0  0  0  0  0  0  0  0  0
    0.3810   17.8140   -5.9510 C   0  0  0  0  0  0  0  0  0  0  0  0
    1.1680   13.1050   -1.4760 O   0  0  0  0  0  0  0  0  0  0  0  0
    0.2760   11.4090   -2.6310 O   0  0  0  0  0  0  0  0  0  0  0  0
   -0.7290   18.6060   -6.0470 C   0  0  0  0  0  0  0  0  0  0  0  0
  1  2  2  0
  2  3  1  0
  2  4  1  0
  5  3  1  6
  4  6  2  0
  4  7  1  0
  5  8  1  0
  6  9  1  0
  7 10  2  0
  5 11  1  0
  8 12  2  0
  8 13  1  0
  9 14  2  0
 10 14  1  0
 11 15  2  0
 11 16  1  0
 15 17  1  0
 12 18  1  0
 13 19  2  0
 16 20  2  0
 15 21  1  0
 20 21  1  0
 16 22  1  0
 17 23  1  0
 18 24  2  0
 19 24  1  0
 22 25  2  0
 20 26  1  0
 23 27  1  0
 23 28  2  0
 25 29  1  0
 26 29  2  0
M  END
