mac-x0188-mac-x0509
     RDKit          3D

 28 31  0  0  0  0  0  0  0  0999 V2000
    1.3840   13.0920   -4.9030 C   0  0  0  0  0  0  0  0  0  0  0  0
    0.0120   13.6140   -4.4710 C   0  0  1  0  0  0  0  0  0  0  0  0
   -1.1820   12.8230   -5.0050 C   0  0  2  0  0  0  0  0  0  0  0  0
   -0.3590   13.3390   -2.9920 C   0  0  1  0  0  0  0  0  0  0  0  0
    0.4120   14.0400   -1.9010 C   0  0  0  0  0  0  0  0  0  0  0  0
   -1.3820   12.4340   -6.4590 C   0  0  0  0  0  0  0  0  0  0  0  0
   -2.2260   13.6370   -4.4310 N   0  0  0  0  0  0  0  0  0  0  0  0
   -1.9200   13.4150   -3.0200 C   0  0  2  0  0  0  0  0  0  0  0  0
    0.8100   15.1910   -1.8920 O   0  0  0  0  0  0  0  0  0  0  0  0
    0.6510   13.1950   -0.8510 O   0  0  0  0  0  0  0  0  0  0  0  0
   -2.2950   11.2100   -6.6960 C   0  0  0  0  0  0  0  0  0  0  0  0
   -2.7910   14.2510   -2.1050 C   0  0  0  0  0  0  0  0  0  0  0  0
   -2.5850   10.2570   -5.4990 C   0  0  0  0  0  0  0  0  0  0  0  0
   -3.9660   14.8620   -2.5840 C   0  0  0  0  0  0  0  0  0  0  0  0
   -2.4550   14.4140   -0.7550 C   0  0  0  0  0  0  0  0  0  0  0  0
   -1.6570    9.1080   -5.4630 N   0  0  0  0  0  0  0  0  0  0  0  0
   -4.7760   15.6040   -1.7320 C   0  0  0  0  0  0  0  0  0  0  0  0
   -3.2700   15.1610    0.0950 C   0  0  0  0  0  0  0  0  0  0  0  0
   -4.4270   15.7520   -0.3960 C   0  0  0  0  0  0  0  0  0  0  0  0
   -1.2770    8.6510   -6.5870 C   0  0  0  0  0  0  0  0  0  0  0  0
   -1.8280    9.2940   -7.8590 C   0  0  0  0  0  0  0  0  0  0  0  0
   -0.4100    7.6580   -7.0020 N   0  0  0  0  0  0  0  0  0  0  0  0
   -0.5820    9.2320   -8.6700 C   0  0  0  0  0  0  0  0  0  0  0  0
    0.2280    8.2220   -8.1200 C   0  0  0  0  0  0  0  0  0  0  0  0
   -0.2060    9.9760   -9.7670 C   0  0  0  0  0  0  0  0  0  0  0  0
    1.4470    7.9310   -8.6860 C   0  0  0  0  0  0  0  0  0  0  0  0
    1.0310    9.6890  -10.3380 C   0  0  0  0  0  0  0  0  0  0  0  0
    1.8450    8.6750   -9.8060 C   0  0  0  0  0  0  0  0  0  0  0  0
  2  1  1  6
  2  3  1  0
  2  4  1  0
  4  5  1  1
  3  6  1  6
  3  7  1  0
  4  8  1  0
  7  8  1  0
  5  9  2  0
  5 10  1  0
  6 11  1  0
  8 12  1  1
 11 13  1  0
 12 14  2  0
 12 15  1  0
 13 16  1  0
 14 17  1  0
 15 18  2  0
 17 19  2  0
 18 19  1  0
 16 20  2  3
 20 21  1  0
 20 22  1  0
 21 23  1  0
 22 24  1  0
 23 24  2  0
 23 25  1  0
 24 26  1  0
 25 27  2  0
 26 28  2  0
 27 28  1  0
M  END
