mac-x0148-mac-x0341
     RDKit          3D

 24 28  0  0  0  0  0  0  0  0999 V2000
   -7.7060   14.5620    1.3410 N   0  0  0  0  0  0  0  0  0  0  0  0
   -6.5190   14.7180    0.7000 C   0  0  0  0  0  0  0  0  0  0  0  0
   -5.4950   14.9340    1.5050 N   0  0  0  0  0  0  0  0  0  0  0  0
   -6.4260   14.6560   -0.5830 N   0  0  0  0  0  0  0  0  0  0  0  0
   -4.3580   14.9790    0.9750 C   0  0  0  0  0  0  0  0  0  0  0  0
   -5.2240   14.8170   -1.2690 C   0  0  0  0  0  0  0  0  0  0  0  0
   -5.2210   14.9500   -2.4770 O   0  0  0  0  0  0  0  0  0  0  0  0
   -3.3190   15.1310    1.7640 N   0  0  0  0  0  0  0  0  0  0  0  0
   -3.9960   14.8360   -0.4240 C   0  0  0  0  0  0  0  0  0  0  0  0
   -2.3560   14.9700    0.9970 C   0  0  0  0  0  0  0  0  0  0  0  0
   -2.6030   14.7500   -0.4270 C   0  0  0  0  0  0  0  0  0  0  0  0
   -1.1490   15.0710    1.5080 N   0  0  0  0  0  0  0  0  0  0  0  0
   -1.3290   14.5720   -1.2250 C   0  0  0  0  0  0  0  0  0  0  0  0
   -1.1080   14.2520   -2.5620 N   0  0  0  0  0  0  0  0  0  0  0  0
   -0.1970   14.7010   -0.5800 N   0  0  0  0  0  0  0  0  0  0  0  0
   -0.1560   14.9670    0.7420 C   0  0  0  0  0  0  0  0  0  0  0  0
   -2.2040   14.1980   -3.5770 C   0  0  1  0  0  0  0  0  0  0  0  0
    0.1510   13.4950   -2.7970 C   0  0  0  0  0  0  0  0  0  0  0  0
   -2.3410   15.4810   -4.3810 C   0  0  0  0  0  0  0  0  0  0  0  0
   -2.0780   13.1180   -4.6670 C   0  0  1  0  0  0  0  0  0  0  0  0
   -0.0420   12.2380   -3.6240 C   0  0  0  0  0  0  0  0  0  0  0  0
   -2.7240   13.7340   -5.8880 C   0  0  0  0  0  0  0  0  0  0  0  0
   -2.9410   15.1330   -5.6410 O   0  0  0  0  0  0  0  0  0  0  0  0
   -0.6790   12.5850   -4.9360 C   0  0  0  0  0  0  0  0  0  0  0  0
  1  2  1  0
  2  3  1  0
  2  4  2  0
  3  5  2  0
  4  6  1  0
  6  7  2  0
  5  8  1  0
  5  9  1  0
  6  9  1  0
  8 10  2  0
  9 11  2  0
 10 11  1  0
 10 12  1  0
 11 13  1  0
 13 14  1  0
 13 15  2  0
 12 16  2  0
 15 16  1  0
 14 17  1  0
 14 18  1  0
 17 19  1  6
 17 20  1  0
 18 21  1  0
 20 22  1  6
 19 23  1  0
 22 23  1  0
 20 24  1  0
 21 24  1  0
M  END
