mac-x0404-mac-x0564
     RDKit          3D

 22 25  0  0  0  0  0  0  0  0999 V2000
    0.7950   12.4660   -1.4820 O   0  0  0  0  0  0  0  0  0  0  0  0
    0.9250   11.9000   -2.7080 C   0  0  0  0  0  0  0  0  0  0  0  0
    0.4450   10.8010   -2.9090 O   0  0  0  0  0  0  0  0  0  0  0  0
    1.6950   12.7720   -3.6980 C   0  0  0  0  0  0  0  0  0  0  0  0
    1.2410   14.1020   -3.8530 O   0  0  0  0  0  0  0  0  0  0  0  0
    0.2470   14.2390   -4.8660 C   0  0  2  0  0  0  0  0  0  0  0  0
   -0.2630   15.6710   -4.9840 C   0  0  0  0  0  0  0  0  0  0  0  0
   -0.9310   13.3400   -4.5230 C   0  0  0  0  0  0  0  0  0  0  0  0
   -1.5580   16.1350   -4.4980 C   0  0  0  0  0  0  0  0  0  0  0  0
   -1.5240   14.0970   -3.3990 C   0  0  1  0  0  0  0  0  0  0  0  0
    0.6190   16.5630   -5.6270 C   0  0  0  0  0  0  0  0  0  0  0  0
   -2.5860   15.1690   -3.6590 C   0  0  2  0  0  0  0  0  0  0  0  0
   -1.8110   17.4860   -4.8160 C   0  0  0  0  0  0  0  0  0  0  0  0
    0.3100   17.8820   -5.8650 C   0  0  0  0  0  0  0  0  0  0  0  0
   -1.5070   13.6150   -1.9450 C   0  0  0  0  0  0  0  0  0  0  0  0
   -0.9190   18.3410   -5.4700 C   0  0  0  0  0  0  0  0  0  0  0  0
   -3.9940   14.7670   -4.1700 C   0  0  0  0  0  0  0  0  0  0  0  0
   -2.8880   15.1000   -2.0780 C   0  0  1  0  0  0  0  0  0  0  0  0
   -1.7800   14.8280   -1.2610 O   0  0  0  0  0  0  0  0  0  0  0  0
   -5.1570   14.9540   -3.4110 C   0  0  0  0  0  0  0  0  0  0  0  0
   -4.0730   15.6770   -1.4050 C   0  0  0  0  0  0  0  0  0  0  0  0
   -5.2010   15.5740   -2.0790 C   0  0  0  0  0  0  0  0  0  0  0  0
  1  2  1  0
  2  3  2  0
  2  4  1  0
  4  5  1  0
  6  5  1  1
  6  7  1  0
  6  8  1  0
  7  9  2  0
 10  8  1  6
  7 11  1  0
  9 12  1  0
 10 12  1  0
  9 13  1  0
 11 14  2  0
 10 15  1  0
 13 16  2  0
 14 16  1  0
 12 17  1  6
 12 18  1  0
 15 19  1  0
 18 19  1  0
 17 20  2  0
 18 21  1  1
 20 22  1  0
 21 22  2  0
M  END
