mac-x0180-mac-x0338
     RDKit          3D

 14 14  0  0  0  0  0  0  0  0999 V2000
   -7.7480   14.4920    1.4880 C   0  0  0  0  0  0  0  0  0  0  0  0
   -6.7610   14.7170    0.3740 C   0  0  0  0  0  0  0  0  0  0  0  0
   -7.1720   14.7960   -0.7910 O   0  0  0  0  0  0  0  0  0  0  0  0
   -5.3900   14.8350    0.6630 N   0  0  0  0  0  0  0  0  0  0  0  0
   -5.0390   15.3430    1.9590 N   0  0  0  0  0  0  0  0  0  0  0  0
   -4.3200   14.8550   -0.2470 C   0  0  0  0  0  0  0  0  0  0  0  0
   -3.0170   14.6880    0.2440 C   0  0  0  0  0  0  0  0  0  0  0  0
   -4.4960   15.0350   -1.6200 C   0  0  0  0  0  0  0  0  0  0  0  0
   -1.9160   14.6980   -0.6120 C   0  0  0  0  0  0  0  0  0  0  0  0
   -3.4010   15.0470   -2.4840 C   0  0  0  0  0  0  0  0  0  0  0  0
   -2.1110   14.8790   -1.9860 C   0  0  0  0  0  0  0  0  0  0  0  0
   -0.9850   14.9080   -2.9420 C   0  0  0  0  0  0  0  0  0  0  0  0
   -1.0790   14.9100   -4.1550 O   0  0  0  0  0  0  0  0  0  0  0  0
    0.2100   14.9490   -2.3340 O   0  0  0  0  0  0  0  0  0  0  0  0
  1  2  1  0
  2  3  2  0
  2  4  1  0
  4  5  1  0
  4  6  1  0
  6  7  2  0
  6  8  1  0
  7  9  1  0
  8 10  2  0
  9 11  2  0
 10 11  1  0
 11 12  1  0
 12 13  2  0
 12 14  1  0
M  END
