mac-x0385-mac-x0231
     RDKit          3D

 26 28  0  0  0  0  0  0  0  0999 V2000
   -5.2710   15.5910   -0.7150 C   0  0  0  0  0  0  0  0  0  0  0  0
   -3.8720   15.2690   -0.3210 C   0  0  0  0  0  0  0  0  0  0  0  0
   -2.9370   14.9980   -1.2840 C   0  0  0  0  0  0  0  0  0  0  0  0
   -3.4260   15.2200    0.9990 C   0  0  0  0  0  0  0  0  0  0  0  0
   -4.3150   15.4950    2.0440 N   0  0  0  0  0  0  0  0  0  0  0  0
   -2.1520   14.9160    1.3300 N   0  0  0  0  0  0  0  0  0  0  0  0
   -1.6730   14.7070   -1.0040 N   0  0  0  0  0  0  0  0  0  0  0  0
   -1.3310   14.6780    0.2870 C   0  0  0  0  0  0  0  0  0  0  0  0
    0.0900   14.3540    0.5200 C   0  0  0  0  0  0  0  0  0  0  0  0
    0.9090   14.8810   -0.6580 C   0  0  0  0  0  0  0  0  0  0  0  0
    1.2480   13.9610   -1.8360 C   0  0  0  0  0  0  0  0  0  0  0  0
    0.8130   12.5810   -1.6470 N   0  0  0  0  0  0  0  0  0  0  0  0
    0.9360   11.8280   -2.6890 C   0  0  0  0  0  0  0  0  0  0  0  0
    0.5790   10.5120   -2.6590 O   0  0  0  0  0  0  0  0  0  0  0  0
    1.4860   12.3570   -4.0080 C   0  0  0  0  0  0  0  0  0  0  0  0
    1.1090   13.7970   -4.3090 C   0  0  0  0  0  0  0  0  0  0  0  0
   -0.2810   14.1320   -4.7050 C   0  0  0  0  0  0  0  0  0  0  0  0
    2.0460   14.6950   -4.1810 N   0  0  0  0  0  0  0  0  0  0  0  0
   -0.6070   15.4820   -4.8210 C   0  0  0  0  0  0  0  0  0  0  0  0
    1.7110   15.9930   -4.4200 N   0  0  0  0  0  0  0  0  0  0  0  0
   -1.2590   13.1670   -4.9560 C   0  0  0  0  0  0  0  0  0  0  0  0
    0.4390   16.4890   -4.5730 C   0  0  0  0  0  0  0  0  0  0  0  0
   -1.9070   15.8760   -5.1700 C   0  0  0  0  0  0  0  0  0  0  0  0
   -2.5550   13.5560   -5.3080 C   0  0  0  0  0  0  0  0  0  0  0  0
    0.1810   17.6890   -4.5210 O   0  0  0  0  0  0  0  0  0  0  0  0
   -2.8810   14.9060   -5.4120 C   0  0  0  0  0  0  0  0  0  0  0  0
  1  2  1  0
  2  3  2  0
  2  4  1  0
  4  5  1  0
  4  6  2  0
  3  7  1  0
  6  8  1  0
  7  8  2  0
  8  9  1  0
  9 10  1  0
 10 11  1  0
 11 12  1  0
 12 13  2  3
 13 14  1  0
 13 15  1  0
 15 16  1  0
 16 17  1  0
 16 18  2  0
 17 19  2  0
 18 20  1  0
 17 21  1  0
 19 22  1  0
 20 22  1  0
 19 23  1  0
 21 24  2  0
 22 25  2  0
 23 26  2  0
 24 26  1  0
M  END
