mac-x0417-mac-x0326
     RDKit          3D

 24 27  0  0  0  0  0  0  0  0999 V2000
    1.7380   12.6320   -2.6140 O   0  0  0  0  0  0  0  0  0  0  0  0
    0.8620   11.8330   -3.2560 C   0  0  0  0  0  0  0  0  0  0  0  0
    0.6760   10.7030   -2.8450 O   0  0  0  0  0  0  0  0  0  0  0  0
    0.2070   12.4950   -4.4380 C   0  0  1  0  0  0  0  0  0  0  0  0
    0.3870   14.0200   -4.3530 C   0  0  0  0  0  0  0  0  0  0  0  0
    0.2840   11.6930   -5.7100 C   0  0  0  0  0  0  0  0  0  0  0  0
    1.2680   11.7810   -6.6130 N   0  0  0  0  0  0  0  0  0  0  0  0
   -0.6810   10.7240   -6.1010 C   0  0  0  0  0  0  0  0  0  0  0  0
   -0.6210   14.3780   -3.3080 C   0  0  0  0  0  0  0  0  0  0  0  0
    0.9460   10.8600   -7.6100 O   0  0  0  0  0  0  0  0  0  0  0  0
   -0.2160   10.2310   -7.2990 C   0  0  0  0  0  0  0  0  0  0  0  0
   -1.8750   10.2140   -5.5840 C   0  0  0  0  0  0  0  0  0  0  0  0
   -1.8590   14.6240   -3.6410 N   0  0  0  0  0  0  0  0  0  0  0  0
   -0.2670   14.4360   -1.6240 S   0  0  0  0  0  0  0  0  0  0  0  0
   -0.8690    9.2410   -8.0390 C   0  0  0  0  0  0  0  0  0  0  0  0
   -2.5620    9.2240   -6.2890 C   0  0  0  0  0  0  0  0  0  0  0  0
   -2.6130   14.8410   -2.5160 C   0  0  0  0  0  0  0  0  0  0  0  0
   -1.9270   14.7740   -1.3030 C   0  0  0  0  0  0  0  0  0  0  0  0
   -2.0650    8.7450   -7.4990 C   0  0  0  0  0  0  0  0  0  0  0  0
   -3.9850   15.1070   -2.5200 C   0  0  0  0  0  0  0  0  0  0  0  0
   -2.5840   14.9650   -0.0730 C   0  0  0  0  0  0  0  0  0  0  0  0
   -4.6390   15.2930   -1.3120 C   0  0  0  0  0  0  0  0  0  0  0  0
   -3.9580   15.2270   -0.1000 C   0  0  0  0  0  0  0  0  0  0  0  0
   -6.3280   15.6050   -1.3260 Cl  0  0  0  0  0  0  0  0  0  0  0  0
  1  2  1  0
  2  3  2  0
  2  4  1  0
  4  5  1  6
  4  6  1  0
  6  7  2  0
  6  8  1  0
  5  9  1  0
  7 10  1  0
  8 11  2  0
 10 11  1  0
  8 12  1  0
  9 13  2  0
  9 14  1  0
 11 15  1  0
 12 16  2  0
 13 17  1  0
 14 18  1  0
 17 18  2  0
 15 19  2  0
 16 19  1  0
 17 20  1  0
 18 21  1  0
 20 22  2  0
 21 23  2  0
 22 23  1  0
 22 24  1  0
M  END
