mac-x0392-mac-x0223
     RDKit          3D

 22 23  0  0  0  0  0  0  0  0999 V2000
    0.3510   13.8890   -0.0610 N   0  0  0  0  0  0  0  0  0  0  0  0
   -0.9850   14.3190   -0.0020 C   0  0  0  0  0  0  0  0  0  0  0  0
   -1.6390   14.5920    1.1880 C   0  0  0  0  0  0  0  0  0  0  0  0
   -1.7410   14.4930   -1.1450 C   0  0  0  0  0  0  0  0  0  0  0  0
   -1.2130   14.2400   -2.4890 C   0  0  0  0  0  0  0  0  0  0  0  0
   -3.0770   14.9230   -1.0890 C   0  0  0  0  0  0  0  0  0  0  0  0
   -2.9300   15.0070    1.2880 N   0  0  0  0  0  0  0  0  0  0  0  0
   -1.9300   14.4050   -3.4410 O   0  0  0  0  0  0  0  0  0  0  0  0
    0.0820   13.8180   -2.4520 O   0  0  0  0  0  0  0  0  0  0  0  0
   -3.6240   15.1680    0.1480 C   0  0  0  0  0  0  0  0  0  0  0  0
    0.3810   12.7490   -3.2680 C   0  0  0  0  0  0  0  0  0  0  0  0
    0.5790   13.3270   -4.6590 C   0  0  0  0  0  0  0  0  0  0  0  0
    0.4630   11.5670   -2.9500 O   0  0  0  0  0  0  0  0  0  0  0  0
   -0.1880   14.6170   -4.7730 C   0  0  0  0  0  0  0  0  0  0  0  0
   -1.5780   14.5970   -4.9620 C   0  0  0  0  0  0  0  0  0  0  0  0
    0.4710   15.8510   -4.6760 C   0  0  0  0  0  0  0  0  0  0  0  0
   -0.2570   17.0330   -4.7570 C   0  0  0  0  0  0  0  0  0  0  0  0
   -2.3080   15.7880   -5.0380 C   0  0  0  0  0  0  0  0  0  0  0  0
    0.2820   18.2710   -4.6800 O   0  0  0  0  0  0  0  0  0  0  0  0
   -1.6310   16.9980   -4.9270 C   0  0  0  0  0  0  0  0  0  0  0  0
    1.2330   18.5080   -5.6910 C   0  0  0  0  0  0  0  0  0  0  0  0
   -2.2960   18.1900   -4.9760 O   0  0  0  0  0  0  0  0  0  0  0  0
  1  2  1  0
  2  3  2  0
  2  4  1  0
  4  5  1  0
  4  6  2  0
  3  7  1  0
  5  8  2  0
  5  9  1  0
  6 10  1  0
  7 10  2  0
  9 11  1  0
 11 12  1  0
 11 13  2  0
 12 14  1  0
 14 15  2  0
 14 16  1  0
 16 17  2  0
 15 18  1  0
 17 19  1  0
 17 20  1  0
 18 20  2  0
 19 21  1  0
 20 22  1  0
M  END
