mac-x0338-diamond-x0628_0_A
     RDKit          3D

 22 23  0  0  0  0  0  0  0  0999 V2000
   -4.1240   15.4320    1.8790 N   0  0  0  0  0  0  0  0  0  0  0  0
   -5.0930   15.1150    0.9710 C   0  0  0  0  0  0  0  0  0  0  0  0
   -6.2650   14.9960    1.3080 O   0  0  0  0  0  0  0  0  0  0  0  0
   -4.6360   14.8820   -0.4130 C   0  0  0  0  0  0  0  0  0  0  0  0
   -3.2990   14.8060   -0.6230 N   0  0  0  0  0  0  0  0  0  0  0  0
   -5.5480   14.7390   -1.4430 C   0  0  0  0  0  0  0  0  0  0  0  0
   -2.9210   14.5570   -1.8960 C   0  0  0  0  0  0  0  0  0  0  0  0
   -5.1640   14.4900   -2.7260 N   0  0  0  0  0  0  0  0  0  0  0  0
   -3.8210   14.3840   -2.9490 C   0  0  0  0  0  0  0  0  0  0  0  0
   -3.3400   14.0570   -4.3630 C   0  0  0  0  0  0  0  0  0  0  0  0
   -1.8540   13.5970   -4.3900 C   0  0  0  0  0  0  0  0  0  0  0  0
   -1.4170   12.3770   -5.2020 C   0  0  0  0  0  0  0  0  0  0  0  0
   -2.1080   11.3140   -5.6180 N   0  0  0  0  0  0  0  0  0  0  0  0
   -0.1220   12.2270   -5.6350 N   0  0  0  0  0  0  0  0  0  0  0  0
    1.0080   13.1080   -5.4490 C   0  0  0  0  0  0  0  0  0  0  0  0
   -1.1680   10.5570   -6.2920 C   0  0  0  0  0  0  0  0  0  0  0  0
    0.0500   11.0870   -6.3230 N   0  0  0  0  0  0  0  0  0  0  0  0
   -1.4560    9.2600   -6.9360 C   0  0  0  0  0  0  0  0  0  0  0  0
    1.8370   12.9670   -4.1720 C   0  0  0  0  0  0  0  0  0  0  0  0
    1.0840   12.2820   -3.0590 C   0  0  0  0  0  0  0  0  0  0  0  0
    0.6110   11.1550   -3.0430 O   0  0  0  0  0  0  0  0  0  0  0  0
    0.9700   13.0840   -1.9880 O   0  0  0  0  0  0  0  0  0  0  0  0
  1  2  1  0
  2  3  2  0
  2  4  1  0
  4  5  2  0
  4  6  1  0
  5  7  1  0
  6  8  2  0
  7  9  2  0
  8  9  1  0
  9 10  1  0
 10 11  1  0
 11 12  1  0
 12 13  2  0
 12 14  1  0
 14 15  1  0
 13 16  1  0
 14 17  1  0
 16 17  2  0
 16 18  1  0
 15 19  1  0
 19 20  1  0
 20 21  2  0
 20 22  1  0
M  END
