mac-x0213-mac-x0271
     RDKit          3D

 25 28  0  0  0  0  0  0  0  0999 V2000
   -0.3220   12.0370   -3.7050 O   0  0  0  0  0  0  0  0  0  0  0  0
    0.3480   12.8320   -2.8520 C   0  0  0  0  0  0  0  0  0  0  0  0
    1.0770   12.3460   -2.0170 O   0  0  0  0  0  0  0  0  0  0  0  0
    0.0950   14.3130   -3.0370 C   0  0  2  0  0  0  0  0  0  0  0  0
   -1.3540   14.8040   -3.3070 C   0  0  2  0  0  0  0  0  0  0  0  0
    1.0430   15.0030   -4.0420 C   0  0  0  0  0  0  0  0  0  0  0  0
   -2.5940   13.9340   -3.4390 C   0  0  0  0  0  0  0  0  0  0  0  0
   -1.1740   15.9070   -4.3070 C   0  0  0  0  0  0  0  0  0  0  0  0
    0.1620   16.0380   -4.6900 C   0  0  0  0  0  0  0  0  0  0  0  0
   -3.7260   14.8190   -3.2290 O   0  0  0  0  0  0  0  0  0  0  0  0
   -2.1450   16.7490   -4.8200 C   0  0  0  0  0  0  0  0  0  0  0  0
    0.5470   17.0310   -5.5710 C   0  0  0  0  0  0  0  0  0  0  0  0
   -1.7690   17.7490   -5.7110 C   0  0  0  0  0  0  0  0  0  0  0  0
   -0.4260   17.8920   -6.0800 C   0  0  0  0  0  0  0  0  0  0  0  0
   -4.4340   14.8530   -2.0430 C   0  0  0  0  0  0  0  0  0  0  0  0
   -5.8250   14.8390   -1.9420 C   0  0  0  0  0  0  0  0  0  0  0  0
   -3.6710   14.9030   -0.8610 C   0  0  0  0  0  0  0  0  0  0  0  0
   -6.4300   14.8580   -0.6810 C   0  0  0  0  0  0  0  0  0  0  0  0
   -4.2920   14.9250    0.4030 C   0  0  0  0  0  0  0  0  0  0  0  0
   -5.6880   14.8960    0.4900 C   0  0  0  0  0  0  0  0  0  0  0  0
   -7.8440   14.8330   -0.6440 O   0  0  0  0  0  0  0  0  0  0  0  0
   -6.4060   14.9020    1.7600 C   0  0  0  0  0  0  0  0  0  0  0  0
   -8.5430   14.8140    0.5590 C   0  0  0  0  0  0  0  0  0  0  0  0
   -9.7690   14.7830    0.6130 O   0  0  0  0  0  0  0  0  0  0  0  0
   -7.7410   14.8540    1.7850 C   0  0  0  0  0  0  0  0  0  0  0  0
  1  2  1  0
  2  3  2  0
  4  2  1  6
  4  5  1  0
  4  6  1  0
  5  7  1  6
  5  8  1  0
  6  9  1  0
  8  9  2  0
  7 10  1  0
  8 11  1  0
  9 12  1  0
 11 13  2  0
 12 14  2  0
 13 14  1  0
 10 15  1  0
 15 16  2  0
 15 17  1  0
 16 18  1  0
 17 19  2  0
 18 20  2  0
 19 20  1  0
 18 21  1  0
 20 22  1  0
 21 23  1  0
 23 24  2  0
 22 25  2  0
 23 25  1  0
M  END
