mac-x0223-mac-x0360
     RDKit          3D

 27 28  0  0  0  0  0  0  0  0999 V2000
    1.2340   18.4340   -5.7770 C   0  0  0  0  0  0  0  0  0  0  0  0
    0.2390   18.2280   -4.8060 O   0  0  0  0  0  0  0  0  0  0  0  0
   -0.2370   16.9620   -4.7310 C   0  0  0  0  0  0  0  0  0  0  0  0
   -1.6200   16.8610   -4.7820 C   0  0  0  0  0  0  0  0  0  0  0  0
    0.5340   15.8050   -4.6070 C   0  0  0  0  0  0  0  0  0  0  0  0
   -2.3240   18.0320   -4.8900 O   0  0  0  0  0  0  0  0  0  0  0  0
   -2.2580   15.6260   -4.7170 C   0  0  0  0  0  0  0  0  0  0  0  0
   -0.0800   14.5430   -4.5350 C   0  0  0  0  0  0  0  0  0  0  0  0
    0.7570   13.2870   -4.3940 C   0  0  0  0  0  0  0  0  0  0  0  0
   -1.4840   14.4650   -4.5940 C   0  0  0  0  0  0  0  0  0  0  0  0
    0.5000   12.4960   -3.1150 C   0  0  0  0  0  0  0  0  0  0  0  0
    0.0250   11.3730   -3.0390 O   0  0  0  0  0  0  0  0  0  0  0  0
    0.8910   13.2200   -2.0160 O   0  0  0  0  0  0  0  0  0  0  0  0
   -0.0470   14.2260   -1.5660 C   0  0  0  0  0  0  0  0  0  0  0  0
   -1.3600   13.5600   -1.1380 C   0  0  0  0  0  0  0  0  0  0  0  0
   -2.5130   14.4090   -1.5130 N   0  0  0  0  0  0  0  0  0  0  0  0
   -3.6880   14.7070   -0.3500 S   0  0  0  0  0  0  0  0  0  0  0  0
   -4.5110   15.8060   -0.7960 O   0  0  0  0  0  0  0  0  0  0  0  0
   -2.9910   14.7500    0.9140 O   0  0  0  0  0  0  0  0  0  0  0  0
   -4.6710   13.2280   -0.4090 C   0  0  0  0  0  0  0  0  0  0  0  0
   -4.4800   12.2830   -1.4250 C   0  0  0  0  0  0  0  0  0  0  0  0
   -5.6440   13.0280    0.5780 C   0  0  0  0  0  0  0  0  0  0  0  0
   -5.2790   11.1410   -1.4450 C   0  0  0  0  0  0  0  0  0  0  0  0
   -6.4290   11.8790    0.5380 C   0  0  0  0  0  0  0  0  0  0  0  0
   -7.6310   11.6170    1.7400 Cl  0  0  0  0  0  0  0  0  0  0  0  0
   -5.0660    9.9590   -2.6800 Cl  0  0  0  0  0  0  0  0  0  0  0  0
   -6.2540   10.9360   -0.4700 C   0  0  0  0  0  0  0  0  0  0  0  0
  1  2  1  0
  2  3  1  0
  3  4  2  0
  3  5  1  0
  4  6  1  0
  4  7  1  0
  5  8  2  0
  8  9  1  0
  7 10  2  0
  8 10  1  0
  9 11  1  0
 11 12  2  0
 11 13  1  0
 13 14  1  0
 14 15  1  0
 15 16  1  0
 17 16  1  0
 17 18  2  0
 17 19  2  0
 17 20  1  0
 20 21  2  0
 20 22  1  0
 21 23  1  0
 22 24  2  0
 24 25  1  0
 23 26  1  0
 23 27  2  0
 24 27  1  0
M  END
