mac-x0436-mac-x0439
     RDKit          3D

 28 31  0  0  0  0  0  0  0  0999 V2000
    0.6570   11.0650   -2.8990 O   0  0  0  0  0  0  0  0  0  0  0  0
    1.0830   12.3370   -2.9510 C   0  0  0  0  0  0  0  0  0  0  0  0
    1.1180   13.1290   -1.9620 N   0  0  0  0  0  0  0  0  0  0  0  0
    1.5440   12.7990   -4.3140 C   0  0  0  0  0  0  0  0  0  0  0  0
    0.3710   13.0960   -5.2400 C   0  0  0  0  0  0  0  0  0  0  0  0
    1.6240   14.4710   -2.1650 C   0  0  1  0  0  0  0  0  0  0  0  0
    3.0290   14.5130   -2.4560 O   0  0  0  0  0  0  0  0  0  0  0  0
   -0.3890   11.8540   -5.6130 C   0  0  0  0  0  0  0  0  0  0  0  0
    0.9090   15.1900   -3.3100 C   0  0  0  0  0  0  0  0  0  0  0  0
   -1.6630   11.5260   -4.8260 C   0  0  0  0  0  0  0  0  0  0  0  0
    0.0610   11.1170   -6.5780 N   0  0  0  0  0  0  0  0  0  0  0  0
   -0.2360   14.8750   -3.9210 C   0  0  0  0  0  0  0  0  0  0  0  0
    1.4600   16.3500   -3.8180 N   0  0  0  0  0  0  0  0  0  0  0  0
   -2.0430   12.2270   -3.8990 O   0  0  0  0  0  0  0  0  0  0  0  0
   -2.3360   10.4050   -5.2370 N   0  0  0  0  0  0  0  0  0  0  0  0
   -0.6550    9.9640   -6.9140 C   0  0  0  0  0  0  0  0  0  0  0  0
   -0.4740   15.8280   -5.0340 C   0  0  2  0  0  0  0  0  0  0  0  0
    0.6650   16.7540   -4.7440 C   0  0  0  0  0  0  0  0  0  0  0  0
   -1.8410    9.5980   -6.2610 C   0  0  0  0  0  0  0  0  0  0  0  0
   -0.1630    9.1560   -7.9350 C   0  0  0  0  0  0  0  0  0  0  0  0
   -1.7130   16.6010   -5.2920 C   0  0  0  0  0  0  0  0  0  0  0  0
    0.7940   18.0010   -5.5320 C   0  0  0  0  0  0  0  0  0  0  0  0
   -3.1960   15.7890   -5.0160 Cl  0  0  0  0  0  0  0  0  0  0  0  0
   -0.8460    7.9970   -8.3040 C   0  0  0  0  0  0  0  0  0  0  0  0
   -2.5280    8.4410   -6.6230 C   0  0  0  0  0  0  0  0  0  0  0  0
   -1.6510   17.8710   -5.7490 C   0  0  0  0  0  0  0  0  0  0  0  0
   -0.3630   18.5040   -5.9950 C   0  0  0  0  0  0  0  0  0  0  0  0
   -2.0250    7.6410   -7.6490 C   0  0  0  0  0  0  0  0  0  0  0  0
  1  2  1  0
  2  3  2  3
  2  4  1  0
  4  5  1  0
  3  6  1  0
  6  7  1  6
  5  8  1  0
  6  9  1  0
  8 10  1  0
  8 11  2  0
  9 12  2  0
  9 13  1  0
 10 14  2  0
 10 15  1  0
 11 16  1  0
 17 12  1  1
 13 18  2  0
 17 18  1  0
 15 19  1  0
 16 19  2  0
 16 20  1  0
 17 21  1  0
 18 22  1  0
 21 23  1  0
 20 24  2  0
 19 25  1  0
 21 26  2  0
 22 27  2  0
 26 27  1  0
 24 28  1  0
 25 28  2  0
M  END
