mac-x0142-mac-x0404
     RDKit          3D

 27 31  0  0  0  0  0  0  0  0999 V2000
    1.5700   12.3370   -2.6570 O   0  0  0  0  0  0  0  0  0  0  0  0
    0.8270   11.6040   -3.5210 C   0  0  0  0  0  0  0  0  0  0  0  0
    0.0950   10.7210   -3.1090 O   0  0  0  0  0  0  0  0  0  0  0  0
    1.0100   11.9720   -5.0230 C   0  0  0  0  0  0  0  0  0  0  0  0
    0.1620   12.9250   -5.5400 O   0  0  0  0  0  0  0  0  0  0  0  0
   -0.4850   13.4290   -4.4290 C   0  0  1  0  0  0  0  0  0  0  0  0
    0.4210   14.5470   -4.0140 C   0  0  0  0  0  0  0  0  0  0  0  0
   -1.9160   13.8420   -4.6810 C   0  0  0  0  0  0  0  0  0  0  0  0
    1.9070   14.4440   -4.3860 C   0  0  0  0  0  0  0  0  0  0  0  0
    1.5090   14.2570   -2.9630 C   0  0  0  0  0  0  0  0  0  0  0  0
   -2.4310   14.6890   -3.5050 C   0  0  0  0  0  0  0  0  0  0  0  0
   -0.3650   15.8890   -3.9650 C   0  0  1  0  0  0  0  0  0  0  0  0
   -1.3790   15.5630   -2.9020 N   0  0  0  0  0  0  0  0  0  0  0  0
    0.6330   17.0860   -3.7320 C   0  0  0  0  0  0  0  0  0  0  0  0
   -1.3010   16.3300   -5.1230 C   0  0  0  0  0  0  0  0  0  0  0  0
   -1.2890   15.4140   -1.4900 C   0  0  0  0  0  0  0  0  0  0  0  0
   -1.1540   17.4090   -5.9080 C   0  0  0  0  0  0  0  0  0  0  0  0
    0.7960   18.1520   -4.7780 C   0  0  0  0  0  0  0  0  0  0  0  0
   -0.1640   15.2580   -0.6960 N   0  0  0  0  0  0  0  0  0  0  0  0
   -2.4390   15.4060   -0.8190 C   0  0  0  0  0  0  0  0  0  0  0  0
   -0.0530   18.2980   -5.7850 C   0  0  0  0  0  0  0  0  0  0  0  0
   -0.2720   15.0900    0.6730 C   0  0  0  0  0  0  0  0  0  0  0  0
   -2.4820   15.2390    0.6450 C   0  0  0  0  0  0  0  0  0  0  0  0
   -3.8080   15.5340   -1.1870 C   0  0  0  0  0  0  0  0  0  0  0  0
   -1.3570   15.0510    1.3840 N   0  0  0  0  0  0  0  0  0  0  0  0
   -3.6990   15.2930    1.1010 N   0  0  0  0  0  0  0  0  0  0  0  0
   -4.4790   15.4690   -0.0310 C   0  0  0  0  0  0  0  0  0  0  0  0
  1  2  1  0
  2  3  2  0
  2  4  1  0
  4  5  1  0
  6  5  1  6
  6  7  1  0
  6  8  1  0
  7  9  1  0
  7 10  1  0
  9 10  1  0
  8 11  1  0
  7 12  1  0
 11 13  1  0
 12 13  1  0
 12 14  1  1
 12 15  1  0
 13 16  1  0
 15 17  2  0
 14 18  1  0
 16 19  1  0
 16 20  2  0
 17 21  1  0
 18 21  2  0
 19 22  1  0
 20 23  1  0
 20 24  1  0
 22 25  2  0
 23 25  1  0
 23 26  2  0
 24 27  2  0
 26 27  1  0
M  END
