mac-x0226-mac-x0284
     RDKit          3D

 26 28  0  0  0  0  0  0  0  0999 V2000
    1.4520   12.1650   -2.1110 O   0  0  0  0  0  0  0  0  0  0  0  0
    0.3740   11.6470   -2.8660 C   0  0  0  0  0  0  0  0  0  0  0  0
    0.0830   10.3280   -2.4070 O   0  0  0  0  0  0  0  0  0  0  0  0
   -0.7700   12.5980   -2.6780 C   0  0  0  0  0  0  0  0  0  0  0  0
    0.6470   11.7080   -4.3130 C   0  0  0  0  0  0  0  0  0  0  0  0
   -0.2080   13.8620   -3.0360 O   0  0  0  0  0  0  0  0  0  0  0  0
    1.5560   12.5320   -5.0100 C   0  0  0  0  0  0  0  0  0  0  0  0
    0.0510   10.9610   -5.2870 C   0  0  0  0  0  0  0  0  0  0  0  0
   -0.3720   14.6720   -2.0260 C   0  0  0  0  0  0  0  0  0  0  0  0
    1.5340   12.3080   -6.3190 N   0  0  0  0  0  0  0  0  0  0  0  0
    0.6010   11.3290   -6.4770 N   0  0  0  0  0  0  0  0  0  0  0  0
    0.4860   15.1700   -1.3120 O   0  0  0  0  0  0  0  0  0  0  0  0
    0.2790   10.7890   -7.7300 C   0  0  0  0  0  0  0  0  0  0  0  0
   -1.8150   14.8720   -1.8850 C   0  0  0  0  0  0  0  0  0  0  0  0
   -0.9510   10.1670   -7.9380 C   0  0  0  0  0  0  0  0  0  0  0  0
    1.2050   10.8720   -8.7710 C   0  0  0  0  0  0  0  0  0  0  0  0
   -2.4110   14.9880   -0.6310 C   0  0  0  0  0  0  0  0  0  0  0  0
   -2.6020   14.9530   -3.0440 C   0  0  0  0  0  0  0  0  0  0  0  0
   -2.1110   14.8490   -4.3260 O   0  0  0  0  0  0  0  0  0  0  0  0
   -1.2560    9.6320   -9.1850 C   0  0  0  0  0  0  0  0  0  0  0  0
    0.8990   10.3400  -10.0150 C   0  0  0  0  0  0  0  0  0  0  0  0
   -3.7800   15.2070   -0.5210 C   0  0  0  0  0  0  0  0  0  0  0  0
   -3.9680   15.1580   -2.9380 C   0  0  0  0  0  0  0  0  0  0  0  0
   -4.3930   15.3550    0.8360 C   0  0  0  0  0  0  0  0  0  0  0  0
   -0.3300    9.7190  -10.2260 C   0  0  0  0  0  0  0  0  0  0  0  0
   -4.5600   15.2890   -1.6810 C   0  0  0  0  0  0  0  0  0  0  0  0
  2  1  1  0
  2  3  1  0
  2  4  1  0
  2  5  1  0
  4  6  1  0
  5  7  1  0
  5  8  2  0
  6  9  1  0
  7 10  2  0
  8 11  1  0
 10 11  1  0
  9 12  2  0
 11 13  1  0
  9 14  1  0
 13 15  2  0
 13 16  1  0
 14 17  2  0
 14 18  1  0
 18 19  1  0
 15 20  1  0
 16 21  2  0
 17 22  1  0
 18 23  2  0
 22 24  1  0
 20 25  2  0
 21 25  1  0
 22 26  2  0
 23 26  1  0
M  END
