mac-x0568-diamond-x0574_0_A
     RDKit          3D

 21 23  0  0  0  0  0  0  0  0999 V2000
   -7.9370   12.3900    0.8420 C   0  0  0  0  0  0  0  0  0  0  0  0
   -7.5200   13.4620   -0.1610 C   0  0  1  0  0  0  0  0  0  0  0  0
   -6.4970   14.4800    0.3910 C   0  0  2  0  0  0  0  0  0  0  0  0
   -7.0180   12.9060   -1.4090 N   0  0  0  0  0  0  0  0  0  0  0  0
   -6.6190   13.9060   -2.4310 C   0  0  0  0  0  0  0  0  0  0  0  0
   -6.4930   15.6680   -0.6110 C   0  0  0  0  0  0  0  0  0  0  0  0
   -5.0300   14.1990    0.2440 C   0  0  0  0  0  0  0  0  0  0  0  0
   -6.9350   14.7820    1.8610 C   0  0  0  0  0  0  0  0  0  0  0  0
   -6.0240   15.2650   -1.9890 C   0  0  1  0  0  0  0  0  0  0  0  0
   -4.1490   14.4420    1.2720 C   0  0  0  0  0  0  0  0  0  0  0  0
   -4.5370   13.7090   -0.9700 C   0  0  0  0  0  0  0  0  0  0  0  0
   -4.4920   15.3630   -2.1450 C   0  0  0  0  0  0  0  0  0  0  0  0
   -2.8050   14.2060    1.0780 C   0  0  0  0  0  0  0  0  0  0  0  0
   -3.1910   13.4730   -1.1900 C   0  0  0  0  0  0  0  0  0  0  0  0
   -3.8880   15.1090   -3.1780 O   0  0  0  0  0  0  0  0  0  0  0  0
   -3.7830   15.7660   -1.0500 N   0  0  0  0  0  0  0  0  0  0  0  0
   -2.3350   13.7350   -0.1410 C   0  0  0  0  0  0  0  0  0  0  0  0
   -1.8740   14.4020    2.0170 N   0  0  0  0  0  0  0  0  0  0  0  0
   -0.7400   14.0790    1.5520 C   0  0  0  0  0  0  0  0  0  0  0  0
   -0.6380   13.5600   -0.0640 S   0  0  0  0  0  0  0  0  0  0  0  0
    0.2780   14.1450    2.3350 N   0  0  0  0  0  0  0  0  0  0  0  0
  2  1  1  1
  2  3  1  0
  2  4  1  0
  4  5  1  0
  3  6  1  0
  3  7  1  0
  3  8  1  1
  5  9  1  0
  6  9  1  0
  7 10  2  0
  7 11  1  0
  9 12  1  1
 10 13  1  0
 11 14  2  0
 12 15  2  0
 12 16  1  0
 13 17  2  0
 14 17  1  0
 13 18  1  0
 18 19  2  0
 17 20  1  0
 19 20  1  0
 19 21  1  0
M  END
