mac-x0415-diamond-x0685_1_A
     RDKit          3D

 23 25  0  0  0  0  0  0  0  0999 V2000
    0.5810   10.8020   -2.7990 O   0  0  0  0  0  0  0  0  0  0  0  0
    0.9370   12.1510   -2.8840 C   0  0  0  0  0  0  0  0  0  0  0  0
    0.4250   12.7720   -1.7260 O   0  0  0  0  0  0  0  0  0  0  0  0
    0.4390   12.6990   -4.2530 C   0  0  1  0  0  0  0  0  0  0  0  0
    2.3300   12.2540   -2.8150 O   0  0  0  0  0  0  0  0  0  0  0  0
   -0.9830   12.1720   -4.6280 C   0  0  0  0  0  0  0  0  0  0  0  0
    0.5050   14.1850   -4.3350 C   0  0  0  0  0  0  0  0  0  0  0  0
   -1.0680   10.7330   -4.9030 N   0  0  0  0  0  0  0  0  0  0  0  0
    1.6700   15.0800   -4.2530 C   0  0  0  0  0  0  0  0  0  0  0  0
   -0.4500   15.0610   -4.5520 C   0  0  0  0  0  0  0  0  0  0  0  0
    1.4580   16.3570   -4.3890 N   0  0  0  0  0  0  0  0  0  0  0  0
    0.0220   16.4590   -4.4810 C   0  0  1  0  0  0  0  0  0  0  0  0
   -1.8160   14.8070   -4.8270 C   0  0  0  0  0  0  0  0  0  0  0  0
   -0.6980   10.3230   -6.2640 C   0  0  0  0  0  0  0  0  0  0  0  0
   -0.6710   17.3790   -5.4260 C   0  0  0  0  0  0  0  0  0  0  0  0
   -2.5060   15.7330   -5.4920 C   0  0  0  0  0  0  0  0  0  0  0  0
   -0.5670    8.8060   -6.4710 C   0  0  0  0  0  0  0  0  0  0  0  0
   -1.5660   10.9890   -7.3470 C   0  0  0  0  0  0  0  0  0  0  0  0
   -4.2540   15.3320   -5.9620 Br  0  0  0  0  0  0  0  0  0  0  0  0
   -1.8950   17.0240   -5.8900 C   0  0  0  0  0  0  0  0  0  0  0  0
    0.0430    8.5080   -7.8310 C   0  0  0  0  0  0  0  0  0  0  0  0
   -1.0120   10.6800   -8.7360 C   0  0  0  0  0  0  0  0  0  0  0  0
   -0.7650    9.1770   -8.9460 C   0  0  0  0  0  0  0  0  0  0  0  0
  2  1  1  0
  2  3  1  0
  2  4  1  0
  2  5  1  0
  4  6  1  1
  4  7  1  0
  6  8  1  0
  7  9  1  0
  7 10  2  0
  9 11  2  0
 10 12  1  0
 11 12  1  0
 10 13  1  0
  8 14  1  0
 12 15  1  6
 13 16  2  0
 14 17  1  0
 14 18  1  0
 16 19  1  0
 15 20  2  0
 16 20  1  0
 17 21  1  0
 18 22  1  0
 21 23  1  0
 22 23  1  0
M  END
