mac-x0347-mac-x0546
     RDKit          3D

 29 32  0  0  0  0  0  0  0  0999 V2000
    1.2360   14.9820   -1.1600 O   0  0  0  0  0  0  0  0  0  0  0  0
    0.5780   14.0590   -1.8640 C   0  0  0  0  0  0  0  0  0  0  0  0
    1.2050   12.9930   -2.1900 N   0  0  0  0  0  0  0  0  0  0  0  0
   -0.8310   14.4130   -2.1830 C   0  0  0  0  0  0  0  0  0  0  0  0
    0.5880   11.9560   -2.9880 C   0  0  2  0  0  0  0  0  0  0  0  0
   -1.7710   14.3890   -1.1650 C   0  0  0  0  0  0  0  0  0  0  0  0
   -1.2810   14.7780   -3.4400 C   0  0  0  0  0  0  0  0  0  0  0  0
    0.5200   12.4780   -4.4360 C   0  0  0  0  0  0  0  0  0  0  0  0
   -0.6790   11.5310   -2.5140 O   0  0  0  0  0  0  0  0  0  0  0  0
   -3.1070   14.7200   -1.4220 C   0  0  0  0  0  0  0  0  0  0  0  0
   -2.5710   15.1070   -3.7310 N   0  0  0  0  0  0  0  0  0  0  0  0
   -3.4460   15.0690   -2.7200 C   0  0  0  0  0  0  0  0  0  0  0  0
   -4.0860   14.6930   -0.3600 C   0  0  0  0  0  0  0  0  0  0  0  0
    0.7550   13.9570   -4.5040 C   0  0  0  0  0  0  0  0  0  0  0  0
   -3.8240   15.3420    0.8480 C   0  0  0  0  0  0  0  0  0  0  0  0
   -5.3030   14.0170   -0.5180 C   0  0  0  0  0  0  0  0  0  0  0  0
   -0.0620   14.8640   -5.3210 C   0  0  1  0  0  0  0  0  0  0  0  0
    1.6970   14.6880   -3.8950 C   0  0  0  0  0  0  0  0  0  0  0  0
   -4.7540   15.3160    1.8730 C   0  0  0  0  0  0  0  0  0  0  0  0
   -6.2360   13.9880    0.5120 C   0  0  0  0  0  0  0  0  0  0  0  0
   -1.5480   14.9630   -5.2800 C   0  0  0  0  0  0  0  0  0  0  0  0
    0.5710   16.1640   -4.8850 C   0  0  0  0  0  0  0  0  0  0  0  0
    1.5940   16.0360   -4.1170 N   0  0  0  0  0  0  0  0  0  0  0  0
   -5.9600   14.6370    1.7090 C   0  0  0  0  0  0  0  0  0  0  0  0
   -2.1420   16.1690   -5.4230 C   0  0  0  0  0  0  0  0  0  0  0  0
   -0.0110   17.4340   -5.3520 C   0  0  0  0  0  0  0  0  0  0  0  0
   -3.4850   16.4010   -5.4440 O   0  0  0  0  0  0  0  0  0  0  0  0
   -1.3400   17.3850   -5.5940 C   0  0  0  0  0  0  0  0  0  0  0  0
   -4.3060   15.3370   -5.9250 C   0  0  0  0  0  0  0  0  0  0  0  0
  1  2  1  0
  2  3  2  3
  2  4  1  0
  3  5  1  0
  4  6  2  0
  4  7  1  0
  5  8  1  0
  5  9  1  1
  6 10  1  0
  7 11  2  0
 10 12  2  0
 11 12  1  0
 10 13  1  0
  8 14  1  0
 13 15  2  0
 13 16  1  0
 14 17  1  0
 14 18  2  0
 15 19  1  0
 16 20  2  0
 17 21  1  1
 17 22  1  0
 18 23  1  0
 22 23  2  0
 19 24  2  0
 20 24  1  0
 21 25  2  0
 22 26  1  0
 25 27  1  0
 25 28  1  0
 26 28  2  0
 27 29  1  0
M  END
