mac-x0116-mac-x0358
     RDKit          3D

 28 31  0  0  0  0  0  0  0  0999 V2000
   -6.0970   14.7470    1.4240 C   0  0  0  0  0  0  0  0  0  0  0  0
   -4.7080   15.1460    1.6090 N   0  0  0  0  0  0  0  0  0  0  0  0
   -3.9000   15.0210    0.4780 C   0  0  0  0  0  0  0  0  0  0  0  0
   -6.4430   13.2960    1.5280 C   0  0  0  0  0  0  0  0  0  0  0  0
   -6.3540   12.5500    0.3880 O   0  0  0  0  0  0  0  0  0  0  0  0
   -6.8620   12.5040    2.5770 C   0  0  0  0  0  0  0  0  0  0  0  0
   -7.0430   11.2110    2.0540 C   0  0  0  0  0  0  0  0  0  0  0  0
   -6.7210   11.2900    0.7210 C   0  0  0  0  0  0  0  0  0  0  0  0
   -4.4540   15.1850   -0.7530 N   0  0  0  0  0  0  0  0  0  0  0  0
   -2.5180   14.7290    0.5450 C   0  0  0  0  0  0  0  0  0  0  0  0
   -3.6750   15.0560   -1.8410 C   0  0  0  0  0  0  0  0  0  0  0  0
   -1.8460   14.6230   -0.6660 C   0  0  0  0  0  0  0  0  0  0  0  0
   -1.6540   14.5150    1.6050 N   0  0  0  0  0  0  0  0  0  0  0  0
   -2.3620   14.7740   -1.8970 N   0  0  0  0  0  0  0  0  0  0  0  0
   -0.5530   14.3320   -0.3360 N   0  0  0  0  0  0  0  0  0  0  0  0
   -0.4890   14.2830    1.0380 C   0  0  0  0  0  0  0  0  0  0  0  0
    0.5420   14.1160   -1.2730 C   0  0  0  0  0  0  0  0  0  0  0  0
    0.7390   12.6970   -1.4720 O   0  0  0  0  0  0  0  0  0  0  0  0
    0.5760   12.1410   -2.7310 C   0  0  0  0  0  0  0  0  0  0  0  0
    0.2810   10.9640   -2.8720 O   0  0  0  0  0  0  0  0  0  0  0  0
    0.7990   13.1200   -3.8830 C   0  0  0  0  0  0  0  0  0  0  0  0
   -0.4900   13.5580   -4.5500 C   0  0  0  0  0  0  0  0  0  0  0  0
   -1.3910   12.6250   -5.0910 C   0  0  0  0  0  0  0  0  0  0  0  0
   -0.8140   14.9240   -4.6370 C   0  0  0  0  0  0  0  0  0  0  0  0
   -1.0830   11.2910   -5.0110 O   0  0  0  0  0  0  0  0  0  0  0  0
   -2.5800   13.0360   -5.6990 C   0  0  0  0  0  0  0  0  0  0  0  0
   -2.0050   15.3380   -5.2430 C   0  0  0  0  0  0  0  0  0  0  0  0
   -2.8870   14.3970   -5.7740 C   0  0  0  0  0  0  0  0  0  0  0  0
  1  2  1  0
  2  3  1  0
  1  4  1  0
  4  5  1  0
  4  6  2  0
  6  7  1  0
  5  8  1  0
  7  8  2  0
  3  9  2  0
  3 10  1  0
  9 11  1  0
 10 12  2  0
 10 13  1  0
 11 14  2  0
 12 14  1  0
 12 15  1  0
 13 16  2  0
 15 16  1  0
 15 17  1  0
 17 18  1  0
 18 19  1  0
 19 20  2  0
 19 21  1  0
 21 22  1  0
 22 23  2  0
 22 24  1  0
 23 25  1  0
 23 26  1  0
 24 27  2  0
 26 28  2  0
 27 28  1  0
M  END
