mac-x0375-mac-x0277
     RDKit          3D

 19 20  0  0  0  0  0  0  0  0999 V2000
    1.9310   12.9400   -2.6880 O   0  0  0  0  0  0  0  0  0  0  0  0
    1.0610   12.0690   -3.2250 C   0  0  0  0  0  0  0  0  0  0  0  0
    0.9100   10.9750   -2.7130 O   0  0  0  0  0  0  0  0  0  0  0  0
    0.3020   12.5740   -4.4390 C   0  0  2  0  0  0  0  0  0  0  0  0
    0.5680   11.8100   -5.6240 O   0  0  0  0  0  0  0  0  0  0  0  0
    0.1560   14.0820   -4.5970 C   0  0  0  0  0  0  0  0  0  0  0  0
   -0.4790   10.9650   -5.9050 C   0  0  0  0  0  0  0  0  0  0  0  0
   -1.1270   14.4600   -4.9390 C   0  0  0  0  0  0  0  0  0  0  0  0
    1.1420   15.0870   -4.4290 C   0  0  0  0  0  0  0  0  0  0  0  0
   -0.2480    9.9130   -6.7990 C   0  0  0  0  0  0  0  0  0  0  0  0
   -1.7460   11.1050   -5.3410 C   0  0  0  0  0  0  0  0  0  0  0  0
   -1.4780   15.7710   -5.1230 C   0  0  0  0  0  0  0  0  0  0  0  0
    0.7790   16.4410   -4.6180 C   0  0  0  0  0  0  0  0  0  0  0  0
   -3.1150   16.0460   -5.5530 Cl  0  0  0  0  0  0  0  0  0  0  0  0
   -1.2790    9.0160   -7.1110 C   0  0  0  0  0  0  0  0  0  0  0  0
   -2.7710   10.2130   -5.6520 C   0  0  0  0  0  0  0  0  0  0  0  0
   -0.5380   16.7760   -4.9670 C   0  0  0  0  0  0  0  0  0  0  0  0
   -0.9680   18.4290   -5.1990 Cl  0  0  0  0  0  0  0  0  0  0  0  0
   -2.5380    9.1680   -6.5360 C   0  0  0  0  0  0  0  0  0  0  0  0
  1  2  1  0
  2  3  2  0
  2  4  1  0
  4  5  1  6
  4  6  1  0
  5  7  1  0
  6  8  2  0
  6  9  1  0
  7 10  2  0
  7 11  1  0
  8 12  1  0
  9 13  2  0
 12 14  1  0
 10 15  1  0
 11 16  2  0
 12 17  2  0
 13 17  1  0
 17 18  1  0
 15 19  2  0
 16 19  1  0
M  END
