mac-x0193-diamond-x0592_0_A
     RDKit          3D

 28 29  0  0  0  0  0  0  0  0999 V2000
    0.2820   10.3330   -3.2660 O   0  0  0  0  0  0  0  0  0  0  0  0
    0.5460   11.6450   -3.1750 C   0  0  0  0  0  0  0  0  0  0  0  0
    0.4650   12.0470   -1.9440 N   0  0  0  0  0  0  0  0  0  0  0  0
    0.8550   12.3120   -4.5290 C   0  0  0  0  0  0  0  0  0  0  0  0
    0.2280   11.5380   -5.6110 N   0  0  0  0  0  0  0  0  0  0  0  0
    0.6690   13.4280   -1.5540 C   0  0  0  0  0  0  0  0  0  0  0  0
    0.8230   11.3310   -6.8530 C   0  0  0  0  0  0  0  0  0  0  0  0
   -0.1840   13.5610   -0.2960 C   0  0  0  0  0  0  0  0  0  0  0  0
    1.9680   11.6360   -7.1230 O   0  0  0  0  0  0  0  0  0  0  0  0
   -0.0780   10.7340   -7.7280 N   0  0  0  0  0  0  0  0  0  0  0  0
   -0.8560   14.9010   -0.2140 C   0  0  0  0  0  0  0  0  0  0  0  0
   -2.2510   14.8160   -0.6790 N   0  0  0  0  0  0  0  0  0  0  0  0
    0.2480    9.7550   -8.7880 C   0  0  0  0  0  0  0  0  0  0  0  0
   -3.2250   14.8720    0.1610 C   0  0  0  0  0  0  0  0  0  0  0  0
    1.7130    9.3730   -8.7760 C   0  0  0  0  0  0  0  0  0  0  0  0
   -0.1780   10.2620  -10.1810 C   0  0  0  0  0  0  0  0  0  0  0  0
   -2.9640   14.9830    1.4950 N   0  0  0  0  0  0  0  0  0  0  0  0
    2.0330    8.2120   -9.7170 C   0  0  0  0  0  0  0  0  0  0  0  0
    0.6600    9.6540  -11.3120 C   0  0  0  0  0  0  0  0  0  0  0  0
   -4.6440   14.8520   -0.0960 C   0  0  0  0  0  0  0  0  0  0  0  0
    1.1720    8.2510  -10.9760 C   0  0  0  0  0  0  0  0  0  0  0  0
   -5.3700   15.0920   -1.2910 C   0  0  0  0  0  0  0  0  0  0  0  0
   -5.6210   14.5860    0.8320 C   0  0  0  0  0  0  0  0  0  0  0  0
   -6.6970   14.9830   -1.1180 N   0  0  0  0  0  0  0  0  0  0  0  0
   -6.8120   14.6760    0.1870 N   0  0  0  0  0  0  0  0  0  0  0  0
   -8.1130   14.4740    0.7970 C   0  0  0  0  0  0  0  0  0  0  0  0
   -7.9690   14.0700    2.2600 C   0  0  0  0  0  0  0  0  0  0  0  0
   -7.1950   15.0130    3.0010 O   0  0  0  0  0  0  0  0  0  0  0  0
  1  2  1  0
  2  3  2  3
  2  4  1  0
  4  5  1  0
  3  6  1  0
  5  7  1  0
  6  8  1  0
  7  9  2  0
  7 10  1  0
  8 11  1  0
 11 12  1  0
 10 13  1  0
 12 14  2  3
 13 15  1  0
 13 16  1  0
 14 17  1  0
 15 18  1  0
 16 19  1  0
 14 20  1  0
 18 21  1  0
 19 21  1  0
 20 22  1  0
 20 23  2  0
 22 24  2  0
 23 25  1  0
 24 25  1  0
 25 26  1  0
 26 27  1  0
 27 28  1  0
M  END
