mac-x0326-mac-x0565
     RDKit          3D

 17 18  0  0  0  0  0  0  0  0999 V2000
   -5.9270   15.3520   -0.8690 N   0  0  0  0  0  0  0  0  0  0  0  0
   -6.3430   15.0660    0.4220 O   0  0  0  0  0  0  0  0  0  0  0  0
   -6.8620   14.9470   -1.7980 O   0  0  0  0  0  0  0  0  0  0  0  0
   -4.5340   15.1630   -1.0840 C   0  0  0  0  0  0  0  0  0  0  0  0
   -3.8960   15.1210   -2.3450 C   0  0  0  0  0  0  0  0  0  0  0  0
   -3.7580   15.0040    0.0640 C   0  0  0  0  0  0  0  0  0  0  0  0
   -2.4890   14.9160   -2.4270 C   0  0  0  0  0  0  0  0  0  0  0  0
   -2.3850   14.8010    0.0190 C   0  0  0  0  0  0  0  0  0  0  0  0
   -1.7130   14.8500   -3.5790 N   0  0  0  0  0  0  0  0  0  0  0  0
   -1.7660   14.7610   -1.2340 C   0  0  0  0  0  0  0  0  0  0  0  0
   -0.4430   14.6530   -3.2690 C   0  0  0  0  0  0  0  0  0  0  0  0
   -0.0990   14.5350   -1.5900 S   0  0  0  0  0  0  0  0  0  0  0  0
    0.6630   14.5310   -4.2820 C   0  0  0  0  0  0  0  0  0  0  0  0
    1.0330   13.0740   -4.5440 C   0  0  0  0  0  0  0  0  0  0  0  0
    1.0690   12.2510   -3.2830 C   0  0  0  0  0  0  0  0  0  0  0  0
    0.2610   11.1750   -3.3040 O   0  0  0  0  0  0  0  0  0  0  0  0
    1.7470   12.4820   -2.3030 O   0  0  0  0  0  0  0  0  0  0  0  0
  1  2  1  0
  1  3  1  0
  1  4  1  0
  4  5  2  0
  4  6  1  0
  5  7  1  0
  6  8  2  0
  7  9  1  0
  7 10  2  0
  8 10  1  0
  9 11  2  0
 10 12  1  0
 11 12  1  0
 11 13  1  0
 13 14  1  0
 14 15  1  0
 15 16  1  0
 15 17  2  0
M  END
