mac-x0361-mac-x0436
     RDKit          3D

 27 29  0  0  0  0  0  0  0  0999 V2000
   -6.2720   14.8780    1.7390 N   0  0  0  0  0  0  0  0  0  0  0  0
   -6.4980   14.7100    0.3970 C   0  0  0  0  0  0  0  0  0  0  0  0
   -7.6480   14.4680    0.0240 O   0  0  0  0  0  0  0  0  0  0  0  0
   -5.3900   14.8220   -0.6090 C   0  0  0  0  0  0  0  0  0  0  0  0
   -4.0640   14.7400   -0.1580 C   0  0  0  0  0  0  0  0  0  0  0  0
   -5.6320   15.0000   -1.9790 C   0  0  0  0  0  0  0  0  0  0  0  0
   -3.0020   14.8300   -1.0610 C   0  0  0  0  0  0  0  0  0  0  0  0
   -4.5630   15.0870   -2.8740 C   0  0  0  0  0  0  0  0  0  0  0  0
   -3.2530   15.0020   -2.4240 C   0  0  0  0  0  0  0  0  0  0  0  0
   -2.2880   15.1000   -3.3950 O   0  0  0  0  0  0  0  0  0  0  0  0
   -1.5180   13.8990   -3.6630 C   0  0  0  0  0  0  0  0  0  0  0  0
   -2.2100   12.6370   -3.9540 N   0  0  0  0  0  0  0  0  0  0  0  0
   -1.7570   11.7520   -4.7960 C   0  0  0  0  0  0  0  0  0  0  0  0
   -0.4080   12.0520   -5.5250 C   0  0  0  0  0  0  0  0  0  0  0  0
   -2.3530   10.5450   -5.1240 N   0  0  0  0  0  0  0  0  0  0  0  0
    0.4010   13.2880   -5.1840 C   0  0  0  0  0  0  0  0  0  0  0  0
   -1.8510    9.7340   -6.1600 C   0  0  0  0  0  0  0  0  0  0  0  0
    0.0570   11.2580   -6.4490 N   0  0  0  0  0  0  0  0  0  0  0  0
    1.6060   12.9260   -4.3220 C   0  0  0  0  0  0  0  0  0  0  0  0
   -0.6580   10.1030   -6.8060 C   0  0  0  0  0  0  0  0  0  0  0  0
   -2.5180    8.5690   -6.5600 C   0  0  0  0  0  0  0  0  0  0  0  0
    1.2510   12.4120   -2.9470 C   0  0  0  0  0  0  0  0  0  0  0  0
   -0.1530    9.3050   -7.8360 C   0  0  0  0  0  0  0  0  0  0  0  0
   -2.0030    7.7780   -7.5910 C   0  0  0  0  0  0  0  0  0  0  0  0
    0.5860   11.2390   -2.9910 O   0  0  0  0  0  0  0  0  0  0  0  0
    1.5040   12.9380   -1.8830 O   0  0  0  0  0  0  0  0  0  0  0  0
   -0.8200    8.1440   -8.2290 C   0  0  0  0  0  0  0  0  0  0  0  0
  1  2  1  0
  2  3  2  0
  2  4  1  0
  4  5  2  0
  4  6  1  0
  5  7  1  0
  6  8  2  0
  7  9  2  0
  8  9  1  0
  9 10  1  0
 10 11  1  0
 11 12  1  0
 12 13  2  3
 13 14  1  0
 13 15  1  0
 14 16  1  0
 15 17  1  0
 14 18  2  0
 16 19  1  0
 17 20  2  0
 18 20  1  0
 17 21  1  0
 19 22  1  0
 20 23  1  0
 21 24  2  0
 22 25  1  0
 22 26  2  0
 23 27  2  0
 24 27  1  0
M  END
