mac-x0398-diamond-x0685_1_A
     RDKit          3D

 26 27  0  0  0  0  0  0  0  0999 V2000
   -6.4100   14.8080    2.1150 N   0  0  0  0  0  0  0  0  0  0  0  0
   -5.6670   14.9250    0.9380 C   0  0  0  0  0  0  0  0  0  0  0  0
   -4.2690   14.9840    0.9830 C   0  0  0  0  0  0  0  0  0  0  0  0
   -6.3140   14.9870   -0.2980 C   0  0  0  0  0  0  0  0  0  0  0  0
   -5.5800   15.0990   -1.4720 C   0  0  0  0  0  0  0  0  0  0  0  0
   -3.5320   15.0950   -0.1930 C   0  0  0  0  0  0  0  0  0  0  0  0
   -6.2270   15.1560   -2.6700 O   0  0  0  0  0  0  0  0  0  0  0  0
   -4.1920   15.1490   -1.4310 C   0  0  0  0  0  0  0  0  0  0  0  0
   -3.4340   15.2540   -2.6960 C   0  0  0  0  0  0  0  0  0  0  0  0
   -3.9240   15.4150   -3.7960 O   0  0  0  0  0  0  0  0  0  0  0  0
   -2.1160   15.1330   -2.4270 O   0  0  0  0  0  0  0  0  0  0  0  0
   -1.7330   13.9100   -1.7880 C   0  0  0  0  0  0  0  0  0  0  0  0
   -0.3140   14.0010   -1.2540 C   0  0  0  0  0  0  0  0  0  0  0  0
    0.2470   12.6990   -1.2690 O   0  0  0  0  0  0  0  0  0  0  0  0
    0.6670   11.9800   -2.6490 S   0  0  0  0  0  0  0  0  0  0  0  0
   -0.2060   12.7000   -4.0480 C   0  0  0  0  0  0  0  0  0  0  0  0
    2.2090   12.2520   -2.9950 O   0  0  0  0  0  0  0  0  0  0  0  0
    0.3220   10.4060   -2.6060 O   0  0  0  0  0  0  0  0  0  0  0  0
   -1.4850   11.9560   -4.4460 C   0  0  0  0  0  0  0  0  0  0  0  0
   -1.2440   10.5410   -4.8130 N   0  0  0  0  0  0  0  0  0  0  0  0
   -0.6570   10.3580   -6.1600 C   0  0  0  0  0  0  0  0  0  0  0  0
   -0.4790    8.8600   -6.4490 C   0  0  0  0  0  0  0  0  0  0  0  0
   -1.5740   10.9830   -7.2310 C   0  0  0  0  0  0  0  0  0  0  0  0
    0.1130    8.6360   -7.8360 C   0  0  0  0  0  0  0  0  0  0  0  0
   -1.0450   10.7300   -8.6480 C   0  0  0  0  0  0  0  0  0  0  0  0
   -0.7820    9.2480   -8.9100 C   0  0  0  0  0  0  0  0  0  0  0  0
  1  2  1  0
  2  3  2  0
  2  4  1  0
  4  5  2  0
  3  6  1  0
  5  7  1  0
  5  8  1  0
  6  8  2  0
  8  9  1  0
  9 10  2  0
  9 11  1  0
 11 12  1  0
 12 13  1  0
 13 14  1  0
 15 14  1  0
 15 16  1  0
 15 17  1  0
 15 18  1  0
 16 19  1  0
 19 20  1  0
 20 21  1  0
 21 22  1  0
 21 23  1  0
 22 24  1  0
 23 25  1  0
 24 26  1  0
 25 26  1  0
M  END
