mac-x0263-diamond-x0628_0_A
     RDKit          3D

 28 30  0  0  0  0  0  0  0  0999 V2000
  -11.3780   14.3960    2.4060 O   0  0  0  0  0  0  0  0  0  0  0  0
  -10.7170   15.5190    2.7670 C   0  0  0  0  0  0  0  0  0  0  0  0
  -11.1890   16.2700    3.6050 O   0  0  0  0  0  0  0  0  0  0  0  0
   -9.4160   15.7010    2.0390 C   0  0  0  0  0  0  0  0  0  0  0  0
   -8.8240   14.3690    1.5850 C   0  0  0  0  0  0  0  0  0  0  0  0
   -7.5180   14.5680    0.8860 C   0  0  0  0  0  0  0  0  0  0  0  0
   -7.4040   14.6560   -0.4770 N   0  0  0  0  0  0  0  0  0  0  0  0
   -6.3340   14.6810    1.4540 N   0  0  0  0  0  0  0  0  0  0  0  0
   -6.0780   14.8220   -0.7930 C   0  0  0  0  0  0  0  0  0  0  0  0
   -5.4280   14.8380    0.4290 C   0  0  0  0  0  0  0  0  0  0  0  0
   -5.4200   14.9510   -2.0170 C   0  0  0  0  0  0  0  0  0  0  0  0
   -4.0340   14.9960    0.4590 C   0  0  0  0  0  0  0  0  0  0  0  0
   -4.0210   15.0910   -2.0050 C   0  0  0  0  0  0  0  0  0  0  0  0
   -3.3420   15.1170   -0.7650 C   0  0  0  0  0  0  0  0  0  0  0  0
   -3.2900   15.1980   -3.3490 C   0  0  0  0  0  0  0  0  0  0  0  0
   -2.1330   14.1760   -3.6210 C   0  0  0  0  0  0  0  0  0  0  0  0
   -2.5310   12.6990   -3.9260 C   0  0  0  0  0  0  0  0  0  0  0  0
   -1.6780   11.9140   -4.9200 C   0  0  0  0  0  0  0  0  0  0  0  0
   -2.0490   10.7690   -5.4940 N   0  0  0  0  0  0  0  0  0  0  0  0
   -0.4140   12.2170   -5.3980 N   0  0  0  0  0  0  0  0  0  0  0  0
    0.4630   13.3390   -5.1100 C   0  0  0  0  0  0  0  0  0  0  0  0
   -0.9950   10.4180   -6.3000 C   0  0  0  0  0  0  0  0  0  0  0  0
    0.0230   11.2780   -6.2720 N   0  0  0  0  0  0  0  0  0  0  0  0
   -0.9820    9.1940   -7.1300 C   0  0  0  0  0  0  0  0  0  0  0  0
    1.6170   12.9350   -4.2050 C   0  0  0  0  0  0  0  0  0  0  0  0
    1.1100   12.2480   -2.9690 C   0  0  0  0  0  0  0  0  0  0  0  0
    0.6140   11.1370   -2.8900 O   0  0  0  0  0  0  0  0  0  0  0  0
    1.2530   12.9970   -1.8610 O   0  0  0  0  0  0  0  0  0  0  0  0
  1  2  1  0
  2  3  2  0
  2  4  1  0
  4  5  1  0
  5  6  1  0
  6  7  1  0
  6  8  2  0
  7  9  1  0
  8 10  1  0
  9 10  2  0
  9 11  1  0
 10 12  1  0
 11 13  2  0
 12 14  2  0
 13 14  1  0
 13 15  1  0
 15 16  1  0
 16 17  1  0
 17 18  1  0
 18 19  2  0
 18 20  1  0
 20 21  1  0
 19 22  1  0
 20 23  1  0
 22 23  2  0
 22 24  1  0
 21 25  1  0
 25 26  1  0
 26 27  2  0
 26 28  1  0
M  END
