mac-x0411-diamond-x0104_0_A
     RDKit          3D

 32 34  0  0  0  0  0  0  0  0999 V2000
    0.6830    8.9260   -7.7310 Cl  0  0  0  0  0  0  0  0  0  0  0  0
   -0.6210    9.5730   -6.8070 C   0  0  0  0  0  0  0  0  0  0  0  0
   -0.5250   10.8120   -6.1300 C   0  0  0  0  0  0  0  0  0  0  0  0
   -1.7870    8.8100   -6.7620 C   0  0  0  0  0  0  0  0  0  0  0  0
    0.6820   11.4920   -6.2320 O   0  0  0  0  0  0  0  0  0  0  0  0
   -1.6500   11.2830   -5.4030 C   0  0  0  0  0  0  0  0  0  0  0  0
   -2.8850    9.2620   -6.0500 C   0  0  0  0  0  0  0  0  0  0  0  0
   -1.6850   12.6040   -4.6440 C   0  0  0  0  0  0  0  0  0  0  0  0
    1.0110   12.4390   -5.1880 C   0  0  0  0  0  0  0  0  0  0  0  0
   -2.8160   10.4830   -5.3820 C   0  0  0  0  0  0  0  0  0  0  0  0
    0.8890   11.9210   -3.7510 C   0  0  0  0  0  0  0  0  0  0  0  0
   -2.9730   12.8670   -3.8420 C   0  0  0  0  0  0  0  0  0  0  0  0
    1.3680   12.7650   -2.8100 O   0  0  0  0  0  0  0  0  0  0  0  0
    0.4110   10.8360   -3.4540 O   0  0  0  0  0  0  0  0  0  0  0  0
   -2.7020   13.6910   -2.5760 C   0  0  0  0  0  0  0  0  0  0  0  0
   -3.3760   15.0590   -2.6400 C   0  0  0  0  0  0  0  0  0  0  0  0
   -4.7860   14.9370   -2.4930 O   0  0  0  0  0  0  0  0  0  0  0  0
   -5.2260   14.8570   -1.1890 C   0  0  0  0  0  0  0  0  0  0  0  0
   -4.3500   14.8260   -0.1650 N   0  0  0  0  0  0  0  0  0  0  0  0
   -6.6010   14.8100   -1.0340 C   0  0  0  0  0  0  0  0  0  0  0  0
   -4.8810   14.7490    1.0840 C   0  0  0  0  0  0  0  0  0  0  0  0
   -7.1190   14.7250    0.2550 C   0  0  0  0  0  0  0  0  0  0  0  0
   -6.2520   14.6960    1.3440 C   0  0  0  0  0  0  0  0  0  0  0  0
   -6.8200   14.6170    2.6290 N   0  0  0  0  0  0  0  0  0  0  0  0
   -8.0310   15.0950    3.0910 C   0  0  0  0  0  0  0  0  0  0  0  0
   -8.0170   14.9850    4.4710 N   0  0  0  0  0  0  0  0  0  0  0  0
   -8.9360   15.5250    2.3900 O   0  0  0  0  0  0  0  0  0  0  0  0
   -9.1430   15.0120    5.2870 C   0  0  0  0  0  0  0  0  0  0  0  0
   -9.1620   15.1500    6.6620 C   0  0  0  0  0  0  0  0  0  0  0  0
  -10.7200   14.8690    4.6530 S   0  0  0  0  0  0  0  0  0  0  0  0
  -11.4390   14.9880    6.1980 C   0  0  0  0  0  0  0  0  0  0  0  0
  -10.4920   15.1370    7.1900 C   0  0  0  0  0  0  0  0  0  0  0  0
  1  2  1  0
  2  3  2  0
  2  4  1  0
  3  5  1  0
  3  6  1  0
  4  7  2  0
  6  8  1  0
  5  9  1  0
  6 10  2  0
  7 10  1  0
  9 11  1  0
  8 12  1  0
 11 13  1  0
 11 14  2  0
 12 15  1  0
 15 16  1  0
 16 17  1  0
 17 18  1  0
 18 19  2  0
 18 20  1  0
 19 21  1  0
 20 22  2  0
 21 23  2  0
 22 23  1  0
 23 24  1  0
 24 25  1  0
 25 26  1  0
 25 27  2  0
 26 28  1  0
 28 29  2  0
 28 30  1  0
 30 31  1  0
 29 32  1  0
 31 32  2  0
M  END
