mac-x0139-diamond-x0950_0_A
     RDKit          3D

 18 19  0  0  0  0  0  0  0  0999 V2000
   -2.2100   14.9520   -3.4570 C   0  0  0  0  0  0  0  0  0  0  0  0
   -1.0620   14.6310   -2.5990 N   0  0  0  0  0  0  0  0  0  0  0  0
    0.2650   14.6770   -3.2980 C   0  0  0  0  0  0  0  0  0  0  0  0
   -1.2340   14.7420   -1.1900 C   0  0  0  0  0  0  0  0  0  0  0  0
    0.9240   13.3170   -3.7150 C   0  0  2  0  0  0  0  0  0  0  0  0
   -2.4660   14.8830   -0.6240 C   0  0  0  0  0  0  0  0  0  0  0  0
   -0.0900   14.7270   -0.3790 N   0  0  0  0  0  0  0  0  0  0  0  0
    0.7850   12.3340   -2.5560 C   0  0  0  0  0  0  0  0  0  0  0  0
    2.4010   13.3600   -4.1310 C   0  0  0  0  0  0  0  0  0  0  0  0
    0.2200   12.7560   -4.8600 O   0  0  0  0  0  0  0  0  0  0  0  0
   -2.5570   15.0030    0.8500 C   0  0  0  0  0  0  0  0  0  0  0  0
   -0.2480   14.8230    0.9100 C   0  0  0  0  0  0  0  0  0  0  0  0
   -3.8310   14.9750   -1.0330 C   0  0  0  0  0  0  0  0  0  0  0  0
    0.7880   12.5930   -1.3680 O   0  0  0  0  0  0  0  0  0  0  0  0
    0.6370   11.0530   -2.9610 O   0  0  0  0  0  0  0  0  0  0  0  0
   -1.4230   14.9270    1.5640 N   0  0  0  0  0  0  0  0  0  0  0  0
   -3.7730   15.1800    1.2570 N   0  0  0  0  0  0  0  0  0  0  0  0
   -4.5240   15.1560    0.0970 C   0  0  0  0  0  0  0  0  0  0  0  0
  1  2  1  0
  2  3  1  0
  2  4  1  0
  3  5  1  0
  4  6  2  0
  4  7  1  0
  5  8  1  0
  5  9  1  6
  5 10  1  0
  6 11  1  0
  7 12  2  0
  6 13  1  0
  8 14  2  0
  8 15  1  0
 11 16  1  0
 12 16  1  0
 11 17  2  0
 13 18  2  0
 17 18  1  0
M  END
