mac-x0527-diamond-x0864_0_A
     RDKit          3D

 22 23  0  0  0  0  0  0  0  0999 V2000
   -4.0040   15.1870   -3.7910 O   0  0  0  0  0  0  0  0  0  0  0  0
   -3.2720   15.1000   -2.8180 C   0  0  0  0  0  0  0  0  0  0  0  0
   -1.8970   15.0140   -2.9570 N   0  0  0  0  0  0  0  0  0  0  0  0
   -3.8380   15.0790   -1.4310 C   0  0  0  0  0  0  0  0  0  0  0  0
   -1.2520   13.7480   -3.1930 C   0  0  0  0  0  0  0  0  0  0  0  0
   -5.2090   15.1790   -1.2560 C   0  0  0  0  0  0  0  0  0  0  0  0
   -2.9870   14.9630   -0.3770 N   0  0  0  0  0  0  0  0  0  0  0  0
   -1.2400   13.1850   -4.6460 C   0  0  2  0  0  0  0  0  0  0  0  0
   -5.7940   15.1650   -0.0340 N   0  0  0  0  0  0  0  0  0  0  0  0
   -3.5720   14.9530    0.8460 C   0  0  0  0  0  0  0  0  0  0  0  0
   -2.4810   12.3520   -4.8770 C   0  0  0  0  0  0  0  0  0  0  0  0
   -0.0380   12.2520   -4.8030 C   0  0  2  0  0  0  0  0  0  0  0  0
   -4.9420   15.0500    1.0130 C   0  0  0  0  0  0  0  0  0  0  0  0
    1.3030   12.8480   -4.4330 C   0  0  0  0  0  0  0  0  0  0  0  0
   -2.4680   11.1090   -5.4310 C   0  0  0  0  0  0  0  0  0  0  0  0
   -0.0920   11.3760   -6.0280 C   0  0  0  0  0  0  0  0  0  0  0  0
    0.6820   11.4490   -6.9870 O   0  0  0  0  0  0  0  0  0  0  0  0
    1.4210   12.5100   -2.9780 C   0  0  0  0  0  0  0  0  0  0  0  0
   -1.2320   10.3880   -5.8880 C   0  0  2  0  0  0  0  0  0  0  0  0
    0.8760   11.3030   -2.6780 O   0  0  0  0  0  0  0  0  0  0  0  0
    1.9150   13.1830   -2.1070 O   0  0  0  0  0  0  0  0  0  0  0  0
   -1.5640    9.3950   -7.5340 Br  0  0  0  0  0  0  0  0  0  0  0  0
  1  2  2  0
  2  3  1  0
  2  4  1  0
  3  5  1  0
  4  6  2  0
  4  7  1  0
  8  5  1  1
  6  9  1  0
  7 10  2  0
  8 11  1  0
  8 12  1  0
  9 13  2  0
 10 13  1  0
 12 14  1  6
 11 15  2  0
 12 16  1  0
 16 17  2  0
 14 18  1  0
 15 19  1  0
 16 19  1  0
 18 20  1  0
 18 21  2  0
 19 22  1  6
M  END
