mac-x0412-diamond-x0574_0_A
     RDKit          3D

 18 20  0  0  0  0  0  0  0  0999 V2000
   -8.1020   14.8430   -0.3630 O   0  0  0  0  0  0  0  0  0  0  0  0
   -7.0490   15.0170    0.2510 C   0  0  0  0  0  0  0  0  0  0  0  0
   -7.0160   14.8420    1.6030 N   0  0  0  0  0  0  0  0  0  0  0  0
   -5.7570   15.4350   -0.4390 C   0  0  1  0  0  0  0  0  0  0  0  0
   -4.4670   15.6790    0.4210 C   0  0  1  0  0  0  0  0  0  0  0  0
   -5.9380   15.1220    2.3840 C   0  0  0  0  0  0  0  0  0  0  0  0
   -5.6120   14.3650   -1.4650 C   0  0  2  0  0  0  0  0  0  0  0  0
   -5.5500   13.1380   -0.6970 O   0  0  0  0  0  0  0  0  0  0  0  0
   -4.7420   15.5000    1.8910 C   0  0  0  0  0  0  0  0  0  0  0  0
   -3.1570   15.0000   -0.1320 C   0  0  1  0  0  0  0  0  0  0  0  0
   -4.3560   14.5670   -2.2570 C   0  0  0  0  0  0  0  0  0  0  0  0
   -5.9340   13.1660    0.6960 C   0  0  0  0  0  0  0  0  0  0  0  0
   -3.2090   14.8640   -1.6400 C   0  0  0  0  0  0  0  0  0  0  0  0
   -1.4720   15.7520    0.2250 S   0  0  0  0  0  0  0  0  0  0  0  0
   -2.9930   13.6650    0.5790 C   0  0  0  0  0  0  0  0  0  0  0  0
   -2.0610   13.8830    1.6760 N   0  0  0  0  0  0  0  0  0  0  0  0
   -0.9080   14.2400    0.9830 C   0  0  2  0  0  0  0  0  0  0  0  0
    0.1160   14.3210    1.9660 N   0  0  0  0  0  0  0  0  0  0  0  0
  1  2  2  0
  2  3  1  0
  4  2  1  1
  4  5  1  0
  3  6  1  0
  4  7  1  0
  7  8  1  1
  5  9  1  1
  6  9  2  0
  5 10  1  0
  7 11  1  0
  8 12  1  0
 10 13  1  6
 11 13  2  0
 10 14  1  0
 10 15  1  0
 15 16  1  0
 14 17  1  0
 16 17  1  0
 17 18  1  1
M  END
