mac-x0397-diamond-x0689_0_A
     RDKit          3D

 19 21  0  0  0  0  0  0  0  0999 V2000
   -6.8730   15.6110   -1.9480 Cl  0  0  0  0  0  0  0  0  0  0  0  0
   -5.4410   14.6230   -1.4990 C   0  0  2  0  0  0  0  0  0  0  0  0
   -4.7770   15.0900   -0.1980 C   0  0  1  0  0  0  0  0  0  0  0  0
   -4.3780   14.7510   -2.5440 C   0  0  0  0  0  0  0  0  0  0  0  0
   -5.4050   15.3000    1.1040 N   0  0  0  0  0  0  0  0  0  0  0  0
   -3.7020   14.0720    0.1990 C   0  0  1  0  0  0  0  0  0  0  0  0
   -3.1830   14.2140   -2.2960 C   0  0  0  0  0  0  0  0  0  0  0  0
   -4.2690   15.7020    1.8450 C   0  0  0  0  0  0  0  0  0  0  0  0
   -5.8040   14.1080    1.7520 C   0  0  2  0  0  0  0  0  0  0  0  0
   -4.7140   12.8400    1.0810 S   0  0  0  0  0  0  0  0  0  0  0  0
   -2.9370   13.4800   -1.0030 C   0  0  0  0  0  0  0  0  0  0  0  0
   -7.1850   13.7830    1.5890 N   0  0  0  0  0  0  0  0  0  0  0  0
   -3.1980   16.3040    1.1290 N   0  0  0  0  0  0  0  0  0  0  0  0
   -2.0920   15.5550    0.7590 C   0  0  0  0  0  0  0  0  0  0  0  0
   -1.6990   15.6300   -0.5160 N   0  0  0  0  0  0  0  0  0  0  0  0
   -1.4680   14.8090    1.6950 N   0  0  0  0  0  0  0  0  0  0  0  0
   -0.6180   14.9360   -0.8730 C   0  0  0  0  0  0  0  0  0  0  0  0
   -0.3810   14.1340    1.2860 C   0  0  0  0  0  0  0  0  0  0  0  0
    0.0930   14.1640   -0.0040 C   0  0  0  0  0  0  0  0  0  0  0  0
  2  1  1  6
  2  3  1  0
  2  4  1  0
  3  5  1  1
  3  6  1  0
  4  7  2  0
  5  8  1  0
  5  9  1  0
  6 10  1  0
  9 10  1  0
  6 11  1  6
  7 11  1  0
  9 12  1  6
  8 13  1  0
 13 14  1  0
 14 15  2  0
 14 16  1  0
 15 17  1  0
 16 18  2  0
 17 19  2  0
 18 19  1  0
M  END
