mac-x0546-diamond-x0290_0_A
     RDKit          3D

 29 31  0  0  0  0  0  0  0  0999 V2000
   -4.2890   15.3150   -5.9990 C   0  0  0  0  0  0  0  0  0  0  0  0
   -3.4530   16.4710   -6.1160 O   0  0  0  0  0  0  0  0  0  0  0  0
   -2.2760   16.2930   -5.4350 C   0  0  0  0  0  0  0  0  0  0  0  0
   -1.8500   15.0750   -5.0470 C   0  0  0  0  0  0  0  0  0  0  0  0
   -1.5140   17.5050   -5.1660 C   0  0  0  0  0  0  0  0  0  0  0  0
   -0.5760   14.9770   -4.2860 C   0  0  2  0  0  0  0  0  0  0  0  0
   -0.2180   17.4700   -4.7920 C   0  0  0  0  0  0  0  0  0  0  0  0
    0.3420   16.1130   -4.6800 C   0  0  0  0  0  0  0  0  0  0  0  0
    0.4350   13.8620   -4.4070 C   0  0  0  0  0  0  0  0  0  0  0  0
    0.1120   12.3960   -4.1830 C   0  0  0  0  0  0  0  0  0  0  0  0
    1.5690   15.7910   -4.8710 N   0  0  0  0  0  0  0  0  0  0  0  0
    1.6070   14.4260   -4.7140 C   0  0  0  0  0  0  0  0  0  0  0  0
    0.3120   11.8220   -2.7620 C   0  0  0  0  0  0  0  0  0  0  0  0
    0.6150   12.5490   -1.7540 N   0  0  0  0  0  0  0  0  0  0  0  0
    0.1430   10.4780   -2.6250 O   0  0  0  0  0  0  0  0  0  0  0  0
    0.7640   13.9650   -2.0780 C   0  0  0  0  0  0  0  0  0  0  0  0
   -0.6560   14.5310   -2.1480 C   0  0  0  0  0  0  0  0  0  0  0  0
   -1.1670   14.5470   -0.7590 C   0  0  0  0  0  0  0  0  0  0  0  0
   -0.2220   14.4450    0.2370 C   0  0  0  0  0  0  0  0  0  0  0  0
   -2.5230   14.6530   -0.4260 C   0  0  0  0  0  0  0  0  0  0  0  0
   -0.6400   14.4470    1.5260 C   0  0  0  0  0  0  0  0  0  0  0  0
   -2.8700   14.6500    0.9100 C   0  0  0  0  0  0  0  0  0  0  0  0
   -4.1660   14.7390    1.3990 N   0  0  0  0  0  0  0  0  0  0  0  0
   -1.9320   14.5480    1.8850 N   0  0  0  0  0  0  0  0  0  0  0  0
   -5.3770   14.4740    0.8540 C   0  0  0  0  0  0  0  0  0  0  0  0
   -5.4820   14.5160   -0.3790 O   0  0  0  0  0  0  0  0  0  0  0  0
   -6.5820   14.1170    1.7270 C   0  0  0  0  0  0  0  0  0  0  0  0
   -7.7590   13.8260    0.8890 N   0  0  0  0  0  0  0  0  0  0  0  0
   -8.6390   14.9710    0.7470 C   0  0  0  0  0  0  0  0  0  0  0  0
  1  2  1  0
  2  3  1  0
  3  4  2  0
  3  5  1  0
  6  4  1  6
  5  7  2  0
  6  8  1  0
  7  8  1  0
  6  9  1  0
  9 10  1  0
  8 11  2  0
  9 12  2  0
 11 12  1  0
 10 13  1  0
 13 14  2  3
 13 15  1  0
 14 16  1  0
 16 17  1  0
 17 18  1  0
 18 19  2  0
 18 20  1  0
 19 21  1  0
 20 22  2  0
 22 23  1  0
 21 24  2  0
 22 24  1  0
 23 25  1  0
 25 26  2  0
 25 27  1  0
 27 28  1  0
 28 29  1  0
M  END
