mac-x0321-mac-x0555
     RDKit          3D

 15 16  0  0  0  0  0  0  0  0999 V2000
   -4.0270   16.1070    1.2390 Cl  0  0  0  0  0  0  0  0  0  0  0  0
   -4.7140   14.9030    0.0980 C   0  0  2  0  0  0  0  0  0  0  0  0
   -3.3950   14.6010   -0.6060 C   0  0  0  0  0  0  0  0  0  0  0  0
   -5.8090   15.5550   -0.8460 C   0  0  1  0  0  0  0  0  0  0  0  0
   -5.3030   14.0380    1.1920 C   0  0  0  0  0  0  0  0  0  0  0  0
   -3.2810   14.6670   -1.9560 C   0  0  0  0  0  0  0  0  0  0  0  0
   -5.5840   15.3820   -2.3070 C   0  0  0  0  0  0  0  0  0  0  0  0
   -6.6310   13.8910    1.3760 C   0  0  0  0  0  0  0  0  0  0  0  0
   -7.2480   15.3090   -0.5880 N   0  0  0  0  0  0  0  0  0  0  0  0
   -1.9780   14.4150   -2.6310 C   0  0  0  0  0  0  0  0  0  0  0  0
   -7.2080   13.1660    2.3810 N   0  0  0  0  0  0  0  0  0  0  0  0
   -4.4140   14.9810   -2.7990 C   0  0  0  0  0  0  0  0  0  0  0  0
   -7.5500   14.5730    0.4140 C   0  0  0  0  0  0  0  0  0  0  0  0
   -0.9390   14.3480   -1.7730 O   0  0  0  0  0  0  0  0  0  0  0  0
   -1.8620   14.2970   -3.8400 O   0  0  0  0  0  0  0  0  0  0  0  0
  2  1  1  1
  2  3  1  0
  2  4  1  0
  2  5  1  0
  3  6  2  0
  4  7  1  6
  5  8  2  0
  4  9  1  0
  6 10  1  0
  8 11  1  0
  6 12  1  0
  7 12  2  0
  8 13  1  0
  9 13  2  0
 10 14  1  0
 10 15  2  0
M  END
