mac-x0546-mac-x0182
     RDKit          3D

 26 29  0  0  0  0  0  0  0  0999 V2000
   -4.4230   15.4200   -6.0530 C   0  0  0  0  0  0  0  0  0  0  0  0
   -3.6370   16.5690   -5.7410 O   0  0  0  0  0  0  0  0  0  0  0  0
   -2.3340   16.3380   -5.5150 C   0  0  0  0  0  0  0  0  0  0  0  0
   -1.8710   15.2500   -4.9110 C   0  0  0  0  0  0  0  0  0  0  0  0
   -1.4300   17.3790   -6.0270 C   0  0  0  0  0  0  0  0  0  0  0  0
   -0.4270   15.0580   -4.7970 C   0  0  1  0  0  0  0  0  0  0  0  0
   -0.1040   17.4150   -5.7620 C   0  0  0  0  0  0  0  0  0  0  0  0
    0.3570   16.3420   -4.8800 C   0  0  0  0  0  0  0  0  0  0  0  0
    0.2410   14.5300   -3.5990 C   0  0  0  0  0  0  0  0  0  0  0  0
   -0.2450   13.3580   -2.8290 C   0  0  0  0  0  0  0  0  0  0  0  0
    1.4030   16.3900   -4.1440 N   0  0  0  0  0  0  0  0  0  0  0  0
    1.3130   15.2770   -3.3540 C   0  0  0  0  0  0  0  0  0  0  0  0
    0.6740   12.1960   -2.7870 C   0  0  0  0  0  0  0  0  0  0  0  0
    0.8190   11.5250   -1.7740 O   0  0  0  0  0  0  0  0  0  0  0  0
    1.2700   12.0480   -3.9830 N   0  0  0  0  0  0  0  0  0  0  0  0
    0.4560   11.5950   -4.8660 C   0  0  0  0  0  0  0  0  0  0  0  0
    0.6530   11.3220   -6.3440 C   0  0  0  0  0  0  0  0  0  0  0  0
   -1.2250   11.1420   -4.3600 S   0  0  0  0  0  0  0  0  0  0  0  0
    1.4910   11.8150   -7.0510 O   0  0  0  0  0  0  0  0  0  0  0  0
   -2.0880   12.3290   -4.6430 O   0  0  0  0  0  0  0  0  0  0  0  0
   -1.3320   10.1400   -5.8340 C   0  0  0  0  0  0  0  0  0  0  0  0
   -0.3230   10.3250   -6.7720 C   0  0  0  0  0  0  0  0  0  0  0  0
   -2.3440    9.2220   -6.0640 C   0  0  0  0  0  0  0  0  0  0  0  0
   -0.2820    9.6170   -7.9620 C   0  0  0  0  0  0  0  0  0  0  0  0
   -2.3240    8.4950   -7.2550 C   0  0  0  0  0  0  0  0  0  0  0  0
   -1.3020    8.6910   -8.2000 C   0  0  0  0  0  0  0  0  0  0  0  0
  1  2  1  0
  2  3  1  0
  3  4  2  0
  3  5  1  0
  6  4  1  1
  5  7  2  0
  6  8  1  0
  7  8  1  0
  6  9  1  0
  9 10  1  0
  8 11  2  0
  9 12  2  0
 11 12  1  0
 10 13  1  0
 13 14  2  0
 13 15  1  0
 15 16  2  3
 16 17  1  0
 18 16  1  6
 17 19  2  0
 18 20  2  0
 18 21  1  0
 17 22  1  0
 21 22  2  0
 21 23  1  0
 22 24  1  0
 23 25  2  0
 24 26  2  0
 25 26  1  0
M  END
