mac-x0357-mac-x0358
     RDKit          3D

 19 20  0  0  0  0  0  0  0  0999 V2000
    1.1480   13.5400   -5.1350 C   0  0  0  0  0  0  0  0  0  0  0  0
    0.5600   12.2130   -5.1010 C   0  0  0  0  0  0  0  0  0  0  0  0
    0.4750   11.4010   -6.2520 C   0  0  0  0  0  0  0  0  0  0  0  0
   -0.2470   14.1660   -5.1950 C   0  0  0  0  0  0  0  0  0  0  0  0
    0.0160   11.7890   -3.8690 C   0  0  0  0  0  0  0  0  0  0  0  0
   -1.4140   13.3440   -5.3720 C   0  0  0  0  0  0  0  0  0  0  0  0
   -0.4600   15.5420   -5.0820 C   0  0  0  0  0  0  0  0  0  0  0  0
    0.9830   11.6660   -7.4910 O   0  0  0  0  0  0  0  0  0  0  0  0
    0.0830   12.5780   -2.5630 C   0  0  0  0  0  0  0  0  0  0  0  0
   -1.4430   11.9820   -5.4960 O   0  0  0  0  0  0  0  0  0  0  0  0
   -0.6440   10.5520   -3.8610 C   0  0  0  0  0  0  0  0  0  0  0  0
   -0.1870   10.1920   -6.2010 C   0  0  0  0  0  0  0  0  0  0  0  0
   -2.6900   13.8790   -5.4380 C   0  0  0  0  0  0  0  0  0  0  0  0
   -1.7610   16.0740   -5.1490 C   0  0  0  0  0  0  0  0  0  0  0  0
   -0.5530   13.8230   -2.6520 O   0  0  0  0  0  0  0  0  0  0  0  0
    1.3730   12.8130   -2.0690 O   0  0  0  0  0  0  0  0  0  0  0  0
   -0.5210   11.8020   -1.5720 O   0  0  0  0  0  0  0  0  0  0  0  0
   -0.7510    9.7710   -5.0100 C   0  0  0  0  0  0  0  0  0  0  0  0
   -2.8690   15.2440   -5.3280 C   0  0  0  0  0  0  0  0  0  0  0  0
  1  2  1  0
  2  3  2  0
  1  4  1  0
  2  5  1  0
  4  6  2  0
  4  7  1  0
  3  8  1  0
  5  9  1  0
  6 10  1  0
  5 11  2  0
  3 12  1  0
  6 13  1  0
  7 14  2  0
  9 15  1  0
  9 16  1  0
  9 17  1  0
 11 18  1  0
 12 18  2  0
 13 19  2  0
 14 19  1  0
M  END
