mac-x0564-mac-x0337
     RDKit          3D

 25 28  0  0  0  0  0  0  0  0999 V2000
    0.6660   14.2370   -1.4760 O   0  0  0  0  0  0  0  0  0  0  0  0
   -0.0860   14.3310   -2.4470 C   0  0  0  0  0  0  0  0  0  0  0  0
    0.3330   14.1870   -3.7400 N   0  0  0  0  0  0  0  0  0  0  0  0
   -1.5120   14.5990   -2.3210 C   0  0  0  0  0  0  0  0  0  0  0  0
   -2.3510   14.5760   -3.5040 C   0  0  0  0  0  0  0  0  0  0  0  0
   -0.4990   14.2230   -4.7410 C   0  0  0  0  0  0  0  0  0  0  0  0
   -2.3070   14.8720   -1.3250 C   0  0  0  0  0  0  0  0  0  0  0  0
   -2.0000   14.9810    0.0010 N   0  0  0  0  0  0  0  0  0  0  0  0
   -1.8710   14.3990   -4.6850 N   0  0  0  0  0  0  0  0  0  0  0  0
   -3.6650   15.0190   -1.7180 C   0  0  0  0  0  0  0  0  0  0  0  0
   -3.7330   14.8030   -3.0630 C   0  0  0  0  0  0  0  0  0  0  0  0
   -3.1420   14.3870    0.7570 S   0  0  1  0  0  0  0  0  0  0  0  0
   -4.9450   14.8340   -3.7090 C   0  0  0  0  0  0  0  0  0  0  0  0
   -4.7780   15.3080   -0.9450 C   0  0  0  0  0  0  0  0  0  0  0  0
   -3.0030   14.0610    2.1310 O   0  0  0  0  0  0  0  0  0  0  0  0
   -4.2250   15.6690    0.8440 N   0  0  0  0  0  0  0  0  0  0  0  0
   -6.0900   15.1110   -2.9330 C   0  0  0  0  0  0  0  0  0  0  0  0
   -6.0060   15.3550   -1.5590 C   0  0  0  0  0  0  0  0  0  0  0  0
   -3.9340   13.0870   -0.2190 C   0  0  0  0  0  0  0  0  0  0  0  0
   -3.2890   12.4740   -1.3140 C   0  0  0  0  0  0  0  0  0  0  0  0
   -5.2290   12.6750    0.1250 C   0  0  0  0  0  0  0  0  0  0  0  0
   -3.9330   11.4570   -2.0370 C   0  0  0  0  0  0  0  0  0  0  0  0
   -5.8650   11.6600   -0.6040 C   0  0  0  0  0  0  0  0  0  0  0  0
   -5.2230   11.0400   -1.6830 C   0  0  0  0  0  0  0  0  0  0  0  0
   -5.9050    9.9400   -2.4400 C   0  0  0  0  0  0  0  0  0  0  0  0
  1  2  2  0
  2  3  1  0
  2  4  1  0
  4  5  1  0
  3  6  2  0
  4  7  2  0
  7  8  1  0
  5  9  2  0
  6  9  1  0
  7 10  1  0
  5 11  1  0
 10 11  2  0
  8 12  2  0
 11 13  1  0
 10 14  1  0
 12 15  2  0
 12 16  1  1
 13 17  2  0
 14 18  2  0
 17 18  1  0
 12 19  1  0
 19 20  2  0
 19 21  1  0
 20 22  1  0
 21 23  2  0
 22 24  2  0
 23 24  1  0
 24 25  1  0
M  END
