mac-x0373-mac-x0396
     RDKit          3D

 25 27  0  0  0  0  0  0  0  0999 V2000
   -0.1760   13.0870   -0.9830 O   0  0  0  0  0  0  0  0  0  0  0  0
   -0.2150   14.1330   -1.8670 C   0  0  0  0  0  0  0  0  0  0  0  0
    0.7230   14.9260   -1.9160 O   0  0  0  0  0  0  0  0  0  0  0  0
   -1.4480   14.2390   -2.7950 C   0  0  1  0  0  0  0  0  0  0  0  0
   -1.7100   12.9940   -3.6160 C   0  0  0  0  0  0  0  0  0  0  0  0
   -2.7700   14.7880   -2.2150 C   0  0  0  0  0  0  0  0  0  0  0  0
   -1.0350   12.7940   -4.8310 C   0  0  0  0  0  0  0  0  0  0  0  0
   -2.6280   12.0230   -3.1860 C   0  0  0  0  0  0  0  0  0  0  0  0
   -3.8540   15.0010   -3.0620 C   0  0  0  0  0  0  0  0  0  0  0  0
   -3.0320   15.0920   -0.8980 C   0  0  0  0  0  0  0  0  0  0  0  0
   -2.2330   14.9330    0.0940 N   0  0  0  0  0  0  0  0  0  0  0  0
   -1.2720   11.6540   -5.5960 C   0  0  0  0  0  0  0  0  0  0  0  0
   -2.8640   10.8860   -3.9510 C   0  0  0  0  0  0  0  0  0  0  0  0
   -5.0740   15.4840   -2.5670 C   0  0  0  0  0  0  0  0  0  0  0  0
   -4.2200   15.5970   -0.4150 C   0  0  0  0  0  0  0  0  0  0  0  0
   -3.0790   14.5700    0.9960 C   0  0  0  0  0  0  0  0  0  0  0  0
   -2.1890   10.6990   -5.1540 C   0  0  0  0  0  0  0  0  0  0  0  0
   -5.2530   15.7990   -1.2450 C   0  0  0  0  0  0  0  0  0  0  0  0
   -2.6820   14.2980    2.2290 N   0  0  0  0  0  0  0  0  0  0  0  0
   -4.5940   14.4460    0.6820 C   0  0  0  0  0  0  0  0  0  0  0  0
   -5.1430   14.0350   -0.5580 C   0  0  0  0  0  0  0  0  0  0  0  0
   -5.5340   14.7500    1.6700 C   0  0  0  0  0  0  0  0  0  0  0  0
   -6.4900   13.9340   -0.8220 N   0  0  0  0  0  0  0  0  0  0  0  0
   -6.9070   14.6480    1.4230 C   0  0  0  0  0  0  0  0  0  0  0  0
   -7.3350   14.2440    0.1750 C   0  0  0  0  0  0  0  0  0  0  0  0
  1  2  1  0
  2  3  2  0
  4  2  1  1
  4  5  1  0
  4  6  1  0
  5  7  2  0
  5  8  1  0
  6  9  2  0
  6 10  1  0
 10 11  1  0
  7 12  1  0
  8 13  2  0
  9 14  1  0
 10 15  2  0
 11 16  2  3
 12 17  2  0
 13 17  1  0
 14 18  2  0
 15 18  1  0
 16 19  1  0
 16 20  1  0
 20 21  2  0
 20 22  1  0
 21 23  1  0
 22 24  2  0
 23 25  2  0
 24 25  1  0
M  END
