mac-x0357-mac-x0302
     RDKit          3D

 21 22  0  0  0  0  0  0  0  0999 V2000
    2.3330   13.2660   -4.5900 C   0  0  0  0  0  0  0  0  0  0  0  0
    1.0860   12.4970   -4.9280 C   0  0  0  0  0  0  0  0  0  0  0  0
    0.9590   11.7710   -6.1100 C   0  0  0  0  0  0  0  0  0  0  0  0
   -0.0200   12.4710   -4.0790 C   0  0  0  0  0  0  0  0  0  0  0  0
    1.9380   11.7110   -7.0190 O   0  0  0  0  0  0  0  0  0  0  0  0
   -0.1160   13.1900   -2.8140 C   0  0  0  0  0  0  0  0  0  0  0  0
   -1.1790   11.7420   -4.4040 C   0  0  0  0  0  0  0  0  0  0  0  0
   -0.1820   11.0470   -6.4480 C   0  0  0  0  0  0  0  0  0  0  0  0
   -1.1330   13.9530   -2.8150 N   0  0  0  0  0  0  0  0  0  0  0  0
    0.8490   12.9110   -1.9130 O   0  0  0  0  0  0  0  0  0  0  0  0
   -1.2620   11.0280   -5.5850 C   0  0  0  0  0  0  0  0  0  0  0  0
   -1.7440   14.8060   -1.9940 N   0  0  0  0  0  0  0  0  0  0  0  0
   -3.0300   15.2420   -2.2170 C   0  0  0  0  0  0  0  0  0  0  0  0
   -3.4720   15.6630   -3.2830 O   0  0  0  0  0  0  0  0  0  0  0  0
   -3.9120   15.1650   -1.0440 C   0  0  0  0  0  0  0  0  0  0  0  0
   -5.2860   15.0430   -1.2440 C   0  0  0  0  0  0  0  0  0  0  0  0
   -3.3720   15.2070    0.2410 C   0  0  0  0  0  0  0  0  0  0  0  0
   -6.1150   14.9590   -0.1390 C   0  0  0  0  0  0  0  0  0  0  0  0
   -4.2090   15.1260    1.3370 C   0  0  0  0  0  0  0  0  0  0  0  0
   -7.4640   14.8390   -0.2740 O   0  0  0  0  0  0  0  0  0  0  0  0
   -5.5810   14.9970    1.1500 C   0  0  0  0  0  0  0  0  0  0  0  0
  1  2  1  0
  2  3  2  0
  2  4  1  0
  3  5  1  0
  4  6  1  0
  4  7  2  0
  3  8  1  0
  6  9  2  3
  6 10  1  0
  7 11  1  0
  8 11  2  0
  9 12  1  0
 12 13  1  0
 13 14  2  0
 13 15  1  0
 15 16  2  0
 15 17  1  0
 16 18  1  0
 17 19  2  0
 18 20  1  0
 18 21  2  0
 19 21  1  0
M  END
