mac-x0510-mac-x0546
     RDKit          3D

 28 31  0  0  0  0  0  0  0  0999 V2000
   -6.1460   14.9340    1.1010 O   0  0  0  0  0  0  0  0  0  0  0  0
   -4.9830   14.9690    0.7100 C   0  0  0  0  0  0  0  0  0  0  0  0
   -4.7030   15.1770   -0.6080 N   0  0  0  0  0  0  0  0  0  0  0  0
   -3.9270   14.7910    1.5580 N   0  0  0  0  0  0  0  0  0  0  0  0
   -2.6530   14.7920    1.0610 C   0  0  0  0  0  0  0  0  0  0  0  0
   -3.4900   14.9890   -1.2060 C   0  0  0  0  0  0  0  0  0  0  0  0
   -3.3520   14.8970   -2.4600 N   0  0  0  0  0  0  0  0  0  0  0  0
   -2.4270   14.8870   -0.2790 C   0  0  0  0  0  0  0  0  0  0  0  0
   -1.5020   14.7060    1.7640 N   0  0  0  0  0  0  0  0  0  0  0  0
   -4.6480   14.9810   -3.1300 C   0  0  0  0  0  0  0  0  0  0  0  0
   -1.0710   14.8580   -0.4160 N   0  0  0  0  0  0  0  0  0  0  0  0
   -0.5560   14.7500    0.8480 C   0  0  0  0  0  0  0  0  0  0  0  0
   -4.6660   14.7450   -4.6450 C   0  0  0  0  0  0  0  0  0  0  0  0
   -3.7990   15.6450   -5.4750 N   0  0  0  0  0  0  0  0  0  0  0  0
   -4.0240   15.0790   -6.7970 C   0  0  0  0  0  0  0  0  0  0  0  0
   -2.4760   15.8480   -5.0440 C   0  0  0  0  0  0  0  0  0  0  0  0
   -1.7910   14.7970   -4.5980 C   0  0  0  0  0  0  0  0  0  0  0  0
   -1.7930   17.1760   -5.0300 C   0  0  0  0  0  0  0  0  0  0  0  0
   -0.4320   14.9090   -4.0630 C   0  0  2  0  0  0  0  0  0  0  0  0
   -0.4600   17.3490   -4.8310 C   0  0  0  0  0  0  0  0  0  0  0  0
    0.2890   16.0960   -4.6410 C   0  0  0  0  0  0  0  0  0  0  0  0
    0.6400   13.9040   -4.2870 C   0  0  0  0  0  0  0  0  0  0  0  0
    0.5580   12.4310   -4.0960 C   0  0  0  0  0  0  0  0  0  0  0  0
    1.5310   15.8910   -4.9020 N   0  0  0  0  0  0  0  0  0  0  0  0
    1.7140   14.5460   -4.6880 C   0  0  0  0  0  0  0  0  0  0  0  0
    0.3170   11.9360   -2.6920 C   0  0  0  0  0  0  0  0  0  0  0  0
    0.6350   12.4570   -1.6310 O   0  0  0  0  0  0  0  0  0  0  0  0
   -0.3300   10.7570   -2.6950 O   0  0  0  0  0  0  0  0  0  0  0  0
  1  2  2  0
  2  3  1  0
  2  4  1  0
  4  5  1  0
  3  6  1  0
  6  7  2  3
  5  8  2  0
  6  8  1  0
  5  9  1  0
  7 10  1  0
  8 11  1  0
  9 12  2  0
 11 12  1  0
 10 13  1  0
 13 14  1  0
 14 15  1  0
 14 16  1  0
 16 17  2  0
 16 18  1  0
 19 17  1  6
 18 20  2  0
 19 21  1  0
 20 21  1  0
 19 22  1  0
 22 23  1  0
 21 24  2  0
 22 25  2  0
 24 25  1  0
 23 26  1  0
 26 27  2  0
 26 28  1  0
M  END
