mac-x0180-mac-x0224
     RDKit          3D

 14 14  0  0  0  0  0  0  0  0999 V2000
   -7.7570   14.4980    1.5820 C   0  0  0  0  0  0  0  0  0  0  0  0
   -6.8050   14.7030    0.4290 C   0  0  0  0  0  0  0  0  0  0  0  0
   -7.2230   14.7730   -0.7180 O   0  0  0  0  0  0  0  0  0  0  0  0
   -5.4780   14.7990    0.8310 N   0  0  0  0  0  0  0  0  0  0  0  0
   -4.3990   14.8330   -0.0700 C   0  0  0  0  0  0  0  0  0  0  0  0
   -3.1110   14.6720    0.4490 C   0  0  0  0  0  0  0  0  0  0  0  0
   -4.5560   15.0140   -1.4490 C   0  0  0  0  0  0  0  0  0  0  0  0
   -1.9950   14.6870   -0.3970 C   0  0  0  0  0  0  0  0  0  0  0  0
   -3.4480   15.0300   -2.2970 C   0  0  0  0  0  0  0  0  0  0  0  0
   -2.1610   14.8650   -1.7790 C   0  0  0  0  0  0  0  0  0  0  0  0
   -0.9960   14.8900   -2.7130 C   0  0  0  0  0  0  0  0  0  0  0  0
   -1.1830   14.9210   -3.9240 O   0  0  0  0  0  0  0  0  0  0  0  0
    0.4240   14.9050   -2.3100 N   0  0  0  0  0  0  0  0  0  0  0  0
    0.7600   13.9400   -1.6100 O   0  0  0  0  0  0  0  0  0  0  0  0
  1  2  1  0
  2  3  2  0
  2  4  1  0
  4  5  1  0
  5  6  2  0
  5  7  1  0
  6  8  1  0
  7  9  2  0
  8 10  2  0
  9 10  1  0
 10 11  1  0
 11 12  2  0
 11 13  1  0
 13 14  2  0
M  END
