mac-x0115-mac-x0375
     RDKit          3D

 27 29  0  0  0  0  0  0  0  0999 V2000
   -1.5190   18.9180   -5.5340 C   0  0  0  0  0  0  0  0  0  0  0  0
   -0.4760   17.9440   -6.0560 C   0  0  0  0  0  0  0  0  0  0  0  0
    0.9440   18.4800   -5.9440 C   0  0  0  0  0  0  0  0  0  0  0  0
   -0.5160   16.7800   -5.2570 O   0  0  0  0  0  0  0  0  0  0  0  0
    0.2800   16.9500   -4.0880 C   0  0  0  0  0  0  0  0  0  0  0  0
    0.3360   15.6280   -3.4030 C   0  0  0  0  0  0  0  0  0  0  0  0
    0.0490   15.6020   -1.9400 N   0  0  0  0  0  0  0  0  0  0  0  0
    0.3800   14.3820   -1.5740 C   0  0  0  0  0  0  0  0  0  0  0  0
   -1.2630   15.6190   -1.5910 C   0  0  0  0  0  0  0  0  0  0  0  0
    0.6940   13.6210   -3.1200 S   0  0  0  0  0  0  0  0  0  0  0  0
    0.3250   13.9940   -0.2520 N   0  0  0  0  0  0  0  0  0  0  0  0
   -1.5430   15.5900   -0.1410 C   0  0  2  0  0  0  0  0  0  0  0  0
   -2.3720   15.6340   -2.3310 C   0  0  0  0  0  0  0  0  0  0  0  0
    1.0550   12.0130   -3.6540 C   0  0  0  0  0  0  0  0  0  0  0  0
   -0.6910   14.5440    0.5750 C   0  0  0  0  0  0  0  0  0  0  0  0
   -3.0250   15.5190   -0.0460 N   0  0  0  0  0  0  0  0  0  0  0  0
   -3.4010   15.5750   -1.2960 C   0  0  0  0  0  0  0  0  0  0  0  0
   -0.8480   14.2210    1.7540 O   0  0  0  0  0  0  0  0  0  0  0  0
    0.9860   11.0570   -2.9020 O   0  0  0  0  0  0  0  0  0  0  0  0
    1.3760   12.1970   -5.1340 C   0  0  0  0  0  0  0  0  0  0  0  0
    0.8820   11.3380   -6.1450 O   0  0  0  0  0  0  0  0  0  0  0  0
   -0.3010   10.6610   -6.1060 C   0  0  0  0  0  0  0  0  0  0  0  0
   -0.4860    9.4230   -6.7140 C   0  0  0  0  0  0  0  0  0  0  0  0
   -1.3650   11.2560   -5.4240 C   0  0  0  0  0  0  0  0  0  0  0  0
   -1.7160    8.7790   -6.6460 C   0  0  0  0  0  0  0  0  0  0  0  0
   -2.6040   10.6110   -5.3560 C   0  0  0  0  0  0  0  0  0  0  0  0
   -2.7760    9.3710   -5.9680 C   0  0  0  0  0  0  0  0  0  0  0  0
  1  2  1  0
  2  3  1  0
  2  4  1  0
  4  5  1  0
  5  6  1  0
  6  7  1  0
  7  8  1  0
  7  9  1  0
  8 10  2  3
  8 11  1  0
  9 12  1  0
  9 13  2  0
 10 14  1  0
 11 15  1  0
 12 15  1  0
 12 16  1  6
 13 17  1  0
 16 17  2  0
 15 18  2  0
 14 19  2  0
 14 20  1  0
 20 21  1  0
 21 22  1  0
 22 23  2  0
 22 24  1  0
 23 25  1  0
 24 26  2  0
 25 27  2  0
 26 27  1  0
M  END
