mac-x0116-mac-x0124
     RDKit          3D

 17 19  0  0  0  0  0  0  0  0999 V2000
   -5.9420   14.7080    1.6680 C   0  0  0  0  0  0  0  0  0  0  0  0
   -4.5280   15.0150    1.6220 N   0  0  0  0  0  0  0  0  0  0  0  0
   -3.7270   14.9450    0.4730 C   0  0  0  0  0  0  0  0  0  0  0  0
   -6.3360   13.2750    1.6800 C   0  0  0  0  0  0  0  0  0  0  0  0
   -6.2620   12.5970    0.4970 O   0  0  0  0  0  0  0  0  0  0  0  0
   -6.7940   12.4440    2.6740 C   0  0  0  0  0  0  0  0  0  0  0  0
   -7.0160   11.1940    2.0750 C   0  0  0  0  0  0  0  0  0  0  0  0
   -6.6780   11.3340    0.7520 C   0  0  0  0  0  0  0  0  0  0  0  0
   -4.2820   15.1100   -0.8030 N   0  0  0  0  0  0  0  0  0  0  0  0
   -2.4100   14.7230    0.6270 C   0  0  0  0  0  0  0  0  0  0  0  0
   -3.4880   15.0160   -1.8390 C   0  0  0  0  0  0  0  0  0  0  0  0
   -1.5600   14.6400   -0.5690 C   0  0  0  0  0  0  0  0  0  0  0  0
   -1.6240   14.5490    1.7200 N   0  0  0  0  0  0  0  0  0  0  0  0
   -2.1280   14.7600   -1.8030 N   0  0  0  0  0  0  0  0  0  0  0  0
   -0.3390   14.4590   -0.1840 N   0  0  0  0  0  0  0  0  0  0  0  0
   -0.4480   14.4130    1.2020 C   0  0  0  0  0  0  0  0  0  0  0  0
   -1.2530   14.8530   -2.9710 C   0  0  0  0  0  0  0  0  0  0  0  0
  1  2  1  0
  2  3  1  0
  1  4  1  0
  4  5  1  0
  4  6  2  0
  6  7  1  0
  5  8  1  0
  7  8  2  0
  3  9  1  0
  3 10  2  0
  9 11  2  0
 10 12  1  0
 10 13  1  0
 11 14  1  0
 12 14  1  0
 12 15  2  0
 13 16  2  0
 15 16  1  0
 14 17  1  0
M  END
