mac-x0132-mac-x0568
     RDKit          3D

 15 16  0  0  0  0  0  0  0  0999 V2000
   -4.0600   13.8550    1.6100 N   0  0  0  0  0  0  0  0  0  0  0  0
   -4.8950   13.0860    0.7200 C   0  0  1  0  0  0  0  0  0  0  0  0
   -6.2600   13.3500    1.0920 N   0  0  0  0  0  0  0  0  0  0  0  0
   -4.7210   13.2780   -0.8090 C   0  0  1  0  0  0  0  0  0  0  0  0
   -5.8510   14.1860   -1.3370 C   0  0  1  0  0  0  0  0  0  0  0  0
   -6.5790   14.7480    0.8570 C   0  0  2  0  0  0  0  0  0  0  0  0
   -3.3560   13.7600   -1.2550 C   0  0  0  0  0  0  0  0  0  0  0  0
   -8.1060   14.8820    0.7840 C   0  0  0  0  0  0  0  0  0  0  0  0
   -5.9130   15.2380   -0.3730 N   0  0  0  0  0  0  0  0  0  0  0  0
   -5.6160   14.6870   -2.7350 C   0  0  0  0  0  0  0  0  0  0  0  0
   -3.2160   14.4810   -2.3840 C   0  0  0  0  0  0  0  0  0  0  0  0
   -4.6340   15.8010   -0.3320 C   0  0  0  0  0  0  0  0  0  0  0  0
   -4.3600   14.8190   -3.2040 C   0  0  0  0  0  0  0  0  0  0  0  0
   -3.9720   16.1000   -1.3170 O   0  0  0  0  0  0  0  0  0  0  0  0
   -4.0270   15.9870    0.8690 N   0  0  0  0  0  0  0  0  0  0  0  0
  2  1  1  1
  2  3  1  0
  2  4  1  0
  4  5  1  0
  3  6  1  0
  4  7  1  1
  6  8  1  6
  5  9  1  0
  6  9  1  0
  5 10  1  6
  7 11  2  0
  9 12  1  0
 10 13  2  0
 11 13  1  0
 12 14  2  0
 12 15  1  0
M  END
