mac-x0188-mac-x0402
     RDKit          3D

 20 22  0  0  0  0  0  0  0  0999 V2000
    1.5730   13.3210   -5.0600 C   0  0  0  0  0  0  0  0  0  0  0  0
    0.2530   13.6200   -4.4770 C   0  0  0  0  0  0  0  0  0  0  0  0
   -0.8050   13.5630   -5.3170 O   0  0  0  0  0  0  0  0  0  0  0  0
   -0.1810   13.9620   -3.2070 C   0  0  0  0  0  0  0  0  0  0  0  0
    0.6820   14.1080   -2.0830 C   0  0  0  0  0  0  0  0  0  0  0  0
   -1.9440   13.8570   -4.6090 N   0  0  0  0  0  0  0  0  0  0  0  0
   -1.5770   14.1000   -3.3380 C   0  0  0  0  0  0  0  0  0  0  0  0
    1.0610   15.1890   -1.6800 O   0  0  0  0  0  0  0  0  0  0  0  0
    1.0510   12.9550   -1.4980 O   0  0  0  0  0  0  0  0  0  0  0  0
   -2.6280   14.4290   -2.3730 C   0  0  0  0  0  0  0  0  0  0  0  0
   -3.8190   14.8990   -2.8660 C   0  0  0  0  0  0  0  0  0  0  0  0
   -2.4580   14.2620   -0.9850 C   0  0  0  0  0  0  0  0  0  0  0  0
   -3.9140   15.0840   -4.5680 Cl  0  0  0  0  0  0  0  0  0  0  0  0
   -4.9040   15.2020   -2.0400 C   0  0  0  0  0  0  0  0  0  0  0  0
   -3.5510   14.5610   -0.1440 C   0  0  0  0  0  0  0  0  0  0  0  0
   -4.7700   15.0150   -0.6520 C   0  0  0  0  0  0  0  0  0  0  0  0
   -3.6880   14.4500    1.5690 S   0  0  0  0  0  0  0  0  0  0  0  0
   -5.3210   14.9680    1.4920 C   0  0  0  0  0  0  0  0  0  0  0  0
   -5.7570   15.2310    0.2860 N   0  0  0  0  0  0  0  0  0  0  0  0
   -6.0850   15.0850    2.5940 N   0  0  0  0  0  0  0  0  0  0  0  0
  1  2  1  0
  2  3  1  0
  2  4  2  0
  4  5  1  0
  3  6  1  0
  4  7  1  0
  6  7  2  0
  5  8  2  0
  5  9  1  0
  7 10  1  0
 10 11  2  0
 10 12  1  0
 11 13  1  0
 11 14  1  0
 12 15  2  0
 14 16  2  0
 15 16  1  0
 15 17  1  0
 17 18  1  0
 16 19  1  0
 18 19  2  0
 18 20  1  0
M  END
