mac-x0380-mac-x0510
     RDKit          3D

 19 21  0  0  0  0  0  0  0  0999 V2000
   -1.3980   14.5870   -2.7090 O   0  0  0  0  0  0  0  0  0  0  0  0
   -2.7160   14.7940   -2.8730 C   0  0  0  0  0  0  0  0  0  0  0  0
   -3.1220   15.2740   -3.9190 O   0  0  0  0  0  0  0  0  0  0  0  0
   -3.5740   14.3800   -1.6820 C   0  0  2  0  0  0  0  0  0  0  0  0
   -5.0450   14.8880   -1.9090 C   0  0  0  0  0  0  0  0  0  0  0  0
   -2.8710   14.7160   -0.3330 C   0  0  2  0  0  0  0  0  0  0  0  0
   -5.8340   15.3750   -0.6810 C   0  0  2  0  0  0  0  0  0  0  0  0
   -3.8330   15.4640    0.5870 C   0  0  0  0  0  0  0  0  0  0  0  0
   -1.4360   15.0950   -0.5760 N   0  0  0  0  0  0  0  0  0  0  0  0
   -2.4960   13.6370    0.6060 C   0  0  0  0  0  0  0  0  0  0  0  0
   -3.6220   16.4430    1.2620 O   0  0  0  0  0  0  0  0  0  0  0  0
   -5.1910   14.8360    0.5750 C   0  0  1  0  0  0  0  0  0  0  0  0
   -7.5950   14.8910   -0.7830 S   0  0  0  0  0  0  0  0  0  0  0  0
   -1.6290   14.3440    1.5520 N   0  0  0  0  0  0  0  0  0  0  0  0
   -0.6630   14.9060    0.6430 C   0  0  0  0  0  0  0  0  0  0  0  0
   -5.8910   15.0010    1.8450 N   0  0  0  0  0  0  0  0  0  0  0  0
   -7.8080   13.9500    0.7570 C   0  0  0  0  0  0  0  0  0  0  0  0
   -7.1840   14.5980    1.9650 C   0  0  0  0  0  0  0  0  0  0  0  0
   -7.8090   14.7750    3.0160 O   0  0  0  0  0  0  0  0  0  0  0  0
  1  2  1  0
  2  3  2  0
  4  2  1  6
  4  5  1  0
  4  6  1  0
  7  5  1  6
  6  8  1  0
  6  9  1  0
  6 10  1  1
  8 11  2  0
  7 12  1  0
  8 12  1  0
  7 13  1  0
 10 14  1  0
  9 15  1  0
 14 15  1  0
 12 16  1  1
 13 17  1  0
 16 18  1  0
 17 18  1  0
 18 19  2  0
M  END
