mac-x0204-mac-x0159
     RDKit          3D

 26 29  0  0  0  0  0  0  0  0999 V2000
    1.2380   14.1180   -3.0640 O   0  0  0  0  0  0  0  0  0  0  0  0
   -0.4780   14.4560   -2.9800 S   0  0  0  0  0  0  0  0  0  0  0  0
   -0.3660   13.3150   -2.4900 O   0  0  0  0  0  0  0  0  0  0  0  0
   -1.4190   13.9260   -4.2700 C   0  0  0  0  0  0  0  0  0  0  0  0
   -1.3310   14.9170   -1.8400 N   0  0  0  0  0  0  0  0  0  0  0  0
   -0.1290   15.9550   -3.9360 C   0  0  0  0  0  0  0  0  0  0  0  0
   -2.0610   14.9640   -4.8410 C   0  0  0  0  0  0  0  0  0  0  0  0
   -1.6050   12.6700   -4.7500 C   0  0  0  0  0  0  0  0  0  0  0  0
   -2.7940   14.8240   -2.0290 C   0  0  0  0  0  0  0  0  0  0  0  0
   -1.0540   14.3630   -0.5820 C   0  0  2  0  0  0  0  0  0  0  0  0
    1.1390   16.4900   -4.0780 C   0  0  0  0  0  0  0  0  0  0  0  0
   -0.9820   16.7010   -4.6150 N   0  0  0  0  0  0  0  0  0  0  0  0
   -2.8850   14.7550   -5.8830 C   0  0  0  0  0  0  0  0  0  0  0  0
   -2.4280   12.4560   -5.7880 N   0  0  0  0  0  0  0  0  0  0  0  0
   -3.6220   15.5810   -1.1480 N   0  0  0  0  0  0  0  0  0  0  0  0
   -2.2230   14.3950    0.4310 C   0  0  2  0  0  0  0  0  0  0  0  0
   -0.0280   15.1040    0.1450 N   0  0  0  0  0  0  0  0  0  0  0  0
   -0.7000   17.7470   -5.2920 C   0  0  0  0  0  0  0  0  0  0  0  0
    0.9550   17.8720   -5.0680 S   0  0  0  0  0  0  0  0  0  0  0  0
   -3.5530   15.8210   -6.4840 O   0  0  0  0  0  0  0  0  0  0  0  0
   -1.6680   18.6060   -6.0750 C   0  0  0  0  0  0  0  0  0  0  0  0
   -3.0720   13.4970   -6.3600 C   0  0  0  0  0  0  0  0  0  0  0  0
   -3.3720   15.3150    0.2200 C   0  0  2  0  0  0  0  0  0  0  0  0
   -1.5570   14.8090    1.6470 N   0  0  0  0  0  0  0  0  0  0  0  0
   -0.1900   14.3640    1.3980 C   0  0  0  0  0  0  0  0  0  0  0  0
   -4.5750   14.8620    0.9120 N   0  0  0  0  0  0  0  0  0  0  0  0
  1  2  1  0
  2  3  2  0
  2  4  1  0
  2  5  1  0
  2  6  1  0
  4  7  2  0
  4  8  1  0
  5  9  1  0
  5 10  1  0
  6 11  2  0
  6 12  1  0
  7 13  1  0
  8 14  2  0
  9 15  1  0
 10 16  1  0
 10 17  1  1
 12 18  2  0
 11 19  1  0
 18 19  1  0
 13 20  1  0
 18 21  1  0
 13 22  2  0
 14 22  1  0
 15 23  1  0
 16 23  1  0
 16 24  1  1
 17 25  1  0
 24 25  1  0
 23 26  1  6
M  END
