mac-x0417-mac-x0437
     RDKit          3D

 14 15  0  0  0  0  0  0  0  0999 V2000
    1.1010   12.7750   -2.3340 O   0  0  0  0  0  0  0  0  0  0  0  0
    0.6600   11.9490   -3.3100 C   0  0  0  0  0  0  0  0  0  0  0  0
    0.4050   10.7780   -3.0850 O   0  0  0  0  0  0  0  0  0  0  0  0
    0.5100   12.5880   -4.6780 C   0  0  1  0  0  0  0  0  0  0  0  0
    1.7430   13.4330   -4.9240 C   0  0  0  0  0  0  0  0  0  0  0  0
    0.3180   11.6260   -5.8080 C   0  0  0  0  0  0  0  0  0  0  0  0
    1.2580   11.5740   -6.7590 N   0  0  0  0  0  0  0  0  0  0  0  0
   -0.7320   10.7110   -6.0620 C   0  0  0  0  0  0  0  0  0  0  0  0
    0.8280   10.6160   -7.6630 O   0  0  0  0  0  0  0  0  0  0  0  0
   -0.3560   10.1000   -7.2470 C   0  0  0  0  0  0  0  0  0  0  0  0
   -1.9360   10.3200   -5.4550 C   0  0  0  0  0  0  0  0  0  0  0  0
   -1.0950    9.1110   -7.8930 C   0  0  0  0  0  0  0  0  0  0  0  0
   -2.7040    9.3270   -6.0780 C   0  0  0  0  0  0  0  0  0  0  0  0
   -2.2930    8.7340   -7.2730 C   0  0  0  0  0  0  0  0  0  0  0  0
  1  2  1  0
  2  3  2  0
  2  4  1  0
  4  5  1  6
  4  6  1  0
  6  7  2  0
  6  8  1  0
  7  9  1  0
  8 10  2  0
  9 10  1  0
  8 11  1  0
 10 12  1  0
 11 13  2  0
 12 14  2  0
 13 14  1  0
M  END
