mac-x0412-mac-x0439
     RDKit          3D

 26 29  0  0  0  0  0  0  0  0999 V2000
   -7.7420   14.4550   -0.9140 O   0  0  0  0  0  0  0  0  0  0  0  0
   -6.9000   14.8420   -0.1160 C   0  0  0  0  0  0  0  0  0  0  0  0
   -7.1690   14.7990    1.2490 N   0  0  0  0  0  0  0  0  0  0  0  0
   -5.5250   15.4310   -0.5750 C   0  0  1  0  0  0  0  0  0  0  0  0
   -4.4680   15.1350    0.4690 C   0  0  0  0  0  0  0  0  0  0  0  0
   -6.1810   14.8170    2.0730 C   0  0  0  0  0  0  0  0  0  0  0  0
   -5.0570   15.0430   -1.9680 C   0  0  0  0  0  0  0  0  0  0  0  0
   -4.7580   14.8530    1.7190 C   0  0  0  0  0  0  0  0  0  0  0  0
   -3.0930   15.1540    0.0720 C   0  0  0  0  0  0  0  0  0  0  0  0
   -3.7420   14.8570   -2.2440 C   0  0  0  0  0  0  0  0  0  0  0  0
   -2.7670   15.0170   -1.2030 C   0  0  0  0  0  0  0  0  0  0  0  0
   -3.0790   14.4850   -3.5390 C   0  0  0  0  0  0  0  0  0  0  0  0
   -3.7750   14.7990   -4.8460 C   0  0  0  0  0  0  0  0  0  0  0  0
   -3.1370   15.8370   -5.7770 C   0  0  0  0  0  0  0  0  0  0  0  0
   -1.7790   16.5130   -5.5450 C   0  0  0  0  0  0  0  0  0  0  0  0
   -0.4820   15.8020   -5.1400 C   0  0  2  0  0  0  0  0  0  0  0  0
   -1.6890   17.8380   -5.8090 C   0  0  0  0  0  0  0  0  0  0  0  0
   -0.2430   14.7020   -4.1710 C   0  0  0  0  0  0  0  0  0  0  0  0
    0.5660   16.7490   -4.6110 C   0  0  0  0  0  0  0  0  0  0  0  0
   -0.4450   18.5810   -5.7270 C   0  0  0  0  0  0  0  0  0  0  0  0
    0.8300   15.0140   -3.4210 C   0  0  0  0  0  0  0  0  0  0  0  0
    1.3120   16.2610   -3.6880 N   0  0  0  0  0  0  0  0  0  0  0  0
    0.6770   18.1000   -5.1670 C   0  0  0  0  0  0  0  0  0  0  0  0
    1.4280   14.1160   -2.3820 C   0  0  0  0  0  0  0  0  0  0  0  0
    2.5660   14.5910   -1.7820 O   0  0  0  0  0  0  0  0  0  0  0  0
    0.9490   13.0400   -2.0840 O   0  0  0  0  0  0  0  0  0  0  0  0
  1  2  2  0
  2  3  1  0
  2  4  1  0
  4  5  1  0
  3  6  2  0
  4  7  1  6
  5  8  2  0
  6  8  1  0
  5  9  1  0
  7 10  2  0
  9 11  2  0
 10 11  1  0
 10 12  1  0
 12 13  1  0
 13 14  1  0
 14 15  1  0
 15 16  1  0
 15 17  2  0
 16 18  1  1
 16 19  1  0
 17 20  1  0
 18 21  2  0
 19 22  2  0
 21 22  1  0
 19 23  1  0
 20 23  2  0
 21 24  1  0
 24 25  1  0
 24 26  2  0
M  END
