mac-x0213-mac-x0436
     RDKit          3D

 25 28  0  0  0  0  0  0  0  0999 V2000
   -0.6880   12.2380   -2.4650 O   0  0  0  0  0  0  0  0  0  0  0  0
    0.3890   13.0520   -2.8960 C   0  0  0  0  0  0  0  0  0  0  0  0
    1.0770   13.4800   -1.7370 O   0  0  0  0  0  0  0  0  0  0  0  0
    1.3050   12.3150   -3.8180 C   0  0  0  0  0  0  0  0  0  0  0  0
   -0.0910   14.2200   -3.7590 C   0  0  0  0  0  0  0  0  0  0  0  0
    0.8990   12.6460   -5.2630 C   0  0  0  0  0  0  0  0  0  0  0  0
   -1.5400   14.6960   -3.6540 C   0  0  0  0  0  0  0  0  0  0  0  0
    0.7720   15.4740   -3.6230 C   0  0  0  0  0  0  0  0  0  0  0  0
   -1.3890   15.9450   -4.4680 C   0  0  0  0  0  0  0  0  0  0  0  0
   -0.0590   16.3890   -4.4430 C   0  0  0  0  0  0  0  0  0  0  0  0
   -0.0940   11.6070   -5.6850 C   0  0  0  0  0  0  0  0  0  0  0  0
   -2.3540   16.6300   -5.1720 C   0  0  0  0  0  0  0  0  0  0  0  0
    0.3330   17.5270   -5.1140 C   0  0  0  0  0  0  0  0  0  0  0  0
   -1.4160   11.4630   -4.9070 C   0  0  0  0  0  0  0  0  0  0  0  0
    0.2280   10.8490   -6.6690 N   0  0  0  0  0  0  0  0  0  0  0  0
   -1.6960   12.2180   -3.9890 O   0  0  0  0  0  0  0  0  0  0  0  0
   -1.9680   17.7850   -5.8570 C   0  0  0  0  0  0  0  0  0  0  0  0
   -0.6350   18.2290   -5.8260 C   0  0  0  0  0  0  0  0  0  0  0  0
   -2.2300   10.4410   -5.3160 N   0  0  0  0  0  0  0  0  0  0  0  0
   -0.6400    9.8300   -7.0250 C   0  0  0  0  0  0  0  0  0  0  0  0
   -1.8590    9.6020   -6.3690 C   0  0  0  0  0  0  0  0  0  0  0  0
   -0.2610    9.0030   -8.0730 C   0  0  0  0  0  0  0  0  0  0  0  0
   -1.0840    7.9550   -8.4680 C   0  0  0  0  0  0  0  0  0  0  0  0
   -2.6880    8.5570   -6.7560 C   0  0  0  0  0  0  0  0  0  0  0  0
   -2.2970    7.7300   -7.8110 C   0  0  0  0  0  0  0  0  0  0  0  0
  2  1  1  0
  2  3  1  0
  2  4  1  0
  2  5  1  0
  4  6  1  0
  5  7  1  0
  5  8  1  0
  7  9  1  0
  8 10  1  0
  9 10  2  0
  6 11  1  0
  9 12  1  0
 10 13  1  0
 11 14  1  0
 11 15  2  0
 14 16  2  0
 12 17  2  0
 13 18  2  0
 17 18  1  0
 14 19  1  0
 15 20  1  0
 19 21  1  0
 20 21  2  0
 20 22  1  0
 22 23  2  0
 21 24  1  0
 23 25  1  0
 24 25  2  0
M  END
