mac-x0347-mac-x0404
     RDKit          3D

 28 32  0  0  0  0  0  0  0  0999 V2000
    0.7030   14.1250   -3.9710 N   0  0  0  0  0  0  0  0  0  0  0  0
    0.1820   13.6470   -2.8070 C   0  0  0  0  0  0  0  0  0  0  0  0
    0.8680   12.7330   -2.1970 N   0  0  0  0  0  0  0  0  0  0  0  0
    1.3840   12.9640   -4.5020 C   0  0  0  0  0  0  0  0  0  0  0  0
   -0.3950   14.6680   -4.6510 C   0  0  0  0  0  0  0  0  0  0  0  0
    1.8950   12.5800   -3.1180 C   0  0  0  0  0  0  0  0  0  0  0  0
   -1.1460   14.1970   -2.4820 C   0  0  0  0  0  0  0  0  0  0  0  0
   -0.4020   16.0330   -5.0000 C   0  0  0  0  0  0  0  0  0  0  0  0
   -1.5090   13.8500   -4.9360 C   0  0  0  0  0  0  0  0  0  0  0  0
    3.0160   12.2310   -2.9170 O   0  0  0  0  0  0  0  0  0  0  0  0
   -1.9110   14.1000   -1.3340 C   0  0  0  0  0  0  0  0  0  0  0  0
   -1.6800   14.8990   -3.5470 C   0  0  0  0  0  0  0  0  0  0  0  0
   -1.5640   16.5690   -5.6060 C   0  0  0  0  0  0  0  0  0  0  0  0
   -2.6460   14.3780   -5.5420 C   0  0  0  0  0  0  0  0  0  0  0  0
    0.6930   16.8810   -4.7640 C   0  0  0  0  0  0  0  0  0  0  0  0
   -3.1800   14.7160   -1.3450 C   0  0  0  0  0  0  0  0  0  0  0  0
   -2.8780   15.4960   -3.5880 N   0  0  0  0  0  0  0  0  0  0  0  0
   -2.6760   15.7370   -5.8630 C   0  0  0  0  0  0  0  0  0  0  0  0
   -1.6010   17.9140   -5.9540 C   0  0  0  0  0  0  0  0  0  0  0  0
    0.6450   18.2190   -5.1270 C   0  0  0  0  0  0  0  0  0  0  0  0
   -3.5930   15.3820   -2.4830 C   0  0  0  0  0  0  0  0  0  0  0  0
   -4.0940   14.6940   -0.2420 C   0  0  0  0  0  0  0  0  0  0  0  0
   -0.5060   18.7320   -5.7200 C   0  0  0  0  0  0  0  0  0  0  0  0
   -3.8280   15.3960    0.9270 C   0  0  0  0  0  0  0  0  0  0  0  0
   -5.2780   13.9570   -0.3530 C   0  0  0  0  0  0  0  0  0  0  0  0
   -4.7360   15.3620    1.9710 C   0  0  0  0  0  0  0  0  0  0  0  0
   -6.1880   13.9200    0.6930 C   0  0  0  0  0  0  0  0  0  0  0  0
   -5.9160   14.6240    1.8560 C   0  0  0  0  0  0  0  0  0  0  0  0
  1  2  1  0
  2  3  2  0
  1  4  1  0
  1  5  1  0
  3  6  1  0
  4  6  1  0
  2  7  1  0
  5  8  1  0
  5  9  2  0
  6 10  2  0
  7 11  2  0
  7 12  1  0
  8 13  2  0
  9 14  1  0
  8 15  1  0
 11 16  1  0
 12 17  2  0
 13 18  1  0
 14 18  2  0
 13 19  1  0
 15 20  2  0
 16 21  2  0
 17 21  1  0
 16 22  1  0
 19 23  2  0
 20 23  1  0
 22 24  2  0
 22 25  1  0
 24 26  1  0
 25 27  2  0
 26 28  2  0
 27 28  1  0
M  END
