mac-x0306-mac-x0255
     RDKit          3D

 27 30  0  0  0  0  0  0  0  0999 V2000
    0.6100   12.6970   -1.5020 O   0  0  0  0  0  0  0  0  0  0  0  0
    0.6560   12.0600   -2.7040 C   0  0  0  0  0  0  0  0  0  0  0  0
    0.1740   10.9500   -2.8800 O   0  0  0  0  0  0  0  0  0  0  0  0
   -0.6300   13.3730   -1.2000 C   0  0  0  0  0  0  0  0  0  0  0  0
    1.3780   12.8460   -3.7980 C   0  0  0  0  0  0  0  0  0  0  0  0
   -0.3570   14.8030   -0.7220 C   0  0  0  0  0  0  0  0  0  0  0  0
   -1.4930   15.3580    0.1480 C   0  0  0  0  0  0  0  0  0  0  0  0
    0.6580   14.1000   -4.2500 C   0  0  0  0  0  0  0  0  0  0  0  0
   -2.8850   15.2600   -0.4580 C   0  0  0  0  0  0  0  0  0  0  0  0
    1.2200   15.3370   -4.4860 C   0  0  0  0  0  0  0  0  0  0  0  0
   -1.0290   14.1250   -4.5410 S   0  0  0  0  0  0  0  0  0  0  0  0
   -2.9690   15.3880   -1.8120 N   0  0  0  0  0  0  0  0  0  0  0  0
   -4.0180   15.0490    0.3290 C   0  0  0  0  0  0  0  0  0  0  0  0
    0.2670   16.3250   -4.9110 C   0  0  0  0  0  0  0  0  0  0  0  0
   -1.0250   15.7930   -4.9840 C   0  0  0  0  0  0  0  0  0  0  0  0
   -4.1890   15.3080   -2.3890 C   0  0  0  0  0  0  0  0  0  0  0  0
   -5.2790   14.9670   -0.2830 C   0  0  0  0  0  0  0  0  0  0  0  0
    0.4520   17.6850   -5.2470 C   0  0  0  0  0  0  0  0  0  0  0  0
   -2.1280   16.5820   -5.3810 C   0  0  0  0  0  0  0  0  0  0  0  0
   -6.5220   14.7460    0.4690 C   0  0  0  0  0  0  0  0  0  0  0  0
   -5.3550   15.1040   -1.6820 C   0  0  0  0  0  0  0  0  0  0  0  0
   -0.6340   18.4680   -5.6430 C   0  0  0  0  0  0  0  0  0  0  0  0
   -1.9110   17.9230   -5.7100 C   0  0  0  0  0  0  0  0  0  0  0  0
   -6.6110   14.4930    1.8280 N   0  0  0  0  0  0  0  0  0  0  0  0
   -7.7390   14.7600   -0.0510 N   0  0  0  0  0  0  0  0  0  0  0  0
   -8.6130   14.5220    0.9810 C   0  0  0  0  0  0  0  0  0  0  0  0
   -7.9320   14.3560    2.1490 C   0  0  0  0  0  0  0  0  0  0  0  0
  1  2  1  0
  2  3  2  0
  1  4  1  0
  2  5  1  0
  4  6  1  0
  6  7  1  0
  5  8  1  0
  7  9  1  0
  8 10  2  0
  8 11  1  0
  9 12  2  0
  9 13  1  0
 10 14  1  0
 11 15  1  0
 14 15  2  0
 12 16  1  0
 13 17  2  0
 14 18  1  0
 15 19  1  0
 17 20  1  0
 16 21  2  0
 17 21  1  0
 18 22  2  0
 19 23  2  0
 22 23  1  0
 20 24  1  0
 20 25  2  0
 25 26  1  0
 24 27  1  0
 26 27  2  0
M  END
