mac-x0392-mac-x0576
     RDKit          3D

 14 15  0  0  0  0  0  0  0  0999 V2000
    0.4470   14.6200    0.0980 N   0  0  0  0  0  0  0  0  0  0  0  0
   -0.8790   14.0190    0.0150 C   0  0  1  0  0  0  0  0  0  0  0  0
   -1.8040   14.4580    1.1840 C   0  0  0  0  0  0  0  0  0  0  0  0
   -1.5810   14.5550   -1.2210 C   0  0  1  0  0  0  0  0  0  0  0  0
   -1.1240   14.0930   -2.5730 C   0  0  0  0  0  0  0  0  0  0  0  0
   -3.0360   14.5860   -0.7780 C   0  0  1  0  0  0  0  0  0  0  0  0
   -2.9870   15.1230    0.5780 N   0  0  0  0  0  0  0  0  0  0  0  0
   -1.8800   13.8420   -3.4980 O   0  0  0  0  0  0  0  0  0  0  0  0
    0.2170   14.0110   -2.7280 O   0  0  0  0  0  0  0  0  0  0  0  0
   -4.1860   14.9820    1.2920 N   0  0  0  0  0  0  0  0  0  0  0  0
   -4.0930   15.1900   -1.5800 N   0  0  0  0  0  0  0  0  0  0  0  0
   -5.3800   15.0380    0.6280 C   0  0  0  0  0  0  0  0  0  0  0  0
   -5.3300   15.5320   -0.8090 C   0  0  0  0  0  0  0  0  0  0  0  0
   -6.4300   14.7220    1.1760 O   0  0  0  0  0  0  0  0  0  0  0  0
  2  1  1  1
  2  3  1  0
  2  4  1  0
  4  5  1  6
  4  6  1  0
  3  7  1  0
  6  7  1  0
  5  8  2  0
  5  9  1  0
  7 10  1  0
  6 11  1  6
 10 12  1  0
 11 13  1  0
 12 13  1  0
 12 14  2  0
M  END
