mac-x0381-diamond-x0128_0_A
     RDKit          3D

 27 30  0  0  0  0  0  0  0  0999 V2000
   -7.8670   13.0000    4.0190 N   0  0  0  0  0  0  0  0  0  0  0  0
   -7.8880   14.3430    3.3680 S   0  0  0  0  0  0  0  0  0  0  0  0
   -7.5060   15.2880    4.6370 N   0  0  0  0  0  0  0  0  0  0  0  0
   -6.5160   15.0220    2.6720 N   0  0  0  0  0  0  0  0  0  0  0  0
   -8.2560   13.8720    2.0760 O   0  0  0  0  0  0  0  0  0  0  0  0
   -9.5040   15.1370    3.1280 C   0  0  0  0  0  0  0  0  0  0  0  0
   -9.5890   15.8740    2.0010 C   0  0  0  0  0  0  0  0  0  0  0  0
  -10.5150   14.9550    4.0010 C   0  0  0  0  0  0  0  0  0  0  0  0
   -6.1000   14.9610    1.3060 C   0  0  0  0  0  0  0  0  0  0  0  0
   -8.4110   16.0540    5.4630 C   0  0  0  0  0  0  0  0  0  0  0  0
  -10.8020   16.4630    1.7210 C   0  0  0  0  0  0  0  0  0  0  0  0
  -11.7490   15.5480    3.7240 C   0  0  0  0  0  0  0  0  0  0  0  0
   -6.9620   14.7030    0.2300 C   0  0  0  0  0  0  0  0  0  0  0  0
   -4.7750   15.1880    0.9810 C   0  0  0  0  0  0  0  0  0  0  0  0
   -8.9900   17.2100    4.9090 C   0  0  0  0  0  0  0  0  0  0  0  0
   -8.7130   15.7090    6.7350 C   0  0  0  0  0  0  0  0  0  0  0  0
  -11.8930   16.3040    2.5660 C   0  0  0  0  0  0  0  0  0  0  0  0
  -10.9640   17.2230    0.5850 C   0  0  0  0  0  0  0  0  0  0  0  0
   -6.5460   14.6760   -1.0690 C   0  0  0  0  0  0  0  0  0  0  0  0
   -4.3490   15.1620   -0.3440 C   0  0  0  0  0  0  0  0  0  0  0  0
   -9.8340   17.9810    5.6130 N   0  0  0  0  0  0  0  0  0  0  0  0
   -9.5890   16.5220    7.4440 C   0  0  0  0  0  0  0  0  0  0  0  0
  -13.1130   16.8820    2.2660 C   0  0  0  0  0  0  0  0  0  0  0  0
  -12.1560   17.8180    0.2530 C   0  0  0  0  0  0  0  0  0  0  0  0
   -5.2240   14.9100   -1.3620 C   0  0  0  0  0  0  0  0  0  0  0  0
  -10.1350   17.6430    6.8820 C   0  0  0  0  0  0  0  0  0  0  0  0
  -13.2440   17.6360    1.1130 C   0  0  0  0  0  0  0  0  0  0  0  0
  1  2  1  0
  2  3  1  0
  2  4  1  0
  2  5  2  0
  2  6  1  0
  6  7  2  0
  6  8  1  0
  4  9  1  0
  3 10  1  0
  7 11  1  0
  8 12  2  0
  9 13  2  0
  9 14  1  0
 10 15  2  0
 10 16  1  0
 11 17  2  0
 12 17  1  0
 11 18  1  0
 13 19  1  0
 14 20  2  0
 15 21  1  0
 16 22  2  0
 17 23  1  0
 18 24  2  0
 19 25  2  0
 20 25  1  0
 21 26  2  0
 22 26  1  0
 23 27  2  0
 24 27  1  0
M  END
