mac-x0333-mac-x0546
     RDKit          3D

 27 30  0  0  0  0  0  0  0  0999 V2000
   -1.9070   14.7970   -2.0280 O   0  0  0  0  0  0  0  0  0  0  0  0
   -3.0090   14.8250   -1.2230 C   0  0  0  0  0  0  0  0  0  0  0  0
   -2.8890   15.2130    0.1100 C   0  0  0  0  0  0  0  0  0  0  0  0
   -4.2140   14.4520   -1.7900 C   0  0  0  0  0  0  0  0  0  0  0  0
   -4.2240   14.0250   -3.2320 C   0  0  0  0  0  0  0  0  0  0  0  0
   -5.3320   14.5080   -0.9530 C   0  0  0  0  0  0  0  0  0  0  0  0
   -4.0130   15.2510    0.9220 C   0  0  0  0  0  0  0  0  0  0  0  0
   -4.6500   15.1790   -3.9540 C   0  0  0  0  0  0  0  0  0  0  0  0
   -5.2170   14.8970    0.3640 C   0  0  0  0  0  0  0  0  0  0  0  0
   -6.6240   14.2080   -1.2730 O   0  0  0  0  0  0  0  0  0  0  0  0
   -3.8430   15.5880   -5.1530 N   0  0  0  0  0  0  0  0  0  0  0  0
   -6.4090   14.8840    1.0200 O   0  0  0  0  0  0  0  0  0  0  0  0
   -7.3060   14.5520   -0.0510 C   0  0  0  0  0  0  0  0  0  0  0  0
   -4.5910   15.2070   -6.3480 C   0  0  0  0  0  0  0  0  0  0  0  0
   -2.4380   15.7620   -5.2070 C   0  0  0  0  0  0  0  0  0  0  0  0
   -1.5930   14.7150   -5.0750 C   0  0  0  0  0  0  0  0  0  0  0  0
   -1.8110   17.0920   -5.4530 C   0  0  0  0  0  0  0  0  0  0  0  0
   -0.1240   14.8640   -5.1940 C   0  0  1  0  0  0  0  0  0  0  0  0
   -0.5010   17.3720   -5.2510 C   0  0  0  0  0  0  0  0  0  0  0  0
    0.2810   16.2360   -4.7460 C   0  0  0  0  0  0  0  0  0  0  0  0
    0.8470   14.1070   -4.3900 C   0  0  0  0  0  0  0  0  0  0  0  0
    0.9000   12.6240   -4.3810 C   0  0  0  0  0  0  0  0  0  0  0  0
    1.2780   16.2950   -3.9430 N   0  0  0  0  0  0  0  0  0  0  0  0
    1.6240   14.9780   -3.7380 C   0  0  0  0  0  0  0  0  0  0  0  0
    0.8260   12.0820   -2.9770 C   0  0  0  0  0  0  0  0  0  0  0  0
    1.0850   12.7040   -1.9600 O   0  0  0  0  0  0  0  0  0  0  0  0
    0.4380   10.7970   -2.9130 O   0  0  0  0  0  0  0  0  0  0  0  0
  1  2  1  0
  2  3  2  0
  2  4  1  0
  4  5  1  0
  4  6  2  0
  3  7  1  0
  5  8  1  0
  6  9  1  0
  7  9  2  0
  6 10  1  0
  8 11  1  0
  9 12  1  0
 10 13  1  0
 12 13  1  0
 11 14  1  0
 11 15  1  0
 15 16  2  0
 15 17  1  0
 18 16  1  1
 17 19  2  0
 18 20  1  0
 19 20  1  0
 18 21  1  0
 21 22  1  0
 20 23  2  0
 21 24  2  0
 23 24  1  0
 22 25  1  0
 25 26  2  0
 25 27  1  0
M  END
