mac-x0381-mac-x0302
     RDKit          3D

 30 32  0  0  0  0  0  0  0  0999 V2000
   -8.0690   13.4250    4.7540 N   0  0  0  0  0  0  0  0  0  0  0  0
   -8.0030   14.4960    3.7860 C   0  0  0  0  0  0  0  0  0  0  0  0
   -7.1850   15.4100    4.5140 N   0  0  0  0  0  0  0  0  0  0  0  0
   -7.2360   13.9000    2.5680 C   0  0  0  0  0  0  0  0  0  0  0  0
   -9.4070   14.9600    3.4740 C   0  0  0  0  0  0  0  0  0  0  0  0
   -7.9770   13.5460    1.2640 C   0  0  0  0  0  0  0  0  0  0  0  0
   -9.7820   15.1700    2.1600 C   0  0  0  0  0  0  0  0  0  0  0  0
  -10.3750   15.1740    4.4720 C   0  0  0  0  0  0  0  0  0  0  0  0
   -8.3600   14.7010    0.3490 C   0  0  0  0  0  0  0  0  0  0  0  0
  -11.0600   15.5440    1.8080 C   0  0  0  0  0  0  0  0  0  0  0  0
  -11.6730   15.5660    4.1400 C   0  0  0  0  0  0  0  0  0  0  0  0
   -7.3850   14.8800   -0.6660 O   0  0  0  0  0  0  0  0  0  0  0  0
  -12.0310   15.7430    2.8060 C   0  0  0  0  0  0  0  0  0  0  0  0
  -11.3860   15.7040    0.4730 C   0  0  0  0  0  0  0  0  0  0  0  0
  -13.3260   16.1020    2.4380 C   0  0  0  0  0  0  0  0  0  0  0  0
  -12.6700   16.0360    0.1200 C   0  0  0  0  0  0  0  0  0  0  0  0
   -6.0580   14.9520   -0.3360 C   0  0  0  0  0  0  0  0  0  0  0  0
  -13.6480   16.2400    1.1000 C   0  0  0  0  0  0  0  0  0  0  0  0
   -5.2400   14.9820   -1.4540 C   0  0  0  0  0  0  0  0  0  0  0  0
   -5.4780   14.9940    0.9360 C   0  0  0  0  0  0  0  0  0  0  0  0
   -3.8600   15.0500   -1.3160 C   0  0  0  0  0  0  0  0  0  0  0  0
   -4.0930   15.0650    1.0800 C   0  0  0  0  0  0  0  0  0  0  0  0
   -2.9720   15.0770   -2.4970 C   0  0  0  0  0  0  0  0  0  0  0  0
   -3.2830   15.0910   -0.0430 C   0  0  0  0  0  0  0  0  0  0  0  0
   -1.7010   14.5940   -2.3000 N   0  0  0  0  0  0  0  0  0  0  0  0
   -3.3670   15.5080   -3.5740 O   0  0  0  0  0  0  0  0  0  0  0  0
   -0.7440   14.5620   -3.3840 C   0  0  0  0  0  0  0  0  0  0  0  0
    0.5830   14.0720   -2.8370 C   0  0  0  0  0  0  0  0  0  0  0  0
    1.6180   14.2890   -3.6670 O   0  0  0  0  0  0  0  0  0  0  0  0
    0.7600   13.5300   -1.7600 O   0  0  0  0  0  0  0  0  0  0  0  0
  2  1  1  0
  2  3  1  0
  2  4  1  0
  2  5  1  0
  4  6  1  0
  5  7  2  0
  5  8  1  0
  6  9  1  0
  7 10  1  0
  8 11  2  0
  9 12  1  0
 10 13  2  0
 11 13  1  0
 10 14  1  0
 13 15  1  0
 14 16  2  0
 12 17  1  0
 15 18  2  0
 16 18  1  0
 17 19  2  0
 17 20  1  0
 19 21  1  0
 20 22  2  0
 21 23  1  0
 21 24  2  0
 22 24  1  0
 23 25  1  0
 23 26  2  0
 25 27  1  0
 27 28  1  0
 28 29  1  0
 28 30  2  0
M  END
