mac-x0588-diamond-x0727_0_A
     RDKit          3D

 30 33  0  0  0  0  0  0  0  0999 V2000
   -4.4250   14.7020    0.9590 N   0  0  0  0  0  0  0  0  0  0  0  0
   -3.4620   15.2800    0.0450 C   0  0  1  0  0  0  0  0  0  0  0  0
   -1.9810   15.1450    0.5260 C   0  0  2  0  0  0  0  0  0  0  0  0
   -3.7520   14.5990   -1.1740 N   0  0  0  0  0  0  0  0  0  0  0  0
   -2.8890   14.9300   -2.2910 C   0  0  0  0  0  0  0  0  0  0  0  0
   -0.9390   14.9620   -0.6190 C   0  0  2  0  0  0  0  0  0  0  0  0
   -1.6280   14.1240    1.5000 N   0  0  0  0  0  0  0  0  0  0  0  0
   -1.4550   14.8710   -1.9950 N   0  0  0  0  0  0  0  0  0  0  0  0
   -0.0500   13.9290   -0.1450 N   0  0  0  0  0  0  0  0  0  0  0  0
   -0.1980   14.0530    1.2940 C   0  0  0  0  0  0  0  0  0  0  0  0
   -0.4640   14.8620   -3.1240 C   0  0  1  0  0  0  0  0  0  0  0  0
   -0.7550   13.8430   -4.2030 C   0  0  0  0  0  0  0  0  0  0  0  0
   -0.1620   16.2430   -3.8190 C   0  0  2  0  0  0  0  0  0  0  0  0
    0.0890   13.3680   -5.3560 C   0  0  0  0  0  0  0  0  0  0  0  0
   -1.3060   16.8800   -4.4340 O   0  0  0  0  0  0  0  0  0  0  0  0
    0.8550   16.2450   -4.9360 C   0  0  0  0  0  0  0  0  0  0  0  0
    0.7830   12.0760   -5.0060 C   0  0  2  0  0  0  0  0  0  0  0  0
    0.6950   17.6500   -5.4590 C   0  0  0  0  0  0  0  0  0  0  0  0
   -0.7870   17.9280   -5.2690 C   0  0  0  0  0  0  0  0  0  0  0  0
    0.1590   11.0300   -5.7780 N   0  0  0  0  0  0  0  0  0  0  0  0
    0.7470   11.7150   -3.5110 C   0  0  0  0  0  0  0  0  0  0  0  0
    0.1120   10.7670   -3.0760 O   0  0  0  0  0  0  0  0  0  0  0  0
    0.6370   10.8150   -7.0220 C   0  0  0  0  0  0  0  0  0  0  0  0
    1.4860   12.5250   -2.7100 O   0  0  0  0  0  0  0  0  0  0  0  0
    1.5200   11.5100   -7.4600 O   0  0  0  0  0  0  0  0  0  0  0  0
    0.0450    9.6730   -7.8130 C   0  0  0  0  0  0  0  0  0  0  0  0
   -1.2810   10.0890   -8.4570 C   0  0  0  0  0  0  0  0  0  0  0  0
   -0.2740    8.4240   -6.9790 C   0  0  0  0  0  0  0  0  0  0  0  0
   -2.3550    9.1790   -7.8570 C   0  0  0  0  0  0  0  0  0  0  0  0
   -1.7270    8.6140   -6.5930 C   0  0  0  0  0  0  0  0  0  0  0  0
  2  1  1  1
  2  3  1  0
  2  4  1  0
  4  5  1  0
  3  6  1  0
  3  7  1  1
  5  8  1  0
  6  8  1  0
  6  9  1  1
  7 10  1  0
  9 10  1  0
  8 11  1  0
 11 12  1  6
 11 13  1  0
 12 14  1  0
 13 15  1  0
 13 16  1  6
 17 14  1  1
 16 18  1  0
 15 19  1  0
 18 19  1  0
 17 20  1  0
 17 21  1  0
 21 22  2  0
 20 23  1  0
 21 24  1  0
 23 25  2  0
 23 26  1  0
 26 27  1  0
 26 28  1  0
 27 29  1  0
 28 30  1  0
 29 30  1  0
M  END
