mac-x0193-diamond-x0722_0_A
     RDKit          3D

 28 29  0  0  0  0  0  0  0  0999 V2000
    0.3090   11.1840   -3.0020 O   0  0  0  0  0  0  0  0  0  0  0  0
    0.8220   12.3060   -3.5600 C   0  0  0  0  0  0  0  0  0  0  0  0
    1.1700   13.3610   -2.9450 N   0  0  0  0  0  0  0  0  0  0  0  0
    0.9880   12.3580   -5.0500 C   0  0  0  0  0  0  0  0  0  0  0  0
    0.1810   11.4040   -5.7580 N   0  0  0  0  0  0  0  0  0  0  0  0
    1.0170   13.5260   -1.5380 C   0  0  0  0  0  0  0  0  0  0  0  0
    0.7270   11.1770   -6.9610 C   0  0  0  0  0  0  0  0  0  0  0  0
    0.0100   14.6480   -1.3580 C   0  0  0  0  0  0  0  0  0  0  0  0
    1.7840   11.6660   -7.2120 O   0  0  0  0  0  0  0  0  0  0  0  0
    0.0280   10.3810   -7.8210 N   0  0  0  0  0  0  0  0  0  0  0  0
   -1.4580   14.2210   -1.5210 C   0  0  0  0  0  0  0  0  0  0  0  0
    0.7190    9.9630   -9.0370 C   0  0  0  0  0  0  0  0  0  0  0  0
   -2.1910   14.5910   -0.2950 C   0  0  0  0  0  0  0  0  0  0  0  0
    1.3720    8.6070   -8.8190 C   0  0  0  0  0  0  0  0  0  0  0  0
   -0.1780    9.9310  -10.2750 C   0  0  0  0  0  0  0  0  0  0  0  0
   -3.4680   15.0970   -0.0610 C   0  0  0  0  0  0  0  0  0  0  0  0
   -1.5920   14.4740    0.9250 N   0  0  0  0  0  0  0  0  0  0  0  0
   -0.2760   14.0130    1.2800 C   0  0  0  0  0  0  0  0  0  0  0  0
   -4.5830   15.4350   -1.0080 C   0  0  0  0  0  0  0  0  0  0  0  0
    2.1490    8.1060  -10.0430 C   0  0  0  0  0  0  0  0  0  0  0  0
    0.5950    9.4650  -11.5080 C   0  0  0  0  0  0  0  0  0  0  0  0
   -2.3540   14.8570    1.9060 N   0  0  0  0  0  0  0  0  0  0  0  0
   -3.4670   15.2510    1.3370 C   0  0  0  0  0  0  0  0  0  0  0  0
   -4.4830   15.7910    2.2100 C   0  0  0  0  0  0  0  0  0  0  0  0
   -5.8850   14.7240   -0.6570 C   0  0  0  0  0  0  0  0  0  0  0  0
    1.2660    8.1100  -11.2910 C   0  0  0  0  0  0  0  0  0  0  0  0
   -6.9980   15.2200   -0.8220 O   0  0  0  0  0  0  0  0  0  0  0  0
   -5.7640   13.4660   -0.1320 N   0  0  0  0  0  0  0  0  0  0  0  0
  1  2  1  0
  2  3  2  3
  2  4  1  0
  4  5  1  0
  3  6  1  0
  5  7  1  0
  6  8  1  0
  7  9  2  0
  7 10  1  0
  8 11  1  0
 10 12  1  0
 11 13  1  0
 12 14  1  0
 12 15  1  0
 13 16  2  0
 13 17  1  0
 17 18  1  0
 16 19  1  0
 14 20  1  0
 15 21  1  0
 17 22  1  0
 16 23  1  0
 22 23  2  0
 23 24  1  0
 19 25  1  0
 20 26  1  0
 21 26  1  0
 25 27  2  0
 25 28  1  0
M  END
