mac-x0306-mac-x1494
     RDKit          3D

 17 19  0  0  0  0  0  0  0  0999 V2000
   -4.0250   15.6610    1.1980 O   0  0  0  0  0  0  0  0  0  0  0  0
   -4.4350   15.2890    0.0880 C   0  0  0  0  0  0  0  0  0  0  0  0
   -3.8850   15.4720   -1.3150 C   0  0  1  0  0  0  0  0  0  0  0  0
   -5.6630   14.4930   -0.2350 C   0  0  2  0  0  0  0  0  0  0  0  0
   -6.8060   14.5550    0.7110 C   0  0  0  0  0  0  0  0  0  0  0  0
   -5.1110   13.1840   -0.6650 C   0  0  0  0  0  0  0  0  0  0  0  0
   -3.2880   14.2280   -1.8470 N   0  0  0  0  0  0  0  0  0  0  0  0
   -5.1860   15.5830   -2.0170 C   0  0  0  0  0  0  0  0  0  0  0  0
   -6.7380   14.4890    2.0820 N   0  0  0  0  0  0  0  0  0  0  0  0
   -8.0590   14.6850    0.3200 N   0  0  0  0  0  0  0  0  0  0  0  0
   -3.9910   13.1290   -1.4120 C   0  0  0  0  0  0  0  0  0  0  0  0
   -3.0970   14.1770   -3.3100 C   0  0  2  0  0  0  0  0  0  0  0  0
   -5.4570   15.0760   -3.2090 C   0  0  0  0  0  0  0  0  0  0  0  0
   -1.8330   15.2720   -3.9310 Cl  0  0  0  0  0  0  0  0  0  0  0  0
   -8.8100   14.7060    1.4530 C   0  0  0  0  0  0  0  0  0  0  0  0
   -8.0090   14.5860    2.5610 C   0  0  0  0  0  0  0  0  0  0  0  0
   -4.4350   14.3580   -4.0190 C   0  0  0  0  0  0  0  0  0  0  0  0
  1  2  2  0
  2  3  1  0
  2  4  1  0
  4  5  1  1
  4  6  1  0
  3  7  1  0
  3  8  1  6
  5  9  1  0
  5 10  2  0
  6 11  2  0
  7 11  1  0
  7 12  1  0
  8 13  2  0
 12 14  1  6
 10 15  1  0
  9 16  1  0
 15 16  2  0
 12 17  1  0
 13 17  1  0
M  END
