mac-x0341-mac-x0231
     RDKit          3D

 28 31  0  0  0  0  0  0  0  0999 V2000
   -6.7390   14.7850    2.7100 N   0  0  0  0  0  0  0  0  0  0  0  0
   -6.2040   14.7940    1.4710 C   0  0  0  0  0  0  0  0  0  0  0  0
   -4.9180   14.9520    1.2450 N   0  0  0  0  0  0  0  0  0  0  0  0
   -7.1220   14.6490    0.4840 N   0  0  0  0  0  0  0  0  0  0  0  0
   -6.8500   15.0020   -0.7850 C   0  0  0  0  0  0  0  0  0  0  0  0
   -4.5090   14.9900   -0.1090 C   0  0  0  0  0  0  0  0  0  0  0  0
   -7.6980   15.2660   -1.6170 O   0  0  0  0  0  0  0  0  0  0  0  0
   -5.4600   15.0210   -1.1170 C   0  0  0  0  0  0  0  0  0  0  0  0
   -3.1670   15.0020   -0.5200 C   0  0  0  0  0  0  0  0  0  0  0  0
   -2.8720   15.0430   -1.9140 C   0  0  0  0  0  0  0  0  0  0  0  0
   -5.1920   15.0640   -2.4390 C   0  0  0  0  0  0  0  0  0  0  0  0
   -3.9360   15.0760   -2.8880 C   0  0  0  0  0  0  0  0  0  0  0  0
   -3.8200   15.1110   -4.4080 C   0  0  0  0  0  0  0  0  0  0  0  0
   -2.4910   14.6780   -4.5440 C   0  0  0  0  0  0  0  0  0  0  0  0
   -1.5810   15.6860   -4.5460 C   0  0  0  0  0  0  0  0  0  0  0  0
   -2.1750   13.3360   -4.6170 C   0  0  0  0  0  0  0  0  0  0  0  0
   -0.2800   15.3530   -4.5730 C   0  0  0  0  0  0  0  0  0  0  0  0
   -0.8460   12.9990   -4.6450 C   0  0  0  0  0  0  0  0  0  0  0  0
    0.0900   14.0260   -4.5970 C   0  0  0  0  0  0  0  0  0  0  0  0
    0.7070   16.4060   -4.5480 C   0  0  0  0  0  0  0  0  0  0  0  0
    0.4120   17.5860   -4.7400 O   0  0  0  0  0  0  0  0  0  0  0  0
    1.5040   13.7480   -4.5330 C   0  0  0  0  0  0  0  0  0  0  0  0
    1.9550   15.9590   -4.2920 N   0  0  0  0  0  0  0  0  0  0  0  0
    1.9230   12.3200   -4.5330 C   0  0  0  0  0  0  0  0  0  0  0  0
    2.3800   14.6710   -4.3680 N   0  0  0  0  0  0  0  0  0  0  0  0
    1.4530   11.8040   -3.2060 C   0  0  0  0  0  0  0  0  0  0  0  0
    0.9670   10.5540   -3.2170 O   0  0  0  0  0  0  0  0  0  0  0  0
    1.4720   12.4160   -2.1540 O   0  0  0  0  0  0  0  0  0  0  0  0
  1  2  1  0
  2  3  2  0
  2  4  1  0
  4  5  1  0
  3  6  1  0
  5  7  2  0
  5  8  1  0
  6  8  2  0
  6  9  1  0
  9 10  2  0
  8 11  1  0
 10 12  1  0
 11 12  2  0
 12 13  1  0
 13 14  1  0
 14 15  2  0
 14 16  1  0
 15 17  1  0
 16 18  2  0
 17 19  2  0
 18 19  1  0
 17 20  1  0
 20 21  2  0
 19 22  1  0
 20 23  1  0
 22 24  1  0
 22 25  2  0
 23 25  1  0
 24 26  1  0
 26 27  1  0
 26 28  2  0
M  END
