mac-x0188-mac-x0193
     RDKit          3D

 27 30  0  0  0  0  0  0  0  0999 V2000
    0.6240   12.5870   -4.6410 C   0  0  1  0  0  0  0  0  0  0  0  0
    0.6730   11.9630   -3.1860 C   0  0  0  0  0  0  0  0  0  0  0  0
    0.7820   10.6540   -3.0400 O   0  0  0  0  0  0  0  0  0  0  0  0
    0.2480   11.5620   -5.6120 N   0  0  0  0  0  0  0  0  0  0  0  0
   -0.5790   13.2990   -4.3640 C   0  0  0  0  0  0  0  0  0  0  0  0
    0.5390   12.5630   -2.0520 N   0  0  0  0  0  0  0  0  0  0  0  0
    0.9230   11.4210   -6.7780 C   0  0  0  0  0  0  0  0  0  0  0  0
   -1.5940   13.4050   -5.2260 O   0  0  0  0  0  0  0  0  0  0  0  0
   -0.8190   13.8780   -3.1780 C   0  0  0  0  0  0  0  0  0  0  0  0
    0.2300   13.8570   -2.1930 C   0  0  0  0  0  0  0  0  0  0  0  0
    2.0330   11.8530   -6.8780 O   0  0  0  0  0  0  0  0  0  0  0  0
    0.2050   10.7380   -7.7550 N   0  0  0  0  0  0  0  0  0  0  0  0
   -2.6140   14.0380   -4.5540 N   0  0  0  0  0  0  0  0  0  0  0  0
   -2.1510   14.2800   -3.3060 C   0  0  0  0  0  0  0  0  0  0  0  0
    0.7390   14.8170   -1.6220 O   0  0  0  0  0  0  0  0  0  0  0  0
   -3.0070   14.8190   -2.2950 C   0  0  0  0  0  0  0  0  0  0  0  0
    0.8340   10.1790   -8.9610 C   0  0  0  0  0  0  0  0  0  0  0  0
   -4.2720   15.2990   -2.5700 C   0  0  0  0  0  0  0  0  0  0  0  0
   -2.5360   14.8050   -0.9760 C   0  0  0  0  0  0  0  0  0  0  0  0
    1.3530    8.7620   -8.7140 C   0  0  0  0  0  0  0  0  0  0  0  0
   -0.1070   10.1580  -10.1660 C   0  0  0  0  0  0  0  0  0  0  0  0
   -5.0700   15.7600   -1.5280 C   0  0  0  0  0  0  0  0  0  0  0  0
   -3.3290   15.2640    0.0600 C   0  0  0  0  0  0  0  0  0  0  0  0
    2.0710    8.1620   -9.9310 C   0  0  0  0  0  0  0  0  0  0  0  0
    0.5730    9.5750  -11.4130 C   0  0  0  0  0  0  0  0  0  0  0  0
   -4.5940   15.7390   -0.2190 C   0  0  0  0  0  0  0  0  0  0  0  0
    1.1810    8.1880  -11.1670 C   0  0  0  0  0  0  0  0  0  0  0  0
  1  2  1  0
  2  3  1  0
  1  4  1  6
  1  5  1  0
  2  6  2  0
  4  7  1  0
  5  8  1  0
  5  9  2  0
  6 10  1  0
  9 10  1  0
  7 11  2  0
  7 12  1  0
  8 13  1  0
  9 14  1  0
 13 14  2  0
 10 15  2  0
 14 16  1  0
 12 17  1  0
 16 18  2  0
 16 19  1  0
 17 20  1  0
 17 21  1  0
 18 22  1  0
 19 23  2  0
 20 24  1  0
 21 25  1  0
 22 26  2  0
 23 26  1  0
 24 27  1  0
 25 27  1  0
M  END
