mac-x0587-mac-x0437
     RDKit          3D

 25 27  0  0  0  0  0  0  0  0999 V2000
   -0.1100   15.9110   -4.7380 C   0  0  0  0  0  0  0  0  0  0  0  0
   -0.6390   14.7220   -3.9370 C   0  0  2  0  0  0  0  0  0  0  0  0
   -0.2930   13.1330   -4.7370 S   0  0  1  0  0  0  0  0  0  0  0  0
   -2.1360   14.9540   -3.6290 C   0  0  0  0  0  0  0  0  0  0  0  0
   -0.4930   11.9670   -3.4400 C   0  0  0  0  0  0  0  0  0  0  0  0
   -2.9000   15.2500   -4.5500 O   0  0  0  0  0  0  0  0  0  0  0  0
   -2.5850   14.8290   -2.3090 N   0  0  0  0  0  0  0  0  0  0  0  0
   -1.3650   12.4850   -5.8810 N   0  0  0  0  0  0  0  0  0  0  0  0
    0.7720   11.7120   -2.7050 C   0  0  0  0  0  0  0  0  0  0  0  0
   -3.9470   15.0800   -1.8440 C   0  0  0  0  0  0  0  0  0  0  0  0
   -1.7470   14.7690   -1.1730 C   0  0  0  0  0  0  0  0  0  0  0  0
   -2.5180   11.8360   -5.2810 C   0  0  0  0  0  0  0  0  0  0  0  0
   -1.0480   11.6190   -7.0670 C   0  0  2  0  0  0  0  0  0  0  0  0
    0.8220   10.3080   -2.4980 O   0  0  0  0  0  0  0  0  0  0  0  0
    0.6820   12.3170   -1.4250 O   0  0  0  0  0  0  0  0  0  0  0  0
   -0.5380   14.8530   -1.0760 O   0  0  0  0  0  0  0  0  0  0  0  0
    1.9460   12.3910   -3.4420 C   0  0  0  0  0  0  0  0  0  0  0  0
   -3.8640   15.1230   -0.3250 C   0  0  0  0  0  0  0  0  0  0  0  0
   -2.5640   14.6030   -0.0590 N   0  0  0  0  0  0  0  0  0  0  0  0
   -2.3100   10.4110   -5.4730 N   0  0  0  0  0  0  0  0  0  0  0  0
   -2.0160   10.4170   -6.9030 C   0  0  2  0  0  0  0  0  0  0  0  0
    0.3780   11.1990   -7.3370 C   0  0  0  0  0  0  0  0  0  0  0  0
   -1.5440    9.0860   -7.4130 C   0  0  0  0  0  0  0  0  0  0  0  0
    0.6990    9.9340   -7.6810 C   0  0  0  0  0  0  0  0  0  0  0  0
   -0.2760    8.8840   -7.7800 C   0  0  0  0  0  0  0  0  0  0  0  0
  2  1  1  6
  2  3  1  0
  2  4  1  0
  3  5  1  1
  4  6  2  0
  4  7  1  0
  3  8  1  0
  5  9  1  0
  7 10  1  0
  7 11  1  0
  8 12  1  0
  8 13  1  0
  9 14  1  0
  9 15  1  0
 11 16  2  0
  9 17  1  0
 10 18  1  0
 11 19  1  0
 18 19  1  0
 12 20  1  0
 13 21  1  0
 20 21  1  0
 13 22  1  1
 21 23  1  1
 22 24  2  0
 23 25  2  0
 24 25  1  0
M  END
