mac-x0584-mac-x0455
     RDKit          3D

 29 33  0  0  0  0  0  0  0  0999 V2000
   -2.4490   13.4920   -2.4560 C   0  0  0  0  0  0  0  0  0  0  0  0
   -1.0690   13.3310   -3.1670 C   0  0  1  0  0  0  0  0  0  0  0  0
   -0.0610   13.0930   -2.0190 C   0  0  0  0  0  0  0  0  0  0  0  0
   -1.0710   12.2760   -4.2750 C   0  0  0  0  0  0  0  0  0  0  0  0
   -0.4700   14.6800   -3.6600 C   0  0  1  0  0  0  0  0  0  0  0  0
    0.7360   13.9190   -1.6050 O   0  0  0  0  0  0  0  0  0  0  0  0
   -0.0720   11.8860   -1.4450 O   0  0  0  0  0  0  0  0  0  0  0  0
   -1.9860   11.2250   -4.2660 C   0  0  0  0  0  0  0  0  0  0  0  0
   -0.1610   12.3310   -5.3410 C   0  0  0  0  0  0  0  0  0  0  0  0
    1.0640   14.4160   -3.8740 C   0  0  0  0  0  0  0  0  0  0  0  0
   -1.0180   15.0640   -5.0720 C   0  0  0  0  0  0  0  0  0  0  0  0
   -1.0290   15.7580   -2.7530 N   0  0  0  0  0  0  0  0  0  0  0  0
   -1.9890   10.2680   -5.2760 C   0  0  0  0  0  0  0  0  0  0  0  0
   -0.1550   11.3780   -6.3520 C   0  0  0  0  0  0  0  0  0  0  0  0
    2.1180   13.8410   -2.8820 C   0  0  0  0  0  0  0  0  0  0  0  0
    1.4040   13.1500   -4.7380 C   0  0  0  0  0  0  0  0  0  0  0  0
   -2.1790   16.3260   -3.5010 C   0  0  0  0  0  0  0  0  0  0  0  0
   -2.3970   15.5520   -4.7800 C   0  0  0  0  0  0  0  0  0  0  0  0
   -1.2840   15.5560   -1.3660 C   0  0  0  0  0  0  0  0  0  0  0  0
   -1.0720   10.3430   -6.3180 C   0  0  0  0  0  0  0  0  0  0  0  0
    1.9240   12.4540   -3.4880 C   0  0  0  0  0  0  0  0  0  0  0  0
   -0.2140   15.3650   -0.5090 N   0  0  0  0  0  0  0  0  0  0  0  0
   -2.4830   15.5110   -0.7290 C   0  0  0  0  0  0  0  0  0  0  0  0
   -0.3440   15.1150    0.8260 C   0  0  0  0  0  0  0  0  0  0  0  0
   -2.5400   15.2720    0.7480 C   0  0  0  0  0  0  0  0  0  0  0  0
   -3.8740   15.6320   -1.0470 C   0  0  0  0  0  0  0  0  0  0  0  0
   -1.4350   15.0500    1.5030 N   0  0  0  0  0  0  0  0  0  0  0  0
   -3.7470   15.2990    1.2220 N   0  0  0  0  0  0  0  0  0  0  0  0
   -4.5350   15.5120    0.1080 C   0  0  0  0  0  0  0  0  0  0  0  0
  2  1  1  1
  2  3  1  0
  2  4  1  0
  2  5  1  0
  3  6  2  0
  3  7  1  0
  4  8  2  0
  4  9  1  0
  5 10  1  6
  5 11  1  0
  5 12  1  0
  8 13  1  0
  9 14  2  0
 10 15  1  0
 10 16  1  0
 12 17  1  0
 11 18  1  0
 17 18  1  0
 12 19  1  0
 13 20  2  0
 14 20  1  0
 15 21  1  0
 16 21  1  0
 19 22  1  0
 19 23  2  0
 22 24  1  0
 23 25  1  0
 23 26  1  0
 24 27  2  0
 25 27  1  0
 25 28  2  0
 26 29  2  0
 28 29  1  0
M  END
