mac-x0568-mac-x0415
     RDKit          3D

 26 28  0  0  0  0  0  0  0  0999 V2000
   -8.7720   14.5330    1.6320 C   0  0  0  0  0  0  0  0  0  0  0  0
   -7.4400   14.6500    0.9670 C   0  0  0  0  0  0  0  0  0  0  0  0
   -6.2800   14.7090    1.7320 C   0  0  0  0  0  0  0  0  0  0  0  0
   -7.4280   14.6980   -0.3780 N   0  0  0  0  0  0  0  0  0  0  0  0
   -6.2210   14.8040   -0.9630 C   0  0  0  0  0  0  0  0  0  0  0  0
   -5.0380   14.8180    1.1010 C   0  0  0  0  0  0  0  0  0  0  0  0
   -5.0130   14.8640   -0.2850 C   0  0  0  0  0  0  0  0  0  0  0  0
   -3.8110   14.9650   -1.1270 C   0  0  0  0  0  0  0  0  0  0  0  0
   -4.1760   15.0460   -2.3460 N   0  0  0  0  0  0  0  0  0  0  0  0
   -2.5400   14.9360   -0.5950 N   0  0  0  0  0  0  0  0  0  0  0  0
   -3.3140   15.1240   -3.4870 C   0  0  0  0  0  0  0  0  0  0  0  0
   -4.1760   14.8160   -4.7250 C   0  0  0  0  0  0  0  0  0  0  0  0
   -3.7190   15.6480   -5.7890 O   0  0  0  0  0  0  0  0  0  0  0  0
   -2.3990   15.8340   -5.5200 C   0  0  0  0  0  0  0  0  0  0  0  0
   -1.8090   17.1480   -5.8110 C   0  0  0  0  0  0  0  0  0  0  0  0
   -1.6800   14.8090   -4.9980 C   0  0  0  0  0  0  0  0  0  0  0  0
   -0.3090   15.0360   -4.7040 C   0  0  0  0  0  0  0  0  0  0  0  0
   -0.6000   17.4560   -5.3160 C   0  0  0  0  0  0  0  0  0  0  0  0
    0.7260   14.2090   -4.5620 C   0  0  0  0  0  0  0  0  0  0  0  0
    0.0730   16.4440   -4.4530 C   0  0  2  0  0  0  0  0  0  0  0  0
    0.9100   12.7510   -4.6140 C   0  0  0  0  0  0  0  0  0  0  0  0
    1.7930   15.1710   -4.3310 C   0  0  0  0  0  0  0  0  0  0  0  0
    1.4930   16.4290   -4.3130 N   0  0  0  0  0  0  0  0  0  0  0  0
    0.7570   12.1850   -3.2080 C   0  0  0  0  0  0  0  0  0  0  0  0
    0.0850   11.0170   -3.1190 O   0  0  0  0  0  0  0  0  0  0  0  0
    1.2020   12.7380   -2.2110 O   0  0  0  0  0  0  0  0  0  0  0  0
  1  2  1  0
  2  3  2  0
  2  4  1  0
  4  5  2  0
  3  6  1  0
  5  7  1  0
  6  7  2  0
  7  8  1  0
  8  9  2  3
  8 10  1  0
  9 11  1  0
 11 12  1  0
 12 13  1  0
 13 14  1  0
 14 15  1  0
 14 16  2  0
 16 17  1  0
 15 18  2  0
 17 19  2  0
 17 20  1  0
 20 18  1  6
 19 21  1  0
 19 22  1  0
 20 23  1  0
 22 23  2  0
 21 24  1  0
 24 25  1  0
 24 26  2  0
M  END
