mac-x0178-mac-x0341
     RDKit          3D

 24 26  0  0  0  0  0  0  0  0999 V2000
   -0.3000   17.9580   -6.3390 N   0  0  0  0  0  0  0  0  0  0  0  0
   -1.7430   17.4970   -5.6540 S   0  0  0  0  0  0  0  0  0  0  0  0
   -2.6410   17.2250   -6.7510 O   0  0  0  0  0  0  0  0  0  0  0  0
   -2.0190   18.5560   -4.7170 O   0  0  0  0  0  0  0  0  0  0  0  0
   -1.4250   15.9700   -4.7060 C   0  0  1  0  0  0  0  0  0  0  0  0
   -0.0600   15.4030   -4.8860 C   0  0  0  0  0  0  0  0  0  0  0  0
   -1.7010   16.1630   -3.2310 C   0  0  0  0  0  0  0  0  0  0  0  0
    0.4530   14.5840   -3.9630 C   0  0  0  0  0  0  0  0  0  0  0  0
   -1.6520   14.9210   -2.3170 C   0  0  1  0  0  0  0  0  0  0  0  0
   -0.2760   14.1750   -2.6840 C   0  0  1  0  0  0  0  0  0  0  0  0
   -1.4050   15.3100   -0.8320 C   0  0  0  0  0  0  0  0  0  0  0  0
   -3.1330   14.3050   -2.4060 C   0  0  0  0  0  0  0  0  0  0  0  0
   -0.1370   12.6790   -2.4730 C   0  0  0  0  0  0  0  0  0  0  0  0
   -4.1090   14.6040   -1.2410 C   0  0  0  0  0  0  0  0  0  0  0  0
   -2.3240   15.3490    0.1600 C   0  0  0  0  0  0  0  0  0  0  0  0
    0.1250   12.1310   -1.4200 O   0  0  0  0  0  0  0  0  0  0  0  0
   -0.3020   11.9490   -3.5880 O   0  0  0  0  0  0  0  0  0  0  0  0
   -5.5820   14.4170   -1.3290 C   0  0  0  0  0  0  0  0  0  0  0  0
   -3.7130   15.0520   -0.0450 C   0  0  0  0  0  0  0  0  0  0  0  0
   -6.1950   14.4650   -2.3880 O   0  0  0  0  0  0  0  0  0  0  0  0
   -6.2140   14.2200   -0.1290 N   0  0  0  0  0  0  0  0  0  0  0  0
   -4.5130   15.2500    1.0590 N   0  0  0  0  0  0  0  0  0  0  0  0
   -5.7310   14.7960    1.0010 C   0  0  0  0  0  0  0  0  0  0  0  0
   -6.5520   14.8760    2.0830 N   0  0  0  0  0  0  0  0  0  0  0  0
  2  1  1  0
  2  3  2  0
  2  4  2  0
  5  2  1  6
  5  6  1  0
  5  7  1  0
  6  8  2  0
  9  7  1  6
  8 10  1  0
  9 10  1  0
  9 11  1  0
  9 12  1  0
 10 13  1  6
 12 14  1  0
 11 15  2  0
 13 16  2  0
 13 17  1  0
 14 18  1  0
 14 19  2  0
 15 19  1  0
 18 20  2  0
 18 21  1  0
 19 22  1  0
 21 23  1  0
 22 23  2  0
 23 24  1  0
M  END
