mac-x0375-diamond-x0421_0_A
     RDKit          3D

 24 26  0  0  0  0  0  0  0  0999 V2000
    1.7630   12.9070   -2.6530 O   0  0  0  0  0  0  0  0  0  0  0  0
    0.7280   12.4400   -3.4970 C   0  0  0  0  0  0  0  0  0  0  0  0
    0.5780   11.0550   -3.1940 O   0  0  0  0  0  0  0  0  0  0  0  0
    1.0860   12.6650   -4.9980 C   0  0  0  0  0  0  0  0  0  0  0  0
   -0.5820   13.1840   -3.2620 C   0  0  0  0  0  0  0  0  0  0  0  0
    0.9040   11.5060   -5.8420 O   0  0  0  0  0  0  0  0  0  0  0  0
   -0.7950   14.1950   -2.1300 C   0  0  0  0  0  0  0  0  0  0  0  0
   -2.0270   14.8020   -2.6090 N   0  0  0  0  0  0  0  0  0  0  0  0
   -0.2850   10.8140   -5.9960 C   0  0  0  0  0  0  0  0  0  0  0  0
   -3.1330   15.0980   -2.0160 C   0  0  0  0  0  0  0  0  0  0  0  0
   -0.3750    9.5630   -6.6160 C   0  0  0  0  0  0  0  0  0  0  0  0
   -1.4600   11.3970   -5.5090 C   0  0  0  0  0  0  0  0  0  0  0  0
   -4.2030   15.6270   -2.6530 N   0  0  0  0  0  0  0  0  0  0  0  0
   -1.5930    8.9070   -6.7440 C   0  0  0  0  0  0  0  0  0  0  0  0
   -2.6860   10.7350   -5.6420 C   0  0  0  0  0  0  0  0  0  0  0  0
   -3.5110   14.9530   -0.6070 C   0  0  0  0  0  0  0  0  0  0  0  0
   -2.7550    9.4920   -6.2550 C   0  0  0  0  0  0  0  0  0  0  0  0
   -2.7690   14.9160    0.5660 C   0  0  0  0  0  0  0  0  0  0  0  0
   -4.8620   14.8400   -0.3130 N   0  0  0  0  0  0  0  0  0  0  0  0
   -3.7060   14.7890    1.5670 N   0  0  0  0  0  0  0  0  0  0  0  0
   -4.9380   14.7470    0.9840 C   0  0  0  0  0  0  0  0  0  0  0  0
   -6.2720   14.6060    1.7650 C   0  0  0  0  0  0  0  0  0  0  0  0
   -7.5820   14.6600    1.0200 C   0  0  0  0  0  0  0  0  0  0  0  0
   -7.0890   13.3600    1.5790 C   0  0  0  0  0  0  0  0  0  0  0  0
  2  1  1  0
  2  3  1  0
  2  4  1  0
  2  5  1  0
  4  6  1  0
  5  7  1  0
  7  8  1  0
  6  9  1  0
  8 10  2  3
  9 11  2  0
  9 12  1  0
 10 13  1  0
 11 14  1  0
 12 15  2  0
 10 16  1  0
 14 17  2  0
 15 17  1  0
 16 18  2  0
 16 19  1  0
 18 20  1  0
 19 21  2  0
 20 21  1  0
 21 22  1  0
 22 23  1  0
 22 24  1  0
 23 24  1  0
M  END
