mac-x0354-diamond-x0766_0_A
     RDKit          3D

 25 28  0  0  0  0  0  0  0  0999 V2000
    0.8180   10.8500   -8.3880 C   0  0  0  0  0  0  0  0  0  0  0  0
    1.0400   11.3940   -7.0650 N   0  0  0  0  0  0  0  0  0  0  0  0
    2.0320   12.2520   -6.8300 N   0  0  0  0  0  0  0  0  0  0  0  0
    0.3180   11.1250   -5.9550 C   0  0  0  0  0  0  0  0  0  0  0  0
    1.9620   12.5510   -5.5660 C   0  0  0  0  0  0  0  0  0  0  0  0
    0.9050   11.8810   -4.9510 C   0  0  0  0  0  0  0  0  0  0  0  0
   -0.8020   10.2130   -5.9710 C   0  0  0  0  0  0  0  0  0  0  0  0
    0.5600   12.0330   -3.5340 C   0  0  0  0  0  0  0  0  0  0  0  0
   -0.6260    8.9450   -6.5400 C   0  0  0  0  0  0  0  0  0  0  0  0
   -2.0370   10.5680   -5.4370 C   0  0  0  0  0  0  0  0  0  0  0  0
    1.6550   12.3090   -2.6760 O   0  0  0  0  0  0  0  0  0  0  0  0
   -0.1610   10.9330   -2.9870 O   0  0  0  0  0  0  0  0  0  0  0  0
   -1.6810    8.0390   -6.5720 C   0  0  0  0  0  0  0  0  0  0  0  0
   -3.0930    9.6600   -5.4700 C   0  0  0  0  0  0  0  0  0  0  0  0
   -0.2820   13.2900   -3.7800 C   0  0  2  0  0  0  0  0  0  0  0  0
   -2.9140    8.3980   -6.0370 C   0  0  0  0  0  0  0  0  0  0  0  0
    0.1960   13.9860   -5.0810 C   0  0  0  0  0  0  0  0  0  0  0  0
   -0.1650   14.4140   -2.7430 C   0  0  1  0  0  0  0  0  0  0  0  0
    1.1630   15.0490   -4.6040 C   0  0  0  0  0  0  0  0  0  0  0  0
    0.3050   15.6500   -3.5270 C   0  0  0  0  0  0  0  0  0  0  0  0
   -1.4520   14.6070   -2.0080 C   0  0  0  0  0  0  0  0  0  0  0  0
   -2.7140   14.7830   -2.5540 C   0  0  0  0  0  0  0  0  0  0  0  0
   -1.5090   14.6300   -0.5790 C   0  0  0  0  0  0  0  0  0  0  0  0
   -2.7830   14.8220   -0.1020 C   0  0  0  0  0  0  0  0  0  0  0  0
   -3.9230   14.9770   -1.3650 S   0  0  0  0  0  0  0  0  0  0  0  0
  1  2  1  0
  2  3  1  0
  2  4  1  0
  3  5  2  0
  4  6  2  0
  5  6  1  0
  4  7  1  0
  6  8  1  0
  7  9  2  0
  7 10  1  0
  8 11  1  0
  8 12  1  0
  9 13  1  0
 10 14  2  0
 15  8  1  1
 13 16  2  0
 14 16  1  0
 15 17  1  0
 15 18  1  0
 17 19  1  0
 18 20  1  0
 19 20  1  0
 18 21  1  6
 21 22  2  0
 21 23  1  0
 23 24  2  0
 22 25  1  0
 24 25  1  0
M  END
