mac-x0387-diamond-x0849_0_A
     RDKit          3D

 16 18  0  0  0  0  0  0  0  0999 V2000
   -2.6240   16.0610    1.1340 N   0  0  0  0  0  0  0  0  0  0  0  0
   -2.5650   14.6660    0.9910 C   0  0  2  0  0  0  0  0  0  0  0  0
   -1.4400   14.1330    1.6730 N   0  0  0  0  0  0  0  0  0  0  0  0
   -2.4790   14.5280   -0.5380 C   0  0  1  0  0  0  0  0  0  0  0  0
   -3.8040   14.2690    1.4960 N   0  0  0  0  0  0  0  0  0  0  0  0
   -0.9880   14.4890   -1.0160 C   0  0  2  0  0  0  0  0  0  0  0  0
   -0.2050   14.5470    1.2810 C   0  0  0  0  0  0  0  0  0  0  0  0
   -3.0680   13.3850   -1.3510 C   0  0  0  0  0  0  0  0  0  0  0  0
   -3.5050   15.5530   -1.0580 C   0  0  1  0  0  0  0  0  0  0  0  0
   -4.8410   15.0010    1.0070 C   0  0  0  0  0  0  0  0  0  0  0  0
   -4.1990   15.2190   -2.8430 Br  0  0  0  0  0  0  0  0  0  0  0  0
    0.0900   14.7580   -0.0050 C   0  0  0  0  0  0  0  0  0  0  0  0
   -0.9520   15.0250   -2.4080 C   0  0  0  0  0  0  0  0  0  0  0  0
   -2.7430   13.3940   -2.6700 C   0  0  0  0  0  0  0  0  0  0  0  0
   -4.7540   15.6340   -0.1890 C   0  0  0  0  0  0  0  0  0  0  0  0
   -1.8620   14.4460   -3.2190 C   0  0  0  0  0  0  0  0  0  0  0  0
  2  1  1  6
  2  3  1  0
  2  4  1  0
  2  5  1  0
  4  6  1  0
  3  7  1  0
  4  8  1  1
  4  9  1  0
  5 10  1  0
  9 11  1  6
  6 12  1  1
  7 12  2  0
  6 13  1  0
  8 14  2  0
  9 15  1  0
 10 15  2  0
 13 16  2  0
 14 16  1  0
M  END
