mac-x0572-diamond-x0722_0_A
     RDKit          3D

 18 19  0  0  0  0  0  0  0  0999 V2000
   -7.9910   14.6360    3.2110 C   0  0  0  0  0  0  0  0  0  0  0  0
   -7.2030   14.7700    1.9400 C   0  0  0  0  0  0  0  0  0  0  0  0
   -5.8650   14.9040    2.0460 N   0  0  0  0  0  0  0  0  0  0  0  0
   -7.7930   14.7590    0.7000 C   0  0  0  0  0  0  0  0  0  0  0  0
   -9.1430   14.6170    0.5350 O   0  0  0  0  0  0  0  0  0  0  0  0
   -6.9650   14.8990   -0.4210 C   0  0  0  0  0  0  0  0  0  0  0  0
   -5.0700   15.0280    0.9600 C   0  0  0  0  0  0  0  0  0  0  0  0
   -7.5250   14.8680   -1.6700 N   0  0  0  0  0  0  0  0  0  0  0  0
   -5.5690   15.0430   -0.3100 C   0  0  0  0  0  0  0  0  0  0  0  0
   -3.7110   15.1360    1.1020 C   0  0  0  0  0  0  0  0  0  0  0  0
   -3.2000   15.0960    2.4240 C   0  0  0  0  0  0  0  0  0  0  0  0
   -6.9520   13.8780   -2.2170 C   0  0  0  0  0  0  0  0  0  0  0  0
   -2.7730   15.2640    0.0790 C   0  0  0  0  0  0  0  0  0  0  0  0
   -4.6640   15.1860   -1.4100 C   0  0  0  0  0  0  0  0  0  0  0  0
   -1.2810   15.3500    0.4160 C   0  0  0  0  0  0  0  0  0  0  0  0
   -6.0200   13.0510   -1.6480 N   0  0  0  0  0  0  0  0  0  0  0  0
   -3.2610   15.2960   -1.2190 C   0  0  0  0  0  0  0  0  0  0  0  0
   -2.3300   15.4270   -2.3850 C   0  0  0  0  0  0  0  0  0  0  0  0
  1  2  1  0
  2  3  2  0
  2  4  1  0
  4  5  1  0
  4  6  2  0
  3  7  1  0
  6  8  1  0
  6  9  1  0
  7  9  2  0
  7 10  1  0
 10 11  1  0
  8 12  2  3
 10 13  2  0
  9 14  1  0
 13 15  1  0
 12 16  1  0
 13 17  1  0
 14 17  2  0
 17 18  1  0
M  END
