mac-x0305-mac-x1494
     RDKit          3D

 16 17  0  0  0  0  0  0  0  0999 V2000
    0.2190   13.1820   -0.6660 O   0  0  0  0  0  0  0  0  0  0  0  0
   -0.4100   14.0430   -1.5010 C   0  0  0  0  0  0  0  0  0  0  0  0
    0.0800   14.3760   -2.5710 O   0  0  0  0  0  0  0  0  0  0  0  0
   -1.7190   14.5000   -0.9560 C   0  0  0  0  0  0  0  0  0  0  0  0
   -1.6930   14.6200    0.4020 C   0  0  0  0  0  0  0  0  0  0  0  0
   -2.8710   14.7760   -1.7620 N   0  0  0  0  0  0  0  0  0  0  0  0
   -0.6220   14.3770    1.2520 O   0  0  0  0  0  0  0  0  0  0  0  0
   -2.9460   15.0430    1.0770 C   0  0  0  0  0  0  0  0  0  0  0  0
   -4.0620   15.0830   -1.0390 C   0  0  0  0  0  0  0  0  0  0  0  0
   -3.0240   14.6950   -3.1790 C   0  0  0  0  0  0  0  0  0  0  0  0
   -3.0300   15.1910    2.2800 O   0  0  0  0  0  0  0  0  0  0  0  0
   -1.6730   14.4130   -4.2220 Cl  0  0  0  0  0  0  0  0  0  0  0  0
   -4.1380   15.2270    0.2680 C   0  0  0  0  0  0  0  0  0  0  0  0
   -5.3230   15.2260   -1.7220 C   0  0  0  0  0  0  0  0  0  0  0  0
   -4.2120   14.8350   -3.7940 C   0  0  0  0  0  0  0  0  0  0  0  0
   -5.4010   15.0880   -3.0290 C   0  0  0  0  0  0  0  0  0  0  0  0
  1  2  1  0
  2  3  2  0
  2  4  1  0
  4  5  2  0
  4  6  1  0
  5  7  1  0
  5  8  1  0
  6  9  1  0
  6 10  1  0
  8 11  2  0
 10 12  1  0
  8 13  1  0
  9 13  2  0
  9 14  1  0
 10 15  2  0
 14 16  2  0
 15 16  1  0
M  END
