mac-x0565-mac-x0139
     RDKit          3D

 27 30  0  0  0  0  0  0  0  0999 V2000
   -5.4400   14.2020    0.5300 O   0  0  0  0  0  0  0  0  0  0  0  0
   -6.1110   14.3230   -0.6360 C   0  0  0  0  0  0  0  0  0  0  0  0
   -7.3310   14.3380   -0.7080 O   0  0  0  0  0  0  0  0  0  0  0  0
   -5.2200   14.4470   -1.8290 C   0  0  0  0  0  0  0  0  0  0  0  0
   -3.8140   14.3920   -1.6900 C   0  0  0  0  0  0  0  0  0  0  0  0
   -5.7940   14.6200   -3.0980 C   0  0  0  0  0  0  0  0  0  0  0  0
   -3.0200   14.5300   -2.8400 C   0  0  0  0  0  0  0  0  0  0  0  0
   -4.9870   14.7450   -4.2260 C   0  0  0  0  0  0  0  0  0  0  0  0
   -3.6280   14.7040   -4.0670 C   0  0  0  0  0  0  0  0  0  0  0  0
   -1.6060   14.5260   -3.0000 N   0  0  0  0  0  0  0  0  0  0  0  0
   -2.7430   14.8310   -5.0970 O   0  0  0  0  0  0  0  0  0  0  0  0
   -1.4550   14.7230   -4.4440 C   0  0  0  0  0  0  0  0  0  0  0  0
   -0.7090   15.1110   -2.1310 N   0  0  0  0  0  0  0  0  0  0  0  0
    0.6680   15.1110   -2.6890 C   0  0  0  0  0  0  0  0  0  0  0  0
   -0.9760   15.0110   -0.7570 C   0  0  0  0  0  0  0  0  0  0  0  0
    0.9450   14.0580   -3.7660 C   0  0  0  0  0  0  0  0  0  0  0  0
   -2.1800   15.3520   -0.2820 C   0  0  0  0  0  0  0  0  0  0  0  0
    0.0210   14.5300    0.0900 N   0  0  0  0  0  0  0  0  0  0  0  0
    1.2560   12.7070   -3.1950 C   0  0  0  0  0  0  0  0  0  0  0  0
   -2.4440   15.1750    1.1500 C   0  0  0  0  0  0  0  0  0  0  0  0
   -0.2800   14.3910    1.3450 C   0  0  0  0  0  0  0  0  0  0  0  0
   -3.4010   15.8620   -0.7770 C   0  0  0  0  0  0  0  0  0  0  0  0
    1.8880   12.4640   -2.1930 O   0  0  0  0  0  0  0  0  0  0  0  0
    0.7520   11.6970   -3.9300 O   0  0  0  0  0  0  0  0  0  0  0  0
   -1.4700   14.6760    1.9100 N   0  0  0  0  0  0  0  0  0  0  0  0
   -3.6450   15.5310    1.4780 N   0  0  0  0  0  0  0  0  0  0  0  0
   -4.1990   15.9390    0.2840 C   0  0  0  0  0  0  0  0  0  0  0  0
  1  2  1  0
  2  3  2  0
  2  4  1  0
  4  5  2  0
  4  6  1  0
  5  7  1  0
  6  8  2  0
  7  9  2  0
  8  9  1  0
  7 10  1  0
  9 11  1  0
 10 12  1  0
 11 12  1  0
 10 13  1  0
 13 14  1  0
 13 15  1  0
 14 16  1  0
 15 17  2  0
 15 18  1  0
 16 19  1  0
 17 20  1  0
 18 21  2  0
 17 22  1  0
 19 23  2  0
 19 24  1  0
 20 25  1  0
 21 25  1  0
 20 26  2  0
 22 27  2  0
 26 27  1  0
M  END
