mac-x0263-diamond-x0685_1_A
     RDKit          3D

 30 32  0  0  0  0  0  0  0  0999 V2000
  -11.5060   14.3170    2.4750 O   0  0  0  0  0  0  0  0  0  0  0  0
  -10.7800   15.4140    2.7610 C   0  0  0  0  0  0  0  0  0  0  0  0
  -11.1980   16.2130    3.5840 O   0  0  0  0  0  0  0  0  0  0  0  0
   -9.4890   15.5570    2.0060 C   0  0  0  0  0  0  0  0  0  0  0  0
   -8.8780   14.2690    1.4590 C   0  0  0  0  0  0  0  0  0  0  0  0
   -7.5400   14.5640    0.8860 C   0  0  0  0  0  0  0  0  0  0  0  0
   -7.3330   14.8790   -0.4370 N   0  0  0  0  0  0  0  0  0  0  0  0
   -6.4090   14.5760    1.5450 N   0  0  0  0  0  0  0  0  0  0  0  0
   -5.9940   15.1090   -0.6160 C   0  0  0  0  0  0  0  0  0  0  0  0
   -5.4390   14.9140    0.6390 C   0  0  0  0  0  0  0  0  0  0  0  0
   -5.2370   15.4630   -1.7290 C   0  0  0  0  0  0  0  0  0  0  0  0
   -4.0580   15.0740    0.8220 C   0  0  0  0  0  0  0  0  0  0  0  0
   -3.8540   15.6190   -1.5310 C   0  0  0  0  0  0  0  0  0  0  0  0
   -3.2560   15.4300   -0.2740 C   0  0  0  0  0  0  0  0  0  0  0  0
   -1.7620   15.5940   -0.0710 C   0  0  0  0  0  0  0  0  0  0  0  0
   -1.0290   14.2720    0.1980 C   0  0  0  0  0  0  0  0  0  0  0  0
    0.2680   14.0970   -0.5900 C   0  0  0  0  0  0  0  0  0  0  0  0
   -0.0140   13.7080   -1.9360 O   0  0  0  0  0  0  0  0  0  0  0  0
    0.6620   12.3910   -2.5730 S   0  0  0  0  0  0  0  0  0  0  0  0
    0.1050   12.3280   -4.2700 C   0  0  0  0  0  0  0  0  0  0  0  0
    2.2560   12.5050   -2.6960 O   0  0  0  0  0  0  0  0  0  0  0  0
    0.2340   11.0420   -1.8000 O   0  0  0  0  0  0  0  0  0  0  0  0
   -1.3650   11.9440   -4.4030 C   0  0  0  0  0  0  0  0  0  0  0  0
   -1.5100   10.5670   -4.9160 N   0  0  0  0  0  0  0  0  0  0  0  0
   -0.8170   10.3290   -6.2010 C   0  0  0  0  0  0  0  0  0  0  0  0
   -0.5910    8.8250   -6.4510 C   0  0  0  0  0  0  0  0  0  0  0  0
   -1.6280   10.9790   -7.3430 C   0  0  0  0  0  0  0  0  0  0  0  0
    0.0770    8.5780   -7.7960 C   0  0  0  0  0  0  0  0  0  0  0  0
   -1.0150   10.7040   -8.7150 C   0  0  0  0  0  0  0  0  0  0  0  0
   -0.7420    9.2120   -8.9250 C   0  0  0  0  0  0  0  0  0  0  0  0
  1  2  1  0
  2  3  2  0
  2  4  1  0
  4  5  1  0
  5  6  1  0
  6  7  1  0
  6  8  2  0
  7  9  1  0
  8 10  1  0
  9 10  2  0
  9 11  1  0
 10 12  1  0
 11 13  2  0
 12 14  2  0
 13 14  1  0
 14 15  1  0
 15 16  1  0
 16 17  1  0
 17 18  1  0
 19 18  1  0
 19 20  1  0
 19 21  1  0
 19 22  1  0
 20 23  1  0
 23 24  1  0
 24 25  1  0
 25 26  1  0
 25 27  1  0
 26 28  1  0
 27 29  1  0
 28 30  1  0
 29 30  1  0
M  END
