mac-x0213-diamond-x0950_0_A
     RDKit          3D

 15 16  0  0  0  0  0  0  0  0999 V2000
   -0.4200   11.8190   -3.3870 O   0  0  0  0  0  0  0  0  0  0  0  0
    0.5130   12.9060   -3.2670 C   0  0  0  0  0  0  0  0  0  0  0  0
    1.2200   12.7170   -2.0450 O   0  0  0  0  0  0  0  0  0  0  0  0
    1.4920   12.8020   -4.4640 C   0  0  1  0  0  0  0  0  0  0  0  0
   -0.1890   14.2550   -3.2330 C   0  0  0  0  0  0  0  0  0  0  0  0
    2.9700   12.8150   -4.1230 C   0  0  0  0  0  0  0  0  0  0  0  0
    1.1290   11.7820   -5.3870 O   0  0  0  0  0  0  0  0  0  0  0  0
   -1.5030   14.3980   -4.0310 C   0  0  0  0  0  0  0  0  0  0  0  0
    0.7730   15.3690   -3.6820 C   0  0  0  0  0  0  0  0  0  0  0  0
   -1.3630   15.7530   -4.6500 C   0  0  0  0  0  0  0  0  0  0  0  0
   -0.0910   16.2850   -4.4560 C   0  0  0  0  0  0  0  0  0  0  0  0
   -2.3260   16.4640   -5.3450 C   0  0  0  0  0  0  0  0  0  0  0  0
    0.2620   17.5240   -4.9470 C   0  0  0  0  0  0  0  0  0  0  0  0
   -1.9830   17.7230   -5.8470 C   0  0  0  0  0  0  0  0  0  0  0  0
   -0.6980   18.2460   -5.6500 C   0  0  0  0  0  0  0  0  0  0  0  0
  2  1  1  0
  2  3  1  0
  2  4  1  0
  2  5  1  0
  4  6  1  1
  4  7  1  0
  5  8  1  0
  5  9  1  0
  8 10  1  0
  9 11  1  0
 10 11  2  0
 10 12  1  0
 11 13  1  0
 12 14  2  0
 13 15  2  0
 14 15  1  0
M  END
