mac-x0568-mac-x0213
     RDKit          3D

 24 26  0  0  0  0  0  0  0  0999 V2000
   -8.6730   14.5850    1.1320 C   0  0  0  0  0  0  0  0  0  0  0  0
   -7.2640   14.6800    0.6330 C   0  0  0  0  0  0  0  0  0  0  0  0
   -6.2160   14.6010    1.5340 C   0  0  0  0  0  0  0  0  0  0  0  0
   -7.0680   14.8480   -0.6980 N   0  0  0  0  0  0  0  0  0  0  0  0
   -5.7770   14.9360   -1.1370 C   0  0  0  0  0  0  0  0  0  0  0  0
   -4.9070   14.6920    1.0620 C   0  0  0  0  0  0  0  0  0  0  0  0
   -4.6720   14.8600   -0.2950 C   0  0  0  0  0  0  0  0  0  0  0  0
   -3.2590   14.9340   -0.7410 C   0  0  0  0  0  0  0  0  0  0  0  0
   -2.9970   15.1890   -1.9120 O   0  0  0  0  0  0  0  0  0  0  0  0
   -2.3500   14.6640    0.2930 N   0  0  0  0  0  0  0  0  0  0  0  0
   -0.8780   14.7410    0.2730 C   0  0  0  0  0  0  0  0  0  0  0  0
   -0.2250   13.5430   -0.4120 C   0  0  0  0  0  0  0  0  0  0  0  0
   -0.0370   13.9220   -1.7980 N   0  0  0  0  0  0  0  0  0  0  0  0
    0.1070   13.0970   -2.7520 C   0  0  0  0  0  0  0  0  0  0  0  0
    0.1390   11.7480   -2.6230 O   0  0  0  0  0  0  0  0  0  0  0  0
    0.2010   13.6550   -4.1530 C   0  0  0  0  0  0  0  0  0  0  0  0
   -1.2310   14.0600   -4.5810 C   0  0  0  0  0  0  0  0  0  0  0  0
    1.0790   14.9370   -4.1520 C   0  0  0  0  0  0  0  0  0  0  0  0
   -1.1330   15.5220   -4.8820 C   0  0  0  0  0  0  0  0  0  0  0  0
    0.1540   16.0120   -4.6510 C   0  0  0  0  0  0  0  0  0  0  0  0
   -2.1480   16.3520   -5.3420 C   0  0  0  0  0  0  0  0  0  0  0  0
    0.4530   17.3450   -4.8830 C   0  0  0  0  0  0  0  0  0  0  0  0
   -1.8480   17.6920   -5.5790 C   0  0  0  0  0  0  0  0  0  0  0  0
   -0.5600   18.1800   -5.3520 C   0  0  0  0  0  0  0  0  0  0  0  0
  1  2  1  0
  2  3  2  0
  2  4  1  0
  4  5  2  0
  3  6  1  0
  5  7  1  0
  6  7  2  0
  7  8  1  0
  8  9  2  0
  8 10  1  0
 10 11  1  0
 11 12  1  0
 12 13  1  0
 13 14  2  3
 14 15  1  0
 14 16  1  0
 16 17  1  0
 16 18  1  0
 17 19  1  0
 18 20  1  0
 19 20  2  0
 19 21  1  0
 20 22  1  0
 21 23  2  0
 22 24  2  0
 23 24  1  0
M  END
