mac-x0284-diamond-x0626_0_A
     RDKit          3D

 21 22  0  0  0  0  0  0  0  0999 V2000
   -4.6340   15.3790   -0.1070 C   0  0  2  0  0  0  0  0  0  0  0  0
   -5.9660   14.6700    0.1970 C   0  0  0  0  0  0  0  0  0  0  0  0
   -6.6500   14.2450   -0.7390 O   0  0  0  0  0  0  0  0  0  0  0  0
   -4.1720   15.2370   -1.5510 C   0  0  0  0  0  0  0  0  0  0  0  0
   -3.3520   14.7320    0.2290 C   0  0  0  0  0  0  0  0  0  0  0  0
   -6.5020   14.4730    1.6040 C   0  0  0  0  0  0  0  0  0  0  0  0
   -2.7590   15.1000   -1.6700 C   0  0  0  0  0  0  0  0  0  0  0  0
   -4.9170   15.1910   -2.7160 C   0  0  0  0  0  0  0  0  0  0  0  0
   -2.4480   15.0010    1.1490 N   0  0  0  0  0  0  0  0  0  0  0  0
   -3.0120   13.4600   -0.8740 S   0  0  0  0  0  0  0  0  0  0  0  0
   -8.0160   14.6340    1.6120 C   0  0  0  0  0  0  0  0  0  0  0  0
   -2.0930   14.9130   -2.8830 C   0  0  0  0  0  0  0  0  0  0  0  0
   -4.2620   15.0070   -3.9500 C   0  0  0  0  0  0  0  0  0  0  0  0
   -1.5290   13.2780   -0.1350 C   0  0  0  0  0  0  0  0  0  0  0  0
   -1.3840   14.1370    0.9050 C   0  0  0  0  0  0  0  0  0  0  0  0
   -0.5930   14.7680   -2.8480 C   0  0  0  0  0  0  0  0  0  0  0  0
   -0.1540   14.1240    1.6810 C   0  0  0  0  0  0  0  0  0  0  0  0
   -2.8670   14.8710   -4.0280 C   0  0  0  0  0  0  0  0  0  0  0  0
   -2.2640   14.6900   -5.2490 O   0  0  0  0  0  0  0  0  0  0  0  0
    0.0450   14.7900   -1.8040 O   0  0  0  0  0  0  0  0  0  0  0  0
    0.0130   14.6090   -4.0390 O   0  0  0  0  0  0  0  0  0  0  0  0
  1  2  1  6
  2  3  2  0
  1  4  1  0
  1  5  1  0
  2  6  1  0
  4  7  2  0
  4  8  1  0
  5  9  2  0
  5 10  1  0
  6 11  1  0
  7 12  1  0
  8 13  2  0
 10 14  1  0
  9 15  1  0
 14 15  2  0
 12 16  1  0
 15 17  1  0
 12 18  2  0
 13 18  1  0
 18 19  1  0
 16 20  2  0
 16 21  1  0
M  END
