mac-x0436-mac-x0321
     RDKit          3D

 27 29  0  0  0  0  0  0  0  0999 V2000
    0.7240   11.1350   -3.0100 O   0  0  0  0  0  0  0  0  0  0  0  0
    1.2810   12.3650   -3.0090 C   0  0  0  0  0  0  0  0  0  0  0  0
    1.5010   12.9410   -1.9600 O   0  0  0  0  0  0  0  0  0  0  0  0
    1.5940   12.9210   -4.3860 C   0  0  0  0  0  0  0  0  0  0  0  0
    0.3570   13.2140   -5.2440 C   0  0  0  0  0  0  0  0  0  0  0  0
   -0.4170   11.9750   -5.6470 C   0  0  0  0  0  0  0  0  0  0  0  0
   -1.8360   11.6780   -5.1090 C   0  0  0  0  0  0  0  0  0  0  0  0
    0.1420   11.1400   -6.4810 N   0  0  0  0  0  0  0  0  0  0  0  0
   -2.7440   12.5180   -4.7550 N   0  0  0  0  0  0  0  0  0  0  0  0
   -2.1560   10.3410   -5.0280 N   0  0  0  0  0  0  0  0  0  0  0  0
   -0.5880    9.9930   -6.8520 C   0  0  0  0  0  0  0  0  0  0  0  0
   -2.5820   13.9510   -4.8100 C   0  0  0  0  0  0  0  0  0  0  0  0
   -1.7370    9.5780   -6.1430 C   0  0  0  0  0  0  0  0  0  0  0  0
   -0.1550    9.2550   -7.9520 C   0  0  0  0  0  0  0  0  0  0  0  0
   -1.5760   14.2970   -3.8390 N   0  0  0  0  0  0  0  0  0  0  0  0
   -0.8560    8.1160   -8.3490 C   0  0  0  0  0  0  0  0  0  0  0  0
   -2.4360    8.4360   -6.5430 C   0  0  0  0  0  0  0  0  0  0  0  0
   -1.8920   14.7070   -2.6820 C   0  0  0  0  0  0  0  0  0  0  0  0
   -1.9910    7.7060   -7.6510 C   0  0  0  0  0  0  0  0  0  0  0  0
   -0.8640   14.9770   -1.8610 O   0  0  0  0  0  0  0  0  0  0  0  0
   -3.1650   14.9630   -2.0130 C   0  0  0  0  0  0  0  0  0  0  0  0
   -3.2010   15.0960   -0.6360 C   0  0  0  0  0  0  0  0  0  0  0  0
   -4.3410   15.0770   -2.7660 C   0  0  0  0  0  0  0  0  0  0  0  0
   -4.4050   15.3480   -0.0160 C   0  0  0  0  0  0  0  0  0  0  0  0
   -5.5510   15.3250   -2.1290 C   0  0  0  0  0  0  0  0  0  0  0  0
   -4.4110   15.5170    1.6770 Cl  0  0  0  0  0  0  0  0  0  0  0  0
   -5.5870   15.4640   -0.7500 C   0  0  0  0  0  0  0  0  0  0  0  0
  1  2  1  0
  2  3  2  0
  2  4  1  0
  4  5  1  0
  5  6  1  0
  6  7  1  0
  6  8  2  0
  7  9  2  3
  7 10  1  0
  8 11  1  0
  9 12  1  0
 10 13  1  0
 11 13  2  0
 11 14  1  0
 12 15  1  0
 14 16  2  0
 13 17  1  0
 15 18  2  3
 16 19  1  0
 17 19  2  0
 18 20  1  0
 18 21  1  0
 21 22  2  0
 21 23  1  0
 22 24  1  0
 23 25  2  0
 24 26  1  0
 24 27  2  0
 25 27  1  0
M  END
