mac-x0398-mac-x0226
     RDKit          3D

 27 29  0  0  0  0  0  0  0  0999 V2000
   -6.3760   14.8200    2.1030 N   0  0  0  0  0  0  0  0  0  0  0  0
   -5.5990   14.9070    0.9470 C   0  0  0  0  0  0  0  0  0  0  0  0
   -4.2030   14.8780    1.0140 C   0  0  0  0  0  0  0  0  0  0  0  0
   -6.2150   15.0240   -0.2990 C   0  0  0  0  0  0  0  0  0  0  0  0
   -5.4550   15.1080   -1.4570 C   0  0  0  0  0  0  0  0  0  0  0  0
   -3.4320   14.9610   -0.1490 C   0  0  0  0  0  0  0  0  0  0  0  0
   -6.1590   15.2190   -2.6260 O   0  0  0  0  0  0  0  0  0  0  0  0
   -4.0610   15.0750   -1.4010 C   0  0  0  0  0  0  0  0  0  0  0  0
   -3.3010   15.1560   -2.6720 C   0  0  0  0  0  0  0  0  0  0  0  0
   -3.8550   15.3020   -3.7540 O   0  0  0  0  0  0  0  0  0  0  0  0
   -1.9690   15.0520   -2.4790 O   0  0  0  0  0  0  0  0  0  0  0  0
   -1.4730   13.7440   -2.1420 C   0  0  0  0  0  0  0  0  0  0  0  0
    0.0400   13.8400   -1.9290 C   0  0  0  0  0  0  0  0  0  0  0  0
    0.6300   12.5400   -1.6940 O   0  0  0  0  0  0  0  0  0  0  0  0
    0.3580   11.5170   -2.5630 C   0  0  0  0  0  0  0  0  0  0  0  0
   -0.0400   10.4200   -2.1910 O   0  0  0  0  0  0  0  0  0  0  0  0
    0.6080   11.7490   -3.9830 C   0  0  0  0  0  0  0  0  0  0  0  0
    1.3890   12.6970   -4.6920 C   0  0  0  0  0  0  0  0  0  0  0  0
    0.0700   10.9710   -4.9900 C   0  0  0  0  0  0  0  0  0  0  0  0
    1.3470   12.5120   -6.0190 N   0  0  0  0  0  0  0  0  0  0  0  0
    0.5320   11.4370   -6.1940 N   0  0  0  0  0  0  0  0  0  0  0  0
    0.2390   10.8950   -7.4760 C   0  0  0  0  0  0  0  0  0  0  0  0
   -1.0020   10.3060   -7.7350 C   0  0  0  0  0  0  0  0  0  0  0  0
    1.2050   10.9410   -8.4870 C   0  0  0  0  0  0  0  0  0  0  0  0
   -1.2730    9.7720   -9.0000 C   0  0  0  0  0  0  0  0  0  0  0  0
    0.9320   10.4110   -9.7490 C   0  0  0  0  0  0  0  0  0  0  0  0
   -0.3090    9.8260  -10.0030 C   0  0  0  0  0  0  0  0  0  0  0  0
  1  2  1  0
  2  3  2  0
  2  4  1  0
  4  5  2  0
  3  6  1  0
  5  7  1  0
  5  8  1  0
  6  8  2  0
  8  9  1  0
  9 10  2  0
  9 11  1  0
 11 12  1  0
 12 13  1  0
 13 14  1  0
 14 15  1  0
 15 16  2  0
 15 17  1  0
 17 18  1  0
 17 19  2  0
 18 20  2  0
 19 21  1  0
 20 21  1  0
 21 22  1  0
 22 23  2  0
 22 24  1  0
 23 25  1  0
 24 26  2  0
 25 27  2  0
 26 27  1  0
M  END
