mac-x0148-mac-x0204
     RDKit          3D

 22 25  0  0  0  0  0  0  0  0999 V2000
    1.0400   13.8400   -2.4880 O   0  0  0  0  0  0  0  0  0  0  0  0
    0.3890   14.8440   -3.1500 C   0  0  0  0  0  0  0  0  0  0  0  0
    0.8870   15.9360   -3.2860 O   0  0  0  0  0  0  0  0  0  0  0  0
   -1.0010   14.3660   -3.6130 C   0  0  1  0  0  0  0  0  0  0  0  0
   -2.0300   15.4860   -3.9130 C   0  0  0  0  0  0  0  0  0  0  0  0
   -0.9180   13.7040   -5.0200 C   0  0  2  0  0  0  0  0  0  0  0  0
   -1.3510   13.5040   -2.4270 N   0  0  0  0  0  0  0  0  0  0  0  0
   -2.3730   13.7190   -5.5020 C   0  0  0  0  0  0  0  0  0  0  0  0
   -2.9090   15.0040   -5.0080 N   0  0  0  0  0  0  0  0  0  0  0  0
   -0.3600   12.2780   -5.0160 C   0  0  0  0  0  0  0  0  0  0  0  0
   -0.9120   12.0990   -2.5410 C   0  0  0  0  0  0  0  0  0  0  0  0
   -1.4510   14.0460   -1.1230 C   0  0  0  0  0  0  0  0  0  0  0  0
   -2.8260   15.9960   -6.0630 O   0  0  0  0  0  0  0  0  0  0  0  0
    0.0790   11.8150   -3.6460 C   0  0  0  0  0  0  0  0  0  0  0  0
   -0.3570   14.0410   -0.2590 N   0  0  0  0  0  0  0  0  0  0  0  0
   -2.5660   14.5810   -0.6080 C   0  0  0  0  0  0  0  0  0  0  0  0
   -0.4700   14.4610    1.0460 C   0  0  0  0  0  0  0  0  0  0  0  0
   -2.5890   15.0580    0.7960 C   0  0  0  0  0  0  0  0  0  0  0  0
   -3.8930   14.8480   -1.0480 C   0  0  0  0  0  0  0  0  0  0  0  0
   -1.5100   14.9590    1.6070 N   0  0  0  0  0  0  0  0  0  0  0  0
   -3.7430   15.5370    1.1410 N   0  0  0  0  0  0  0  0  0  0  0  0
   -4.5120   15.4020   -0.0010 C   0  0  0  0  0  0  0  0  0  0  0  0
  1  2  1  0
  2  3  2  0
  4  2  1  1
  4  5  1  0
  4  6  1  0
  4  7  1  0
  6  8  1  1
  5  9  1  0
  8  9  1  0
  6 10  1  0
  7 11  1  0
  7 12  1  0
  9 13  1  0
 10 14  1  0
 11 14  1  0
 12 15  1  0
 12 16  2  0
 15 17  1  0
 16 18  1  0
 16 19  1  0
 17 20  2  0
 18 20  1  0
 18 21  2  0
 19 22  2  0
 21 22  1  0
M  END
