mac-x0137-diamond-x0926_0_A
     RDKit          3D

 17 19  0  0  0  0  0  0  0  0999 V2000
   -2.8530   12.7390   -3.8330 F   0  0  0  0  0  0  0  0  0  0  0  0
   -1.8500   13.3930   -4.4770 C   0  0  2  0  0  0  0  0  0  0  0  0
   -0.7020   12.4120   -4.7120 C   0  0  0  0  0  0  0  0  0  0  0  0
   -1.4460   14.6180   -3.6400 C   0  0  0  0  0  0  0  0  0  0  0  0
   -0.6140   14.2550   -2.4710 N   0  0  0  0  0  0  0  0  0  0  0  0
    0.0240   12.0890   -3.4130 C   0  0  0  0  0  0  0  0  0  0  0  0
    0.5280   13.3650   -2.7540 C   0  0  0  0  0  0  0  0  0  0  0  0
   -1.0030   14.4640   -1.1420 C   0  0  0  0  0  0  0  0  0  0  0  0
   -0.0940   14.3750   -0.2170 N   0  0  0  0  0  0  0  0  0  0  0  0
   -2.3700   14.7790   -0.7040 C   0  0  0  0  0  0  0  0  0  0  0  0
   -0.4320   14.5630    1.1010 C   0  0  0  0  0  0  0  0  0  0  0  0
   -2.6270   14.9680    0.7010 C   0  0  0  0  0  0  0  0  0  0  0  0
   -3.5610   14.9760   -1.2720 C   0  0  0  0  0  0  0  0  0  0  0  0
   -1.5980   14.8430    1.5730 N   0  0  0  0  0  0  0  0  0  0  0  0
   -3.8410   15.2590    1.0150 N   0  0  0  0  0  0  0  0  0  0  0  0
   -4.5170   15.2560   -0.1840 C   0  0  0  0  0  0  0  0  0  0  0  0
   -5.7200   15.4190   -0.3850 O   0  0  0  0  0  0  0  0  0  0  0  0
  2  1  1  1
  2  3  1  0
  2  4  1  0
  4  5  1  0
  3  6  1  0
  5  7  1  0
  6  7  1  0
  5  8  1  0
  8  9  2  0
  8 10  1  0
  9 11  1  0
 10 12  1  0
 10 13  2  0
 11 14  2  0
 12 14  1  0
 12 15  2  0
 13 16  1  0
 15 16  1  0
 16 17  2  0
M  END
