mac-x0344-diamond-x0910_0_A
     RDKit          3D

 21 22  0  0  0  0  0  0  0  0999 V2000
    1.3640   13.5190   -4.6970 O   0  0  0  0  0  0  0  0  0  0  0  0
    0.9830   12.7260   -3.6830 C   0  0  0  0  0  0  0  0  0  0  0  0
    1.1750   13.1550   -2.5120 N   0  0  0  0  0  0  0  0  0  0  0  0
    0.3520   11.4160   -4.1340 C   0  0  0  0  0  0  0  0  0  0  0  0
    0.1000   10.5470   -3.3160 O   0  0  0  0  0  0  0  0  0  0  0  0
    0.1120   11.3890   -5.4870 N   0  0  0  0  0  0  0  0  0  0  0  0
    1.7180   14.4790   -2.4050 C   0  0  0  0  0  0  0  0  0  0  0  0
    0.5280   15.4370   -2.5660 C   0  0  0  0  0  0  0  0  0  0  0  0
   -0.7910   10.5210   -6.1000 C   0  0  0  0  0  0  0  0  0  0  0  0
   -0.7890   14.7800   -3.0570 C   0  0  0  0  0  0  0  0  0  0  0  0
   -0.4230    9.9620   -7.3260 C   0  0  0  0  0  0  0  0  0  0  0  0
   -2.0250   10.1950   -5.5390 C   0  0  0  0  0  0  0  0  0  0  0  0
   -1.8120   14.6720   -2.0010 N   0  0  0  0  0  0  0  0  0  0  0  0
   -1.2880    9.0810   -7.9810 C   0  0  0  0  0  0  0  0  0  0  0  0
   -2.8890    9.3160   -6.1920 C   0  0  0  0  0  0  0  0  0  0  0  0
   -2.5190    8.7580   -7.4140 C   0  0  0  0  0  0  0  0  0  0  0  0
   -1.3880   14.6840   -0.7220 C   0  0  0  0  0  0  0  0  0  0  0  0
   -2.2350   14.8180    0.3460 N   0  0  0  0  0  0  0  0  0  0  0  0
   -0.1640   14.5820   -0.2810 N   0  0  0  0  0  0  0  0  0  0  0  0
   -1.5550   14.8050    1.5020 N   0  0  0  0  0  0  0  0  0  0  0  0
   -0.3090   14.6620    1.0650 C   0  0  0  0  0  0  0  0  0  0  0  0
  1  2  1  0
  2  3  2  3
  2  4  1  0
  4  5  2  0
  4  6  1  0
  3  7  1  0
  7  8  1  0
  6  9  1  0
  8 10  1  0
  9 11  2  0
  9 12  1  0
 10 13  1  0
 11 14  1  0
 12 15  2  0
 14 16  2  0
 15 16  1  0
 13 17  1  0
 17 18  1  0
 17 19  2  0
 18 20  1  0
 19 21  1  0
 20 21  2  0
M  END
