mac-x0303-diamond-x0962_0_A
     RDKit          3D

 14 15  0  0  0  0  0  0  0  0999 V2000
   -8.4020   13.0030    2.7250 N   0  0  0  0  0  0  0  0  0  0  0  0
   -8.5220   14.5610    2.1040 S   0  0  0  0  0  0  0  0  0  0  0  0
   -8.2950   15.5140    3.1620 O   0  0  0  0  0  0  0  0  0  0  0  0
   -9.6860   14.6140    1.2550 O   0  0  0  0  0  0  0  0  0  0  0  0
   -7.1460   14.7320    1.0130 C   0  0  0  0  0  0  0  0  0  0  0  0
   -7.2800   15.0310   -0.3130 N   0  0  0  0  0  0  0  0  0  0  0  0
   -5.8760   14.5960    1.3490 N   0  0  0  0  0  0  0  0  0  0  0  0
   -6.0260   15.0870   -0.8580 C   0  0  0  0  0  0  0  0  0  0  0  0
   -5.1670   14.8090    0.1960 C   0  0  0  0  0  0  0  0  0  0  0  0
   -5.5880   15.3430   -2.1440 C   0  0  0  0  0  0  0  0  0  0  0  0
   -3.7830   14.7740   -0.0290 C   0  0  0  0  0  0  0  0  0  0  0  0
   -4.2080   15.3010   -2.3520 C   0  0  0  0  0  0  0  0  0  0  0  0
   -3.3080   15.0180   -1.3250 C   0  0  0  0  0  0  0  0  0  0  0  0
   -1.9440   14.9730   -1.6160 N   0  0  0  0  0  0  0  0  0  0  0  0
  2  1  1  0
  2  3  2  0
  2  4  2  0
  2  5  1  0
  5  6  1  0
  5  7  2  0
  6  8  1  0
  7  9  1  0
  8  9  2  0
  8 10  1  0
  9 11  1  0
 10 12  2  0
 11 13  2  0
 12 13  1  0
 13 14  1  0
M  END
