mac-x0263-mac-x0361
     RDKit          3D

 18 19  0  0  0  0  0  0  0  0999 V2000
  -11.5950   14.3080    2.6250 O   0  0  0  0  0  0  0  0  0  0  0  0
  -10.8090   15.3800    2.8330 C   0  0  0  0  0  0  0  0  0  0  0  0
  -11.1520   16.2610    3.6060 O   0  0  0  0  0  0  0  0  0  0  0  0
   -9.5480   15.3280    2.0130 C   0  0  0  0  0  0  0  0  0  0  0  0
   -8.5730   14.2220    2.4340 C   0  0  0  0  0  0  0  0  0  0  0  0
   -7.2630   14.4310    1.7690 C   0  0  0  0  0  0  0  0  0  0  0  0
   -7.2220   14.7310    0.4670 N   0  0  0  0  0  0  0  0  0  0  0  0
   -6.0310   14.3790    2.2610 N   0  0  0  0  0  0  0  0  0  0  0  0
   -5.9280   14.8820    0.1170 C   0  0  0  0  0  0  0  0  0  0  0  0
   -5.1830   14.6670    1.2110 C   0  0  0  0  0  0  0  0  0  0  0  0
   -5.4750   15.1860   -1.0780 C   0  0  0  0  0  0  0  0  0  0  0  0
   -3.7850   14.7740    1.0770 C   0  0  0  0  0  0  0  0  0  0  0  0
   -6.6620   15.3140   -1.8350 C   0  0  0  0  0  0  0  0  0  0  0  0
   -4.0840   15.3030   -1.3070 C   0  0  0  0  0  0  0  0  0  0  0  0
   -3.2470   15.0930   -0.2010 C   0  0  0  0  0  0  0  0  0  0  0  0
   -7.5810   16.1140   -1.2170 N   0  0  0  0  0  0  0  0  0  0  0  0
   -6.8710   14.7160   -2.8500 O   0  0  0  0  0  0  0  0  0  0  0  0
   -3.4700   15.6030   -2.5110 O   0  0  0  0  0  0  0  0  0  0  0  0
  1  2  1  0
  2  3  2  0
  2  4  1  0
  4  5  1  0
  5  6  1  0
  6  7  1  0
  6  8  2  0
  7  9  1  0
  8 10  1  0
  9 10  2  0
  9 11  1  0
 10 12  1  0
 11 13  1  0
 11 14  2  0
 12 15  2  0
 14 15  1  0
 13 16  1  0
 13 17  2  0
 14 18  1  0
M  END
