mac-x0182-mac-x0365
     RDKit          3D

 24 26  0  0  0  0  0  0  0  0999 V2000
    1.6910   11.8560   -6.9960 O   0  0  0  0  0  0  0  0  0  0  0  0
    0.7630   11.5320   -6.3020 C   0  0  0  0  0  0  0  0  0  0  0  0
    0.4990   12.0540   -5.0610 N   0  0  0  0  0  0  0  0  0  0  0  0
   -0.2050   10.4750   -6.6850 C   0  0  0  0  0  0  0  0  0  0  0  0
   -0.8100   11.2670   -4.3500 S   0  0  2  0  0  0  0  0  0  0  0  0
   -1.1330   10.2180   -5.6890 C   0  0  0  0  0  0  0  0  0  0  0  0
   -0.2480    9.7690   -7.8760 C   0  0  0  0  0  0  0  0  0  0  0  0
   -1.8790   12.3550   -4.3650 N   0  0  0  0  0  0  0  0  0  0  0  0
   -0.2640   10.5040   -3.2500 O   0  0  0  0  0  0  0  0  0  0  0  0
   -2.1310    9.2720   -5.8070 C   0  0  0  0  0  0  0  0  0  0  0  0
   -1.2510    8.8020   -8.0300 C   0  0  0  0  0  0  0  0  0  0  0  0
   -2.2960   13.0250   -3.1420 C   0  0  0  0  0  0  0  0  0  0  0  0
   -2.1860    8.5550   -7.0040 C   0  0  0  0  0  0  0  0  0  0  0  0
   -1.2940   14.0430   -2.8300 N   0  0  0  0  0  0  0  0  0  0  0  0
   -1.6840   14.9750   -2.0380 C   0  0  0  0  0  0  0  0  0  0  0  0
   -0.8640   15.9550   -1.6340 O   0  0  0  0  0  0  0  0  0  0  0  0
   -3.0580   15.0410   -1.4990 C   0  0  0  0  0  0  0  0  0  0  0  0
   -4.1470   15.0970   -2.3720 C   0  0  0  0  0  0  0  0  0  0  0  0
   -3.2620   15.0370   -0.1110 C   0  0  0  0  0  0  0  0  0  0  0  0
   -5.4260   15.1390   -1.8490 C   0  0  0  0  0  0  0  0  0  0  0  0
   -4.5630   15.0820    0.4020 C   0  0  0  0  0  0  0  0  0  0  0  0
   -6.4790   15.1860   -2.6720 F   0  0  0  0  0  0  0  0  0  0  0  0
   -5.6400   15.1290   -0.4820 C   0  0  0  0  0  0  0  0  0  0  0  0
   -6.9140   15.1620    0.0030 O   0  0  0  0  0  0  0  0  0  0  0  0
  1  2  2  0
  2  3  1  0
  2  4  1  0
  5  3  1  6
  4  6  2  0
  5  6  1  0
  4  7  1  0
  5  8  2  0
  5  9  2  0
  6 10  1  0
  7 11  2  0
  8 12  1  0
 10 13  2  0
 11 13  1  0
 12 14  1  0
 14 15  2  3
 15 16  1  0
 15 17  1  0
 17 18  2  0
 17 19  1  0
 18 20  1  0
 19 21  2  0
 20 22  1  0
 20 23  2  0
 21 23  1  0
 23 24  1  0
M  END
