mac-x0565-diamond-x0926_0_A
     RDKit          3D

 18 20  0  0  0  0  0  0  0  0999 V2000
   -7.6030   14.3490   -2.0250 O   0  0  0  0  0  0  0  0  0  0  0  0
   -6.5060   14.5130   -1.2980 C   0  0  0  0  0  0  0  0  0  0  0  0
   -6.6420   14.5780   -0.0460 N   0  0  0  0  0  0  0  0  0  0  0  0
   -5.2790   14.5960   -2.1350 C   0  0  0  0  0  0  0  0  0  0  0  0
   -3.9820   14.5210   -1.5690 C   0  0  0  0  0  0  0  0  0  0  0  0
   -5.4180   14.7550   -3.5190 C   0  0  0  0  0  0  0  0  0  0  0  0
   -5.3900   14.7590    0.4420 C   0  0  0  0  0  0  0  0  0  0  0  0
   -2.8920   14.6230   -2.4070 C   0  0  0  0  0  0  0  0  0  0  0  0
   -4.2890   14.8520   -4.3430 C   0  0  0  0  0  0  0  0  0  0  0  0
   -4.7800   13.8530    1.2730 C   0  0  0  0  0  0  0  0  0  0  0  0
   -4.7910   15.8790    0.0310 N   0  0  0  0  0  0  0  0  0  0  0  0
   -3.0470   14.7870   -3.7580 C   0  0  0  0  0  0  0  0  0  0  0  0
   -1.5790   14.5780   -2.0360 O   0  0  0  0  0  0  0  0  0  0  0  0
   -3.5350   16.1280    0.4360 N   0  0  0  0  0  0  0  0  0  0  0  0
   -3.4870   14.1230    1.6770 C   0  0  0  0  0  0  0  0  0  0  0  0
   -1.8560   14.8720   -4.4120 O   0  0  0  0  0  0  0  0  0  0  0  0
   -0.9330   14.7830   -3.3090 C   0  0  0  0  0  0  0  0  0  0  0  0
   -2.8950   15.2730    1.2330 C   0  0  0  0  0  0  0  0  0  0  0  0
  1  2  1  0
  2  3  2  3
  2  4  1  0
  4  5  2  0
  4  6  1  0
  3  7  1  0
  5  8  1  0
  6  9  2  0
  7 10  2  0
  7 11  1  0
  8 12  2  0
  9 12  1  0
  8 13  1  0
 11 14  2  0
 10 15  1  0
 12 16  1  0
 13 17  1  0
 16 17  1  0
 14 18  1  0
 15 18  2  0
M  END
