mac-x0182-diamond-x0900_0_A
     RDKit          3D

 21 23  0  0  0  0  0  0  0  0999 V2000
    1.6830   11.9040   -6.8820 O   0  0  0  0  0  0  0  0  0  0  0  0
    0.7050   11.6050   -6.2330 C   0  0  0  0  0  0  0  0  0  0  0  0
    0.3460   12.1760   -5.0400 N   0  0  0  0  0  0  0  0  0  0  0  0
   -0.2410   10.5360   -6.6330 C   0  0  0  0  0  0  0  0  0  0  0  0
   -0.7900   11.2220   -4.2380 S   0  0  2  0  0  0  0  0  0  0  0  0
   -1.1340   10.2170   -5.6140 C   0  0  0  0  0  0  0  0  0  0  0  0
   -0.3010    9.8720   -7.8490 C   0  0  0  0  0  0  0  0  0  0  0  0
   -1.9600   12.1820   -3.9920 N   0  0  0  0  0  0  0  0  0  0  0  0
   -0.0480   10.4590   -3.2620 O   0  0  0  0  0  0  0  0  0  0  0  0
   -2.1110    9.2500   -5.7410 C   0  0  0  0  0  0  0  0  0  0  0  0
   -1.2820    8.8840   -8.0090 C   0  0  0  0  0  0  0  0  0  0  0  0
   -2.0640   12.9100   -2.7000 C   0  0  0  0  0  0  0  0  0  0  0  0
   -2.1780    8.5770   -6.9670 C   0  0  0  0  0  0  0  0  0  0  0  0
   -3.4760   12.7900   -2.0990 C   0  0  0  0  0  0  0  0  0  0  0  0
   -4.3250   14.0550   -2.2890 C   0  0  0  0  0  0  0  0  0  0  0  0
   -4.6240   14.7370   -1.0350 N   0  0  0  0  0  0  0  0  0  0  0  0
   -5.8340   14.7500   -0.3750 C   0  0  0  0  0  0  0  0  0  0  0  0
   -3.6110   15.3110   -0.2090 C   0  0  0  0  0  0  0  0  0  0  0  0
   -6.9430   14.9030   -0.8590 O   0  0  0  0  0  0  0  0  0  0  0  0
   -5.5070   14.5330    1.0800 C   0  0  0  0  0  0  0  0  0  0  0  0
   -4.1250   15.1770    1.2140 C   0  0  0  0  0  0  0  0  0  0  0  0
  1  2  2  0
  2  3  1  0
  2  4  1  0
  5  3  1  6
  4  6  2  0
  5  6  1  0
  4  7  1  0
  5  8  2  0
  5  9  2  0
  6 10  1  0
  7 11  2  0
  8 12  1  0
 10 13  2  0
 11 13  1  0
 12 14  1  0
 14 15  1  0
 15 16  1  0
 16 17  1  0
 16 18  1  0
 17 19  2  0
 17 20  1  0
 18 21  1  0
 20 21  1  0
M  END
