mac-x0204-mac-x0354
     RDKit          3D

 24 26  0  0  0  0  0  0  0  0999 V2000
    0.1880   12.6780   -2.3460 N   0  0  0  0  0  0  0  0  0  0  0  0
    0.1490   13.9570   -2.8490 C   0  0  0  0  0  0  0  0  0  0  0  0
    0.9440   14.8510   -2.5660 O   0  0  0  0  0  0  0  0  0  0  0  0
    0.4760   11.7180   -3.1760 C   0  0  0  0  0  0  0  0  0  0  0  0
    0.4600   10.4460   -2.6640 O   0  0  0  0  0  0  0  0  0  0  0  0
   -0.9790   14.1890   -3.7880 C   0  0  0  0  0  0  0  0  0  0  0  0
    0.8120   11.8280   -4.6020 C   0  0  0  0  0  0  0  0  0  0  0  0
   -1.2350   15.3950   -4.4470 C   0  0  0  0  0  0  0  0  0  0  0  0
   -1.8420   13.1280   -4.0270 C   0  0  0  0  0  0  0  0  0  0  0  0
    1.8040   12.6380   -5.2130 C   0  0  0  0  0  0  0  0  0  0  0  0
    0.2410   11.1500   -5.6930 C   0  0  0  0  0  0  0  0  0  0  0  0
   -2.3330   15.4690   -5.3020 C   0  0  0  0  0  0  0  0  0  0  0  0
   -2.9150   13.1820   -4.8570 N   0  0  0  0  0  0  0  0  0  0  0  0
    0.9000   11.5820   -6.8050 N   0  0  0  0  0  0  0  0  0  0  0  0
    1.8540   12.4850   -6.5370 N   0  0  0  0  0  0  0  0  0  0  0  0
   -0.8150   10.1680   -5.8080 C   0  0  0  0  0  0  0  0  0  0  0  0
   -2.5700   16.6510   -5.9380 O   0  0  0  0  0  0  0  0  0  0  0  0
    0.6260   11.1370   -8.1600 C   0  0  0  0  0  0  0  0  0  0  0  0
   -3.1370   14.3530   -5.4780 C   0  0  0  0  0  0  0  0  0  0  0  0
   -0.5610    8.9500   -6.4560 C   0  0  0  0  0  0  0  0  0  0  0  0
   -2.0780   10.4190   -5.2890 C   0  0  0  0  0  0  0  0  0  0  0  0
   -1.5680    7.9970   -6.5760 C   0  0  0  0  0  0  0  0  0  0  0  0
   -3.0840    9.4680   -5.4100 C   0  0  0  0  0  0  0  0  0  0  0  0
   -2.8310    8.2590   -6.0500 C   0  0  0  0  0  0  0  0  0  0  0  0
  1  2  1  0
  2  3  2  0
  1  4  2  3
  4  5  1  0
  2  6  1  0
  4  7  1  0
  6  8  2  0
  6  9  1  0
  7 10  1  0
  7 11  2  0
  8 12  1  0
  9 13  2  0
 11 14  1  0
 10 15  2  0
 14 15  1  0
 11 16  1  0
 12 17  1  0
 14 18  1  0
 12 19  2  0
 13 19  1  0
 16 20  2  0
 16 21  1  0
 20 22  1  0
 21 23  2  0
 22 24  2  0
 23 24  1  0
M  END
