mac-x0159-mac-x0206
     RDKit          3D

 26 29  0  0  0  0  0  0  0  0999 V2000
   -3.9960   15.7940    0.2020 N   0  0  0  0  0  0  0  0  0  0  0  0
   -4.9880   15.2810   -0.5540 C   0  0  0  0  0  0  0  0  0  0  0  0
   -4.9640   15.0970   -1.7710 O   0  0  0  0  0  0  0  0  0  0  0  0
   -2.7690   15.7230   -0.4190 C   0  0  2  0  0  0  0  0  0  0  0  0
   -3.2560   15.7530   -1.7820 N   0  0  0  0  0  0  0  0  0  0  0  0
   -2.0410   14.4540   -0.0010 C   0  0  1  0  0  0  0  0  0  0  0  0
   -6.1600   14.9480    0.2110 C   0  0  0  0  0  0  0  0  0  0  0  0
   -2.6360   14.7840   -2.6230 C   0  0  0  0  0  0  0  0  0  0  0  0
   -0.9640   14.1640   -1.0590 C   0  0  1  0  0  0  0  0  0  0  0  0
   -1.3510   14.5940    1.2890 N   0  0  0  0  0  0  0  0  0  0  0  0
   -7.3980   14.7210   -0.3450 C   0  0  0  0  0  0  0  0  0  0  0  0
   -5.9700   14.8760    1.5890 C   0  0  0  0  0  0  0  0  0  0  0  0
   -7.5740   14.7890   -1.7050 O   0  0  0  0  0  0  0  0  0  0  0  0
   -1.2480   14.8250   -2.3170 N   0  0  0  0  0  0  0  0  0  0  0  0
    0.2190   14.7230   -0.4520 N   0  0  0  0  0  0  0  0  0  0  0  0
    0.0420   14.4790    0.9630 C   0  0  0  0  0  0  0  0  0  0  0  0
   -8.4730   14.4240    0.4840 C   0  0  0  0  0  0  0  0  0  0  0  0
   -7.0340   14.5820    2.4210 C   0  0  0  0  0  0  0  0  0  0  0  0
   -0.3670   14.6150   -3.4610 C   0  0  0  0  0  0  0  0  0  0  0  0
   -8.2880   14.3570    1.8690 C   0  0  0  0  0  0  0  0  0  0  0  0
   -0.1340   15.8940   -4.2230 C   0  0  0  0  0  0  0  0  0  0  0  0
    1.0740   16.5400   -4.3150 C   0  0  0  0  0  0  0  0  0  0  0  0
   -1.1750   16.5300   -4.9050 N   0  0  0  0  0  0  0  0  0  0  0  0
   -0.7320   17.6270   -5.4850 C   0  0  0  0  0  0  0  0  0  0  0  0
    0.9300   17.9610   -5.2580 S   0  0  0  0  0  0  0  0  0  0  0  0
   -1.5580   18.5600   -6.2980 C   0  0  0  0  0  0  0  0  0  0  0  0
  1  2  1  0
  2  3  2  0
  4  1  1  1
  4  5  1  0
  4  6  1  0
  2  7  1  0
  5  8  1  0
  6  9  1  0
  6 10  1  1
  7 11  2  0
  7 12  1  0
 11 13  1  0
  8 14  1  0
  9 14  1  0
  9 15  1  1
 10 16  1  0
 15 16  1  0
 11 17  1  0
 12 18  2  0
 14 19  1  0
 17 20  2  0
 18 20  1  0
 19 21  1  0
 21 22  2  0
 21 23  1  0
 23 24  2  0
 22 25  1  0
 24 25  1  0
 24 26  1  0
M  END
