mac-x0510-diamond-x0950_1_A
     RDKit          3D

 19 20  0  0  0  0  0  0  0  0999 V2000
   -6.1710   14.9400    0.7910 O   0  0  0  0  0  0  0  0  0  0  0  0
   -4.9960   15.0620    0.4600 C   0  0  0  0  0  0  0  0  0  0  0  0
   -4.6600   15.2110   -0.8660 N   0  0  0  0  0  0  0  0  0  0  0  0
   -3.9840   15.0420    1.3780 N   0  0  0  0  0  0  0  0  0  0  0  0
   -2.7050   14.8760    0.9400 C   0  0  0  0  0  0  0  0  0  0  0  0
   -3.3930   15.1280   -1.3910 C   0  0  0  0  0  0  0  0  0  0  0  0
   -3.1690   15.2510   -2.5910 O   0  0  0  0  0  0  0  0  0  0  0  0
   -2.4050   14.9080   -0.3930 C   0  0  0  0  0  0  0  0  0  0  0  0
   -1.6190   14.6650    1.7150 N   0  0  0  0  0  0  0  0  0  0  0  0
   -1.0520   14.6970   -0.4430 N   0  0  0  0  0  0  0  0  0  0  0  0
   -0.6290   14.5610    0.8540 C   0  0  0  0  0  0  0  0  0  0  0  0
   -0.1840   14.6140   -1.6080 C   0  0  0  0  0  0  0  0  0  0  0  0
    1.0240   13.7750   -1.2310 C   0  0  0  0  0  0  0  0  0  0  0  0
    1.6870   13.1920   -2.3700 O   0  0  0  0  0  0  0  0  0  0  0  0
    1.0260   12.2580   -3.1040 C   0  0  0  0  0  0  0  0  0  0  0  0
    1.2660   12.5270   -4.5910 C   0  0  2  0  0  0  0  0  0  0  0  0
    0.3500   11.3280   -2.6610 O   0  0  0  0  0  0  0  0  0  0  0  0
    0.9570   13.9750   -4.9290 C   0  0  0  0  0  0  0  0  0  0  0  0
    0.4760   11.6780   -5.4200 O   0  0  0  0  0  0  0  0  0  0  0  0
  1  2  2  0
  2  3  1  0
  2  4  1  0
  4  5  1  0
  3  6  1  0
  6  7  2  0
  5  8  2  0
  6  8  1  0
  5  9  1  0
  8 10  1  0
  9 11  2  0
 10 11  1  0
 10 12  1  0
 12 13  1  0
 13 14  1  0
 14 15  1  0
 15 16  1  0
 15 17  2  0
 16 18  1  1
 16 19  1  0
M  END
