mac-x0417-mac-x0453
     RDKit          3D

 24 26  0  0  0  0  0  0  0  0999 V2000
    1.6890   12.4260   -2.5610 O   0  0  0  0  0  0  0  0  0  0  0  0
    0.5060   11.9510   -3.1720 C   0  0  0  0  0  0  0  0  0  0  0  0
    0.6940   10.5640   -3.3220 O   0  0  0  0  0  0  0  0  0  0  0  0
    0.2790   12.6120   -4.5620 C   0  0  0  0  0  0  0  0  0  0  0  0
   -0.6570   12.1290   -2.1970 C   0  0  0  0  0  0  0  0  0  0  0  0
   -0.4500   13.2800   -1.2150 C   0  0  0  0  0  0  0  0  0  0  0  0
    0.2200   11.6800   -5.7240 C   0  0  0  0  0  0  0  0  0  0  0  0
   -1.1010   14.5470   -1.7440 C   0  0  0  0  0  0  0  0  0  0  0  0
    1.2010   11.6980   -6.6310 N   0  0  0  0  0  0  0  0  0  0  0  0
   -0.7680   10.7170   -6.0360 C   0  0  0  0  0  0  0  0  0  0  0  0
    0.8600   10.7270   -7.5670 O   0  0  0  0  0  0  0  0  0  0  0  0
   -0.3150   10.1440   -7.2060 C   0  0  0  0  0  0  0  0  0  0  0  0
   -1.9720   10.2680   -5.4760 C   0  0  0  0  0  0  0  0  0  0  0  0
   -2.4350   14.7270   -1.2230 N   0  0  0  0  0  0  0  0  0  0  0  0
   -0.9810    9.1250   -7.8880 C   0  0  0  0  0  0  0  0  0  0  0  0
   -2.6700    9.2450   -6.1320 C   0  0  0  0  0  0  0  0  0  0  0  0
   -2.7700   14.5520    0.0790 C   0  0  0  0  0  0  0  0  0  0  0  0
   -3.5660   15.0890   -1.9060 C   0  0  0  0  0  0  0  0  0  0  0  0
   -2.1820    8.6850   -7.3140 C   0  0  0  0  0  0  0  0  0  0  0  0
   -4.1090   14.8150    0.1450 C   0  0  0  0  0  0  0  0  0  0  0  0
   -4.6030   15.1490   -1.0980 N   0  0  0  0  0  0  0  0  0  0  0  0
   -4.9600   14.7570    1.3530 C   0  0  0  0  0  0  0  0  0  0  0  0
   -6.1420   13.7990    1.2090 C   0  0  0  0  0  0  0  0  0  0  0  0
   -7.0890   13.9700    2.3140 N   0  0  0  0  0  0  0  0  0  0  0  0
  2  1  1  0
  2  3  1  0
  2  4  1  0
  2  5  1  0
  5  6  1  0
  4  7  1  0
  6  8  1  0
  7  9  2  0
  7 10  1  0
  9 11  1  0
 10 12  2  0
 11 12  1  0
 10 13  1  0
  8 14  1  0
 12 15  1  0
 13 16  2  0
 14 17  1  0
 14 18  1  0
 15 19  2  0
 16 19  1  0
 17 20  2  0
 18 21  2  0
 20 21  1  0
 20 22  1  0
 22 23  1  0
 23 24  1  0
M  END
