mac-x0568-mac-x0344
     RDKit          3D

 25 26  0  0  0  0  0  0  0  0999 V2000
   -8.5260   14.4600    1.4810 C   0  0  0  0  0  0  0  0  0  0  0  0
   -7.2010   14.6260    0.8050 C   0  0  0  0  0  0  0  0  0  0  0  0
   -6.0230   14.6000    1.5500 C   0  0  0  0  0  0  0  0  0  0  0  0
   -7.2070   14.8030   -0.5350 N   0  0  0  0  0  0  0  0  0  0  0  0
   -6.0110   14.9540   -1.1470 C   0  0  0  0  0  0  0  0  0  0  0  0
   -4.8040   14.7580    0.8980 C   0  0  0  0  0  0  0  0  0  0  0  0
   -4.7930   14.9370   -0.4880 C   0  0  0  0  0  0  0  0  0  0  0  0
   -3.5180   15.0970   -1.2070 C   0  0  0  0  0  0  0  0  0  0  0  0
   -3.5310   15.4920   -2.3680 O   0  0  0  0  0  0  0  0  0  0  0  0
   -2.3670   14.7670   -0.5290 N   0  0  0  0  0  0  0  0  0  0  0  0
   -1.1100   14.6260   -1.2260 C   0  0  0  0  0  0  0  0  0  0  0  0
   -0.7950   13.2080   -1.6790 C   0  0  0  0  0  0  0  0  0  0  0  0
    0.6820   12.8840   -1.5800 C   0  0  0  0  0  0  0  0  0  0  0  0
    1.4040   13.4310   -2.7090 N   0  0  0  0  0  0  0  0  0  0  0  0
    1.3050   12.9230   -3.8730 C   0  0  0  0  0  0  0  0  0  0  0  0
    1.9420   13.3800   -4.9610 O   0  0  0  0  0  0  0  0  0  0  0  0
    0.4200   11.6940   -4.1660 C   0  0  0  0  0  0  0  0  0  0  0  0
    0.0850   10.9640   -3.2430 O   0  0  0  0  0  0  0  0  0  0  0  0
    0.1010   11.5740   -5.5030 N   0  0  0  0  0  0  0  0  0  0  0  0
   -0.7750   10.6340   -6.0700 C   0  0  0  0  0  0  0  0  0  0  0  0
   -0.3980   10.0390   -7.2800 C   0  0  0  0  0  0  0  0  0  0  0  0
   -1.9880   10.2720   -5.4850 C   0  0  0  0  0  0  0  0  0  0  0  0
   -1.2270    9.0930   -7.8940 C   0  0  0  0  0  0  0  0  0  0  0  0
   -2.8170    9.3260   -6.1000 C   0  0  0  0  0  0  0  0  0  0  0  0
   -2.4360    8.7400   -7.3010 C   0  0  0  0  0  0  0  0  0  0  0  0
  1  2  1  0
  2  3  2  0
  2  4  1  0
  4  5  2  0
  3  6  1  0
  5  7  1  0
  6  7  2  0
  7  8  1  0
  8  9  2  0
  8 10  1  0
 10 11  1  0
 11 12  1  0
 12 13  1  0
 13 14  1  0
 14 15  2  3
 15 16  1  0
 15 17  1  0
 17 18  2  0
 17 19  1  0
 19 20  1  0
 20 21  2  0
 20 22  1  0
 21 23  1  0
 22 24  2  0
 23 25  2  0
 24 25  1  0
M  END
