mac-x0303-mac-x0546
     RDKit          3D

 30 33  0  0  0  0  0  0  0  0999 V2000
   -8.5650   12.9420    2.7810 N   0  0  0  0  0  0  0  0  0  0  0  0
   -8.6970   14.4910    2.1340 S   0  0  0  0  0  0  0  0  0  0  0  0
   -8.5060   15.4440    3.1980 O   0  0  0  0  0  0  0  0  0  0  0  0
   -9.8190   14.5410    1.2370 O   0  0  0  0  0  0  0  0  0  0  0  0
   -7.2810   14.6840    1.1160 C   0  0  0  0  0  0  0  0  0  0  0  0
   -7.3320   14.8240   -0.2400 N   0  0  0  0  0  0  0  0  0  0  0  0
   -6.0440   14.7150    1.5580 N   0  0  0  0  0  0  0  0  0  0  0  0
   -6.0460   14.9470   -0.6890 C   0  0  0  0  0  0  0  0  0  0  0  0
   -5.2630   14.8750    0.4560 C   0  0  0  0  0  0  0  0  0  0  0  0
   -5.5180   15.1080   -1.9550 C   0  0  0  0  0  0  0  0  0  0  0  0
   -3.8750   14.9650    0.3720 C   0  0  0  0  0  0  0  0  0  0  0  0
   -4.1300   15.1870   -2.0240 C   0  0  0  0  0  0  0  0  0  0  0  0
   -3.3210   15.1190   -0.8870 C   0  0  0  0  0  0  0  0  0  0  0  0
   -3.4590   15.3430   -3.3340 C   0  0  0  0  0  0  0  0  0  0  0  0
   -4.3090   14.9300   -4.5370 C   0  0  0  0  0  0  0  0  0  0  0  0
   -3.7000   15.6850   -5.6330 N   0  0  0  0  0  0  0  0  0  0  0  0
   -4.0370   14.9490   -6.8370 C   0  0  0  0  0  0  0  0  0  0  0  0
   -2.3930   15.9050   -5.2320 C   0  0  0  0  0  0  0  0  0  0  0  0
   -1.7530   14.8340   -4.7600 C   0  0  0  0  0  0  0  0  0  0  0  0
   -1.7110   17.2190   -5.2110 C   0  0  0  0  0  0  0  0  0  0  0  0
   -0.4240   14.9290   -4.1720 C   0  0  2  0  0  0  0  0  0  0  0  0
   -0.3850   17.3630   -4.9580 C   0  0  0  0  0  0  0  0  0  0  0  0
    0.3350   16.0960   -4.7200 C   0  0  0  0  0  0  0  0  0  0  0  0
    0.6290   13.8910   -4.2980 C   0  0  0  0  0  0  0  0  0  0  0  0
    0.4460   12.4220   -4.0400 C   0  0  0  0  0  0  0  0  0  0  0  0
    1.5800   15.8640   -4.9100 N   0  0  0  0  0  0  0  0  0  0  0  0
    1.7350   14.5150   -4.6600 C   0  0  0  0  0  0  0  0  0  0  0  0
    0.3810   11.9420   -2.5890 C   0  0  0  0  0  0  0  0  0  0  0  0
    0.5410   12.5570   -1.5470 O   0  0  0  0  0  0  0  0  0  0  0  0
    0.0880   10.6100   -2.5220 O   0  0  0  0  0  0  0  0  0  0  0  0
  2  1  1  0
  2  3  2  0
  2  4  2  0
  2  5  1  0
  5  6  1  0
  5  7  2  0
  6  8  1  0
  7  9  1  0
  8  9  2  0
  8 10  1  0
  9 11  1  0
 10 12  2  0
 11 13  2  0
 12 13  1  0
 12 14  1  0
 14 15  1  0
 15 16  1  0
 16 17  1  0
 16 18  1  0
 18 19  2  0
 18 20  1  0
 21 19  1  6
 20 22  2  0
 21 23  1  0
 22 23  1  0
 21 24  1  0
 24 25  1  0
 23 26  2  0
 24 27  2  0
 26 27  1  0
 25 28  1  0
 28 29  2  0
 28 30  1  0
M  END
