mac-x0584-diamond-x0471_0_A
     RDKit          3D

 29 33  0  0  0  0  0  0  0  0999 V2000
   -8.5360   13.8700    2.8910 N   0  0  0  0  0  0  0  0  0  0  0  0
   -9.0260   14.9880    3.5550 C   0  0  0  0  0  0  0  0  0  0  0  0
   -9.2980   16.0400    2.9850 O   0  0  0  0  0  0  0  0  0  0  0  0
   -8.3660   13.8360    1.4300 C   0  0  0  0  0  0  0  0  0  0  0  0
   -9.2310   14.8110    5.0650 C   0  0  0  0  0  0  0  0  0  0  0  0
   -7.0460   14.5310    0.9680 C   0  0  2  0  0  0  0  0  0  0  0  0
   -9.6420   13.3850    5.4290 C   0  0  0  0  0  0  0  0  0  0  0  0
   -7.9960   15.2490    5.8480 C   0  0  0  0  0  0  0  0  0  0  0  0
   -7.1590   15.2610   -0.2730 N   0  0  0  0  0  0  0  0  0  0  0  0
   -5.9250   13.6690    0.5990 N   0  0  0  0  0  0  0  0  0  0  0  0
   -4.8700   14.6280    0.1800 C   0  0  1  0  0  0  0  0  0  0  0  0
   -5.7650   15.6710   -0.5270 C   0  0  0  0  0  0  0  0  0  0  0  0
   -3.9210   15.0010    1.2500 N   0  0  0  0  0  0  0  0  0  0  0  0
   -4.0190   14.3300   -1.0840 C   0  0  0  0  0  0  0  0  0  0  0  0
   -2.6060   14.9300    0.6870 C   0  0  0  0  0  0  0  0  0  0  0  0
   -2.6450   14.6030   -0.6470 C   0  0  0  0  0  0  0  0  0  0  0  0
   -1.4750   15.1680    1.3510 N   0  0  0  0  0  0  0  0  0  0  0  0
   -1.5090   14.5620   -1.3870 C   0  0  0  0  0  0  0  0  0  0  0  0
   -1.6290   14.2860   -2.7520 N   0  0  0  0  0  0  0  0  0  0  0  0
   -0.3290   14.8030   -0.7760 N   0  0  0  0  0  0  0  0  0  0  0  0
   -0.3710   15.0820    0.5620 C   0  0  0  0  0  0  0  0  0  0  0  0
   -0.5630   14.0010   -3.6940 C   0  0  2  0  0  0  0  0  0  0  0  0
   -2.5980   15.1050   -3.4910 C   0  0  0  0  0  0  0  0  0  0  0  0
    0.6050   13.2950   -3.0620 C   0  0  0  0  0  0  0  0  0  0  0  0
   -0.3430   15.3620   -4.3320 C   0  0  0  0  0  0  0  0  0  0  0  0
   -1.7980   15.7060   -4.6650 C   0  0  0  0  0  0  0  0  0  0  0  0
    1.5080   12.5150   -4.0520 C   0  0  0  0  0  0  0  0  0  0  0  0
    0.1930   11.8760   -2.5900 C   0  0  0  0  0  0  0  0  0  0  0  0
    0.3030   11.5370   -4.0810 C   0  0  0  0  0  0  0  0  0  0  0  0
  1  2  1  0
  2  3  2  0
  1  4  1  0
  2  5  1  0
  6  4  1  6
  5  7  1  0
  5  8  1  0
  6  9  1  0
  6 10  1  0
 11 10  1  0
  9 12  1  0
 11 12  1  6
 11 13  1  0
 11 14  1  0
 13 15  1  0
 14 16  1  0
 15 16  2  0
 15 17  1  0
 16 18  1  0
 18 19  1  0
 18 20  2  0
 17 21  2  0
 20 21  1  0
 19 22  1  0
 19 23  1  0
 22 24  1  1
 22 25  1  0
 23 26  1  0
 25 26  1  0
 24 27  1  0
 24 28  1  0
 27 29  1  0
 28 29  1  0
M  END
