mac-x0131-diamond-x0626_0_A
     RDKit          3D

 21 24  0  0  0  0  0  0  0  0999 V2000
   -3.7160   14.9360   -4.0990 C   0  0  0  0  0  0  0  0  0  0  0  0
   -3.1590   14.8690   -2.7270 C   0  0  0  0  0  0  0  0  0  0  0  0
   -3.7840   14.8400   -1.4940 C   0  0  0  0  0  0  0  0  0  0  0  0
   -1.7760   14.8090   -2.4660 N   0  0  0  0  0  0  0  0  0  0  0  0
   -5.1390   14.8440   -1.0090 C   0  0  0  0  0  0  0  0  0  0  0  0
   -0.7060   14.7880   -3.4500 C   0  0  0  0  0  0  0  0  0  0  0  0
   -2.7810   14.7760   -0.5260 C   0  0  0  0  0  0  0  0  0  0  0  0
   -1.5470   14.7570   -1.1070 C   0  0  0  0  0  0  0  0  0  0  0  0
   -5.3610   14.7770    0.3520 C   0  0  0  0  0  0  0  0  0  0  0  0
   -2.9310   14.7290    0.8500 C   0  0  0  0  0  0  0  0  0  0  0  0
   -0.3860   14.6960   -0.4280 N   0  0  0  0  0  0  0  0  0  0  0  0
   -0.4720   13.3570   -3.7490 C   0  0  0  0  0  0  0  0  0  0  0  0
   -4.2750   14.7470    1.2920 N   0  0  0  0  0  0  0  0  0  0  0  0
   -6.7930   14.7340    0.9040 C   0  0  0  0  0  0  0  0  0  0  0  0
   -1.8060   14.6640    1.6030 N   0  0  0  0  0  0  0  0  0  0  0  0
   -0.6210   14.6570    0.9180 C   0  0  0  0  0  0  0  0  0  0  0  0
    0.4030   12.4010   -3.2740 C   0  0  0  0  0  0  0  0  0  0  0  0
   -1.2900   12.8030   -4.6910 O   0  0  0  0  0  0  0  0  0  0  0  0
   -7.4800   13.3870    0.8310 C   0  0  0  0  0  0  0  0  0  0  0  0
   -0.9390   11.5010   -4.8120 C   0  0  0  0  0  0  0  0  0  0  0  0
    0.0820   11.2060   -3.9600 C   0  0  0  0  0  0  0  0  0  0  0  0
  1  2  1  0
  2  3  2  0
  2  4  1  0
  3  5  1  0
  4  6  1  0
  3  7  1  0
  4  8  1  0
  7  8  2  0
  5  9  2  0
  7 10  1  0
  8 11  1  0
  6 12  1  0
  9 13  1  0
 10 13  1  0
  9 14  1  0
 10 15  2  0
 11 16  2  0
 15 16  1  0
 12 17  2  0
 12 18  1  0
 14 19  1  0
 18 20  1  0
 17 21  1  0
 20 21  2  0
M  END
