mac-x0411-mac-x0394
     RDKit          3D

 22 23  0  0  0  0  0  0  0  0999 V2000
    0.8760    9.4380   -7.9400 Cl  0  0  0  0  0  0  0  0  0  0  0  0
   -0.4890    9.7610   -6.9360 C   0  0  0  0  0  0  0  0  0  0  0  0
   -0.5790   10.8700   -6.0570 C   0  0  0  0  0  0  0  0  0  0  0  0
   -1.5390    8.8410   -7.0410 C   0  0  0  0  0  0  0  0  0  0  0  0
    0.4570   11.8090   -5.9210 O   0  0  0  0  0  0  0  0  0  0  0  0
   -1.7800   10.9940   -5.3030 C   0  0  0  0  0  0  0  0  0  0  0  0
   -2.6960    8.9930   -6.2900 C   0  0  0  0  0  0  0  0  0  0  0  0
   -2.1090   12.2550   -4.1760 Cl  0  0  0  0  0  0  0  0  0  0  0  0
    0.2670   12.5690   -4.7040 C   0  0  1  0  0  0  0  0  0  0  0  0
   -2.8110   10.0660   -5.4280 C   0  0  0  0  0  0  0  0  0  0  0  0
    0.9910   12.1150   -3.4370 C   0  0  0  0  0  0  0  0  0  0  0  0
   -0.0450   14.0900   -4.8150 C   0  0  0  0  0  0  0  0  0  0  0  0
    1.9080   12.9350   -2.6440 N   0  0  0  0  0  0  0  0  0  0  0  0
    0.7790   10.9980   -2.9650 O   0  0  0  0  0  0  0  0  0  0  0  0
   -1.3750   14.3190   -5.1490 C   0  0  0  0  0  0  0  0  0  0  0  0
    0.7840   15.2460   -4.6240 C   0  0  0  0  0  0  0  0  0  0  0  0
    1.3650   13.3770   -1.6300 O   0  0  0  0  0  0  0  0  0  0  0  0
   -1.9070   15.5770   -5.2900 C   0  0  0  0  0  0  0  0  0  0  0  0
    0.1920   16.5400   -4.7800 C   0  0  0  0  0  0  0  0  0  0  0  0
    1.0350   18.0120   -4.5820 Cl  0  0  0  0  0  0  0  0  0  0  0  0
   -3.5570   15.7010   -5.7060 Cl  0  0  0  0  0  0  0  0  0  0  0  0
   -1.1360   16.6950   -5.1080 C   0  0  0  0  0  0  0  0  0  0  0  0
  1  2  1  0
  2  3  2  0
  2  4  1  0
  3  5  1  0
  3  6  1  0
  4  7  2  0
  6  8  1  0
  9  5  1  6
  6 10  2  0
  7 10  1  0
  9 11  1  0
  9 12  1  0
 11 13  1  0
 11 14  2  0
 12 15  2  0
 12 16  1  0
 13 17  2  0
 15 18  1  0
 16 19  2  0
 19 20  1  0
 18 21  1  0
 18 22  2  0
 19 22  1  0
M  END
