mac-x0326-mac-x0319
     RDKit          3D

 22 24  0  0  0  0  0  0  0  0999 V2000
   -6.5440   15.1670   -0.9090 Cl  0  0  0  0  0  0  0  0  0  0  0  0
   -4.8400   15.0160   -1.0660 C   0  0  0  0  0  0  0  0  0  0  0  0
   -4.2930   15.1560   -2.3270 C   0  0  0  0  0  0  0  0  0  0  0  0
   -4.0420   14.7580    0.0460 C   0  0  0  0  0  0  0  0  0  0  0  0
   -2.9180   15.0390   -2.4850 C   0  0  0  0  0  0  0  0  0  0  0  0
   -2.6540   14.6320   -0.0920 C   0  0  0  0  0  0  0  0  0  0  0  0
   -2.2730   15.1700   -3.6810 N   0  0  0  0  0  0  0  0  0  0  0  0
   -2.1110   14.7780   -1.3790 C   0  0  0  0  0  0  0  0  0  0  0  0
   -0.9820   15.0210   -3.5230 C   0  0  0  0  0  0  0  0  0  0  0  0
   -0.4720   14.6930   -1.9040 S   0  0  0  0  0  0  0  0  0  0  0  0
    0.0070   15.1360   -4.6650 C   0  0  0  0  0  0  0  0  0  0  0  0
    1.3780   15.3540   -4.1380 C   0  0  0  0  0  0  0  0  0  0  0  0
    1.1110   14.0220   -4.2840 C   0  0  0  0  0  0  0  0  0  0  0  0
    0.7880   16.5730   -4.3280 C   0  0  0  0  0  0  0  0  0  0  0  0
    1.3510   17.7890   -4.0640 O   0  0  0  0  0  0  0  0  0  0  0  0
   -0.5010   16.4200   -4.8400 C   0  0  0  0  0  0  0  0  0  0  0  0
   -0.2020   13.9020   -4.8050 C   0  0  0  0  0  0  0  0  0  0  0  0
    1.9450   12.8230   -3.9850 C   0  0  0  0  0  0  0  0  0  0  0  0
   -0.9870   15.0830   -5.0770 C   0  0  0  0  0  0  0  0  0  0  0  0
    1.2100   11.9880   -2.9730 C   0  0  0  0  0  0  0  0  0  0  0  0
    0.5210   10.9660   -3.5240 O   0  0  0  0  0  0  0  0  0  0  0  0
    1.1760   12.1550   -1.7770 O   0  0  0  0  0  0  0  0  0  0  0  0
  1  2  1  0
  2  3  2  0
  2  4  1  0
  3  5  1  0
  4  6  2  0
  5  7  1  0
  5  8  2  0
  6  8  1  0
  7  9  2  0
  8 10  1  0
  9 10  1  0
  9 11  1  0
 11 12  1  0
 12 13  2  0
 12 14  1  0
 14 15  1  0
 14 16  2  0
 13 17  1  0
 13 18  1  0
 16 19  1  0
 17 19  2  0
 18 20  1  0
 20 21  1  0
 20 22  2  0
M  END
