mac-x0223-mac-x0379
     RDKit          3D

 21 22  0  0  0  0  0  0  0  0999 V2000
    1.3340   18.6110   -5.8890 C   0  0  0  0  0  0  0  0  0  0  0  0
    0.0340   18.1680   -6.1460 O   0  0  0  0  0  0  0  0  0  0  0  0
   -0.2400   17.0510   -5.4570 C   0  0  0  0  0  0  0  0  0  0  0  0
   -1.4800   17.0550   -4.8810 C   0  0  0  0  0  0  0  0  0  0  0  0
    0.6110   15.9580   -5.2950 C   0  0  0  0  0  0  0  0  0  0  0  0
   -2.3170   18.1220   -5.0190 O   0  0  0  0  0  0  0  0  0  0  0  0
   -1.8950   15.9980   -4.1370 C   0  0  0  0  0  0  0  0  0  0  0  0
    0.2190   14.8540   -4.5280 C   0  0  0  0  0  0  0  0  0  0  0  0
    1.1800   13.6770   -4.3650 C   0  0  0  0  0  0  0  0  0  0  0  0
   -1.0520   14.9120   -3.9380 C   0  0  0  0  0  0  0  0  0  0  0  0
    0.8100   12.6560   -3.2970 C   0  0  0  0  0  0  0  0  0  0  0  0
   -1.5540   13.8570   -3.0490 C   0  0  1  0  0  0  0  0  0  0  0  0
    0.3200   11.5510   -3.4780 O   0  0  0  0  0  0  0  0  0  0  0  0
    1.0820   13.1050   -2.0460 O   0  0  0  0  0  0  0  0  0  0  0  0
   -0.5910   13.7110   -2.0070 O   0  0  0  0  0  0  0  0  0  0  0  0
   -2.7670   14.3310   -2.3450 C   0  0  0  0  0  0  0  0  0  0  0  0
   -3.9830   14.7370   -2.8460 C   0  0  0  0  0  0  0  0  0  0  0  0
   -2.7750   14.4350   -0.6340 S   0  0  0  0  0  0  0  0  0  0  0  0
   -4.3860   14.9880   -0.7090 C   0  0  0  0  0  0  0  0  0  0  0  0
   -4.9100   15.1130   -1.9060 N   0  0  0  0  0  0  0  0  0  0  0  0
   -5.0930   15.2850    0.5460 C   0  0  0  0  0  0  0  0  0  0  0  0
  1  2  1  0
  2  3  1  0
  3  4  2  0
  3  5  1  0
  4  6  1  0
  4  7  1  0
  5  8  2  0
  8  9  1  0
  7 10  2  0
  8 10  1  0
  9 11  1  0
 10 12  1  0
 11 13  2  0
 11 14  1  0
 12 15  1  1
 12 16  1  0
 16 17  2  0
 16 18  1  0
 18 19  1  0
 17 20  1  0
 19 20  2  0
 19 21  1  0
M  END
