mac-x0277-diamond-x0253_0_A
     RDKit          3D

 22 23  0  0  0  0  0  0  0  0999 V2000
   -0.9340   18.4110   -5.4280 Cl  0  0  0  0  0  0  0  0  0  0  0  0
   -0.5370   16.7710   -5.0750 C   0  0  0  0  0  0  0  0  0  0  0  0
   -1.4950   15.7750   -5.1460 C   0  0  0  0  0  0  0  0  0  0  0  0
    0.7770   16.4390   -4.7100 C   0  0  0  0  0  0  0  0  0  0  0  0
   -3.1290   16.0480   -5.5880 Cl  0  0  0  0  0  0  0  0  0  0  0  0
   -1.1680   14.4770   -4.8550 C   0  0  0  0  0  0  0  0  0  0  0  0
    1.1150   15.0990   -4.4120 C   0  0  0  0  0  0  0  0  0  0  0  0
    0.1120   14.1020   -4.4840 C   0  0  0  0  0  0  0  0  0  0  0  0
    0.1940   12.6150   -4.1830 C   0  0  2  0  0  0  0  0  0  0  0  0
    0.7520   12.2970   -2.8040 C   0  0  0  0  0  0  0  0  0  0  0  0
    0.5970   11.6020   -5.1730 N   0  0  0  0  0  0  0  0  0  0  0  0
    0.5700   11.0060   -2.4920 O   0  0  0  0  0  0  0  0  0  0  0  0
    1.2860   13.0790   -2.0350 O   0  0  0  0  0  0  0  0  0  0  0  0
    1.1220   11.7560   -6.4350 C   0  0  0  0  0  0  0  0  0  0  0  0
    2.0420   12.5050   -6.6510 O   0  0  0  0  0  0  0  0  0  0  0  0
    0.5210   10.8590   -7.4970 C   0  0  0  0  0  0  0  0  0  0  0  0
   -0.4680    9.9560   -7.0790 C   0  0  0  0  0  0  0  0  0  0  0  0
    0.8800   10.8560   -8.8620 C   0  0  0  0  0  0  0  0  0  0  0  0
   -1.0840    9.0770   -7.9830 C   0  0  0  0  0  0  0  0  0  0  0  0
    0.2700    9.9860   -9.7640 C   0  0  0  0  0  0  0  0  0  0  0  0
   -2.1400    8.1230   -7.5080 C   0  0  0  0  0  0  0  0  0  0  0  0
   -0.7070    9.0990   -9.3300 C   0  0  0  0  0  0  0  0  0  0  0  0
  1  2  1  0
  2  3  2  0
  2  4  1  0
  3  5  1  0
  3  6  1  0
  4  7  2  0
  6  8  2  0
  7  8  1  0
  8  9  1  0
  9 10  1  0
  9 11  1  6
 10 12  1  0
 10 13  2  0
 11 14  1  0
 14 15  2  0
 14 16  1  0
 16 17  2  0
 16 18  1  0
 17 19  1  0
 18 20  2  0
 19 21  1  0
 19 22  2  0
 20 22  1  0
M  END
