mac-x0344-mac-x0565
     RDKit          3D

 25 27  0  0  0  0  0  0  0  0999 V2000
    1.2050   13.6830   -4.5590 O   0  0  0  0  0  0  0  0  0  0  0  0
    0.7090   12.8480   -3.5220 C   0  0  0  0  0  0  0  0  0  0  0  0
    1.6840   12.7830   -2.5050 O   0  0  0  0  0  0  0  0  0  0  0  0
    0.3590   11.4430   -4.0720 C   0  0  0  0  0  0  0  0  0  0  0  0
   -0.6360   13.3060   -2.9850 C   0  0  0  0  0  0  0  0  0  0  0  0
    0.2280   10.5220   -3.2660 O   0  0  0  0  0  0  0  0  0  0  0  0
    0.1970   11.4040   -5.4430 N   0  0  0  0  0  0  0  0  0  0  0  0
   -0.9270   14.7850   -3.0390 C   0  0  1  0  0  0  0  0  0  0  0  0
   -0.6670   10.5340   -6.1280 C   0  0  0  0  0  0  0  0  0  0  0  0
   -1.9380   15.0590   -4.0380 O   0  0  0  0  0  0  0  0  0  0  0  0
   -1.4170   15.0580   -1.7060 O   0  0  0  0  0  0  0  0  0  0  0  0
   -0.3810    9.9570   -7.3650 C   0  0  0  0  0  0  0  0  0  0  0  0
   -1.8850   10.2390   -5.5070 C   0  0  0  0  0  0  0  0  0  0  0  0
   -2.7580   15.0200   -1.9270 C   0  0  0  0  0  0  0  0  0  0  0  0
   -3.0540   15.0170   -3.2670 C   0  0  0  0  0  0  0  0  0  0  0  0
   -1.3040    9.0970   -7.9690 C   0  0  0  0  0  0  0  0  0  0  0  0
   -2.8060    9.3810   -6.1090 C   0  0  0  0  0  0  0  0  0  0  0  0
   -3.7270   14.9920   -0.9550 C   0  0  0  0  0  0  0  0  0  0  0  0
   -4.3520   14.9770   -3.7150 C   0  0  0  0  0  0  0  0  0  0  0  0
   -2.5160    8.8070   -7.3430 C   0  0  0  0  0  0  0  0  0  0  0  0
   -5.0570   14.9550   -1.3810 C   0  0  0  0  0  0  0  0  0  0  0  0
   -5.3710   14.9470   -2.7550 C   0  0  0  0  0  0  0  0  0  0  0  0
   -6.1080   14.9250   -0.3420 C   0  0  0  0  0  0  0  0  0  0  0  0
   -5.5950   14.9920    0.9030 O   0  0  0  0  0  0  0  0  0  0  0  0
   -7.3000   14.8460   -0.5840 O   0  0  0  0  0  0  0  0  0  0  0  0
  2  1  1  0
  2  3  1  0
  2  4  1  0
  2  5  1  0
  4  6  2  0
  4  7  1  0
  8  5  1  1
  7  9  1  0
  8 10  1  0
  8 11  1  0
  9 12  2  0
  9 13  1  0
 11 14  1  0
 10 15  1  0
 14 15  2  0
 12 16  1  0
 13 17  2  0
 14 18  1  0
 15 19  1  0
 16 20  2  0
 17 20  1  0
 18 21  2  0
 19 22  2  0
 21 22  1  0
 21 23  1  0
 23 24  1  0
 23 25  2  0
M  END
