mac-x0224-mac-x0555
     RDKit          3D

 23 25  0  0  0  0  0  0  0  0999 V2000
   -3.9730   15.9180    1.6650 C   0  0  0  0  0  0  0  0  0  0  0  0
   -3.2890   14.6070    0.7710 S   0  0  2  0  0  0  0  0  0  0  0  0
   -2.5040   14.7290   -0.7340 C   0  0  0  0  0  0  0  0  0  0  0  0
   -4.5320   14.7120   -0.3630 C   0  0  0  0  0  0  0  0  0  0  0  0
   -1.2040   14.3760   -0.9500 C   0  0  0  0  0  0  0  0  0  0  0  0
   -3.3390   15.1960   -1.7510 C   0  0  0  0  0  0  0  0  0  0  0  0
   -5.8180   14.6500    0.0470 C   0  0  0  0  0  0  0  0  0  0  0  0
   -4.1560   14.8790   -1.6840 C   0  0  0  0  0  0  0  0  0  0  0  0
   -0.7220   14.4820   -2.2600 C   0  0  0  0  0  0  0  0  0  0  0  0
   -2.8660   15.3000   -3.0480 C   0  0  0  0  0  0  0  0  0  0  0  0
   -6.1690   14.4820    1.3780 C   0  0  0  0  0  0  0  0  0  0  0  0
   -6.8180   14.7630   -0.9100 C   0  0  0  0  0  0  0  0  0  0  0  0
   -5.1370   14.9910   -2.6410 C   0  0  0  0  0  0  0  0  0  0  0  0
    0.6780   14.0910   -2.4730 C   0  0  0  0  0  0  0  0  0  0  0  0
   -1.5580   14.9360   -3.2990 C   0  0  0  0  0  0  0  0  0  0  0  0
   -7.4770   14.4250    1.7580 C   0  0  0  0  0  0  0  0  0  0  0  0
   -8.1090   14.7110   -0.5790 N   0  0  0  0  0  0  0  0  0  0  0  0
   -6.4630   14.9340   -2.2410 C   0  0  0  0  0  0  0  0  0  0  0  0
   -1.0900   15.0270   -4.5830 O   0  0  0  0  0  0  0  0  0  0  0  0
    1.4960   14.0870   -1.5750 O   0  0  0  0  0  0  0  0  0  0  0  0
    0.9770   13.7340   -3.7310 O   0  0  0  0  0  0  0  0  0  0  0  0
   -7.7670   14.2560    3.1060 N   0  0  0  0  0  0  0  0  0  0  0  0
   -8.4100   14.5440    0.7350 C   0  0  0  0  0  0  0  0  0  0  0  0
  2  1  1  1
  2  3  1  0
  2  4  1  0
  3  5  2  0
  3  6  1  0
  4  7  1  0
  4  8  2  0
  5  9  1  0
  6 10  2  0
  7 11  2  0
  7 12  1  0
  8 13  1  0
  9 14  1  0
  9 15  2  0
 10 15  1  0
 11 16  1  0
 12 17  2  0
 12 18  1  0
 13 18  2  0
 15 19  1  0
 14 20  2  0
 14 21  1  0
 16 22  1  0
 16 23  2  0
 17 23  1  0
M  END
