mac-x0179-diamond-x0962_0_A
     RDKit          3D

 24 26  0  0  0  0  0  0  0  0999 V2000
    1.5620   13.0110   -2.3030 O   0  0  0  0  0  0  0  0  0  0  0  0
    1.0050   12.1900   -3.2190 C   0  0  0  0  0  0  0  0  0  0  0  0
    0.6720   11.0560   -2.9100 O   0  0  0  0  0  0  0  0  0  0  0  0
    0.8820   12.8530   -4.5820 C   0  0  0  0  0  0  0  0  0  0  0  0
    0.1090   12.0040   -5.4630 N   0  0  0  0  0  0  0  0  0  0  0  0
    0.7620   11.4730   -6.5340 C   0  0  0  0  0  0  0  0  0  0  0  0
   -1.0160   11.2800   -5.1850 C   0  0  0  0  0  0  0  0  0  0  0  0
    1.8380   11.7860   -6.9530 O   0  0  0  0  0  0  0  0  0  0  0  0
   -1.8670   11.3300   -4.2430 N   0  0  0  0  0  0  0  0  0  0  0  0
   -0.0630   10.4110   -7.0910 C   0  0  0  0  0  0  0  0  0  0  0  0
   -1.1560   10.2850   -6.2600 C   0  0  0  0  0  0  0  0  0  0  0  0
   -1.9090   12.2130   -3.0940 C   0  0  0  0  0  0  0  0  0  0  0  0
    0.1120    9.6190   -8.2100 C   0  0  0  0  0  0  0  0  0  0  0  0
   -2.1460    9.3490   -6.5010 C   0  0  0  0  0  0  0  0  0  0  0  0
   -1.8790   13.6970   -3.5200 C   0  0  0  0  0  0  0  0  0  0  0  0
   -0.8770    8.6640   -8.4750 C   0  0  0  0  0  0  0  0  0  0  0  0
   -1.9960    8.5310   -7.6260 C   0  0  0  0  0  0  0  0  0  0  0  0
   -2.5240   14.4460   -2.4400 C   0  0  0  0  0  0  0  0  0  0  0  0
   -3.1200   14.8310   -1.4920 C   0  0  0  0  0  0  0  0  0  0  0  0
   -3.9050   15.0130   -0.3480 C   0  0  0  0  0  0  0  0  0  0  0  0
   -3.4450   15.3990    0.8760 N   0  0  0  0  0  0  0  0  0  0  0  0
   -5.2530   14.8400   -0.2040 C   0  0  0  0  0  0  0  0  0  0  0  0
   -4.5230   15.4400    1.7060 C   0  0  0  0  0  0  0  0  0  0  0  0
   -5.6310   15.1040    1.0820 N   0  0  0  0  0  0  0  0  0  0  0  0
  1  2  1  0
  2  3  2  0
  2  4  1  0
  4  5  1  0
  5  6  1  0
  5  7  1  0
  6  8  2  0
  7  9  2  3
  6 10  1  0
  7 11  1  0
 10 11  2  0
  9 12  1  0
 10 13  1  0
 11 14  1  0
 12 15  1  0
 13 16  2  0
 14 17  2  0
 16 17  1  0
 15 18  1  0
 18 19  3  0
 19 20  1  0
 20 21  1  0
 20 22  2  0
 21 23  1  0
 22 24  1  0
 23 24  2  0
M  END
