mac-x0137-mac-x0301
     RDKit          3D

 19 21  0  0  0  0  0  0  0  0999 V2000
   -2.3430   12.9010   -3.8240 F   0  0  0  0  0  0  0  0  0  0  0  0
   -1.1430   13.2550   -4.3810 C   0  0  2  0  0  0  0  0  0  0  0  0
   -0.3290   11.9770   -4.4930 C   0  0  0  0  0  0  0  0  0  0  0  0
   -0.4230   14.3130   -3.5130 C   0  0  0  0  0  0  0  0  0  0  0  0
    0.0590   13.7930   -2.2030 N   0  0  0  0  0  0  0  0  0  0  0  0
   -0.0020   11.4820   -3.0900 C   0  0  0  0  0  0  0  0  0  0  0  0
    0.8060   12.5290   -2.3340 C   0  0  0  0  0  0  0  0  0  0  0  0
   -0.5650   14.0890   -0.9730 C   0  0  0  0  0  0  0  0  0  0  0  0
    0.0900   13.8750    0.2260 N   0  0  0  0  0  0  0  0  0  0  0  0
   -1.8050   14.5930   -0.8580 C   0  0  0  0  0  0  0  0  0  0  0  0
   -0.5120   14.0790    1.4340 C   0  0  0  0  0  0  0  0  0  0  0  0
   -2.3890   14.8360    0.4960 C   0  0  0  0  0  0  0  0  0  0  0  0
   -2.8420   15.0070   -1.7320 C   0  0  0  0  0  0  0  0  0  0  0  0
   -2.8210   15.0120   -3.1940 C   0  0  0  0  0  0  0  0  0  0  0  0
   -1.6980   14.5350    1.6410 N   0  0  0  0  0  0  0  0  0  0  0  0
   -3.5980   15.3330    0.4370 N   0  0  0  0  0  0  0  0  0  0  0  0
   -3.8550   15.4280   -0.9350 C   0  0  0  0  0  0  0  0  0  0  0  0
   -1.7690   15.6780   -3.7150 O   0  0  0  0  0  0  0  0  0  0  0  0
   -3.6190   14.4840   -3.9400 O   0  0  0  0  0  0  0  0  0  0  0  0
  2  1  1  1
  2  3  1  0
  2  4  1  0
  4  5  1  0
  3  6  1  0
  5  7  1  0
  6  7  1  0
  5  8  1  0
  8  9  1  0
  8 10  2  0
  9 11  1  0
 10 12  1  0
 10 13  1  0
 13 14  1  0
 11 15  2  0
 12 15  1  0
 12 16  2  0
 13 17  2  0
 16 17  1  0
 14 18  1  0
 14 19  2  0
M  END
