mac-x0360-diamond-x0628_0_A
     RDKit          3D

 26 27  0  0  0  0  0  0  0  0999 V2000
   -7.6510   11.6500    1.7430 Cl  0  0  0  0  0  0  0  0  0  0  0  0
   -6.4570   11.9000    0.5260 C   0  0  0  0  0  0  0  0  0  0  0  0
   -6.2740   10.9350   -0.4560 C   0  0  0  0  0  0  0  0  0  0  0  0
   -5.6880   13.0620    0.5340 C   0  0  0  0  0  0  0  0  0  0  0  0
   -4.7210   13.2480   -0.4650 C   0  0  0  0  0  0  0  0  0  0  0  0
   -5.3040   11.1250   -1.4410 C   0  0  0  0  0  0  0  0  0  0  0  0
   -5.0820    9.9120   -2.6430 Cl  0  0  0  0  0  0  0  0  0  0  0  0
   -3.7560   14.7470   -0.4500 S   0  0  0  0  0  0  0  0  0  0  0  0
   -4.5210   12.2800   -1.4540 C   0  0  0  0  0  0  0  0  0  0  0  0
   -2.7590   14.5500   -1.7980 N   0  0  0  0  0  0  0  0  0  0  0  0
   -4.6670   15.8170   -0.7750 O   0  0  0  0  0  0  0  0  0  0  0  0
   -2.9270   14.7860    0.7320 O   0  0  0  0  0  0  0  0  0  0  0  0
   -3.3170   14.6260   -3.1590 C   0  0  0  0  0  0  0  0  0  0  0  0
   -2.3550   13.9520   -4.1520 C   0  0  0  0  0  0  0  0  0  0  0  0
   -2.2750   12.4290   -3.9430 C   0  0  0  0  0  0  0  0  0  0  0  0
   -1.5040   11.6970   -5.0000 C   0  0  0  0  0  0  0  0  0  0  0  0
   -1.8780   10.5650   -5.5760 N   0  0  0  0  0  0  0  0  0  0  0  0
   -0.2930   12.0750   -5.5420 N   0  0  0  0  0  0  0  0  0  0  0  0
    0.5380   13.2310   -5.2610 C   0  0  0  0  0  0  0  0  0  0  0  0
   -0.8640   10.2910   -6.4540 C   0  0  0  0  0  0  0  0  0  0  0  0
    0.1200   11.1920   -6.4670 N   0  0  0  0  0  0  0  0  0  0  0  0
   -0.8550    9.0950   -7.3210 C   0  0  0  0  0  0  0  0  0  0  0  0
    1.6560   12.9340   -4.2580 C   0  0  0  0  0  0  0  0  0  0  0  0
    1.1250   12.2350   -3.0280 C   0  0  0  0  0  0  0  0  0  0  0  0
    0.6310   11.1180   -3.0040 O   0  0  0  0  0  0  0  0  0  0  0  0
    1.2570   12.9760   -1.9090 O   0  0  0  0  0  0  0  0  0  0  0  0
  1  2  1  0
  2  3  2  0
  2  4  1  0
  4  5  2  0
  3  6  1  0
  6  7  1  0
  5  8  1  0
  5  9  1  0
  6  9  2  0
  8 10  1  0
  8 11  2  0
  8 12  2  0
 10 13  1  0
 13 14  1  0
 14 15  1  0
 15 16  1  0
 16 17  2  0
 16 18  1  0
 18 19  1  0
 17 20  1  0
 18 21  1  0
 20 21  2  0
 20 22  1  0
 19 23  1  0
 23 24  1  0
 24 25  2  0
 24 26  1  0
M  END
