mac-x0178-diamond-x0905_0_A
     RDKit          3D

 23 24  0  0  0  0  0  0  0  0999 V2000
   -0.7600   18.7150   -5.0800 N   0  0  0  0  0  0  0  0  0  0  0  0
   -1.4240   17.3390   -5.6890 S   0  0  2  0  0  0  0  0  0  0  0  0
   -1.3060   17.5920   -7.0870 O   0  0  0  0  0  0  0  0  0  0  0  0
   -2.6980   17.1920   -4.9740 N   0  0  0  0  0  0  0  0  0  0  0  0
   -0.7100   15.9330   -4.8990 C   0  0  0  0  0  0  0  0  0  0  0  0
   -3.3820   15.9280   -5.3350 C   0  0  0  0  0  0  0  0  0  0  0  0
    0.3830   16.1140   -4.0570 C   0  0  0  0  0  0  0  0  0  0  0  0
   -1.2760   14.6640   -5.0950 C   0  0  0  0  0  0  0  0  0  0  0  0
   -3.5790   15.0350   -4.0940 C   0  0  0  0  0  0  0  0  0  0  0  0
    0.9070   15.0110   -3.3870 C   0  0  0  0  0  0  0  0  0  0  0  0
   -0.7510   13.5680   -4.4240 C   0  0  0  0  0  0  0  0  0  0  0  0
   -2.8140   15.4780   -2.8370 C   0  0  0  0  0  0  0  0  0  0  0  0
    0.3310   13.7460   -3.5680 C   0  0  0  0  0  0  0  0  0  0  0  0
    0.8570   12.5780   -2.8500 C   0  0  0  0  0  0  0  0  0  0  0  0
   -3.6510   15.3450   -1.5830 C   0  0  0  0  0  0  0  0  0  0  0  0
    1.6030   12.6880   -1.9110 O   0  0  0  0  0  0  0  0  0  0  0  0
    0.4070   11.4100   -3.3440 O   0  0  0  0  0  0  0  0  0  0  0  0
   -3.0790   15.3040   -0.3040 C   0  0  0  0  0  0  0  0  0  0  0  0
   -5.0340   15.2590   -1.6840 C   0  0  0  0  0  0  0  0  0  0  0  0
   -3.9280   15.1750    0.7970 C   0  0  0  0  0  0  0  0  0  0  0  0
   -5.7680   15.1340   -0.5330 C   0  0  0  0  0  0  0  0  0  0  0  0
   -7.1200   15.0480   -0.5970 O   0  0  0  0  0  0  0  0  0  0  0  0
   -5.2730   15.0880    0.7050 N   0  0  0  0  0  0  0  0  0  0  0  0
  2  1  1  1
  2  3  2  0
  2  4  2  0
  2  5  1  0
  4  6  1  0
  5  7  2  0
  5  8  1  0
  6  9  1  0
  7 10  1  0
  8 11  2  0
  9 12  1  0
 10 13  2  0
 11 13  1  0
 13 14  1  0
 12 15  1  0
 14 16  2  0
 14 17  1  0
 15 18  2  0
 15 19  1  0
 18 20  1  0
 19 21  2  0
 21 22  1  0
 20 23  2  0
 21 23  1  0
M  END
