mac-x0255-mac-x0510
     RDKit          3D

 25 28  0  0  0  0  0  0  0  0999 V2000
    0.7040   12.5870   -1.4860 O   0  0  0  0  0  0  0  0  0  0  0  0
    0.4980   12.0300   -2.7040 C   0  0  0  0  0  0  0  0  0  0  0  0
   -0.1260   10.9880   -2.7640 O   0  0  0  0  0  0  0  0  0  0  0  0
    1.1100   12.8000   -3.8510 C   0  0  0  0  0  0  0  0  0  0  0  0
    0.4760   14.1400   -4.1660 C   0  0  0  0  0  0  0  0  0  0  0  0
   -0.5310   14.9120   -3.6160 C   0  0  0  0  0  0  0  0  0  0  0  0
    1.0930   14.9400   -5.4800 S   0  0  0  0  0  0  0  0  0  0  0  0
   -1.3280   14.5270   -2.4180 C   0  0  0  0  0  0  0  0  0  0  0  0
   -0.7330   16.1600   -4.3250 C   0  0  0  0  0  0  0  0  0  0  0  0
    0.0960   16.3060   -5.3630 C   0  0  0  0  0  0  0  0  0  0  0  0
   -2.7280   14.9890   -2.4550 N   0  0  0  0  0  0  0  0  0  0  0  0
   -1.6200   17.2060   -4.1160 C   0  0  0  0  0  0  0  0  0  0  0  0
    0.0740   17.4520   -6.1730 C   0  0  0  0  0  0  0  0  0  0  0  0
   -1.6600   18.3520   -4.9250 C   0  0  0  0  0  0  0  0  0  0  0  0
   -0.8130   18.4670   -5.9470 C   0  0  0  0  0  0  0  0  0  0  0  0
   -3.1870   15.2220   -1.2870 C   0  0  0  0  0  0  0  0  0  0  0  0
   -2.2880   15.0620   -0.2200 C   0  0  0  0  0  0  0  0  0  0  0  0
   -4.4400   15.5910   -0.8520 N   0  0  0  0  0  0  0  0  0  0  0  0
   -4.9340   15.1600    0.3740 C   0  0  0  0  0  0  0  0  0  0  0  0
   -2.6900   14.8990    1.0540 C   0  0  0  0  0  0  0  0  0  0  0  0
   -0.9250   15.0260   -0.1760 N   0  0  0  0  0  0  0  0  0  0  0  0
   -6.1380   15.0130    0.5550 O   0  0  0  0  0  0  0  0  0  0  0  0
   -4.0110   14.8990    1.3600 N   0  0  0  0  0  0  0  0  0  0  0  0
   -1.6480   14.7490    1.8980 N   0  0  0  0  0  0  0  0  0  0  0  0
   -0.5850   14.8340    1.1250 C   0  0  0  0  0  0  0  0  0  0  0  0
  1  2  1  0
  2  3  2  0
  2  4  1  0
  4  5  1  0
  5  6  2  0
  5  7  1  0
  6  8  1  0
  6  9  1  0
  7 10  1  0
  9 10  2  0
  8 11  1  0
  9 12  1  0
 10 13  1  0
 12 14  2  0
 13 15  2  0
 14 15  1  0
 11 16  2  3
 16 17  1  0
 16 18  1  0
 18 19  1  0
 17 20  2  0
 17 21  1  0
 19 22  2  0
 19 23  1  0
 20 23  1  0
 20 24  1  0
 21 25  1  0
 24 25  2  0
M  END
