mac-x0402-mac-x0451
     RDKit          3D

 11 12  0  0  0  0  0  0  0  0999 V2000
   -1.7580   14.8510   -3.3830 Cl  0  0  0  0  0  0  0  0  0  0  0  0
   -3.0790   14.8980   -2.2770 C   0  0  0  0  0  0  0  0  0  0  0  0
   -4.3640   15.0200   -2.7800 C   0  0  0  0  0  0  0  0  0  0  0  0
   -2.8330   14.8100   -0.9050 C   0  0  0  0  0  0  0  0  0  0  0  0
   -3.9420   14.8480   -0.0520 C   0  0  0  0  0  0  0  0  0  0  0  0
   -5.4530   15.0560   -1.9120 C   0  0  0  0  0  0  0  0  0  0  0  0
   -5.2420   14.9650   -0.5330 C   0  0  0  0  0  0  0  0  0  0  0  0
   -3.9980   14.7670    1.6590 S   0  0  0  0  0  0  0  0  0  0  0  0
   -5.7150   14.8890    1.6050 C   0  0  0  0  0  0  0  0  0  0  0  0
   -6.2300   14.9810    0.4170 N   0  0  0  0  0  0  0  0  0  0  0  0
   -6.4870   14.8960    2.7010 N   0  0  0  0  0  0  0  0  0  0  0  0
  1  2  1  0
  2  3  2  0
  2  4  1  0
  4  5  2  0
  3  6  1  0
  5  7  1  0
  6  7  2  0
  5  8  1  0
  8  9  1  0
  7 10  1  0
  9 10  2  0
  9 11  1  0
M  END
