mac-x0277-mac-x0319
     RDKit          3D

 13 13  0  0  0  0  0  0  0  0999 V2000
   -1.4240   18.3720   -5.1360 Cl  0  0  0  0  0  0  0  0  0  0  0  0
   -0.6560   16.8440   -4.8680 C   0  0  0  0  0  0  0  0  0  0  0  0
   -1.3490   15.6460   -5.0360 C   0  0  0  0  0  0  0  0  0  0  0  0
    0.6810   16.8070   -4.4750 C   0  0  0  0  0  0  0  0  0  0  0  0
   -3.0110   15.5920   -5.5040 Cl  0  0  0  0  0  0  0  0  0  0  0  0
    1.3480   17.9790   -4.2930 O   0  0  0  0  0  0  0  0  0  0  0  0
   -0.6980   14.4260   -4.8240 C   0  0  0  0  0  0  0  0  0  0  0  0
    1.3360   15.5910   -4.2630 C   0  0  0  0  0  0  0  0  0  0  0  0
    0.6480   14.3870   -4.4390 C   0  0  0  0  0  0  0  0  0  0  0  0
    1.3360   13.0620   -4.2180 C   0  0  0  0  0  0  0  0  0  0  0  0
    0.9080   12.4000   -2.9320 C   0  0  0  0  0  0  0  0  0  0  0  0
    0.2370   11.2520   -3.1460 O   0  0  0  0  0  0  0  0  0  0  0  0
    1.0990   12.7940   -1.7970 O   0  0  0  0  0  0  0  0  0  0  0  0
  1  2  1  0
  2  3  2  0
  2  4  1  0
  3  5  1  0
  4  6  1  0
  3  7  1  0
  4  8  2  0
  7  9  2  0
  8  9  1  0
  9 10  1  0
 10 11  1  0
 11 12  1  0
 11 13  2  0
M  END
