mac-x0319-mac-x0223
     RDKit          3D

 13 13  0  0  0  0  0  0  0  0999 V2000
    0.4540   10.4970   -2.5130 O   0  0  0  0  0  0  0  0  0  0  0  0
    0.6430   11.8430   -2.5230 C   0  0  0  0  0  0  0  0  0  0  0  0
    0.6090   12.4460   -1.4610 O   0  0  0  0  0  0  0  0  0  0  0  0
    0.8720   12.3960   -3.9250 C   0  0  0  0  0  0  0  0  0  0  0  0
    0.3020   13.7920   -4.1440 C   0  0  0  0  0  0  0  0  0  0  0  0
    1.1380   14.9170   -4.0210 C   0  0  0  0  0  0  0  0  0  0  0  0
   -1.0680   14.0060   -4.4680 C   0  0  0  0  0  0  0  0  0  0  0  0
    0.6110   16.1950   -4.2150 C   0  0  0  0  0  0  0  0  0  0  0  0
   -1.5430   15.3260   -4.6560 C   0  0  0  0  0  0  0  0  0  0  0  0
    1.4280   17.2540   -4.0780 O   0  0  0  0  0  0  0  0  0  0  0  0
   -2.8330   15.6820   -4.9680 O   0  0  0  0  0  0  0  0  0  0  0  0
   -0.7050   16.3910   -4.5310 C   0  0  0  0  0  0  0  0  0  0  0  0
    0.7880   18.3490   -4.7750 O   0  0  0  0  0  0  0  0  0  0  0  0
  1  2  1  0
  2  3  2  0
  2  4  1  0
  4  5  1  0
  5  6  2  0
  5  7  1  0
  6  8  1  0
  7  9  2  0
  8 10  1  0
  9 11  1  0
  8 12  2  0
  9 12  1  0
 10 13  1  0
M  END
