mac-x0412-mac-x0303
     RDKit          3D

 15 16  0  0  0  0  0  0  0  0999 V2000
   -7.9380   15.0280   -0.7090 O   0  0  0  0  0  0  0  0  0  0  0  0
   -6.9370   14.9200   -0.0140 C   0  0  0  0  0  0  0  0  0  0  0  0
   -6.9910   14.7250    1.3840 N   0  0  0  0  0  0  0  0  0  0  0  0
   -5.5880   14.9850   -0.6200 C   0  0  0  0  0  0  0  0  0  0  0  0
   -8.4160   14.5790    2.2570 S   0  0  0  0  0  0  0  0  0  0  0  0
   -4.4690   15.0800    0.2120 C   0  0  0  0  0  0  0  0  0  0  0  0
   -5.8550   14.9780    2.2000 C   0  0  0  0  0  0  0  0  0  0  0  0
   -5.4340   14.9480   -2.0060 C   0  0  0  0  0  0  0  0  0  0  0  0
   -8.1440   13.1310    3.0320 N   0  0  0  0  0  0  0  0  0  0  0  0
   -8.4450   15.6100    3.2580 O   0  0  0  0  0  0  0  0  0  0  0  0
   -9.5290   14.3720    1.3520 O   0  0  0  0  0  0  0  0  0  0  0  0
   -4.6550   15.1380    1.6450 C   0  0  0  0  0  0  0  0  0  0  0  0
   -3.1960   15.1220   -0.3450 C   0  0  0  0  0  0  0  0  0  0  0  0
   -4.1580   14.9960   -2.5620 C   0  0  0  0  0  0  0  0  0  0  0  0
   -3.0410   15.0780   -1.7310 C   0  0  0  0  0  0  0  0  0  0  0  0
  1  2  2  0
  2  3  1  0
  2  4  1  0
  3  5  1  0
  4  6  2  0
  3  7  1  0
  4  8  1  0
  5  9  1  0
  5 10  2  0
  5 11  2  0
  6 12  1  0
  7 12  2  0
  6 13  1  0
  8 14  2  0
 13 15  2  0
 14 15  1  0
M  END
