mac-x0115-mac-x0411
     RDKit          3D

 31 33  0  0  0  0  0  0  0  0999 V2000
   -1.3790   18.6300   -5.0780 C   0  0  0  0  0  0  0  0  0  0  0  0
   -0.3930   17.8650   -5.9350 C   0  0  0  0  0  0  0  0  0  0  0  0
    1.0470   18.2750   -5.6660 C   0  0  0  0  0  0  0  0  0  0  0  0
   -0.4920   16.4780   -5.6330 O   0  0  0  0  0  0  0  0  0  0  0  0
    0.3810   16.0150   -4.6040 C   0  0  0  0  0  0  0  0  0  0  0  0
   -0.4790   15.1150   -3.7270 C   0  0  0  0  0  0  0  0  0  0  0  0
   -0.4890   15.4910   -2.2990 N   0  0  0  0  0  0  0  0  0  0  0  0
    0.4670   14.8540   -1.5840 C   0  0  0  0  0  0  0  0  0  0  0  0
   -1.7310   15.4770   -1.7450 C   0  0  0  0  0  0  0  0  0  0  0  0
    1.6050   14.1140   -2.6890 S   0  0  0  0  0  0  0  0  0  0  0  0
    0.4170   14.8150   -0.2020 N   0  0  0  0  0  0  0  0  0  0  0  0
   -1.9670   14.8610   -0.4290 C   0  0  1  0  0  0  0  0  0  0  0  0
   -2.8570   15.9230   -2.2520 C   0  0  0  0  0  0  0  0  0  0  0  0
    2.9940   13.0820   -2.6410 C   0  0  0  0  0  0  0  0  0  0  0  0
   -0.7820   14.8660    0.5170 C   0  0  0  0  0  0  0  0  0  0  0  0
   -3.3470   15.1810   -0.0440 N   0  0  0  0  0  0  0  0  0  0  0  0
   -3.7910   15.7080   -1.1450 C   0  0  0  0  0  0  0  0  0  0  0  0
   -0.8170   14.8600    1.7430 O   0  0  0  0  0  0  0  0  0  0  0  0
    2.6860   12.2270   -3.7290 O   0  0  0  0  0  0  0  0  0  0  0  0
    1.3400   11.9870   -3.9970 C   0  0  0  0  0  0  0  0  0  0  0  0
    0.5930   11.4040   -3.2180 O   0  0  0  0  0  0  0  0  0  0  0  0
    0.9640   12.5070   -5.3940 C   0  0  0  0  0  0  0  0  0  0  0  0
    0.7400   11.4390   -6.3520 O   0  0  0  0  0  0  0  0  0  0  0  0
   -0.4910   10.7920   -6.3050 C   0  0  0  0  0  0  0  0  0  0  0  0
   -1.6370   11.3880   -5.7520 C   0  0  0  0  0  0  0  0  0  0  0  0
   -0.6140    9.4880   -6.8390 C   0  0  0  0  0  0  0  0  0  0  0  0
    0.6880    8.6480   -7.5940 Cl  0  0  0  0  0  0  0  0  0  0  0  0
   -1.6340   12.9860   -5.1100 Cl  0  0  0  0  0  0  0  0  0  0  0  0
   -2.8520   10.6970   -5.7070 C   0  0  0  0  0  0  0  0  0  0  0  0
   -1.8310    8.8070   -6.7850 C   0  0  0  0  0  0  0  0  0  0  0  0
   -2.9490    9.4070   -6.2170 C   0  0  0  0  0  0  0  0  0  0  0  0
  1  2  1  0
  2  3  1  0
  2  4  1  0
  4  5  1  0
  5  6  1  0
  6  7  1  0
  7  8  1  0
  7  9  1  0
  8 10  2  3
  8 11  1  0
  9 12  1  0
  9 13  2  0
 10 14  1  0
 11 15  1  0
 12 15  1  0
 12 16  1  1
 13 17  1  0
 16 17  2  0
 15 18  2  0
 14 19  1  0
 19 20  1  0
 20 21  2  0
 20 22  1  0
 22 23  1  0
 23 24  1  0
 24 25  2  0
 24 26  1  0
 26 27  1  0
 25 28  1  0
 25 29  1  0
 26 30  2  0
 29 31  2  0
 30 31  1  0
M  END
