mac-x0584-mac-x0178
     RDKit          3D

 25 28  0  0  0  0  0  0  0  0999 V2000
   -0.3460   17.6170   -6.1630 N   0  0  0  0  0  0  0  0  0  0  0  0
   -1.8340   17.1780   -5.5390 S   0  0  0  0  0  0  0  0  0  0  0  0
   -2.7100   17.1030   -6.6860 O   0  0  0  0  0  0  0  0  0  0  0  0
   -2.0160   18.1830   -4.5300 O   0  0  0  0  0  0  0  0  0  0  0  0
   -1.5680   15.5210   -4.8410 C   0  0  1  0  0  0  0  0  0  0  0  0
   -0.1100   15.1800   -4.4790 C   0  0  0  0  0  0  0  0  0  0  0  0
   -2.3870   15.1780   -3.5910 C   0  0  0  0  0  0  0  0  0  0  0  0
   -0.2230   14.1120   -3.3350 C   0  0  2  0  0  0  0  0  0  0  0  0
   -1.4280   14.5710   -2.6190 N   0  0  0  0  0  0  0  0  0  0  0  0
    1.0490   13.8270   -2.5200 C   0  0  0  0  0  0  0  0  0  0  0  0
   -0.2600   12.7240   -3.9180 C   0  0  0  0  0  0  0  0  0  0  0  0
   -1.5320   14.6910   -1.2360 C   0  0  0  0  0  0  0  0  0  0  0  0
    1.8490   14.6200   -2.0840 O   0  0  0  0  0  0  0  0  0  0  0  0
    1.2510   12.5010   -2.3070 O   0  0  0  0  0  0  0  0  0  0  0  0
    1.0380   12.2790   -4.6160 C   0  0  0  0  0  0  0  0  0  0  0  0
   -0.9970   12.2630   -5.1700 C   0  0  0  0  0  0  0  0  0  0  0  0
   -0.4320   14.5560   -0.4220 N   0  0  0  0  0  0  0  0  0  0  0  0
   -2.6750   14.9470   -0.5920 C   0  0  0  0  0  0  0  0  0  0  0  0
    0.1570   11.2640   -5.3410 C   0  0  0  0  0  0  0  0  0  0  0  0
   -0.5090   14.6210    0.9410 C   0  0  0  0  0  0  0  0  0  0  0  0
   -2.6820   15.0430    0.8870 C   0  0  0  0  0  0  0  0  0  0  0  0
   -4.0290   15.1870   -0.9510 C   0  0  0  0  0  0  0  0  0  0  0  0
   -1.5640   14.8420    1.6390 N   0  0  0  0  0  0  0  0  0  0  0  0
   -3.8590   15.3310    1.3460 N   0  0  0  0  0  0  0  0  0  0  0  0
   -4.6520   15.4060    0.2120 C   0  0  0  0  0  0  0  0  0  0  0  0
  2  1  1  0
  2  3  2  0
  2  4  2  0
  5  2  1  1
  5  6  1  0
  5  7  1  0
  6  8  1  0
  7  9  1  0
  8  9  1  0
  8 10  1  1
  8 11  1  0
  9 12  1  0
 10 13  2  0
 10 14  1  0
 11 15  1  0
 11 16  1  0
 12 17  1  0
 12 18  2  0
 15 19  1  0
 16 19  1  0
 17 20  1  0
 18 21  1  0
 18 22  1  0
 20 23  2  0
 21 23  1  0
 21 24  2  0
 22 25  2  0
 24 25  1  0
M  END
