mac-x0567-mac-x0328
     RDKit          3D

 14 15  0  0  0  0  0  0  0  0999 V2000
    0.2050   14.0920   -0.0600 N   0  0  0  0  0  0  0  0  0  0  0  0
   -1.0510   14.3830    0.3610 C   0  0  0  0  0  0  0  0  0  0  0  0
   -1.3520   14.4100    1.6820 N   0  0  0  0  0  0  0  0  0  0  0  0
   -2.2390   14.6900   -0.2760 C   0  0  0  0  0  0  0  0  0  0  0  0
   -2.6360   14.7080    1.9560 N   0  0  0  0  0  0  0  0  0  0  0  0
   -3.2130   14.8870    0.7710 C   0  0  0  0  0  0  0  0  0  0  0  0
   -2.5220   14.8030   -1.6380 C   0  0  0  0  0  0  0  0  0  0  0  0
   -1.5870   14.6200   -2.7360 C   0  0  0  0  0  0  0  0  0  0  0  0
   -4.5490   15.2140    0.5010 C   0  0  0  0  0  0  0  0  0  0  0  0
   -3.8830   15.1330   -1.8960 C   0  0  0  0  0  0  0  0  0  0  0  0
   -2.0700   14.6450   -3.9870 O   0  0  0  0  0  0  0  0  0  0  0  0
   -0.4000   14.4540   -2.5470 O   0  0  0  0  0  0  0  0  0  0  0  0
   -4.8480   15.3270   -0.8600 C   0  0  0  0  0  0  0  0  0  0  0  0
   -6.1440   15.6370   -1.2110 O   0  0  0  0  0  0  0  0  0  0  0  0
  1  2  1  0
  2  3  1  0
  2  4  2  0
  3  5  1  0
  4  6  1  0
  5  6  2  0
  4  7  1  0
  7  8  1  0
  6  9  1  0
  7 10  2  0
  8 11  1  0
  8 12  2  0
  9 13  2  0
 10 13  1  0
 13 14  1  0
M  END
