mac-x0387-mac-x0190
     RDKit          3D

 20 23  0  0  0  0  0  0  0  0999 V2000
   -3.6070   15.0560    1.8260 N   0  0  0  0  0  0  0  0  0  0  0  0
   -2.4610   14.9060    1.0770 C   0  0  0  0  0  0  0  0  0  0  0  0
   -1.3470   14.9690    1.7890 N   0  0  0  0  0  0  0  0  0  0  0  0
   -2.4770   14.7130   -0.2880 C   0  0  0  0  0  0  0  0  0  0  0  0
   -1.2260   14.6250   -0.9290 C   0  0  0  0  0  0  0  0  0  0  0  0
   -0.1790   14.8660    1.1600 C   0  0  0  0  0  0  0  0  0  0  0  0
   -3.7790   14.5680   -1.0610 C   0  0  2  0  0  0  0  0  0  0  0  0
   -0.0530   14.7020   -0.1890 C   0  0  0  0  0  0  0  0  0  0  0  0
   -1.1170   14.4520   -2.3700 C   0  0  0  0  0  0  0  0  0  0  0  0
   -3.5690   14.0890   -2.5300 C   0  0  0  0  0  0  0  0  0  0  0  0
   -4.9540   15.6640   -1.2310 C   0  0  0  0  0  0  0  0  0  0  0  0
   -4.4050   13.4470   -0.0850 C   0  0  0  0  0  0  0  0  0  0  0  0
   -2.1970   14.2130   -3.1120 C   0  0  0  0  0  0  0  0  0  0  0  0
   -6.0570   15.0500   -0.4900 C   0  0  0  0  0  0  0  0  0  0  0  0
   -5.7700   13.9030    0.1370 C   0  0  0  0  0  0  0  0  0  0  0  0
   -7.3570   15.3020   -0.2270 N   0  0  0  0  0  0  0  0  0  0  0  0
   -6.8170   13.4180    0.8280 N   0  0  0  0  0  0  0  0  0  0  0  0
   -7.7820   14.2810    0.5990 C   0  0  0  0  0  0  0  0  0  0  0  0
   -9.1670   14.2240    1.1290 C   0  0  0  0  0  0  0  0  0  0  0  0
   -9.1760   14.9660    2.3460 O   0  0  0  0  0  0  0  0  0  0  0  0
  1  2  1  0
  2  3  2  0
  2  4  1  0
  4  5  2  0
  3  6  1  0
  4  7  1  0
  5  8  1  0
  6  8  2  0
  5  9  1  0
  7 10  1  6
  7 11  1  0
  7 12  1  0
  9 13  2  0
 10 13  1  0
 11 14  1  0
 12 15  1  0
 14 15  2  0
 14 16  1  0
 15 17  1  0
 16 18  1  0
 17 18  2  0
 18 19  1  0
 19 20  1  0
M  END
