mac-x0228-diamond-x0926_0_A
     RDKit          3D

 13 14  0  0  0  0  0  0  0  0999 V2000
   -1.1910   14.4960   -1.7670 O   0  0  0  0  0  0  0  0  0  0  0  0
   -2.1450   14.7060   -2.6980 C   0  0  0  0  0  0  0  0  0  0  0  0
   -1.9320   14.5540   -3.8920 O   0  0  0  0  0  0  0  0  0  0  0  0
   -3.4700   15.1540   -2.1150 C   0  0  2  0  0  0  0  0  0  0  0  0
   -3.5510   14.7660   -0.6270 C   0  0  0  0  0  0  0  0  0  0  0  0
   -4.6540   14.6470   -2.9580 C   0  0  0  0  0  0  0  0  0  0  0  0
   -4.9090   15.2200   -0.1190 C   0  0  1  0  0  0  0  0  0  0  0  0
   -5.9830   14.7980   -2.2210 C   0  0  0  0  0  0  0  0  0  0  0  0
   -7.0010   15.1990   -2.7230 O   0  0  0  0  0  0  0  0  0  0  0  0
   -5.9840   14.3800   -0.7880 C   0  0  2  0  0  0  0  0  0  0  0  0
   -5.3160   15.0060    1.2780 C   0  0  0  0  0  0  0  0  0  0  0  0
   -7.1590   14.5050   -0.0020 O   0  0  0  0  0  0  0  0  0  0  0  0
   -6.5890   14.5950    1.2600 C   0  0  0  0  0  0  0  0  0  0  0  0
  1  2  1  0
  2  3  2  0
  4  2  1  6
  4  5  1  0
  4  6  1  0
  7  5  1  1
  6  8  1  0
  8  9  2  0
  7 10  1  0
  8 10  1  0
  7 11  1  0
 10 12  1  1
 11 13  2  0
 12 13  1  0
M  END
