mac-x0305-mac-x0182
     RDKit          3D

 24 26  0  0  0  0  0  0  0  0999 V2000
    0.2230   13.2230   -0.4640 O   0  0  0  0  0  0  0  0  0  0  0  0
   -0.5580   14.0140   -1.2810 C   0  0  0  0  0  0  0  0  0  0  0  0
   -0.4140   14.3310   -2.5200 N   0  0  0  0  0  0  0  0  0  0  0  0
   -1.7820   14.5540   -0.6720 C   0  0  0  0  0  0  0  0  0  0  0  0
    0.6060   13.9530   -3.4750 C   0  0  0  0  0  0  0  0  0  0  0  0
   -2.0480   14.7830    0.6790 C   0  0  0  0  0  0  0  0  0  0  0  0
   -2.6740   14.8150   -1.6850 N   0  0  0  0  0  0  0  0  0  0  0  0
   -1.1640   14.5260    1.6880 O   0  0  0  0  0  0  0  0  0  0  0  0
   -0.2130   13.7180   -4.7630 C   0  0  0  0  0  0  0  0  0  0  0  0
   -3.3060   15.3110    0.9870 C   0  0  0  0  0  0  0  0  0  0  0  0
   -3.8650   15.3230   -1.3400 C   0  0  0  0  0  0  0  0  0  0  0  0
   -1.2440   12.6470   -4.4800 N   0  0  0  0  0  0  0  0  0  0  0  0
   -4.2220   15.5830   -0.0330 C   0  0  0  0  0  0  0  0  0  0  0  0
   -0.6190   11.2630   -4.4000 S   0  0  2  0  0  0  0  0  0  0  0  0
   -0.2720   10.4670   -3.2450 O   0  0  0  0  0  0  0  0  0  0  0  0
    0.8230   11.6890   -5.1060 N   0  0  0  0  0  0  0  0  0  0  0  0
   -1.1310   10.2390   -5.7060 C   0  0  0  0  0  0  0  0  0  0  0  0
    0.8160   11.3830   -6.4350 C   0  0  0  0  0  0  0  0  0  0  0  0
   -0.2510   10.4140   -6.7560 C   0  0  0  0  0  0  0  0  0  0  0  0
   -2.2080    9.3760   -5.7630 C   0  0  0  0  0  0  0  0  0  0  0  0
    1.5830   11.7920   -7.2410 O   0  0  0  0  0  0  0  0  0  0  0  0
   -2.3820    8.6650   -6.9560 C   0  0  0  0  0  0  0  0  0  0  0  0
   -0.4110    9.7210   -7.9440 C   0  0  0  0  0  0  0  0  0  0  0  0
   -1.4950    8.8360   -8.0370 C   0  0  0  0  0  0  0  0  0  0  0  0
  1  2  1  0
  2  3  2  3
  2  4  1  0
  3  5  1  0
  4  6  2  0
  4  7  1  0
  6  8  1  0
  5  9  1  0
  6 10  1  0
  7 11  2  0
  9 12  1  0
 10 13  2  0
 11 13  1  0
 12 14  2  0
 14 15  2  0
 14 16  1  6
 14 17  1  0
 16 18  1  0
 17 19  2  0
 18 19  1  0
 17 20  1  0
 18 21  2  0
 20 22  2  0
 19 23  1  0
 22 24  1  0
 23 24  2  0
M  END
