mac-x0380-mac-x0333
     RDKit          3D

 14 15  0  0  0  0  0  0  0  0999 V2000
   -1.3640   14.6880   -2.4990 O   0  0  0  0  0  0  0  0  0  0  0  0
   -2.6580   14.9680   -2.7600 C   0  0  0  0  0  0  0  0  0  0  0  0
   -3.0830   15.1900   -3.8830 O   0  0  0  0  0  0  0  0  0  0  0  0
   -3.5220   14.9790   -1.5560 C   0  0  0  0  0  0  0  0  0  0  0  0
   -4.9120   15.0370   -1.6690 C   0  0  0  0  0  0  0  0  0  0  0  0
   -2.9250   14.9280   -0.2870 C   0  0  0  0  0  0  0  0  0  0  0  0
   -5.7070   15.0350   -0.5190 C   0  0  0  0  0  0  0  0  0  0  0  0
   -3.7180   14.9300    0.8630 C   0  0  0  0  0  0  0  0  0  0  0  0
   -5.1130   14.9790    0.7490 C   0  0  0  0  0  0  0  0  0  0  0  0
   -7.4690   15.0930   -0.7150 S   0  0  0  0  0  0  0  0  0  0  0  0
   -5.8820   14.9640    1.9280 N   0  0  0  0  0  0  0  0  0  0  0  0
   -7.8840   14.1220    0.7430 C   0  0  0  0  0  0  0  0  0  0  0  0
   -7.2110   14.6300    1.9900 C   0  0  0  0  0  0  0  0  0  0  0  0
   -7.8410   14.7530    3.0440 O   0  0  0  0  0  0  0  0  0  0  0  0
  1  2  1  0
  2  3  2  0
  2  4  1  0
  4  5  2  0
  4  6  1  0
  5  7  1  0
  6  8  2  0
  7  9  2  0
  8  9  1  0
  7 10  1  0
  9 11  1  0
 10 12  1  0
 11 13  1  0
 12 13  1  0
 13 14  2  0
M  END
