mac-x0333-mac-x0182
     RDKit          3D

 24 27  0  0  0  0  0  0  0  0999 V2000
   -2.1970   14.6920   -2.3430 O   0  0  0  0  0  0  0  0  0  0  0  0
   -3.2990   14.7620   -1.5340 C   0  0  0  0  0  0  0  0  0  0  0  0
   -2.9570   15.0480   -0.2030 C   0  0  0  0  0  0  0  0  0  0  0  0
   -4.5590   14.5340   -2.2120 C   0  0  0  0  0  0  0  0  0  0  0  0
   -3.5010   14.3750   -3.2980 C   0  0  0  0  0  0  0  0  0  0  0  0
   -5.3900   14.7200   -1.0490 C   0  0  0  0  0  0  0  0  0  0  0  0
   -3.8910   15.1690    0.7510 C   0  0  0  0  0  0  0  0  0  0  0  0
   -2.9020   12.9220   -3.3380 C   0  0  0  0  0  0  0  0  0  0  0  0
   -5.1240   14.9960    0.2870 C   0  0  0  0  0  0  0  0  0  0  0  0
   -6.7550   14.6120   -1.1920 O   0  0  0  0  0  0  0  0  0  0  0  0
   -1.8950   12.6480   -4.4070 N   0  0  0  0  0  0  0  0  0  0  0  0
   -6.2360   15.0630    1.0650 O   0  0  0  0  0  0  0  0  0  0  0  0
   -7.2100   14.5440    0.1650 C   0  0  0  0  0  0  0  0  0  0  0  0
   -0.9080   11.4610   -4.3520 S   0  0  2  0  0  0  0  0  0  0  0  0
   -0.4360   10.7050   -3.2120 O   0  0  0  0  0  0  0  0  0  0  0  0
    0.4740   12.1230   -5.0390 N   0  0  0  0  0  0  0  0  0  0  0  0
   -1.2170   10.3620   -5.6700 C   0  0  0  0  0  0  0  0  0  0  0  0
    0.7450   11.5810   -6.2680 C   0  0  0  0  0  0  0  0  0  0  0  0
   -0.2410   10.5430   -6.6410 C   0  0  0  0  0  0  0  0  0  0  0  0
   -2.2390    9.4410   -5.7950 C   0  0  0  0  0  0  0  0  0  0  0  0
    1.6880   11.8790   -6.9560 O   0  0  0  0  0  0  0  0  0  0  0  0
   -2.2620    8.6730   -6.9680 C   0  0  0  0  0  0  0  0  0  0  0  0
   -0.2550    9.7880   -7.8060 C   0  0  0  0  0  0  0  0  0  0  0  0
   -1.2800    8.8470   -7.9630 C   0  0  0  0  0  0  0  0  0  0  0  0
  1  2  1  0
  2  3  2  0
  2  4  1  0
  4  5  1  0
  4  6  2  0
  3  7  1  0
  5  8  1  0
  6  9  1  0
  7  9  2  0
  6 10  1  0
  8 11  1  0
  9 12  1  0
 10 13  1  0
 12 13  1  0
 11 14  2  0
 14 15  2  0
 14 16  1  6
 14 17  1  0
 16 18  1  0
 17 19  2  0
 18 19  1  0
 17 20  1  0
 18 21  2  0
 20 22  2  0
 19 23  1  0
 22 24  1  0
 23 24  2  0
M  END
