mac-x0326-mac-x0182
     RDKit          3D

 26 29  0  0  0  0  0  0  0  0999 V2000
   -6.1910   15.3330   -1.5490 Cl  0  0  0  0  0  0  0  0  0  0  0  0
   -4.4840   15.1240   -1.4610 C   0  0  0  0  0  0  0  0  0  0  0  0
   -3.7120   15.1900   -2.6260 C   0  0  0  0  0  0  0  0  0  0  0  0
   -3.8990   14.8930   -0.2210 C   0  0  0  0  0  0  0  0  0  0  0  0
   -2.3110   15.0250   -2.5350 C   0  0  0  0  0  0  0  0  0  0  0  0
   -2.5160   14.7190   -0.1090 C   0  0  0  0  0  0  0  0  0  0  0  0
   -1.4090   15.0810   -3.5910 N   0  0  0  0  0  0  0  0  0  0  0  0
   -1.7400   14.7920   -1.2790 C   0  0  0  0  0  0  0  0  0  0  0  0
   -0.1700   14.9080   -3.1540 C   0  0  0  0  0  0  0  0  0  0  0  0
   -0.0290   14.6400   -1.4570 S   0  0  0  0  0  0  0  0  0  0  0  0
    1.0620   14.9540   -4.0390 C   0  0  0  0  0  0  0  0  0  0  0  0
    1.5040   13.6110   -4.5870 C   0  0  0  0  0  0  0  0  0  0  0  0
    1.6590   12.6170   -3.4810 C   0  0  0  0  0  0  0  0  0  0  0  0
    0.5450   11.9170   -3.3320 N   0  0  0  0  0  0  0  0  0  0  0  0
    2.6680   12.5000   -2.8070 O   0  0  0  0  0  0  0  0  0  0  0  0
   -0.0240   11.3780   -4.3490 C   0  0  0  0  0  0  0  0  0  0  0  0
    0.4260   11.3690   -5.8300 C   0  0  0  0  0  0  0  0  0  0  0  0
   -1.5670   10.5000   -4.1420 S   0  0  0  0  0  0  0  0  0  0  0  0
    1.3180   12.0330   -6.3290 O   0  0  0  0  0  0  0  0  0  0  0  0
   -2.5530   11.6260   -4.2400 O   0  0  0  0  0  0  0  0  0  0  0  0
   -1.4210    9.8750   -5.7890 C   0  0  0  0  0  0  0  0  0  0  0  0
   -0.3810   10.3810   -6.5640 C   0  0  0  0  0  0  0  0  0  0  0  0
   -2.2920    8.9320   -6.2810 C   0  0  0  0  0  0  0  0  0  0  0  0
   -0.1900    9.9440   -7.8690 C   0  0  0  0  0  0  0  0  0  0  0  0
   -2.1200    8.4820   -7.5850 C   0  0  0  0  0  0  0  0  0  0  0  0
   -1.0750    8.9840   -8.3760 C   0  0  0  0  0  0  0  0  0  0  0  0
  1  2  1  0
  2  3  2  0
  2  4  1  0
  3  5  1  0
  4  6  2  0
  5  7  1  0
  5  8  2  0
  6  8  1  0
  7  9  2  0
  8 10  1  0
  9 10  1  0
  9 11  1  0
 11 12  1  0
 12 13  1  0
 13 14  1  0
 13 15  2  0
 14 16  2  3
 16 17  1  0
 18 16  1  6
 17 19  2  0
 18 20  2  0
 18 21  1  0
 17 22  1  0
 21 22  2  0
 21 23  1  0
 22 24  1  0
 23 25  2  0
 24 26  2  0
 25 26  1  0
M  END
