mac-x0138-mac-x0527
     RDKit          3D

 27 30  0  0  0  0  0  0  0  0999 V2000
   -1.9120   14.6850   -3.3260 C   0  0  1  0  0  0  0  0  0  0  0  0
   -2.9600   14.9520   -4.2880 N   0  0  0  0  0  0  0  0  0  0  0  0
   -4.2840   14.5270   -4.0810 C   0  0  0  0  0  0  0  0  0  0  0  0
   -2.5000   14.9570   -2.0290 N   0  0  0  0  0  0  0  0  0  0  0  0
   -1.3900   13.2750   -3.6340 C   0  0  0  0  0  0  0  0  0  0  0  0
   -3.7050   15.6020   -1.9670 C   0  0  0  0  0  0  0  0  0  0  0  0
   -2.1110   14.7120   -0.7320 C   0  0  0  0  0  0  0  0  0  0  0  0
   -1.7660   12.1600   -2.8650 C   0  0  0  0  0  0  0  0  0  0  0  0
   -0.5120   13.0610   -4.7260 C   0  0  0  0  0  0  0  0  0  0  0  0
   -5.0410   14.3580   -5.0220 O   0  0  0  0  0  0  0  0  0  0  0  0
   -4.1280   15.7860   -0.7610 N   0  0  0  0  0  0  0  0  0  0  0  0
   -3.1550   15.2450    0.0160 C   0  0  0  0  0  0  0  0  0  0  0  0
   -1.0120   14.1190   -0.2380 N   0  0  0  0  0  0  0  0  0  0  0  0
   -4.7930   14.2900   -2.6640 C   0  0  0  0  0  0  0  0  0  0  0  0
   -1.2870   10.8870   -3.1780 C   0  0  0  0  0  0  0  0  0  0  0  0
   -0.0340   11.7860   -5.0370 C   0  0  0  0  0  0  0  0  0  0  0  0
   -3.0810   15.1670    1.3790 C   0  0  0  0  0  0  0  0  0  0  0  0
   -1.0420   14.0960    1.1120 C   0  0  0  0  0  0  0  0  0  0  0  0
   -5.9350   14.9590   -2.1980 C   0  0  0  0  0  0  0  0  0  0  0  0
   -4.1150   13.4040   -1.8570 N   0  0  0  0  0  0  0  0  0  0  0  0
   -0.4260   10.6930   -4.2590 C   0  0  0  0  0  0  0  0  0  0  0  0
   -4.0970   15.6800    2.1730 N   0  0  0  0  0  0  0  0  0  0  0  0
    0.0290   13.4960    1.7280 N   0  0  0  0  0  0  0  0  0  0  0  0
   -1.9970   14.5780    1.9260 N   0  0  0  0  0  0  0  0  0  0  0  0
   -6.4320   14.7820   -0.9380 N   0  0  0  0  0  0  0  0  0  0  0  0
   -4.6220   13.2420   -0.6010 C   0  0  0  0  0  0  0  0  0  0  0  0
   -5.7490   13.9120   -0.1500 C   0  0  0  0  0  0  0  0  0  0  0  0
  1  2  1  6
  2  3  1  0
  1  4  1  0
  1  5  1  0
  4  6  1  0
  4  7  1  0
  5  8  2  0
  5  9  1  0
  3 10  2  0
  6 11  2  0
  7 12  2  0
 11 12  1  0
  7 13  1  0
  3 14  1  0
  8 15  1  0
  9 16  2  0
 12 17  1  0
 13 18  2  0
 14 19  2  0
 14 20  1  0
 15 21  2  0
 16 21  1  0
 17 22  1  0
 18 23  1  0
 17 24  2  0
 18 24  1  0
 19 25  1  0
 20 26  2  0
 25 27  2  0
 26 27  1  0
M  END
