mac-x0319-mac-x0417
     RDKit          3D

 20 22  0  0  0  0  0  0  0  0999 V2000
    0.4210   10.3860   -2.6790 O   0  0  0  0  0  0  0  0  0  0  0  0
    0.6350   11.7290   -2.7330 C   0  0  0  0  0  0  0  0  0  0  0  0
    0.5980   12.3330   -1.6530 O   0  0  0  0  0  0  0  0  0  0  0  0
    0.9080   12.3630   -4.1210 C   0  0  2  0  0  0  0  0  0  0  0  0
    0.3610   13.7690   -4.2980 C   0  0  0  0  0  0  0  0  0  0  0  0
    0.5270   11.6160   -5.4010 C   0  0  0  0  0  0  0  0  0  0  0  0
    1.1590   14.9270   -4.1510 C   0  0  0  0  0  0  0  0  0  0  0  0
   -0.9970   13.9250   -4.6160 C   0  0  0  0  0  0  0  0  0  0  0  0
    1.3250   11.7610   -6.4750 N   0  0  0  0  0  0  0  0  0  0  0  0
   -0.5650   10.7320   -5.7190 C   0  0  0  0  0  0  0  0  0  0  0  0
    0.5830   16.1880   -4.3210 C   0  0  0  0  0  0  0  0  0  0  0  0
   -1.5520   15.1920   -4.7850 C   0  0  0  0  0  0  0  0  0  0  0  0
    0.7890   10.9780   -7.4840 O   0  0  0  0  0  0  0  0  0  0  0  0
   -0.3320   10.3670   -7.0410 C   0  0  0  0  0  0  0  0  0  0  0  0
   -1.6990   10.1920   -5.0850 C   0  0  0  0  0  0  0  0  0  0  0  0
    1.2890   17.3410   -4.1850 O   0  0  0  0  0  0  0  0  0  0  0  0
   -0.7590   16.3210   -4.6370 C   0  0  0  0  0  0  0  0  0  0  0  0
   -1.1310    9.5060   -7.7890 C   0  0  0  0  0  0  0  0  0  0  0  0
   -2.5290    9.3200   -5.8120 C   0  0  0  0  0  0  0  0  0  0  0  0
   -2.2510    8.9820   -7.1370 C   0  0  0  0  0  0  0  0  0  0  0  0
  1  2  1  0
  2  3  2  0
  4  2  1  1
  4  5  1  0
  4  6  1  0
  5  7  2  0
  5  8  1  0
  6  9  2  0
  6 10  1  0
  7 11  1  0
  8 12  2  0
  9 13  1  0
 10 14  2  0
 13 14  1  0
 10 15  1  0
 11 16  1  0
 11 17  2  0
 12 17  1  0
 14 18  1  0
 15 19  2  0
 18 20  2  0
 19 20  1  0
M  END
