mac-x0555-mac-x0139
     RDKit          3D

 23 25  0  0  0  0  0  0  0  0999 V2000
   -7.5430   13.4320    2.6990 N   0  0  0  0  0  0  0  0  0  0  0  0
   -6.9400   13.9040    1.5400 C   0  0  0  0  0  0  0  0  0  0  0  0
   -7.6280   14.6660    0.6080 C   0  0  0  0  0  0  0  0  0  0  0  0
   -5.5940   13.6210    1.2770 C   0  0  0  0  0  0  0  0  0  0  0  0
   -4.9900   14.1130    0.1220 C   0  0  0  0  0  0  0  0  0  0  0  0
   -7.0860   15.1670   -0.5150 N   0  0  0  0  0  0  0  0  0  0  0  0
   -5.7850   14.8870   -0.7140 C   0  0  0  0  0  0  0  0  0  0  0  0
   -3.5330   13.8550   -0.2540 C   0  0  0  0  0  0  0  0  0  0  0  0
   -5.1950   15.4670   -1.8860 C   0  0  0  0  0  0  0  0  0  0  0  0
   -2.8950   15.1420   -0.8160 C   0  0  2  0  0  0  0  0  0  0  0  0
   -3.8590   15.6150   -1.9330 C   0  0  0  0  0  0  0  0  0  0  0  0
   -1.3540   15.2330   -1.2490 C   0  0  2  0  0  0  0  0  0  0  0  0
   -2.8780   15.8300    0.5790 C   0  0  0  0  0  0  0  0  0  0  0  0
   -1.0460   15.1230   -2.7020 N   0  0  0  0  0  0  0  0  0  0  0  0
   -1.5080   15.8280    1.1300 N   0  0  0  0  0  0  0  0  0  0  0  0
   -0.5620   14.3180   -0.4530 N   0  0  0  0  0  0  0  0  0  0  0  0
   -2.0160   15.8090   -3.5510 C   0  0  0  0  0  0  0  0  0  0  0  0
   -0.7930   13.7940   -3.2280 C   0  0  0  0  0  0  0  0  0  0  0  0
   -0.7170   14.6290    0.9460 C   0  0  0  0  0  0  0  0  0  0  0  0
    0.6090   13.5690   -3.7590 C   0  0  0  0  0  0  0  0  0  0  0  0
    1.1560   12.4020   -3.0090 C   0  0  0  0  0  0  0  0  0  0  0  0
    2.0280   12.5020   -2.1750 O   0  0  0  0  0  0  0  0  0  0  0  0
    0.5750   11.2280   -3.3380 O   0  0  0  0  0  0  0  0  0  0  0  0
  1  2  1  0
  2  3  2  0
  2  4  1  0
  4  5  2  0
  3  6  1  0
  5  7  1  0
  6  7  2  0
  5  8  1  0
  7  9  1  0
 10  8  1  1
  9 11  2  0
 10 11  1  0
 10 12  1  0
 10 13  1  0
 12 14  1  6
 13 15  1  0
 12 16  1  0
 14 17  1  0
 14 18  1  0
 15 19  1  0
 16 19  1  0
 18 20  1  0
 20 21  1  0
 21 22  2  0
 21 23  1  0
M  END
