mac-x0348-mac-x0354
     RDKit          3D

 27 30  0  0  0  0  0  0  0  0999 V2000
    0.4900   18.6060   -5.9800 C   0  0  0  0  0  0  0  0  0  0  0  0
    0.0200   17.3850   -5.3740 N   0  0  0  0  0  0  0  0  0  0  0  0
    0.7880   16.5850   -4.5900 C   0  0  0  0  0  0  0  0  0  0  0  0
   -1.2380   16.8450   -5.4920 C   0  0  0  0  0  0  0  0  0  0  0  0
    0.0600   15.5010   -4.1860 C   0  0  0  0  0  0  0  0  0  0  0  0
   -1.2360   15.6500   -4.7510 C   0  0  0  0  0  0  0  0  0  0  0  0
   -2.3730   17.2810   -6.1750 C   0  0  0  0  0  0  0  0  0  0  0  0
    0.6010   14.4030   -3.3070 C   0  0  0  0  0  0  0  0  0  0  0  0
   -2.4060   14.8740   -4.7000 C   0  0  0  0  0  0  0  0  0  0  0  0
   -3.5090   16.4740   -6.0940 C   0  0  0  0  0  0  0  0  0  0  0  0
    0.1260   12.9700   -3.6770 C   0  0  2  0  0  0  0  0  0  0  0  0
   -3.5340   15.2970   -5.3770 C   0  0  0  0  0  0  0  0  0  0  0  0
    0.3320   12.1050   -2.4460 C   0  0  0  0  0  0  0  0  0  0  0  0
    0.6750   12.4120   -4.9790 C   0  0  0  0  0  0  0  0  0  0  0  0
    0.4740   12.5190   -1.3020 O   0  0  0  0  0  0  0  0  0  0  0  0
    0.3470   10.7780   -2.7280 O   0  0  0  0  0  0  0  0  0  0  0  0
    1.8540   12.9140   -5.5380 C   0  0  0  0  0  0  0  0  0  0  0  0
    0.2770   11.4090   -5.8950 C   0  0  0  0  0  0  0  0  0  0  0  0
    1.2210   11.4440   -6.8930 N   0  0  0  0  0  0  0  0  0  0  0  0
    2.1730   12.3370   -6.6750 N   0  0  0  0  0  0  0  0  0  0  0  0
   -0.8280   10.4580   -5.9590 C   0  0  0  0  0  0  0  0  0  0  0  0
    1.2920   10.6510   -8.1000 C   0  0  0  0  0  0  0  0  0  0  0  0
   -0.6130    9.1980   -6.5570 C   0  0  0  0  0  0  0  0  0  0  0  0
   -2.0850   10.7560   -5.4410 C   0  0  0  0  0  0  0  0  0  0  0  0
   -1.6400    8.2610   -6.6290 C   0  0  0  0  0  0  0  0  0  0  0  0
   -3.1150    9.8150   -5.5140 C   0  0  0  0  0  0  0  0  0  0  0  0
   -2.8920    8.5710   -6.1060 C   0  0  0  0  0  0  0  0  0  0  0  0
  1  2  1  0
  2  3  1  0
  2  4  1  0
  3  5  2  0
  4  6  2  0
  5  6  1  0
  4  7  1  0
  5  8  1  0
  6  9  1  0
  7 10  2  0
 11  8  1  1
  9 12  2  0
 10 12  1  0
 11 13  1  0
 11 14  1  0
 13 15  2  0
 13 16  1  0
 14 17  1  0
 14 18  2  0
 18 19  1  0
 17 20  2  0
 19 20  1  0
 18 21  1  0
 19 22  1  0
 21 23  2  0
 21 24  1  0
 23 25  1  0
 24 26  2  0
 25 27  2  0
 26 27  1  0
M  END
