mac-x0437-diamond-x0837_0_A
     RDKit          3D

 25 27  0  0  0  0  0  0  0  0999 V2000
    1.7730   12.9440   -2.1340 O   0  0  0  0  0  0  0  0  0  0  0  0
    1.2690   12.3170   -3.2640 C   0  0  0  0  0  0  0  0  0  0  0  0
    0.6390   11.2470   -3.1070 O   0  0  0  0  0  0  0  0  0  0  0  0
    1.5130   12.9920   -4.5770 C   0  0  0  0  0  0  0  0  0  0  0  0
    0.2420   13.2140   -5.3740 C   0  0  2  0  0  0  0  0  0  0  0  0
   -0.4490   14.4490   -4.9400 C   0  0  0  0  0  0  0  0  0  0  0  0
   -0.4840   12.0130   -5.6400 N   0  0  0  0  0  0  0  0  0  0  0  0
   -1.9820   14.3350   -5.1370 C   0  0  0  0  0  0  0  0  0  0  0  0
   -1.6100   11.6420   -4.9460 C   0  0  0  0  0  0  0  0  0  0  0  0
   -0.3120   11.0220   -6.5220 C   0  0  0  0  0  0  0  0  0  0  0  0
   -2.6920   15.3260   -4.2210 C   0  0  0  0  0  0  0  0  0  0  0  0
   -2.0910   10.4850   -5.3930 N   0  0  0  0  0  0  0  0  0  0  0  0
   -1.2920   10.0670   -6.3860 C   0  0  0  0  0  0  0  0  0  0  0  0
    0.6560   10.8440   -7.4820 C   0  0  0  0  0  0  0  0  0  0  0  0
   -2.8600   14.4080   -2.3270 I   0  0  0  0  0  0  0  0  0  0  0  0
   -1.3310    8.9240   -7.1910 C   0  0  0  0  0  0  0  0  0  0  0  0
    0.6080    9.7160   -8.2700 C   0  0  0  0  0  0  0  0  0  0  0  0
   -0.3660    8.7500   -8.1450 C   0  0  0  0  0  0  0  0  0  0  0  0
   -4.2840   15.3360   -1.0100 C   0  0  2  0  0  0  0  0  0  0  0  0
   -3.6290   15.3620    0.2980 C   0  0  0  0  0  0  0  0  0  0  0  0
   -5.5110   14.4680   -1.0270 C   0  0  0  0  0  0  0  0  0  0  0  0
   -4.2760   15.1640    1.3930 C   0  0  0  0  0  0  0  0  0  0  0  0
   -6.3580   14.7540    0.1540 C   0  0  0  0  0  0  0  0  0  0  0  0
   -7.5880   14.8680    0.0590 O   0  0  0  0  0  0  0  0  0  0  0  0
   -5.6940   14.8790    1.4110 N   0  0  0  0  0  0  0  0  0  0  0  0
  1  2  1  0
  2  3  2  0
  2  4  1  0
  5  4  1  1
  5  6  1  0
  5  7  1  0
  6  8  1  0
  7  9  1  0
  7 10  1  0
  8 11  1  0
  9 12  2  0
 10 13  2  0
 12 13  1  0
 10 14  1  0
 11 15  1  0
 13 16  1  0
 14 17  2  0
 16 18  2  0
 17 18  1  0
 19 15  1  6
 19 20  1  0
 19 21  1  0
 20 22  2  0
 21 23  1  0
 23 24  2  0
 22 25  1  0
 23 25  1  0
M  END
