mac-x0163-mac-x0392
     RDKit          3D

 20 22  0  0  0  0  0  0  0  0999 V2000
   -4.3290   15.3750   -1.4060 Cl  0  0  0  0  0  0  0  0  0  0  0  0
   -3.2460   14.2890   -0.4460 C   0  0  2  0  0  0  0  0  0  0  0  0
   -2.8480   15.0930    0.8000 C   0  0  1  0  0  0  0  0  0  0  0  0
   -1.9540   13.7280   -1.1490 C   0  0  2  0  0  0  0  0  0  0  0  0
   -3.8900   15.2200    1.8030 N   0  0  0  0  0  0  0  0  0  0  0  0
   -0.8390   14.5880   -0.8420 N   0  0  0  0  0  0  0  0  0  0  0  0
   -1.6000   14.6950    1.4290 N   0  0  0  0  0  0  0  0  0  0  0  0
   -2.0470   13.2850   -2.6130 N   0  0  0  0  0  0  0  0  0  0  0  0
   -0.0900   14.9370   -1.9290 C   0  0  0  0  0  0  0  0  0  0  0  0
   -0.4150   14.6970    0.5520 C   0  0  0  0  0  0  0  0  0  0  0  0
   -0.9290   12.3600   -2.9710 C   0  0  0  0  0  0  0  0  0  0  0  0
   -2.3350   14.1760   -3.8100 C   0  0  0  0  0  0  0  0  0  0  0  0
   -0.5420   15.3040   -2.9980 O   0  0  0  0  0  0  0  0  0  0  0  0
    1.2350   14.8300   -1.7890 O   0  0  0  0  0  0  0  0  0  0  0  0
   -0.4650   12.4200   -4.4370 C   0  0  0  0  0  0  0  0  0  0  0  0
   -3.3740   13.4950   -4.7640 C   0  0  0  0  0  0  0  0  0  0  0  0
   -3.5470   15.1400   -3.5070 C   0  0  0  0  0  0  0  0  0  0  0  0
   -1.1440   14.8460   -4.5090 C   0  0  0  0  0  0  0  0  0  0  0  0
   -0.0560   13.8290   -4.8550 C   0  0  0  0  0  0  0  0  0  0  0  0
   -4.0060   14.8840   -4.9490 C   0  0  0  0  0  0  0  0  0  0  0  0
  2  1  1  6
  2  3  1  0
  2  4  1  0
  3  5  1  1
  4  6  1  0
  3  7  1  0
  4  8  1  6
  6  9  1  0
  6 10  1  0
  7 10  1  0
  8 11  1  0
 12  8  1  0
  9 13  2  0
  9 14  1  0
 11 15  1  0
 12 16  1  0
 12 17  1  0
 12 18  1  0
 15 19  1  0
 18 19  1  0
 16 20  1  0
 17 20  1  0
M  END
