mac-x0132-diamond-x0689_0_A
     RDKit          3D

 18 20  0  0  0  0  0  0  0  0999 V2000
   -4.0120   14.6190    1.5930 N   0  0  0  0  0  0  0  0  0  0  0  0
   -4.2550   15.7420    2.4270 C   0  0  0  0  0  0  0  0  0  0  0  0
   -5.1400   14.6020    0.7630 C   0  0  0  0  0  0  0  0  0  0  0  0
   -2.6560   14.5640    1.0870 C   0  0  0  0  0  0  0  0  0  0  0  0
   -4.9250   14.7850   -0.5810 C   0  0  0  0  0  0  0  0  0  0  0  0
   -6.3840   14.4180    1.2820 N   0  0  0  0  0  0  0  0  0  0  0  0
   -2.4230   14.5960   -0.2460 N   0  0  0  0  0  0  0  0  0  0  0  0
   -1.6120   14.4740    1.9310 N   0  0  0  0  0  0  0  0  0  0  0  0
   -6.0490   14.7610   -1.3870 C   0  0  0  0  0  0  0  0  0  0  0  0
   -7.3950   14.4200    0.4120 C   0  0  0  0  0  0  0  0  0  0  0  0
   -3.6520   14.9880   -1.1460 C   0  0  0  0  0  0  0  0  0  0  0  0
   -1.1570   14.5400   -0.7100 C   0  0  0  0  0  0  0  0  0  0  0  0
   -0.3620   14.4190    1.4340 C   0  0  0  0  0  0  0  0  0  0  0  0
   -7.2890   14.5830   -0.9110 N   0  0  0  0  0  0  0  0  0  0  0  0
   -5.8590   14.9270   -2.7470 C   0  0  0  0  0  0  0  0  0  0  0  0
   -3.4760   15.1490   -2.4970 C   0  0  0  0  0  0  0  0  0  0  0  0
   -0.0650   14.4510    0.1010 C   0  0  0  0  0  0  0  0  0  0  0  0
   -4.5850   15.1140   -3.3050 C   0  0  0  0  0  0  0  0  0  0  0  0
  1  2  1  0
  1  3  1  0
  1  4  1  0
  3  5  1  0
  3  6  2  0
  4  7  2  0
  4  8  1  0
  5  9  2  0
  6 10  1  0
  5 11  1  0
  7 12  1  0
  8 13  2  0
  9 14  1  0
 10 14  2  0
  9 15  1  0
 11 16  2  0
 12 17  2  0
 13 17  1  0
 15 18  2  0
 16 18  1  0
M  END
