mac-x0402-diamond-x0933_0_A
     RDKit          3D

 11 12  0  0  0  0  0  0  0  0999 V2000
   -1.7620   14.8600   -3.3920 Cl  0  0  0  0  0  0  0  0  0  0  0  0
   -3.0770   14.9030   -2.2810 C   0  0  0  0  0  0  0  0  0  0  0  0
   -4.3620   15.0240   -2.7770 C   0  0  0  0  0  0  0  0  0  0  0  0
   -2.8290   14.8170   -0.9080 C   0  0  0  0  0  0  0  0  0  0  0  0
   -3.9350   14.8510   -0.0500 C   0  0  0  0  0  0  0  0  0  0  0  0
   -5.4520   15.0560   -1.9100 C   0  0  0  0  0  0  0  0  0  0  0  0
   -5.2350   14.9650   -0.5310 C   0  0  0  0  0  0  0  0  0  0  0  0
   -3.9930   14.7710    1.6610 S   0  0  0  0  0  0  0  0  0  0  0  0
   -5.7100   14.8880    1.6050 C   0  0  0  0  0  0  0  0  0  0  0  0
   -6.2250   14.9800    0.4190 N   0  0  0  0  0  0  0  0  0  0  0  0
   -6.4870   14.8930    2.7010 N   0  0  0  0  0  0  0  0  0  0  0  0
  1  2  1  0
  2  3  2  0
  2  4  1  0
  4  5  2  0
  3  6  1  0
  5  7  1  0
  6  7  2  0
  5  8  1  0
  8  9  1  0
  7 10  1  0
  9 10  2  0
  9 11  1  0
M  END
