mac-x0148-diamond-x0591_0_A
     RDKit          3D

 32 36  0  0  0  0  0  0  0  0999 V2000
   -6.6890   13.6320    0.5250 N   0  0  0  0  0  0  0  0  0  0  0  0
   -6.8370   14.2380    1.8280 C   0  0  0  0  0  0  0  0  0  0  0  0
   -6.8760   14.3880   -0.6120 C   0  0  0  0  0  0  0  0  0  0  0  0
   -7.6860   15.3040   -0.6740 O   0  0  0  0  0  0  0  0  0  0  0  0
   -6.0570   14.0340   -1.8170 C   0  0  0  0  0  0  0  0  0  0  0  0
   -5.0500   13.0540   -1.8070 C   0  0  0  0  0  0  0  0  0  0  0  0
   -6.3300   14.7230   -3.0000 C   0  0  0  0  0  0  0  0  0  0  0  0
   -4.3310   12.7760   -2.9810 C   0  0  0  0  0  0  0  0  0  0  0  0
   -5.6170   14.4480   -4.1680 C   0  0  0  0  0  0  0  0  0  0  0  0
   -4.6190   13.4770   -4.1610 C   0  0  0  0  0  0  0  0  0  0  0  0
   -3.7470   13.1670   -5.6720 S   0  0  1  0  0  0  0  0  0  0  0  0
   -3.3980   14.6410   -6.3720 N   0  0  0  0  0  0  0  0  0  0  0  0
   -2.3230   12.6840   -5.3890 N   0  0  0  0  0  0  0  0  0  0  0  0
   -4.6570   12.6160   -6.6400 O   0  0  0  0  0  0  0  0  0  0  0  0
   -1.8240   12.7500   -4.0010 C   0  0  2  0  0  0  0  0  0  0  0  0
   -1.4270   14.1790   -3.6970 C   0  0  2  0  0  0  0  0  0  0  0  0
   -0.6790   11.7530   -3.7080 C   0  0  0  0  0  0  0  0  0  0  0  0
   -1.4030   15.2180   -4.7900 C   0  0  0  0  0  0  0  0  0  0  0  0
   -0.0050   14.1520   -3.2850 C   0  0  1  0  0  0  0  0  0  0  0  0
   -0.0250   11.9590   -2.3290 C   0  0  0  0  0  0  0  0  0  0  0  0
   -0.4630   16.2170   -4.3500 O   0  0  0  0  0  0  0  0  0  0  0  0
    0.3810   15.6170   -3.3380 C   0  0  0  0  0  0  0  0  0  0  0  0
    0.0680   13.3970   -2.0110 N   0  0  0  0  0  0  0  0  0  0  0  0
   -0.5480   13.8440   -0.8130 C   0  0  0  0  0  0  0  0  0  0  0  0
    0.1440   13.6990    0.3710 N   0  0  0  0  0  0  0  0  0  0  0  0
   -1.7820   14.4210   -0.6610 C   0  0  0  0  0  0  0  0  0  0  0  0
   -0.4010   13.9640    1.5850 C   0  0  0  0  0  0  0  0  0  0  0  0
   -2.2540   14.7790    0.7080 C   0  0  0  0  0  0  0  0  0  0  0  0
   -2.8910   14.8390   -1.4720 C   0  0  0  0  0  0  0  0  0  0  0  0
   -1.5430   14.4770    1.8210 N   0  0  0  0  0  0  0  0  0  0  0  0
   -3.4070   15.3780    0.7130 N   0  0  0  0  0  0  0  0  0  0  0  0
   -3.7740   15.3970   -0.6210 C   0  0  0  0  0  0  0  0  0  0  0  0
  1  2  1  0
  1  3  1  0
  3  4  2  0
  3  5  1  0
  5  6  2  0
  5  7  1  0
  6  8  1  0
  7  9  2  0
  8 10  2  0
  9 10  1  0
 10 11  1  0
 11 12  1  6
 11 13  2  0
 11 14  2  0
 15 13  1  6
 15 16  1  0
 15 17  1  0
 16 18  1  6
 16 19  1  0
 17 20  1  0
 18 21  1  0
 19 22  1  1
 21 22  1  0
 19 23  1  0
 20 23  1  0
 23 24  1  0
 24 25  1  0
 24 26  2  0
 25 27  1  0
 26 28  1  0
 26 29  1  0
 27 30  2  0
 28 30  1  0
 28 31  2  0
 29 32  2  0
 31 32  1  0
M  END
