mac-x0398-mac-x0212
     RDKit          3D

 17 18  0  0  0  0  0  0  0  0999 V2000
   -5.8660   14.3800    1.9070 N   0  0  0  0  0  0  0  0  0  0  0  0
   -7.3350   14.4850    1.3070 S   0  0  2  0  0  0  0  0  0  0  0  0
   -8.6100   15.1710    2.1190 C   0  0  0  0  0  0  0  0  0  0  0  0
   -5.0380   14.5900    0.8800 C   0  0  0  0  0  0  0  0  0  0  0  0
   -7.8170   13.0070    1.6900 O   0  0  0  0  0  0  0  0  0  0  0  0
   -7.1610   14.7930   -0.2590 N   0  0  0  0  0  0  0  0  0  0  0  0
   -5.8090   14.8310   -0.4070 C   0  0  0  0  0  0  0  0  0  0  0  0
   -3.6390   14.6060    0.8760 C   0  0  0  0  0  0  0  0  0  0  0  0
   -5.2220   15.0880   -1.6200 C   0  0  0  0  0  0  0  0  0  0  0  0
   -3.0700   14.8450   -0.3990 C   0  0  0  0  0  0  0  0  0  0  0  0
   -5.9600   15.3100   -2.7430 O   0  0  0  0  0  0  0  0  0  0  0  0
   -3.8330   15.0710   -1.6020 C   0  0  0  0  0  0  0  0  0  0  0  0
   -3.1230   15.2780   -2.8850 C   0  0  0  0  0  0  0  0  0  0  0  0
   -3.6720   15.8620   -3.8070 O   0  0  0  0  0  0  0  0  0  0  0  0
   -1.7450   14.7130   -3.1680 C   0  0  0  0  0  0  0  0  0  0  0  0
   -0.9270   14.3490   -2.3440 O   0  0  0  0  0  0  0  0  0  0  0  0
   -1.5340   14.6440   -4.4850 O   0  0  0  0  0  0  0  0  0  0  0  0
  1  2  2  0
  2  3  1  1
  1  4  1  0
  2  5  2  0
  2  6  1  0
  4  7  2  0
  6  7  1  0
  4  8  1  0
  7  9  1  0
  8 10  2  0
  9 11  1  0
  9 12  2  0
 10 12  1  0
 12 13  1  0
 13 14  2  0
 13 15  1  0
 15 16  2  0
 15 17  1  0
M  END
