mac-x0496-mac-x0178
     RDKit          3D

 32 34  0  0  0  0  0  0  0  0999 V2000
   -9.6320   17.7240    4.6790 C   0  0  0  0  0  0  0  0  0  0  0  0
   -9.6610   16.7360    3.5810 C   0  0  0  0  0  0  0  0  0  0  0  0
  -10.3400   16.8940    2.4340 N   0  0  0  0  0  0  0  0  0  0  0  0
   -8.9780   15.5710    3.6650 N   0  0  0  0  0  0  0  0  0  0  0  0
  -10.0840   15.7370    1.7200 O   0  0  0  0  0  0  0  0  0  0  0  0
   -9.2640   15.0040    2.5170 C   0  0  0  0  0  0  0  0  0  0  0  0
   -8.8140   13.7080    1.9950 C   0  0  0  0  0  0  0  0  0  0  0  0
   -7.4020   13.8160    1.7340 N   0  0  0  0  0  0  0  0  0  0  0  0
   -6.9900   14.3850    0.5540 C   0  0  0  0  0  0  0  0  0  0  0  0
   -7.7540   14.7270   -0.3410 O   0  0  0  0  0  0  0  0  0  0  0  0
   -5.5430   14.5630    0.4020 C   0  0  0  0  0  0  0  0  0  0  0  0
   -4.7980   14.6520    1.5770 C   0  0  0  0  0  0  0  0  0  0  0  0
   -4.9270   14.6400   -0.8330 C   0  0  0  0  0  0  0  0  0  0  0  0
   -3.4280   14.8120    1.5380 C   0  0  0  0  0  0  0  0  0  0  0  0
   -3.5620   14.8000   -0.8580 C   0  0  0  0  0  0  0  0  0  0  0  0
   -2.8280   14.9070   -2.0830 C   0  0  0  0  0  0  0  0  0  0  0  0
   -2.8080   14.8850    0.3170 C   0  0  0  0  0  0  0  0  0  0  0  0
   -1.7370   14.2700   -2.2110 N   0  0  0  0  0  0  0  0  0  0  0  0
   -3.3870   15.7770   -2.9410 O   0  0  0  0  0  0  0  0  0  0  0  0
   -0.9620   14.6150   -3.2610 C   0  0  0  0  0  0  0  0  0  0  0  0
    0.2500   14.0390   -3.5600 C   0  0  0  0  0  0  0  0  0  0  0  0
   -1.4740   15.6640   -3.9850 C   0  0  0  0  0  0  0  0  0  0  0  0
    0.7610   12.8990   -2.7550 C   0  0  0  0  0  0  0  0  0  0  0  0
   -0.7910   16.2130   -5.0070 C   0  0  0  0  0  0  0  0  0  0  0  0
    0.9750   14.5870   -4.6230 C   0  0  0  0  0  0  0  0  0  0  0  0
   -1.5740   17.5950   -5.8050 S   0  0  0  0  0  0  0  0  0  0  0  0
    1.5380   12.9510   -1.8340 O   0  0  0  0  0  0  0  0  0  0  0  0
    0.2460   11.7160   -3.1460 O   0  0  0  0  0  0  0  0  0  0  0  0
    0.4550   15.6830   -5.3380 C   0  0  0  0  0  0  0  0  0  0  0  0
   -0.2950   18.3210   -6.6060 N   0  0  0  0  0  0  0  0  0  0  0  0
   -2.4970   17.1210   -6.8020 O   0  0  0  0  0  0  0  0  0  0  0  0
   -2.0220   18.5000   -4.7750 O   0  0  0  0  0  0  0  0  0  0  0  0
  1  2  1  0
  2  3  2  0
  2  4  1  0
  3  5  1  0
  4  6  2  0
  5  6  1  0
  6  7  1  0
  7  8  1  0
  8  9  1  0
  9 10  2  0
  9 11  1  0
 11 12  2  0
 11 13  1  0
 12 14  1  0
 13 15  2  0
 15 16  1  0
 14 17  2  0
 15 17  1  0
 16 18  2  3
 16 19  1  0
 18 20  1  0
 20 21  2  0
 20 22  1  0
 21 23  1  0
 22 24  2  0
 21 25  1  0
 24 26  1  0
 23 27  2  0
 23 28  1  0
 24 29  1  0
 25 29  2  0
 26 30  1  0
 26 31  2  0
 26 32  2  0
M  END
