mac-x0131-mac-x0123
     RDKit          3D

 25 29  0  0  0  0  0  0  0  0999 V2000
   -3.8190   14.8560   -3.8120 C   0  0  0  0  0  0  0  0  0  0  0  0
   -3.4120   14.3530   -2.3960 C   0  0  2  0  0  0  0  0  0  0  0  0
   -4.6320   14.5190   -1.3320 C   0  0  2  0  0  0  0  0  0  0  0  0
   -2.0970   14.9330   -1.9770 N   0  0  0  0  0  0  0  0  0  0  0  0
   -4.8380   16.0040   -1.1300 C   0  0  0  0  0  0  0  0  0  0  0  0
   -0.9800   14.8440   -2.9610 C   0  0  0  0  0  0  0  0  0  0  0  0
   -1.7120   14.4050   -0.6610 C   0  0  2  0  0  0  0  0  0  0  0  0
   -4.4800   14.0730    0.2070 C   0  0  1  0  0  0  0  0  0  0  0  0
   -5.9810   14.1180   -1.9700 C   0  0  0  0  0  0  0  0  0  0  0  0
   -3.5950   14.8420    1.0860 N   0  0  0  0  0  0  0  0  0  0  0  0
   -2.2550   15.0880    0.6440 C   0  0  1  0  0  0  0  0  0  0  0  0
   -0.2850   14.6000   -0.4370 N   0  0  0  0  0  0  0  0  0  0  0  0
   -0.6900   13.4630   -3.4960 C   0  0  0  0  0  0  0  0  0  0  0  0
   -7.1160   14.5020   -1.1660 N   0  0  0  0  0  0  0  0  0  0  0  0
   -5.8710   13.7530    0.9110 C   0  0  2  0  0  0  0  0  0  0  0  0
   -1.4360   14.4000    1.6020 N   0  0  0  0  0  0  0  0  0  0  0  0
   -0.1280   14.4210    0.9880 C   0  0  0  0  0  0  0  0  0  0  0  0
    0.4660   12.8160   -3.8970 C   0  0  0  0  0  0  0  0  0  0  0  0
   -1.7540   12.6180   -3.6430 O   0  0  0  0  0  0  0  0  0  0  0  0
   -7.1430   13.7040    0.0360 C   0  0  1  0  0  0  0  0  0  0  0  0
   -6.3320   14.6140    2.0640 C   0  0  0  0  0  0  0  0  0  0  0  0
   -1.2850   11.4500   -4.1290 C   0  0  0  0  0  0  0  0  0  0  0  0
    0.0660   11.5190   -4.3040 C   0  0  0  0  0  0  0  0  0  0  0  0
   -8.3250   14.0540    0.9590 C   0  0  0  0  0  0  0  0  0  0  0  0
   -7.6650   14.7570    2.0910 C   0  0  0  0  0  0  0  0  0  0  0  0
  2  1  1  6
  2  3  1  0
  2  4  1  0
  3  5  1  1
  4  6  1  0
  4  7  1  0
  3  8  1  0
  3  9  1  0
  8 10  1  1
  7 11  1  0
 11 10  1  1
  7 12  1  1
  6 13  1  0
  9 14  1  0
  8 15  1  0
 11 16  1  0
 12 17  1  0
 16 17  1  0
 13 18  2  0
 13 19  1  0
 14 20  1  0
 15 20  1  0
 15 21  1  1
 19 22  1  0
 18 23  1  0
 22 23  2  0
 20 24  1  1
 21 25  2  0
 24 25  1  0
M  END
