mac-x0212-mac-x0305
     RDKit          3D

 17 18  0  0  0  0  0  0  0  0999 V2000
   -6.2840   12.7690    1.4570 C   0  0  0  0  0  0  0  0  0  0  0  0
   -6.6890   14.4720    1.1310 S   0  0  0  0  0  0  0  0  0  0  0  0
   -7.5360   14.9330    2.2100 O   0  0  0  0  0  0  0  0  0  0  0  0
   -7.1470   14.5780   -0.2390 O   0  0  0  0  0  0  0  0  0  0  0  0
   -5.1390   15.1830    1.3510 N   0  0  0  0  0  0  0  0  0  0  0  0
   -4.2470   15.0420    0.2160 C   0  0  0  0  0  0  0  0  0  0  0  0
   -2.8510   14.6960    0.3390 C   0  0  0  0  0  0  0  0  0  0  0  0
   -4.8120   15.2600   -1.0590 C   0  0  0  0  0  0  0  0  0  0  0  0
   -2.2280   14.4870    1.5600 O   0  0  0  0  0  0  0  0  0  0  0  0
   -2.1150   14.5720   -0.8440 C   0  0  0  0  0  0  0  0  0  0  0  0
   -4.0580   15.1360   -2.2160 C   0  0  0  0  0  0  0  0  0  0  0  0
   -0.6730   14.2310   -1.1460 C   0  0  2  0  0  0  0  0  0  0  0  0
   -2.7370   14.7900   -2.0690 C   0  0  0  0  0  0  0  0  0  0  0  0
   -1.6990   14.5740   -3.0420 C   0  0  0  0  0  0  0  0  0  0  0  0
   -0.5150   14.2600   -2.6300 N   0  0  0  0  0  0  0  0  0  0  0  0
   -0.3170   12.9710   -0.6110 O   0  0  0  0  0  0  0  0  0  0  0  0
   -1.9980   14.7000   -4.3280 O   0  0  0  0  0  0  0  0  0  0  0  0
  1  2  1  0
  2  3  2  0
  2  4  2  0
  2  5  1  0
  5  6  1  0
  6  7  2  0
  6  8  1  0
  7  9  1  0
  7 10  1  0
  8 11  2  0
 10 12  1  0
 10 13  2  0
 11 13  1  0
 13 14  1  0
 12 15  1  0
 14 15  2  0
 12 16  1  6
 14 17  1  0
M  END
