mac-x0159-mac-x0527
     RDKit          3D

 32 36  0  0  0  0  0  0  0  0999 V2000
   -3.7920   15.0800    1.5230 N   0  0  0  0  0  0  0  0  0  0  0  0
   -3.1250   15.8470    0.5010 C   0  0  1  0  0  0  0  0  0  0  0  0
   -1.6290   15.5150    0.4990 C   0  0  2  0  0  0  0  0  0  0  0  0
   -3.7710   15.4820   -0.7040 N   0  0  0  0  0  0  0  0  0  0  0  0
   -2.8950   15.7640   -1.8070 C   0  0  0  0  0  0  0  0  0  0  0  0
   -0.9480   15.0920   -0.8480 C   0  0  2  0  0  0  0  0  0  0  0  0
   -1.3360   14.4180    1.4190 N   0  0  0  0  0  0  0  0  0  0  0  0
   -1.8260   14.8190   -1.9750 N   0  0  0  0  0  0  0  0  0  0  0  0
   -0.0400   14.0370   -0.3970 N   0  0  0  0  0  0  0  0  0  0  0  0
   -0.0010   14.1850    1.0450 C   0  0  0  0  0  0  0  0  0  0  0  0
   -1.6160   14.6740   -3.4300 C   0  0  1  0  0  0  0  0  0  0  0  0
   -2.9440   14.8120   -4.0090 N   0  0  0  0  0  0  0  0  0  0  0  0
   -0.8520   15.9230   -4.0350 C   0  0  0  0  0  0  0  0  0  0  0  0
   -1.1440   13.3710   -4.1840 C   0  0  0  0  0  0  0  0  0  0  0  0
   -4.2350   14.6090   -3.5350 C   0  0  0  0  0  0  0  0  0  0  0  0
    0.4820   16.2920   -3.8720 C   0  0  0  0  0  0  0  0  0  0  0  0
   -1.5570   16.8180   -4.8650 N   0  0  0  0  0  0  0  0  0  0  0  0
   -1.7180   12.1090   -3.9320 C   0  0  0  0  0  0  0  0  0  0  0  0
   -0.1220   13.4030   -5.1800 C   0  0  0  0  0  0  0  0  0  0  0  0
   -5.0880   14.6120   -4.4190 O   0  0  0  0  0  0  0  0  0  0  0  0
   -0.7900   17.7910   -5.2870 C   0  0  0  0  0  0  0  0  0  0  0  0
    0.8260   17.7340   -4.7410 S   0  0  0  0  0  0  0  0  0  0  0  0
   -4.7100   14.3960   -2.1200 C   0  0  0  0  0  0  0  0  0  0  0  0
   -1.3170   10.9520   -4.6160 C   0  0  0  0  0  0  0  0  0  0  0  0
    0.2810   12.2450   -5.8660 C   0  0  0  0  0  0  0  0  0  0  0  0
   -1.2480   18.8900   -6.1820 C   0  0  0  0  0  0  0  0  0  0  0  0
   -5.9110   15.0150   -1.7440 C   0  0  0  0  0  0  0  0  0  0  0  0
   -4.0210   13.6350   -1.2230 N   0  0  0  0  0  0  0  0  0  0  0  0
   -0.3210   11.0250   -5.5820 C   0  0  0  0  0  0  0  0  0  0  0  0
   -6.4590   14.9020   -0.4970 N   0  0  0  0  0  0  0  0  0  0  0  0
   -4.5650   13.5260    0.0220 C   0  0  0  0  0  0  0  0  0  0  0  0
   -5.7550   14.1470    0.3760 C   0  0  0  0  0  0  0  0  0  0  0  0
  2  1  1  1
  2  3  1  0
  2  4  1  0
  4  5  1  0
  3  6  1  0
  3  7  1  1
  5  8  1  0
  6  8  1  0
  6  9  1  1
  7 10  1  0
  9 10  1  0
  8 11  1  0
 11 12  1  6
 11 13  1  0
 11 14  1  0
 12 15  1  0
 13 16  2  0
 13 17  1  0
 14 18  2  0
 14 19  1  0
 15 20  2  0
 17 21  2  0
 16 22  1  0
 21 22  1  0
 15 23  1  0
 18 24  1  0
 19 25  2  0
 21 26  1  0
 23 27  2  0
 23 28  1  0
 24 29  2  0
 25 29  1  0
 27 30  1  0
 28 31  2  0
 30 32  2  0
 31 32  1  0
M  END
