mac-x0282-mac-x0379
     RDKit          3D

 18 20  0  0  0  0  0  0  0  0999 V2000
   -5.5960   13.5000   -0.5750 C   0  0  0  0  0  0  0  0  0  0  0  0
   -4.5820   14.0430   -1.5210 C   0  0  0  0  0  0  0  0  0  0  0  0
   -4.8570   14.8540   -2.5190 N   0  0  0  0  0  0  0  0  0  0  0  0
   -2.9260   13.6180   -1.3410 S   0  0  0  0  0  0  0  0  0  0  0  0
   -3.6880   15.1850   -3.1770 C   0  0  0  0  0  0  0  0  0  0  0  0
   -2.5320   14.6240   -2.6790 C   0  0  0  0  0  0  0  0  0  0  0  0
   -1.1690   14.7870   -3.1180 C   0  0  0  0  0  0  0  0  0  0  0  0
   -0.6920   14.3660   -4.1660 O   0  0  0  0  0  0  0  0  0  0  0  0
   -0.4770   15.5210   -2.1430 O   0  0  0  0  0  0  0  0  0  0  0  0
   -0.8500   15.2290   -0.8080 C   0  0  0  0  0  0  0  0  0  0  0  0
   -2.1460   15.4310   -0.2900 C   0  0  0  0  0  0  0  0  0  0  0  0
    0.1170   14.7060    0.0390 C   0  0  0  0  0  0  0  0  0  0  0  0
   -3.3850   15.9160   -0.7630 C   0  0  0  0  0  0  0  0  0  0  0  0
   -2.3560   15.0840    1.0380 C   0  0  0  0  0  0  0  0  0  0  0  0
   -0.2560   14.4110    1.3460 C   0  0  0  0  0  0  0  0  0  0  0  0
   -4.2950   15.8430    0.2630 C   0  0  0  0  0  0  0  0  0  0  0  0
   -3.6580   15.3370    1.3550 N   0  0  0  0  0  0  0  0  0  0  0  0
   -1.4700   14.5820    1.8900 N   0  0  0  0  0  0  0  0  0  0  0  0
  1  2  1  0
  2  3  2  0
  2  4  1  0
  3  5  1  0
  4  6  1  0
  5  6  2  0
  6  7  1  0
  7  8  2  0
  7  9  1  0
  9 10  1  0
 10 11  1  0
 10 12  2  0
 11 13  1  0
 11 14  2  0
 12 15  1  0
 13 16  2  0
 14 17  1  0
 16 17  1  0
 14 18  1  0
 15 18  2  0
M  END
