mac-x0163-mac-x0354
     RDKit          3D

 32 36  0  0  0  0  0  0  0  0999 V2000
   -4.1580   15.3890   -1.3280 Cl  0  0  0  0  0  0  0  0  0  0  0  0
   -2.7270   15.0410   -0.4230 C   0  0  0  0  0  0  0  0  0  0  0  0
   -2.8020   14.9160    0.9500 C   0  0  0  0  0  0  0  0  0  0  0  0
   -1.4640   14.8920   -0.9900 C   0  0  0  0  0  0  0  0  0  0  0  0
   -4.0420   15.0960    1.5780 N   0  0  0  0  0  0  0  0  0  0  0  0
   -0.3790   14.6140   -0.2260 N   0  0  0  0  0  0  0  0  0  0  0  0
   -1.7390   14.6420    1.7280 N   0  0  0  0  0  0  0  0  0  0  0  0
   -1.2420   15.0550   -2.3950 N   0  0  0  0  0  0  0  0  0  0  0  0
   -0.5710   14.5000    1.0940 C   0  0  0  0  0  0  0  0  0  0  0  0
   -0.3900   13.9830   -2.8150 C   0  0  0  0  0  0  0  0  0  0  0  0
   -2.4590   15.1560   -3.2580 C   0  0  0  0  0  0  0  0  0  0  0  0
   -1.3200   13.0800   -3.5780 C   0  0  1  0  0  0  0  0  0  0  0  0
   -1.9880   15.0980   -4.7170 C   0  0  0  0  0  0  0  0  0  0  0  0
   -0.9830   11.5940   -3.4210 C   0  0  1  0  0  0  0  0  0  0  0  0
   -2.6440   12.7070   -2.8360 C   0  0  0  0  0  0  0  0  0  0  0  0
   -1.4860   13.6910   -4.9780 C   0  0  0  0  0  0  0  0  0  0  0  0
    0.4760   11.3350   -3.3690 C   0  0  0  0  0  0  0  0  0  0  0  0
   -1.8260   11.6180   -2.1410 C   0  0  0  0  0  0  0  0  0  0  0  0
    1.1560   12.1840   -2.4690 O   0  0  0  0  0  0  0  0  0  0  0  0
    0.6520   10.0070   -2.9020 O   0  0  0  0  0  0  0  0  0  0  0  0
    0.8610   11.6400   -4.7940 C   0  0  0  0  0  0  0  0  0  0  0  0
    1.8500   12.4960   -5.3370 C   0  0  0  0  0  0  0  0  0  0  0  0
    0.2610   11.0790   -5.9170 C   0  0  0  0  0  0  0  0  0  0  0  0
    0.8940   11.5730   -6.9940 N   0  0  0  0  0  0  0  0  0  0  0  0
    1.8640   12.4460   -6.6670 N   0  0  0  0  0  0  0  0  0  0  0  0
   -0.8180   10.1260   -6.0220 C   0  0  0  0  0  0  0  0  0  0  0  0
    0.5830   11.2120   -8.3660 C   0  0  0  0  0  0  0  0  0  0  0  0
   -0.5800    8.8510   -6.5370 C   0  0  0  0  0  0  0  0  0  0  0  0
   -2.0980   10.4810   -5.6040 C   0  0  0  0  0  0  0  0  0  0  0  0
   -1.6210    7.9330   -6.6260 C   0  0  0  0  0  0  0  0  0  0  0  0
   -3.1390    9.5650   -5.6920 C   0  0  0  0  0  0  0  0  0  0  0  0
   -2.9000    8.2940   -6.2020 C   0  0  0  0  0  0  0  0  0  0  0  0
  1  2  1  0
  2  3  2  0
  2  4  1  0
  3  5  1  0
  4  6  2  0
  3  7  1  0
  4  8  1  0
  6  9  1  0
  7  9  2  0
  8 10  1  0
  8 11  1  0
 12 10  1  1
 11 13  1  0
 12 14  1  0
 12 15  1  0
 12 16  1  0
 13 16  1  0
 14 17  1  1
 14 18  1  0
 15 18  1  0
 17 19  1  0
 17 20  1  0
 17 21  1  0
 21 22  1  0
 21 23  2  0
 23 24  1  0
 22 25  2  0
 24 25  1  0
 23 26  1  0
 24 27  1  0
 26 28  2  0
 26 29  1  0
 28 30  1  0
 29 31  2  0
 30 32  2  0
 31 32  1  0
M  END
