mac-x0365-mac-x0148
     RDKit          3D

 25 28  0  0  0  0  0  0  0  0999 V2000
   -0.7480   15.9170   -1.9850 O   0  0  0  0  0  0  0  0  0  0  0  0
   -1.9370   15.9620   -2.6250 C   0  0  0  0  0  0  0  0  0  0  0  0
   -1.9680   16.2910   -3.8000 O   0  0  0  0  0  0  0  0  0  0  0  0
   -3.1070   15.5750   -1.7250 C   0  0  1  0  0  0  0  0  0  0  0  0
   -4.3480   15.1520   -2.5050 C   0  0  0  0  0  0  0  0  0  0  0  0
   -2.7860   14.6430   -0.5590 C   0  0  2  0  0  0  0  0  0  0  0  0
   -5.5800   15.3010   -1.6610 C   0  0  1  0  0  0  0  0  0  0  0  0
   -4.1140   13.8660   -0.0670 C   0  0  0  0  0  0  0  0  0  0  0  0
   -2.3290   15.4860    0.6480 C   0  0  0  0  0  0  0  0  0  0  0  0
   -1.5370   13.7010   -0.8470 C   0  0  1  0  0  0  0  0  0  0  0  0
   -6.6590   15.0060   -2.4430 F   0  0  0  0  0  0  0  0  0  0  0  0
   -5.5410   14.3120   -0.5110 C   0  0  1  0  0  0  0  0  0  0  0  0
   -1.2220   13.1740   -2.2090 N   0  0  0  0  0  0  0  0  0  0  0  0
   -0.2880   14.2770   -0.3510 N   0  0  0  0  0  0  0  0  0  0  0  0
   -1.5010   14.7510    1.5920 N   0  0  0  0  0  0  0  0  0  0  0  0
   -6.2770   14.8490    0.5870 O   0  0  0  0  0  0  0  0  0  0  0  0
   -1.5980   13.7570   -3.5350 C   0  0  2  0  0  0  0  0  0  0  0  0
    0.1870   12.7410   -2.2400 C   0  0  0  0  0  0  0  0  0  0  0  0
   -0.2080   14.4050    1.0720 C   0  0  0  0  0  0  0  0  0  0  0  0
   -3.0320   14.1140   -3.9390 C   0  0  0  0  0  0  0  0  0  0  0  0
   -1.3850   12.7040   -4.6210 C   0  0  1  0  0  0  0  0  0  0  0  0
    0.5570   11.7690   -3.3530 C   0  0  0  0  0  0  0  0  0  0  0  0
   -1.8980   13.4350   -5.8240 C   0  0  0  0  0  0  0  0  0  0  0  0
   -3.0710   14.1280   -5.3870 O   0  0  0  0  0  0  0  0  0  0  0  0
    0.0460   12.2180   -4.7220 C   0  0  0  0  0  0  0  0  0  0  0  0
  1  2  1  0
  2  3  2  0
  4  2  1  6
  4  5  1  0
  4  6  1  0
  5  7  1  0
  6  8  1  1
  6  9  1  0
  6 10  1  0
  7 11  1  6
  7 12  1  0
  8 12  1  0
 10 13  1  6
 10 14  1  0
  9 15  1  0
 12 16  1  1
 13 17  1  0
 13 18  1  0
 14 19  1  0
 15 19  1  0
 17 20  1  1
 17 21  1  0
 18 22  1  0
 21 23  1  6
 20 24  1  0
 23 24  1  0
 21 25  1  0
 22 25  1  0
M  END
