mac-x0303-diamond-x0722_0_A
     RDKit          3D

 25 27  0  0  0  0  0  0  0  0999 V2000
   -8.7680   13.2000    2.7760 N   0  0  0  0  0  0  0  0  0  0  0  0
   -9.0350   14.6730    2.0190 S   0  0  0  0  0  0  0  0  0  0  0  0
   -8.6810   15.7190    2.9530 O   0  0  0  0  0  0  0  0  0  0  0  0
  -10.3340   14.5970    1.4180 O   0  0  0  0  0  0  0  0  0  0  0  0
   -7.8720   14.7890    0.7050 C   0  0  0  0  0  0  0  0  0  0  0  0
   -6.7510   14.0360    0.6820 N   0  0  0  0  0  0  0  0  0  0  0  0
   -7.9120   15.5630   -0.3580 N   0  0  0  0  0  0  0  0  0  0  0  0
   -6.0330   14.3420   -0.4470 C   0  0  0  0  0  0  0  0  0  0  0  0
   -6.7610   15.2740   -1.0500 C   0  0  0  0  0  0  0  0  0  0  0  0
   -4.8370   13.8820   -0.9610 C   0  0  0  0  0  0  0  0  0  0  0  0
   -6.2550   15.7700   -2.2220 C   0  0  0  0  0  0  0  0  0  0  0  0
   -4.1670   12.8830   -0.2240 C   0  0  2  0  0  0  0  0  0  0  0  0
   -4.3370   14.3830   -2.1240 C   0  0  0  0  0  0  0  0  0  0  0  0
   -5.0320   15.3200   -2.7580 C   0  0  0  0  0  0  0  0  0  0  0  0
   -5.2980   12.3230    0.6090 C   0  0  0  0  0  0  0  0  0  0  0  0
   -3.0840   13.7430    0.3180 C   0  0  0  0  0  0  0  0  0  0  0  0
   -6.3690   11.9400    0.1210 O   0  0  0  0  0  0  0  0  0  0  0  0
   -5.1270   12.2800    1.9510 N   0  0  0  0  0  0  0  0  0  0  0  0
   -3.2480   14.7260    1.3240 C   0  0  0  0  0  0  0  0  0  0  0  0
   -1.7510   13.8070   -0.0300 C   0  0  0  0  0  0  0  0  0  0  0  0
   -4.4620   15.1490    2.0490 C   0  0  0  0  0  0  0  0  0  0  0  0
   -0.9010   13.1020   -1.0220 C   0  0  0  0  0  0  0  0  0  0  0  0
   -2.1040   15.3080    1.5890 N   0  0  0  0  0  0  0  0  0  0  0  0
   -1.2290   14.7490    0.7780 N   0  0  0  0  0  0  0  0  0  0  0  0
    0.1160   15.1830    0.8330 C   0  0  0  0  0  0  0  0  0  0  0  0
  2  1  1  0
  2  3  2  0
  2  4  2  0
  2  5  1  0
  5  6  1  0
  5  7  2  0
  6  8  1  0
  7  9  1  0
  8  9  2  0
  8 10  1  0
  9 11  1  0
 10 12  1  0
 10 13  2  0
 11 14  2  0
 13 14  1  0
 12 15  1  1
 12 16  1  0
 15 17  2  0
 15 18  1  0
 16 19  1  0
 16 20  2  0
 19 21  1  0
 20 22  1  0
 19 23  2  0
 20 24  1  0
 23 24  1  0
 24 25  1  0
M  END
