mac-x0437-mac-x0358
     RDKit          3D

 21 23  0  0  0  0  0  0  0  0999 V2000
    1.6410   14.0240   -2.7020 O   0  0  0  0  0  0  0  0  0  0  0  0
    1.0840   12.8440   -3.0140 C   0  0  0  0  0  0  0  0  0  0  0  0
    1.2950   11.8630   -2.3320 O   0  0  0  0  0  0  0  0  0  0  0  0
    0.2250   12.8200   -4.2470 C   0  0  2  0  0  0  0  0  0  0  0  0
    0.8730   12.3450   -5.4860 C   0  0  0  0  0  0  0  0  0  0  0  0
   -0.8440   13.8070   -4.6110 C   0  0  0  0  0  0  0  0  0  0  0  0
   -0.0190   11.2640   -5.7760 N   0  0  0  0  0  0  0  0  0  0  0  0
   -2.0100   13.2130   -5.1140 C   0  0  0  0  0  0  0  0  0  0  0  0
   -0.8030   15.2010   -4.5270 C   0  0  0  0  0  0  0  0  0  0  0  0
   -2.1420   11.8650   -5.2380 O   0  0  0  0  0  0  0  0  0  0  0  0
   -1.0190   10.8590   -4.9190 C   0  0  0  0  0  0  0  0  0  0  0  0
   -0.0490   10.4850   -6.8570 C   0  0  0  0  0  0  0  0  0  0  0  0
   -3.1020   13.9370   -5.5230 C   0  0  0  0  0  0  0  0  0  0  0  0
   -1.9160   15.9490   -4.9420 C   0  0  0  0  0  0  0  0  0  0  0  0
   -1.6960    9.8530   -5.4030 N   0  0  0  0  0  0  0  0  0  0  0  0
   -1.1000    9.6070   -6.6070 C   0  0  0  0  0  0  0  0  0  0  0  0
    0.7220   10.4570   -8.0010 C   0  0  0  0  0  0  0  0  0  0  0  0
   -3.0610   15.3170   -5.4390 C   0  0  0  0  0  0  0  0  0  0  0  0
   -1.4060    8.6370   -7.5520 C   0  0  0  0  0  0  0  0  0  0  0  0
    0.4090    9.4810   -8.9340 C   0  0  0  0  0  0  0  0  0  0  0  0
   -0.6370    8.5830   -8.7170 C   0  0  0  0  0  0  0  0  0  0  0  0
  1  2  1  0
  2  3  2  0
  2  4  1  0
  4  5  1  6
  4  6  1  0
  5  7  1  0
  6  8  2  0
  6  9  1  0
  8 10  1  0
  7 11  1  0
  7 12  1  0
  8 13  1  0
  9 14  2  0
 11 15  2  0
 12 16  2  0
 15 16  1  0
 12 17  1  0
 13 18  2  0
 14 18  1  0
 16 19  1  0
 17 20  2  0
 19 21  2  0
 20 21  1  0
M  END
