mac-x0588-diamond-x0900_0_A
     RDKit          3D

 20 23  0  0  0  0  0  0  0  0999 V2000
   -4.0100   16.3830    1.0660 N   0  0  0  0  0  0  0  0  0  0  0  0
   -3.6510   15.1520    0.4180 C   0  0  2  0  0  0  0  0  0  0  0  0
   -2.2190   15.0440    0.4050 C   0  0  0  0  0  0  0  0  0  0  0  0
   -4.2080   15.0180   -0.9490 C   0  0  0  0  0  0  0  0  0  0  0  0
   -4.3830   14.0420    1.1060 C   0  0  0  0  0  0  0  0  0  0  0  0
   -3.4410   15.0970   -2.0610 C   0  0  0  0  0  0  0  0  0  0  0  0
   -1.4480   15.1190   -0.7260 C   0  0  0  0  0  0  0  0  0  0  0  0
   -1.4020   14.8530    1.4570 N   0  0  0  0  0  0  0  0  0  0  0  0
   -5.6640   14.7920   -0.7280 C   0  0  0  0  0  0  0  0  0  0  0  0
   -5.8400   14.2800    0.6900 C   0  0  0  0  0  0  0  0  0  0  0  0
   -6.5680   14.9680   -1.5190 O   0  0  0  0  0  0  0  0  0  0  0  0
   -2.0340   15.3050   -1.9670 N   0  0  0  0  0  0  0  0  0  0  0  0
   -0.1390   14.9800   -0.3950 N   0  0  0  0  0  0  0  0  0  0  0  0
   -0.1570   14.8310    0.9270 C   0  0  0  0  0  0  0  0  0  0  0  0
   -1.1740   15.1750   -3.1620 C   0  0  0  0  0  0  0  0  0  0  0  0
   -0.5620   16.5100   -3.6530 C   0  0  2  0  0  0  0  0  0  0  0  0
   -1.5530   17.3840   -4.2760 O   0  0  0  0  0  0  0  0  0  0  0  0
    0.5770   16.3800   -4.6570 C   0  0  0  0  0  0  0  0  0  0  0  0
    0.5670   17.7280   -5.3280 C   0  0  0  0  0  0  0  0  0  0  0  0
   -0.9150   18.0570   -5.3730 C   0  0  0  0  0  0  0  0  0  0  0  0
  2  1  1  1
  2  3  1  0
  2  4  1  0
  2  5  1  0
  4  6  2  0
  3  7  2  0
  3  8  1  0
  4  9  1  0
  5 10  1  0
  9 10  1  0
  9 11  2  0
  6 12  1  0
  7 12  1  0
  7 13  1  0
  8 14  1  0
 13 14  2  0
 12 15  1  0
 16 15  1  6
 16 17  1  0
 16 18  1  0
 18 19  1  0
 17 20  1  0
 19 20  1  0
M  END
