mac-x0319-mac-x0138
     RDKit          3D

 23 25  0  0  0  0  0  0  0  0999 V2000
    0.5850   10.6250   -2.9010 O   0  0  0  0  0  0  0  0  0  0  0  0
    0.9990   11.8770   -2.6110 C   0  0  0  0  0  0  0  0  0  0  0  0
    0.8080   12.3210   -1.4910 O   0  0  0  0  0  0  0  0  0  0  0  0
    1.6590   12.5790   -3.7780 C   0  0  0  0  0  0  0  0  0  0  0  0
    0.9380   13.8650   -4.0090 C   0  0  0  0  0  0  0  0  0  0  0  0
    1.5360   15.0740   -4.3780 C   0  0  0  0  0  0  0  0  0  0  0  0
   -0.4220   13.8170   -3.8220 C   0  0  0  0  0  0  0  0  0  0  0  0
    0.7320   16.2070   -4.5550 C   0  0  0  0  0  0  0  0  0  0  0  0
   -1.1940   14.9340   -3.9900 C   0  0  0  0  0  0  0  0  0  0  0  0
    1.2840   17.3880   -4.9130 O   0  0  0  0  0  0  0  0  0  0  0  0
   -2.6270   14.7740   -3.7540 C   0  0  0  0  0  0  0  0  0  0  0  0
   -0.6280   16.1440   -4.3650 C   0  0  0  0  0  0  0  0  0  0  0  0
   -3.0660   14.9690   -2.3870 N   0  0  0  0  0  0  0  0  0  0  0  0
   -4.3250   15.4030   -2.1870 C   0  0  0  0  0  0  0  0  0  0  0  0
   -2.4740   14.8060   -1.1170 C   0  0  0  0  0  0  0  0  0  0  0  0
   -4.6210   15.5470   -0.9350 N   0  0  0  0  0  0  0  0  0  0  0  0
   -3.4970   15.1830   -0.2610 C   0  0  0  0  0  0  0  0  0  0  0  0
   -1.2470   14.3990   -0.7110 N   0  0  0  0  0  0  0  0  0  0  0  0
   -3.2530   15.1420    1.1090 C   0  0  0  0  0  0  0  0  0  0  0  0
   -1.1330   14.3910    0.6500 C   0  0  0  0  0  0  0  0  0  0  0  0
   -4.2220   15.5140    2.0190 N   0  0  0  0  0  0  0  0  0  0  0  0
    0.0500   13.9820    1.2040 N   0  0  0  0  0  0  0  0  0  0  0  0
   -2.0520   14.7320    1.5520 N   0  0  0  0  0  0  0  0  0  0  0  0
  1  2  1  0
  2  3  2  0
  2  4  1  0
  4  5  1  0
  5  6  2  0
  5  7  1  0
  6  8  1  0
  7  9  2  0
  8 10  1  0
  9 11  1  0
  8 12  2  0
  9 12  1  0
 11 13  1  0
 13 14  1  0
 13 15  1  0
 14 16  2  0
 15 17  2  0
 16 17  1  0
 15 18  1  0
 17 19  1  0
 18 20  2  0
 19 21  1  0
 20 22  1  0
 19 23  2  0
 20 23  1  0
M  END
