mac-x0404-mac-x0385
     RDKit          3D

 27 29  0  0  0  0  0  0  0  0999 V2000
    2.0420   12.5790   -2.1300 O   0  0  0  0  0  0  0  0  0  0  0  0
    1.0080   12.5680   -3.0750 C   0  0  0  0  0  0  0  0  0  0  0  0
    0.3960   11.2760   -2.9780 O   0  0  0  0  0  0  0  0  0  0  0  0
    1.6020   12.7150   -4.4820 C   0  0  0  0  0  0  0  0  0  0  0  0
    0.0220   13.7200   -2.7930 C   0  0  0  0  0  0  0  0  0  0  0  0
    1.3370   14.0220   -4.9710 O   0  0  0  0  0  0  0  0  0  0  0  0
    0.6060   14.9150   -2.0850 C   0  0  0  0  0  0  0  0  0  0  0  0
    1.0830   14.5140   -0.6990 C   0  0  0  0  0  0  0  0  0  0  0  0
    0.0230   14.4400   -5.0550 C   0  0  0  0  0  0  0  0  0  0  0  0
    0.2140   14.7920    0.5510 C   0  0  0  0  0  0  0  0  0  0  0  0
   -0.1610   15.8280   -5.1880 C   0  0  0  0  0  0  0  0  0  0  0  0
   -1.1000   13.6020   -5.0230 C   0  0  0  0  0  0  0  0  0  0  0  0
   -1.4600   16.3670   -5.2950 C   0  0  0  0  0  0  0  0  0  0  0  0
   -2.3860   14.1410   -5.1210 C   0  0  0  0  0  0  0  0  0  0  0  0
    0.9220   16.7010   -5.2250 C   0  0  0  0  0  0  0  0  0  0  0  0
   -1.2280   14.9480    0.2670 C   0  0  0  0  0  0  0  0  0  0  0  0
   -2.5670   15.5140   -5.2570 C   0  0  0  0  0  0  0  0  0  0  0  0
   -1.6220   17.7470   -5.4450 C   0  0  0  0  0  0  0  0  0  0  0  0
    0.7570   18.0730   -5.3720 C   0  0  0  0  0  0  0  0  0  0  0  0
   -2.0450   15.1970    1.3050 N   0  0  0  0  0  0  0  0  0  0  0  0
   -1.5950   14.8370   -1.0120 N   0  0  0  0  0  0  0  0  0  0  0  0
   -0.5250   18.5890   -5.4860 C   0  0  0  0  0  0  0  0  0  0  0  0
   -3.3430   15.3590    0.9940 C   0  0  0  0  0  0  0  0  0  0  0  0
   -2.8930   14.9970   -1.2720 C   0  0  0  0  0  0  0  0  0  0  0  0
   -4.2080   15.6410    2.0550 N   0  0  0  0  0  0  0  0  0  0  0  0
   -3.8250   15.2660   -0.3050 C   0  0  0  0  0  0  0  0  0  0  0  0
   -5.2530   15.4420   -0.6870 C   0  0  0  0  0  0  0  0  0  0  0  0
  2  1  1  0
  2  3  1  0
  2  4  1  0
  2  5  1  0
  4  6  1  0
  5  7  1  0
  7  8  1  0
  6  9  1  0
  8 10  1  0
  9 11  1  0
  9 12  2  0
 11 13  2  0
 12 14  1  0
 11 15  1  0
 10 16  1  0
 13 17  1  0
 14 17  2  0
 13 18  1  0
 15 19  2  0
 16 20  2  0
 16 21  1  0
 18 22  2  0
 19 22  1  0
 20 23  1  0
 21 24  2  0
 23 25  1  0
 23 26  2  0
 24 26  1  0
 26 27  1  0
M  END
