mac-x0131-mac-x0328
     RDKit          3D

 27 30  0  0  0  0  0  0  0  0999 V2000
   -3.8500   15.4470   -3.5870 C   0  0  0  0  0  0  0  0  0  0  0  0
   -3.2790   15.2580   -2.2420 C   0  0  0  0  0  0  0  0  0  0  0  0
   -3.8200   15.4700   -1.0060 C   0  0  0  0  0  0  0  0  0  0  0  0
   -2.0260   14.7890   -2.0910 N   0  0  0  0  0  0  0  0  0  0  0  0
   -5.1860   15.9590   -0.7000 C   0  0  0  0  0  0  0  0  0  0  0  0
   -1.2870   14.4390   -3.2510 C   0  0  2  0  0  0  0  0  0  0  0  0
   -2.8200   15.1230   -0.0690 C   0  0  0  0  0  0  0  0  0  0  0  0
   -1.6920   14.7010   -0.7650 C   0  0  0  0  0  0  0  0  0  0  0  0
   -2.4980   13.7690   -3.8470 C   0  0  0  0  0  0  0  0  0  0  0  0
   -2.7520   15.1190    1.2940 C   0  0  0  0  0  0  0  0  0  0  0  0
   -0.5310   14.2890   -0.2380 N   0  0  0  0  0  0  0  0  0  0  0  0
   -0.2140   13.4560   -3.3070 C   0  0  0  0  0  0  0  0  0  0  0  0
   -3.8330   15.5220    2.0580 N   0  0  0  0  0  0  0  0  0  0  0  0
   -2.4890   13.2250   -4.9340 O   0  0  0  0  0  0  0  0  0  0  0  0
   -1.6130   14.7170    1.8810 N   0  0  0  0  0  0  0  0  0  0  0  0
   -0.5830   14.3330    1.1030 C   0  0  0  0  0  0  0  0  0  0  0  0
    1.1480   13.5350   -3.2520 C   0  0  0  0  0  0  0  0  0  0  0  0
   -0.6300   12.1680   -3.4480 O   0  0  0  0  0  0  0  0  0  0  0  0
   -3.7590   13.7900   -2.9900 C   0  0  0  0  0  0  0  0  0  0  0  0
    0.4760   11.4170   -3.4830 C   0  0  0  0  0  0  0  0  0  0  0  0
    1.6000   12.2160   -3.3650 C   0  0  0  0  0  0  0  0  0  0  0  0
   -3.7870   13.2890   -1.6670 C   0  0  0  0  0  0  0  0  0  0  0  0
   -4.9500   14.3400   -3.5160 C   0  0  0  0  0  0  0  0  0  0  0  0
   -4.9630   13.3510   -0.8990 C   0  0  0  0  0  0  0  0  0  0  0  0
   -6.1220   14.4000   -2.7440 C   0  0  0  0  0  0  0  0  0  0  0  0
   -6.1180   13.9090   -1.4420 C   0  0  0  0  0  0  0  0  0  0  0  0
   -7.2350   13.9540   -0.6530 O   0  0  0  0  0  0  0  0  0  0  0  0
  1  2  1  0
  2  3  2  0
  2  4  1  0
  3  5  1  0
  4  6  1  0
  3  7  1  0
  4  8  1  0
  7  8  2  0
  6  9  1  6
  7 10  1  0
  8 11  1  0
  6 12  1  0
 10 13  1  0
  9 14  2  0
 10 15  2  0
 11 16  2  0
 15 16  1  0
 12 17  2  0
 12 18  1  0
  9 19  1  0
 18 20  1  0
 17 21  1  0
 20 21  2  0
 19 22  2  0
 19 23  1  0
 22 24  1  0
 23 25  2  0
 24 26  2  0
 25 26  1  0
 26 27  1  0
M  END
