mac-x0496-diamond-x0587_0_A
     RDKit          3D

 27 29  0  0  0  0  0  0  0  0999 V2000
   -9.5030   17.7660    4.6500 C   0  0  0  0  0  0  0  0  0  0  0  0
   -9.7970   16.4490    3.9450 C   0  0  1  0  0  0  0  0  0  0  0  0
  -10.4800   16.6400    2.6490 N   0  0  0  0  0  0  0  0  0  0  0  0
   -8.5860   15.7040    3.5920 N   0  0  0  0  0  0  0  0  0  0  0  0
  -10.0280   15.4860    1.8340 O   0  0  0  0  0  0  0  0  0  0  0  0
   -9.2960   14.7160    2.7920 C   0  0  1  0  0  0  0  0  0  0  0  0
   -7.9230   15.0960    4.7540 N   0  0  0  0  0  0  0  0  0  0  0  0
   -8.4460   13.5480    2.2450 C   0  0  0  0  0  0  0  0  0  0  0  0
   -7.5480   13.6620    1.0350 C   0  0  0  0  0  0  0  0  0  0  0  0
   -7.8870   14.2310   -0.1870 C   0  0  0  0  0  0  0  0  0  0  0  0
   -6.2630   13.1550    1.0890 C   0  0  0  0  0  0  0  0  0  0  0  0
   -7.0480   14.2800   -1.2600 N   0  0  0  0  0  0  0  0  0  0  0  0
   -5.3980   13.1820    0.0590 N   0  0  0  0  0  0  0  0  0  0  0  0
   -5.8090   13.7360   -1.1050 C   0  0  0  0  0  0  0  0  0  0  0  0
   -4.7940   13.6970   -2.2820 C   0  0  2  0  0  0  0  0  0  0  0  0
   -4.3150   14.9170   -2.8900 O   0  0  0  0  0  0  0  0  0  0  0  0
   -5.2820   12.9690   -3.3250 F   0  0  0  0  0  0  0  0  0  0  0  0
   -3.0310   15.1040   -2.5460 C   0  0  0  0  0  0  0  0  0  0  0  0
   -2.0640   15.3140   -3.2650 O   0  0  0  0  0  0  0  0  0  0  0  0
   -3.0120   14.9820   -1.0880 C   0  0  0  0  0  0  0  0  0  0  0  0
   -1.8260   14.7180   -0.3900 C   0  0  0  0  0  0  0  0  0  0  0  0
   -4.2050   15.1260   -0.4060 C   0  0  0  0  0  0  0  0  0  0  0  0
   -1.8560   14.5990    0.9950 C   0  0  0  0  0  0  0  0  0  0  0  0
   -4.2230   14.9920    0.9620 C   0  0  0  0  0  0  0  0  0  0  0  0
   -5.5040   15.1170    1.6500 C   0  0  0  0  0  0  0  0  0  0  0  0
   -3.0630   14.7350    1.6610 C   0  0  0  0  0  0  0  0  0  0  0  0
   -6.5500   15.0830    1.0110 O   0  0  0  0  0  0  0  0  0  0  0  0
  2  1  1  6
  2  3  1  0
  2  4  1  0
  3  5  1  0
  4  6  1  0
  5  6  1  0
  4  7  1  0
  6  8  1  6
  8  9  1  0
  9 10  2  0
  9 11  1  0
 10 12  1  0
 11 13  2  0
 12 14  2  0
 13 14  1  0
 14 15  1  0
 15 16  1  0
 15 17  1  6
 16 18  1  0
 18 19  2  0
 18 20  1  0
 20 21  2  0
 20 22  1  0
 21 23  1  0
 22 24  2  0
 24 25  1  0
 23 26  2  0
 24 26  1  0
 25 27  2  0
M  END
