mac-x0255-mac-x0572
     RDKit          3D

 29 32  0  0  0  0  0  0  0  0999 V2000
    0.9010   12.4700   -1.4100 O   0  0  0  0  0  0  0  0  0  0  0  0
    0.3660   11.9720   -2.6100 C   0  0  0  0  0  0  0  0  0  0  0  0
    0.5290   10.5590   -2.5680 O   0  0  0  0  0  0  0  0  0  0  0  0
    1.0190   12.6250   -3.8800 C   0  0  0  0  0  0  0  0  0  0  0  0
   -1.1310   12.2400   -2.4780 C   0  0  0  0  0  0  0  0  0  0  0  0
   -1.3990   13.4000   -1.5210 C   0  0  0  0  0  0  0  0  0  0  0  0
    0.4440   13.9720   -4.3090 C   0  0  0  0  0  0  0  0  0  0  0  0
   -2.3280   14.4670   -2.0890 C   0  0  0  0  0  0  0  0  0  0  0  0
    1.0940   15.1850   -4.4980 C   0  0  0  0  0  0  0  0  0  0  0  0
   -1.2250   14.1320   -4.6270 S   0  0  0  0  0  0  0  0  0  0  0  0
    0.2090   16.2450   -4.9070 C   0  0  0  0  0  0  0  0  0  0  0  0
   -1.1090   15.7950   -5.0140 C   0  0  0  0  0  0  0  0  0  0  0  0
   -3.3340   14.8920   -1.0680 C   0  0  0  0  0  0  0  0  0  0  0  0
    0.4600   17.6040   -5.2020 C   0  0  0  0  0  0  0  0  0  0  0  0
   -2.1640   16.6460   -5.3970 C   0  0  0  0  0  0  0  0  0  0  0  0
   -2.8580   15.1440    0.2860 C   0  0  0  0  0  0  0  0  0  0  0  0
   -4.6320   15.0160   -1.3680 C   0  0  0  0  0  0  0  0  0  0  0  0
   -0.5830   18.4500   -5.5870 C   0  0  0  0  0  0  0  0  0  0  0  0
   -1.8790   17.9770   -5.6820 C   0  0  0  0  0  0  0  0  0  0  0  0
   -5.6450   15.4150   -0.3460 C   0  0  1  0  0  0  0  0  0  0  0  0
   -3.6860   15.2680    1.3160 C   0  0  0  0  0  0  0  0  0  0  0  0
   -7.0220   14.7910   -0.5270 C   0  0  0  0  0  0  0  0  0  0  0  0
   -5.1300   15.1440    1.0590 C   0  0  0  0  0  0  0  0  0  0  0  0
   -7.4520   14.4310   -1.6190 O   0  0  0  0  0  0  0  0  0  0  0  0
   -7.8660   14.6310    0.7100 C   0  0  0  0  0  0  0  0  0  0  0  0
   -5.8840   14.8030    2.0540 N   0  0  0  0  0  0  0  0  0  0  0  0
   -9.2290   14.4790    0.5430 O   0  0  0  0  0  0  0  0  0  0  0  0
   -7.2360   14.6520    1.9010 C   0  0  0  0  0  0  0  0  0  0  0  0
   -7.9490   14.5120    3.2240 C   0  0  0  0  0  0  0  0  0  0  0  0
  2  1  1  0
  2  3  1  0
  2  4  1  0
  2  5  1  0
  5  6  1  0
  4  7  1  0
  6  8  1  0
  7  9  2  0
  7 10  1  0
  9 11  1  0
 10 12  1  0
 11 12  2  0
  8 13  1  0
 11 14  1  0
 12 15  1  0
 13 16  1  0
 13 17  2  0
 14 18  2  0
 15 19  2  0
 18 19  1  0
 20 17  1  6
 16 21  2  0
 20 22  1  0
 20 23  1  0
 21 23  1  0
 22 24  2  0
 22 25  1  0
 23 26  2  0
 25 27  1  0
 25 28  2  0
 26 28  1  0
 28 29  1  0
M  END
