mac-x0333-diamond-x0438_0_A
     RDKit          3D

 15 16  0  0  0  0  0  0  0  0999 V2000
   -2.7530   15.2180   -2.7880 O   0  0  0  0  0  0  0  0  0  0  0  0
   -3.5750   15.1360   -1.6990 C   0  0  0  0  0  0  0  0  0  0  0  0
   -3.0450   15.0850   -0.3950 C   0  0  0  0  0  0  0  0  0  0  0  0
   -4.9570   15.1010   -1.9200 C   0  0  0  0  0  0  0  0  0  0  0  0
   -5.7650   15.0120   -0.8060 C   0  0  0  0  0  0  0  0  0  0  0  0
   -3.8890   15.0050    0.7100 C   0  0  0  0  0  0  0  0  0  0  0  0
   -5.2460   14.9690    0.4730 C   0  0  0  0  0  0  0  0  0  0  0  0
   -7.1400   14.9490   -0.7580 O   0  0  0  0  0  0  0  0  0  0  0  0
   -6.2390   14.8850    1.4030 O   0  0  0  0  0  0  0  0  0  0  0  0
   -7.2210   14.3140    0.5410 C   0  0  1  0  0  0  0  0  0  0  0  0
   -8.6190   14.1350    1.1320 C   0  0  0  0  0  0  0  0  0  0  0  0
   -9.2350   15.2780    2.3560 S   0  0  0  0  0  0  0  0  0  0  0  0
   -8.0520   15.3800    3.6850 C   0  0  0  0  0  0  0  0  0  0  0  0
  -10.4080   14.6410    2.9340 O   0  0  0  0  0  0  0  0  0  0  0  0
   -9.4140   16.5720    1.7480 O   0  0  0  0  0  0  0  0  0  0  0  0
  1  2  1  0
  2  3  2  0
  2  4  1  0
  4  5  2  0
  3  6  1  0
  5  7  1  0
  6  7  2  0
  5  8  1  0
  7  9  1  0
  8 10  1  0
  9 10  1  0
 10 11  1  1
 12 11  1  0
 12 13  1  0
 12 14  2  0
 12 15  2  0
M  END
