mac-x0380-mac-x0271
     RDKit          3D

 15 16  0  0  0  0  0  0  0  0999 V2000
   -1.3980   14.6760   -2.5270 O   0  0  0  0  0  0  0  0  0  0  0  0
   -2.6750   14.9900   -2.7920 C   0  0  0  0  0  0  0  0  0  0  0  0
   -3.0380   15.2540   -3.9260 O   0  0  0  0  0  0  0  0  0  0  0  0
   -3.5440   14.9790   -1.5880 C   0  0  0  0  0  0  0  0  0  0  0  0
   -4.9330   15.0950   -1.6940 C   0  0  0  0  0  0  0  0  0  0  0  0
   -2.9580   14.8490   -0.3190 C   0  0  0  0  0  0  0  0  0  0  0  0
   -5.7340   15.0710   -0.5500 C   0  0  0  0  0  0  0  0  0  0  0  0
   -3.7590   14.8280    0.8270 C   0  0  0  0  0  0  0  0  0  0  0  0
   -5.1490   14.9350    0.7050 C   0  0  0  0  0  0  0  0  0  0  0  0
   -7.4920   15.2150   -0.7450 S   0  0  0  0  0  0  0  0  0  0  0  0
   -5.9220   14.8960    1.8630 N   0  0  0  0  0  0  0  0  0  0  0  0
   -8.2270   14.6550    0.7330 C   0  0  0  0  0  0  0  0  0  0  0  0
   -9.3900   14.3030    0.8010 O   0  0  0  0  0  0  0  0  0  0  0  0
   -7.2900   14.6940    1.9550 C   0  0  0  0  0  0  0  0  0  0  0  0
   -7.8100   14.5490    3.0570 O   0  0  0  0  0  0  0  0  0  0  0  0
  1  2  1  0
  2  3  2  0
  2  4  1  0
  4  5  2  0
  4  6  1  0
  5  7  1  0
  6  8  2  0
  7  9  2  0
  8  9  1  0
  7 10  1  0
  9 11  1  0
 10 12  1  0
 12 13  2  0
 11 14  1  0
 12 14  1  0
 14 15  2  0
M  END
