mac-x0204-mac-x0255
     RDKit          3D

 21 23  0  0  0  0  0  0  0  0999 V2000
    0.3810   12.8690   -1.0770 O   0  0  0  0  0  0  0  0  0  0  0  0
    0.3420   13.0100   -2.8260 S   0  0  0  0  0  0  0  0  0  0  0  0
    0.2680   14.5190   -2.2970 O   0  0  0  0  0  0  0  0  0  0  0  0
    0.2900   11.5810   -2.8930 O   0  0  0  0  0  0  0  0  0  0  0  0
    1.5740   13.3980   -3.7300 C   0  0  0  0  0  0  0  0  0  0  0  0
   -1.1390   13.3180   -3.5950 C   0  0  0  0  0  0  0  0  0  0  0  0
   -1.6520   14.6110   -3.7180 C   0  0  0  0  0  0  0  0  0  0  0  0
   -1.8240   12.3030   -4.1320 C   0  0  0  0  0  0  0  0  0  0  0  0
    0.9070   14.5780   -4.3090 C   0  0  0  0  0  0  0  0  0  0  0  0
   -2.8570   14.8140   -4.4180 C   0  0  0  0  0  0  0  0  0  0  0  0
   -2.9790   12.5450   -4.7860 N   0  0  0  0  0  0  0  0  0  0  0  0
    1.2330   15.8760   -4.4030 C   0  0  0  0  0  0  0  0  0  0  0  0
   -0.6350   14.5230   -5.0030 S   0  0  0  0  0  0  0  0  0  0  0  0
   -3.3330   16.0960   -4.5480 O   0  0  0  0  0  0  0  0  0  0  0  0
   -3.5140   13.7550   -4.9520 C   0  0  0  0  0  0  0  0  0  0  0  0
    0.3160   16.7100   -4.9460 C   0  0  0  0  0  0  0  0  0  0  0  0
   -0.8630   16.1660   -5.3470 C   0  0  0  0  0  0  0  0  0  0  0  0
    0.4000   18.0930   -5.1520 C   0  0  0  0  0  0  0  0  0  0  0  0
   -1.9330   16.8960   -5.9010 C   0  0  0  0  0  0  0  0  0  0  0  0
   -0.6530   18.7910   -5.7050 C   0  0  0  0  0  0  0  0  0  0  0  0
   -1.8340   18.2270   -6.0840 C   0  0  0  0  0  0  0  0  0  0  0  0
  1  2  1  0
  2  3  2  0
  2  4  1  0
  2  5  1  0
  2  6  1  0
  6  7  2  0
  6  8  1  0
  5  9  1  0
  7 10  1  0
  8 11  2  0
  9 12  2  0
  9 13  1  0
 10 14  1  0
 10 15  2  0
 11 15  1  0
 12 16  1  0
 13 17  1  0
 16 17  2  0
 16 18  1  0
 17 19  1  0
 18 20  2  0
 19 21  2  0
 20 21  1  0
M  END
