mac-x0568-diamond-x0900_0_A
     RDKit          3D

 10 10  0  0  0  0  0  0  0  0999 V2000
   -8.5460   14.4740    1.4160 C   0  0  0  0  0  0  0  0  0  0  0  0
   -7.1940   14.6290    0.7810 C   0  0  0  0  0  0  0  0  0  0  0  0
   -6.0440   14.5980    1.5650 C   0  0  0  0  0  0  0  0  0  0  0  0
   -7.1490   14.8040   -0.5590 N   0  0  0  0  0  0  0  0  0  0  0  0
   -5.9260   14.9480   -1.1260 C   0  0  0  0  0  0  0  0  0  0  0  0
   -4.7960   14.7450    0.9610 C   0  0  0  0  0  0  0  0  0  0  0  0
   -4.7330   14.9230   -0.4190 C   0  0  0  0  0  0  0  0  0  0  0  0
   -3.4740   15.0800   -1.1690 C   0  0  0  0  0  0  0  0  0  0  0  0
   -3.4690   15.3960   -2.3540 O   0  0  0  0  0  0  0  0  0  0  0  0
   -2.3070   14.8410   -0.4930 N   0  0  0  0  0  0  0  0  0  0  0  0
  1  2  1  0
  2  3  2  0
  2  4  1  0
  4  5  2  0
  3  6  1  0
  5  7  1  0
  6  7  2  0
  7  8  1  0
  8  9  2  0
  8 10  1  0
M  END
