mac-x0451-mac-x0115
     RDKit          3D

 24 26  0  0  0  0  0  0  0  0999 V2000
   -6.4330   14.6040    2.3990 N   0  0  0  0  0  0  0  0  0  0  0  0
   -5.5210   14.6500    1.4120 C   0  0  0  0  0  0  0  0  0  0  0  0
   -5.8650   14.8870    0.1810 N   0  0  0  0  0  0  0  0  0  0  0  0
   -3.8190   14.4090    1.6700 S   0  0  0  0  0  0  0  0  0  0  0  0
   -4.7400   14.8950   -0.5880 C   0  0  0  0  0  0  0  0  0  0  0  0
   -3.5080   14.6570    0.0140 C   0  0  0  0  0  0  0  0  0  0  0  0
   -4.7960   15.1480   -1.9670 C   0  0  0  0  0  0  0  0  0  0  0  0
   -2.1430   14.6740   -0.7310 C   0  0  1  0  0  0  0  0  0  0  0  0
   -3.6810   15.5830   -2.5550 C   0  0  0  0  0  0  0  0  0  0  0  0
   -2.4080   15.7930   -1.7410 C   0  0  2  0  0  0  0  0  0  0  0  0
   -0.9340   14.8940    0.2050 C   0  0  0  0  0  0  0  0  0  0  0  0
   -1.6920   13.5610   -1.6970 C   0  0  0  0  0  0  0  0  0  0  0  0
   -1.3930   15.8930   -2.6350 F   0  0  0  0  0  0  0  0  0  0  0  0
   -1.0400   15.1820    1.3910 O   0  0  0  0  0  0  0  0  0  0  0  0
   -0.4040   13.9420   -2.3760 N   0  0  0  0  0  0  0  0  0  0  0  0
    0.3510   14.7040   -0.3160 N   0  0  0  0  0  0  0  0  0  0  0  0
   -0.3680   14.1200   -3.8620 C   0  0  0  0  0  0  0  0  0  0  0  0
    0.6870   14.2440   -1.5650 C   0  0  0  0  0  0  0  0  0  0  0  0
    0.3000   15.4240   -4.3670 C   0  0  0  0  0  0  0  0  0  0  0  0
    2.3150   14.0970   -1.9460 S   0  0  0  0  0  0  0  0  0  0  0  0
   -0.6830   16.1840   -5.0910 O   0  0  0  0  0  0  0  0  0  0  0  0
   -0.2690   17.4890   -5.5400 C   0  0  0  0  0  0  0  0  0  0  0  0
   -1.4630   18.4150   -5.3630 C   0  0  0  0  0  0  0  0  0  0  0  0
    0.9080   18.0050   -4.7290 C   0  0  0  0  0  0  0  0  0  0  0  0
  1  2  1  0
  2  3  2  0
  2  4  1  0
  3  5  1  0
  4  6  1  0
  5  6  2  0
  5  7  1  0
  6  8  1  0
  7  9  2  0
  8 10  1  0
  9 10  1  0
  8 11  1  0
  8 12  1  6
 10 13  1  6
 11 14  2  0
 12 15  1  0
 11 16  1  0
 15 17  1  0
 15 18  1  0
 16 18  1  0
 17 19  1  0
 18 20  2  0
 19 21  1  0
 21 22  1  0
 22 23  1  0
 22 24  1  0
M  END
