mac-x0148-mac-x0228
     RDKit          3D

 30 35  0  0  0  0  0  0  0  0999 V2000
   -2.3490   13.0400   -1.0350 O   0  0  0  0  0  0  0  0  0  0  0  0
   -3.1210   13.0530   -2.1320 C   0  0  0  0  0  0  0  0  0  0  0  0
   -2.6440   12.6790   -3.2490 N   0  0  0  0  0  0  0  0  0  0  0  0
   -4.4520   13.5650   -1.7950 C   0  0  0  0  0  0  0  0  0  0  0  0
   -1.2400   12.4460   -2.9320 C   0  0  1  0  0  0  0  0  0  0  0  0
   -4.8080   13.4540   -0.4480 C   0  0  0  0  0  0  0  0  0  0  0  0
   -5.3150   14.1600   -2.7410 C   0  0  0  0  0  0  0  0  0  0  0  0
   -0.4820   11.8030   -4.1110 C   0  0  0  0  0  0  0  0  0  0  0  0
   -0.7010   13.7760   -2.5360 N   0  0  0  0  0  0  0  0  0  0  0  0
   -6.0250   13.9480   -0.0600 C   0  0  0  0  0  0  0  0  0  0  0  0
   -6.5560   14.6530   -2.3210 C   0  0  0  0  0  0  0  0  0  0  0  0
   -0.7870   14.7310   -3.6980 C   0  0  2  0  0  0  0  0  0  0  0  0
    0.3610   12.8010   -4.8820 C   0  0  0  0  0  0  0  0  0  0  0  0
   -1.0190   14.1470   -1.1830 C   0  0  0  0  0  0  0  0  0  0  0  0
   -6.8810   14.5350   -0.9770 C   0  0  0  0  0  0  0  0  0  0  0  0
   -6.6310   13.9700    1.2870 C   0  0  0  0  0  0  0  0  0  0  0  0
   -2.2020   15.3000   -4.0060 C   0  0  0  0  0  0  0  0  0  0  0  0
   -0.4440   14.0800   -5.0540 C   0  0  1  0  0  0  0  0  0  0  0  0
   -0.1230   13.8180   -0.1760 N   0  0  0  0  0  0  0  0  0  0  0  0
   -2.1420   14.7770   -0.7150 C   0  0  0  0  0  0  0  0  0  0  0  0
   -8.0510   14.9710   -0.4150 O   0  0  0  0  0  0  0  0  0  0  0  0
   -8.0490   14.3930    0.9140 C   0  0  0  0  0  0  0  0  0  0  0  0
   -1.8150   13.7510   -5.6140 C   0  0  0  0  0  0  0  0  0  0  0  0
   -2.5900   14.9040   -5.3350 O   0  0  0  0  0  0  0  0  0  0  0  0
   -0.3780   14.0340    1.1580 C   0  0  0  0  0  0  0  0  0  0  0  0
   -2.3230   15.0030    0.7540 C   0  0  0  0  0  0  0  0  0  0  0  0
   -3.3610   15.3410   -1.2410 C   0  0  0  0  0  0  0  0  0  0  0  0
   -1.4090   14.6000    1.6750 N   0  0  0  0  0  0  0  0  0  0  0  0
   -3.4530   15.5930    1.0400 N   0  0  0  0  0  0  0  0  0  0  0  0
   -4.0540   15.7850   -0.1840 C   0  0  0  0  0  0  0  0  0  0  0  0
  1  2  1  0
  2  3  2  3
  2  4  1  0
  5  3  1  6
  4  6  2  0
  4  7  1  0
  5  8  1  0
  5  9  1  0
  6 10  1  0
  7 11  2  0
  9 12  1  0
  8 13  1  0
  9 14  1  0
 10 15  2  0
 11 15  1  0
 10 16  1  0
 12 17  1  6
 12 18  1  0
 18 13  1  1
 14 19  1  0
 14 20  2  0
 15 21  1  0
 16 22  1  0
 21 22  1  0
 18 23  1  0
 17 24  1  0
 23 24  1  0
 19 25  1  0
 20 26  1  0
 20 27  1  0
 25 28  2  0
 26 28  1  0
 26 29  2  0
 27 30  2  0
 29 30  1  0
M  END
