mac-x0387-mac-x0263
     RDKit          3D

 24 27  0  0  0  0  0  0  0  0999 V2000
   -3.5600   15.0740    1.8120 N   0  0  0  0  0  0  0  0  0  0  0  0
   -2.3890   14.9240    1.0760 C   0  0  0  0  0  0  0  0  0  0  0  0
   -1.2860   15.0290    1.7760 N   0  0  0  0  0  0  0  0  0  0  0  0
   -2.3690   14.6850   -0.2920 C   0  0  0  0  0  0  0  0  0  0  0  0
   -1.1190   14.6020   -0.9320 C   0  0  0  0  0  0  0  0  0  0  0  0
   -0.1090   14.9260    1.1490 C   0  0  0  0  0  0  0  0  0  0  0  0
   -3.6530   14.4830   -1.0720 C   0  0  2  0  0  0  0  0  0  0  0  0
    0.0390   14.7250   -0.1900 C   0  0  0  0  0  0  0  0  0  0  0  0
   -1.0110   14.3920   -2.3690 C   0  0  0  0  0  0  0  0  0  0  0  0
   -3.3610   13.6610   -2.3660 C   0  0  0  0  0  0  0  0  0  0  0  0
   -4.4690   15.5740   -1.7790 C   0  0  0  0  0  0  0  0  0  0  0  0
   -4.4320   13.5820   -0.0250 C   0  0  0  0  0  0  0  0  0  0  0  0
   -2.0670   13.9580   -3.0490 C   0  0  0  0  0  0  0  0  0  0  0  0
   -5.8040   14.0410    0.1890 C   0  0  0  0  0  0  0  0  0  0  0  0
   -5.7750   15.7960   -1.5330 C   0  0  0  0  0  0  0  0  0  0  0  0
   -6.3460   15.0350   -0.5370 C   0  0  0  0  0  0  0  0  0  0  0  0
   -6.6890   13.5530    1.1020 N   0  0  0  0  0  0  0  0  0  0  0  0
   -7.7800   14.2560    0.9150 C   0  0  0  0  0  0  0  0  0  0  0  0
   -7.6150   15.1750   -0.0930 N   0  0  0  0  0  0  0  0  0  0  0  0
   -9.0600   14.1440    1.6580 C   0  0  0  0  0  0  0  0  0  0  0  0
   -9.5350   15.5300    2.0810 C   0  0  0  0  0  0  0  0  0  0  0  0
  -10.8340   15.4870    2.8350 C   0  0  0  0  0  0  0  0  0  0  0  0
  -11.5700   14.4010    2.5400 O   0  0  0  0  0  0  0  0  0  0  0  0
  -11.2320   16.3110    3.6400 O   0  0  0  0  0  0  0  0  0  0  0  0
  1  2  1  0
  2  3  2  0
  2  4  1  0
  4  5  2  0
  3  6  1  0
  4  7  1  0
  5  8  1  0
  6  8  2  0
  5  9  1  0
  7 10  1  6
  7 11  1  0
  7 12  1  0
  9 13  2  0
 10 13  1  0
 12 14  1  0
 11 15  2  0
 14 16  2  0
 15 16  1  0
 14 17  1  0
 17 18  2  0
 16 19  1  0
 18 19  1  0
 18 20  1  0
 20 21  1  0
 21 22  1  0
 22 23  1  0
 22 24  2  0
M  END
