mac-x1493-mac-x0277
     RDKit          3D

 26 28  0  0  0  0  0  0  0  0999 V2000
   -1.4280   14.7610   -1.2270 O   0  0  0  0  0  0  0  0  0  0  0  0
   -2.4300   14.8480   -2.1190 C   0  0  0  0  0  0  0  0  0  0  0  0
   -2.2780   14.9510   -3.3610 N   0  0  0  0  0  0  0  0  0  0  0  0
   -3.7400   14.8020   -1.4900 C   0  0  0  0  0  0  0  0  0  0  0  0
   -3.3800   15.0520   -4.2980 C   0  0  0  0  0  0  0  0  0  0  0  0
   -3.8290   14.9380   -0.1200 C   0  0  0  0  0  0  0  0  0  0  0  0
   -4.9090   14.6160   -2.2070 C   0  0  0  0  0  0  0  0  0  0  0  0
   -2.7270   15.6810   -5.5030 C   0  0  0  0  0  0  0  0  0  0  0  0
   -5.0770   14.8710    0.4870 C   0  0  0  0  0  0  0  0  0  0  0  0
   -6.1370   14.5500   -1.6510 N   0  0  0  0  0  0  0  0  0  0  0  0
   -6.2140   14.6710   -0.3230 C   0  0  0  0  0  0  0  0  0  0  0  0
   -5.2100   14.9940    1.8650 C   0  0  0  0  0  0  0  0  0  0  0  0
   -1.2620   15.7190   -5.1510 C   0  0  0  0  0  0  0  0  0  0  0  0
   -7.4550   14.5940    0.2870 C   0  0  0  0  0  0  0  0  0  0  0  0
   -6.4690   14.9130    2.4560 C   0  0  0  0  0  0  0  0  0  0  0  0
   -0.6200   14.4800   -4.9320 C   0  0  0  0  0  0  0  0  0  0  0  0
   -0.5210   16.8900   -5.0210 C   0  0  0  0  0  0  0  0  0  0  0  0
   -1.2230   18.4470   -5.2750 Cl  0  0  0  0  0  0  0  0  0  0  0  0
   -7.5930   14.7110    1.6690 C   0  0  0  0  0  0  0  0  0  0  0  0
    0.7300   14.4020   -4.5830 C   0  0  0  0  0  0  0  0  0  0  0  0
    0.8290   16.8270   -4.6740 C   0  0  0  0  0  0  0  0  0  0  0  0
    1.3860   13.0550   -4.3480 C   0  0  0  0  0  0  0  0  0  0  0  0
    1.4490   15.5880   -4.4540 C   0  0  0  0  0  0  0  0  0  0  0  0
    1.0110   12.3920   -3.0320 C   0  0  0  0  0  0  0  0  0  0  0  0
    0.1590   11.3440   -3.1850 O   0  0  0  0  0  0  0  0  0  0  0  0
    1.4010   12.7260   -1.9290 O   0  0  0  0  0  0  0  0  0  0  0  0
  1  2  1  0
  2  3  2  3
  2  4  1  0
  3  5  1  0
  4  6  2  0
  4  7  1  0
  5  8  1  0
  6  9  1  0
  7 10  2  0
  9 11  2  0
 10 11  1  0
  9 12  1  0
  8 13  1  0
 11 14  1  0
 12 15  2  0
 13 16  2  0
 13 17  1  0
 17 18  1  0
 14 19  2  0
 15 19  1  0
 16 20  1  0
 17 21  2  0
 20 22  1  0
 20 23  2  0
 21 23  1  0
 22 24  1  0
 24 25  1  0
 24 26  2  0
M  END
