mac-x0180-mac-x0204
     RDKit          3D

 21 22  0  0  0  0  0  0  0  0999 V2000
   -7.8980   14.5150    1.4130 C   0  0  0  0  0  0  0  0  0  0  0  0
   -6.7550   14.7460    0.4610 C   0  0  0  0  0  0  0  0  0  0  0  0
   -7.1000   14.7340   -0.7430 O   0  0  0  0  0  0  0  0  0  0  0  0
   -5.4500   14.9660    0.9220 N   0  0  0  0  0  0  0  0  0  0  0  0
   -4.2990   14.8950    0.1310 C   0  0  0  0  0  0  0  0  0  0  0  0
   -3.0660   14.6500    0.6660 C   0  0  0  0  0  0  0  0  0  0  0  0
   -4.3610   15.0630   -1.2660 C   0  0  0  0  0  0  0  0  0  0  0  0
   -1.9370   14.5550   -0.1360 C   0  0  0  0  0  0  0  0  0  0  0  0
   -3.2340   14.9660   -2.0370 C   0  0  0  0  0  0  0  0  0  0  0  0
   -1.9870   14.7010   -1.5000 C   0  0  0  0  0  0  0  0  0  0  0  0
   -0.5990   14.5420   -2.4740 S   0  0  0  0  0  0  0  0  0  0  0  0
    0.3250   15.0880   -1.6740 O   0  0  0  0  0  0  0  0  0  0  0  0
    0.1070   13.2340   -2.5320 O   0  0  0  0  0  0  0  0  0  0  0  0
   -0.1130   15.9110   -3.3600 O   0  0  0  0  0  0  0  0  0  0  0  0
   -1.4900   14.3000   -3.8900 C   0  0  0  0  0  0  0  0  0  0  0  0
   -1.8700   15.3880   -4.6270 C   0  0  0  0  0  0  0  0  0  0  0  0
   -1.9040   13.0740   -4.3930 C   0  0  0  0  0  0  0  0  0  0  0  0
   -2.5920   15.2480   -5.7330 C   0  0  0  0  0  0  0  0  0  0  0  0
   -2.6280   12.9140   -5.5020 N   0  0  0  0  0  0  0  0  0  0  0  0
   -2.9980   16.3740   -6.5170 O   0  0  0  0  0  0  0  0  0  0  0  0
   -2.9750   14.0090   -6.1750 C   0  0  0  0  0  0  0  0  0  0  0  0
  1  2  1  0
  2  3  2  0
  2  4  1  0
  4  5  1  0
  5  6  2  0
  5  7  1  0
  6  8  1  0
  7  9  2  0
  8 10  2  0
  9 10  1  0
 10 11  1  0
 11 12  2  0
 11 13  1  0
 11 14  1  0
 11 15  1  0
 15 16  2  0
 15 17  1  0
 16 18  1  0
 17 19  2  0
 18 20  1  0
 18 21  2  0
 19 21  1  0
M  END
