mac-x0415-mac-x0163
     RDKit          3D

 31 35  0  0  0  0  0  0  0  0999 V2000
    0.4220   11.1320   -3.2830 O   0  0  0  0  0  0  0  0  0  0  0  0
    0.9750   12.4410   -3.2080 C   0  0  0  0  0  0  0  0  0  0  0  0
    1.8450   12.5090   -2.1180 O   0  0  0  0  0  0  0  0  0  0  0  0
    1.5490   12.8590   -4.5350 C   0  0  0  0  0  0  0  0  0  0  0  0
   -0.0560   13.5200   -3.2200 C   0  0  1  0  0  0  0  0  0  0  0  0
    1.1240   14.2750   -4.7140 C   0  0  0  0  0  0  0  0  0  0  0  0
   -1.5320   13.4860   -2.7880 C   0  0  0  0  0  0  0  0  0  0  0  0
    0.1470   14.7350   -2.3250 C   0  0  0  0  0  0  0  0  0  0  0  0
    1.9140   15.4050   -4.2710 C   0  0  0  0  0  0  0  0  0  0  0  0
    0.0270   14.9400   -5.1400 C   0  0  0  0  0  0  0  0  0  0  0  0
   -2.0470   12.3040   -1.9950 C   0  0  0  0  0  0  0  0  0  0  0  0
   -1.2300   14.6430   -1.9680 N   0  0  0  0  0  0  0  0  0  0  0  0
   -2.3000   13.7070   -4.0710 C   0  0  0  0  0  0  0  0  0  0  0  0
    1.4550   16.6060   -4.4160 N   0  0  0  0  0  0  0  0  0  0  0  0
    0.2510   16.4200   -5.1470 C   0  0  2  0  0  0  0  0  0  0  0  0
   -1.2640   14.5040   -5.5940 C   0  0  0  0  0  0  0  0  0  0  0  0
   -1.4550   14.6460   -0.6320 C   0  0  0  0  0  0  0  0  0  0  0  0
   -2.0970   11.0150   -2.8320 C   0  0  0  0  0  0  0  0  0  0  0  0
   -1.8450   12.5570   -4.9550 C   0  0  0  0  0  0  0  0  0  0  0  0
   -0.9030   17.2320   -4.7610 C   0  0  0  0  0  0  0  0  0  0  0  0
   -2.3050   15.3830   -5.4950 C   0  0  0  0  0  0  0  0  0  0  0  0
   -2.7050   14.9670   -0.1860 C   0  0  0  0  0  0  0  0  0  0  0  0
   -0.4120   14.3350    0.1410 N   0  0  0  0  0  0  0  0  0  0  0  0
   -2.3010   11.2150   -4.3570 C   0  0  0  0  0  0  0  0  0  0  0  0
   -4.0340   14.9660   -6.0660 Br  0  0  0  0  0  0  0  0  0  0  0  0
   -4.0170   15.3550   -1.2390 Cl  0  0  0  0  0  0  0  0  0  0  0  0
   -2.1130   16.7180   -4.9390 C   0  0  0  0  0  0  0  0  0  0  0  0
   -2.8420   14.9680    1.1640 C   0  0  0  0  0  0  0  0  0  0  0  0
   -0.6490   14.3510    1.4340 C   0  0  0  0  0  0  0  0  0  0  0  0
   -4.0610   15.3070    1.7420 N   0  0  0  0  0  0  0  0  0  0  0  0
   -1.8270   14.6550    1.9870 N   0  0  0  0  0  0  0  0  0  0  0  0
  2  1  1  0
  2  3  1  0
  2  4  1  0
  5  2  1  1
  4  6  1  0
  5  7  1  0
  5  8  1  0
  6  9  1  0
  6 10  2  0
  7 11  1  0
  7 12  1  0
  8 12  1  0
  7 13  1  0
  9 14  2  0
 10 15  1  0
 14 15  1  0
 10 16  1  0
 12 17  1  0
 11 18  1  0
 13 19  1  0
 15 20  1  1
 16 21  2  0
 17 22  2  0
 17 23  1  0
 18 24  1  0
 19 24  1  0
 21 25  1  0
 22 26  1  0
 20 27  2  0
 21 27  1  0
 22 28  1  0
 23 29  2  0
 28 30  1  0
 28 31  2  0
 29 31  1  0
M  END
