mac-x0455-diamond-x0592_0_A
     RDKit          3D

 22 23  0  0  0  0  0  0  0  0999 V2000
   -2.6450   14.3990   -2.2560 C   0  0  0  0  0  0  0  0  0  0  0  0
   -1.2960   14.2280   -3.0180 C   0  0  1  0  0  0  0  0  0  0  0  0
   -1.1820   15.4360   -3.8270 O   0  0  0  0  0  0  0  0  0  0  0  0
   -3.0880   14.5830   -0.9380 C   0  0  0  0  0  0  0  0  0  0  0  0
   -0.0110   14.2920   -2.1340 C   0  0  0  0  0  0  0  0  0  0  0  0
   -2.3230   14.6730    0.2130 N   0  0  0  0  0  0  0  0  0  0  0  0
   -1.2030   13.0660   -4.0480 C   0  0  0  0  0  0  0  0  0  0  0  0
   -4.5340   14.6990   -0.7150 C   0  0  0  0  0  0  0  0  0  0  0  0
    0.5450   15.3060   -1.7470 O   0  0  0  0  0  0  0  0  0  0  0  0
    0.4730   13.0520   -1.8500 O   0  0  0  0  0  0  0  0  0  0  0  0
   -2.1980   12.0700   -4.1490 C   0  0  0  0  0  0  0  0  0  0  0  0
   -0.1000   12.9570   -4.9380 C   0  0  0  0  0  0  0  0  0  0  0  0
   -5.4830   15.1840   -1.6390 C   0  0  0  0  0  0  0  0  0  0  0  0
   -5.3090   14.3710    0.4020 C   0  0  0  0  0  0  0  0  0  0  0  0
   -2.0960   11.0250   -5.0820 C   0  0  0  0  0  0  0  0  0  0  0  0
   -0.0030   11.9090   -5.8700 C   0  0  0  0  0  0  0  0  0  0  0  0
   -6.7350   15.1660   -1.1720 N   0  0  0  0  0  0  0  0  0  0  0  0
   -6.6140   14.6680    0.0690 N   0  0  0  0  0  0  0  0  0  0  0  0
   -7.8330   14.5140    0.8630 C   0  0  0  0  0  0  0  0  0  0  0  0
   -1.0030   10.9470   -5.9370 C   0  0  0  0  0  0  0  0  0  0  0  0
   -7.5790   14.0310    2.2870 C   0  0  0  0  0  0  0  0  0  0  0  0
   -7.0390   15.0630    3.1020 O   0  0  0  0  0  0  0  0  0  0  0  0
  1  2  1  0
  2  3  1  6
  1  4  2  3
  2  5  1  0
  4  6  1  0
  2  7  1  0
  4  8  1  0
  5  9  2  0
  5 10  1  0
  7 11  2  0
  7 12  1  0
  8 13  1  0
  8 14  2  0
 11 15  1  0
 12 16  2  0
 13 17  2  0
 14 18  1  0
 17 18  1  0
 18 19  1  0
 15 20  2  0
 16 20  1  0
 19 21  1  0
 21 22  1  0
M  END
