mac-x0357-mac-x0161
     RDKit          3D

 23 25  0  0  0  0  0  0  0  0999 V2000
    2.1970   13.7160   -4.5260 C   0  0  0  0  0  0  0  0  0  0  0  0
    1.0830   12.7580   -4.7970 C   0  0  0  0  0  0  0  0  0  0  0  0
    1.0900   11.9290   -5.9140 C   0  0  0  0  0  0  0  0  0  0  0  0
   -0.0180   12.6530   -3.9400 C   0  0  0  0  0  0  0  0  0  0  0  0
    2.0860   11.9380   -6.8180 O   0  0  0  0  0  0  0  0  0  0  0  0
   -0.2390   13.4650   -2.7490 C   0  0  0  0  0  0  0  0  0  0  0  0
   -1.0440   11.7390   -4.1860 C   0  0  0  0  0  0  0  0  0  0  0  0
    0.0710   11.0240   -6.1650 C   0  0  0  0  0  0  0  0  0  0  0  0
   -1.2050   14.3350   -2.8690 N   0  0  0  0  0  0  0  0  0  0  0  0
    0.5560   13.2210   -1.6850 O   0  0  0  0  0  0  0  0  0  0  0  0
   -0.9930   10.9260   -5.2900 C   0  0  0  0  0  0  0  0  0  0  0  0
   -1.9080   10.0070   -5.6240 O   0  0  0  0  0  0  0  0  0  0  0  0
   -1.6990   15.2400   -1.9550 N   0  0  0  0  0  0  0  0  0  0  0  0
   -2.6350   10.2850   -6.7960 C   0  0  0  0  0  0  0  0  0  0  0  0
   -3.1840   15.3140   -2.0720 C   0  0  0  0  0  0  0  0  0  0  0  0
   -1.3010   15.2610   -0.5520 C   0  0  1  0  0  0  0  0  0  0  0  0
   -3.8670   15.7800   -0.8720 N   0  0  0  0  0  0  0  0  0  0  0  0
   -2.1850   14.4410    0.3590 C   0  0  2  0  0  0  0  0  0  0  0  0
    0.0060   14.7010   -0.2760 N   0  0  0  0  0  0  0  0  0  0  0  0
   -3.6660   14.8600    0.2220 C   0  0  1  0  0  0  0  0  0  0  0  0
   -1.4560   14.6980    1.5790 N   0  0  0  0  0  0  0  0  0  0  0  0
   -0.0920   14.4260    1.1570 C   0  0  0  0  0  0  0  0  0  0  0  0
   -4.2470   15.5030    1.3800 N   0  0  0  0  0  0  0  0  0  0  0  0
  1  2  1  0
  2  3  2  0
  2  4  1  0
  3  5  1  0
  4  6  1  0
  4  7  2  0
  3  8  1  0
  6  9  2  3
  6 10  1  0
  7 11  1  0
  8 11  2  0
 11 12  1  0
  9 13  1  0
 12 14  1  0
 13 15  1  0
 13 16  1  0
 15 17  1  0
 16 18  1  0
 16 19  1  6
 17 20  1  0
 18 20  1  0
 18 21  1  1
 19 22  1  0
 21 22  1  0
 20 23  1  1
M  END
