mac-x0223-mac-x0213
     RDKit          3D

 17 18  0  0  0  0  0  0  0  0999 V2000
    1.1300   18.2630   -4.5240 C   0  0  0  0  0  0  0  0  0  0  0  0
    0.0490   18.1440   -3.6190 O   0  0  0  0  0  0  0  0  0  0  0  0
   -0.2250   16.7790   -3.3040 C   0  0  0  0  0  0  0  0  0  0  0  0
   -0.5140   16.0040   -4.5890 C   0  0  2  0  0  0  0  0  0  0  0  0
   -0.6380   14.4870   -4.2060 C   0  0  2  0  0  0  0  0  0  0  0  0
    0.5930   16.4950   -5.5090 C   0  0  0  0  0  0  0  0  0  0  0  0
   -1.9640   16.3500   -5.0630 C   0  0  1  0  0  0  0  0  0  0  0  0
    0.5870   13.5630   -4.2170 C   0  0  0  0  0  0  0  0  0  0  0  0
   -2.1750   17.7130   -5.7260 C   0  0  1  0  0  0  0  0  0  0  0  0
   -2.4790   15.0590   -5.6080 C   0  0  0  0  0  0  0  0  0  0  0  0
   -1.7490   14.0380   -5.1310 C   0  0  0  0  0  0  0  0  0  0  0  0
    0.2150   17.6750   -6.3830 C   0  0  0  0  0  0  0  0  0  0  0  0
    0.6610   12.5660   -3.0780 C   0  0  0  0  0  0  0  0  0  0  0  0
   -2.3550   18.7460   -4.7970 O   0  0  0  0  0  0  0  0  0  0  0  0
   -1.0020   18.1910   -6.4780 C   0  0  0  0  0  0  0  0  0  0  0  0
    0.4070   11.3790   -3.1670 O   0  0  0  0  0  0  0  0  0  0  0  0
    1.0350   13.1190   -1.9030 O   0  0  0  0  0  0  0  0  0  0  0  0
  1  2  1  0
  2  3  1  0
  4  3  1  1
  4  5  1  0
  4  6  1  0
  4  7  1  0
  5  8  1  6
  7  9  1  0
  7 10  1  6
  5 11  1  0
 10 11  2  0
  6 12  1  0
  8 13  1  0
  9 14  1  1
  9 15  1  0
 12 15  2  0
 13 16  2  0
 13 17  1  0
M  END
