mac-x0321-mac-x0415
     RDKit          3D

 25 27  0  0  0  0  0  0  0  0999 V2000
   -4.4670   15.3500    1.7860 Cl  0  0  0  0  0  0  0  0  0  0  0  0
   -4.3720   15.2510    0.0780 C   0  0  0  0  0  0  0  0  0  0  0  0
   -3.1440   14.9820   -0.4980 C   0  0  0  0  0  0  0  0  0  0  0  0
   -5.5030   15.4370   -0.7090 C   0  0  0  0  0  0  0  0  0  0  0  0
   -3.0330   14.8980   -1.8820 C   0  0  0  0  0  0  0  0  0  0  0  0
   -5.4010   15.3540   -2.0940 C   0  0  0  0  0  0  0  0  0  0  0  0
   -1.6810   14.6050   -2.4310 C   0  0  0  0  0  0  0  0  0  0  0  0
   -4.1650   15.0850   -2.6830 C   0  0  0  0  0  0  0  0  0  0  0  0
   -0.7100   15.0260   -1.5720 O   0  0  0  0  0  0  0  0  0  0  0  0
   -1.5140   14.0590   -3.4980 O   0  0  0  0  0  0  0  0  0  0  0  0
    0.5500   14.3190   -1.6020 C   0  0  0  0  0  0  0  0  0  0  0  0
    0.4640   12.8640   -1.6550 N   0  0  0  0  0  0  0  0  0  0  0  0
    0.6510   12.1480   -2.7060 C   0  0  0  0  0  0  0  0  0  0  0  0
    0.5190   10.8100   -2.6780 O   0  0  0  0  0  0  0  0  0  0  0  0
    1.0300   12.6300   -4.0950 C   0  0  0  0  0  0  0  0  0  0  0  0
    0.8540   14.0790   -4.3690 C   0  0  0  0  0  0  0  0  0  0  0  0
    1.8140   15.1270   -4.0040 C   0  0  0  0  0  0  0  0  0  0  0  0
   -0.1080   14.8260   -4.9220 C   0  0  0  0  0  0  0  0  0  0  0  0
    1.5150   16.3560   -4.2950 N   0  0  0  0  0  0  0  0  0  0  0  0
    0.2930   16.2570   -5.0360 C   0  0  2  0  0  0  0  0  0  0  0  0
   -1.4030   14.4740   -5.4280 C   0  0  0  0  0  0  0  0  0  0  0  0
   -0.7910   17.2110   -4.7610 C   0  0  0  0  0  0  0  0  0  0  0  0
   -2.3470   15.4460   -5.4460 C   0  0  0  0  0  0  0  0  0  0  0  0
   -4.0680   15.1210   -6.0860 Br  0  0  0  0  0  0  0  0  0  0  0  0
   -2.0460   16.8020   -4.9700 C   0  0  0  0  0  0  0  0  0  0  0  0
  1  2  1  0
  2  3  2  0
  2  4  1  0
  3  5  1  0
  4  6  2  0
  5  7  1  0
  5  8  2  0
  6  8  1  0
  7  9  1  0
  7 10  2  0
  9 11  1  0
 11 12  1  0
 12 13  2  3
 13 14  1  0
 13 15  1  0
 15 16  1  0
 16 17  1  0
 16 18  2  0
 17 19  2  0
 18 20  1  0
 19 20  1  0
 18 21  1  0
 20 22  1  1
 21 23  2  0
 23 24  1  0
 22 25  2  0
 23 25  1  0
M  END
