mac-x0433-mac-x0402
     RDKit          3D

 14 15  0  0  0  0  0  0  0  0999 V2000
   -3.4200   13.5800   -0.0550 C   0  0  0  0  0  0  0  0  0  0  0  0
   -4.1600   14.8780   -0.3670 C   0  0  1  0  0  0  0  0  0  0  0  0
   -4.2510   15.1360   -1.8190 N   0  0  0  0  0  0  0  0  0  0  0  0
   -5.5130   15.0940    0.3380 C   0  0  1  0  0  0  0  0  0  0  0  0
   -3.3700   16.0710    0.8170 S   0  0  0  0  0  0  0  0  0  0  0  0
   -2.8640   14.8030   -2.8750 Cl  0  0  0  0  0  0  0  0  0  0  0  0
   -5.5540   14.7680   -2.3900 C   0  0  2  0  0  0  0  0  0  0  0  0
   -6.7480   14.5330   -0.3510 C   0  0  2  0  0  0  0  0  0  0  0  0
   -5.3650   14.7850    1.8440 C   0  0  1  0  0  0  0  0  0  0  0  0
   -4.3810   15.8250    2.2320 C   0  0  0  0  0  0  0  0  0  0  0  0
   -7.5610   13.6130    0.5590 C   0  0  0  0  0  0  0  0  0  0  0  0
   -6.4310   15.8790   -2.3010 N   0  0  0  0  0  0  0  0  0  0  0  0
   -6.5660   14.9370    2.6520 N   0  0  0  0  0  0  0  0  0  0  0  0
   -6.3120   13.8610   -1.5650 N   0  0  0  0  0  0  0  0  0  0  0  0
  2  1  1  6
  2  3  1  0
  2  4  1  0
  2  5  1  0
  3  6  1  0
  3  7  1  0
  4  8  1  6
  4  9  1  0
  5 10  2  0
  9 10  1  0
  8 11  1  1
  7 12  1  1
  9 13  1  1
  7 14  1  0
  8 14  1  0
M  END
