mac-x0584-mac-x0124
     RDKit          3D

 23 27  0  0  0  0  0  0  0  0999 V2000
   -2.4890   14.0540    1.8600 N   0  0  0  0  0  0  0  0  0  0  0  0
   -1.5910   14.9990    1.2070 N   0  0  0  0  0  0  0  0  0  0  0  0
   -0.4210   14.3940    0.4960 C   0  0  0  0  0  0  0  0  0  0  0  0
   -2.4710   15.7230    0.3330 C   0  0  1  0  0  0  0  0  0  0  0  0
   -0.6800   13.7570   -0.8100 N   0  0  0  0  0  0  0  0  0  0  0  0
   -2.9110   14.9660   -0.9320 C   0  0  1  0  0  0  0  0  0  0  0  0
   -3.7970   16.1620    0.8290 N   0  0  0  0  0  0  0  0  0  0  0  0
   -1.6030   14.4720   -1.7190 C   0  0  2  0  0  0  0  0  0  0  0  0
   -4.1560   14.3030   -0.3970 C   0  0  0  0  0  0  0  0  0  0  0  0
   -4.6110   15.0640    0.6150 C   0  0  0  0  0  0  0  0  0  0  0  0
   -3.3980   15.8240   -2.0680 C   0  0  0  0  0  0  0  0  0  0  0  0
   -1.8720   13.7430   -2.9830 N   0  0  0  0  0  0  0  0  0  0  0  0
   -1.1840   15.7910   -2.1320 N   0  0  0  0  0  0  0  0  0  0  0  0
   -2.3160   16.2600   -2.7280 C   0  0  0  0  0  0  0  0  0  0  0  0
    0.1350   15.9510   -2.6990 C   0  0  0  0  0  0  0  0  0  0  0  0
   -0.8070   13.6610   -3.9830 C   0  0  2  0  0  0  0  0  0  0  0  0
   -2.9700   14.3070   -3.8030 C   0  0  0  0  0  0  0  0  0  0  0  0
    0.4880   13.2220   -3.3210 C   0  0  0  0  0  0  0  0  0  0  0  0
   -0.8410   15.0180   -4.6700 C   0  0  0  0  0  0  0  0  0  0  0  0
   -2.3290   15.1350   -4.9340 C   0  0  0  0  0  0  0  0  0  0  0  0
    1.4400   12.2840   -4.1060 C   0  0  0  0  0  0  0  0  0  0  0  0
    0.2100   11.9190   -2.5230 C   0  0  0  0  0  0  0  0  0  0  0  0
    0.2840   11.2760   -3.9000 C   0  0  0  0  0  0  0  0  0  0  0  0
  1  2  1  0
  2  3  1  0
  2  4  1  0
  3  5  1  0
  4  6  1  0
  4  7  1  1
  5  8  1  0
  6  8  1  0
  6  9  1  1
  7 10  1  0
  9 10  2  0
  6 11  1  0
  8 12  1  6
  8 13  1  0
 11 14  2  0
 13 14  1  0
 13 15  1  0
 12 16  1  0
 12 17  1  0
 16 18  1  1
 16 19  1  0
 17 20  1  0
 19 20  1  0
 18 21  1  0
 18 22  1  0
 21 23  1  0
 22 23  1  0
M  END
