mac-x0354-diamond-x0805_0_A
     RDKit          3D

 30 33  0  0  0  0  0  0  0  0999 V2000
    0.6590   11.0770   -8.3820 C   0  0  0  0  0  0  0  0  0  0  0  0
    1.0350   11.2480   -6.9920 N   0  0  0  0  0  0  0  0  0  0  0  0
    2.1050   11.9720   -6.6330 N   0  0  0  0  0  0  0  0  0  0  0  0
    0.3880   10.7270   -5.9260 C   0  0  0  0  0  0  0  0  0  0  0  0
    2.1320   11.8930   -5.3140 C   0  0  0  0  0  0  0  0  0  0  0  0
    1.0660   11.1250   -4.8100 C   0  0  0  0  0  0  0  0  0  0  0  0
   -0.7820    9.9190   -6.0070 C   0  0  0  0  0  0  0  0  0  0  0  0
    0.7250   10.8100   -3.3990 C   0  0  1  0  0  0  0  0  0  0  0  0
   -0.6870    8.6510   -6.5700 C   0  0  0  0  0  0  0  0  0  0  0  0
   -1.9980   10.3980   -5.5230 C   0  0  0  0  0  0  0  0  0  0  0  0
    0.6710   12.1520   -2.6950 C   0  0  0  0  0  0  0  0  0  0  0  0
   -0.5110   10.1500   -3.2570 O   0  0  0  0  0  0  0  0  0  0  0  0
   -1.8200    7.8500   -6.6510 C   0  0  0  0  0  0  0  0  0  0  0  0
   -3.1320    9.5960   -5.6040 C   0  0  0  0  0  0  0  0  0  0  0  0
    0.6280   12.4060   -1.4780 O   0  0  0  0  0  0  0  0  0  0  0  0
   -3.0400    8.3240   -6.1680 C   0  0  0  0  0  0  0  0  0  0  0  0
    0.6160   13.2120   -3.7680 C   0  0  2  0  0  0  0  0  0  0  0  0
    2.0160   13.5900   -4.2450 C   0  0  0  0  0  0  0  0  0  0  0  0
   -0.1580   14.4210   -3.2790 C   0  0  2  0  0  0  0  0  0  0  0  0
   -1.5760   14.1730   -2.8100 C   0  0  0  0  0  0  0  0  0  0  0  0
    2.3110   14.9140   -3.8280 O   0  0  0  0  0  0  0  0  0  0  0  0
   -0.0140   15.5570   -4.2640 C   0  0  0  0  0  0  0  0  0  0  0  0
   -2.5260   13.4040   -3.4980 C   0  0  0  0  0  0  0  0  0  0  0  0
   -1.9400   14.7540   -1.6170 C   0  0  0  0  0  0  0  0  0  0  0  0
    1.4470   15.8910   -4.4130 C   0  0  0  0  0  0  0  0  0  0  0  0
   -3.1960   14.6260   -1.0680 C   0  0  0  0  0  0  0  0  0  0  0  0
   -3.8120   13.2500   -2.9590 C   0  0  0  0  0  0  0  0  0  0  0  0
   -3.3110   15.3040    0.1140 O   0  0  0  0  0  0  0  0  0  0  0  0
   -4.1510   13.8650   -1.7410 C   0  0  0  0  0  0  0  0  0  0  0  0
   -4.5470   15.2570    0.8070 C   0  0  0  0  0  0  0  0  0  0  0  0
  1  2  1  0
  2  3  1  0
  2  4  1  0
  3  5  2  0
  4  6  2  0
  5  6  1  0
  4  7  1  0
  6  8  1  0
  7  9  2  0
  7 10  1  0
  8 11  1  0
  8 12  1  6
  9 13  1  0
 10 14  2  0
 11 15  2  0
 13 16  2  0
 14 16  1  0
 17 11  1  1
 17 18  1  0
 17 19  1  0
 19 20  1  6
 18 21  1  0
 19 22  1  0
 20 23  2  0
 20 24  1  0
 21 25  1  0
 22 25  1  0
 24 26  2  0
 23 27  1  0
 26 28  1  0
 26 29  1  0
 27 29  2  0
 28 30  1  0
M  END
