mac-x0576-mac-x0282
     RDKit          3D

 13 14  0  0  0  0  0  0  0  0999 V2000
   -0.0520   13.8520    1.4810 N   0  0  0  0  0  0  0  0  0  0  0  0
   -0.5940   14.9120    0.7260 C   0  0  2  0  0  0  0  0  0  0  0  0
   -1.9030   15.1420    1.2560 N   0  0  0  0  0  0  0  0  0  0  0  0
   -0.6150   14.4300   -0.5920 N   0  0  0  0  0  0  0  0  0  0  0  0
   -1.6420   14.6650   -1.4550 C   0  0  0  0  0  0  0  0  0  0  0  0
   -2.9850   14.4160    0.6500 C   0  0  2  0  0  0  0  0  0  0  0  0
   -1.4000   14.9870   -2.6140 O   0  0  0  0  0  0  0  0  0  0  0  0
   -3.0450   14.5050   -0.8820 C   0  0  1  0  0  0  0  0  0  0  0  0
   -4.1820   14.8410    1.3200 N   0  0  0  0  0  0  0  0  0  0  0  0
   -5.3650   15.0040    0.6470 C   0  0  0  0  0  0  0  0  0  0  0  0
   -3.9720   15.5460   -1.3810 N   0  0  0  0  0  0  0  0  0  0  0  0
   -6.4250   14.8230    1.2380 O   0  0  0  0  0  0  0  0  0  0  0  0
   -5.3280   15.4120   -0.8290 C   0  0  0  0  0  0  0  0  0  0  0  0
  2  1  1  1
  2  3  1  0
  2  4  1  0
  4  5  1  0
  6  3  1  1
  5  7  2  0
  5  8  1  0
  6  8  1  0
  6  9  1  0
  9 10  1  0
  8 11  1  1
 10 12  2  0
 10 13  1  0
 11 13  1  0
M  END
