mac-x0137-mac-x0284
     RDKit          3D

 26 29  0  0  0  0  0  0  0  0999 V2000
   -2.1010   14.3410   -4.8530 O   0  0  0  0  0  0  0  0  0  0  0  0
   -1.0950   13.5930   -4.1750 C   0  0  2  0  0  0  0  0  0  0  0  0
   -0.2890   12.6360   -5.0070 C   0  0  0  0  0  0  0  0  0  0  0  0
   -2.8580   14.7570   -3.8100 C   0  0  0  0  0  0  0  0  0  0  0  0
   -1.7540   12.7380   -3.0930 C   0  0  0  0  0  0  0  0  0  0  0  0
   -2.1900   15.4270   -2.7680 C   0  0  0  0  0  0  0  0  0  0  0  0
   -4.2300   14.5310   -3.7260 C   0  0  0  0  0  0  0  0  0  0  0  0
   -0.7320   15.7180   -2.7880 C   0  0  0  0  0  0  0  0  0  0  0  0
   -0.8030   12.6060   -1.9990 N   0  0  0  0  0  0  0  0  0  0  0  0
    0.5820   11.8740   -4.0000 C   0  0  0  0  0  0  0  0  0  0  0  0
   -2.9080   15.8460   -1.6450 C   0  0  0  0  0  0  0  0  0  0  0  0
   -4.9370   14.9560   -2.6060 C   0  0  0  0  0  0  0  0  0  0  0  0
    0.0210   15.6880   -1.8300 O   0  0  0  0  0  0  0  0  0  0  0  0
   -0.2690   16.0440   -4.0140 O   0  0  0  0  0  0  0  0  0  0  0  0
    0.5710   12.4630   -2.5620 C   0  0  0  0  0  0  0  0  0  0  0  0
   -1.0280   13.3880   -0.8430 C   0  0  0  0  0  0  0  0  0  0  0  0
   -4.2810   15.6070   -1.5630 C   0  0  0  0  0  0  0  0  0  0  0  0
   -5.0630   16.0380   -0.3770 C   0  0  0  0  0  0  0  0  0  0  0  0
    0.0010   14.0350   -0.1870 N   0  0  0  0  0  0  0  0  0  0  0  0
   -2.2520   13.5780   -0.2890 C   0  0  0  0  0  0  0  0  0  0  0  0
   -0.2110   14.7520    0.9640 C   0  0  0  0  0  0  0  0  0  0  0  0
   -2.4020   14.4070    0.9310 C   0  0  0  0  0  0  0  0  0  0  0  0
   -3.5970   13.1760   -0.5540 C   0  0  0  0  0  0  0  0  0  0  0  0
   -1.3390   14.9570    1.5570 N   0  0  0  0  0  0  0  0  0  0  0  0
   -3.6350   14.5400    1.3100 N   0  0  0  0  0  0  0  0  0  0  0  0
   -4.3390   13.7640    0.3990 C   0  0  0  0  0  0  0  0  0  0  0  0
  2  1  1  6
  2  3  1  0
  1  4  1  0
  2  5  1  0
  4  6  2  0
  4  7  1  0
  6  8  1  0
  5  9  1  0
  3 10  1  0
  6 11  1  0
  7 12  2  0
  8 13  2  0
  8 14  1  0
  9 15  1  0
 10 15  1  0
  9 16  1  0
 11 17  2  0
 12 17  1  0
 17 18  1  0
 16 19  1  0
 16 20  2  0
 19 21  1  0
 20 22  1  0
 20 23  1  0
 21 24  2  0
 22 24  1  0
 22 25  2  0
 23 26  2  0
 25 26  1  0
M  END
