mac-x0441-mac-x0358
     RDKit          3D

 24 26  0  0  0  0  0  0  0  0999 V2000
    1.0640   11.2680   -2.7620 O   0  0  0  0  0  0  0  0  0  0  0  0
    0.9620   12.3730   -3.5060 C   0  0  0  0  0  0  0  0  0  0  0  0
    1.7370   13.2860   -3.3000 O   0  0  0  0  0  0  0  0  0  0  0  0
   -0.1590   12.3160   -4.4960 C   0  0  2  0  0  0  0  0  0  0  0  0
   -0.0760   11.4500   -5.6650 N   0  0  0  0  0  0  0  0  0  0  0  0
   -1.0170   13.4930   -4.8310 C   0  0  0  0  0  0  0  0  0  0  0  0
    0.7900   11.6600   -6.6970 N   0  0  0  0  0  0  0  0  0  0  0  0
   -0.8550   10.3590   -5.8810 C   0  0  0  0  0  0  0  0  0  0  0  0
   -2.2370   13.0920   -5.3390 C   0  0  0  0  0  0  0  0  0  0  0  0
   -0.7590   14.8660   -4.7050 C   0  0  0  0  0  0  0  0  0  0  0  0
   -2.4500   11.7600   -5.4460 O   0  0  0  0  0  0  0  0  0  0  0  0
    0.4990   10.6530   -7.5650 C   0  0  0  0  0  0  0  0  0  0  0  0
   -0.5200    9.8370   -7.0750 C   0  0  0  0  0  0  0  0  0  0  0  0
   -1.9060    9.7860   -5.0310 C   0  0  0  0  0  0  0  0  0  0  0  0
   -3.2150   13.9730   -5.7260 C   0  0  0  0  0  0  0  0  0  0  0  0
   -1.7490   15.7800   -5.0960 C   0  0  0  0  0  0  0  0  0  0  0  0
    1.1690   10.4370   -8.8670 C   0  0  0  0  0  0  0  0  0  0  0  0
   -1.1820    8.6340   -7.6450 C   0  0  0  0  0  0  0  0  0  0  0  0
   -3.0400    9.3920   -5.9790 C   0  0  0  0  0  0  0  0  0  0  0  0
   -2.9720   15.3330   -5.6040 C   0  0  0  0  0  0  0  0  0  0  0  0
    1.6700    9.1770   -8.9880 F   0  0  0  0  0  0  0  0  0  0  0  0
    0.4010   10.6670   -9.9670 F   0  0  0  0  0  0  0  0  0  0  0  0
    2.2020   11.2440   -8.9200 F   0  0  0  0  0  0  0  0  0  0  0  0
   -2.5590    8.3340   -6.9950 C   0  0  0  0  0  0  0  0  0  0  0  0
  1  2  1  0
  2  3  2  0
  4  2  1  6
  4  5  1  0
  4  6  1  0
  5  7  1  0
  5  8  1  0
  6  9  2  0
  6 10  1  0
  9 11  1  0
  7 12  2  0
  8 13  2  0
 12 13  1  0
  8 14  1  0
  9 15  1  0
 10 16  2  0
 12 17  1  0
 13 18  1  0
 14 19  1  0
 15 20  2  0
 16 20  1  0
 17 21  1  0
 17 22  1  0
 17 23  1  0
 18 24  1  0
 19 24  1  0
M  END
