mac-x0572-mac-x0396
     RDKit          3D

 16 17  0  0  0  0  0  0  0  0999 V2000
   -7.4130   14.5030    3.0620 C   0  0  0  0  0  0  0  0  0  0  0  0
   -6.7290   14.6860    1.7140 C   0  0  0  0  0  0  0  0  0  0  0  0
   -5.3130   15.0170    1.6030 N   0  0  0  0  0  0  0  0  0  0  0  0
   -7.5070   14.5640    0.6140 C   0  0  0  0  0  0  0  0  0  0  0  0
   -8.8650   14.2700    0.6510 O   0  0  0  0  0  0  0  0  0  0  0  0
   -4.2190   14.1290    1.5690 C   0  0  0  0  0  0  0  0  0  0  0  0
   -6.9150   14.7650   -0.7340 C   0  0  0  0  0  0  0  0  0  0  0  0
   -4.7920   15.3190    0.3670 C   0  0  0  0  0  0  0  0  0  0  0  0
   -7.5620   14.5900   -1.7580 O   0  0  0  0  0  0  0  0  0  0  0  0
   -3.1420   14.5140    2.2960 N   0  0  0  0  0  0  0  0  0  0  0  0
   -4.0880   13.1440    0.8560 O   0  0  0  0  0  0  0  0  0  0  0  0
   -5.5090   15.1890   -0.7870 C   0  0  0  0  0  0  0  0  0  0  0  0
   -3.4520   15.7160    0.3280 C   0  0  0  0  0  0  0  0  0  0  0  0
   -2.8190   15.9660   -0.8610 C   0  0  0  0  0  0  0  0  0  0  0  0
   -4.8770   15.4440   -2.0060 C   0  0  0  0  0  0  0  0  0  0  0  0
   -3.5320   15.8270   -2.0360 C   0  0  0  0  0  0  0  0  0  0  0  0
  1  2  1  0
  2  3  1  0
  2  4  2  0
  4  5  1  0
  3  6  1  0
  4  7  1  0
  3  8  1  0
  7  9  2  0
  6 10  1  0
  6 11  2  0
  7 12  1  0
  8 12  2  0
  8 13  1  0
 13 14  2  0
 12 15  1  0
 14 16  1  0
 15 16  2  0
M  END
