mac-x0415-mac-x0576
     RDKit          3D

 27 30  0  0  0  0  0  0  0  0999 V2000
    0.0200   11.4190   -3.0870 O   0  0  0  0  0  0  0  0  0  0  0  0
    0.7820   12.5170   -2.8440 C   0  0  0  0  0  0  0  0  0  0  0  0
    1.0810   12.8610   -1.7240 O   0  0  0  0  0  0  0  0  0  0  0  0
    1.2400   13.2550   -4.0790 C   0  0  0  0  0  0  0  0  0  0  0  0
    0.8020   14.6830   -4.2540 C   0  0  0  0  0  0  0  0  0  0  0  0
    1.6840   15.7030   -4.6640 C   0  0  0  0  0  0  0  0  0  0  0  0
   -0.2950   15.4370   -4.1360 C   0  0  0  0  0  0  0  0  0  0  0  0
    1.2420   16.9020   -4.9120 N   0  0  0  0  0  0  0  0  0  0  0  0
   -0.1500   16.8280   -4.5810 C   0  0  1  0  0  0  0  0  0  0  0  0
   -1.5350   15.0320   -3.7010 C   0  0  0  0  0  0  0  0  0  0  0  0
   -1.2290   14.3990   -2.5220 N   0  0  0  0  0  0  0  0  0  0  0  0
   -1.1370   16.9920   -5.6750 C   0  0  0  0  0  0  0  0  0  0  0  0
   -2.5750   15.3500   -4.4940 C   0  0  0  0  0  0  0  0  0  0  0  0
   -4.3280   14.7930   -4.2380 Br  0  0  0  0  0  0  0  0  0  0  0  0
   -2.2990   16.2540   -5.6350 C   0  0  0  0  0  0  0  0  0  0  0  0
   -1.8600   14.1580   -1.4050 C   0  0  0  0  0  0  0  0  0  0  0  0
   -1.0330   13.6350   -0.4570 N   0  0  0  0  0  0  0  0  0  0  0  0
   -3.2910   14.3660   -0.8810 C   0  0  1  0  0  0  0  0  0  0  0  0
   -0.8050   14.4930    0.6520 C   0  0  2  0  0  0  0  0  0  0  0  0
   -3.1520   14.3330    0.6760 C   0  0  1  0  0  0  0  0  0  0  0  0
   -3.9020   15.6110   -1.3540 N   0  0  0  0  0  0  0  0  0  0  0  0
   -0.0510   13.9500    1.7310 N   0  0  0  0  0  0  0  0  0  0  0  0
   -1.9890   14.9190    1.3240 N   0  0  0  0  0  0  0  0  0  0  0  0
   -4.2830   14.9120    1.3200 N   0  0  0  0  0  0  0  0  0  0  0  0
   -5.2810   15.6620   -0.8260 C   0  0  0  0  0  0  0  0  0  0  0  0
   -5.4220   15.1000    0.5970 C   0  0  0  0  0  0  0  0  0  0  0  0
   -6.5160   14.8210    1.0840 O   0  0  0  0  0  0  0  0  0  0  0  0
  1  2  1  0
  2  3  2  0
  2  4  1  0
  4  5  1  0
  5  6  1  0
  5  7  2  0
  6  8  2  0
  7  9  1  0
  8  9  1  0
  7 10  1  0
 10 11  1  0
  9 12  1  6
 10 13  2  0
 13 14  1  0
 12 15  2  0
 13 15  1  0
 11 16  2  3
 16 17  1  0
 16 18  1  0
 17 19  1  0
 18 20  1  0
 18 21  1  1
 19 22  1  1
 19 23  1  0
 20 23  1  6
 20 24  1  0
 21 25  1  0
 24 26  1  0
 25 26  1  0
 26 27  2  0
M  END
