mac-x0358-diamond-x0766_0_A
     RDKit          3D

 21 23  0  0  0  0  0  0  0  0999 V2000
    0.3670   12.5520   -1.5630 O   0  0  0  0  0  0  0  0  0  0  0  0
    0.7010   12.4730   -2.9630 C   0  0  0  0  0  0  0  0  0  0  0  0
    1.9770   11.9390   -3.0720 O   0  0  0  0  0  0  0  0  0  0  0  0
   -0.3510   11.7190   -3.7280 C   0  0  0  0  0  0  0  0  0  0  0  0
    0.6760   13.8270   -3.6000 C   0  0  2  0  0  0  0  0  0  0  0  0
   -1.2390   12.6240   -4.5610 C   0  0  0  0  0  0  0  0  0  0  0  0
    1.8760   14.3510   -4.3320 C   0  0  0  0  0  0  0  0  0  0  0  0
    0.1870   15.0180   -2.7960 C   0  0  1  0  0  0  0  0  0  0  0  0
   -2.1630   12.0690   -5.4040 C   0  0  0  0  0  0  0  0  0  0  0  0
   -1.1710   14.0380   -4.5110 C   0  0  0  0  0  0  0  0  0  0  0  0
    1.1810   15.5360   -4.9770 C   0  0  0  0  0  0  0  0  0  0  0  0
    0.3020   16.1240   -3.8620 C   0  0  0  0  0  0  0  0  0  0  0  0
   -1.1600   14.8500   -2.0940 C   0  0  0  0  0  0  0  0  0  0  0  0
   -2.2020   10.7070   -5.4450 O   0  0  0  0  0  0  0  0  0  0  0  0
   -3.0180   12.8450   -6.1770 C   0  0  0  0  0  0  0  0  0  0  0  0
   -2.0200   14.8370   -5.2790 C   0  0  0  0  0  0  0  0  0  0  0  0
   -2.4390   14.9150   -2.6590 C   0  0  0  0  0  0  0  0  0  0  0  0
   -1.2710   14.6050   -0.6860 C   0  0  0  0  0  0  0  0  0  0  0  0
   -2.9500   14.2370   -6.1130 C   0  0  0  0  0  0  0  0  0  0  0  0
   -2.5670   14.5030   -0.2490 C   0  0  0  0  0  0  0  0  0  0  0  0
   -3.6910   14.6970   -1.5170 S   0  0  0  0  0  0  0  0  0  0  0  0
  2  1  1  0
  2  3  1  0
  2  4  1  0
  5  2  1  1
  4  6  1  0
  5  7  1  0
  5  8  1  0
  6  9  2  0
  6 10  1  0
  7 11  1  0
  8 12  1  0
 11 12  1  0
  8 13  1  6
  9 14  1  0
  9 15  1  0
 10 16  2  0
 13 17  2  0
 13 18  1  0
 15 19  2  0
 16 19  1  0
 18 20  2  0
 17 21  1  0
 20 21  1  0
M  END
