mac-x0348-mac-x0341
     RDKit          3D

 29 32  0  0  0  0  0  0  0  0999 V2000
    1.0850   18.4750   -5.5530 C   0  0  0  0  0  0  0  0  0  0  0  0
    0.4450   17.2250   -5.2950 N   0  0  0  0  0  0  0  0  0  0  0  0
    1.0400   16.1210   -4.7460 C   0  0  0  0  0  0  0  0  0  0  0  0
   -0.8560   16.9620   -5.5720 C   0  0  0  0  0  0  0  0  0  0  0  0
    0.1060   15.1240   -4.6780 C   0  0  0  0  0  0  0  0  0  0  0  0
   -1.0990   15.6560   -5.1930 C   0  0  0  0  0  0  0  0  0  0  0  0
   -1.8360   17.7510   -6.1280 C   0  0  0  0  0  0  0  0  0  0  0  0
    0.1660   13.7110   -4.1980 C   0  0  1  0  0  0  0  0  0  0  0  0
   -2.3810   15.0980   -5.3660 C   0  0  0  0  0  0  0  0  0  0  0  0
   -3.0670   17.1730   -6.2890 C   0  0  0  0  0  0  0  0  0  0  0  0
    1.3800   13.2450   -3.4220 C   0  0  0  0  0  0  0  0  0  0  0  0
   -1.1430   13.5110   -3.4400 C   0  0  0  0  0  0  0  0  0  0  0  0
   -3.3690   15.8780   -5.9230 C   0  0  0  0  0  0  0  0  0  0  0  0
    0.8440   12.3200   -2.3700 C   0  0  0  0  0  0  0  0  0  0  0  0
   -1.7180   14.8560   -3.0310 C   0  0  0  0  0  0  0  0  0  0  0  0
    0.7700   12.6150   -1.1960 O   0  0  0  0  0  0  0  0  0  0  0  0
    0.4080   11.1330   -2.8390 O   0  0  0  0  0  0  0  0  0  0  0  0
   -2.5740   14.8600   -1.8440 C   0  0  0  0  0  0  0  0  0  0  0  0
   -2.0140   14.7700   -0.5670 C   0  0  0  0  0  0  0  0  0  0  0  0
   -3.9440   14.9530   -2.0210 C   0  0  0  0  0  0  0  0  0  0  0  0
   -4.7510   14.9500   -0.9070 C   0  0  0  0  0  0  0  0  0  0  0  0
   -2.8400   14.7780    0.5430 C   0  0  0  0  0  0  0  0  0  0  0  0
   -6.2090   15.0240   -1.0210 C   0  0  0  0  0  0  0  0  0  0  0  0
   -4.2120   14.8670    0.3660 C   0  0  0  0  0  0  0  0  0  0  0  0
   -6.7660   15.3130   -2.0680 O   0  0  0  0  0  0  0  0  0  0  0  0
   -6.8970   14.7230    0.1300 N   0  0  0  0  0  0  0  0  0  0  0  0
   -5.0150   14.8580    1.4830 N   0  0  0  0  0  0  0  0  0  0  0  0
   -6.2820   14.7680    1.3490 C   0  0  0  0  0  0  0  0  0  0  0  0
   -7.0230   14.7200    2.4740 N   0  0  0  0  0  0  0  0  0  0  0  0
  1  2  1  0
  2  3  1  0
  2  4  1  0
  3  5  2  0
  4  6  2  0
  5  6  1  0
  4  7  1  0
  5  8  1  0
  6  9  1  0
  7 10  2  0
  8 11  1  1
  8 12  1  0
  9 13  2  0
 10 13  1  0
 11 14  1  0
 12 15  1  0
 14 16  2  0
 14 17  1  0
 15 18  1  0
 18 19  2  0
 18 20  1  0
 20 21  2  0
 19 22  1  0
 21 23  1  0
 21 24  1  0
 22 24  2  0
 23 25  2  0
 23 26  1  0
 24 27  1  0
 26 28  1  0
 27 28  2  0
 28 29  1  0
M  END
