mac-x0271-mac-x0373
     RDKit          3D

 22 24  0  0  0  0  0  0  0  0999 V2000
   -4.0020   15.0960   -3.7090 O   0  0  0  0  0  0  0  0  0  0  0  0
   -4.3730   14.9680   -2.4070 C   0  0  0  0  0  0  0  0  0  0  0  0
   -3.3780   14.6070   -1.4890 C   0  0  0  0  0  0  0  0  0  0  0  0
   -5.7060   15.1930   -2.0780 C   0  0  0  0  0  0  0  0  0  0  0  0
   -1.9500   14.3780   -2.1590 C   0  0  1  0  0  0  0  0  0  0  0  0
   -6.1110   15.0640   -0.7700 C   0  0  0  0  0  0  0  0  0  0  0  0
   -3.8240   14.4910   -0.1130 C   0  0  0  0  0  0  0  0  0  0  0  0
   -0.6010   14.3020   -1.3900 C   0  0  0  0  0  0  0  0  0  0  0  0
   -5.2080   14.7220    0.2320 C   0  0  0  0  0  0  0  0  0  0  0  0
   -7.4830   15.2910   -0.5060 O   0  0  0  0  0  0  0  0  0  0  0  0
   -2.0160   13.2100   -3.1670 C   0  0  0  0  0  0  0  0  0  0  0  0
   -0.4030   13.1670   -0.6470 O   0  0  0  0  0  0  0  0  0  0  0  0
    0.2860   15.1460   -1.4350 O   0  0  0  0  0  0  0  0  0  0  0  0
   -5.7620   14.6110    1.5840 C   0  0  0  0  0  0  0  0  0  0  0  0
   -8.0580   14.8790    0.6870 C   0  0  0  0  0  0  0  0  0  0  0  0
   -1.2570   13.1730   -4.3640 C   0  0  0  0  0  0  0  0  0  0  0  0
   -2.8620   12.1250   -2.8900 C   0  0  0  0  0  0  0  0  0  0  0  0
   -9.2690   14.7110    0.8230 O   0  0  0  0  0  0  0  0  0  0  0  0
   -7.1010   14.6740    1.7910 C   0  0  0  0  0  0  0  0  0  0  0  0
   -1.3530   12.0840   -5.2390 C   0  0  0  0  0  0  0  0  0  0  0  0
   -2.9550   11.0430   -3.7640 C   0  0  0  0  0  0  0  0  0  0  0  0
   -2.2020   11.0200   -4.9380 C   0  0  0  0  0  0  0  0  0  0  0  0
  1  2  1  0
  2  3  2  0
  2  4  1  0
  3  5  1  0
  4  6  2  0
  3  7  1  0
  5  8  1  1
  6  9  1  0
  7  9  2  0
  6 10  1  0
  5 11  1  0
  8 12  1  0
  8 13  2  0
  9 14  1  0
 10 15  1  0
 11 16  2  0
 11 17  1  0
 15 18  2  0
 14 19  2  0
 15 19  1  0
 16 20  1  0
 17 21  2  0
 20 22  2  0
 21 22  1  0
M  END
