mac-x0338-mac-x0360
     RDKit          3D

 20 21  0  0  0  0  0  0  0  0999 V2000
   -2.8590   14.8190    1.0520 N   0  0  0  0  0  0  0  0  0  0  0  0
   -4.0950   15.4640    1.0430 C   0  0  0  0  0  0  0  0  0  0  0  0
   -4.4980   16.0990    2.0040 O   0  0  0  0  0  0  0  0  0  0  0  0
   -2.6350   14.0730   -0.2470 S   0  0  2  0  0  0  0  0  0  0  0  0
   -1.1410   13.3720   -0.0100 N   0  0  0  0  0  0  0  0  0  0  0  0
   -2.3960   14.6660   -1.5390 O   0  0  0  0  0  0  0  0  0  0  0  0
   -4.9060   15.3500   -0.2130 C   0  0  0  0  0  0  0  0  0  0  0  0
   -3.9520   12.8800   -0.4170 C   0  0  0  0  0  0  0  0  0  0  0  0
   -4.2060   15.5120   -1.3660 N   0  0  0  0  0  0  0  0  0  0  0  0
   -6.2620   15.0820   -0.2250 C   0  0  0  0  0  0  0  0  0  0  0  0
   -3.9910   12.0430   -1.5360 C   0  0  0  0  0  0  0  0  0  0  0  0
   -4.9500   12.7930    0.5720 C   0  0  0  0  0  0  0  0  0  0  0  0
   -4.8970   15.3850   -2.5000 C   0  0  0  0  0  0  0  0  0  0  0  0
   -6.9660   14.9650   -1.3830 N   0  0  0  0  0  0  0  0  0  0  0  0
   -5.0340   11.1250   -1.6610 C   0  0  0  0  0  0  0  0  0  0  0  0
   -5.9880   11.8650    0.4210 C   0  0  0  0  0  0  0  0  0  0  0  0
   -7.2270   11.7390    1.6170 Cl  0  0  0  0  0  0  0  0  0  0  0  0
   -5.0960   10.0820   -3.0310 Cl  0  0  0  0  0  0  0  0  0  0  0  0
   -6.2480   15.1200   -2.5170 C   0  0  0  0  0  0  0  0  0  0  0  0
   -6.0340   11.0330   -0.6930 C   0  0  0  0  0  0  0  0  0  0  0  0
  1  2  1  0
  2  3  2  0
  1  4  2  0
  4  5  1  1
  4  6  2  0
  2  7  1  0
  4  8  1  0
  7  9  2  0
  7 10  1  0
  8 11  2  0
  8 12  1  0
  9 13  1  0
 10 14  2  0
 11 15  1  0
 12 16  2  0
 16 17  1  0
 15 18  1  0
 13 19  2  0
 14 19  1  0
 15 20  2  0
 16 20  1  0
M  END
