mac-x0231-mac-x0398
     RDKit          3D

 26 28  0  0  0  0  0  0  0  0999 V2000
    1.0300   10.7080   -3.2860 O   0  0  0  0  0  0  0  0  0  0  0  0
    1.5860   11.9310   -3.2760 C   0  0  0  0  0  0  0  0  0  0  0  0
    1.6910   12.5650   -2.2350 O   0  0  0  0  0  0  0  0  0  0  0  0
    2.0300   12.4970   -4.6050 C   0  0  0  0  0  0  0  0  0  0  0  0
    1.4270   13.8610   -4.5760 C   0  0  0  0  0  0  0  0  0  0  0  0
   -0.0200   13.9320   -4.5790 C   0  0  0  0  0  0  0  0  0  0  0  0
    2.2150   14.8590   -4.4100 N   0  0  0  0  0  0  0  0  0  0  0  0
   -0.6020   15.1580   -4.2830 C   0  0  0  0  0  0  0  0  0  0  0  0
    1.6560   16.0770   -4.2600 N   0  0  0  0  0  0  0  0  0  0  0  0
   -0.7690   12.7780   -4.8300 C   0  0  0  0  0  0  0  0  0  0  0  0
    0.3130   16.3330   -4.1300 C   0  0  0  0  0  0  0  0  0  0  0  0
   -2.0020   15.1260   -4.1530 C   0  0  0  0  0  0  0  0  0  0  0  0
   -2.1400   12.8040   -4.7610 C   0  0  0  0  0  0  0  0  0  0  0  0
   -0.0510   17.4940   -3.9880 O   0  0  0  0  0  0  0  0  0  0  0  0
   -2.8370   16.1320   -3.7580 O   0  0  0  0  0  0  0  0  0  0  0  0
   -2.7510   13.9750   -4.4050 C   0  0  0  0  0  0  0  0  0  0  0  0
   -3.9860   15.4210   -3.3890 C   0  0  0  0  0  0  0  0  0  0  0  0
   -4.7050   14.8920   -4.2130 O   0  0  0  0  0  0  0  0  0  0  0  0
   -4.3900   15.3020   -1.9470 C   0  0  0  0  0  0  0  0  0  0  0  0
   -5.7540   15.1860   -1.7150 C   0  0  0  0  0  0  0  0  0  0  0  0
   -3.5110   15.2870   -0.8400 C   0  0  0  0  0  0  0  0  0  0  0  0
   -6.6210   15.1780   -2.7810 O   0  0  0  0  0  0  0  0  0  0  0  0
   -6.2670   15.0640   -0.4330 C   0  0  0  0  0  0  0  0  0  0  0  0
   -4.0390   15.1610    0.4710 C   0  0  0  0  0  0  0  0  0  0  0  0
   -5.4260   15.0500    0.6710 C   0  0  0  0  0  0  0  0  0  0  0  0
   -6.0170   14.9230    1.9350 N   0  0  0  0  0  0  0  0  0  0  0  0
  1  2  1  0
  2  3  2  0
  2  4  1  0
  4  5  1  0
  5  6  1  0
  5  7  2  0
  6  8  2  0
  7  9  1  0
  6 10  1  0
  8 11  1  0
  9 11  1  0
  8 12  1  0
 10 13  2  0
 11 14  2  0
 12 15  1  0
 12 16  2  0
 13 16  1  0
 15 17  1  0
 17 18  2  0
 17 19  1  0
 19 20  2  0
 19 21  1  0
 20 22  1  0
 20 23  1  0
 21 24  2  0
 23 25  2  0
 24 25  1  0
 25 26  1  0
M  END
