mac-x0510-mac-x0223
     RDKit          3D

 26 28  0  0  0  0  0  0  0  0999 V2000
   -6.1510   14.9200    1.0700 O   0  0  0  0  0  0  0  0  0  0  0  0
   -4.9950   14.9930    0.6670 C   0  0  0  0  0  0  0  0  0  0  0  0
   -4.7310   15.1800   -0.6560 N   0  0  0  0  0  0  0  0  0  0  0  0
   -3.9220   14.8920    1.5000 N   0  0  0  0  0  0  0  0  0  0  0  0
   -2.6640   14.8210    0.9860 C   0  0  0  0  0  0  0  0  0  0  0  0
   -3.5240   15.0320   -1.2780 C   0  0  0  0  0  0  0  0  0  0  0  0
   -3.6580   15.0690   -2.5270 N   0  0  0  0  0  0  0  0  0  0  0  0
   -2.4340   14.8830   -0.3680 C   0  0  0  0  0  0  0  0  0  0  0  0
   -1.5340   14.6860    1.7140 N   0  0  0  0  0  0  0  0  0  0  0  0
   -2.7180   14.9820   -3.6050 C   0  0  0  0  0  0  0  0  0  0  0  0
   -1.0720   14.7780   -0.4590 N   0  0  0  0  0  0  0  0  0  0  0  0
   -0.5760   14.6650    0.8180 C   0  0  0  0  0  0  0  0  0  0  0  0
   -3.2830   16.0350   -4.5580 C   0  0  0  0  0  0  0  0  0  0  0  0
   -2.3640   16.9840   -5.0960 O   0  0  0  0  0  0  0  0  0  0  0  0
   -1.3330   16.2060   -4.9630 C   0  0  0  0  0  0  0  0  0  0  0  0
   -0.0410   16.6620   -4.7570 C   0  0  0  0  0  0  0  0  0  0  0  0
   -1.6540   14.8740   -5.0230 C   0  0  0  0  0  0  0  0  0  0  0  0
    0.1500   18.0100   -4.7350 O   0  0  0  0  0  0  0  0  0  0  0  0
   -0.7000   13.9320   -4.8570 C   0  0  0  0  0  0  0  0  0  0  0  0
    0.9470   15.6870   -4.5860 C   0  0  0  0  0  0  0  0  0  0  0  0
    1.1890   18.4560   -5.5800 C   0  0  0  0  0  0  0  0  0  0  0  0
    0.5980   14.3210   -4.6300 C   0  0  0  0  0  0  0  0  0  0  0  0
    1.5810   13.2160   -4.4270 C   0  0  0  0  0  0  0  0  0  0  0  0
    1.0800   12.3700   -3.2720 C   0  0  0  0  0  0  0  0  0  0  0  0
    0.3580   11.3850   -3.3060 O   0  0  0  0  0  0  0  0  0  0  0  0
    1.5260   12.8360   -2.0910 O   0  0  0  0  0  0  0  0  0  0  0  0
  1  2  2  0
  2  3  1  0
  2  4  1  0
  4  5  1  0
  3  6  1  0
  6  7  2  3
  5  8  2  0
  6  8  1  0
  5  9  1  0
  7 10  1  0
  8 11  1  0
  9 12  2  0
 11 12  1  0
 10 13  1  0
 13 14  1  0
 14 15  1  0
 15 16  2  0
 15 17  1  0
 16 18  1  0
 17 19  2  0
 16 20  1  0
 18 21  1  0
 19 22  1  0
 20 22  2  0
 22 23  1  0
 23 24  1  0
 24 25  2  0
 24 26  1  0
M  END
