mac-x0555-mac-x0510
     RDKit          3D

 16 18  0  0  0  0  0  0  0  0999 V2000
   -7.9710   14.1420    2.6340 N   0  0  0  0  0  0  0  0  0  0  0  0
   -7.2620   14.3660    1.4530 C   0  0  0  0  0  0  0  0  0  0  0  0
   -7.7590   14.0950    0.1770 C   0  0  0  0  0  0  0  0  0  0  0  0
   -5.9880   14.8890    1.5130 C   0  0  0  0  0  0  0  0  0  0  0  0
   -5.2830   15.1100    0.3460 C   0  0  0  0  0  0  0  0  0  0  0  0
   -7.0780   14.3020   -0.9920 N   0  0  0  0  0  0  0  0  0  0  0  0
   -5.8300   14.8100   -0.8750 C   0  0  0  0  0  0  0  0  0  0  0  0
   -3.9550   15.6700    0.4140 C   0  0  0  0  0  0  0  0  0  0  0  0
   -3.7420   16.4600    1.2980 O   0  0  0  0  0  0  0  0  0  0  0  0
   -5.0380   15.0390   -2.0890 C   0  0  0  0  0  0  0  0  0  0  0  0
   -2.9690   15.1950   -0.6460 C   0  0  1  0  0  0  0  0  0  0  0  0
   -3.6920   15.2100   -1.9890 C   0  0  0  0  0  0  0  0  0  0  0  0
   -1.6830   15.9510   -0.6770 N   0  0  0  0  0  0  0  0  0  0  0  0
   -2.4630   13.8710   -0.0940 C   0  0  0  0  0  0  0  0  0  0  0  0
   -1.5580   14.3310    0.9820 N   0  0  0  0  0  0  0  0  0  0  0  0
   -0.7690   15.3310    0.2840 C   0  0  0  0  0  0  0  0  0  0  0  0
  1  2  1  0
  2  3  2  0
  2  4  1  0
  4  5  2  0
  3  6  1  0
  5  7  1  0
  6  7  2  0
  5  8  1  0
  8  9  2  0
  7 10  1  0
 11  8  1  0
 10 12  2  0
 11 12  1  6
 11 13  1  0
 11 14  1  0
 14 15  1  0
 13 16  1  0
 15 16  1  0
M  END
