mac-x0142-mac-x0361
     RDKit          3D

 21 24  0  0  0  0  0  0  0  0999 V2000
   -6.2440   14.7870    1.4860 N   0  0  0  0  0  0  0  0  0  0  0  0
   -5.9070   14.8630    0.1490 C   0  0  0  0  0  0  0  0  0  0  0  0
   -6.7850   14.8980   -0.7050 O   0  0  0  0  0  0  0  0  0  0  0  0
   -4.4110   14.8810   -0.0540 C   0  0  0  0  0  0  0  0  0  0  0  0
   -3.6260   14.9300    1.1020 N   0  0  0  0  0  0  0  0  0  0  0  0
   -3.6630   14.8570   -1.2110 C   0  0  0  0  0  0  0  0  0  0  0  0
   -3.9570   14.8300   -2.5400 O   0  0  0  0  0  0  0  0  0  0  0  0
   -2.4090   14.9090    0.6750 C   0  0  0  0  0  0  0  0  0  0  0  0
   -2.2960   14.8370   -0.7970 C   0  0  0  0  0  0  0  0  0  0  0  0
   -1.3240   14.9640    1.4790 N   0  0  0  0  0  0  0  0  0  0  0  0
   -1.0780   14.7730   -1.3860 C   0  0  0  0  0  0  0  0  0  0  0  0
   -0.9060   14.7040   -2.7850 N   0  0  0  0  0  0  0  0  0  0  0  0
   -0.0170   14.7890   -0.5040 N   0  0  0  0  0  0  0  0  0  0  0  0
   -0.2070   14.9190    0.8500 C   0  0  0  0  0  0  0  0  0  0  0  0
   -2.0050   14.2340   -3.6570 C   0  0  0  0  0  0  0  0  0  0  0  0
    0.3910   14.8860   -3.4670 C   0  0  0  0  0  0  0  0  0  0  0  0
    0.8300   13.5760   -4.0900 C   0  0  0  0  0  0  0  0  0  0  0  0
   -1.4910   13.7290   -5.0070 C   0  0  0  0  0  0  0  0  0  0  0  0
    2.2690   13.3480   -4.4900 C   0  0  0  0  0  0  0  0  0  0  0  0
    1.7370   12.7130   -3.2380 C   0  0  0  0  0  0  0  0  0  0  0  0
   -0.2470   12.8620   -4.8670 C   0  0  0  0  0  0  0  0  0  0  0  0
  1  2  1  0
  2  3  2  0
  2  4  1  0
  4  5  1  0
  4  6  2  0
  6  7  1  0
  5  8  2  0
  6  9  1  0
  8  9  1  0
  8 10  1  0
  9 11  2  0
 11 12  1  0
 11 13  1  0
 10 14  2  0
 13 14  1  0
 12 15  1  0
 12 16  1  0
 17 16  1  0
 15 18  1  0
 17 19  1  0
 17 20  1  0
 19 20  1  0
 17 21  1  0
 18 21  1  0
M  END
