mac-x0360-diamond-x0104_0_A
     RDKit          3D

 27 29  0  0  0  0  0  0  0  0999 V2000
   -7.2480   11.6470    1.6420 Cl  0  0  0  0  0  0  0  0  0  0  0  0
   -6.1360   11.8020    0.3310 C   0  0  0  0  0  0  0  0  0  0  0  0
   -6.1170   10.8200   -0.6430 C   0  0  0  0  0  0  0  0  0  0  0  0
   -5.2690   12.8970    0.2420 C   0  0  0  0  0  0  0  0  0  0  0  0
   -4.3720   13.0040   -0.8520 C   0  0  0  0  0  0  0  0  0  0  0  0
   -5.2210   10.9270   -1.7030 C   0  0  0  0  0  0  0  0  0  0  0  0
   -5.1890    9.6900   -2.8930 Cl  0  0  0  0  0  0  0  0  0  0  0  0
   -3.2640   14.4050   -1.0490 S   0  0  1  0  0  0  0  0  0  0  0  0
   -4.3510   12.0080   -1.8190 C   0  0  0  0  0  0  0  0  0  0  0  0
   -2.2810   14.2280   -2.3980 N   0  0  0  0  0  0  0  0  0  0  0  0
   -4.1910   15.5040   -1.5010 N   0  0  0  0  0  0  0  0  0  0  0  0
   -2.3240   14.4380    0.0510 O   0  0  0  0  0  0  0  0  0  0  0  0
   -5.1520   15.2560   -0.5390 C   0  0  0  0  0  0  0  0  0  0  0  0
   -4.5830   15.2400    0.6580 N   0  0  0  0  0  0  0  0  0  0  0  0
   -6.4840   15.0230   -0.8130 C   0  0  0  0  0  0  0  0  0  0  0  0
   -5.3670   14.9650    1.6820 C   0  0  0  0  0  0  0  0  0  0  0  0
   -7.2890   14.7320    0.2830 C   0  0  0  0  0  0  0  0  0  0  0  0
   -6.7100   14.7000    1.5620 C   0  0  0  0  0  0  0  0  0  0  0  0
   -7.5240   14.4070    2.6330 N   0  0  0  0  0  0  0  0  0  0  0  0
   -8.3170   15.2030    3.3680 C   0  0  0  0  0  0  0  0  0  0  0  0
   -8.1120   15.1760    4.7070 N   0  0  0  0  0  0  0  0  0  0  0  0
   -9.1520   15.8690    2.7610 O   0  0  0  0  0  0  0  0  0  0  0  0
   -9.1790   15.1280    5.5670 C   0  0  0  0  0  0  0  0  0  0  0  0
   -9.2970   15.1970    6.9290 C   0  0  0  0  0  0  0  0  0  0  0  0
  -10.6830   14.9420    4.7780 S   0  0  0  0  0  0  0  0  0  0  0  0
  -11.5250   14.9530    6.2680 C   0  0  0  0  0  0  0  0  0  0  0  0
  -10.6630   15.0960    7.3400 C   0  0  0  0  0  0  0  0  0  0  0  0
  1  2  1  0
  2  3  2  0
  2  4  1  0
  4  5  2  0
  3  6  1  0
  6  7  1  0
  5  8  1  0
  5  9  1  0
  6  9  2  0
  8 10  1  6
  8 11  2  0
  8 12  2  0
 11 13  1  0
 13 14  2  0
 13 15  1  0
 14 16  1  0
 15 17  2  0
 16 18  2  0
 17 18  1  0
 18 19  1  0
 19 20  1  0
 20 21  1  0
 20 22  2  0
 21 23  1  0
 23 24  2  0
 23 25  1  0
 25 26  1  0
 24 27  1  0
 26 27  2  0
M  END
