mac-x0436-mac-x0568
     RDKit          3D

 28 30  0  0  0  0  0  0  0  0999 V2000
    0.7160   11.1560   -2.9750 O   0  0  0  0  0  0  0  0  0  0  0  0
    1.2350   12.4030   -2.9580 C   0  0  0  0  0  0  0  0  0  0  0  0
    1.4010   12.9780   -1.9050 O   0  0  0  0  0  0  0  0  0  0  0  0
    1.5600   12.9440   -4.3290 C   0  0  0  0  0  0  0  0  0  0  0  0
    0.3340   13.2370   -5.1840 C   0  0  0  0  0  0  0  0  0  0  0  0
   -0.4330   11.9760   -5.5320 C   0  0  0  0  0  0  0  0  0  0  0  0
   -1.7420   11.5990   -4.7660 C   0  0  0  0  0  0  0  0  0  0  0  0
    0.0380   11.2330   -6.4880 N   0  0  0  0  0  0  0  0  0  0  0  0
   -2.1160   12.3240   -3.7560 N   0  0  0  0  0  0  0  0  0  0  0  0
   -2.4290   10.4950   -5.2260 N   0  0  0  0  0  0  0  0  0  0  0  0
   -0.6500   10.0620   -6.8480 C   0  0  0  0  0  0  0  0  0  0  0  0
   -1.3850   13.4990   -3.2660 C   0  0  0  0  0  0  0  0  0  0  0  0
   -1.8650    9.6880   -6.2350 C   0  0  0  0  0  0  0  0  0  0  0  0
   -0.1050    9.2570   -7.8460 C   0  0  0  0  0  0  0  0  0  0  0  0
   -2.1850   14.7970   -3.3920 C   0  0  0  0  0  0  0  0  0  0  0  0
   -0.7550    8.0850   -8.2410 C   0  0  0  0  0  0  0  0  0  0  0  0
   -2.5090    8.5110   -6.6340 C   0  0  0  0  0  0  0  0  0  0  0  0
   -3.3370   14.8100   -2.5180 N   0  0  0  0  0  0  0  0  0  0  0  0
   -1.9550    7.7120   -7.6350 C   0  0  0  0  0  0  0  0  0  0  0  0
   -3.4990   14.8250   -1.2410 C   0  0  0  0  0  0  0  0  0  0  0  0
   -2.2980   14.8440   -0.5590 N   0  0  0  0  0  0  0  0  0  0  0  0
   -4.7760   14.7860   -0.4540 C   0  0  0  0  0  0  0  0  0  0  0  0
   -5.9730   14.7930   -1.1660 C   0  0  0  0  0  0  0  0  0  0  0  0
   -4.8990   14.7270    0.9290 C   0  0  0  0  0  0  0  0  0  0  0  0
   -7.2190   14.7390   -0.6210 N   0  0  0  0  0  0  0  0  0  0  0  0
   -6.1680   14.6690    1.5200 C   0  0  0  0  0  0  0  0  0  0  0  0
   -7.3010   14.6730    0.7210 C   0  0  0  0  0  0  0  0  0  0  0  0
   -8.6620   14.6080    1.3400 C   0  0  0  0  0  0  0  0  0  0  0  0
  1  2  1  0
  2  3  2  0
  2  4  1  0
  4  5  1  0
  5  6  1  0
  6  7  1  0
  6  8  2  0
  7  9  2  3
  7 10  1  0
  8 11  1  0
  9 12  1  0
 10 13  1  0
 11 13  2  0
 11 14  1  0
 12 15  1  0
 14 16  2  0
 13 17  1  0
 15 18  1  0
 16 19  1  0
 17 19  2  0
 18 20  2  3
 20 21  1  0
 20 22  1  0
 22 23  2  0
 22 24  1  0
 23 25  1  0
 24 26  2  0
 25 27  2  0
 26 27  1  0
 27 28  1  0
M  END
