mac-x0392-mac-x0204
     RDKit          3D

 18 19  0  0  0  0  0  0  0  0999 V2000
    0.1830   13.9990    0.3380 N   0  0  0  0  0  0  0  0  0  0  0  0
   -1.1190   14.4970    0.1910 C   0  0  0  0  0  0  0  0  0  0  0  0
   -2.0560   14.4030    1.2090 C   0  0  0  0  0  0  0  0  0  0  0  0
   -1.5610   15.1060   -0.9720 C   0  0  0  0  0  0  0  0  0  0  0  0
   -0.6480   15.2700   -2.1180 C   0  0  0  0  0  0  0  0  0  0  0  0
   -2.8700   15.5860   -1.1000 C   0  0  0  0  0  0  0  0  0  0  0  0
   -3.3300   14.8550    1.1300 N   0  0  0  0  0  0  0  0  0  0  0  0
   -0.2710   16.3930   -2.3420 O   0  0  0  0  0  0  0  0  0  0  0  0
   -0.3430   14.1980   -2.8950 N   0  0  0  0  0  0  0  0  0  0  0  0
   -3.7120   15.4350   -0.0190 C   0  0  0  0  0  0  0  0  0  0  0  0
    0.2160   13.0440   -2.2930 O   0  0  0  0  0  0  0  0  0  0  0  0
   -1.2410   14.0050   -3.9440 C   0  0  0  0  0  0  0  0  0  0  0  0
   -1.7510   15.1380   -4.5720 C   0  0  0  0  0  0  0  0  0  0  0  0
   -1.6760   12.7670   -4.3970 C   0  0  0  0  0  0  0  0  0  0  0  0
   -2.6570   15.0100   -5.6000 C   0  0  0  0  0  0  0  0  0  0  0  0
   -2.5670   12.6070   -5.4090 N   0  0  0  0  0  0  0  0  0  0  0  0
   -3.1700   16.1060   -6.2300 O   0  0  0  0  0  0  0  0  0  0  0  0
   -3.0390   13.7390   -5.9880 C   0  0  0  0  0  0  0  0  0  0  0  0
  1  2  1  0
  2  3  2  0
  2  4  1  0
  4  5  1  0
  4  6  2  0
  3  7  1  0
  5  8  2  0
  5  9  1  0
  6 10  1  0
  7 10  2  0
  9 11  1  0
  9 12  1  0
 12 13  2  0
 12 14  1  0
 13 15  1  0
 14 16  2  0
 15 17  1  0
 15 18  2  0
 16 18  1  0
M  END
