mac-x0546-mac-x0282
     RDKit          3D

 25 28  0  0  0  0  0  0  0  0999 V2000
   -4.4420   15.3950   -6.1430 C   0  0  0  0  0  0  0  0  0  0  0  0
   -3.5610   16.5170   -6.1030 O   0  0  0  0  0  0  0  0  0  0  0  0
   -2.3790   16.3170   -5.4600 C   0  0  0  0  0  0  0  0  0  0  0  0
   -1.8970   15.1190   -5.0980 C   0  0  0  0  0  0  0  0  0  0  0  0
   -1.6330   17.5460   -5.1790 C   0  0  0  0  0  0  0  0  0  0  0  0
   -0.6100   15.0430   -4.3830 C   0  0  2  0  0  0  0  0  0  0  0  0
   -0.3310   17.5470   -4.8370 C   0  0  0  0  0  0  0  0  0  0  0  0
    0.2710   16.2080   -4.7740 C   0  0  0  0  0  0  0  0  0  0  0  0
    0.4160   13.9830   -4.6010 C   0  0  0  0  0  0  0  0  0  0  0  0
    0.2120   12.5240   -4.4420 C   0  0  0  0  0  0  0  0  0  0  0  0
    1.4990   15.9200   -5.0120 N   0  0  0  0  0  0  0  0  0  0  0  0
    1.5570   14.5540   -4.8960 C   0  0  0  0  0  0  0  0  0  0  0  0
    0.3500   12.3940   -2.9720 C   0  0  0  0  0  0  0  0  0  0  0  0
    0.6410   13.4970   -2.3850 N   0  0  0  0  0  0  0  0  0  0  0  0
    0.1400   11.1600   -2.4610 O   0  0  0  0  0  0  0  0  0  0  0  0
    0.8030   13.6990   -0.9860 C   0  0  0  0  0  0  0  0  0  0  0  0
   -0.4270   14.1560   -0.3350 C   0  0  0  0  0  0  0  0  0  0  0  0
   -1.4880   14.5120   -1.1430 C   0  0  0  0  0  0  0  0  0  0  0  0
   -0.5550   14.2150    1.0530 C   0  0  0  0  0  0  0  0  0  0  0  0
   -2.6510   14.9030   -0.5200 C   0  0  0  0  0  0  0  0  0  0  0  0
   -1.6680   14.5870    1.7120 N   0  0  0  0  0  0  0  0  0  0  0  0
   -3.9180   15.3200   -0.9680 C   0  0  0  0  0  0  0  0  0  0  0  0
   -2.6650   14.9120    0.8670 C   0  0  0  0  0  0  0  0  0  0  0  0
   -4.6720   15.5620    0.1440 C   0  0  0  0  0  0  0  0  0  0  0  0
   -3.9000   15.3120    1.2530 N   0  0  0  0  0  0  0  0  0  0  0  0
  1  2  1  0
  2  3  1  0
  3  4  2  0
  3  5  1  0
  6  4  1  6
  5  7  2  0
  6  8  1  0
  7  8  1  0
  6  9  1  0
  9 10  1  0
  8 11  2  0
  9 12  2  0
 11 12  1  0
 10 13  1  0
 13 14  2  3
 13 15  1  0
 14 16  1  0
 16 17  1  0
 17 18  2  0
 17 19  1  0
 18 20  1  0
 19 21  2  0
 20 22  1  0
 20 23  2  0
 21 23  1  0
 22 24  2  0
 23 25  1  0
 24 25  1  0
M  END
