mac-x0338-mac-x0139
     RDKit          3D

 25 27  0  0  0  0  0  0  0  0999 V2000
   -5.7240   12.8240    1.4490 N   0  0  0  0  0  0  0  0  0  0  0  0
   -5.4920   14.1580    0.9140 C   0  0  2  0  0  0  0  0  0  0  0  0
   -5.9680   15.0650    1.8990 O   0  0  0  0  0  0  0  0  0  0  0  0
   -6.0470   14.3980   -0.4740 C   0  0  0  0  0  0  0  0  0  0  0  0
   -4.0320   14.3880    0.6630 C   0  0  0  0  0  0  0  0  0  0  0  0
   -5.1090   14.8010   -1.3800 N   0  0  0  0  0  0  0  0  0  0  0  0
   -7.3650   14.2290   -0.8380 C   0  0  0  0  0  0  0  0  0  0  0  0
   -3.1700   14.6480    1.7170 N   0  0  0  0  0  0  0  0  0  0  0  0
   -3.4590   14.3510   -0.5570 C   0  0  0  0  0  0  0  0  0  0  0  0
   -5.5220   15.0120   -2.6320 C   0  0  0  0  0  0  0  0  0  0  0  0
   -7.7870   14.4450   -2.1080 N   0  0  0  0  0  0  0  0  0  0  0  0
   -2.1180   14.6690   -0.3450 C   0  0  0  0  0  0  0  0  0  0  0  0
   -2.0350   14.7650    1.1170 C   0  0  0  0  0  0  0  0  0  0  0  0
   -6.8360   14.8350   -2.9890 C   0  0  0  0  0  0  0  0  0  0  0  0
   -1.0160   14.8960   -1.0920 C   0  0  0  0  0  0  0  0  0  0  0  0
   -0.8450   14.9510    1.6290 N   0  0  0  0  0  0  0  0  0  0  0  0
   -1.0530   14.8070   -2.5000 N   0  0  0  0  0  0  0  0  0  0  0  0
    0.1850   15.2720    0.8050 C   0  0  0  0  0  0  0  0  0  0  0  0
    0.1700   15.2480   -0.4820 N   0  0  0  0  0  0  0  0  0  0  0  0
   -2.0130   15.6890   -3.1870 C   0  0  0  0  0  0  0  0  0  0  0  0
    0.2520   14.6880   -3.2050 C   0  0  0  0  0  0  0  0  0  0  0  0
    0.5450   13.2540   -3.6560 C   0  0  0  0  0  0  0  0  0  0  0  0
    0.4790   12.2710   -2.5210 C   0  0  0  0  0  0  0  0  0  0  0  0
    0.4360   12.5410   -1.3290 O   0  0  0  0  0  0  0  0  0  0  0  0
    0.4690   10.9820   -2.9180 O   0  0  0  0  0  0  0  0  0  0  0  0
  2  1  1  1
  2  3  1  0
  2  4  1  0
  2  5  1  0
  4  6  2  0
  4  7  1  0
  5  8  1  0
  5  9  2  0
  6 10  1  0
  7 11  2  0
  9 12  1  0
  8 13  2  0
 12 13  1  0
 10 14  2  0
 11 14  1  0
 12 15  2  0
 13 16  1  0
 15 17  1  0
 16 18  1  0
 15 19  1  0
 18 19  2  0
 17 20  1  0
 17 21  1  0
 21 22  1  0
 22 23  1  0
 23 24  2  0
 23 25  1  0
M  END
