mac-x0226-mac-x0375
     RDKit          3D

 22 24  0  0  0  0  0  0  0  0999 V2000
    1.2360   12.7130   -2.2460 O   0  0  0  0  0  0  0  0  0  0  0  0
    0.4630   11.8220   -3.0440 C   0  0  0  0  0  0  0  0  0  0  0  0
    0.5230   10.5210   -2.4370 O   0  0  0  0  0  0  0  0  0  0  0  0
   -1.0050   12.2100   -3.0780 C   0  0  0  0  0  0  0  0  0  0  0  0
    0.8140   11.8560   -4.5000 C   0  0  0  0  0  0  0  0  0  0  0  0
   -1.3130   12.2930   -4.4840 O   0  0  0  0  0  0  0  0  0  0  0  0
    1.7870   12.5770   -5.2300 C   0  0  0  0  0  0  0  0  0  0  0  0
    0.1820   11.1270   -5.4810 C   0  0  0  0  0  0  0  0  0  0  0  0
    1.7510   12.3010   -6.5460 N   0  0  0  0  0  0  0  0  0  0  0  0
    0.7410   11.3920   -6.6920 N   0  0  0  0  0  0  0  0  0  0  0  0
   -1.7360   11.1070   -5.0490 C   0  0  0  0  0  0  0  0  0  0  0  0
    0.3070   10.7890   -7.9190 C   0  0  0  0  0  0  0  0  0  0  0  0
   -1.0510    9.8770   -4.9690 C   0  0  0  0  0  0  0  0  0  0  0  0
   -2.9330   11.1880   -5.7390 C   0  0  0  0  0  0  0  0  0  0  0  0
   -0.8300    9.9800   -7.8420 C   0  0  0  0  0  0  0  0  0  0  0  0
    0.9190   10.9390   -9.1710 C   0  0  0  0  0  0  0  0  0  0  0  0
   -1.5870    8.7410   -5.5910 C   0  0  0  0  0  0  0  0  0  0  0  0
   -3.4650   10.0570   -6.3530 C   0  0  0  0  0  0  0  0  0  0  0  0
   -1.3440    9.3410   -8.9690 C   0  0  0  0  0  0  0  0  0  0  0  0
    0.4050   10.3010  -10.2970 C   0  0  0  0  0  0  0  0  0  0  0  0
   -2.7960    8.8350   -6.2810 C   0  0  0  0  0  0  0  0  0  0  0  0
   -0.7230    9.5030  -10.2000 C   0  0  0  0  0  0  0  0  0  0  0  0
  2  1  1  0
  2  3  1  0
  2  4  1  0
  2  5  1  0
  4  6  1  0
  5  7  1  0
  5  8  2  0
  7  9  2  0
  8 10  1  0
  9 10  1  0
  6 11  1  0
 10 12  1  0
 11 13  2  0
 11 14  1  0
 12 15  2  0
 12 16  1  0
 13 17  1  0
 14 18  2  0
 15 19  1  0
 16 20  2  0
 17 21  2  0
 18 21  1  0
 19 22  2  0
 20 22  1  0
M  END
