mac-x0255-mac-x0588
     RDKit          3D

 24 27  0  0  0  0  0  0  0  0999 V2000
    1.2910   12.6550   -2.1290 O   0  0  0  0  0  0  0  0  0  0  0  0
    0.8440   11.7700   -3.0460 C   0  0  0  0  0  0  0  0  0  0  0  0
    0.3100   10.7410   -2.6860 O   0  0  0  0  0  0  0  0  0  0  0  0
    1.1040   12.2370   -4.4520 C   0  0  0  0  0  0  0  0  0  0  0  0
    0.5810   13.5960   -4.5740 C   0  0  0  0  0  0  0  0  0  0  0  0
    1.0270   14.6040   -5.3360 C   0  0  0  0  0  0  0  0  0  0  0  0
   -0.7430   14.0320   -3.6780 S   0  0  0  0  0  0  0  0  0  0  0  0
    0.3130   15.8190   -5.2110 C   0  0  0  0  0  0  0  0  0  0  0  0
   -0.6920   15.6190   -4.3170 C   0  0  0  0  0  0  0  0  0  0  0  0
    0.4610   17.0930   -5.8080 C   0  0  0  0  0  0  0  0  0  0  0  0
   -1.5650   16.5770   -3.9620 C   0  0  0  0  0  0  0  0  0  0  0  0
   -2.5770   16.1410   -2.9230 C   0  0  0  0  0  0  0  0  0  0  0  0
   -0.4180   18.1050   -5.4950 C   0  0  0  0  0  0  0  0  0  0  0  0
   -1.4220   17.8590   -4.5870 C   0  0  0  0  0  0  0  0  0  0  0  0
   -2.4210   14.8520   -2.2710 N   0  0  0  0  0  0  0  0  0  0  0  0
   -3.7540   14.4300   -1.9770 C   0  0  0  0  0  0  0  0  0  0  0  0
   -1.5760   14.7150   -1.0580 C   0  0  2  0  0  0  0  0  0  0  0  0
   -4.3630   15.3560   -1.0500 N   0  0  0  0  0  0  0  0  0  0  0  0
   -2.3670   14.6550    0.2780 C   0  0  2  0  0  0  0  0  0  0  0  0
   -0.5510   15.7010   -0.7570 N   0  0  0  0  0  0  0  0  0  0  0  0
   -3.6830   15.4670    0.2150 C   0  0  2  0  0  0  0  0  0  0  0  0
   -1.3920   15.1560    1.2850 N   0  0  0  0  0  0  0  0  0  0  0  0
   -0.1480   15.2020    0.5460 C   0  0  0  0  0  0  0  0  0  0  0  0
   -4.7500   15.1290    1.1510 N   0  0  0  0  0  0  0  0  0  0  0  0
  1  2  1  0
  2  3  2  0
  2  4  1  0
  4  5  1  0
  5  6  2  0
  5  7  1  0
  6  8  1  0
  7  9  1  0
  8  9  2  0
  8 10  1  0
  9 11  1  0
 11 12  1  0
 10 13  2  0
 11 14  2  0
 13 14  1  0
 12 15  1  0
 15 16  1  0
 15 17  1  0
 16 18  1  0
 17 19  1  0
 17 20  1  1
 18 21  1  0
 19 21  1  0
 19 22  1  1
 20 23  1  0
 22 23  1  0
 21 24  1  1
M  END
