mac-x0179-diamond-x0950_0_A
     RDKit          3D

 16 17  0  0  0  0  0  0  0  0999 V2000
    0.9150   13.2080   -2.1890 O   0  0  0  0  0  0  0  0  0  0  0  0
    0.7790   12.0850   -2.9140 C   0  0  0  0  0  0  0  0  0  0  0  0
    0.2780   11.1040   -2.4040 O   0  0  0  0  0  0  0  0  0  0  0  0
    1.2990   12.1660   -4.3360 C   0  0  2  0  0  0  0  0  0  0  0  0
    2.2810   13.3180   -4.5100 C   0  0  0  0  0  0  0  0  0  0  0  0
    0.2820   12.0080   -5.3880 N   0  0  0  0  0  0  0  0  0  0  0  0
    0.7400   11.6350   -6.6030 C   0  0  0  0  0  0  0  0  0  0  0  0
   -0.9490   11.4120   -5.1670 C   0  0  0  0  0  0  0  0  0  0  0  0
    1.7770   11.9380   -7.0880 O   0  0  0  0  0  0  0  0  0  0  0  0
   -1.6950   11.5270   -4.2150 O   0  0  0  0  0  0  0  0  0  0  0  0
   -0.1990   10.7160   -7.2170 C   0  0  0  0  0  0  0  0  0  0  0  0
   -1.2410   10.5560   -6.3280 C   0  0  0  0  0  0  0  0  0  0  0  0
   -0.1480   10.0470   -8.4290 C   0  0  0  0  0  0  0  0  0  0  0  0
   -2.3000    9.7050   -6.5940 C   0  0  0  0  0  0  0  0  0  0  0  0
   -1.2050    9.1800   -8.7220 C   0  0  0  0  0  0  0  0  0  0  0  0
   -2.2720    9.0090   -7.8130 C   0  0  0  0  0  0  0  0  0  0  0  0
  1  2  1  0
  2  3  2  0
  2  4  1  0
  4  5  1  1
  4  6  1  0
  6  7  1  0
  6  8  1  0
  7  9  2  0
  8 10  2  0
  7 11  1  0
  8 12  1  0
 11 12  2  0
 11 13  1  0
 12 14  1  0
 13 15  2  0
 14 16  2  0
 15 16  1  0
M  END
