mac-x0344-mac-x0284
     RDKit          3D

 21 22  0  0  0  0  0  0  0  0999 V2000
    1.8500   13.6210   -4.5120 O   0  0  0  0  0  0  0  0  0  0  0  0
    1.4320   12.8480   -3.3940 C   0  0  1  0  0  0  0  0  0  0  0  0
    0.6240   13.5260   -2.3480 N   0  0  0  0  0  0  0  0  0  0  0  0
    0.5380   11.6390   -3.8760 C   0  0  0  0  0  0  0  0  0  0  0  0
    0.2000   10.7950   -3.0440 O   0  0  0  0  0  0  0  0  0  0  0  0
    0.1970   11.6370   -5.2270 N   0  0  0  0  0  0  0  0  0  0  0  0
   -0.5090   13.7810   -2.9030 C   0  0  0  0  0  0  0  0  0  0  0  0
   -0.6710   10.7240   -5.8770 C   0  0  0  0  0  0  0  0  0  0  0  0
   -1.7470   14.3900   -2.3490 C   0  0  0  0  0  0  0  0  0  0  0  0
   -0.2740   10.1950   -7.1190 C   0  0  0  0  0  0  0  0  0  0  0  0
   -1.8990   10.3220   -5.3450 C   0  0  0  0  0  0  0  0  0  0  0  0
   -2.0160   14.6160   -0.9780 C   0  0  0  0  0  0  0  0  0  0  0  0
   -2.7080   14.7360   -3.2900 C   0  0  0  0  0  0  0  0  0  0  0  0
   -2.5610   14.5710   -4.6350 O   0  0  0  0  0  0  0  0  0  0  0  0
   -1.0950    9.2850   -7.8020 C   0  0  0  0  0  0  0  0  0  0  0  0
   -2.7180    9.4130   -6.0290 C   0  0  0  0  0  0  0  0  0  0  0  0
   -3.2560   15.1840   -0.5860 C   0  0  0  0  0  0  0  0  0  0  0  0
   -3.9150   15.2850   -2.9020 C   0  0  0  0  0  0  0  0  0  0  0  0
   -3.5880   15.4450    0.8570 C   0  0  0  0  0  0  0  0  0  0  0  0
   -2.3150    8.8940   -7.2580 C   0  0  0  0  0  0  0  0  0  0  0  0
   -4.1950   15.5110   -1.5630 C   0  0  0  0  0  0  0  0  0  0  0  0
  2  1  1  6
  2  3  1  0
  2  4  1  0
  4  5  2  0
  4  6  1  0
  3  7  2  3
  6  8  1  0
  7  9  1  0
  8 10  2  0
  8 11  1  0
  9 12  2  0
  9 13  1  0
 13 14  1  0
 10 15  1  0
 11 16  2  0
 12 17  1  0
 13 18  2  0
 17 19  1  0
 15 20  2  0
 16 20  1  0
 17 21  2  0
 18 21  1  0
M  END
