mac-x0379-mac-x0319
     RDKit          3D

 19 20  0  0  0  0  0  0  0  0999 V2000
   -6.0480   15.1120   -0.2910 C   0  0  0  0  0  0  0  0  0  0  0  0
   -4.8040   15.1840   -1.0780 C   0  0  0  0  0  0  0  0  0  0  0  0
   -4.7480   15.1340   -2.3900 N   0  0  0  0  0  0  0  0  0  0  0  0
   -3.3150   15.3360   -0.2620 S   0  0  0  0  0  0  0  0  0  0  0  0
   -3.4370   15.2140   -2.7960 C   0  0  0  0  0  0  0  0  0  0  0  0
   -2.5240   15.3220   -1.7710 C   0  0  0  0  0  0  0  0  0  0  0  0
   -1.0610   15.4070   -1.7870 C   0  0  2  0  0  0  0  0  0  0  0  0
   -0.5790   16.5320   -1.1090 O   0  0  0  0  0  0  0  0  0  0  0  0
   -0.3470   15.2450   -3.0480 C   0  0  0  0  0  0  0  0  0  0  0  0
    0.0750   16.2740   -3.8760 C   0  0  0  0  0  0  0  0  0  0  0  0
   -0.0870   13.9470   -3.3320 C   0  0  0  0  0  0  0  0  0  0  0  0
    0.6100   13.5970   -4.4260 C   0  0  0  0  0  0  0  0  0  0  0  0
    0.7880   15.9310   -5.0000 C   0  0  0  0  0  0  0  0  0  0  0  0
    0.8310   12.1440   -4.5520 C   0  0  0  0  0  0  0  0  0  0  0  0
    1.2480   16.8970   -5.8340 O   0  0  0  0  0  0  0  0  0  0  0  0
    1.0560   14.5840   -5.2810 C   0  0  0  0  0  0  0  0  0  0  0  0
    0.7890   11.6290   -3.1220 C   0  0  0  0  0  0  0  0  0  0  0  0
    0.3860   10.3490   -3.0150 O   0  0  0  0  0  0  0  0  0  0  0  0
    1.0760   12.2480   -2.1070 O   0  0  0  0  0  0  0  0  0  0  0  0
  1  2  1  0
  2  3  2  0
  2  4  1  0
  3  5  1  0
  4  6  1  0
  5  6  2  0
  6  7  1  0
  7  8  1  6
  7  9  1  0
  9 10  2  0
  9 11  1  0
 11 12  2  0
 10 13  1  0
 12 14  1  0
 13 15  1  0
 12 16  1  0
 13 16  2  0
 14 17  1  0
 17 18  1  0
 17 19  2  0
M  END
