mac-x0223-diamond-x0969_0_A
     RDKit          3D

 26 28  0  0  0  0  0  0  0  0999 V2000
    1.1000   18.3620   -5.4180 C   0  0  0  0  0  0  0  0  0  0  0  0
   -0.0080   18.0660   -4.5670 O   0  0  0  0  0  0  0  0  0  0  0  0
   -0.2610   16.7200   -4.6400 C   0  0  0  0  0  0  0  0  0  0  0  0
   -1.5630   16.2480   -4.7660 C   0  0  0  0  0  0  0  0  0  0  0  0
    0.7770   15.7760   -4.5770 C   0  0  0  0  0  0  0  0  0  0  0  0
   -2.6430   16.9920   -4.7790 O   0  0  0  0  0  0  0  0  0  0  0  0
   -1.8340   14.9010   -4.8620 C   0  0  0  0  0  0  0  0  0  0  0  0
    0.4710   14.4010   -4.6470 C   0  0  0  0  0  0  0  0  0  0  0  0
    1.4740   13.3020   -4.5430 C   0  0  0  0  0  0  0  0  0  0  0  0
   -3.4390   15.9570   -4.1580 C   0  0  0  0  0  0  0  0  0  0  0  0
   -0.8320   13.9840   -4.8030 C   0  0  0  0  0  0  0  0  0  0  0  0
    1.0460   12.4230   -3.3780 C   0  0  0  0  0  0  0  0  0  0  0  0
   -2.4990   14.9890   -3.4420 C   0  0  0  0  0  0  0  0  0  0  0  0
    0.4520   11.3550   -3.3900 O   0  0  0  0  0  0  0  0  0  0  0  0
    1.3720   12.9780   -2.1900 O   0  0  0  0  0  0  0  0  0  0  0  0
   -2.1560   15.4210   -2.0240 C   0  0  0  0  0  0  0  0  0  0  0  0
   -3.3280   15.2720   -1.1080 C   0  0  0  0  0  0  0  0  0  0  0  0
   -4.5670   15.0300   -1.5950 C   0  0  0  0  0  0  0  0  0  0  0  0
   -3.0910   15.3870    0.3240 C   0  0  0  0  0  0  0  0  0  0  0  0
   -5.6530   14.8690   -0.7060 C   0  0  0  0  0  0  0  0  0  0  0  0
   -4.1200   15.2340    1.1680 C   0  0  0  0  0  0  0  0  0  0  0  0
   -6.9310   14.6240   -0.9010 N   0  0  0  0  0  0  0  0  0  0  0  0
   -5.3910   14.9700    0.6470 N   0  0  0  0  0  0  0  0  0  0  0  0
   -6.6200   14.7590    1.2550 C   0  0  0  0  0  0  0  0  0  0  0  0
   -7.5360   14.5540    0.3340 N   0  0  0  0  0  0  0  0  0  0  0  0
   -6.8040   14.7790    2.5880 N   0  0  0  0  0  0  0  0  0  0  0  0
  1  2  1  0
  2  3  1  0
  3  4  2  0
  3  5  1  0
  4  6  1  0
  4  7  1  0
  5  8  2  0
  8  9  1  0
  6 10  1  0
  7 11  2  0
  8 11  1  0
  9 12  1  0
 10 13  1  0
 12 14  2  0
 12 15  1  0
 13 16  1  0
 16 17  1  0
 17 18  2  0
 17 19  1  0
 18 20  1  0
 19 21  2  0
 20 22  2  0
 20 23  1  0
 21 23  1  0
 23 24  1  0
 22 25  1  0
 24 25  2  0
 24 26  1  0
M  END
