mac-x0439-diamond-x0926_0_A
     RDKit          3D

 23 25  0  0  0  0  0  0  0  0999 V2000
   -3.1280   15.7550   -5.5090 Cl  0  0  0  0  0  0  0  0  0  0  0  0
   -1.7470   16.7680   -5.3430 C   0  0  0  0  0  0  0  0  0  0  0  0
   -0.8460   16.5740   -4.1770 C   0  0  1  0  0  0  0  0  0  0  0  0
   -1.4770   17.7390   -6.2330 C   0  0  0  0  0  0  0  0  0  0  0  0
   -0.4750   15.2830   -3.5380 C   0  0  0  0  0  0  0  0  0  0  0  0
    0.5590   16.9910   -4.5480 C   0  0  0  0  0  0  0  0  0  0  0  0
   -0.2930   18.5750   -6.1010 C   0  0  0  0  0  0  0  0  0  0  0  0
    0.8620   15.1730   -3.5280 C   0  0  0  0  0  0  0  0  0  0  0  0
    1.5050   16.2030   -4.1540 N   0  0  0  0  0  0  0  0  0  0  0  0
    0.7340   18.2470   -5.2990 C   0  0  0  0  0  0  0  0  0  0  0  0
    1.6240   14.0600   -2.9140 C   0  0  0  0  0  0  0  0  0  0  0  0
    2.5980   13.6160   -3.7350 O   0  0  0  0  0  0  0  0  0  0  0  0
    1.4210   13.5710   -1.7510 N   0  0  0  0  0  0  0  0  0  0  0  0
    0.3650   14.2050   -0.9610 C   0  0  0  0  0  0  0  0  0  0  0  0
   -0.9630   13.4810   -1.1400 C   0  0  0  0  0  0  0  0  0  0  0  0
   -2.0240   13.7970   -0.0700 C   0  0  0  0  0  0  0  0  0  0  0  0
   -2.6160   15.2250   -0.0350 C   0  0  1  0  0  0  0  0  0  0  0  0
   -3.2740   15.5110   -1.3390 N   0  0  0  0  0  0  0  0  0  0  0  0
   -3.5970   15.3260    1.1030 C   0  0  0  0  0  0  0  0  0  0  0  0
   -4.9190   15.2720    0.9450 C   0  0  0  0  0  0  0  0  0  0  0  0
   -4.6110   15.0590   -1.4460 N   0  0  0  0  0  0  0  0  0  0  0  0
   -5.5060   15.1130   -0.4020 C   0  0  0  0  0  0  0  0  0  0  0  0
   -6.7190   15.0290   -0.5610 O   0  0  0  0  0  0  0  0  0  0  0  0
  1  2  1  0
  2  3  1  0
  2  4  2  0
  3  5  1  6
  3  6  1  0
  4  7  1  0
  5  8  2  0
  6  9  2  0
  8  9  1  0
  6 10  1  0
  7 10  2  0
  8 11  1  0
 11 12  1  0
 11 13  2  3
 13 14  1  0
 14 15  1  0
 15 16  1  0
 17 16  1  6
 17 18  1  0
 17 19  1  0
 19 20  2  0
 18 21  1  0
 20 22  1  0
 21 22  1  0
 22 23  2  0
M  END
