mac-x0213-mac-x0180
     RDKit          3D

 25 27  0  0  0  0  0  0  0  0999 V2000
    0.1210   11.7220   -3.2040 O   0  0  0  0  0  0  0  0  0  0  0  0
    0.6100   12.9700   -2.9930 C   0  0  0  0  0  0  0  0  0  0  0  0
    0.9910   13.2730   -1.8760 O   0  0  0  0  0  0  0  0  0  0  0  0
    0.5970   13.8480   -4.2280 C   0  0  1  0  0  0  0  0  0  0  0  0
   -0.8250   14.1650   -4.7150 C   0  0  1  0  0  0  0  0  0  0  0  0
    1.3430   15.1950   -4.0750 C   0  0  0  0  0  0  0  0  0  0  0  0
   -1.7660   14.1330   -3.6820 N   0  0  0  0  0  0  0  0  0  0  0  0
   -0.8370   15.6260   -4.9760 C   0  0  0  0  0  0  0  0  0  0  0  0
    0.3740   16.2090   -4.6330 C   0  0  0  0  0  0  0  0  0  0  0  0
   -1.5140   14.6900   -2.5860 C   0  0  0  0  0  0  0  0  0  0  0  0
   -1.9000   16.3660   -5.4870 C   0  0  0  0  0  0  0  0  0  0  0  0
    0.5540   17.5650   -4.8200 C   0  0  0  0  0  0  0  0  0  0  0  0
   -0.3310   15.2790   -2.3230 O   0  0  0  0  0  0  0  0  0  0  0  0
   -1.7250   17.7240   -5.6750 C   0  0  0  0  0  0  0  0  0  0  0  0
   -0.5050   18.3160   -5.3480 C   0  0  0  0  0  0  0  0  0  0  0  0
   -2.4640   14.7670   -1.5410 C   0  0  0  0  0  0  0  0  0  0  0  0
   -2.1900   14.5880   -0.1930 C   0  0  0  0  0  0  0  0  0  0  0  0
   -3.7340   15.0320   -2.0170 C   0  0  0  0  0  0  0  0  0  0  0  0
   -3.2610   14.6630    0.7000 C   0  0  0  0  0  0  0  0  0  0  0  0
   -4.7790   15.1040   -1.1400 C   0  0  0  0  0  0  0  0  0  0  0  0
   -4.5590   14.9130    0.2120 C   0  0  0  0  0  0  0  0  0  0  0  0
   -5.6200   14.9490    1.1150 N   0  0  0  0  0  0  0  0  0  0  0  0
   -6.9190   14.7210    0.6740 C   0  0  0  0  0  0  0  0  0  0  0  0
   -7.8960   14.5130    1.7960 C   0  0  0  0  0  0  0  0  0  0  0  0
   -7.2940   14.6860   -0.4930 O   0  0  0  0  0  0  0  0  0  0  0  0
  1  2  1  0
  2  3  2  0
  4  2  1  1
  4  5  1  0
  4  6  1  0
  5  7  1  1
  5  8  1  0
  6  9  1  0
  8  9  2  0
  7 10  2  3
  8 11  1  0
  9 12  1  0
 10 13  1  0
 11 14  2  0
 12 15  2  0
 14 15  1  0
 10 16  1  0
 16 17  2  0
 16 18  1  0
 17 19  1  0
 18 20  2  0
 19 21  2  0
 20 21  1  0
 21 22  1  0
 22 23  1  0
 23 24  1  0
 23 25  2  0
M  END
