mac-x0131-diamond-x0895_0_A
     RDKit          3D

 24 27  0  0  0  0  0  0  0  0999 V2000
   -3.6070   15.0080   -4.4300 C   0  0  0  0  0  0  0  0  0  0  0  0
   -2.9070   15.1520   -3.1230 C   0  0  0  0  0  0  0  0  0  0  0  0
   -3.3760   15.3970   -1.8560 C   0  0  0  0  0  0  0  0  0  0  0  0
   -1.5220   15.0300   -2.9600 N   0  0  0  0  0  0  0  0  0  0  0  0
   -4.6340   15.5700   -1.3080 C   0  0  0  0  0  0  0  0  0  0  0  0
   -0.5380   14.7360   -3.9830 C   0  0  0  0  0  0  0  0  0  0  0  0
   -2.3160   15.4520   -0.9460 C   0  0  0  0  0  0  0  0  0  0  0  0
   -1.1740   15.2100   -1.6370 C   0  0  0  0  0  0  0  0  0  0  0  0
   -2.2140   15.6810    0.4290 C   0  0  0  0  0  0  0  0  0  0  0  0
    0.0570   15.1550   -1.1080 N   0  0  0  0  0  0  0  0  0  0  0  0
   -0.4110   13.2630   -3.9680 C   0  0  0  0  0  0  0  0  0  0  0  0
   -4.7230   14.8400   -0.2190 C   0  0  0  0  0  0  0  0  0  0  0  0
   -3.2950   15.9620    1.2550 N   0  0  0  0  0  0  0  0  0  0  0  0
   -1.0120   15.6300    0.9950 N   0  0  0  0  0  0  0  0  0  0  0  0
    0.0380   15.3740    0.2180 C   0  0  0  0  0  0  0  0  0  0  0  0
    0.6060   12.3620   -3.7110 C   0  0  0  0  0  0  0  0  0  0  0  0
   -1.5600   12.5920   -4.2650 O   0  0  0  0  0  0  0  0  0  0  0  0
   -5.6650   14.6850    0.7320 N   0  0  0  0  0  0  0  0  0  0  0  0
   -3.6750   14.0330    0.1300 N   0  0  0  0  0  0  0  0  0  0  0  0
   -1.2850   11.2720   -4.1970 C   0  0  0  0  0  0  0  0  0  0  0  0
    0.0210   11.0780   -3.8590 C   0  0  0  0  0  0  0  0  0  0  0  0
   -4.8750   14.5010    1.9850 C   0  0  0  0  0  0  0  0  0  0  0  0
   -3.4360   14.2190    1.4630 C   0  0  0  0  0  0  0  0  0  0  0  0
   -2.3330   14.1760    2.0310 O   0  0  0  0  0  0  0  0  0  0  0  0
  1  2  1  0
  2  3  2  0
  2  4  1  0
  3  5  1  0
  4  6  1  0
  3  7  1  0
  4  8  1  0
  7  8  2  0
  7  9  1  0
  8 10  1  0
  6 11  1  0
  5 12  2  3
  9 13  1  0
  9 14  2  0
 10 15  2  0
 14 15  1  0
 11 16  2  0
 11 17  1  0
 12 18  1  0
 12 19  1  0
 17 20  1  0
 16 21  1  0
 20 21  2  0
 18 22  1  0
 19 23  1  0
 22 23  1  0
 23 24  2  0
M  END
