mac-x0546-diamond-x0685_1_A
     RDKit          3D

 24 26  0  0  0  0  0  0  0  0999 V2000
   -4.3600   15.3480   -5.9230 C   0  0  0  0  0  0  0  0  0  0  0  0
   -3.5780   16.4380   -5.4390 O   0  0  0  0  0  0  0  0  0  0  0  0
   -2.2510   16.2330   -5.4010 C   0  0  0  0  0  0  0  0  0  0  0  0
   -1.6880   15.0880   -5.0360 C   0  0  0  0  0  0  0  0  0  0  0  0
   -1.4410   17.3820   -5.8280 C   0  0  0  0  0  0  0  0  0  0  0  0
   -0.2260   14.9600   -5.1050 C   0  0  1  0  0  0  0  0  0  0  0  0
   -0.1030   17.4480   -5.6460 C   0  0  0  0  0  0  0  0  0  0  0  0
    0.4690   16.2780   -4.9690 C   0  0  0  0  0  0  0  0  0  0  0  0
    0.5620   14.2230   -4.1200 C   0  0  0  0  0  0  0  0  0  0  0  0
    0.0930   12.8640   -3.7620 C   0  0  2  0  0  0  0  0  0  0  0  0
    1.5360   16.2450   -4.2600 N   0  0  0  0  0  0  0  0  0  0  0  0
    1.5830   14.9830   -3.7300 C   0  0  0  0  0  0  0  0  0  0  0  0
    0.9090   11.9830   -2.7830 C   0  0  0  0  0  0  0  0  0  0  0  0
   -0.6880   12.2090   -4.9350 C   0  0  0  0  0  0  0  0  0  0  0  0
    0.7280   12.5110   -1.4870 O   0  0  0  0  0  0  0  0  0  0  0  0
    0.4730   10.6320   -2.6930 O   0  0  0  0  0  0  0  0  0  0  0  0
    2.2660   12.0840   -3.1010 O   0  0  0  0  0  0  0  0  0  0  0  0
   -0.7020   10.7500   -4.9540 N   0  0  0  0  0  0  0  0  0  0  0  0
   -0.5350   10.3020   -6.3370 C   0  0  0  0  0  0  0  0  0  0  0  0
   -0.6250    8.7730   -6.4250 C   0  0  0  0  0  0  0  0  0  0  0  0
   -1.5700   10.8970   -7.2960 C   0  0  0  0  0  0  0  0  0  0  0  0
   -0.2500    8.2510   -7.8150 C   0  0  0  0  0  0  0  0  0  0  0  0
   -1.4100   10.3690   -8.7270 C   0  0  0  0  0  0  0  0  0  0  0  0
   -0.3090    9.3140   -8.9100 C   0  0  0  0  0  0  0  0  0  0  0  0
  1  2  1  0
  2  3  1  0
  3  4  2  0
  3  5  1  0
  6  4  1  1
  5  7  2  0
  6  8  1  0
  7  8  1  0
  6  9  1  0
  9 10  1  0
  8 11  2  0
  9 12  2  0
 11 12  1  0
 10 13  1  0
 10 14  1  6
 13 15  1  0
 13 16  1  0
 13 17  1  0
 14 18  1  0
 18 19  1  0
 19 20  1  0
 19 21  1  0
 20 22  1  0
 21 23  1  0
 22 24  1  0
 23 24  1  0
M  END
