mac-x0404-diamond-x0962_3_A
     RDKit          3D

 24 26  0  0  0  0  0  0  0  0999 V2000
    1.0580   12.6820   -1.5590 O   0  0  0  0  0  0  0  0  0  0  0  0
    0.7130   12.0180   -2.6780 C   0  0  0  0  0  0  0  0  0  0  0  0
    0.2840   10.8780   -2.6580 O   0  0  0  0  0  0  0  0  0  0  0  0
    0.9430   12.8670   -3.9090 C   0  0  1  0  0  0  0  0  0  0  0  0
    0.5980   14.2130   -3.7620 O   0  0  0  0  0  0  0  0  0  0  0  0
    2.3180   12.7840   -4.4610 C   0  0  0  0  0  0  0  0  0  0  0  0
    2.2890   12.6640   -5.9630 C   0  0  0  0  0  0  0  0  0  0  0  0
   -0.5150   14.6890   -4.3440 C   0  0  0  0  0  0  0  0  0  0  0  0
    1.4440   11.6970   -6.6420 C   0  0  0  0  0  0  0  0  0  0  0  0
   -0.4390   16.0150   -4.8100 C   0  0  0  0  0  0  0  0  0  0  0  0
   -1.6770   13.9410   -4.4830 C   0  0  0  0  0  0  0  0  0  0  0  0
    0.7620   10.8800   -7.1460 C   0  0  0  0  0  0  0  0  0  0  0  0
   -1.5840   16.5770   -5.4140 C   0  0  0  0  0  0  0  0  0  0  0  0
   -2.7940   14.5020   -5.0820 C   0  0  0  0  0  0  0  0  0  0  0  0
    0.7240   16.8040   -4.7030 C   0  0  0  0  0  0  0  0  0  0  0  0
   -2.7500   15.8110   -5.5400 C   0  0  0  0  0  0  0  0  0  0  0  0
   -1.5440   17.8900   -5.8850 C   0  0  0  0  0  0  0  0  0  0  0  0
    0.7510   18.1110   -5.1810 C   0  0  0  0  0  0  0  0  0  0  0  0
   -0.0870    9.8570   -7.5590 C   0  0  0  0  0  0  0  0  0  0  0  0
   -0.3860   18.6470   -5.7710 C   0  0  0  0  0  0  0  0  0  0  0  0
    0.2110    8.7950   -8.3620 N   0  0  0  0  0  0  0  0  0  0  0  0
   -1.4010    9.7100   -7.2240 C   0  0  0  0  0  0  0  0  0  0  0  0
   -0.9280    8.0520   -8.4730 C   0  0  0  0  0  0  0  0  0  0  0  0
   -1.9210    8.5830   -7.7930 N   0  0  0  0  0  0  0  0  0  0  0  0
  1  2  1  0
  2  3  2  0
  2  4  1  0
  4  5  1  0
  4  6  1  1
  6  7  1  0
  5  8  1  0
  7  9  1  0
  8 10  1  0
  8 11  2  0
  9 12  3  0
 10 13  2  0
 11 14  1  0
 10 15  1  0
 13 16  1  0
 14 16  2  0
 13 17  1  0
 15 18  2  0
 12 19  1  0
 17 20  2  0
 18 20  1  0
 19 21  1  0
 19 22  2  0
 21 23  1  0
 22 24  1  0
 23 24  2  0
M  END
