mac-x0142-mac-x0357
     RDKit          3D

 28 32  0  0  0  0  0  0  0  0999 V2000
    2.0780   12.7220   -5.2510 C   0  0  0  0  0  0  0  0  0  0  0  0
    0.7900   11.9300   -5.2720 C   0  0  0  0  0  0  0  0  0  0  0  0
    0.4870   11.2700   -6.4440 C   0  0  0  0  0  0  0  0  0  0  0  0
   -0.1330   11.8160   -4.1740 C   0  0  0  0  0  0  0  0  0  0  0  0
    1.3020   11.3090   -7.5430 O   0  0  0  0  0  0  0  0  0  0  0  0
    0.1700   12.5470   -2.9430 C   0  0  0  0  0  0  0  0  0  0  0  0
   -1.2940   11.0610   -4.2880 C   0  0  0  0  0  0  0  0  0  0  0  0
   -0.6720   10.5200   -6.5600 C   0  0  0  0  0  0  0  0  0  0  0  0
    0.1360   13.7430   -3.2410 N   0  0  0  0  0  0  0  0  0  0  0  0
    0.4850   11.8480   -1.8150 O   0  0  0  0  0  0  0  0  0  0  0  0
   -1.5600   10.4120   -5.4890 C   0  0  0  0  0  0  0  0  0  0  0  0
    0.4230   14.9650   -2.6580 C   0  0  1  0  0  0  0  0  0  0  0  0
    1.1300   14.3490   -3.8020 C   0  0  0  0  0  0  0  0  0  0  0  0
   -0.9720   14.9250   -2.4240 N   0  0  0  0  0  0  0  0  0  0  0  0
    2.6110   14.1010   -3.8170 C   0  0  0  0  0  0  0  0  0  0  0  0
    1.7460   12.9960   -3.3960 C   0  0  0  0  0  0  0  0  0  0  0  0
    0.2390   14.3520   -5.0540 C   0  0  0  0  0  0  0  0  0  0  0  0
   -1.8900   14.6550   -3.5590 C   0  0  0  0  0  0  0  0  0  0  0  0
   -1.3100   14.8380   -1.1080 C   0  0  0  0  0  0  0  0  0  0  0  0
   -1.2350   13.9640   -4.7790 C   0  0  0  0  0  0  0  0  0  0  0  0
   -0.3040   14.6070   -0.1930 N   0  0  0  0  0  0  0  0  0  0  0  0
   -2.5280   14.9900   -0.6220 C   0  0  0  0  0  0  0  0  0  0  0  0
   -0.5440   14.5290    1.1410 C   0  0  0  0  0  0  0  0  0  0  0  0
   -2.7280   14.9200    0.8350 C   0  0  0  0  0  0  0  0  0  0  0  0
   -3.8260   15.2560   -1.1430 C   0  0  0  0  0  0  0  0  0  0  0  0
   -1.6960   14.6650    1.7020 N   0  0  0  0  0  0  0  0  0  0  0  0
   -3.9650   15.1490    1.1570 N   0  0  0  0  0  0  0  0  0  0  0  0
   -4.6060   15.3450   -0.0610 C   0  0  0  0  0  0  0  0  0  0  0  0
  1  2  1  0
  2  3  2  0
  2  4  1  0
  3  5  1  0
  4  6  1  0
  4  7  2  0
  3  8  1  0
  6  9  2  3
  6 10  1  0
  7 11  1  0
  8 11  2  0
 12  9  1  1
 12 13  1  0
 12 14  1  0
 13 15  1  0
 13 16  1  0
 15 16  1  0
 13 17  1  0
 14 18  1  0
 14 19  1  0
 17 20  1  0
 18 20  1  0
 19 21  1  0
 19 22  2  0
 21 23  1  0
 22 24  1  0
 22 25  1  0
 23 26  2  0
 24 26  1  0
 24 27  2  0
 25 28  2  0
 27 28  1  0
M  END
