mac-x0565-diamond-x0626_0_A
     RDKit          3D

 20 22  0  0  0  0  0  0  0  0999 V2000
   -6.0370   14.6730    0.7700 N   0  0  0  0  0  0  0  0  0  0  0  0
   -6.1710   15.1730   -0.5340 C   0  0  0  0  0  0  0  0  0  0  0  0
   -7.2480   15.6530   -0.8880 O   0  0  0  0  0  0  0  0  0  0  0  0
   -4.8360   14.9260    1.4900 N   0  0  0  0  0  0  0  0  0  0  0  0
   -7.1300   14.2890    1.6470 C   0  0  0  0  0  0  0  0  0  0  0  0
   -5.0750   15.0950   -1.5430 C   0  0  0  0  0  0  0  0  0  0  0  0
   -3.6280   14.5630    1.0020 C   0  0  0  0  0  0  0  0  0  0  0  0
   -3.7150   15.1790   -1.2040 C   0  0  0  0  0  0  0  0  0  0  0  0
   -5.4420   14.9200   -2.8880 C   0  0  0  0  0  0  0  0  0  0  0  0
   -2.4540   14.8980    1.5160 N   0  0  0  0  0  0  0  0  0  0  0  0
   -3.5430   13.5750   -0.4070 S   0  0  0  0  0  0  0  0  0  0  0  0
   -2.7790   15.0650   -2.2240 C   0  0  0  0  0  0  0  0  0  0  0  0
   -4.4700   14.8230   -3.8940 C   0  0  0  0  0  0  0  0  0  0  0  0
   -1.8440   13.6390   -0.3380 C   0  0  0  0  0  0  0  0  0  0  0  0
   -1.4460   14.3770    0.7430 C   0  0  0  0  0  0  0  0  0  0  0  0
   -0.0590   14.6360    1.1140 C   0  0  0  0  0  0  0  0  0  0  0  0
   -3.1490   14.8980   -3.5280 C   0  0  0  0  0  0  0  0  0  0  0  0
   -1.4230   15.0970   -2.0760 O   0  0  0  0  0  0  0  0  0  0  0  0
   -2.0800   14.8210   -4.3700 O   0  0  0  0  0  0  0  0  0  0  0  0
   -0.9860   14.9700   -3.4430 C   0  0  0  0  0  0  0  0  0  0  0  0
  1  2  1  0
  2  3  2  0
  1  4  1  0
  1  5  1  0
  2  6  1  0
  4  7  1  0
  6  8  2  0
  6  9  1  0
  7 10  2  0
  7 11  1  0
  8 12  1  0
  9 13  2  0
 11 14  1  0
 10 15  1  0
 14 15  2  0
 15 16  1  0
 12 17  2  0
 13 17  1  0
 12 18  1  0
 17 19  1  0
 18 20  1  0
 19 20  1  0
M  END
