mac-x0436-diamond-x0681_0_A
     RDKit          3D

 29 32  0  0  0  0  0  0  0  0999 V2000
    0.5750   11.1920   -3.0530 O   0  0  0  0  0  0  0  0  0  0  0  0
    1.2500   12.3530   -2.9840 C   0  0  0  0  0  0  0  0  0  0  0  0
    1.5350   12.8220   -1.9030 O   0  0  0  0  0  0  0  0  0  0  0  0
    1.5590   12.9390   -4.3390 C   0  0  0  0  0  0  0  0  0  0  0  0
    0.2850   13.2780   -5.1070 C   0  0  0  0  0  0  0  0  0  0  0  0
   -0.4690   12.0110   -5.4480 C   0  0  0  0  0  0  0  0  0  0  0  0
   -1.7520   11.5800   -4.6670 C   0  0  0  0  0  0  0  0  0  0  0  0
    0.0030   11.2880   -6.4320 N   0  0  0  0  0  0  0  0  0  0  0  0
   -2.1980   12.2290   -3.6130 N   0  0  0  0  0  0  0  0  0  0  0  0
   -2.3950   10.4630   -5.1660 N   0  0  0  0  0  0  0  0  0  0  0  0
   -0.6520   10.1000   -6.8060 C   0  0  0  0  0  0  0  0  0  0  0  0
   -1.6150   13.4360   -2.9940 C   0  0  0  0  0  0  0  0  0  0  0  0
   -1.8410    9.6850   -6.1890 C   0  0  0  0  0  0  0  0  0  0  0  0
   -0.1010    9.3260   -7.8300 C   0  0  0  0  0  0  0  0  0  0  0  0
   -2.6570   14.4690   -2.9840 N   0  0  0  0  0  0  0  0  0  0  0  0
   -0.7240    8.1420   -8.2320 C   0  0  0  0  0  0  0  0  0  0  0  0
   -2.4650    8.4980   -6.5960 C   0  0  0  0  0  0  0  0  0  0  0  0
   -3.4030   14.7940   -1.9600 C   0  0  0  0  0  0  0  0  0  0  0  0
   -1.9050    7.7300   -7.6160 C   0  0  0  0  0  0  0  0  0  0  0  0
   -4.3100   15.7630   -2.2620 N   0  0  0  0  0  0  0  0  0  0  0  0
   -3.4160   14.2470   -0.5210 C   0  0  2  0  0  0  0  0  0  0  0  0
   -4.5800   13.2990   -0.4160 C   0  0  0  0  0  0  0  0  0  0  0  0
   -3.4860   15.3760    0.5430 C   0  0  0  0  0  0  0  0  0  0  0  0
   -5.5310   13.3950    0.5630 N   0  0  0  0  0  0  0  0  0  0  0  0
   -4.1540   14.9580    1.8440 C   0  0  0  0  0  0  0  0  0  0  0  0
   -4.8530   12.2820   -1.2080 N   0  0  0  0  0  0  0  0  0  0  0  0
   -5.5440   14.3960    1.5910 C   0  0  0  0  0  0  0  0  0  0  0  0
   -6.4450   12.4000    0.3900 C   0  0  0  0  0  0  0  0  0  0  0  0
   -6.0050   11.7200   -0.7200 C   0  0  0  0  0  0  0  0  0  0  0  0
  1  2  1  0
  2  3  2  0
  2  4  1  0
  4  5  1  0
  5  6  1  0
  6  7  1  0
  6  8  2  0
  7  9  2  3
  7 10  1  0
  8 11  1  0
  9 12  1  0
 10 13  1  0
 11 13  2  0
 11 14  1  0
 12 15  1  0
 14 16  2  0
 13 17  1  0
 15 18  2  3
 16 19  1  0
 17 19  2  0
 18 20  1  0
 21 18  1  6
 21 22  1  0
 21 23  1  0
 22 24  1  0
 23 25  1  0
 22 26  2  0
 24 27  1  0
 25 27  1  0
 24 28  1  0
 26 29  1  0
 28 29  2  0
M  END
