mac-x0345-diamond-x1012_0_A
     RDKit          3D

 23 24  0  0  0  0  0  0  0  0999 V2000
   -7.3710   14.7370    0.3770 C   0  0  0  0  0  0  0  0  0  0  0  0
   -6.1220   14.9590   -0.4340 C   0  0  0  0  0  0  0  0  0  0  0  0
   -6.2470   14.7960   -1.7860 N   0  0  0  0  0  0  0  0  0  0  0  0
   -4.8820   15.3120    0.1140 C   0  0  0  0  0  0  0  0  0  0  0  0
   -4.4260   15.6180    1.8840 Br  0  0  0  0  0  0  0  0  0  0  0  0
   -3.8060   15.4770   -0.6820 C   0  0  0  0  0  0  0  0  0  0  0  0
   -5.1380   14.9820   -2.5490 C   0  0  0  0  0  0  0  0  0  0  0  0
   -5.2230   14.8250   -3.9310 N   0  0  0  0  0  0  0  0  0  0  0  0
   -3.9210   15.3180   -2.0200 C   0  0  0  0  0  0  0  0  0  0  0  0
   -3.8710   14.7830   -4.5630 C   0  0  0  0  0  0  0  0  0  0  0  0
   -3.6350   15.7200   -5.7800 C   0  0  0  0  0  0  0  0  0  0  0  0
   -2.7830   16.8980   -5.4590 N   0  0  0  0  0  0  0  0  0  0  0  0
   -1.5740   16.7940   -5.0390 C   0  0  0  0  0  0  0  0  0  0  0  0
   -0.9300   17.9710   -4.7840 N   0  0  0  0  0  0  0  0  0  0  0  0
   -0.8040   15.6860   -4.8010 N   0  0  0  0  0  0  0  0  0  0  0  0
   -1.3350   14.3630   -5.0850 C   0  0  0  0  0  0  0  0  0  0  0  0
    0.6220   15.7510   -4.4390 C   0  0  0  0  0  0  0  0  0  0  0  0
   -1.2000   13.5090   -3.8510 C   0  0  0  0  0  0  0  0  0  0  0  0
    0.9790   14.7220   -3.3530 C   0  0  0  0  0  0  0  0  0  0  0  0
    0.2860   13.3500   -3.5530 C   0  0  0  0  0  0  0  0  0  0  0  0
    0.4270   12.4510   -2.3450 C   0  0  0  0  0  0  0  0  0  0  0  0
    0.4020   11.1480   -2.6900 O   0  0  0  0  0  0  0  0  0  0  0  0
    0.5410   12.7750   -1.1790 O   0  0  0  0  0  0  0  0  0  0  0  0
  1  2  1  0
  2  3  2  0
  2  4  1  0
  4  5  1  0
  4  6  2  0
  3  7  1  0
  7  8  1  0
  6  9  1  0
  7  9  2  0
  8 10  1  0
 10 11  1  0
 11 12  1  0
 12 13  2  3
 13 14  1  0
 13 15  1  0
 15 16  1  0
 15 17  1  0
 16 18  1  0
 17 19  1  0
 18 20  1  0
 19 20  1  0
 20 21  1  0
 21 22  1  0
 21 23  2  0
M  END
