mac-x0231-mac-x0572
     RDKit          3D

 30 33  0  0  0  0  0  0  0  0999 V2000
    0.5960   10.9450   -3.3880 O   0  0  0  0  0  0  0  0  0  0  0  0
    1.3850   12.0200   -3.2240 C   0  0  0  0  0  0  0  0  0  0  0  0
    1.5780   12.4730   -2.1090 O   0  0  0  0  0  0  0  0  0  0  0  0
    1.9660   12.5850   -4.4920 C   0  0  0  0  0  0  0  0  0  0  0  0
    1.4360   13.9560   -4.5700 C   0  0  0  0  0  0  0  0  0  0  0  0
    0.0040   14.0720   -4.6720 C   0  0  0  0  0  0  0  0  0  0  0  0
    2.2340   14.9480   -4.4360 N   0  0  0  0  0  0  0  0  0  0  0  0
   -0.4970   15.3480   -4.6340 C   0  0  0  0  0  0  0  0  0  0  0  0
    1.7130   16.1940   -4.4330 N   0  0  0  0  0  0  0  0  0  0  0  0
   -0.8240   12.9450   -4.7650 C   0  0  0  0  0  0  0  0  0  0  0  0
    0.4020   16.5060   -4.5730 C   0  0  0  0  0  0  0  0  0  0  0  0
   -1.8390   15.5140   -4.6250 C   0  0  0  0  0  0  0  0  0  0  0  0
   -2.1930   13.1120   -4.7590 C   0  0  0  0  0  0  0  0  0  0  0  0
   -0.0060   17.6620   -4.6450 O   0  0  0  0  0  0  0  0  0  0  0  0
   -2.6700   14.3960   -4.6570 C   0  0  0  0  0  0  0  0  0  0  0  0
   -4.0440   14.7700   -4.4980 C   0  0  0  0  0  0  0  0  0  0  0  0
   -3.5370   15.4990   -3.2250 C   0  0  0  0  0  0  0  0  0  0  0  0
   -4.1620   15.3620   -1.8750 C   0  0  0  0  0  0  0  0  0  0  0  0
   -3.3470   15.2940   -0.6510 C   0  0  0  0  0  0  0  0  0  0  0  0
   -5.4580   15.3460   -1.8300 C   0  0  0  0  0  0  0  0  0  0  0  0
   -6.1860   15.3180   -0.5680 C   0  0  1  0  0  0  0  0  0  0  0  0
   -3.8720   15.1710    0.5830 C   0  0  0  0  0  0  0  0  0  0  0  0
   -7.4140   14.4950   -0.5280 C   0  0  0  0  0  0  0  0  0  0  0  0
   -5.3490   15.0710    0.6710 C   0  0  0  0  0  0  0  0  0  0  0  0
   -7.8910   13.8830   -1.4750 O   0  0  0  0  0  0  0  0  0  0  0  0
   -8.0710   14.4680    0.7980 C   0  0  0  0  0  0  0  0  0  0  0  0
   -5.9040   14.7510    1.7960 N   0  0  0  0  0  0  0  0  0  0  0  0
   -9.4470   14.3150    0.8390 O   0  0  0  0  0  0  0  0  0  0  0  0
   -7.2750   14.6040    1.8780 C   0  0  0  0  0  0  0  0  0  0  0  0
   -7.8090   14.6040    3.2890 C   0  0  0  0  0  0  0  0  0  0  0  0
  1  2  1  0
  2  3  2  0
  2  4  1  0
  4  5  1  0
  5  6  1  0
  5  7  2  0
  6  8  2  0
  7  9  1  0
  6 10  1  0
  8 11  1  0
  9 11  1  0
  8 12  1  0
 10 13  2  0
 11 14  2  0
 12 15  2  0
 13 15  1  0
 15 16  1  0
 16 17  1  0
 17 18  1  0
 18 19  1  0
 18 20  2  0
 21 20  1  6
 19 22  2  0
 21 23  1  0
 21 24  1  0
 22 24  1  0
 23 25  2  0
 23 26  1  0
 24 27  2  0
 26 28  1  0
 26 29  2  0
 27 29  1  0
 29 30  1  0
M  END
