mac-x0451-mac-x0284
     RDKit          3D

 15 16  0  0  0  0  0  0  0  0999 V2000
   -6.7710   14.8350    2.4460 N   0  0  0  0  0  0  0  0  0  0  0  0
   -5.8750   14.8540    1.4430 C   0  0  0  0  0  0  0  0  0  0  0  0
   -6.1680   14.8590    0.1570 N   0  0  0  0  0  0  0  0  0  0  0  0
   -4.2220   14.8730    1.8230 S   0  0  0  0  0  0  0  0  0  0  0  0
   -4.9860   14.8580   -0.5920 C   0  0  0  0  0  0  0  0  0  0  0  0
   -3.8350   14.8540    0.1720 C   0  0  0  0  0  0  0  0  0  0  0  0
   -4.8370   14.8540   -2.0100 C   0  0  0  0  0  0  0  0  0  0  0  0
   -2.5630   14.8340   -0.3330 C   0  0  0  0  0  0  0  0  0  0  0  0
   -1.4350   14.8320    0.6410 C   0  0  0  0  0  0  0  0  0  0  0  0
   -3.5260   14.8310   -2.5720 C   0  0  0  0  0  0  0  0  0  0  0  0
   -2.4030   14.8150   -1.7340 C   0  0  0  0  0  0  0  0  0  0  0  0
   -1.0100   14.7770   -2.2700 C   0  0  0  0  0  0  0  0  0  0  0  0
   -3.3190   14.8180   -3.9360 O   0  0  0  0  0  0  0  0  0  0  0  0
    0.0100   14.8020   -1.5920 O   0  0  0  0  0  0  0  0  0  0  0  0
   -0.9340   14.6970   -3.6070 O   0  0  0  0  0  0  0  0  0  0  0  0
  1  2  1  0
  2  3  2  0
  2  4  1  0
  3  5  1  0
  4  6  1  0
  5  6  2  0
  5  7  1  0
  6  8  1  0
  8  9  1  0
  7 10  2  0
  8 11  2  0
 10 11  1  0
 11 12  1  0
 10 13  1  0
 12 14  2  0
 12 15  1  0
M  END
