mac-x0451-mac-x0213
     RDKit          3D

 23 26  0  0  0  0  0  0  0  0999 V2000
   -6.6850   14.7840    2.6060 N   0  0  0  0  0  0  0  0  0  0  0  0
   -5.8370   14.8140    1.5640 C   0  0  0  0  0  0  0  0  0  0  0  0
   -6.2270   14.9730    0.3250 N   0  0  0  0  0  0  0  0  0  0  0  0
   -4.1490   14.6440    1.7880 S   0  0  0  0  0  0  0  0  0  0  0  0
   -5.1310   14.9650   -0.5140 C   0  0  0  0  0  0  0  0  0  0  0  0
   -3.9080   14.7870    0.1230 C   0  0  0  0  0  0  0  0  0  0  0  0
   -5.1400   15.1140   -1.9150 C   0  0  0  0  0  0  0  0  0  0  0  0
   -2.7100   14.7400   -0.5540 C   0  0  0  0  0  0  0  0  0  0  0  0
   -3.9280   15.0690   -2.6210 C   0  0  0  0  0  0  0  0  0  0  0  0
   -2.7350   14.8790   -1.9240 C   0  0  0  0  0  0  0  0  0  0  0  0
   -1.4910   14.8100   -2.4690 O   0  0  0  0  0  0  0  0  0  0  0  0
   -1.3510   14.4840   -3.8360 C   0  0  2  0  0  0  0  0  0  0  0  0
    0.0380   13.8640   -4.0760 C   0  0  2  0  0  0  0  0  0  0  0  0
   -1.2400   15.7710   -4.5830 C   0  0  0  0  0  0  0  0  0  0  0  0
    0.3970   12.8610   -2.9920 C   0  0  0  0  0  0  0  0  0  0  0  0
    0.1080   16.1290   -4.6940 C   0  0  0  0  0  0  0  0  0  0  0  0
    0.9840   15.0870   -4.0500 C   0  0  0  0  0  0  0  0  0  0  0  0
   -2.2440   16.5640   -5.1090 C   0  0  0  0  0  0  0  0  0  0  0  0
   -0.0860   11.6220   -3.2330 O   0  0  0  0  0  0  0  0  0  0  0  0
    1.0400   13.0590   -1.9760 O   0  0  0  0  0  0  0  0  0  0  0  0
   -1.8790   17.7450   -5.7520 C   0  0  0  0  0  0  0  0  0  0  0  0
    0.4750   17.2980   -5.3270 C   0  0  0  0  0  0  0  0  0  0  0  0
   -0.5280   18.1110   -5.8580 C   0  0  0  0  0  0  0  0  0  0  0  0
  1  2  1  0
  2  3  2  0
  2  4  1  0
  3  5  1  0
  4  6  1  0
  5  6  2  0
  5  7  1  0
  6  8  1  0
  7  9  2  0
  8 10  2  0
  9 10  1  0
 10 11  1  0
 12 11  1  1
 12 13  1  0
 12 14  1  0
 13 15  1  1
 14 16  2  0
 13 17  1  0
 16 17  1  0
 14 18  1  0
 15 19  1  0
 15 20  2  0
 18 21  2  0
 16 22  1  0
 21 23  1  0
 22 23  2  0
M  END
