mac-x0365-mac-x0263
     RDKit          3D

 19 20  0  0  0  0  0  0  0  0999 V2000
   -1.0750   14.7500   -0.9230 O   0  0  0  0  0  0  0  0  0  0  0  0
   -1.9770   14.7230   -1.9150 C   0  0  0  0  0  0  0  0  0  0  0  0
   -1.6140   14.7130   -3.0820 O   0  0  0  0  0  0  0  0  0  0  0  0
   -3.4020   14.7070   -1.4550 C   0  0  0  0  0  0  0  0  0  0  0  0
   -4.4520   14.5560   -2.4560 C   0  0  0  0  0  0  0  0  0  0  0  0
   -3.7060   14.8210   -0.1190 C   0  0  0  0  0  0  0  0  0  0  0  0
   -5.7310   14.8470   -2.1850 C   0  0  0  0  0  0  0  0  0  0  0  0
   -5.1790   14.7750    0.1680 C   0  0  0  0  0  0  0  0  0  0  0  0
   -6.6600   14.6890   -3.1390 F   0  0  0  0  0  0  0  0  0  0  0  0
   -6.1170   15.3470   -0.8560 C   0  0  1  0  0  0  0  0  0  0  0  0
   -5.8590   14.3210    1.1920 N   0  0  0  0  0  0  0  0  0  0  0  0
   -5.9500   16.7080   -0.8760 O   0  0  0  0  0  0  0  0  0  0  0  0
   -7.1960   14.5240    0.8390 C   0  0  0  0  0  0  0  0  0  0  0  0
   -7.4400   15.0480   -0.3160 N   0  0  0  0  0  0  0  0  0  0  0  0
   -8.3330   14.1600    1.7690 C   0  0  0  0  0  0  0  0  0  0  0  0
   -9.3970   15.2730    1.6940 C   0  0  0  0  0  0  0  0  0  0  0  0
  -10.4870   15.1590    2.7290 C   0  0  0  0  0  0  0  0  0  0  0  0
  -11.2960   14.1020    2.5430 O   0  0  0  0  0  0  0  0  0  0  0  0
  -10.6900   15.9260    3.6560 O   0  0  0  0  0  0  0  0  0  0  0  0
  1  2  1  0
  2  3  2  0
  2  4  1  0
  4  5  1  0
  4  6  2  0
  5  7  2  0
  6  8  1  0
  7  9  1  0
  7 10  1  0
  8 10  1  0
  8 11  2  0
 10 12  1  6
 11 13  1  0
 10 14  1  0
 13 14  2  0
 13 15  1  0
 15 16  1  0
 16 17  1  0
 17 18  1  0
 17 19  2  0
M  END
