mac-x0392-mac-x0124
     RDKit          3D

 13 14  0  0  0  0  0  0  0  0999 V2000
    0.3560   14.3980   -0.2850 N   0  0  0  0  0  0  0  0  0  0  0  0
   -0.9590   15.0720   -0.0710 C   0  0  2  0  0  0  0  0  0  0  0  0
   -1.7360   14.3900    1.0930 C   0  0  0  0  0  0  0  0  0  0  0  0
   -1.8530   14.9880   -1.3470 C   0  0  1  0  0  0  0  0  0  0  0  0
   -1.0470   14.3740   -2.5270 C   0  0  0  0  0  0  0  0  0  0  0  0
   -3.2630   14.4200   -1.0320 C   0  0  1  0  0  0  0  0  0  0  0  0
   -3.0380   15.0120    1.3910 N   0  0  0  0  0  0  0  0  0  0  0  0
   -2.3930   16.2050   -1.9830 N   0  0  0  0  0  0  0  0  0  0  0  0
   -1.5440   13.9270   -3.5500 O   0  0  0  0  0  0  0  0  0  0  0  0
    0.2950   14.3720   -2.4170 O   0  0  0  0  0  0  0  0  0  0  0  0
   -3.8970   15.0860    0.1930 C   0  0  0  0  0  0  0  0  0  0  0  0
   -3.8480   14.5570   -2.4090 C   0  0  0  0  0  0  0  0  0  0  0  0
   -3.2720   15.6610   -2.9130 C   0  0  0  0  0  0  0  0  0  0  0  0
  2  1  1  6
  2  3  1  0
  2  4  1  0
  4  5  1  6
  4  6  1  0
  3  7  1  0
  4  8  1  0
  5  9  2  0
  5 10  1  0
  6 11  1  1
  7 11  1  0
  6 12  1  0
  8 13  1  0
 12 13  2  0
M  END
