mac-x0354-mac-x0455
     RDKit          3D

 26 28  0  0  0  0  0  0  0  0999 V2000
    1.0020   11.1180   -8.0840 C   0  0  0  0  0  0  0  0  0  0  0  0
    1.1230   11.5500   -6.6990 N   0  0  0  0  0  0  0  0  0  0  0  0
    2.0160   12.4940   -6.3660 N   0  0  0  0  0  0  0  0  0  0  0  0
    0.4020   11.0850   -5.6160 C   0  0  0  0  0  0  0  0  0  0  0  0
    1.8820   12.6320   -5.0450 C   0  0  0  0  0  0  0  0  0  0  0  0
    0.8910   11.7730   -4.4890 C   0  0  0  0  0  0  0  0  0  0  0  0
   -0.6250   10.0590   -5.7550 C   0  0  0  0  0  0  0  0  0  0  0  0
    0.5080   11.6300   -3.0740 C   0  0  0  0  0  0  0  0  0  0  0  0
   -0.5070    9.0440   -6.7110 C   0  0  0  0  0  0  0  0  0  0  0  0
   -1.7420   10.0950   -4.9290 C   0  0  0  0  0  0  0  0  0  0  0  0
    0.2770   12.6310   -2.2830 N   0  0  0  0  0  0  0  0  0  0  0  0
    0.4170   10.3360   -2.6390 O   0  0  0  0  0  0  0  0  0  0  0  0
   -1.5080    8.0810   -6.8340 C   0  0  0  0  0  0  0  0  0  0  0  0
   -2.7420    9.1360   -5.0540 C   0  0  0  0  0  0  0  0  0  0  0  0
    0.3100   13.9520   -2.6540 C   0  0  0  0  0  0  0  0  0  0  0  0
   -2.6250    8.1320   -6.0060 C   0  0  0  0  0  0  0  0  0  0  0  0
   -0.9950   14.3880   -3.3920 C   0  0  1  0  0  0  0  0  0  0  0  0
    1.2280   14.7490   -2.4330 O   0  0  0  0  0  0  0  0  0  0  0  0
   -2.1090   14.5450   -2.3510 C   0  0  0  0  0  0  0  0  0  0  0  0
   -0.8480   15.6880   -4.0040 O   0  0  0  0  0  0  0  0  0  0  0  0
   -1.3030   13.3880   -4.4960 C   0  0  0  0  0  0  0  0  0  0  0  0
   -2.4270   12.5500   -4.3980 C   0  0  0  0  0  0  0  0  0  0  0  0
   -0.4950   13.2730   -5.6270 C   0  0  0  0  0  0  0  0  0  0  0  0
   -2.7280   11.6280   -5.4020 C   0  0  0  0  0  0  0  0  0  0  0  0
   -0.7980   12.3500   -6.6270 C   0  0  0  0  0  0  0  0  0  0  0  0
   -1.9090   11.5290   -6.5160 C   0  0  0  0  0  0  0  0  0  0  0  0
  1  2  1  0
  2  3  1  0
  2  4  1  0
  3  5  2  0
  4  6  2  0
  5  6  1  0
  4  7  1  0
  6  8  1  0
  7  9  2  0
  7 10  1  0
  8 11  2  3
  8 12  1  0
  9 13  1  0
 10 14  2  0
 11 15  1  0
 13 16  2  0
 14 16  1  0
 15 17  1  0
 15 18  2  0
 17 19  1  1
 17 20  1  0
 17 21  1  0
 21 22  2  0
 21 23  1  0
 22 24  1  0
 23 25  2  0
 24 26  2  0
 25 26  1  0
M  END
