mac-x0588-mac-x0527
     RDKit          3D

 31 35  0  0  0  0  0  0  0  0999 V2000
   -4.1770   15.4510    1.6660 N   0  0  0  0  0  0  0  0  0  0  0  0
   -3.2990   15.6480    0.5300 C   0  0  1  0  0  0  0  0  0  0  0  0
   -2.2030   14.5890    0.3250 C   0  0  1  0  0  0  0  0  0  0  0  0
   -4.1470   15.5810   -0.6220 N   0  0  0  0  0  0  0  0  0  0  0  0
   -3.3350   15.7700   -1.8300 C   0  0  0  0  0  0  0  0  0  0  0  0
   -1.4030   14.9240   -0.9500 C   0  0  2  0  0  0  0  0  0  0  0  0
   -1.1490   14.5600    1.3370 N   0  0  0  0  0  0  0  0  0  0  0  0
   -2.2820   14.8240   -2.0830 N   0  0  0  0  0  0  0  0  0  0  0  0
   -0.3290   13.9760   -0.7820 N   0  0  0  0  0  0  0  0  0  0  0  0
    0.0430   14.2320    0.6030 C   0  0  0  0  0  0  0  0  0  0  0  0
   -1.9070   14.8310   -3.5220 C   0  0  1  0  0  0  0  0  0  0  0  0
   -3.2830   14.9830   -4.0570 N   0  0  0  0  0  0  0  0  0  0  0  0
   -1.1360   16.0960   -4.1860 C   0  0  1  0  0  0  0  0  0  0  0  0
   -1.3520   13.4900   -4.1600 C   0  0  0  0  0  0  0  0  0  0  0  0
   -4.3580   14.1340   -3.7750 C   0  0  0  0  0  0  0  0  0  0  0  0
   -1.8580   17.3320   -4.4440 O   0  0  0  0  0  0  0  0  0  0  0  0
    0.1600   16.5670   -3.5340 C   0  0  0  0  0  0  0  0  0  0  0  0
   -1.8840   12.2310   -3.8050 C   0  0  0  0  0  0  0  0  0  0  0  0
   -0.3070   13.4750   -5.1280 C   0  0  0  0  0  0  0  0  0  0  0  0
   -4.8830   13.4080   -4.5990 O   0  0  0  0  0  0  0  0  0  0  0  0
    0.3850   17.9340   -4.1500 C   0  0  0  0  0  0  0  0  0  0  0  0
   -0.8560   18.1850   -4.9880 C   0  0  0  0  0  0  0  0  0  0  0  0
   -4.9010   14.1220   -2.3710 C   0  0  0  0  0  0  0  0  0  0  0  0
   -1.4130   11.0390   -4.3730 C   0  0  0  0  0  0  0  0  0  0  0  0
    0.1610   12.2800   -5.6950 C   0  0  0  0  0  0  0  0  0  0  0  0
   -6.0400   14.8650   -2.0550 C   0  0  0  0  0  0  0  0  0  0  0  0
   -4.2560   13.3670   -1.4320 N   0  0  0  0  0  0  0  0  0  0  0  0
   -0.3950   11.0650   -5.3170 C   0  0  0  0  0  0  0  0  0  0  0  0
   -6.5780   14.8820   -0.8010 N   0  0  0  0  0  0  0  0  0  0  0  0
   -4.7970   13.3890   -0.1810 C   0  0  0  0  0  0  0  0  0  0  0  0
   -5.9280   14.1270    0.1260 C   0  0  0  0  0  0  0  0  0  0  0  0
  2  1  1  1
  2  3  1  0
  2  4  1  0
  4  5  1  0
  3  6  1  0
  3  7  1  1
  5  8  1  0
  6  8  1  0
  6  9  1  6
  7 10  1  0
  9 10  1  0
  8 11  1  0
 11 12  1  6
 11 13  1  0
 11 14  1  0
 12 15  1  0
 13 16  1  0
 13 17  1  1
 14 18  2  0
 14 19  1  0
 15 20  2  0
 17 21  1  0
 16 22  1  0
 21 22  1  0
 15 23  1  0
 18 24  1  0
 19 25  2  0
 23 26  2  0
 23 27  1  0
 24 28  2  0
 25 28  1  0
 26 29  1  0
 27 30  2  0
 29 31  2  0
 30 31  1  0
M  END
