mac-x1493-mac-x0354
     RDKit          3D

 31 34  0  0  0  0  0  0  0  0999 V2000
   -1.3970   15.9020   -1.6190 O   0  0  0  0  0  0  0  0  0  0  0  0
   -2.2490   15.0370   -2.3400 C   0  0  0  0  0  0  0  0  0  0  0  0
   -2.3770   15.5580   -3.6480 O   0  0  0  0  0  0  0  0  0  0  0  0
   -1.6090   13.6490   -2.3550 C   0  0  0  0  0  0  0  0  0  0  0  0
   -3.5900   14.9460   -1.6500 C   0  0  0  0  0  0  0  0  0  0  0  0
   -0.7340   13.4200   -1.1180 C   0  0  0  0  0  0  0  0  0  0  0  0
   -3.7000   15.0400   -0.2570 C   0  0  0  0  0  0  0  0  0  0  0  0
   -4.7720   14.7570   -2.3500 C   0  0  0  0  0  0  0  0  0  0  0  0
    0.6730   12.9540   -1.4520 C   0  0  0  0  0  0  0  0  0  0  0  0
   -4.9470   14.9310    0.3650 C   0  0  0  0  0  0  0  0  0  0  0  0
   -5.9960   14.6490   -1.7840 N   0  0  0  0  0  0  0  0  0  0  0  0
    0.8910   12.9560   -2.8590 N   0  0  0  0  0  0  0  0  0  0  0  0
   -6.0800   14.7290   -0.4510 C   0  0  0  0  0  0  0  0  0  0  0  0
   -5.0900   15.0120    1.7520 C   0  0  0  0  0  0  0  0  0  0  0  0
    0.6490   11.8690   -3.4660 C   0  0  0  0  0  0  0  0  0  0  0  0
   -7.3220   14.6080    0.1560 C   0  0  0  0  0  0  0  0  0  0  0  0
   -6.3510   14.8870    2.3380 C   0  0  0  0  0  0  0  0  0  0  0  0
    0.2050   10.7270   -2.8670 O   0  0  0  0  0  0  0  0  0  0  0  0
   -7.4680   14.6820    1.5390 C   0  0  0  0  0  0  0  0  0  0  0  0
    0.8870   11.8640   -4.8680 C   0  0  0  0  0  0  0  0  0  0  0  0
    1.8750   12.6130   -5.5150 C   0  0  0  0  0  0  0  0  0  0  0  0
    0.2620   11.1630   -5.8930 C   0  0  0  0  0  0  0  0  0  0  0  0
    0.9040   11.5280   -7.0270 N   0  0  0  0  0  0  0  0  0  0  0  0
    1.8810   12.4060   -6.8030 N   0  0  0  0  0  0  0  0  0  0  0  0
   -0.8240   10.2090   -5.9240 C   0  0  0  0  0  0  0  0  0  0  0  0
    0.6180   11.0580   -8.3690 C   0  0  0  0  0  0  0  0  0  0  0  0
   -0.6110    8.9530   -6.5020 C   0  0  0  0  0  0  0  0  0  0  0  0
   -2.0670   10.5310   -5.3890 C   0  0  0  0  0  0  0  0  0  0  0  0
   -1.6440    8.0220   -6.5440 C   0  0  0  0  0  0  0  0  0  0  0  0
   -3.1010    9.5960   -5.4320 C   0  0  0  0  0  0  0  0  0  0  0  0
   -2.8880    8.3440   -6.0090 C   0  0  0  0  0  0  0  0  0  0  0  0
  2  1  1  0
  2  3  1  0
  2  4  1  0
  2  5  1  0
  4  6  1  0
  5  7  2  0
  5  8  1  0
  6  9  1  0
  7 10  1  0
  8 11  2  0
  9 12  1  0
 10 13  2  0
 11 13  1  0
 10 14  1  0
 12 15  2  3
 13 16  1  0
 14 17  2  0
 15 18  1  0
 16 19  2  0
 17 19  1  0
 15 20  1  0
 20 21  1  0
 20 22  2  0
 22 23  1  0
 21 24  2  0
 23 24  1  0
 22 25  1  0
 23 26  1  0
 25 27  2  0
 25 28  1  0
 27 29  1  0
 28 30  2  0
 29 31  2  0
 30 31  1  0
M  END
