mac-x0284-mac-x0373
     RDKit          3D

 18 19  0  0  0  0  0  0  0  0999 V2000
   -4.1130   15.5470    0.9160 C   0  0  0  0  0  0  0  0  0  0  0  0
   -3.5350   15.2780   -0.4390 C   0  0  0  0  0  0  0  0  0  0  0  0
   -4.3080   15.4650   -1.5850 C   0  0  0  0  0  0  0  0  0  0  0  0
   -2.2040   14.8410   -0.5580 C   0  0  0  0  0  0  0  0  0  0  0  0
   -1.6100   14.5870   -1.8110 C   0  0  0  0  0  0  0  0  0  0  0  0
   -3.7510   15.2180   -2.8340 C   0  0  0  0  0  0  0  0  0  0  0  0
   -0.1550   14.1210   -1.9010 C   0  0  0  0  0  0  0  0  0  0  0  0
   -2.4270   14.7880   -2.9360 C   0  0  0  0  0  0  0  0  0  0  0  0
   -1.8780   14.5390   -4.1510 O   0  0  0  0  0  0  0  0  0  0  0  0
    0.7070   15.0400   -1.2900 O   0  0  0  0  0  0  0  0  0  0  0  0
    0.3690   14.0090   -3.2010 O   0  0  0  0  0  0  0  0  0  0  0  0
    0.0240   12.9060   -1.2090 O   0  0  0  0  0  0  0  0  0  0  0  0
   -1.8540   13.2040   -4.4150 C   0  0  0  0  0  0  0  0  0  0  0  0
   -1.0220   12.6450   -5.3700 C   0  0  0  0  0  0  0  0  0  0  0  0
   -2.7300   12.4110   -3.6610 C   0  0  0  0  0  0  0  0  0  0  0  0
   -1.0670   11.2720   -5.5840 C   0  0  0  0  0  0  0  0  0  0  0  0
   -2.7710   11.0380   -3.8760 C   0  0  0  0  0  0  0  0  0  0  0  0
   -1.9390   10.4730   -4.8400 C   0  0  0  0  0  0  0  0  0  0  0  0
  1  2  1  0
  2  3  2  0
  2  4  1  0
  4  5  2  0
  3  6  1  0
  5  7  1  0
  5  8  1  0
  6  8  2  0
  8  9  1  0
  7 10  1  0
  7 11  1  0
  7 12  1  0
  9 13  1  0
 13 14  2  0
 13 15  1  0
 14 16  1  0
 15 17  2  0
 16 18  2  0
 17 18  1  0
M  END
