mac-x0509-mac-x0546
     RDKit          3D

 27 30  0  0  0  0  0  0  0  0999 V2000
   -2.9670    7.7610   -6.5690 O   0  0  0  0  0  0  0  0  0  0  0  0
   -2.0510    8.4650   -6.9500 C   0  0  0  0  0  0  0  0  0  0  0  0
   -2.1050    9.6730   -7.8720 C   0  0  0  0  0  0  0  0  0  0  0  0
   -0.7290    8.3590   -6.6250 N   0  0  0  0  0  0  0  0  0  0  0  0
   -0.4670    8.7280   -5.2610 C   0  0  0  0  0  0  0  0  0  0  0  0
   -0.7990    9.4870   -8.5740 C   0  0  0  0  0  0  0  0  0  0  0  0
    0.0130    8.6690   -7.7860 C   0  0  0  0  0  0  0  0  0  0  0  0
   -0.3990   10.2300   -4.9270 C   0  0  0  0  0  0  0  0  0  0  0  0
   -0.3720    9.9850   -9.7900 C   0  0  0  0  0  0  0  0  0  0  0  0
    1.2800    8.3080   -8.2020 C   0  0  0  0  0  0  0  0  0  0  0  0
   -0.0600   10.5220   -3.5240 O   0  0  0  0  0  0  0  0  0  0  0  0
    0.9040    9.6330  -10.2220 C   0  0  0  0  0  0  0  0  0  0  0  0
    1.7210    8.7990   -9.4400 C   0  0  0  0  0  0  0  0  0  0  0  0
    0.3050   11.8220   -3.2920 C   0  0  0  0  0  0  0  0  0  0  0  0
    0.1280   12.5610   -4.5950 C   0  0  0  0  0  0  0  0  0  0  0  0
    0.7030   12.2950   -2.2300 O   0  0  0  0  0  0  0  0  0  0  0  0
    0.4160   14.0030   -4.5570 C   0  0  0  0  0  0  0  0  0  0  0  0
   -0.6070   15.0670   -4.3350 C   0  0  2  0  0  0  0  0  0  0  0  0
    1.5990   14.5730   -4.7120 C   0  0  0  0  0  0  0  0  0  0  0  0
   -1.8530   15.2000   -5.1140 C   0  0  0  0  0  0  0  0  0  0  0  0
    0.3180   16.2340   -4.5990 C   0  0  0  0  0  0  0  0  0  0  0  0
    1.5590   15.9360   -4.7370 N   0  0  0  0  0  0  0  0  0  0  0  0
   -2.2820   16.4230   -5.4520 C   0  0  0  0  0  0  0  0  0  0  0  0
   -0.2530   17.5880   -4.6660 C   0  0  0  0  0  0  0  0  0  0  0  0
   -3.4490   16.5830   -6.1560 O   0  0  0  0  0  0  0  0  0  0  0  0
   -1.5340   17.6260   -5.0930 C   0  0  0  0  0  0  0  0  0  0  0  0
   -4.2720   15.4120   -6.0800 C   0  0  0  0  0  0  0  0  0  0  0  0
  1  2  2  0
  2  3  1  0
  2  4  1  0
  4  5  1  0
  3  6  1  0
  4  7  1  0
  6  7  2  0
  5  8  1  0
  6  9  1  0
  7 10  1  0
  8 11  1  0
  9 12  2  0
 10 13  2  0
 12 13  1  0
 11 14  1  0
 14 15  1  0
 14 16  2  0
 15 17  1  0
 17 18  1  0
 17 19  2  0
 18 20  1  6
 18 21  1  0
 19 22  1  0
 21 22  2  0
 20 23  2  0
 21 24  1  0
 23 25  1  0
 23 26  1  0
 24 26  2  0
 25 27  1  0
M  END
