mac-x0570-mac-x0570
     RDKit          3D

 26 27  0  0  0  0  0  0  0  0999 V2000
    4.6470   37.4600   -3.8840 C   0  0  0  0  0  0  0  0  0  0  0  0
    5.3210   38.0150   -2.6130 C   0  0  0  0  0  0  0  0  0  0  0  0
    5.5810   39.5110   -2.9190 C   0  0  0  0  0  0  0  0  0  0  0  0
    6.6970   37.2870   -2.5080 C   0  0  0  0  0  0  0  0  0  0  0  0
    4.4620   37.9220   -1.3180 C   0  0  0  0  0  0  0  0  0  0  0  0
    4.4500   38.8680   -0.2870 C   0  0  0  0  0  0  0  0  0  0  0  0
    3.6290   36.8250   -1.1450 C   0  0  0  0  0  0  0  0  0  0  0  0
    7.4610   37.2440   -1.1870 C   0  0  0  0  0  0  0  0  0  0  0  0
    3.6370   38.6910    0.8410 C   0  0  0  0  0  0  0  0  0  0  0  0
    2.8050   36.6350   -0.0110 C   0  0  0  0  0  0  0  0  0  0  0  0
    8.7360   38.0860   -1.1850 C   0  0  0  0  0  0  0  0  0  0  0  0
    3.6580   39.6370    1.8180 O   0  0  0  0  0  0  0  0  0  0  0  0
    2.8150   37.5850    0.9860 C   0  0  0  0  0  0  0  0  0  0  0  0
    9.1130   38.5070    0.2360 C   0  0  0  0  0  0  0  0  0  0  0  0
    2.0440   37.5080    2.1200 O   0  0  0  0  0  0  0  0  0  0  0  0
    8.2630   39.6160    0.9410 C   0  0  0  0  0  0  0  0  0  0  0  0
    8.9740   40.0240    2.2380 C   0  0  0  0  0  0  0  0  0  0  0  0
    6.8960   39.0330    1.3520 C   0  0  0  0  0  0  0  0  0  0  0  0
    8.0820   40.8520   -0.0500 C   0  0  1  0  0  0  0  0  0  0  0  0
    6.6300   41.3070   -0.3340 C   0  0  0  0  0  0  0  0  0  0  0  0
    9.0540   42.0290    0.2640 C   0  0  0  0  0  0  0  0  0  0  0  0
    6.4370   42.7210   -0.8740 C   0  0  2  0  0  0  0  0  0  0  0  0
    8.8000   43.3880   -0.3970 C   0  0  0  0  0  0  0  0  0  0  0  0
    5.4020   42.7740   -1.8630 O   0  0  0  0  0  0  0  0  0  0  0  0
    7.7110   43.3250   -1.4530 C   0  0  2  0  0  0  0  0  0  0  0  0
    7.4280   44.6460   -1.9200 O   0  0  0  0  0  0  0  0  0  0  0  0
  2  1  1  0
  2  3  1  0
  2  4  1  0
  2  5  1  0
  5  6  2  0
  5  7  1  0
  4  8  1  0
  6  9  1  0
  7 10  2  0
  8 11  1  0
  9 12  1  0
  9 13  2  0
 10 13  1  0
 11 14  1  0
 13 15  1  0
 16 14  1  0
 16 17  1  0
 16 18  1  0
 19 16  1  1
 19 20  1  0
 19 21  1  0
 20 22  1  0
 21 23  1  0
 22 24  1  6
 22 25  1  0
 23 25  1  0
 25 26  1  1
M  END
