mac-x0567-diamond-x0969_0_A
     RDKit          3D

 15 17  0  0  0  0  0  0  0  0999 V2000
    0.2530   14.2730    0.0340 N   0  0  0  0  0  0  0  0  0  0  0  0
   -1.0450   14.3810    0.3850 C   0  0  0  0  0  0  0  0  0  0  0  0
   -1.4860   14.3910    1.6770 N   0  0  0  0  0  0  0  0  0  0  0  0
   -2.1770   14.5000   -0.3750 C   0  0  0  0  0  0  0  0  0  0  0  0
   -2.8330   14.5060    1.7990 N   0  0  0  0  0  0  0  0  0  0  0  0
   -3.2570   14.5650    0.5320 C   0  0  0  0  0  0  0  0  0  0  0  0
   -2.4060   14.5670   -1.8370 C   0  0  0  0  0  0  0  0  0  0  0  0
   -4.6850   14.6930    0.0140 C   0  0  2  0  0  0  0  0  0  0  0  0
   -3.5730   15.4960   -2.0890 C   0  0  0  0  0  0  0  0  0  0  0  0
   -4.6220   15.5810   -1.2420 C   0  0  0  0  0  0  0  0  0  0  0  0
   -5.8460   14.8790    1.0190 C   0  0  2  0  0  0  0  0  0  0  0  0
   -5.3480   13.4590   -0.5650 C   0  0  0  0  0  0  0  0  0  0  0  0
   -6.2940   13.8430    1.9120 N   0  0  0  0  0  0  0  0  0  0  0  0
   -7.0010   14.9910    0.1210 N   0  0  0  0  0  0  0  0  0  0  0  0
   -6.7170   13.9670   -0.8920 N   0  0  0  0  0  0  0  0  0  0  0  0
  1  2  1  0
  2  3  1  0
  2  4  2  0
  3  5  1  0
  4  6  1  0
  5  6  2  0
  4  7  1  0
  6  8  1  0
  7  9  1  0
  8 10  1  6
  9 10  2  0
  8 11  1  0
  8 12  1  0
 11 13  1  1
 11 14  1  0
 12 15  1  0
 14 15  1  0
M  END
