mac-x0179-mac-x0357
     RDKit          3D

 16 17  0  0  0  0  0  0  0  0999 V2000
    1.9010   12.8730   -2.3940 O   0  0  0  0  0  0  0  0  0  0  0  0
    0.7030   12.5340   -3.0180 C   0  0  0  0  0  0  0  0  0  0  0  0
    0.4580   11.1740   -2.7560 O   0  0  0  0  0  0  0  0  0  0  0  0
    0.7170   12.9160   -4.5250 C   0  0  0  0  0  0  0  0  0  0  0  0
   -0.3160   13.2790   -2.3820 O   0  0  0  0  0  0  0  0  0  0  0  0
    0.1170   11.9220   -5.4120 N   0  0  0  0  0  0  0  0  0  0  0  0
    0.7570   11.4610   -6.5060 C   0  0  0  0  0  0  0  0  0  0  0  0
   -1.0460   11.2390   -5.1840 C   0  0  0  0  0  0  0  0  0  0  0  0
    1.8120   11.8480   -6.9260 O   0  0  0  0  0  0  0  0  0  0  0  0
   -1.8670   11.3780   -4.2980 O   0  0  0  0  0  0  0  0  0  0  0  0
   -0.0520   10.3820   -7.0730 C   0  0  0  0  0  0  0  0  0  0  0  0
   -1.1590   10.2440   -6.2550 C   0  0  0  0  0  0  0  0  0  0  0  0
    0.1480    9.5910   -8.1850 C   0  0  0  0  0  0  0  0  0  0  0  0
   -2.1360    9.2970   -6.5070 C   0  0  0  0  0  0  0  0  0  0  0  0
   -0.8270    8.6250   -8.4620 C   0  0  0  0  0  0  0  0  0  0  0  0
   -1.9590    8.4780   -7.6310 C   0  0  0  0  0  0  0  0  0  0  0  0
  2  1  1  0
  2  3  1  0
  2  4  1  0
  2  5  1  0
  4  6  1  0
  6  7  1  0
  6  8  1  0
  7  9  2  0
  8 10  2  0
  7 11  1  0
  8 12  1  0
 11 12  2  0
 11 13  1  0
 12 14  1  0
 13 15  2  0
 14 16  2  0
 15 16  1  0
M  END
