mac-x0116-mac-x0453
     RDKit          3D

 17 19  0  0  0  0  0  0  0  0999 V2000
   -6.0420   14.4100    2.0880 C   0  0  1  0  0  0  0  0  0  0  0  0
   -4.7050   14.9260    1.7960 N   0  0  0  0  0  0  0  0  0  0  0  0
   -3.9440   14.8860    0.6260 C   0  0  0  0  0  0  0  0  0  0  0  0
   -7.2300   14.9720    1.5010 N   0  0  0  0  0  0  0  0  0  0  0  0
   -6.3970   12.9990    1.8890 C   0  0  0  0  0  0  0  0  0  0  0  0
   -6.2740   12.4910    0.6250 O   0  0  0  0  0  0  0  0  0  0  0  0
   -6.8800   12.0570    2.7530 C   0  0  0  0  0  0  0  0  0  0  0  0
   -7.0870   10.9080    1.9860 C   0  0  0  0  0  0  0  0  0  0  0  0
   -6.7000   11.2140    0.7010 C   0  0  0  0  0  0  0  0  0  0  0  0
   -4.4990   15.0340   -0.6330 N   0  0  0  0  0  0  0  0  0  0  0  0
   -2.6070   14.7140    0.6500 C   0  0  0  0  0  0  0  0  0  0  0  0
   -3.7490   14.9720   -1.7760 C   0  0  0  0  0  0  0  0  0  0  0  0
   -1.8610   14.6800   -0.6130 C   0  0  0  0  0  0  0  0  0  0  0  0
   -1.7040   14.5530    1.6650 N   0  0  0  0  0  0  0  0  0  0  0  0
   -2.4670   14.7970   -1.8340 N   0  0  0  0  0  0  0  0  0  0  0  0
   -0.5960   14.5320   -0.3670 N   0  0  0  0  0  0  0  0  0  0  0  0
   -0.5740   14.4640    1.0240 C   0  0  0  0  0  0  0  0  0  0  0  0
  1  2  1  0
  2  3  1  0
  1  4  1  6
  1  5  1  0
  5  6  1  0
  5  7  2  0
  7  8  1  0
  6  9  1  0
  8  9  2  0
  3 10  1  0
  3 11  2  0
 10 12  1  0
 11 13  1  0
 11 14  1  0
 12 15  2  0
 13 15  1  0
 13 16  2  0
 14 17  2  0
 16 17  1  0
M  END
