mac-x0436-diamond-x0253_0_A
     RDKit          3D

 25 27  0  0  0  0  0  0  0  0999 V2000
    0.4420   11.3350   -2.4400 O   0  0  0  0  0  0  0  0  0  0  0  0
    0.6020   12.6000   -2.8830 C   0  0  0  0  0  0  0  0  0  0  0  0
    0.3430   13.5360   -2.1550 O   0  0  0  0  0  0  0  0  0  0  0  0
    1.1310   12.6820   -4.2920 C   0  0  0  0  0  0  0  0  0  0  0  0
    0.1610   12.3480   -5.4510 C   0  0  1  0  0  0  0  0  0  0  0  0
    0.9460   11.9510   -6.6960 C   0  0  0  0  0  0  0  0  0  0  0  0
   -0.7530   11.1750   -5.3120 C   0  0  0  0  0  0  0  0  0  0  0  0
    2.1450   12.1660   -6.7420 O   0  0  0  0  0  0  0  0  0  0  0  0
   -2.1140   11.2120   -4.6160 C   0  0  0  0  0  0  0  0  0  0  0  0
   -0.3100   10.1420   -5.9220 N   0  0  0  0  0  0  0  0  0  0  0  0
    0.2330   11.1880   -7.8240 C   0  0  0  0  0  0  0  0  0  0  0  0
   -2.4950   12.2030   -4.0060 O   0  0  0  0  0  0  0  0  0  0  0  0
   -2.8460   10.0490   -4.7430 N   0  0  0  0  0  0  0  0  0  0  0  0
   -1.0770    9.0120   -6.0290 C   0  0  0  0  0  0  0  0  0  0  0  0
   -1.0610   10.6700   -7.6550 C   0  0  0  0  0  0  0  0  0  0  0  0
    0.8440   10.9640   -9.0720 C   0  0  0  0  0  0  0  0  0  0  0  0
   -2.3490    8.9400   -5.4640 C   0  0  0  0  0  0  0  0  0  0  0  0
   -0.5490    7.9470   -6.7440 C   0  0  0  0  0  0  0  0  0  0  0  0
   -1.7130    9.9490   -8.6690 C   0  0  0  0  0  0  0  0  0  0  0  0
    0.2040   10.2540  -10.0840 C   0  0  0  0  0  0  0  0  0  0  0  0
   -3.0910    9.4010   -8.4440 C   0  0  0  0  0  0  0  0  0  0  0  0
   -1.2940    6.7900   -6.9080 C   0  0  0  0  0  0  0  0  0  0  0  0
   -3.1020    7.7840   -5.6240 C   0  0  0  0  0  0  0  0  0  0  0  0
   -1.0690    9.7460   -9.8850 C   0  0  0  0  0  0  0  0  0  0  0  0
   -2.5710    6.7110   -6.3490 C   0  0  0  0  0  0  0  0  0  0  0  0
  1  2  1  0
  2  3  2  0
  2  4  1  0
  5  4  1  1
  5  6  1  0
  5  7  1  0
  6  8  2  0
  7  9  1  0
  7 10  2  0
  6 11  1  0
  9 12  2  0
  9 13  1  0
 10 14  1  0
 11 15  2  0
 11 16  1  0
 13 17  1  0
 14 17  2  0
 14 18  1  0
 15 19  1  0
 16 20  2  0
 19 21  1  0
 18 22  2  0
 17 23  1  0
 19 24  2  0
 20 24  1  0
 22 25  1  0
 23 25  2  0
M  END
