mac-x0179-diamond-x0905_0_A
     RDKit          3D

 25 27  0  0  0  0  0  0  0  0999 V2000
    1.5930   12.9690   -2.2590 O   0  0  0  0  0  0  0  0  0  0  0  0
    0.9880   12.1840   -3.1830 C   0  0  0  0  0  0  0  0  0  0  0  0
    0.7100   11.0200   -2.9380 O   0  0  0  0  0  0  0  0  0  0  0  0
    0.7040   12.8630   -4.5180 C   0  0  0  0  0  0  0  0  0  0  0  0
    0.0150   12.0010   -5.4690 N   0  0  0  0  0  0  0  0  0  0  0  0
    0.6930   11.4920   -6.5310 C   0  0  0  0  0  0  0  0  0  0  0  0
   -1.1710   11.3320   -5.2720 C   0  0  0  0  0  0  0  0  0  0  0  0
    1.7560   11.8330   -6.9690 O   0  0  0  0  0  0  0  0  0  0  0  0
   -1.9910   11.6840   -4.3390 N   0  0  0  0  0  0  0  0  0  0  0  0
   -0.0970   10.3850   -7.0600 C   0  0  0  0  0  0  0  0  0  0  0  0
   -1.2400   10.2730   -6.2850 C   0  0  0  0  0  0  0  0  0  0  0  0
   -1.7760   12.8020   -3.4180 C   0  0  0  0  0  0  0  0  0  0  0  0
    0.1790    9.5510   -8.1300 C   0  0  0  0  0  0  0  0  0  0  0  0
   -2.1730    9.2870   -6.5610 C   0  0  0  0  0  0  0  0  0  0  0  0
   -2.9260   13.8020   -3.6100 C   0  0  0  0  0  0  0  0  0  0  0  0
   -0.7590    8.5580   -8.4170 C   0  0  0  0  0  0  0  0  0  0  0  0
   -1.9230    8.4260   -7.6380 C   0  0  0  0  0  0  0  0  0  0  0  0
   -2.8030   15.0610   -2.7420 C   0  0  0  0  0  0  0  0  0  0  0  0
   -3.6810   15.0490   -1.5180 C   0  0  0  0  0  0  0  0  0  0  0  0
   -3.1360   14.9960   -0.2260 C   0  0  0  0  0  0  0  0  0  0  0  0
   -5.0670   15.0860   -1.6510 C   0  0  0  0  0  0  0  0  0  0  0  0
   -4.0000   14.9740    0.8580 C   0  0  0  0  0  0  0  0  0  0  0  0
   -5.8220   15.0570   -0.5030 C   0  0  0  0  0  0  0  0  0  0  0  0
   -7.1730   15.0800   -0.5700 O   0  0  0  0  0  0  0  0  0  0  0  0
   -5.3430   14.9980    0.7460 N   0  0  0  0  0  0  0  0  0  0  0  0
  1  2  1  0
  2  3  2  0
  2  4  1  0
  4  5  1  0
  5  6  1  0
  5  7  1  0
  6  8  2  0
  7  9  2  3
  6 10  1  0
  7 11  1  0
 10 11  2  0
  9 12  1  0
 10 13  1  0
 11 14  1  0
 12 15  1  0
 13 16  2  0
 14 17  2  0
 16 17  1  0
 15 18  1  0
 18 19  1  0
 19 20  2  0
 19 21  1  0
 20 22  1  0
 21 23  2  0
 23 24  1  0
 22 25  2  0
 23 25  1  0
M  END
