mac-x0190-mac-x0282
     RDKit          3D

 16 18  0  0  0  0  0  0  0  0999 V2000
   -9.1640   15.0900    2.2400 O   0  0  0  0  0  0  0  0  0  0  0  0
   -8.6320   14.0210    1.4630 C   0  0  0  0  0  0  0  0  0  0  0  0
   -7.3180   14.4600    0.9200 C   0  0  0  0  0  0  0  0  0  0  0  0
   -7.0640   14.4550   -0.4340 N   0  0  0  0  0  0  0  0  0  0  0  0
   -6.2600   14.8890    1.5980 N   0  0  0  0  0  0  0  0  0  0  0  0
   -5.7880   14.9010   -0.5940 C   0  0  0  0  0  0  0  0  0  0  0  0
   -5.3000   15.1760    0.6570 C   0  0  0  0  0  0  0  0  0  0  0  0
   -5.1130   15.0430   -1.8010 C   0  0  0  0  0  0  0  0  0  0  0  0
   -3.9050   15.7110    0.8530 C   0  0  0  0  0  0  0  0  0  0  0  0
   -3.7770   15.1420   -1.6740 C   0  0  0  0  0  0  0  0  0  0  0  0
   -3.0070   15.1370   -0.3140 C   0  0  1  0  0  0  0  0  0  0  0  0
   -1.6340   15.7360   -0.6440 C   0  0  0  0  0  0  0  0  0  0  0  0
   -2.6280   13.7650    0.2750 C   0  0  0  0  0  0  0  0  0  0  0  0
   -0.4860   15.3510   -0.0470 C   0  0  0  0  0  0  0  0  0  0  0  0
   -1.7540   13.9720    1.4560 N   0  0  0  0  0  0  0  0  0  0  0  0
   -0.4190   14.3240    1.0170 C   0  0  0  0  0  0  0  0  0  0  0  0
  1  2  1  0
  2  3  1  0
  3  4  1  0
  3  5  2  0
  4  6  1  0
  5  7  1  0
  6  7  2  0
  6  8  1  0
  7  9  1  0
  8 10  2  0
 11  9  1  1
 11 10  1  0
 11 12  1  0
 11 13  1  0
 12 14  2  0
 13 15  1  0
 14 16  1  0
 15 16  1  0
M  END
