mac-x0546-mac-x0179
     RDKit          3D

 26 29  0  0  0  0  0  0  0  0999 V2000
   -4.3710   15.4160   -6.1360 C   0  0  0  0  0  0  0  0  0  0  0  0
   -3.4970   16.5450   -6.0950 O   0  0  0  0  0  0  0  0  0  0  0  0
   -2.3300   16.3750   -5.4170 C   0  0  0  0  0  0  0  0  0  0  0  0
   -1.8730   15.2090   -4.9450 C   0  0  0  0  0  0  0  0  0  0  0  0
   -1.5570   17.6060   -5.2250 C   0  0  0  0  0  0  0  0  0  0  0  0
   -0.5950   15.1680   -4.2040 C   0  0  2  0  0  0  0  0  0  0  0  0
   -0.2540   17.6030   -4.8740 C   0  0  0  0  0  0  0  0  0  0  0  0
    0.3140   16.2580   -4.7020 C   0  0  0  0  0  0  0  0  0  0  0  0
    0.3770   14.0520   -4.3200 C   0  0  0  0  0  0  0  0  0  0  0  0
    0.0300   12.6340   -4.0260 C   0  0  2  0  0  0  0  0  0  0  0  0
    1.5310   15.9090   -4.9220 N   0  0  0  0  0  0  0  0  0  0  0  0
    1.5560   14.5520   -4.6960 C   0  0  0  0  0  0  0  0  0  0  0  0
    0.6120   11.9800   -2.7570 C   0  0  0  0  0  0  0  0  0  0  0  0
   -0.1780   11.7670   -5.1750 N   0  0  0  0  0  0  0  0  0  0  0  0
    1.2360   12.5560   -1.8900 O   0  0  0  0  0  0  0  0  0  0  0  0
    0.3660   10.6420   -2.6250 O   0  0  0  0  0  0  0  0  0  0  0  0
    0.6170   11.5010   -6.2700 C   0  0  0  0  0  0  0  0  0  0  0  0
   -1.3100   11.0270   -5.1880 C   0  0  0  0  0  0  0  0  0  0  0  0
    1.6660   11.9950   -6.6250 O   0  0  0  0  0  0  0  0  0  0  0  0
   -2.2400   11.0750   -4.4130 O   0  0  0  0  0  0  0  0  0  0  0  0
   -0.0620   10.4100   -6.9970 C   0  0  0  0  0  0  0  0  0  0  0  0
   -1.2350   10.1310   -6.3210 C   0  0  0  0  0  0  0  0  0  0  0  0
    0.2910    9.7130   -8.1350 C   0  0  0  0  0  0  0  0  0  0  0  0
   -2.1190    9.1520   -6.7250 C   0  0  0  0  0  0  0  0  0  0  0  0
   -0.5890    8.7110   -8.5720 C   0  0  0  0  0  0  0  0  0  0  0  0
   -1.7850    8.4330   -7.8720 C   0  0  0  0  0  0  0  0  0  0  0  0
  1  2  1  0
  2  3  1  0
  3  4  2  0
  3  5  1  0
  6  4  1  6
  5  7  2  0
  6  8  1  0
  7  8  1  0
  6  9  1  0
  9 10  1  0
  8 11  2  0
  9 12  2  0
 11 12  1  0
 10 13  1  1
 10 14  1  0
 13 15  2  0
 13 16  1  0
 14 17  1  0
 14 18  1  0
 17 19  2  0
 18 20  2  0
 17 21  1  0
 18 22  1  0
 21 22  2  0
 21 23  1  0
 22 24  1  0
 23 25  2  0
 24 26  2  0
 25 26  1  0
M  END
