mac-x0568-mac-x0510
     RDKit          3D

 20 22  0  0  0  0  0  0  0  0999 V2000
   -8.6980   14.1650    1.4250 C   0  0  0  0  0  0  0  0  0  0  0  0
   -7.5970   14.2880    0.4140 C   0  0  0  0  0  0  0  0  0  0  0  0
   -6.4260   13.5450    0.5560 C   0  0  0  0  0  0  0  0  0  0  0  0
   -7.7990   15.1430   -0.6200 N   0  0  0  0  0  0  0  0  0  0  0  0
   -6.8060   15.2700   -1.5320 C   0  0  0  0  0  0  0  0  0  0  0  0
   -5.4200   13.6860   -0.3950 C   0  0  0  0  0  0  0  0  0  0  0  0
   -5.6170   14.5730   -1.4610 C   0  0  0  0  0  0  0  0  0  0  0  0
   -4.5760   14.7860   -2.5000 C   0  0  0  0  0  0  0  0  0  0  0  0
   -3.3940   15.1030   -2.1870 N   0  0  0  0  0  0  0  0  0  0  0  0
   -4.8650   14.6570   -3.7980 N   0  0  0  0  0  0  0  0  0  0  0  0
   -3.3500   15.1310   -0.8600 C   0  0  0  0  0  0  0  0  0  0  0  0
   -2.1660   14.9380   -0.0950 C   0  0  0  0  0  0  0  0  0  0  0  0
   -4.4480   15.3060   -0.2380 N   0  0  0  0  0  0  0  0  0  0  0  0
   -4.4910   15.2620    1.1290 C   0  0  0  0  0  0  0  0  0  0  0  0
   -2.3030   14.9030    1.3260 C   0  0  0  0  0  0  0  0  0  0  0  0
   -0.9390   14.8080   -0.4280 N   0  0  0  0  0  0  0  0  0  0  0  0
   -5.5870   15.3310    1.6520 O   0  0  0  0  0  0  0  0  0  0  0  0
   -3.3980   15.0690    1.9240 N   0  0  0  0  0  0  0  0  0  0  0  0
   -1.1050   14.6910    1.8590 N   0  0  0  0  0  0  0  0  0  0  0  0
   -0.3500   14.6620    0.8050 C   0  0  0  0  0  0  0  0  0  0  0  0
  1  2  1  0
  2  3  2  0
  2  4  1  0
  4  5  2  0
  3  6  1  0
  5  7  1  0
  6  7  2  0
  7  8  1  0
  8  9  2  3
  8 10  1  0
  9 11  1  0
 11 12  1  0
 11 13  2  0
 13 14  1  0
 12 15  1  0
 12 16  2  0
 14 17  2  0
 14 18  1  0
 15 18  2  0
 15 19  1  0
 16 20  1  0
 19 20  2  0
M  END
