mac-x0333-diamond-x0290_0_A
     RDKit          3D

 22 24  0  0  0  0  0  0  0  0999 V2000
   -2.0510   15.4470   -2.2000 O   0  0  0  0  0  0  0  0  0  0  0  0
   -3.3650   15.3760   -1.8310 C   0  0  0  0  0  0  0  0  0  0  0  0
   -3.4670   15.7800   -0.4840 C   0  0  0  0  0  0  0  0  0  0  0  0
   -1.6630   15.1550   -0.9270 C   0  0  0  0  0  0  0  0  0  0  0  0
   -4.4900   14.9640   -2.5510 C   0  0  0  0  0  0  0  0  0  0  0  0
   -0.4080   15.2890   -0.3710 C   0  0  0  0  0  0  0  0  0  0  0  0
   -2.7150   14.6870   -0.1700 C   0  0  0  0  0  0  0  0  0  0  0  0
   -5.6850   14.9680   -1.8420 C   0  0  0  0  0  0  0  0  0  0  0  0
   -4.6690   15.7700    0.1880 C   0  0  0  0  0  0  0  0  0  0  0  0
   -0.3170   14.9370    0.9740 C   0  0  0  0  0  0  0  0  0  0  0  0
   -2.5570   14.3670    1.1300 C   0  0  0  0  0  0  0  0  0  0  0  0
   -3.6550   13.9140    1.8480 N   0  0  0  0  0  0  0  0  0  0  0  0
   -5.7610   15.3520   -0.5180 C   0  0  0  0  0  0  0  0  0  0  0  0
   -6.9080   14.6080   -2.3070 O   0  0  0  0  0  0  0  0  0  0  0  0
   -1.3580   14.4870    1.7400 N   0  0  0  0  0  0  0  0  0  0  0  0
   -4.8400   13.4610    1.2820 C   0  0  0  0  0  0  0  0  0  0  0  0
   -7.0230   15.2580   -0.0360 O   0  0  0  0  0  0  0  0  0  0  0  0
   -7.7180   15.2180   -1.2880 C   0  0  0  0  0  0  0  0  0  0  0  0
   -4.9410   12.9040    0.1920 O   0  0  0  0  0  0  0  0  0  0  0  0
   -6.1030   13.7140    2.1290 C   0  0  0  0  0  0  0  0  0  0  0  0
   -7.3600   13.6640    1.3260 N   0  0  0  0  0  0  0  0  0  0  0  0
   -8.3450   14.6490    1.7860 C   0  0  0  0  0  0  0  0  0  0  0  0
  1  2  1  0
  2  3  2  0
  1  4  1  0
  2  5  1  0
  4  6  2  0
  4  7  1  0
  5  8  2  0
  3  9  1  0
  6 10  1  0
  7 11  2  0
 11 12  1  0
  8 13  1  0
  9 13  2  0
  8 14  1  0
 10 15  2  0
 11 15  1  0
 12 16  1  0
 13 17  1  0
 14 18  1  0
 17 18  1  0
 16 19  2  0
 16 20  1  0
 20 21  1  0
 21 22  1  0
M  END
