mac-x0411-diamond-x0910_0_A
     RDKit          3D

 21 22  0  0  0  0  0  0  0  0999 V2000
    0.6270    8.7740   -7.6880 Cl  0  0  0  0  0  0  0  0  0  0  0  0
   -0.6400    9.5190   -6.7760 C   0  0  0  0  0  0  0  0  0  0  0  0
   -0.5100   10.8010   -6.1870 C   0  0  0  0  0  0  0  0  0  0  0  0
   -1.8240    8.8010   -6.6440 C   0  0  0  0  0  0  0  0  0  0  0  0
    0.6910   11.4730   -6.3390 O   0  0  0  0  0  0  0  0  0  0  0  0
   -1.5980   11.3650   -5.4700 C   0  0  0  0  0  0  0  0  0  0  0  0
   -2.8910    9.3380   -5.9380 C   0  0  0  0  0  0  0  0  0  0  0  0
   -1.5610   12.7470   -4.8250 C   0  0  0  0  0  0  0  0  0  0  0  0
    1.0130   12.4570   -5.3310 C   0  0  0  0  0  0  0  0  0  0  0  0
   -2.7810   10.6050   -5.3600 C   0  0  0  0  0  0  0  0  0  0  0  0
    0.8860   11.9140   -3.9090 C   0  0  0  0  0  0  0  0  0  0  0  0
   -2.2900   12.8920   -3.4770 C   0  0  0  0  0  0  0  0  0  0  0  0
    1.4390   12.6980   -2.9590 O   0  0  0  0  0  0  0  0  0  0  0  0
    0.3460   10.8560   -3.6230 O   0  0  0  0  0  0  0  0  0  0  0  0
   -2.3140   14.3470   -2.9840 C   0  0  0  0  0  0  0  0  0  0  0  0
   -2.7960   14.4310   -1.6060 N   0  0  0  0  0  0  0  0  0  0  0  0
   -1.8870   14.6380   -0.6240 C   0  0  0  0  0  0  0  0  0  0  0  0
   -2.2470   14.7110    0.6950 N   0  0  0  0  0  0  0  0  0  0  0  0
   -0.5860   14.8020   -0.7200 N   0  0  0  0  0  0  0  0  0  0  0  0
   -1.1790   14.9210    1.4760 N   0  0  0  0  0  0  0  0  0  0  0  0
   -0.1980   14.9740    0.5790 C   0  0  0  0  0  0  0  0  0  0  0  0
  1  2  1  0
  2  3  2  0
  2  4  1  0
  3  5  1  0
  3  6  1  0
  4  7  2  0
  6  8  1  0
  5  9  1  0
  6 10  2  0
  7 10  1  0
  9 11  1  0
  8 12  1  0
 11 13  1  0
 11 14  2  0
 12 15  1  0
 15 16  1  0
 16 17  1  0
 17 18  1  0
 17 19  2  0
 18 20  1  0
 19 21  1  0
 20 21  2  0
M  END
