mac-x0305-mac-x0453
     RDKit          3D

 13 13  0  0  0  0  0  0  0  0999 V2000
    0.4800   13.2730   -0.4490 O   0  0  0  0  0  0  0  0  0  0  0  0
   -0.1740   14.1050   -1.3160 C   0  0  0  0  0  0  0  0  0  0  0  0
    0.2680   14.5120   -2.3830 O   0  0  0  0  0  0  0  0  0  0  0  0
   -1.5240   14.4230   -0.7860 C   0  0  0  0  0  0  0  0  0  0  0  0
   -1.7430   14.5930    0.5890 C   0  0  0  0  0  0  0  0  0  0  0  0
   -2.5060   14.5160   -1.7530 N   0  0  0  0  0  0  0  0  0  0  0  0
   -0.8300   14.5310    1.6090 O   0  0  0  0  0  0  0  0  0  0  0  0
   -3.0220   14.8400    0.9970 C   0  0  0  0  0  0  0  0  0  0  0  0
   -3.7530   14.7670   -1.2860 C   0  0  0  0  0  0  0  0  0  0  0  0
   -4.0420   14.9190    0.0700 C   0  0  0  0  0  0  0  0  0  0  0  0
   -5.4040   15.1530    0.6120 C   0  0  0  0  0  0  0  0  0  0  0  0
   -6.0770   13.8690    1.1300 C   0  0  0  0  0  0  0  0  0  0  0  0
   -6.9650   14.1190    2.2690 N   0  0  0  0  0  0  0  0  0  0  0  0
  1  2  1  0
  2  3  2  0
  2  4  1  0
  4  5  2  0
  4  6  1  0
  5  7  1  0
  5  8  1  0
  6  9  2  0
  8 10  2  0
  9 10  1  0
 10 11  1  0
 11 12  1  0
 12 13  1  0
M  END
