mac-x0568-mac-x0132
     RDKit          3D

 15 16  0  0  0  0  0  0  0  0999 V2000
   -8.4430   14.8720    1.4180 C   0  0  0  0  0  0  0  0  0  0  0  0
   -7.0970   14.6940    0.7520 C   0  0  0  0  0  0  0  0  0  0  0  0
   -5.9080   14.6430    1.6530 C   0  0  0  0  0  0  0  0  0  0  0  0
   -7.0950   14.6110   -0.5340 N   0  0  0  0  0  0  0  0  0  0  0  0
   -5.7920   14.3820   -1.1840 C   0  0  2  0  0  0  0  0  0  0  0  0
   -4.6610   14.6060    1.1370 C   0  0  0  0  0  0  0  0  0  0  0  0
   -3.5370   14.5820    1.9430 N   0  0  0  0  0  0  0  0  0  0  0  0
   -4.4940   14.5970   -0.3840 C   0  0  2  0  0  0  0  0  0  0  0  0
   -5.5830   14.9240   -2.5480 C   0  0  0  0  0  0  0  0  0  0  0  0
   -3.5600   15.7000   -0.9090 C   0  0  0  0  0  0  0  0  0  0  0  0
   -4.4330   14.5150   -3.1230 C   0  0  0  0  0  0  0  0  0  0  0  0
   -3.5920   13.5880   -1.0050 C   0  0  0  0  0  0  0  0  0  0  0  0
   -3.6700   16.2210   -2.0090 O   0  0  0  0  0  0  0  0  0  0  0  0
   -2.4910   16.0110   -0.1280 N   0  0  0  0  0  0  0  0  0  0  0  0
   -3.5730   13.5920   -2.3630 C   0  0  0  0  0  0  0  0  0  0  0  0
  1  2  1  0
  2  3  1  0
  2  4  2  0
  4  5  1  0
  3  6  2  0
  6  7  1  0
  5  8  1  0
  6  8  1  0
  5  9  1  6
  8 10  1  6
  9 11  2  0
  8 12  1  0
 10 13  2  0
 10 14  1  0
 11 15  1  0
 12 15  2  0
M  END
