mac-x0116-diamond-x1015_0_A
     RDKit          3D

 32 36  0  0  0  0  0  0  0  0999 V2000
   -6.0100   14.6230    1.6390 C   0  0  0  0  0  0  0  0  0  0  0  0
   -4.5930   14.8750    1.7710 N   0  0  0  0  0  0  0  0  0  0  0  0
   -3.8380   14.8880    0.6040 C   0  0  0  0  0  0  0  0  0  0  0  0
   -6.4220   13.1980    1.6820 C   0  0  0  0  0  0  0  0  0  0  0  0
   -6.3880   12.5200    0.4970 O   0  0  0  0  0  0  0  0  0  0  0  0
   -6.8570   12.3690    2.6900 C   0  0  0  0  0  0  0  0  0  0  0  0
   -7.1040   11.1240    2.0940 C   0  0  0  0  0  0  0  0  0  0  0  0
   -6.8030   11.2620    0.7610 C   0  0  0  0  0  0  0  0  0  0  0  0
   -4.3820   15.0280   -0.6320 N   0  0  0  0  0  0  0  0  0  0  0  0
   -2.4580   14.7520    0.7070 C   0  0  0  0  0  0  0  0  0  0  0  0
   -3.5500   15.0240   -1.6980 C   0  0  0  0  0  0  0  0  0  0  0  0
   -1.7190   14.7700   -0.4520 C   0  0  0  0  0  0  0  0  0  0  0  0
   -1.6590   14.5970    1.8140 N   0  0  0  0  0  0  0  0  0  0  0  0
   -2.2010   14.8990   -1.7070 N   0  0  0  0  0  0  0  0  0  0  0  0
   -0.4270   14.6360   -0.0030 N   0  0  0  0  0  0  0  0  0  0  0  0
   -0.4510   14.5320    1.3470 C   0  0  0  0  0  0  0  0  0  0  0  0
    0.7830   14.6070   -0.7700 C   0  0  0  0  0  0  0  0  0  0  0  0
    0.4560   14.7980   -2.1530 N   0  0  0  0  0  0  0  0  0  0  0  0
    0.4960   13.6980   -2.7490 C   0  0  0  0  0  0  0  0  0  0  0  0
    0.1490   13.4910   -4.1960 C   0  0  2  0  0  0  0  0  0  0  0  0
    0.8430   12.5270   -2.1820 N   0  0  0  0  0  0  0  0  0  0  0  0
   -1.0990   14.3130   -4.5220 C   0  0  0  0  0  0  0  0  0  0  0  0
   -0.1050   12.0570   -4.1160 N   0  0  0  0  0  0  0  0  0  0  0  0
    0.2860   11.5230   -2.8780 C   0  0  0  0  0  0  0  0  0  0  0  0
    0.1850   10.3820   -2.4310 O   0  0  0  0  0  0  0  0  0  0  0  0
   -0.5200   11.2930   -5.2110 C   0  0  0  0  0  0  0  0  0  0  0  0
    0.0280   11.5050   -6.4800 C   0  0  0  0  0  0  0  0  0  0  0  0
   -1.4920   10.2990   -5.0570 C   0  0  0  0  0  0  0  0  0  0  0  0
   -0.3830   10.7420   -7.5700 C   0  0  0  0  0  0  0  0  0  0  0  0
   -1.9050    9.5330   -6.1430 C   0  0  0  0  0  0  0  0  0  0  0  0
   -1.3510    9.7550   -7.3930 C   0  0  0  0  0  0  0  0  0  0  0  0
   -1.8620    8.8090   -8.7300 Cl  0  0  0  0  0  0  0  0  0  0  0  0
  1  2  1  0
  2  3  1  0
  1  4  1  0
  4  5  1  0
  4  6  2  0
  6  7  1  0
  5  8  1  0
  7  8  2  0
  3  9  2  0
  3 10  1  0
  9 11  1  0
 10 12  2  0
 10 13  1  0
 11 14  2  0
 12 14  1  0
 12 15  1  0
 13 16  2  0
 15 16  1  0
 15 17  1  0
 17 18  1  0
 18 19  2  3
 19 20  1  0
 19 21  1  0
 20 22  1  1
 20 23  1  0
 21 24  1  0
 23 24  1  0
 24 25  2  0
 23 26  1  0
 26 27  2  0
 26 28  1  0
 27 29  1  0
 28 30  2  0
 29 31  2  0
 30 31  1  0
 31 32  1  0
M  END
