mac-x0326-mac-x0178
     RDKit          3D

 19 20  0  0  0  0  0  0  0  0999 V2000
   -6.1780   14.7430   -1.4870 Cl  0  0  0  0  0  0  0  0  0  0  0  0
   -4.5440   15.4390   -1.5480 C   0  0  2  0  0  0  0  0  0  0  0  0
   -3.8110   15.0780   -2.8630 C   0  0  0  0  0  0  0  0  0  0  0  0
   -3.7550   15.1200   -0.3040 C   0  0  0  0  0  0  0  0  0  0  0  0
   -2.3980   15.6220   -2.7340 C   0  0  2  0  0  0  0  0  0  0  0  0
   -2.4510   14.7980   -0.3490 C   0  0  0  0  0  0  0  0  0  0  0  0
   -1.5000   15.6580   -3.9600 N   0  0  0  0  0  0  0  0  0  0  0  0
   -1.7410   14.7380   -1.6690 C   0  0  2  0  0  0  0  0  0  0  0  0
   -1.8080   16.8900   -5.1230 S   0  0  0  0  0  0  0  0  0  0  0  0
   -0.0630   15.6340   -3.4750 C   0  0  1  0  0  0  0  0  0  0  0  0
   -0.0520   15.2810   -1.6640 S   0  0  0  0  0  0  0  0  0  0  0  0
    0.8030   14.6050   -4.2440 C   0  0  0  0  0  0  0  0  0  0  0  0
   -0.2970   17.1750   -5.7560 N   0  0  0  0  0  0  0  0  0  0  0  0
   -2.6530   16.4030   -6.1820 O   0  0  0  0  0  0  0  0  0  0  0  0
   -2.1050   18.1480   -4.5070 O   0  0  0  0  0  0  0  0  0  0  0  0
    0.2680   13.1650   -4.2570 C   0  0  0  0  0  0  0  0  0  0  0  0
    0.9340   12.2810   -3.2250 C   0  0  0  0  0  0  0  0  0  0  0  0
    0.3370   11.0730   -3.1270 O   0  0  0  0  0  0  0  0  0  0  0  0
    1.8910   12.5840   -2.5380 O   0  0  0  0  0  0  0  0  0  0  0  0
  2  1  1  1
  2  3  1  0
  2  4  1  0
  5  3  1  6
  4  6  2  0
  5  7  1  0
  5  8  1  0
  8  6  1  1
  7  9  1  0
  7 10  1  0
  8 11  1  0
 10 11  1  0
 10 12  1  6
  9 13  1  0
  9 14  2  0
  9 15  2  0
 12 16  1  0
 16 17  1  0
 17 18  1  0
 17 19  2  0
M  END
