mac-x0555-diamond-x0253_0_A
     RDKit          3D

 28 30  0  0  0  0  0  0  0  0999 V2000
   -7.4250   14.3340    2.8760 N   0  0  0  0  0  0  0  0  0  0  0  0
   -6.9070   14.5330    1.5920 C   0  0  0  0  0  0  0  0  0  0  0  0
   -7.7180   14.8120    0.5000 C   0  0  0  0  0  0  0  0  0  0  0  0
   -5.5350   14.4610    1.3510 C   0  0  0  0  0  0  0  0  0  0  0  0
   -5.0220   14.6630    0.0590 C   0  0  0  0  0  0  0  0  0  0  0  0
   -7.2680   15.0210   -0.7570 N   0  0  0  0  0  0  0  0  0  0  0  0
   -5.9430   14.9480   -0.9690 C   0  0  0  0  0  0  0  0  0  0  0  0
   -3.6390   14.5780   -0.2230 C   0  0  0  0  0  0  0  0  0  0  0  0
   -5.4540   15.1540   -2.2440 C   0  0  0  0  0  0  0  0  0  0  0  0
   -3.1680   14.7690   -1.5350 C   0  0  0  0  0  0  0  0  0  0  0  0
   -1.7030   14.6380   -1.9070 C   0  0  0  0  0  0  0  0  0  0  0  0
   -4.0920   15.0690   -2.5370 C   0  0  0  0  0  0  0  0  0  0  0  0
   -0.6790   14.4630   -0.7810 C   0  0  0  0  0  0  0  0  0  0  0  0
    0.6150   13.8590   -1.3300 C   0  0  0  0  0  0  0  0  0  0  0  0
    0.4230   12.4210   -1.5380 N   0  0  0  0  0  0  0  0  0  0  0  0
    0.6050   11.8790   -2.6970 C   0  0  0  0  0  0  0  0  0  0  0  0
    0.3780   10.5410   -2.6900 O   0  0  0  0  0  0  0  0  0  0  0  0
    1.0270   12.4700   -4.0580 C   0  0  0  0  0  0  0  0  0  0  0  0
    0.3830   11.8080   -5.2030 N   0  0  0  0  0  0  0  0  0  0  0  0
    1.0660   11.6760   -6.4070 C   0  0  0  0  0  0  0  0  0  0  0  0
    2.1290   12.2390   -6.5920 O   0  0  0  0  0  0  0  0  0  0  0  0
    0.4710   10.7780   -7.4610 C   0  0  0  0  0  0  0  0  0  0  0  0
   -0.5080    9.8640   -7.0620 C   0  0  0  0  0  0  0  0  0  0  0  0
    0.8510   10.8090   -8.8170 C   0  0  0  0  0  0  0  0  0  0  0  0
   -1.1050    8.9960   -7.9880 C   0  0  0  0  0  0  0  0  0  0  0  0
    0.2620    9.9490   -9.7420 C   0  0  0  0  0  0  0  0  0  0  0  0
   -2.1560    8.0220   -7.5470 C   0  0  0  0  0  0  0  0  0  0  0  0
   -0.7100    9.0480   -9.3310 C   0  0  0  0  0  0  0  0  0  0  0  0
  1  2  1  0
  2  3  2  0
  2  4  1  0
  4  5  2  0
  3  6  1  0
  5  7  1  0
  6  7  2  0
  5  8  1  0
  7  9  1  0
  8 10  2  0
 10 11  1  0
  9 12  2  0
 10 12  1  0
 11 13  1  0
 13 14  1  0
 14 15  1  0
 15 16  2  3
 16 17  1  0
 16 18  1  0
 18 19  1  0
 19 20  1  0
 20 21  2  0
 20 22  1  0
 22 23  2  0
 22 24  1  0
 23 25  1  0
 24 26  2  0
 25 27  1  0
 25 28  2  0
 26 28  1  0
M  END
