mac-x0204-mac-x0392
     RDKit          3D

 18 19  0  0  0  0  0  0  0  0999 V2000
    1.0050   13.1730   -3.2240 O   0  0  0  0  0  0  0  0  0  0  0  0
   -0.3120   13.4490   -2.7950 C   0  0  1  0  0  0  0  0  0  0  0  0
   -0.5080   14.7110   -2.0130 C   0  0  0  0  0  0  0  0  0  0  0  0
   -1.2560   13.6260   -3.9350 C   0  0  0  0  0  0  0  0  0  0  0  0
    0.1170   15.7100   -2.2670 O   0  0  0  0  0  0  0  0  0  0  0  0
   -1.5870   14.9100   -4.4100 C   0  0  0  0  0  0  0  0  0  0  0  0
   -1.8390   12.5370   -4.5430 C   0  0  0  0  0  0  0  0  0  0  0  0
   -1.5670   14.7330   -0.9650 C   0  0  0  0  0  0  0  0  0  0  0  0
   -2.4840   15.0330   -5.4560 C   0  0  0  0  0  0  0  0  0  0  0  0
   -2.7140   12.6290   -5.5670 N   0  0  0  0  0  0  0  0  0  0  0  0
   -1.2360   14.3960    0.3450 C   0  0  0  0  0  0  0  0  0  0  0  0
   -2.8850   15.0950   -1.2950 C   0  0  0  0  0  0  0  0  0  0  0  0
   -2.8040   16.2800   -5.9100 O   0  0  0  0  0  0  0  0  0  0  0  0
    0.0530   14.0170    0.7300 N   0  0  0  0  0  0  0  0  0  0  0  0
   -3.0180   13.8750   -5.9980 C   0  0  0  0  0  0  0  0  0  0  0  0
   -3.8270   15.1130   -0.2870 C   0  0  0  0  0  0  0  0  0  0  0  0
   -2.2710   14.4500    1.2640 C   0  0  0  0  0  0  0  0  0  0  0  0
   -3.5430   14.8000    0.9850 N   0  0  0  0  0  0  0  0  0  0  0  0
  2  1  1  6
  2  3  1  0
  2  4  1  0
  3  5  2  0
  4  6  2  0
  4  7  1  0
  3  8  1  0
  6  9  1  0
  7 10  2  0
  8 11  2  0
  8 12  1  0
  9 13  1  0
 11 14  1  0
  9 15  2  0
 10 15  1  0
 12 16  2  0
 11 17  1  0
 16 18  1  0
 17 18  2  0
M  END
