mac-x0341-diamond-x0766_0_A
     RDKit          3D

 19 21  0  0  0  0  0  0  0  0999 V2000
   -6.4630   14.7130    1.9550 N   0  0  0  0  0  0  0  0  0  0  0  0
   -5.6840   14.8360    0.8420 C   0  0  0  0  0  0  0  0  0  0  0  0
   -4.3360   14.8230    1.0460 N   0  0  0  0  0  0  0  0  0  0  0  0
   -6.2360   14.9490   -0.3160 N   0  0  0  0  0  0  0  0  0  0  0  0
   -5.4950   15.0680   -1.4780 C   0  0  0  0  0  0  0  0  0  0  0  0
   -3.5320   14.8680    0.0250 C   0  0  0  0  0  0  0  0  0  0  0  0
   -6.0320   15.2380   -2.5590 O   0  0  0  0  0  0  0  0  0  0  0  0
   -3.9990   14.9490   -1.3510 C   0  0  0  0  0  0  0  0  0  0  0  0
   -2.0640   14.8270    0.2210 C   0  0  0  0  0  0  0  0  0  0  0  0
   -1.1890   14.7690   -0.8190 C   0  0  0  0  0  0  0  0  0  0  0  0
   -3.1020   14.9040   -2.4160 C   0  0  0  0  0  0  0  0  0  0  0  0
   -1.5380   14.7500   -2.3270 C   0  0  2  0  0  0  0  0  0  0  0  0
   -0.8930   13.4810   -3.1010 C   0  0  2  0  0  0  0  0  0  0  0  0
   -0.7180   15.9210   -2.9950 C   0  0  0  0  0  0  0  0  0  0  0  0
    0.0490   12.5910   -2.3160 C   0  0  0  0  0  0  0  0  0  0  0  0
   -0.0130   14.0040   -4.2670 C   0  0  0  0  0  0  0  0  0  0  0  0
    0.4940   15.3340   -3.7610 C   0  0  0  0  0  0  0  0  0  0  0  0
    1.0230   12.9430   -1.6810 O   0  0  0  0  0  0  0  0  0  0  0  0
   -0.2720   11.2810   -2.3900 O   0  0  0  0  0  0  0  0  0  0  0  0
  1  2  1  0
  2  3  1  0
  2  4  2  0
  4  5  1  0
  3  6  2  0
  5  7  2  0
  5  8  1  0
  6  8  1  0
  6  9  1  0
  9 10  2  0
  8 11  2  0
 12 10  1  1
 11 12  1  0
 12 13  1  0
 12 14  1  0
 13 15  1  1
 13 16  1  0
 14 17  1  0
 16 17  1  0
 15 18  2  0
 15 19  1  0
M  END
