mac-x0328-diamond-x1015_0_A
     RDKit          3D

 23 26  0  0  0  0  0  0  0  0999 V2000
   -1.7120   14.2250   -3.6970 O   0  0  0  0  0  0  0  0  0  0  0  0
   -1.8510   14.5050   -2.3720 C   0  0  0  0  0  0  0  0  0  0  0  0
   -0.8060   14.5050   -1.6090 N   0  0  0  0  0  0  0  0  0  0  0  0
   -0.3710   13.7450   -3.8320 C   0  0  2  0  0  0  0  0  0  0  0  0
   -3.2320   14.7690   -1.9040 C   0  0  0  0  0  0  0  0  0  0  0  0
   -0.3040   12.2880   -3.8540 N   0  0  0  0  0  0  0  0  0  0  0  0
    0.2800   14.1420   -2.5120 C   0  0  2  0  0  0  0  0  0  0  0  0
   -3.5180   14.8420   -0.5310 C   0  0  0  0  0  0  0  0  0  0  0  0
   -4.2720   14.9390   -2.8290 C   0  0  0  0  0  0  0  0  0  0  0  0
    0.3040   11.8310   -2.6670 C   0  0  0  0  0  0  0  0  0  0  0  0
    0.8770   12.9340   -2.0520 N   0  0  0  0  0  0  0  0  0  0  0  0
   -0.6050   11.4960   -4.9920 C   0  0  0  0  0  0  0  0  0  0  0  0
    0.3630   10.6950   -2.1870 O   0  0  0  0  0  0  0  0  0  0  0  0
   -4.8210   15.0730   -0.0910 C   0  0  0  0  0  0  0  0  0  0  0  0
   -5.5770   15.1700   -2.3830 C   0  0  0  0  0  0  0  0  0  0  0  0
    0.0060   11.7010   -6.2390 C   0  0  0  0  0  0  0  0  0  0  0  0
   -1.5460   10.4580   -4.8870 C   0  0  0  0  0  0  0  0  0  0  0  0
   -5.8440   15.2330   -1.0240 C   0  0  0  0  0  0  0  0  0  0  0  0
   -0.3140   10.8980   -7.3420 C   0  0  0  0  0  0  0  0  0  0  0  0
   -1.8680    9.6550   -5.9830 C   0  0  0  0  0  0  0  0  0  0  0  0
   -7.1050   15.4480   -0.5650 O   0  0  0  0  0  0  0  0  0  0  0  0
   -1.2530    9.8770   -7.2080 C   0  0  0  0  0  0  0  0  0  0  0  0
   -1.6570    8.8860   -8.5540 Cl  0  0  0  0  0  0  0  0  0  0  0  0
  1  2  1  0
  2  3  2  0
  4  1  1  1
  2  5  1  0
  4  6  1  0
  7  3  1  1
  4  7  1  0
  5  8  2  0
  5  9  1  0
  6 10  1  0
  7 11  1  0
 10 11  1  0
  6 12  1  0
 10 13  2  0
  8 14  1  0
  9 15  2  0
 12 16  2  0
 12 17  1  0
 14 18  2  0
 15 18  1  0
 16 19  1  0
 17 20  2  0
 18 21  1  0
 19 22  2  0
 20 22  1  0
 22 23  1  0
M  END
