mac-x0357-mac-x0180
     RDKit          3D

 22 23  0  0  0  0  0  0  0  0999 V2000
    2.3320   13.1750   -4.5150 C   0  0  0  0  0  0  0  0  0  0  0  0
    1.0140   12.5040   -4.8300 C   0  0  0  0  0  0  0  0  0  0  0  0
    0.8740   11.8520   -6.0630 C   0  0  0  0  0  0  0  0  0  0  0  0
   -0.0920   12.5000   -3.9430 C   0  0  0  0  0  0  0  0  0  0  0  0
    1.9260   11.8530   -6.9080 O   0  0  0  0  0  0  0  0  0  0  0  0
   -0.0840   13.1760   -2.5790 C   0  0  2  0  0  0  0  0  0  0  0  0
   -1.2700   11.8370   -4.3440 C   0  0  0  0  0  0  0  0  0  0  0  0
   -0.2940   11.2040   -6.4420 C   0  0  0  0  0  0  0  0  0  0  0  0
   -0.8860   14.4910   -2.5880 C   0  0  0  0  0  0  0  0  0  0  0  0
    1.2120   13.3620   -2.0120 O   0  0  0  0  0  0  0  0  0  0  0  0
   -1.3720   11.1960   -5.5770 C   0  0  0  0  0  0  0  0  0  0  0  0
   -0.6040   15.4030   -3.3730 O   0  0  0  0  0  0  0  0  0  0  0  0
   -2.0560   14.6420   -1.6740 C   0  0  0  0  0  0  0  0  0  0  0  0
   -1.9480   14.5060   -0.2870 C   0  0  0  0  0  0  0  0  0  0  0  0
   -3.3090   14.9180   -2.2390 C   0  0  0  0  0  0  0  0  0  0  0  0
   -3.0850   14.6250    0.5240 C   0  0  0  0  0  0  0  0  0  0  0  0
   -4.4420   15.0380   -1.4230 C   0  0  0  0  0  0  0  0  0  0  0  0
   -4.3370   14.8820   -0.0380 C   0  0  0  0  0  0  0  0  0  0  0  0
   -5.4400   14.9580    0.8420 N   0  0  0  0  0  0  0  0  0  0  0  0
   -6.7440   14.7590    0.4130 C   0  0  0  0  0  0  0  0  0  0  0  0
   -7.7030   14.4950    1.5470 C   0  0  0  0  0  0  0  0  0  0  0  0
   -7.1460   14.7830   -0.7450 O   0  0  0  0  0  0  0  0  0  0  0  0
  1  2  1  0
  2  3  2  0
  2  4  1  0
  3  5  1  0
  4  6  1  0
  4  7  2  0
  3  8  1  0
  6  9  1  0
  6 10  1  6
  7 11  1  0
  8 11  2  0
  9 12  2  0
  9 13  1  0
 13 14  2  0
 13 15  1  0
 14 16  1  0
 15 17  2  0
 16 18  2  0
 17 18  1  0
 18 19  1  0
 19 20  1  0
 20 21  1  0
 20 22  2  0
M  END
