mac-x0305-mac-x0371
     RDKit          3D

 21 22  0  0  0  0  0  0  0  0999 V2000
   -0.4030   12.4720   -1.3190 O   0  0  0  0  0  0  0  0  0  0  0  0
   -0.3930   13.8440   -1.4480 C   0  0  0  0  0  0  0  0  0  0  0  0
    0.4850   14.5240   -1.9410 O   0  0  0  0  0  0  0  0  0  0  0  0
   -0.0750   11.5800   -2.3550 C   0  0  0  0  0  0  0  0  0  0  0  0
    0.2980   10.4160   -2.2060 O   0  0  0  0  0  0  0  0  0  0  0  0
   -0.2660   12.1480   -3.7730 C   0  0  0  0  0  0  0  0  0  0  0  0
   -1.6910   14.4250   -0.8950 C   0  0  0  0  0  0  0  0  0  0  0  0
   -1.9590   14.7150    0.4760 C   0  0  0  0  0  0  0  0  0  0  0  0
   -2.6320   14.6710   -1.8620 N   0  0  0  0  0  0  0  0  0  0  0  0
    0.1830   13.5730   -4.0290 C   0  0  0  0  0  0  0  0  0  0  0  0
   -1.0860   14.5120    1.5220 O   0  0  0  0  0  0  0  0  0  0  0  0
   -3.2130   15.2560    0.7950 C   0  0  0  0  0  0  0  0  0  0  0  0
   -3.8190   15.1950   -1.5040 C   0  0  0  0  0  0  0  0  0  0  0  0
   -0.7650   14.5920   -4.2680 C   0  0  0  0  0  0  0  0  0  0  0  0
    1.5380   13.9370   -4.0420 C   0  0  0  0  0  0  0  0  0  0  0  0
    2.8430   12.8310   -3.7900 Cl  0  0  0  0  0  0  0  0  0  0  0  0
   -2.4670   14.2750   -4.2950 Cl  0  0  0  0  0  0  0  0  0  0  0  0
   -4.1490   15.4980   -0.2060 C   0  0  0  0  0  0  0  0  0  0  0  0
   -0.3730   15.9180   -4.4980 C   0  0  0  0  0  0  0  0  0  0  0  0
    1.9040   15.2500   -4.2680 C   0  0  0  0  0  0  0  0  0  0  0  0
    0.9700   16.2470   -4.4940 C   0  0  0  0  0  0  0  0  0  0  0  0
  1  2  1  0
  2  3  2  0
  1  4  1  0
  4  5  2  0
  4  6  1  0
  2  7  1  0
  7  8  2  0
  7  9  1  0
  6 10  1  0
  8 11  1  0
  8 12  1  0
  9 13  2  0
 10 14  2  0
 10 15  1  0
 15 16  1  0
 14 17  1  0
 12 18  2  0
 13 18  1  0
 14 19  1  0
 15 20  2  0
 19 21  2  0
 20 21  1  0
M  END
