mac-x0301-mac-x0555
     RDKit          3D

 21 24  0  0  0  0  0  0  0  0999 V2000
    1.1030   14.8530   -2.7170 O   0  0  0  0  0  0  0  0  0  0  0  0
   -0.1600   14.7460   -3.1440 C   0  0  0  0  0  0  0  0  0  0  0  0
   -0.4500   14.6150   -4.3250 O   0  0  0  0  0  0  0  0  0  0  0  0
   -1.2140   14.7650   -2.1110 C   0  0  0  0  0  0  0  0  0  0  0  0
   -1.0930   14.6600   -0.7400 C   0  0  0  0  0  0  0  0  0  0  0  0
   -2.4520   14.9010   -2.6180 C   0  0  0  0  0  0  0  0  0  0  0  0
   -2.2140   14.6690    0.1250 C   0  0  0  0  0  0  0  0  0  0  0  0
   -3.5700   14.9080   -1.8400 C   0  0  0  0  0  0  0  0  0  0  0  0
    0.0930   14.5300   -0.1020 O   0  0  0  0  0  0  0  0  0  0  0  0
   -3.5780   14.7760   -0.4140 C   0  0  0  0  0  0  0  0  0  0  0  0
   -1.7480   14.5510    1.4410 O   0  0  0  0  0  0  0  0  0  0  0  0
   -0.3410   14.2770    1.2390 C   0  0  0  0  0  0  0  0  0  0  0  0
   -4.6840   15.0420   -2.6120 C   0  0  0  0  0  0  0  0  0  0  0  0
   -4.9530   14.7660    0.1660 C   0  0  0  0  0  0  0  0  0  0  0  0
   -5.9090   15.0390   -2.0630 C   0  0  0  0  0  0  0  0  0  0  0  0
   -5.3760   14.6290    1.5270 C   0  0  0  0  0  0  0  0  0  0  0  0
   -6.0750   14.8960   -0.7290 C   0  0  0  0  0  0  0  0  0  0  0  0
   -6.7470   14.6150    1.8910 C   0  0  0  0  0  0  0  0  0  0  0  0
   -7.3590   14.8880   -0.3940 N   0  0  0  0  0  0  0  0  0  0  0  0
   -7.2000   14.4810    3.2030 N   0  0  0  0  0  0  0  0  0  0  0  0
   -7.6720   14.7450    0.8830 C   0  0  0  0  0  0  0  0  0  0  0  0
  1  2  1  0
  2  3  2  0
  2  4  1  0
  4  5  2  0
  4  6  1  0
  5  7  1  0
  6  8  2  0
  5  9  1  0
  7 10  2  0
  8 10  1  0
  7 11  1  0
  9 12  1  0
 11 12  1  0
  8 13  1  0
 10 14  1  0
 13 15  2  0
 14 16  2  0
 14 17  1  0
 15 17  1  0
 16 18  1  0
 17 19  2  0
 18 20  1  0
 18 21  2  0
 19 21  1  0
M  END
