mac-x0496-mac-x0277
     RDKit          3D

 32 34  0  0  0  0  0  0  0  0999 V2000
   -9.6320   17.6570    4.6660 C   0  0  0  0  0  0  0  0  0  0  0  0
   -9.6480   16.7260    3.5110 C   0  0  0  0  0  0  0  0  0  0  0  0
  -10.3570   16.9160    2.3840 N   0  0  0  0  0  0  0  0  0  0  0  0
   -8.9170   15.5820    3.5190 N   0  0  0  0  0  0  0  0  0  0  0  0
  -10.0670   15.8070    1.6050 O   0  0  0  0  0  0  0  0  0  0  0  0
   -9.2030   15.0660    2.3400 C   0  0  0  0  0  0  0  0  0  0  0  0
   -8.7100   13.8190    1.7270 C   0  0  0  0  0  0  0  0  0  0  0  0
   -7.3240   14.0280    1.3680 N   0  0  0  0  0  0  0  0  0  0  0  0
   -6.8070   14.6100    0.2490 C   0  0  0  0  0  0  0  0  0  0  0  0
   -7.5310   15.0080   -0.6560 O   0  0  0  0  0  0  0  0  0  0  0  0
   -5.3440   14.7470    0.1190 C   0  0  0  0  0  0  0  0  0  0  0  0
   -4.6380   14.9630    1.3010 C   0  0  0  0  0  0  0  0  0  0  0  0
   -4.6830   14.6600   -1.1020 C   0  0  0  0  0  0  0  0  0  0  0  0
   -3.2580   15.0780    1.2870 C   0  0  0  0  0  0  0  0  0  0  0  0
   -3.2920   14.7810   -1.1170 C   0  0  0  0  0  0  0  0  0  0  0  0
   -2.5030   14.6960   -2.3640 C   0  0  0  0  0  0  0  0  0  0  0  0
   -2.5840   14.9850    0.0800 C   0  0  0  0  0  0  0  0  0  0  0  0
   -1.3180   14.9560   -2.4160 O   0  0  0  0  0  0  0  0  0  0  0  0
   -3.2650   14.2980   -3.4030 O   0  0  0  0  0  0  0  0  0  0  0  0
   -3.7110   15.3630   -4.2280 C   0  0  0  0  0  0  0  0  0  0  0  0
   -2.8100   15.6310   -5.4350 C   0  0  0  0  0  0  0  0  0  0  0  0
   -1.3350   15.6580   -5.0850 C   0  0  0  0  0  0  0  0  0  0  0  0
   -0.6880   14.4330   -4.8420 C   0  0  0  0  0  0  0  0  0  0  0  0
   -0.5860   16.8410   -4.9970 C   0  0  0  0  0  0  0  0  0  0  0  0
   -1.2820   18.3990   -5.2890 Cl  0  0  0  0  0  0  0  0  0  0  0  0
    0.6750   14.3630   -4.5140 C   0  0  0  0  0  0  0  0  0  0  0  0
    0.7720   16.7890   -4.6670 C   0  0  0  0  0  0  0  0  0  0  0  0
    1.3430   13.0280   -4.2630 C   0  0  0  0  0  0  0  0  0  0  0  0
    1.3970   15.5600   -4.4270 C   0  0  0  0  0  0  0  0  0  0  0  0
    1.0280   12.4050   -2.9120 C   0  0  0  0  0  0  0  0  0  0  0  0
    0.4370   11.1890   -3.0040 O   0  0  0  0  0  0  0  0  0  0  0  0
    1.2630   12.9020   -1.8280 O   0  0  0  0  0  0  0  0  0  0  0  0
  1  2  1  0
  2  3  2  0
  2  4  1  0
  3  5  1  0
  4  6  2  0
  5  6  1  0
  6  7  1  0
  7  8  1  0
  8  9  1  0
  9 10  2  0
  9 11  1  0
 11 12  2  0
 11 13  1  0
 12 14  1  0
 13 15  2  0
 15 16  1  0
 14 17  2  0
 15 17  1  0
 16 18  2  0
 16 19  1  0
 19 20  1  0
 20 21  1  0
 21 22  1  0
 22 23  2  0
 22 24  1  0
 24 25  1  0
 23 26  1  0
 24 27  2  0
 26 28  1  0
 26 29  2  0
 27 29  1  0
 28 30  1  0
 30 31  1  0
 30 32  2  0
M  END
