mac-x0301-diamond-x0371_0_A
     RDKit          3D

 25 28  0  0  0  0  0  0  0  0999 V2000
    0.3110   14.7770   -2.9600 O   0  0  0  0  0  0  0  0  0  0  0  0
   -1.0140   14.6980   -3.2350 C   0  0  0  0  0  0  0  0  0  0  0  0
   -1.3980   14.6060   -4.3940 O   0  0  0  0  0  0  0  0  0  0  0  0
   -1.9350   14.7150   -1.9910 C   0  0  1  0  0  0  0  0  0  0  0  0
   -1.3290   15.0350   -0.6080 C   0  0  1  0  0  0  0  0  0  0  0  0
   -3.1440   15.5870   -2.1840 C   0  0  0  0  0  0  0  0  0  0  0  0
   -2.3720   15.1210    0.5380 C   0  0  1  0  0  0  0  0  0  0  0  0
   -4.0590   15.7010   -1.2080 C   0  0  0  0  0  0  0  0  0  0  0  0
   -0.3720   14.0420   -0.1960 O   0  0  0  0  0  0  0  0  0  0  0  0
   -3.8990   14.9450    0.0830 C   0  0  2  0  0  0  0  0  0  0  0  0
   -1.7850   14.3250    1.6040 O   0  0  0  0  0  0  0  0  0  0  0  0
   -0.4020   14.2050    1.2270 C   0  0  0  0  0  0  0  0  0  0  0  0
   -5.0230   15.3480    1.0260 N   0  0  0  0  0  0  0  0  0  0  0  0
   -4.3950   13.5390   -0.2800 C   0  0  0  0  0  0  0  0  0  0  0  0
   -6.0080   14.2230    1.0380 C   0  0  2  0  0  0  0  0  0  0  0  0
   -5.8590   13.7590   -0.3180 N   0  0  0  0  0  0  0  0  0  0  0  0
   -7.4950   14.4940    1.4560 C   0  0  0  0  0  0  0  0  0  0  0  0
   -7.6190   14.6530    2.8980 N   0  0  0  0  0  0  0  0  0  0  0  0
   -8.5690   15.4680    3.4950 C   0  0  0  0  0  0  0  0  0  0  0  0
   -9.3780   16.1070    2.8190 O   0  0  0  0  0  0  0  0  0  0  0  0
   -8.5330   15.5040    4.9460 C   0  0  0  0  0  0  0  0  0  0  0  0
   -7.9880   14.4320    5.5980 O   0  0  0  0  0  0  0  0  0  0  0  0
   -8.9460   16.4310    5.8930 C   0  0  0  0  0  0  0  0  0  0  0  0
   -8.6340   15.8880    7.1640 C   0  0  0  0  0  0  0  0  0  0  0  0
   -8.0500   14.6690    6.9270 C   0  0  0  0  0  0  0  0  0  0  0  0
  1  2  1  0
  2  3  2  0
  4  2  1  6
  4  5  1  0
  4  6  1  0
  5  7  1  0
  6  8  2  0
  5  9  1  1
  7 10  1  0
 10  8  1  6
  7 11  1  1
  9 12  1  0
 11 12  1  0
 10 13  1  0
 10 14  1  0
 13 15  1  0
 14 16  1  0
 15 16  1  0
 15 17  1  6
 17 18  1  0
 18 19  1  0
 19 20  2  0
 19 21  1  0
 21 22  1  0
 21 23  2  0
 23 24  1  0
 22 25  1  0
 24 25  2  0
M  END
