mac-x0360-mac-x0213
     RDKit          3D

 26 28  0  0  0  0  0  0  0  0999 V2000
   -7.6310   11.6160    1.8340 Cl  0  0  0  0  0  0  0  0  0  0  0  0
   -6.4700   11.8660    0.5880 C   0  0  0  0  0  0  0  0  0  0  0  0
   -6.3530   10.9220   -0.4310 C   0  0  0  0  0  0  0  0  0  0  0  0
   -5.6620   13.0010    0.6090 C   0  0  0  0  0  0  0  0  0  0  0  0
   -4.7240   13.1890   -0.4120 C   0  0  0  0  0  0  0  0  0  0  0  0
   -5.4130   11.1190   -1.4370 C   0  0  0  0  0  0  0  0  0  0  0  0
   -5.2550    9.9480   -2.6900 Cl  0  0  0  0  0  0  0  0  0  0  0  0
   -3.6920   14.6410   -0.4000 S   0  0  0  0  0  0  0  0  0  0  0  0
   -4.6000   12.2440   -1.4400 C   0  0  0  0  0  0  0  0  0  0  0  0
   -2.5280   14.2610   -1.5490 N   0  0  0  0  0  0  0  0  0  0  0  0
   -4.4790   15.7310   -0.9230 O   0  0  0  0  0  0  0  0  0  0  0  0
   -3.0260   14.7420    0.8770 O   0  0  0  0  0  0  0  0  0  0  0  0
   -2.2210   12.8570   -1.8650 C   0  0  0  0  0  0  0  0  0  0  0  0
   -0.7670   12.5260   -1.5360 C   0  0  0  0  0  0  0  0  0  0  0  0
    0.2360   12.9350   -2.6180 C   0  0  0  0  0  0  0  0  0  0  0  0
    0.2430   11.8920   -3.5770 O   0  0  0  0  0  0  0  0  0  0  0  0
    1.5180   12.9590   -2.0390 O   0  0  0  0  0  0  0  0  0  0  0  0
   -0.1100   14.2980   -3.2660 C   0  0  0  0  0  0  0  0  0  0  0  0
   -1.3210   14.2940   -4.2280 C   0  0  0  0  0  0  0  0  0  0  0  0
    0.9760   15.0440   -4.0780 C   0  0  0  0  0  0  0  0  0  0  0  0
   -1.2090   15.6790   -4.7610 C   0  0  0  0  0  0  0  0  0  0  0  0
    0.1170   16.1170   -4.6760 C   0  0  0  0  0  0  0  0  0  0  0  0
   -2.2070   16.4850   -5.2760 C   0  0  0  0  0  0  0  0  0  0  0  0
    0.4670   17.3820   -5.1090 C   0  0  0  0  0  0  0  0  0  0  0  0
   -1.8600   17.7590   -5.7160 C   0  0  0  0  0  0  0  0  0  0  0  0
   -0.5310   18.2040   -5.6330 C   0  0  0  0  0  0  0  0  0  0  0  0
  1  2  1  0
  2  3  2  0
  2  4  1  0
  4  5  2  0
  3  6  1  0
  6  7  1  0
  5  8  1  0
  5  9  1  0
  6  9  2  0
  8 10  1  0
  8 11  2  0
  8 12  2  0
 10 13  1  0
 13 14  1  0
 14 15  1  0
 15 16  1  0
 15 17  1  0
 15 18  1  0
 18 19  1  0
 18 20  1  0
 19 21  1  0
 20 22  1  0
 21 22  2  0
 21 23  1  0
 22 24  1  0
 23 25  2  0
 24 26  2  0
 25 26  1  0
M  END
