mac-x0441-mac-x0303
     RDKit          3D

 33 36  0  0  0  0  0  0  0  0999 V2000
    1.6200   10.9450   -3.7210 O   0  0  0  0  0  0  0  0  0  0  0  0
    1.0100   12.0910   -3.5290 C   0  0  0  0  0  0  0  0  0  0  0  0
    0.9160   12.5010   -2.3200 N   0  0  0  0  0  0  0  0  0  0  0  0
    0.4870   12.8150   -4.7580 C   0  0  0  0  0  0  0  0  0  0  0  0
    0.2610   13.7570   -2.0620 C   0  0  0  0  0  0  0  0  0  0  0  0
    0.1630   11.9240   -5.8880 N   0  0  0  0  0  0  0  0  0  0  0  0
   -1.0300   13.4820   -1.3040 C   0  0  0  0  0  0  0  0  0  0  0  0
    0.9890   11.8960   -6.9820 N   0  0  0  0  0  0  0  0  0  0  0  0
   -0.8980   11.0730   -6.0280 C   0  0  0  0  0  0  0  0  0  0  0  0
   -1.6990   14.8060   -1.0530 C   0  0  0  0  0  0  0  0  0  0  0  0
    0.4160   10.9960   -7.8370 C   0  0  0  0  0  0  0  0  0  0  0  0
   -0.7600   10.4770   -7.2610 C   0  0  0  0  0  0  0  0  0  0  0  0
   -2.0000   10.8070   -5.0660 C   0  0  0  0  0  0  0  0  0  0  0  0
    0.9000   10.5510   -9.2080 C   0  0  0  0  0  0  0  0  0  0  0  0
   -1.7140    9.4720   -7.7940 C   0  0  0  0  0  0  0  0  0  0  0  0
   -3.0590    9.8630   -5.6810 C   0  0  0  0  0  0  0  0  0  0  0  0
   -3.1980   14.8830   -0.9750 C   0  0  0  0  0  0  0  0  0  0  0  0
    1.5490    9.3570   -9.1400 F   0  0  0  0  0  0  0  0  0  0  0  0
   -0.1480   10.3290  -10.0360 F   0  0  0  0  0  0  0  0  0  0  0  0
    1.6920   11.3780   -9.9090 F   0  0  0  0  0  0  0  0  0  0  0  0
   -2.4700    8.8060   -6.6310 C   0  0  0  0  0  0  0  0  0  0  0  0
   -3.9840   15.1830   -2.1010 C   0  0  0  0  0  0  0  0  0  0  0  0
   -3.8110   14.6510    0.2570 C   0  0  0  0  0  0  0  0  0  0  0  0
   -5.1990   14.7120    0.3430 C   0  0  0  0  0  0  0  0  0  0  0  0
   -5.3850   15.2490   -2.0270 C   0  0  0  0  0  0  0  0  0  0  0  0
   -5.9540   15.0030   -0.7820 C   0  0  0  0  0  0  0  0  0  0  0  0
   -5.9930   14.5150    1.4310 N   0  0  0  0  0  0  0  0  0  0  0  0
   -7.2240   14.6720    1.0040 C   0  0  0  0  0  0  0  0  0  0  0  0
   -7.2540   14.9710   -0.3340 N   0  0  0  0  0  0  0  0  0  0  0  0
   -8.6470   14.5180    2.0330 S   0  0  0  0  0  0  0  0  0  0  0  0
   -8.5330   12.9750    2.6990 N   0  0  0  0  0  0  0  0  0  0  0  0
   -8.4470   15.4750    3.0940 O   0  0  0  0  0  0  0  0  0  0  0  0
   -9.7820   14.5590    1.1480 O   0  0  0  0  0  0  0  0  0  0  0  0
  1  2  1  0
  2  3  2  3
  2  4  1  0
  3  5  1  0
  4  6  1  0
  5  7  1  0
  6  8  1  0
  6  9  1  0
  7 10  1  0
  8 11  2  0
  9 12  2  0
 11 12  1  0
  9 13  1  0
 11 14  1  0
 12 15  1  0
 13 16  1  0
 10 17  1  0
 14 18  1  0
 14 19  1  0
 14 20  1  0
 15 21  1  0
 16 21  1  0
 17 22  2  0
 17 23  1  0
 23 24  2  0
 22 25  1  0
 24 26  1  0
 25 26  2  0
 24 27  1  0
 27 28  2  0
 26 29  1  0
 28 29  1  0
 28 30  1  0
 30 31  1  0
 30 32  2  0
 30 33  2  0
M  END
