mac-x0439-diamond-x0421_0_A
     RDKit          3D

 26 29  0  0  0  0  0  0  0  0999 V2000
   -3.0800   15.7750   -5.5390 Cl  0  0  0  0  0  0  0  0  0  0  0  0
   -1.6860   16.7750   -5.3590 C   0  0  0  0  0  0  0  0  0  0  0  0
   -0.7900   16.5790   -4.1870 C   0  0  1  0  0  0  0  0  0  0  0  0
   -1.3980   17.7380   -6.2530 C   0  0  0  0  0  0  0  0  0  0  0  0
   -0.4140   15.2960   -3.5300 C   0  0  0  0  0  0  0  0  0  0  0  0
    0.6180   17.0030   -4.5240 C   0  0  0  0  0  0  0  0  0  0  0  0
   -0.2150   18.5710   -6.1110 C   0  0  0  0  0  0  0  0  0  0  0  0
    0.9210   15.1930   -3.4670 C   0  0  0  0  0  0  0  0  0  0  0  0
    1.5560   16.2240   -4.0910 N   0  0  0  0  0  0  0  0  0  0  0  0
    0.8030   18.2500   -5.2890 C   0  0  0  0  0  0  0  0  0  0  0  0
    1.6400   14.0720   -2.7880 C   0  0  0  0  0  0  0  0  0  0  0  0
    2.9740   14.3080   -2.7780 O   0  0  0  0  0  0  0  0  0  0  0  0
    1.3000   12.9840   -2.2170 N   0  0  0  0  0  0  0  0  0  0  0  0
   -0.1060   12.5890   -2.1170 C   0  0  0  0  0  0  0  0  0  0  0  0
   -0.8920   13.6000   -1.2680 C   0  0  0  0  0  0  0  0  0  0  0  0
   -1.8410   14.3280   -2.0900 N   0  0  0  0  0  0  0  0  0  0  0  0
   -2.9280   14.8760   -1.7200 C   0  0  0  0  0  0  0  0  0  0  0  0
   -3.7120   15.5120   -2.6440 N   0  0  0  0  0  0  0  0  0  0  0  0
   -3.5090   14.9270   -0.3860 C   0  0  0  0  0  0  0  0  0  0  0  0
   -2.9230   15.1270    0.8460 C   0  0  0  0  0  0  0  0  0  0  0  0
   -4.8840   14.7370   -0.2160 N   0  0  0  0  0  0  0  0  0  0  0  0
   -3.9380   15.0580    1.7520 N   0  0  0  0  0  0  0  0  0  0  0  0
   -5.0880   14.8200    1.0740 C   0  0  0  0  0  0  0  0  0  0  0  0
   -6.4630   14.6650    1.7600 C   0  0  0  0  0  0  0  0  0  0  0  0
   -7.7240   14.6900    0.9380 C   0  0  0  0  0  0  0  0  0  0  0  0
   -7.2320   13.3980    1.5190 C   0  0  0  0  0  0  0  0  0  0  0  0
  1  2  1  0
  2  3  1  0
  2  4  2  0
  3  5  1  6
  3  6  1  0
  4  7  1  0
  5  8  2  0
  6  9  2  0
  8  9  1  0
  6 10  1  0
  7 10  2  0
  8 11  1  0
 11 12  1  0
 11 13  2  3
 13 14  1  0
 14 15  1  0
 15 16  1  0
 16 17  2  3
 17 18  1  0
 17 19  1  0
 19 20  2  0
 19 21  1  0
 20 22  1  0
 21 23  2  0
 22 23  1  0
 23 24  1  0
 24 25  1  0
 24 26  1  0
 25 26  1  0
M  END
