mac-x0357-mac-x0193
     RDKit          3D

 21 23  0  0  0  0  0  0  0  0999 V2000
    1.5780   12.6130   -5.3280 C   0  0  0  0  0  0  0  0  0  0  0  0
    1.9450   11.8970   -6.5330 N   0  0  0  0  0  0  0  0  0  0  0  0
    0.9830   11.4640   -7.3920 C   0  0  0  0  0  0  0  0  0  0  0  0
    0.2410   12.0860   -4.8930 C   0  0  0  0  0  0  0  0  0  0  0  0
   -0.3040   12.1610   -3.5960 C   0  0  0  0  0  0  0  0  0  0  0  0
   -0.5320   11.4510   -5.8750 C   0  0  0  0  0  0  0  0  0  0  0  0
   -0.1790   11.2610   -7.1460 N   0  0  0  0  0  0  0  0  0  0  0  0
    0.3510   12.7540   -2.3930 C   0  0  0  0  0  0  0  0  0  0  0  0
    1.2890   11.2460   -8.6660 N   0  0  0  0  0  0  0  0  0  0  0  0
   -1.5780   11.6140   -3.3850 C   0  0  0  0  0  0  0  0  0  0  0  0
   -1.7640   10.9300   -5.6330 C   0  0  0  0  0  0  0  0  0  0  0  0
   -0.4260   13.7260   -1.7520 O   0  0  0  0  0  0  0  0  0  0  0  0
    1.5990   13.3240   -2.6150 O   0  0  0  0  0  0  0  0  0  0  0  0
    0.5160   11.6410   -1.5660 O   0  0  0  0  0  0  0  0  0  0  0  0
   -2.3010   11.0070   -4.3920 C   0  0  0  0  0  0  0  0  0  0  0  0
    1.1780   10.0430   -9.4800 C   0  0  0  0  0  0  0  0  0  0  0  0
    1.4020    8.7050   -8.8190 C   0  0  0  0  0  0  0  0  0  0  0  0
    0.0500    9.9790  -10.4720 C   0  0  0  0  0  0  0  0  0  0  0  0
    2.0480    7.8080   -9.8630 C   0  0  0  0  0  0  0  0  0  0  0  0
    0.4270    9.0130  -11.5890 C   0  0  0  0  0  0  0  0  0  0  0  0
    1.2150    7.7480  -11.1620 C   0  0  0  0  0  0  0  0  0  0  0  0
  1  2  1  0
  2  3  1  0
  1  4  1  0
  4  5  2  0
  4  6  1  0
  3  7  2  0
  6  7  1  0
  5  8  1  0
  3  9  1  0
  5 10  1  0
  6 11  2  0
  8 12  1  0
  8 13  1  0
  8 14  1  0
 10 15  2  0
 11 15  1  0
  9 16  1  0
 16 17  1  0
 16 18  1  0
 17 19  1  0
 18 20  1  0
 19 21  1  0
 20 21  1  0
M  END
