mac-x0142-mac-x0305
     RDKit          3D

 21 24  0  0  0  0  0  0  0  0999 V2000
   -1.7960   12.8050   -2.5970 O   0  0  0  0  0  0  0  0  0  0  0  0
   -2.7040   13.8370   -2.5680 C   0  0  0  0  0  0  0  0  0  0  0  0
   -3.2160   14.2870   -3.5570 O   0  0  0  0  0  0  0  0  0  0  0  0
   -2.8240   14.2510   -1.2220 C   0  0  0  0  0  0  0  0  0  0  0  0
   -1.6290   14.6190   -0.7020 C   0  0  0  0  0  0  0  0  0  0  0  0
   -3.8120   14.3770   -0.2400 C   0  0  0  0  0  0  0  0  0  0  0  0
   -1.8120   14.9170    0.5840 C   0  0  0  0  0  0  0  0  0  0  0  0
   -0.3790   14.7130   -1.2720 C   0  0  0  0  0  0  0  0  0  0  0  0
   -3.1050   14.7930    0.8640 N   0  0  0  0  0  0  0  0  0  0  0  0
   -3.5310   15.0750    2.1250 O   0  0  0  0  0  0  0  0  0  0  0  0
   -0.1740   14.4510   -2.6270 N   0  0  0  0  0  0  0  0  0  0  0  0
    0.5990   15.0800   -0.4500 N   0  0  0  0  0  0  0  0  0  0  0  0
   -0.9050   15.2730    1.4390 N   0  0  0  0  0  0  0  0  0  0  0  0
   -1.2520   14.7620   -3.5680 C   0  0  0  0  0  0  0  0  0  0  0  0
    1.1120   14.7240   -3.2340 C   0  0  0  0  0  0  0  0  0  0  0  0
    0.2870   15.3290    0.8290 C   0  0  0  0  0  0  0  0  0  0  0  0
    1.2510   13.6480   -4.2750 C   0  0  0  0  0  0  0  0  0  0  0  0
   -1.2110   13.7900   -4.7570 C   0  0  0  0  0  0  0  0  0  0  0  0
    2.5790   12.9840   -4.5380 C   0  0  0  0  0  0  0  0  0  0  0  0
    1.5490   12.2940   -3.6980 C   0  0  0  0  0  0  0  0  0  0  0  0
    0.1990   13.6840   -5.3550 C   0  0  0  0  0  0  0  0  0  0  0  0
  1  2  1  0
  2  3  2  0
  2  4  1  0
  4  5  1  0
  4  6  2  0
  5  7  2  0
  5  8  1  0
  6  9  1  0
  7  9  1  0
  9 10  1  0
  8 11  1  0
  8 12  2  0
  7 13  1  0
 11 14  1  0
 11 15  1  0
 12 16  1  0
 13 16  2  0
 17 15  1  0
 14 18  1  0
 17 19  1  0
 17 20  1  0
 19 20  1  0
 17 21  1  0
 18 21  1  0
M  END
