mac-x0439-diamond-x0253_0_A
     RDKit          3D

 26 28  0  0  0  0  0  0  0  0999 V2000
   -3.0940   15.8810   -5.2800 Cl  0  0  0  0  0  0  0  0  0  0  0  0
   -1.6690   16.8340   -5.4240 C   0  0  0  0  0  0  0  0  0  0  0  0
   -0.3650   16.1600   -5.2630 C   0  0  2  0  0  0  0  0  0  0  0  0
   -1.6780   18.1370   -5.6990 C   0  0  0  0  0  0  0  0  0  0  0  0
   -0.1170   15.0030   -4.4360 C   0  0  0  0  0  0  0  0  0  0  0  0
    0.6850   17.0490   -4.7240 C   0  0  0  0  0  0  0  0  0  0  0  0
   -0.4210   18.8560   -5.8110 C   0  0  0  0  0  0  0  0  0  0  0  0
    0.9330   15.2620   -3.6770 C   0  0  0  0  0  0  0  0  0  0  0  0
    1.4280   16.5230   -3.8120 N   0  0  0  0  0  0  0  0  0  0  0  0
    0.7570   18.3770   -5.3390 C   0  0  0  0  0  0  0  0  0  0  0  0
    1.4100   14.1460   -2.8860 C   0  0  0  0  0  0  0  0  0  0  0  0
    2.6080   14.2440   -2.2100 O   0  0  0  0  0  0  0  0  0  0  0  0
    0.5610   13.1980   -3.0790 N   0  0  0  0  0  0  0  0  0  0  0  0
    0.3880   11.7960   -2.7610 C   0  0  2  0  0  0  0  0  0  0  0  0
    0.8100   11.2240   -1.5580 O   0  0  0  0  0  0  0  0  0  0  0  0
    1.1030   11.1510   -3.9620 C   0  0  0  0  0  0  0  0  0  0  0  0
    0.4990   11.5390   -5.2340 N   0  0  0  0  0  0  0  0  0  0  0  0
    1.1910   11.4170   -6.4130 C   0  0  0  0  0  0  0  0  0  0  0  0
    2.2840   11.9230   -6.5660 O   0  0  0  0  0  0  0  0  0  0  0  0
    0.5190   10.6020   -7.4790 C   0  0  0  0  0  0  0  0  0  0  0  0
   -0.4700    9.6790   -7.1300 C   0  0  0  0  0  0  0  0  0  0  0  0
    0.8620   10.7480   -8.8300 C   0  0  0  0  0  0  0  0  0  0  0  0
   -1.1090    8.9120   -8.1130 C   0  0  0  0  0  0  0  0  0  0  0  0
    0.2310    9.9860   -9.8140 C   0  0  0  0  0  0  0  0  0  0  0  0
   -2.1680    7.9290   -7.7150 C   0  0  0  0  0  0  0  0  0  0  0  0
   -0.7510    9.0720   -9.4540 C   0  0  0  0  0  0  0  0  0  0  0  0
  1  2  1  0
  2  3  1  0
  2  4  2  0
  3  5  1  1
  3  6  1  0
  4  7  1  0
  5  8  2  0
  6  9  2  0
  8  9  1  0
  6 10  1  0
  7 10  2  0
  8 11  1  0
 11 12  1  0
 11 13  2  3
 13 14  1  0
 14 15  1  1
 14 16  1  0
 16 17  1  0
 17 18  1  0
 18 19  2  0
 18 20  1  0
 20 21  2  0
 20 22  1  0
 21 23  1  0
 22 24  2  0
 23 25  1  0
 23 26  2  0
 24 26  1  0
M  END
