mac-x0223-diamond-x0962_3_A
     RDKit          3D

 23 24  0  0  0  0  0  0  0  0999 V2000
    1.1480   18.2480   -5.7400 C   0  0  0  0  0  0  0  0  0  0  0  0
    0.1900   18.1290   -4.7120 O   0  0  0  0  0  0  0  0  0  0  0  0
   -0.4170   16.9160   -4.5590 C   0  0  0  0  0  0  0  0  0  0  0  0
   -1.7900   16.9290   -4.7360 C   0  0  0  0  0  0  0  0  0  0  0  0
    0.1960   15.7090   -4.2430 C   0  0  0  0  0  0  0  0  0  0  0  0
   -2.3640   18.1200   -5.0230 O   0  0  0  0  0  0  0  0  0  0  0  0
   -2.5650   15.7800   -4.6120 C   0  0  0  0  0  0  0  0  0  0  0  0
   -0.5730   14.5270   -4.1040 C   0  0  0  0  0  0  0  0  0  0  0  0
    0.1340   13.2360   -3.7670 C   0  0  2  0  0  0  0  0  0  0  0  0
   -1.9520   14.5790   -4.2950 C   0  0  0  0  0  0  0  0  0  0  0  0
    0.0640   12.6460   -2.3900 C   0  0  0  0  0  0  0  0  0  0  0  0
    1.5160   13.4280   -4.2360 C   0  0  0  0  0  0  0  0  0  0  0  0
   -0.4270   11.5600   -2.1390 O   0  0  0  0  0  0  0  0  0  0  0  0
    0.6160   13.3850   -1.4190 O   0  0  0  0  0  0  0  0  0  0  0  0
    1.2150   13.5510   -5.6890 C   0  0  0  0  0  0  0  0  0  0  0  0
    1.9380   12.4230   -6.2930 C   0  0  0  0  0  0  0  0  0  0  0  0
    1.1570   11.4360   -6.9310 C   0  0  0  0  0  0  0  0  0  0  0  0
    0.5250   10.5930   -7.3790 C   0  0  0  0  0  0  0  0  0  0  0  0
   -0.2910    9.5530   -7.7260 C   0  0  0  0  0  0  0  0  0  0  0  0
    0.0020    8.5030   -8.5370 N   0  0  0  0  0  0  0  0  0  0  0  0
   -1.5680    9.3760   -7.3030 C   0  0  0  0  0  0  0  0  0  0  0  0
   -1.1180    7.7280   -8.5690 C   0  0  0  0  0  0  0  0  0  0  0  0
   -2.0840    8.2330   -7.8330 N   0  0  0  0  0  0  0  0  0  0  0  0
  1  2  1  0
  2  3  1  0
  3  4  2  0
  3  5  1  0
  4  6  1  0
  4  7  1  0
  5  8  2  0
  8  9  1  0
  7 10  2  0
  8 10  1  0
  9 11  1  0
  9 12  1  1
 11 13  2  0
 11 14  1  0
 12 15  1  0
 15 16  1  0
 16 17  1  0
 17 18  3  0
 18 19  1  0
 19 20  1  0
 19 21  2  0
 20 22  1  0
 21 23  1  0
 22 23  2  0
M  END
