mac-x0555-diamond-x0855_0_A
     RDKit          3D

 24 26  0  0  0  0  0  0  0  0999 V2000
   -7.2580   14.4770    2.7820 N   0  0  0  0  0  0  0  0  0  0  0  0
   -6.8400   14.6170    1.4590 C   0  0  0  0  0  0  0  0  0  0  0  0
   -7.6860   14.7410    0.3660 C   0  0  0  0  0  0  0  0  0  0  0  0
   -5.4790   14.6420    1.1790 C   0  0  0  0  0  0  0  0  0  0  0  0
   -5.0020   14.7680   -0.1000 C   0  0  0  0  0  0  0  0  0  0  0  0
   -7.2610   14.8830   -0.9160 N   0  0  0  0  0  0  0  0  0  0  0  0
   -5.9290   14.8940   -1.1370 C   0  0  0  0  0  0  0  0  0  0  0  0
   -3.6210   14.7590   -0.3320 C   0  0  0  0  0  0  0  0  0  0  0  0
   -5.4240   15.0270   -2.4190 C   0  0  0  0  0  0  0  0  0  0  0  0
   -3.1240   14.8710   -1.6250 C   0  0  0  0  0  0  0  0  0  0  0  0
   -1.6320   14.8290   -1.8820 C   0  0  0  0  0  0  0  0  0  0  0  0
   -4.0410   15.0160   -2.6700 C   0  0  0  0  0  0  0  0  0  0  0  0
   -0.9460   13.4620   -1.8590 C   0  0  0  0  0  0  0  0  0  0  0  0
    0.5270   13.6090   -1.4560 C   0  0  0  0  0  0  0  0  0  0  0  0
    1.4040   13.0060   -2.4230 O   0  0  0  0  0  0  0  0  0  0  0  0
    0.8540   12.0170   -3.1800 C   0  0  0  0  0  0  0  0  0  0  0  0
    0.5950   10.9030   -2.7460 O   0  0  0  0  0  0  0  0  0  0  0  0
    0.6090   12.4860   -4.5900 C   0  0  0  0  0  0  0  0  0  0  0  0
   -0.4450   11.6670   -5.1420 N   0  0  0  0  0  0  0  0  0  0  0  0
   -0.3270   10.7270   -6.1250 C   0  0  0  0  0  0  0  0  0  0  0  0
   -1.7070   11.7900   -4.6670 N   0  0  0  0  0  0  0  0  0  0  0  0
   -1.5800   10.2080   -6.2800 C   0  0  0  0  0  0  0  0  0  0  0  0
   -2.3960   10.8890   -5.3720 C   0  0  0  0  0  0  0  0  0  0  0  0
   -2.1320    8.8650   -7.4470 Br  0  0  0  0  0  0  0  0  0  0  0  0
  1  2  1  0
  2  3  2  0
  2  4  1  0
  4  5  2  0
  3  6  1  0
  5  7  1  0
  6  7  2  0
  5  8  1  0
  7  9  1  0
  8 10  2  0
 10 11  1  0
  9 12  2  0
 10 12  1  0
 11 13  1  0
 13 14  1  0
 14 15  1  0
 15 16  1  0
 16 17  2  0
 16 18  1  0
 18 19  1  0
 19 20  1  0
 19 21  1  0
 20 22  2  0
 21 23  2  0
 22 23  1  0
 22 24  1  0
M  END
