mac-x0510-mac-x0437
     RDKit          3D

 27 30  0  0  0  0  0  0  0  0999 V2000
   -6.1910   14.9120    0.8050 O   0  0  0  0  0  0  0  0  0  0  0  0
   -5.0150   15.0380    0.4810 C   0  0  0  0  0  0  0  0  0  0  0  0
   -4.6740   15.2010   -0.8410 N   0  0  0  0  0  0  0  0  0  0  0  0
   -4.0050   15.0130    1.4030 N   0  0  0  0  0  0  0  0  0  0  0  0
   -2.7250   14.8610    0.9700 C   0  0  0  0  0  0  0  0  0  0  0  0
   -3.4040   15.1410   -1.3600 C   0  0  0  0  0  0  0  0  0  0  0  0
   -3.1780   15.2880   -2.5540 O   0  0  0  0  0  0  0  0  0  0  0  0
   -2.4180   14.9130   -0.3570 C   0  0  0  0  0  0  0  0  0  0  0  0
   -1.6430   14.6460    1.7490 N   0  0  0  0  0  0  0  0  0  0  0  0
   -1.0650   14.7100   -0.3990 N   0  0  0  0  0  0  0  0  0  0  0  0
   -0.6450   14.5610    0.8990 C   0  0  0  0  0  0  0  0  0  0  0  0
   -0.2020   14.6500   -1.5570 C   0  0  0  0  0  0  0  0  0  0  0  0
    0.7750   13.5090   -1.3300 C   0  0  0  0  0  0  0  0  0  0  0  0
    1.6810   13.2930   -2.4200 O   0  0  0  0  0  0  0  0  0  0  0  0
    1.3060   12.3740   -3.3360 C   0  0  0  0  0  0  0  0  0  0  0  0
    0.8230   11.2760   -3.0780 O   0  0  0  0  0  0  0  0  0  0  0  0
    1.5740   12.9120   -4.7200 C   0  0  0  0  0  0  0  0  0  0  0  0
    0.2710   13.2080   -5.4420 C   0  0  0  0  0  0  0  0  0  0  0  0
   -0.5260   12.0140   -5.6490 N   0  0  0  0  0  0  0  0  0  0  0  0
   -1.6610   11.6950   -4.9580 C   0  0  0  0  0  0  0  0  0  0  0  0
   -0.2850   11.0180   -6.5550 C   0  0  0  0  0  0  0  0  0  0  0  0
   -2.1670   10.5510   -5.3600 N   0  0  0  0  0  0  0  0  0  0  0  0
   -1.3230   10.1150   -6.3520 C   0  0  0  0  0  0  0  0  0  0  0  0
    0.7130   10.8150   -7.5110 C   0  0  0  0  0  0  0  0  0  0  0  0
   -1.3860    8.9490   -7.1260 C   0  0  0  0  0  0  0  0  0  0  0  0
    0.6380    9.6480   -8.2740 C   0  0  0  0  0  0  0  0  0  0  0  0
   -0.3930    8.7260   -8.0890 C   0  0  0  0  0  0  0  0  0  0  0  0
  1  2  2  0
  2  3  1  0
  2  4  1  0
  4  5  1  0
  3  6  1  0
  6  7  2  0
  5  8  2  0
  6  8  1  0
  5  9  1  0
  8 10  1  0
  9 11  2  0
 10 11  1  0
 10 12  1  0
 12 13  1  0
 13 14  1  0
 14 15  1  0
 15 16  2  0
 15 17  1  0
 17 18  1  0
 18 19  1  0
 19 20  1  0
 19 21  1  0
 20 22  2  0
 21 23  2  0
 22 23  1  0
 21 24  1  0
 23 25  1  0
 24 26  2  0
 25 27  2  0
 26 27  1  0
M  END
