mac-x0510-mac-x0212
     RDKit          3D

 17 18  0  0  0  0  0  0  0  0999 V2000
   -5.6930   14.7580    1.0570 N   0  0  0  0  0  0  0  0  0  0  0  0
   -7.1890   14.4340    0.6220 S   0  0  0  0  0  0  0  0  0  0  0  0
   -7.1190   12.6720    0.8570 C   0  0  0  0  0  0  0  0  0  0  0  0
   -4.5960   14.9000    0.4060 C   0  0  0  0  0  0  0  0  0  0  0  0
   -8.1310   14.9830    1.5850 O   0  0  0  0  0  0  0  0  0  0  0  0
   -7.3680   14.6870   -0.7900 O   0  0  0  0  0  0  0  0  0  0  0  0
   -3.6450   15.0550    1.3670 N   0  0  0  0  0  0  0  0  0  0  0  0
   -4.3820   14.8210   -0.9780 N   0  0  0  0  0  0  0  0  0  0  0  0
   -2.4570   14.9650    0.9920 C   0  0  0  0  0  0  0  0  0  0  0  0
   -3.1200   14.7500   -1.3870 C   0  0  0  0  0  0  0  0  0  0  0  0
   -2.6370   14.6190   -2.8120 C   0  0  0  0  0  0  0  0  0  0  0  0
   -2.0940   14.7920   -0.3820 C   0  0  0  0  0  0  0  0  0  0  0  0
   -1.3430   15.0070    1.7310 N   0  0  0  0  0  0  0  0  0  0  0  0
   -1.5660   14.0810   -3.0630 O   0  0  0  0  0  0  0  0  0  0  0  0
   -3.4290   15.1220   -3.7470 O   0  0  0  0  0  0  0  0  0  0  0  0
   -0.8130   14.7210   -0.4730 N   0  0  0  0  0  0  0  0  0  0  0  0
   -0.4130   14.8680    0.8460 C   0  0  0  0  0  0  0  0  0  0  0  0
  2  1  1  0
  2  3  1  0
  1  4  2  3
  2  5  2  0
  2  6  2  0
  4  7  1  0
  4  8  1  0
  7  9  2  0
  8 10  2  0
 10 11  1  0
  9 12  1  0
 10 12  1  0
  9 13  1  0
 11 14  2  0
 11 15  1  0
 12 16  2  0
 13 17  2  0
 16 17  1  0
M  END
