mac-x0226-mac-x0365
     RDKit          3D

 27 29  0  0  0  0  0  0  0  0999 V2000
    1.4330   12.3750   -2.0120 O   0  0  0  0  0  0  0  0  0  0  0  0
    0.3470   11.7450   -2.6630 C   0  0  0  0  0  0  0  0  0  0  0  0
    0.3610   10.3980   -2.2150 O   0  0  0  0  0  0  0  0  0  0  0  0
   -0.9310   12.4150   -2.1610 C   0  0  0  0  0  0  0  0  0  0  0  0
    0.5890   11.8070   -4.1370 C   0  0  0  0  0  0  0  0  0  0  0  0
   -0.7070   13.4020   -1.0080 C   0  0  0  0  0  0  0  0  0  0  0  0
    1.4470   12.6640   -4.8650 C   0  0  0  0  0  0  0  0  0  0  0  0
    0.0220   11.0160   -5.1120 C   0  0  0  0  0  0  0  0  0  0  0  0
   -0.8700   14.7530   -1.4270 O   0  0  0  0  0  0  0  0  0  0  0  0
    1.4250   12.4250   -6.1740 N   0  0  0  0  0  0  0  0  0  0  0  0
    0.5480   11.4010   -6.3230 N   0  0  0  0  0  0  0  0  0  0  0  0
   -1.8440   14.9240   -2.3410 C   0  0  0  0  0  0  0  0  0  0  0  0
    0.2650   10.8420   -7.5940 C   0  0  0  0  0  0  0  0  0  0  0  0
   -1.6930   15.0330   -3.5460 O   0  0  0  0  0  0  0  0  0  0  0  0
   -0.9720   10.2230   -7.8090 C   0  0  0  0  0  0  0  0  0  0  0  0
    1.2010   10.8950   -8.6280 C   0  0  0  0  0  0  0  0  0  0  0  0
   -3.1700   14.9700   -1.6850 C   0  0  0  0  0  0  0  0  0  0  0  0
   -1.2680    9.6640   -9.0540 C   0  0  0  0  0  0  0  0  0  0  0  0
    0.9010   10.3360   -9.8740 C   0  0  0  0  0  0  0  0  0  0  0  0
   -4.3310   15.0540   -2.4450 C   0  0  0  0  0  0  0  0  0  0  0  0
   -3.2480   14.9280   -0.2810 C   0  0  0  0  0  0  0  0  0  0  0  0
   -0.3320    9.7220  -10.0840 C   0  0  0  0  0  0  0  0  0  0  0  0
   -5.5570   15.0870   -1.8070 C   0  0  0  0  0  0  0  0  0  0  0  0
   -4.4930   14.9630    0.3540 C   0  0  0  0  0  0  0  0  0  0  0  0
   -6.6630   15.1620   -2.5530 F   0  0  0  0  0  0  0  0  0  0  0  0
   -5.6460   15.0400   -0.4230 C   0  0  0  0  0  0  0  0  0  0  0  0
   -6.8820   15.0660    0.1520 O   0  0  0  0  0  0  0  0  0  0  0  0
  2  1  1  0
  2  3  1  0
  2  4  1  0
  2  5  1  0
  4  6  1  0
  5  7  1  0
  5  8  2  0
  6  9  1  0
  7 10  2  0
  8 11  1  0
 10 11  1  0
  9 12  1  0
 11 13  1  0
 12 14  2  0
 13 15  2  0
 13 16  1  0
 12 17  1  0
 15 18  1  0
 16 19  2  0
 17 20  2  0
 17 21  1  0
 18 22  2  0
 19 22  1  0
 20 23  1  0
 21 24  2  0
 23 25  1  0
 23 26  2  0
 24 26  1  0
 26 27  1  0
M  END
