mac-x0402-diamond-x0628_0_A
     RDKit          3D

 25 27  0  0  0  0  0  0  0  0999 V2000
   -1.5020   14.8460   -3.1330 Cl  0  0  0  0  0  0  0  0  0  0  0  0
   -2.9400   14.8400   -2.1730 C   0  0  0  0  0  0  0  0  0  0  0  0
   -4.1900   14.7720   -2.7860 C   0  0  0  0  0  0  0  0  0  0  0  0
   -2.7850   14.9060   -0.7880 C   0  0  0  0  0  0  0  0  0  0  0  0
   -4.2440   14.6870   -4.3080 C   0  0  0  0  0  0  0  0  0  0  0  0
   -3.9300   14.9070    0.0060 C   0  0  0  0  0  0  0  0  0  0  0  0
   -5.3340   14.7800   -1.9540 C   0  0  0  0  0  0  0  0  0  0  0  0
   -3.6750   13.4240   -5.0250 C   0  0  0  0  0  0  0  0  0  0  0  0
   -5.2060   14.8460   -0.5440 C   0  0  0  0  0  0  0  0  0  0  0  0
   -4.0560   14.9760    1.7080 S   0  0  0  0  0  0  0  0  0  0  0  0
   -2.6060   12.5970   -4.2620 C   0  0  0  0  0  0  0  0  0  0  0  0
   -5.7660   14.9140    1.5820 C   0  0  0  0  0  0  0  0  0  0  0  0
   -6.2430   14.8500    0.3670 N   0  0  0  0  0  0  0  0  0  0  0  0
   -6.5560   14.9330    2.6710 N   0  0  0  0  0  0  0  0  0  0  0  0
   -1.7220   11.7640   -5.1580 C   0  0  0  0  0  0  0  0  0  0  0  0
   -2.0480   10.5930   -5.6860 N   0  0  0  0  0  0  0  0  0  0  0  0
   -0.4440   12.0760   -5.5720 N   0  0  0  0  0  0  0  0  0  0  0  0
    0.3770   13.2370   -5.2790 C   0  0  0  0  0  0  0  0  0  0  0  0
   -0.9410   10.2360   -6.4110 C   0  0  0  0  0  0  0  0  0  0  0  0
    0.0610   11.1150   -6.3710 N   0  0  0  0  0  0  0  0  0  0  0  0
   -0.8590    8.9760   -7.1770 C   0  0  0  0  0  0  0  0  0  0  0  0
    1.5720   12.9280   -4.3850 C   0  0  0  0  0  0  0  0  0  0  0  0
    1.1590   12.2440   -3.1080 C   0  0  0  0  0  0  0  0  0  0  0  0
    0.5010   11.2240   -2.9730 O   0  0  0  0  0  0  0  0  0  0  0  0
    1.6040   12.9130   -2.0300 O   0  0  0  0  0  0  0  0  0  0  0  0
  1  2  1  0
  2  3  2  0
  2  4  1  0
  3  5  1  0
  4  6  2  0
  3  7  1  0
  5  8  1  0
  6  9  1  0
  7  9  2  0
  6 10  1  0
  8 11  1  0
 10 12  1  0
  9 13  1  0
 12 13  2  0
 12 14  1  0
 11 15  1  0
 15 16  2  0
 15 17  1  0
 17 18  1  0
 16 19  1  0
 17 20  1  0
 19 20  2  0
 19 21  1  0
 18 22  1  0
 22 23  1  0
 23 24  2  0
 23 25  1  0
M  END
