mac-x0412-diamond-x0591_0_A
     RDKit          3D

 18 20  0  0  0  0  0  0  0  0999 V2000
   -7.0250   14.5390   -0.4480 N   0  0  0  0  0  0  0  0  0  0  0  0
   -6.3960   14.4880   -1.5580 C   0  0  0  0  0  0  0  0  0  0  0  0
   -7.1980   14.1520   -2.4900 N   0  0  0  0  0  0  0  0  0  0  0  0
   -6.0870   14.8350    0.4260 C   0  0  0  0  0  0  0  0  0  0  0  0
   -4.8640   14.9850   -0.1580 C   0  0  0  0  0  0  0  0  0  0  0  0
   -6.3770   14.9530    1.6970 N   0  0  0  0  0  0  0  0  0  0  0  0
   -4.9250   14.7770   -1.5220 C   0  0  0  0  0  0  0  0  0  0  0  0
   -8.4280   13.7800   -1.8170 C   0  0  0  0  0  0  0  0  0  0  0  0
   -3.7710   15.2950    0.5920 C   0  0  0  0  0  0  0  0  0  0  0  0
   -5.3190   15.2610    2.4360 C   0  0  0  0  0  0  0  0  0  0  0  0
   -3.6900   14.8970   -2.2770 C   0  0  0  0  0  0  0  0  0  0  0  0
   -3.2770   14.6880   -4.0310 S   0  0  0  0  0  0  0  0  0  0  0  0
   -4.0230   15.4330    1.9550 C   0  0  0  0  0  0  0  0  0  0  0  0
   -2.5780   15.4240   -0.1140 C   0  0  0  0  0  0  0  0  0  0  0  0
   -2.5460   15.2290   -1.5100 C   0  0  0  0  0  0  0  0  0  0  0  0
   -1.8680   15.6070   -4.2210 N   0  0  0  0  0  0  0  0  0  0  0  0
   -2.7410   13.3610   -4.2750 O   0  0  0  0  0  0  0  0  0  0  0  0
   -4.1840   15.3110   -4.9550 O   0  0  0  0  0  0  0  0  0  0  0  0
  1  2  2  0
  2  3  1  0
  1  4  1  0
  4  5  1  0
  4  6  2  0
  2  7  1  0
  5  7  2  0
  3  8  1  0
  5  9  1  0
  6 10  1  0
  7 11  1  0
 11 12  1  0
  9 13  1  0
 10 13  2  0
  9 14  2  0
 11 15  2  0
 14 15  1  0
 12 16  1  0
 12 17  2  0
 12 18  2  0
M  END
