mac-x0333-diamond-x0628_0_A
     RDKit          3D

 24 26  0  0  0  0  0  0  0  0999 V2000
   -2.1010   15.3320   -2.6180 O   0  0  0  0  0  0  0  0  0  0  0  0
   -3.1580   15.2130   -1.7640 C   0  0  0  0  0  0  0  0  0  0  0  0
   -2.9150   15.6380   -0.4440 C   0  0  0  0  0  0  0  0  0  0  0  0
   -4.3940   14.7080   -2.1740 C   0  0  0  0  0  0  0  0  0  0  0  0
   -4.6360   14.2380   -3.6000 C   0  0  0  0  0  0  0  0  0  0  0  0
   -5.3830   14.6680   -1.1710 C   0  0  0  0  0  0  0  0  0  0  0  0
   -3.9190   15.5720    0.5200 C   0  0  0  0  0  0  0  0  0  0  0  0
   -3.9410   12.8960   -4.0320 C   0  0  0  0  0  0  0  0  0  0  0  0
   -5.1420   15.0850    0.1260 C   0  0  0  0  0  0  0  0  0  0  0  0
   -6.6710   14.2330   -1.3120 O   0  0  0  0  0  0  0  0  0  0  0  0
   -2.3930   12.8110   -3.9360 C   0  0  0  0  0  0  0  0  0  0  0  0
   -6.2320   14.9550    0.9330 O   0  0  0  0  0  0  0  0  0  0  0  0
   -7.2260   14.5460   -0.0180 C   0  0  0  0  0  0  0  0  0  0  0  0
   -1.6910   11.9000   -4.9330 C   0  0  0  0  0  0  0  0  0  0  0  0
   -2.1260   10.7480   -5.4340 N   0  0  0  0  0  0  0  0  0  0  0  0
   -0.4480   12.1520   -5.4760 N   0  0  0  0  0  0  0  0  0  0  0  0
    0.4480   13.2690   -5.2580 C   0  0  0  0  0  0  0  0  0  0  0  0
   -1.1040   10.3460   -6.2730 C   0  0  0  0  0  0  0  0  0  0  0  0
   -0.0690   11.1790   -6.3260 N   0  0  0  0  0  0  0  0  0  0  0  0
   -1.1420    9.0940   -7.0580 C   0  0  0  0  0  0  0  0  0  0  0  0
    1.5840   12.9270   -4.3030 C   0  0  0  0  0  0  0  0  0  0  0  0
    1.1130   12.2740   -3.0330 C   0  0  0  0  0  0  0  0  0  0  0  0
    0.6470   11.1530   -2.9150 O   0  0  0  0  0  0  0  0  0  0  0  0
    1.2420   13.0550   -1.9510 O   0  0  0  0  0  0  0  0  0  0  0  0
  1  2  1  0
  2  3  2  0
  2  4  1  0
  4  5  1  0
  4  6  2  0
  3  7  1  0
  5  8  1  0
  6  9  1  0
  7  9  2  0
  6 10  1  0
  8 11  1  0
  9 12  1  0
 10 13  1  0
 12 13  1  0
 11 14  1  0
 14 15  2  0
 14 16  1  0
 16 17  1  0
 15 18  1  0
 16 19  1  0
 18 19  2  0
 18 20  1  0
 17 21  1  0
 21 22  1  0
 22 23  2  0
 22 24  1  0
M  END
