mac-x0345-mac-x0284
     RDKit          3D

 21 22  0  0  0  0  0  0  0  0999 V2000
   -7.7380   14.3100    0.8370 C   0  0  0  0  0  0  0  0  0  0  0  0
   -6.6980   14.7820   -0.1330 C   0  0  0  0  0  0  0  0  0  0  0  0
   -6.9720   14.6450   -1.4510 N   0  0  0  0  0  0  0  0  0  0  0  0
   -5.5120   15.3360    0.3200 C   0  0  0  0  0  0  0  0  0  0  0  0
   -5.3000   15.4400    1.6280 O   0  0  0  0  0  0  0  0  0  0  0  0
   -4.5810   15.7720   -0.5860 C   0  0  0  0  0  0  0  0  0  0  0  0
   -6.0440   15.0730   -2.3160 C   0  0  0  0  0  0  0  0  0  0  0  0
   -6.3420   14.9150   -3.6570 N   0  0  0  0  0  0  0  0  0  0  0  0
   -3.9250   15.6140    1.8070 C   0  0  0  0  0  0  0  0  0  0  0  0
   -4.8440   15.6410   -1.9290 C   0  0  0  0  0  0  0  0  0  0  0  0
   -3.2790   14.4140    1.1190 C   0  0  0  0  0  0  0  0  0  0  0  0
   -2.9630   14.5090   -0.3700 C   0  0  0  0  0  0  0  0  0  0  0  0
   -1.6280   14.5330   -0.7430 C   0  0  0  0  0  0  0  0  0  0  0  0
   -3.9250   14.5570   -1.3970 C   0  0  0  0  0  0  0  0  0  0  0  0
   -1.2410   14.5990   -2.0820 C   0  0  0  0  0  0  0  0  0  0  0  0
   -3.5470   14.6310   -2.7530 C   0  0  0  0  0  0  0  0  0  0  0  0
    0.2030   14.6020   -2.3660 C   0  0  0  0  0  0  0  0  0  0  0  0
   -2.2020   14.6510   -3.0910 C   0  0  0  0  0  0  0  0  0  0  0  0
   -1.8450   14.7180   -4.4110 O   0  0  0  0  0  0  0  0  0  0  0  0
    1.0970   14.8810   -1.6010 O   0  0  0  0  0  0  0  0  0  0  0  0
    0.4660   14.2290   -3.6310 O   0  0  0  0  0  0  0  0  0  0  0  0
  1  2  1  0
  2  3  2  0
  2  4  1  0
  4  5  1  0
  4  6  2  0
  3  7  1  0
  7  8  1  0
  5  9  1  0
  6 10  1  0
  7 10  2  0
  9 11  1  0
 11 12  1  0
 12 13  2  0
 12 14  1  0
 13 15  1  0
 14 16  2  0
 15 17  1  0
 15 18  2  0
 16 18  1  0
 18 19  1  0
 17 20  2  0
 17 21  1  0
M  END
