mac-x0527-diamond-x0290_0_A
     RDKit          3D

 28 30  0  0  0  0  0  0  0  0999 V2000
   -3.1330   15.4640   -4.0960 O   0  0  0  0  0  0  0  0  0  0  0  0
   -2.8890   15.0990   -2.9440 C   0  0  0  0  0  0  0  0  0  0  0  0
   -1.6480   14.6010   -2.4780 N   0  0  0  0  0  0  0  0  0  0  0  0
   -3.9650   15.1720   -1.9170 C   0  0  0  0  0  0  0  0  0  0  0  0
   -0.5180   14.5210   -3.4200 C   0  0  0  0  0  0  0  0  0  0  0  0
   -5.2480   14.7520   -2.2010 C   0  0  0  0  0  0  0  0  0  0  0  0
   -3.6230   15.6490   -0.6940 N   0  0  0  0  0  0  0  0  0  0  0  0
   -1.4780   14.5310   -1.0460 C   0  0  0  0  0  0  0  0  0  0  0  0
   -0.5700   13.2840   -4.3020 C   0  0  0  0  0  0  0  0  0  0  0  0
   -6.2350   14.7800   -1.2740 N   0  0  0  0  0  0  0  0  0  0  0  0
   -4.5950   15.6760    0.2280 C   0  0  0  0  0  0  0  0  0  0  0  0
   -0.3030   14.7560   -0.3280 C   0  0  0  0  0  0  0  0  0  0  0  0
   -2.6260   14.2210   -0.3220 C   0  0  0  0  0  0  0  0  0  0  0  0
   -1.5160   12.2720   -4.0530 C   0  0  0  0  0  0  0  0  0  0  0  0
    0.3190   13.1210   -5.3800 C   0  0  0  0  0  0  0  0  0  0  0  0
   -5.8710   15.2430   -0.0610 C   0  0  0  0  0  0  0  0  0  0  0  0
   -0.3770   14.6620    1.0590 C   0  0  0  0  0  0  0  0  0  0  0  0
   -2.6300   14.1500    1.0420 C   0  0  0  0  0  0  0  0  0  0  0  0
   -3.7830   13.8540    1.7760 N   0  0  0  0  0  0  0  0  0  0  0  0
   -1.5670   11.1330   -4.8580 C   0  0  0  0  0  0  0  0  0  0  0  0
    0.2650   11.9820   -6.1820 C   0  0  0  0  0  0  0  0  0  0  0  0
   -1.5050   14.3710    1.7550 N   0  0  0  0  0  0  0  0  0  0  0  0
   -5.0440   13.4710    1.3870 C   0  0  0  0  0  0  0  0  0  0  0  0
   -0.6780   10.9860   -5.9220 C   0  0  0  0  0  0  0  0  0  0  0  0
   -5.1490   12.9610    0.2610 O   0  0  0  0  0  0  0  0  0  0  0  0
   -6.2930   13.6570    2.2580 C   0  0  0  0  0  0  0  0  0  0  0  0
   -7.5340   13.4600    1.4680 N   0  0  0  0  0  0  0  0  0  0  0  0
   -8.4090   14.6250    1.4740 C   0  0  0  0  0  0  0  0  0  0  0  0
  1  2  2  0
  2  3  1  0
  2  4  1  0
  3  5  1  0
  4  6  2  0
  4  7  1  0
  3  8  1  0
  5  9  1  0
  6 10  1  0
  7 11  2  0
  8 12  2  0
  8 13  1  0
  9 14  2  0
  9 15  1  0
 10 16  2  0
 11 16  1  0
 12 17  1  0
 13 18  2  0
 18 19  1  0
 14 20  1  0
 15 21  2  0
 17 22  2  0
 18 22  1  0
 19 23  1  0
 20 24  2  0
 21 24  1  0
 23 25  2  0
 23 26  1  0
 26 27  1  0
 27 28  1  0
M  END
