mac-x0228-mac-x0226
     RDKit          3D

 28 31  0  0  0  0  0  0  0  0999 V2000
   -1.1020   15.2820   -1.8630 O   0  0  0  0  0  0  0  0  0  0  0  0
   -1.9950   14.4220   -2.5080 C   0  0  0  0  0  0  0  0  0  0  0  0
   -1.9200   14.6610   -3.9120 O   0  0  0  0  0  0  0  0  0  0  0  0
   -1.3880   13.0640   -2.1860 C   0  0  0  0  0  0  0  0  0  0  0  0
   -3.4280   14.6550   -2.0150 C   0  0  0  0  0  0  0  0  0  0  0  0
   -0.0890   13.2550   -1.3850 C   0  0  0  0  0  0  0  0  0  0  0  0
   -3.7310   14.4450   -0.6510 C   0  0  0  0  0  0  0  0  0  0  0  0
   -4.4720   15.0650   -2.8710 C   0  0  0  0  0  0  0  0  0  0  0  0
    0.9650   12.5350   -2.0120 O   0  0  0  0  0  0  0  0  0  0  0  0
   -5.0250   14.6370   -0.2030 C   0  0  0  0  0  0  0  0  0  0  0  0
   -5.7770   15.2560   -2.3950 C   0  0  0  0  0  0  0  0  0  0  0  0
    0.5200   11.4730   -2.7130 C   0  0  0  0  0  0  0  0  0  0  0  0
   -6.0240   15.0360   -1.0660 C   0  0  0  0  0  0  0  0  0  0  0  0
   -5.5860   14.4700    1.1470 C   0  0  0  0  0  0  0  0  0  0  0  0
    0.0900   10.4400   -2.2030 O   0  0  0  0  0  0  0  0  0  0  0  0
   -7.2490   15.1760   -0.4620 O   0  0  0  0  0  0  0  0  0  0  0  0
   -7.0730   14.4800    0.7960 C   0  0  0  0  0  0  0  0  0  0  0  0
    0.6210   11.6290   -4.1490 C   0  0  0  0  0  0  0  0  0  0  0  0
    1.3690   12.5550   -4.9130 C   0  0  0  0  0  0  0  0  0  0  0  0
   -0.0120   10.8530   -5.0900 C   0  0  0  0  0  0  0  0  0  0  0  0
    1.2220   12.3620   -6.2290 N   0  0  0  0  0  0  0  0  0  0  0  0
    0.3710   11.2970   -6.3310 N   0  0  0  0  0  0  0  0  0  0  0  0
   -0.0280   10.7490   -7.5800 C   0  0  0  0  0  0  0  0  0  0  0  0
   -1.1960   10.0000   -7.7180 C   0  0  0  0  0  0  0  0  0  0  0  0
    0.7670   10.9490   -8.7000 C   0  0  0  0  0  0  0  0  0  0  0  0
   -1.5400    9.4730   -8.9670 C   0  0  0  0  0  0  0  0  0  0  0  0
    0.4360   10.4330   -9.9410 C   0  0  0  0  0  0  0  0  0  0  0  0
   -0.7260    9.6890  -10.0800 C   0  0  0  0  0  0  0  0  0  0  0  0
  2  1  1  0
  2  3  1  0
  2  4  1  0
  2  5  1  0
  4  6  1  0
  5  7  2  0
  5  8  1  0
  6  9  1  0
  7 10  1  0
  8 11  2  0
  9 12  1  0
 10 13  2  0
 11 13  1  0
 10 14  1  0
 12 15  2  0
 13 16  1  0
 14 17  1  0
 16 17  1  0
 12 18  1  0
 18 19  1  0
 18 20  2  0
 19 21  2  0
 20 22  1  0
 21 22  1  0
 22 23  1  0
 23 24  2  0
 23 25  1  0
 24 26  1  0
 25 27  2  0
 26 28  2  0
 27 28  1  0
M  END
