mac-x0380-diamond-x0805_0_A
     RDKit          3D

 30 33  0  0  0  0  0  0  0  0999 V2000
   -2.0540   15.2950   -2.5040 O   0  0  0  0  0  0  0  0  0  0  0  0
   -3.3750   15.4170   -2.6980 C   0  0  0  0  0  0  0  0  0  0  0  0
   -3.7850   15.6030   -3.8290 O   0  0  0  0  0  0  0  0  0  0  0  0
   -4.1780   15.2860   -1.4240 C   0  0  0  0  0  0  0  0  0  0  0  0
   -5.5540   15.3110   -1.4880 C   0  0  0  0  0  0  0  0  0  0  0  0
   -3.6040   15.1160   -0.1410 C   0  0  0  0  0  0  0  0  0  0  0  0
   -6.2890   15.1670   -0.3170 C   0  0  0  0  0  0  0  0  0  0  0  0
   -4.3010   14.9900    1.0130 C   0  0  0  0  0  0  0  0  0  0  0  0
   -2.3290   15.0410   -0.0930 O   0  0  0  0  0  0  0  0  0  0  0  0
   -5.6530   15.0120    0.9310 C   0  0  0  0  0  0  0  0  0  0  0  0
   -8.0510   15.1790   -0.4460 S   0  0  0  0  0  0  0  0  0  0  0  0
   -2.3360   14.2360   -1.1440 C   0  0  0  0  0  0  0  0  0  0  0  0
   -6.3390   14.8690    2.1300 N   0  0  0  0  0  0  0  0  0  0  0  0
   -8.3540   14.0960    0.9670 C   0  0  0  0  0  0  0  0  0  0  0  0
   -3.4000   13.3640   -1.4650 C   0  0  0  0  0  0  0  0  0  0  0  0
   -1.2520   14.3320   -1.9020 C   0  0  0  0  0  0  0  0  0  0  0  0
   -7.6520   14.5580    2.2200 C   0  0  0  0  0  0  0  0  0  0  0  0
   -3.3200   12.5880   -2.6160 C   0  0  0  0  0  0  0  0  0  0  0  0
   -1.1600   13.5800   -3.0230 C   0  0  0  0  0  0  0  0  0  0  0  0
   -8.2380   14.6630    3.2970 O   0  0  0  0  0  0  0  0  0  0  0  0
   -2.1820   12.6990   -3.4110 C   0  0  0  0  0  0  0  0  0  0  0  0
    0.0990   13.7910   -3.7380 C   0  0  1  0  0  0  0  0  0  0  0  0
    0.8160   12.5120   -4.0270 C   0  0  2  0  0  0  0  0  0  0  0  0
    0.2010   14.8850   -4.7530 C   0  0  0  0  0  0  0  0  0  0  0  0
    0.7320   11.7780   -2.6800 C   0  0  0  0  0  0  0  0  0  0  0  0
    2.2190   12.9590   -4.4610 C   0  0  0  0  0  0  0  0  0  0  0  0
    1.5890   15.4010   -4.5330 C   0  0  0  0  0  0  0  0  0  0  0  0
    0.4780   10.4430   -2.7320 O   0  0  0  0  0  0  0  0  0  0  0  0
    0.8510   12.3440   -1.5980 O   0  0  0  0  0  0  0  0  0  0  0  0
    2.5110   14.3460   -4.1440 O   0  0  0  0  0  0  0  0  0  0  0  0
  1  2  1  0
  2  3  2  0
  2  4  1  0
  4  5  2  0
  4  6  1  0
  5  7  1  0
  6  8  2  0
  6  9  1  0
  7 10  2  0
  8 10  1  0
  7 11  1  0
  9 12  1  0
 10 13  1  0
 11 14  1  0
 12 15  2  0
 12 16  1  0
 13 17  1  0
 14 17  1  0
 15 18  1  0
 16 19  2  0
 17 20  2  0
 18 21  2  0
 19 21  1  0
 22 19  1  6
 22 23  1  0
 22 24  1  0
 23 25  1  1
 23 26  1  0
 24 27  1  0
 25 28  1  0
 25 29  2  0
 26 30  1  0
 27 30  1  0
M  END
