mac-x0415-mac-x1493
     RDKit          3D

 27 30  0  0  0  0  0  0  0  0999 V2000
    0.1240   10.9960   -2.8630 O   0  0  0  0  0  0  0  0  0  0  0  0
    0.7350   12.1980   -2.8550 C   0  0  0  0  0  0  0  0  0  0  0  0
    1.1260   12.6920   -1.8160 O   0  0  0  0  0  0  0  0  0  0  0  0
    0.8470   12.8030   -4.2280 C   0  0  0  0  0  0  0  0  0  0  0  0
    0.7140   14.2760   -4.1740 C   0  0  0  0  0  0  0  0  0  0  0  0
    1.8350   15.1690   -4.0100 C   0  0  0  0  0  0  0  0  0  0  0  0
   -0.2670   15.1720   -4.2710 C   0  0  0  0  0  0  0  0  0  0  0  0
    1.6100   16.4370   -4.0320 N   0  0  0  0  0  0  0  0  0  0  0  0
    0.1880   16.5760   -4.1660 C   0  0  1  0  0  0  0  0  0  0  0  0
   -1.6530   15.0520   -4.5020 C   0  0  0  0  0  0  0  0  0  0  0  0
   -2.4500   14.1780   -3.8760 N   0  0  0  0  0  0  0  0  0  0  0  0
   -0.2510   17.3710   -5.3490 C   0  0  0  0  0  0  0  0  0  0  0  0
   -2.1840   15.9040   -5.3780 C   0  0  0  0  0  0  0  0  0  0  0  0
   -3.9480   15.6850   -5.9250 Br  0  0  0  0  0  0  0  0  0  0  0  0
   -2.8770   14.8670   -2.8510 C   0  0  0  0  0  0  0  0  0  0  0  0
   -1.4130   17.0240   -5.9320 C   0  0  0  0  0  0  0  0  0  0  0  0
   -2.2550   16.0420   -2.6770 O   0  0  0  0  0  0  0  0  0  0  0  0
   -3.8930   14.7630   -1.8160 C   0  0  0  0  0  0  0  0  0  0  0  0
   -3.7600   14.9780   -0.4440 C   0  0  0  0  0  0  0  0  0  0  0  0
   -5.1380   14.4380   -2.3070 C   0  0  0  0  0  0  0  0  0  0  0  0
   -4.9140   14.8560    0.3590 C   0  0  0  0  0  0  0  0  0  0  0  0
   -6.2480   14.3090   -1.5730 N   0  0  0  0  0  0  0  0  0  0  0  0
   -6.1410   14.5170   -0.2660 C   0  0  0  0  0  0  0  0  0  0  0  0
   -4.8860   15.0620    1.7420 C   0  0  0  0  0  0  0  0  0  0  0  0
   -7.2830   14.3960    0.5050 C   0  0  0  0  0  0  0  0  0  0  0  0
   -6.0600   14.9350    2.4900 C   0  0  0  0  0  0  0  0  0  0  0  0
   -7.2560   14.6010    1.8760 C   0  0  0  0  0  0  0  0  0  0  0  0
  1  2  1  0
  2  3  2  0
  2  4  1  0
  4  5  1  0
  5  6  1  0
  5  7  2  0
  6  8  2  0
  7  9  1  0
  8  9  1  0
  7 10  1  0
 10 11  1  0
  9 12  1  6
 10 13  2  0
 13 14  1  0
 11 15  2  3
 12 16  2  0
 13 16  1  0
 15 17  1  0
 15 18  1  0
 18 19  2  0
 18 20  1  0
 19 21  1  0
 20 22  2  0
 21 23  2  0
 22 23  1  0
 21 24  1  0
 23 25  1  0
 24 26  2  0
 25 27  2  0
 26 27  1  0
M  END
