mac-x0213-mac-x0404
     RDKit          3D

 14 16  0  0  0  0  0  0  0  0999 V2000
   -0.1500   11.6400   -3.1740 O   0  0  0  0  0  0  0  0  0  0  0  0
    0.6350   12.8040   -3.0770 C   0  0  0  0  0  0  0  0  0  0  0  0
    1.2640   12.7430   -1.8260 O   0  0  0  0  0  0  0  0  0  0  0  0
    1.6620   12.8720   -4.2240 C   0  0  0  0  0  0  0  0  0  0  0  0
   -0.1350   14.1090   -3.2130 C   0  0  2  0  0  0  0  0  0  0  0  0
    1.6230   14.2030   -4.7700 O   0  0  0  0  0  0  0  0  0  0  0  0
   -1.3670   14.1660   -4.1250 C   0  0  0  0  0  0  0  0  0  0  0  0
    0.9130   15.0150   -3.8520 C   0  0  1  0  0  0  0  0  0  0  0  0
   -1.2550   15.5670   -4.6620 C   0  0  0  0  0  0  0  0  0  0  0  0
    0.0530   16.0500   -4.5110 C   0  0  0  0  0  0  0  0  0  0  0  0
   -2.2410   16.3530   -5.2420 C   0  0  0  0  0  0  0  0  0  0  0  0
    0.4010   17.3200   -4.9370 C   0  0  0  0  0  0  0  0  0  0  0  0
   -1.8940   17.6390   -5.6740 C   0  0  0  0  0  0  0  0  0  0  0  0
   -0.5830   18.1140   -5.5220 C   0  0  0  0  0  0  0  0  0  0  0  0
  2  1  1  0
  2  3  1  0
  2  4  1  0
  2  5  1  0
  4  6  1  0
  5  7  1  6
  5  8  1  0
  8  6  1  6
  7  9  1  0
  8 10  1  0
  9 10  2  0
  9 11  1  0
 10 12  1  0
 11 13  2  0
 12 14  2  0
 13 14  1  0
M  END
