mac-x0385-mac-x0284
     RDKit          3D

 19 20  0  0  0  0  0  0  0  0999 V2000
   -5.1870   15.7180   -0.1360 C   0  0  0  0  0  0  0  0  0  0  0  0
   -3.8240   15.3850    0.3430 C   0  0  0  0  0  0  0  0  0  0  0  0
   -2.9740   16.2230    0.8770 C   0  0  0  0  0  0  0  0  0  0  0  0
   -3.3400   14.1690    0.2390 C   0  0  0  0  0  0  0  0  0  0  0  0
   -4.2150   13.4100   -0.3900 N   0  0  0  0  0  0  0  0  0  0  0  0
   -2.1500   13.7410    0.6070 N   0  0  0  0  0  0  0  0  0  0  0  0
   -1.7310   15.8710    1.2380 N   0  0  0  0  0  0  0  0  0  0  0  0
   -1.3740   14.6420    1.0900 C   0  0  0  0  0  0  0  0  0  0  0  0
   -3.8020   13.9240   -1.6100 C   0  0  0  0  0  0  0  0  0  0  0  0
   -0.0150   14.2660    1.4750 C   0  0  0  0  0  0  0  0  0  0  0  0
   -2.3950   13.9860   -1.6800 C   0  0  0  0  0  0  0  0  0  0  0  0
   -4.5400   14.3830   -2.6880 C   0  0  0  0  0  0  0  0  0  0  0  0
   -1.7150   14.4770   -2.7740 C   0  0  0  0  0  0  0  0  0  0  0  0
   -3.8690   14.8830   -3.8090 C   0  0  0  0  0  0  0  0  0  0  0  0
   -0.2250   14.4670   -2.6840 C   0  0  0  0  0  0  0  0  0  0  0  0
   -2.4680   14.9260   -3.8470 C   0  0  0  0  0  0  0  0  0  0  0  0
   -1.9140   15.4240   -4.9870 O   0  0  0  0  0  0  0  0  0  0  0  0
    0.4510   14.7080   -1.6990 O   0  0  0  0  0  0  0  0  0  0  0  0
    0.3700   14.1450   -3.8430 O   0  0  0  0  0  0  0  0  0  0  0  0
  1  2  1  0
  2  3  2  0
  2  4  1  0
  4  5  1  0
  4  6  2  0
  3  7  1  0
  6  8  1  0
  7  8  2  0
  5  9  1  0
  8 10  1  0
  9 11  2  0
  9 12  1  0
 11 13  1  0
 12 14  2  0
 13 15  1  0
 13 16  2  0
 14 16  1  0
 16 17  1  0
 15 18  2  0
 15 19  1  0
M  END
