mac-x0182-mac-x0159
     RDKit          3D

 30 34  0  0  0  0  0  0  0  0999 V2000
    1.6270   11.7910   -7.1430 O   0  0  0  0  0  0  0  0  0  0  0  0
    0.7880   11.4380   -6.3690 C   0  0  0  0  0  0  0  0  0  0  0  0
    0.7010   11.8370   -5.0710 N   0  0  0  0  0  0  0  0  0  0  0  0
   -0.2660   10.4560   -6.7150 C   0  0  0  0  0  0  0  0  0  0  0  0
   -0.5220   11.0450   -4.2500 S   0  0  2  0  0  0  0  0  0  0  0  0
   -1.0760   10.1430   -5.6290 C   0  0  0  0  0  0  0  0  0  0  0  0
   -0.4800    9.8690   -7.9480 C   0  0  0  0  0  0  0  0  0  0  0  0
   -1.3670   12.2510   -3.9390 N   0  0  0  0  0  0  0  0  0  0  0  0
    0.1170   10.1670   -3.3110 O   0  0  0  0  0  0  0  0  0  0  0  0
   -2.1240    9.2470   -5.7130 C   0  0  0  0  0  0  0  0  0  0  0  0
   -1.5350    8.9540   -8.0670 C   0  0  0  0  0  0  0  0  0  0  0  0
   -0.5360   13.4010   -3.4570 C   0  0  0  0  0  0  0  0  0  0  0  0
   -2.3500    8.6480   -6.9550 C   0  0  0  0  0  0  0  0  0  0  0  0
   -1.4010   14.6770   -3.4100 C   0  0  1  0  0  0  0  0  0  0  0  0
   -1.9920   15.0660   -2.0840 N   0  0  0  0  0  0  0  0  0  0  0  0
   -0.6970   15.8490   -4.1200 C   0  0  0  0  0  0  0  0  0  0  0  0
   -3.4370   14.9770   -2.1600 C   0  0  0  0  0  0  0  0  0  0  0  0
   -1.4610   14.4940   -0.8610 C   0  0  2  0  0  0  0  0  0  0  0  0
    0.6380   16.2360   -4.0510 C   0  0  0  0  0  0  0  0  0  0  0  0
   -1.4710   16.6610   -4.9520 N   0  0  0  0  0  0  0  0  0  0  0  0
   -4.1150   15.4240   -0.9360 N   0  0  0  0  0  0  0  0  0  0  0  0
   -2.1760   14.9260    0.4180 C   0  0  1  0  0  0  0  0  0  0  0  0
   -0.0910   14.8020   -0.4780 N   0  0  0  0  0  0  0  0  0  0  0  0
   -0.7470   17.6170   -5.4810 C   0  0  0  0  0  0  0  0  0  0  0  0
    0.8980   17.6210   -5.0310 S   0  0  0  0  0  0  0  0  0  0  0  0
   -1.2720   18.6490   -6.4140 C   0  0  0  0  0  0  0  0  0  0  0  0
   -3.6850   14.7210    0.2490 C   0  0  1  0  0  0  0  0  0  0  0  0
   -1.4400   14.1610    1.3900 N   0  0  0  0  0  0  0  0  0  0  0  0
   -0.0770   14.3180    0.9140 C   0  0  0  0  0  0  0  0  0  0  0  0
   -4.4330   15.3430    1.3250 N   0  0  0  0  0  0  0  0  0  0  0  0
  1  2  2  0
  2  3  1  0
  2  4  1  0
  5  3  1  6
  4  6  2  0
  5  6  1  0
  4  7  1  0
  5  8  2  0
  5  9  2  0
  6 10  1  0
  7 11  2  0
  8 12  1  0
 10 13  2  0
 11 13  1  0
 14 12  1  1
 14 15  1  0
 14 16  1  0
 15 17  1  0
 15 18  1  0
 16 19  2  0
 16 20  1  0
 17 21  1  0
 18 22  1  0
 18 23  1  1
 20 24  2  0
 19 25  1  0
 24 25  1  0
 24 26  1  0
 21 27  1  0
 22 27  1  0
 22 28  1  1
 23 29  1  0
 28 29  1  0
 27 30  1  1
M  END
