mac-x0226-diamond-x0722_0_A
     RDKit          3D

 28 30  0  0  0  0  0  0  0  0999 V2000
    1.3680   12.3220   -2.1130 O   0  0  0  0  0  0  0  0  0  0  0  0
    0.3850   11.5800   -2.8240 C   0  0  0  0  0  0  0  0  0  0  0  0
    0.4840   10.2320   -2.3940 O   0  0  0  0  0  0  0  0  0  0  0  0
   -0.9660   12.0830   -2.3820 C   0  0  0  0  0  0  0  0  0  0  0  0
    0.5710   11.6790   -4.2940 C   0  0  0  0  0  0  0  0  0  0  0  0
   -0.7960   13.1980   -1.3800 C   0  0  0  0  0  0  0  0  0  0  0  0
    1.3950   12.5400   -5.0510 C   0  0  0  0  0  0  0  0  0  0  0  0
   -0.0500   10.9040   -5.2320 C   0  0  0  0  0  0  0  0  0  0  0  0
   -1.7400   14.3460   -1.6180 C   0  0  0  0  0  0  0  0  0  0  0  0
    1.2980   12.3100   -6.3610 N   0  0  0  0  0  0  0  0  0  0  0  0
    0.4010   11.2890   -6.4620 N   0  0  0  0  0  0  0  0  0  0  0  0
    0.0160   10.7200   -7.7010 C   0  0  0  0  0  0  0  0  0  0  0  0
   -2.3400   14.7050   -0.3280 C   0  0  0  0  0  0  0  0  0  0  0  0
   -1.1330    9.9420   -7.8000 C   0  0  0  0  0  0  0  0  0  0  0  0
    0.7870   10.9270   -8.8360 C   0  0  0  0  0  0  0  0  0  0  0  0
   -3.5980   15.1840   -0.0010 C   0  0  0  0  0  0  0  0  0  0  0  0
   -1.6430   14.6020    0.8570 N   0  0  0  0  0  0  0  0  0  0  0  0
   -0.2850   14.1730    1.1200 C   0  0  0  0  0  0  0  0  0  0  0  0
   -4.7650   15.4950   -0.8900 C   0  0  0  0  0  0  0  0  0  0  0  0
   -1.4890    9.3870   -9.0320 C   0  0  0  0  0  0  0  0  0  0  0  0
    0.4410   10.3830  -10.0620 C   0  0  0  0  0  0  0  0  0  0  0  0
   -2.3550   14.9620    1.8880 N   0  0  0  0  0  0  0  0  0  0  0  0
   -3.5180   15.3210    1.3940 C   0  0  0  0  0  0  0  0  0  0  0  0
   -4.5030   15.8030    2.3330 C   0  0  0  0  0  0  0  0  0  0  0  0
   -6.0260   14.6980   -0.5930 C   0  0  0  0  0  0  0  0  0  0  0  0
   -0.7010    9.6080  -10.1610 C   0  0  0  0  0  0  0  0  0  0  0  0
   -7.1730   15.0910   -0.7710 O   0  0  0  0  0  0  0  0  0  0  0  0
   -5.8140   13.4440   -0.0920 N   0  0  0  0  0  0  0  0  0  0  0  0
  2  1  1  0
  2  3  1  0
  2  4  1  0
  2  5  1  0
  4  6  1  0
  5  7  1  0
  5  8  2  0
  6  9  1  0
  7 10  2  0
  8 11  1  0
 10 11  1  0
 11 12  1  0
  9 13  1  0
 12 14  2  0
 12 15  1  0
 13 16  2  0
 13 17  1  0
 17 18  1  0
 16 19  1  0
 14 20  1  0
 15 21  2  0
 17 22  1  0
 16 23  1  0
 22 23  2  0
 23 24  1  0
 19 25  1  0
 20 26  2  0
 21 26  1  0
 25 27  2  0
 25 28  1  0
M  END
