mac-x0417-mac-x0182
     RDKit          3D

 14 15  0  0  0  0  0  0  0  0999 V2000
    1.1180   12.9500   -2.4470 O   0  0  0  0  0  0  0  0  0  0  0  0
    0.4780   11.9800   -3.1310 C   0  0  0  0  0  0  0  0  0  0  0  0
    0.6090   10.8150   -2.8130 O   0  0  0  0  0  0  0  0  0  0  0  0
   -0.3600   12.5250   -4.2610 C   0  0  0  0  0  0  0  0  0  0  0  0
   -0.2920   11.6440   -5.4290 C   0  0  0  0  0  0  0  0  0  0  0  0
    0.7220   11.8290   -6.2190 N   0  0  0  0  0  0  0  0  0  0  0  0
   -1.0860   10.6070   -5.9230 C   0  0  0  0  0  0  0  0  0  0  0  0
    1.6220   12.6390   -6.1190 O   0  0  0  0  0  0  0  0  0  0  0  0
    0.6710   10.9020   -7.3110 O   0  0  0  0  0  0  0  0  0  0  0  0
   -0.4590   10.1730   -7.0870 C   0  0  0  0  0  0  0  0  0  0  0  0
   -2.2670    9.9890   -5.5080 C   0  0  0  0  0  0  0  0  0  0  0  0
   -0.9470    9.1400   -7.8820 C   0  0  0  0  0  0  0  0  0  0  0  0
   -2.7820    8.9500   -6.2840 C   0  0  0  0  0  0  0  0  0  0  0  0
   -2.1340    8.5340   -7.4470 C   0  0  0  0  0  0  0  0  0  0  0  0
  1  2  1  0
  2  3  2  0
  2  4  1  0
  4  5  1  0
  5  6  2  0
  5  7  1  0
  6  8  1  0
  6  9  1  0
  7 10  2  0
  9 10  1  0
  7 11  1  0
 10 12  1  0
 11 13  2  0
 12 14  2  0
 13 14  1  0
M  CHG  2   6   1   8  -1
M  END
