mac-x0305-diamond-x0950_1_A
     RDKit          3D

 15 15  0  0  0  0  0  0  0  0999 V2000
   -0.0230   12.6810   -1.3670 O   0  0  0  0  0  0  0  0  0  0  0  0
   -0.2270   14.0260   -1.5010 C   0  0  0  0  0  0  0  0  0  0  0  0
    0.5270   14.8440   -2.0000 O   0  0  0  0  0  0  0  0  0  0  0  0
    0.4130   11.8460   -2.3970 C   0  0  0  0  0  0  0  0  0  0  0  0
    1.0460   12.4880   -3.6820 C   0  0  2  0  0  0  0  0  0  0  0  0
    0.3590   10.6130   -2.3460 O   0  0  0  0  0  0  0  0  0  0  0  0
   -1.5680   14.5010   -0.9730 C   0  0  0  0  0  0  0  0  0  0  0  0
    0.6380   13.9070   -4.0610 C   0  0  0  0  0  0  0  0  0  0  0  0
    0.7250   11.6900   -4.8310 O   0  0  0  0  0  0  0  0  0  0  0  0
   -1.8520   14.7270    0.4120 C   0  0  0  0  0  0  0  0  0  0  0  0
   -2.5130   14.7190   -1.9450 N   0  0  0  0  0  0  0  0  0  0  0  0
   -1.0100   14.5580    1.4930 O   0  0  0  0  0  0  0  0  0  0  0  0
   -3.1310   15.1810    0.7460 C   0  0  0  0  0  0  0  0  0  0  0  0
   -3.7320   15.1610   -1.5640 C   0  0  0  0  0  0  0  0  0  0  0  0
   -4.0830   15.4040   -0.2490 C   0  0  0  0  0  0  0  0  0  0  0  0
  1  2  1  0
  2  3  2  0
  1  4  1  0
  4  5  1  0
  4  6  2  0
  2  7  1  0
  5  8  1  6
  5  9  1  0
  7 10  2  0
  7 11  1  0
 10 12  1  0
 10 13  1  0
 11 14  2  0
 13 15  2  0
 14 15  1  0
M  END
