mac-x0131-mac-x0337
     RDKit          3D

 27 31  0  0  0  0  0  0  0  0999 V2000
   -3.1790   15.3590   -4.4550 C   0  0  0  0  0  0  0  0  0  0  0  0
   -2.6750   15.1700   -3.0680 C   0  0  0  0  0  0  0  0  0  0  0  0
   -3.3510   15.2300   -1.8950 C   0  0  0  0  0  0  0  0  0  0  0  0
   -1.3580   14.8920   -2.7380 N   0  0  0  0  0  0  0  0  0  0  0  0
   -4.7370   15.5020   -1.5930 C   0  0  0  0  0  0  0  0  0  0  0  0
   -0.2860   14.7310   -3.6790 C   0  0  0  0  0  0  0  0  0  0  0  0
   -2.4450   14.9660   -0.8360 C   0  0  0  0  0  0  0  0  0  0  0  0
   -1.2120   14.7760   -1.3580 C   0  0  0  0  0  0  0  0  0  0  0  0
   -5.0470   14.7010   -0.0430 S   0  0  1  0  0  0  0  0  0  0  0  0
   -2.6070   14.8830    0.5410 C   0  0  0  0  0  0  0  0  0  0  0  0
   -0.1150   14.5290   -0.6100 N   0  0  0  0  0  0  0  0  0  0  0  0
   -0.0420   13.2870   -3.6620 C   0  0  0  0  0  0  0  0  0  0  0  0
   -3.9500   15.0550    1.0160 N   0  0  0  0  0  0  0  0  0  0  0  0
   -6.4170   15.0120    0.0740 O   0  0  0  0  0  0  0  0  0  0  0  0
   -1.5770   14.6430    1.3640 N   0  0  0  0  0  0  0  0  0  0  0  0
   -0.3980   14.4890    0.7300 C   0  0  0  0  0  0  0  0  0  0  0  0
    1.0530   12.5310   -3.3530 C   0  0  0  0  0  0  0  0  0  0  0  0
   -1.0990   12.4870   -4.0010 O   0  0  0  0  0  0  0  0  0  0  0  0
   -5.0160   13.0370   -0.7230 C   0  0  0  0  0  0  0  0  0  0  0  0
   -0.6660   11.2120   -3.8980 C   0  0  0  0  0  0  0  0  0  0  0  0
    0.6520   11.1960   -3.4990 C   0  0  0  0  0  0  0  0  0  0  0  0
   -3.9560   12.5490   -1.5150 C   0  0  0  0  0  0  0  0  0  0  0  0
   -6.1110   12.2410   -0.4550 C   0  0  0  0  0  0  0  0  0  0  0  0
   -4.0300   11.2490   -2.0330 C   0  0  0  0  0  0  0  0  0  0  0  0
   -6.1770   10.9600   -0.9680 C   0  0  0  0  0  0  0  0  0  0  0  0
   -5.1510   10.4540   -1.7580 C   0  0  0  0  0  0  0  0  0  0  0  0
   -5.2630    9.0580   -2.2940 C   0  0  0  0  0  0  0  0  0  0  0  0
  1  2  1  0
  2  3  2  0
  2  4  1  0
  3  5  1  0
  4  6  1  0
  3  7  1  0
  4  8  1  0
  7  8  2  0
  5  9  1  0
  7 10  1  0
  8 11  1  0
  6 12  1  0
  9 13  2  0
 10 13  1  0
  9 14  2  0
 10 15  2  0
 11 16  2  0
 15 16  1  0
 12 17  2  0
 12 18  1  0
  9 19  1  6
 18 20  1  0
 17 21  1  0
 20 21  2  0
 19 22  2  0
 19 23  1  0
 22 24  1  0
 23 25  2  0
 24 26  2  0
 25 26  1  0
 26 27  1  0
M  END
