mac-x0360-mac-x0142
     RDKit          3D

 28 32  0  0  0  0  0  0  0  0999 V2000
   -8.3670   10.5990    1.3900 Cl  0  0  0  0  0  0  0  0  0  0  0  0
   -7.0850   11.2320    0.4410 C   0  0  0  0  0  0  0  0  0  0  0  0
   -6.5840   10.5380   -0.6560 C   0  0  0  0  0  0  0  0  0  0  0  0
   -6.5700   12.4330    0.8050 C   0  0  0  0  0  0  0  0  0  0  0  0
   -5.5450   12.9850    0.0950 C   0  0  0  0  0  0  0  0  0  0  0  0
   -5.5350   11.0880   -1.3900 C   0  0  0  0  0  0  0  0  0  0  0  0
   -4.9220   10.2100   -2.7410 Cl  0  0  0  0  0  0  0  0  0  0  0  0
   -4.9270   14.5520    0.6610 S   0  0  0  0  0  0  0  0  0  0  0  0
   -5.0000   12.3260   -1.0240 C   0  0  0  0  0  0  0  0  0  0  0  0
   -3.4730   14.0500   -0.0130 N   0  0  0  0  0  0  0  0  0  0  0  0
   -5.2040   15.6190   -0.6020 N   0  0  0  0  0  0  0  0  0  0  0  0
   -3.9320   15.6400   -0.7330 C   0  0  0  0  0  0  0  0  0  0  0  0
   -3.2360   15.7440    0.4820 N   0  0  0  0  0  0  0  0  0  0  0  0
   -3.1780   15.5300   -1.8040 C   0  0  0  0  0  0  0  0  0  0  0  0
   -2.0210   15.6190    0.1470 C   0  0  0  0  0  0  0  0  0  0  0  0
   -1.8640   15.4430   -1.3030 C   0  0  0  0  0  0  0  0  0  0  0  0
   -0.9730   15.6350    0.9910 N   0  0  0  0  0  0  0  0  0  0  0  0
   -0.6790   15.2260   -1.8220 C   0  0  0  0  0  0  0  0  0  0  0  0
   -0.4990   15.0280   -3.1900 N   0  0  0  0  0  0  0  0  0  0  0  0
    0.3590   15.1770   -0.9090 N   0  0  0  0  0  0  0  0  0  0  0  0
    0.1400   15.4230    0.4220 C   0  0  0  0  0  0  0  0  0  0  0  0
   -1.6410   14.6320   -4.0510 C   0  0  0  0  0  0  0  0  0  0  0  0
    0.8280   14.9730   -3.7970 C   0  0  0  0  0  0  0  0  0  0  0  0
    1.0230   13.5900   -4.3670 C   0  0  0  0  0  0  0  0  0  0  0  0
   -1.4370   13.2450   -4.6590 C   0  0  0  0  0  0  0  0  0  0  0  0
    2.4070   13.0530   -4.6150 C   0  0  0  0  0  0  0  0  0  0  0  0
    1.6190   12.5460   -3.4410 C   0  0  0  0  0  0  0  0  0  0  0  0
   -0.0600   13.1440   -5.3150 C   0  0  0  0  0  0  0  0  0  0  0  0
  1  2  1  0
  2  3  2  0
  2  4  1  0
  4  5  2  0
  3  6  1  0
  6  7  1  0
  5  8  1  0
  5  9  1  0
  6  9  2  0
  8 10  1  0
  8 11  2  3
 11 12  1  0
 12 13  1  0
 12 14  2  0
 13 15  2  0
 14 16  1  0
 15 16  1  0
 15 17  1  0
 16 18  2  0
 18 19  1  0
 18 20  1  0
 17 21  2  0
 20 21  1  0
 19 22  1  0
 19 23  1  0
 24 23  1  0
 22 25  1  0
 24 26  1  0
 24 27  1  0
 26 27  1  0
 24 28  1  0
 25 28  1  0
M  END
