mac-x0333-mac-x0226
     RDKit          3D

 27 30  0  0  0  0  0  0  0  0999 V2000
   -2.3160   15.1190   -2.5890 O   0  0  0  0  0  0  0  0  0  0  0  0
   -3.2540   15.0430   -1.5960 C   0  0  0  0  0  0  0  0  0  0  0  0
   -2.8470   14.8470   -0.2410 C   0  0  0  0  0  0  0  0  0  0  0  0
   -4.6070   15.1610   -1.9470 C   0  0  0  0  0  0  0  0  0  0  0  0
   -1.3970   14.6950    0.2270 C   0  0  0  0  0  0  0  0  0  0  0  0
   -5.5340   15.0790   -0.9370 C   0  0  0  0  0  0  0  0  0  0  0  0
   -3.8430   14.7810    0.7470 C   0  0  0  0  0  0  0  0  0  0  0  0
   -0.6480   13.5210   -0.3950 C   0  0  0  0  0  0  0  0  0  0  0  0
   -5.1650   14.8970    0.3700 C   0  0  0  0  0  0  0  0  0  0  0  0
   -6.8870   15.1570   -1.0700 O   0  0  0  0  0  0  0  0  0  0  0  0
    0.0480   13.8280   -1.7200 C   0  0  0  0  0  0  0  0  0  0  0  0
   -6.2440   14.8470    1.1950 O   0  0  0  0  0  0  0  0  0  0  0  0
   -7.2820   14.6570    0.2200 C   0  0  0  0  0  0  0  0  0  0  0  0
    0.9910   12.7930   -2.0470 O   0  0  0  0  0  0  0  0  0  0  0  0
    0.5200   11.6770   -2.6700 C   0  0  0  0  0  0  0  0  0  0  0  0
    0.0760   10.6780   -2.0870 O   0  0  0  0  0  0  0  0  0  0  0  0
    0.6320   11.7450   -4.1180 C   0  0  0  0  0  0  0  0  0  0  0  0
    1.4130   12.6150   -4.9080 C   0  0  0  0  0  0  0  0  0  0  0  0
   -0.0080   10.9440   -5.0460 C   0  0  0  0  0  0  0  0  0  0  0  0
    1.2850   12.3760   -6.2160 N   0  0  0  0  0  0  0  0  0  0  0  0
    0.4080   11.3350   -6.2970 N   0  0  0  0  0  0  0  0  0  0  0  0
    0.0210   10.7640   -7.5470 C   0  0  0  0  0  0  0  0  0  0  0  0
   -1.1410    9.9950   -7.6350 C   0  0  0  0  0  0  0  0  0  0  0  0
    0.7810   10.9470   -8.6960 C   0  0  0  0  0  0  0  0  0  0  0  0
   -1.5180    9.4310   -8.8580 C   0  0  0  0  0  0  0  0  0  0  0  0
    0.4130   10.3900   -9.9130 C   0  0  0  0  0  0  0  0  0  0  0  0
   -0.7410    9.6290   -9.9970 C   0  0  0  0  0  0  0  0  0  0  0  0
  1  2  1  0
  2  3  2  0
  2  4  1  0
  3  5  1  0
  4  6  2  0
  3  7  1  0
  5  8  1  0
  6  9  1  0
  7  9  2  0
  6 10  1  0
  8 11  1  0
  9 12  1  0
 10 13  1  0
 12 13  1  0
 11 14  1  0
 14 15  1  0
 15 16  2  0
 15 17  1  0
 17 18  1  0
 17 19  2  0
 18 20  2  0
 19 21  1  0
 20 21  1  0
 21 22  1  0
 22 23  2  0
 22 24  1  0
 23 25  1  0
 24 26  2  0
 25 27  2  0
 26 27  1  0
M  END
