mac-x0433-mac-x0302
     RDKit          3D

 16 16  0  0  0  0  0  0  0  0999 V2000
   -2.7990   14.7200    0.4880 C   0  0  0  0  0  0  0  0  0  0  0  0
   -4.1310   15.3110   -0.0140 C   0  0  2  0  0  0  0  0  0  0  0  0
   -5.2260   14.7660    0.9090 C   0  0  0  0  0  0  0  0  0  0  0  0
   -4.4240   15.0740   -1.4260 N   0  0  0  0  0  0  0  0  0  0  0  0
   -3.3830   15.2070   -2.4040 C   0  0  0  0  0  0  0  0  0  0  0  0
   -5.7690   15.4240   -1.7830 C   0  0  1  0  0  0  0  0  0  0  0  0
   -6.5440   14.2690    0.2790 C   0  0  1  0  0  0  0  0  0  0  0  0
   -7.7630   14.5220    1.1650 C   0  0  0  0  0  0  0  0  0  0  0  0
   -6.0140   15.0140   -3.1410 N   0  0  0  0  0  0  0  0  0  0  0  0
   -2.1460   14.6560   -2.1130 N   0  0  0  0  0  0  0  0  0  0  0  0
   -3.5430   15.7600   -3.4850 O   0  0  0  0  0  0  0  0  0  0  0  0
   -6.7800   14.7030   -1.1000 N   0  0  0  0  0  0  0  0  0  0  0  0
   -1.1320   14.5950   -3.1670 C   0  0  0  0  0  0  0  0  0  0  0  0
    0.2160   14.0700   -2.6690 C   0  0  0  0  0  0  0  0  0  0  0  0
    1.2140   14.2380   -3.5690 O   0  0  0  0  0  0  0  0  0  0  0  0
    0.4630   13.5410   -1.6020 O   0  0  0  0  0  0  0  0  0  0  0  0
  2  1  1  1
  2  3  1  0
  2  4  1  0
  4  5  1  0
  4  6  1  0
  3  7  1  0
  7  8  1  1
  6  9  1  6
  5 10  1  0
  5 11  2  0
  6 12  1  0
  7 12  1  0
 10 13  1  0
 13 14  1  0
 14 15  1  0
 14 16  2  0
M  END
