mac-x0178-mac-x0328
     RDKit          3D

 23 24  0  0  0  0  0  0  0  0999 V2000
   -0.3330   18.1840   -6.4670 N   0  0  0  0  0  0  0  0  0  0  0  0
   -1.5650   17.4640   -5.5870 S   0  0  0  0  0  0  0  0  0  0  0  0
   -2.5140   17.0260   -6.5950 O   0  0  0  0  0  0  0  0  0  0  0  0
   -1.9230   18.4560   -4.6080 O   0  0  0  0  0  0  0  0  0  0  0  0
   -0.7080   16.0820   -4.8320 C   0  0  0  0  0  0  0  0  0  0  0  0
    0.6860   15.9360   -4.9440 C   0  0  0  0  0  0  0  0  0  0  0  0
   -1.3540   15.1040   -4.0920 C   0  0  0  0  0  0  0  0  0  0  0  0
   -2.6590   15.0860   -3.8210 O   0  0  0  0  0  0  0  0  0  0  0  0
    1.3400   14.8410   -4.3250 C   0  0  0  0  0  0  0  0  0  0  0  0
   -0.7290   14.0350   -3.5050 C   0  0  0  0  0  0  0  0  0  0  0  0
   -2.5900   14.8960   -2.4500 C   0  0  0  0  0  0  0  0  0  0  0  0
    0.6090   13.8870   -3.6040 C   0  0  0  0  0  0  0  0  0  0  0  0
    1.2200   12.7280   -2.9300 C   0  0  0  0  0  0  0  0  0  0  0  0
   -1.5830   14.6940   -1.7730 O   0  0  0  0  0  0  0  0  0  0  0  0
   -3.8990   14.9790   -1.8720 C   0  0  0  0  0  0  0  0  0  0  0  0
    2.1230   12.8440   -2.1350 O   0  0  0  0  0  0  0  0  0  0  0  0
    0.6590   11.5430   -3.2510 O   0  0  0  0  0  0  0  0  0  0  0  0
   -3.9840   14.9610   -0.4820 C   0  0  0  0  0  0  0  0  0  0  0  0
   -5.0240   15.0730   -2.6680 C   0  0  0  0  0  0  0  0  0  0  0  0
   -5.2260   15.0350    0.1190 C   0  0  0  0  0  0  0  0  0  0  0  0
   -6.2650   15.1500   -2.0700 C   0  0  0  0  0  0  0  0  0  0  0  0
   -6.3580   15.1280   -0.6870 C   0  0  0  0  0  0  0  0  0  0  0  0
   -7.6030   15.2000   -0.1540 O   0  0  0  0  0  0  0  0  0  0  0  0
  2  1  1  0
  2  3  2  0
  2  4  2  0
  2  5  1  0
  5  6  2  0
  5  7  1  0
  7  8  1  0
  6  9  1  0
  7 10  2  0
  8 11  1  0
  9 12  2  0
 10 12  1  0
 12 13  1  0
 11 14  2  0
 11 15  1  0
 13 16  2  0
 13 17  1  0
 15 18  2  0
 15 19  1  0
 18 20  1  0
 19 21  2  0
 20 22  2  0
 21 22  1  0
 22 23  1  0
M  END
