mac-x0347-mac-x0282
     RDKit          3D

 20 22  0  0  0  0  0  0  0  0999 V2000
    1.3490   14.7610   -3.7240 O   0  0  0  0  0  0  0  0  0  0  0  0
    0.6360   14.0870   -2.8120 C   0  0  0  0  0  0  0  0  0  0  0  0
    1.1730   13.3460   -2.0110 O   0  0  0  0  0  0  0  0  0  0  0  0
   -0.8180   14.3390   -2.8800 C   0  0  0  0  0  0  0  0  0  0  0  0
   -1.5700   14.0080   -1.7740 C   0  0  0  0  0  0  0  0  0  0  0  0
   -1.4770   14.8820   -3.9760 C   0  0  0  0  0  0  0  0  0  0  0  0
   -2.9460   14.2150   -1.7510 C   0  0  0  0  0  0  0  0  0  0  0  0
   -2.8220   15.1040   -4.0110 N   0  0  0  0  0  0  0  0  0  0  0  0
   -3.5300   14.7680   -2.8980 C   0  0  0  0  0  0  0  0  0  0  0  0
   -3.6500   13.8210   -0.4680 C   0  0  1  0  0  0  0  0  0  0  0  0
   -3.1190   14.8230    0.6340 C   0  0  1  0  0  0  0  0  0  0  0  0
   -5.1630   13.7190   -0.6190 C   0  0  0  0  0  0  0  0  0  0  0  0
   -4.2120   15.2650    1.5890 C   0  0  0  0  0  0  0  0  0  0  0  0
   -6.0050   14.2570    0.2640 C   0  0  0  0  0  0  0  0  0  0  0  0
   -2.0890   14.2150    1.5210 N   0  0  0  0  0  0  0  0  0  0  0  0
   -2.3850   15.8650   -0.1860 C   0  0  0  0  0  0  0  0  0  0  0  0
   -5.5180   14.9810    1.4080 C   0  0  0  0  0  0  0  0  0  0  0  0
   -1.0400   15.9350   -0.3150 C   0  0  0  0  0  0  0  0  0  0  0  0
   -0.7330   14.1900    1.2550 C   0  0  0  0  0  0  0  0  0  0  0  0
   -0.1820   15.0060    0.3640 C   0  0  0  0  0  0  0  0  0  0  0  0
  1  2  1  0
  2  3  2  0
  2  4  1  0
  4  5  2  0
  4  6  1  0
  5  7  1  0
  6  8  2  0
  7  9  2  0
  8  9  1  0
 10  7  1  6
 10 11  1  0
 10 12  1  0
 11 13  1  1
 12 14  2  0
 11 15  1  0
 11 16  1  0
 13 17  2  0
 14 17  1  0
 16 18  2  0
 15 19  1  0
 18 20  1  0
 19 20  2  0
M  END
