mac-x0179-mac-x0472
     RDKit          3D

 32 35  0  0  0  0  0  0  0  0999 V2000
    1.7050   12.8520   -2.2960 O   0  0  0  0  0  0  0  0  0  0  0  0
    1.0920   12.1180   -3.2450 C   0  0  0  0  0  0  0  0  0  0  0  0
    0.7130   10.9870   -2.9700 O   0  0  0  0  0  0  0  0  0  0  0  0
    0.9280   12.7850   -4.6000 C   0  0  0  0  0  0  0  0  0  0  0  0
    0.1330   11.9870   -5.5230 N   0  0  0  0  0  0  0  0  0  0  0  0
    0.7390   11.4490   -6.5940 C   0  0  0  0  0  0  0  0  0  0  0  0
   -1.0110   11.2940   -5.1980 C   0  0  0  0  0  0  0  0  0  0  0  0
    1.7870   11.7560   -7.0640 O   0  0  0  0  0  0  0  0  0  0  0  0
   -1.6760   11.6330   -4.1690 N   0  0  0  0  0  0  0  0  0  0  0  0
   -0.0990   10.3640   -7.0820 C   0  0  0  0  0  0  0  0  0  0  0  0
   -1.1810   10.2500   -6.2290 C   0  0  0  0  0  0  0  0  0  0  0  0
   -1.3390   12.7390   -3.2690 C   0  0  0  0  0  0  0  0  0  0  0  0
    0.1060    9.5590   -8.1880 C   0  0  0  0  0  0  0  0  0  0  0  0
   -2.1340    9.2720   -6.4780 C   0  0  0  0  0  0  0  0  0  0  0  0
   -1.5440   14.0950   -3.9670 C   0  0  0  0  0  0  0  0  0  0  0  0
   -0.8510    8.5750   -8.4420 C   0  0  0  0  0  0  0  0  0  0  0  0
   -1.9610    8.4340   -7.5920 C   0  0  0  0  0  0  0  0  0  0  0  0
   -2.9710   14.4600   -3.9810 N   0  0  0  0  0  0  0  0  0  0  0  0
   -3.6830   14.4330   -2.6310 S   0  0  2  0  0  0  0  0  0  0  0  0
   -4.7010   15.3810   -2.2440 O   0  0  0  0  0  0  0  0  0  0  0  0
   -2.4710   14.7760   -1.5320 N   0  0  0  0  0  0  0  0  0  0  0  0
   -4.3220   12.8070   -2.2690 C   0  0  0  0  0  0  0  0  0  0  0  0
   -2.8050   14.8780   -0.2390 C   0  0  0  0  0  0  0  0  0  0  0  0
   -3.6520   11.6590   -2.7010 C   0  0  0  0  0  0  0  0  0  0  0  0
   -5.5100   12.6890   -1.5420 C   0  0  0  0  0  0  0  0  0  0  0  0
   -2.0160   14.4830    0.7360 N   0  0  0  0  0  0  0  0  0  0  0  0
   -4.3020   15.5290    0.3130 S   0  0  0  0  0  0  0  0  0  0  0  0
   -4.1630   10.4000   -2.4130 C   0  0  0  0  0  0  0  0  0  0  0  0
   -6.0190   11.4230   -1.2550 C   0  0  0  0  0  0  0  0  0  0  0  0
   -3.7680   15.2170    1.8930 C   0  0  0  0  0  0  0  0  0  0  0  0
   -2.5750   14.6780    1.9710 N   0  0  0  0  0  0  0  0  0  0  0  0
   -5.3480   10.2820   -1.6910 C   0  0  0  0  0  0  0  0  0  0  0  0
  1  2  1  0
  2  3  2  0
  2  4  1  0
  4  5  1  0
  5  6  1  0
  5  7  1  0
  6  8  2  0
  7  9  2  3
  6 10  1  0
  7 11  1  0
 10 11  2  0
  9 12  1  0
 10 13  1  0
 11 14  1  0
 12 15  1  0
 13 16  2  0
 14 17  2  0
 16 17  1  0
 15 18  1  0
 18 19  2  0
 19 20  2  0
 19 21  1  1
 19 22  1  0
 21 23  1  0
 22 24  2  0
 22 25  1  0
 23 26  2  0
 23 27  1  0
 24 28  1  0
 25 29  2  0
 27 30  1  0
 26 31  1  0
 30 31  2  0
 28 32  2  0
 29 32  1  0
M  END
