mac-x0453-diamond-x0104_0_A
     RDKit          3D

 24 26  0  0  0  0  0  0  0  0999 V2000
   -6.8600   14.3380    2.2350 N   0  0  0  0  0  0  0  0  0  0  0  0
   -5.5650   14.3120    2.8860 C   0  0  0  0  0  0  0  0  0  0  0  0
   -4.4600   15.2810    2.3570 C   0  0  0  0  0  0  0  0  0  0  0  0
   -7.9680   14.9660    2.9020 C   0  0  0  0  0  0  0  0  0  0  0  0
   -6.5480   14.4050    0.8660 C   0  0  0  0  0  0  0  0  0  0  0  0
   -7.9640   14.9230    4.3010 N   0  0  0  0  0  0  0  0  0  0  0  0
   -8.8600   15.4910    2.2430 O   0  0  0  0  0  0  0  0  0  0  0  0
   -5.3630   13.7990    0.4550 C   0  0  0  0  0  0  0  0  0  0  0  0
   -7.3060   15.0300   -0.1090 C   0  0  0  0  0  0  0  0  0  0  0  0
   -3.8790   15.1570    0.9540 C   0  0  0  0  0  0  0  0  0  0  0  0
   -9.0860   14.9880    5.1320 C   0  0  0  0  0  0  0  0  0  0  0  0
   -4.8950   13.7860   -0.8130 N   0  0  0  0  0  0  0  0  0  0  0  0
   -6.8540   15.0420   -1.4250 C   0  0  0  0  0  0  0  0  0  0  0  0
   -2.7820   14.4200    0.5350 C   0  0  0  0  0  0  0  0  0  0  0  0
   -4.4130   15.8250   -0.1310 N   0  0  0  0  0  0  0  0  0  0  0  0
   -9.0830   15.1350    6.5110 C   0  0  0  0  0  0  0  0  0  0  0  0
  -10.6720   14.8890    4.5270 S   0  0  0  0  0  0  0  0  0  0  0  0
   -5.6540   14.4180   -1.7240 C   0  0  0  0  0  0  0  0  0  0  0  0
   -5.2600   14.4750   -3.0500 O   0  0  0  0  0  0  0  0  0  0  0  0
   -2.6610   14.6550   -0.8090 N   0  0  0  0  0  0  0  0  0  0  0  0
   -3.6660   15.5060   -1.1610 C   0  0  0  0  0  0  0  0  0  0  0  0
  -11.3700   15.0380    6.0830 C   0  0  0  0  0  0  0  0  0  0  0  0
  -10.4090   15.1630    7.0590 C   0  0  0  0  0  0  0  0  0  0  0  0
   -3.8520   14.5700   -3.2750 C   0  0  0  0  0  0  0  0  0  0  0  0
  1  2  1  0
  2  3  1  0
  1  4  1  0
  1  5  1  0
  4  6  1  0
  4  7  2  0
  5  8  2  0
  5  9  1  0
  3 10  1  0
  6 11  1  0
  8 12  1  0
  9 13  2  0
 10 14  2  0
 10 15  1  0
 11 16  2  0
 11 17  1  0
 12 18  2  0
 13 18  1  0
 18 19  1  0
 14 20  1  0
 15 21  2  0
 20 21  1  0
 17 22  1  0
 16 23  1  0
 22 23  2  0
 19 24  1  0
M  END
