mac-x0326-diamond-x0574_0_A
     RDKit          3D

 22 24  0  0  0  0  0  0  0  0999 V2000
   -6.5880   15.3410   -1.8120 Cl  0  0  0  0  0  0  0  0  0  0  0  0
   -4.8130   15.5000   -1.6120 C   0  0  2  0  0  0  0  0  0  0  0  0
   -4.1130   14.9660   -2.8880 C   0  0  0  0  0  0  0  0  0  0  0  0
   -4.3910   14.8130   -0.3030 C   0  0  2  0  0  0  0  0  0  0  0  0
   -5.0690   15.4360    0.8260 O   0  0  0  0  0  0  0  0  0  0  0  0
   -2.6450   14.8430   -2.7280 C   0  0  0  0  0  0  0  0  0  0  0  0
   -2.8160   14.7580   -0.1950 C   0  0  1  0  0  0  0  0  0  0  0  0
   -6.0450   14.6160    1.4980 C   0  0  0  0  0  0  0  0  0  0  0  0
   -1.7920   14.8090   -3.8200 N   0  0  0  0  0  0  0  0  0  0  0  0
   -2.0600   14.7510   -1.5040 C   0  0  0  0  0  0  0  0  0  0  0  0
   -1.9530   15.6130    1.1270 S   0  0  0  0  0  0  0  0  0  0  0  0
   -2.5270   13.4810    0.4640 C   0  0  0  0  0  0  0  0  0  0  0  0
   -0.5440   14.6850   -3.3980 C   0  0  0  0  0  0  0  0  0  0  0  0
   -0.3610   14.6200   -1.6980 S   0  0  0  0  0  0  0  0  0  0  0  0
   -1.0620   13.3470    0.4480 N   0  0  0  0  0  0  0  0  0  0  0  0
   -0.5420   14.5440    0.9610 C   0  0  2  0  0  0  0  0  0  0  0  0
    0.6610   14.5980   -4.2930 C   0  0  0  0  0  0  0  0  0  0  0  0
    0.0960   14.1880    2.1740 N   0  0  0  0  0  0  0  0  0  0  0  0
    1.0310   13.1470   -4.6000 C   0  0  0  0  0  0  0  0  0  0  0  0
    1.0960   12.2870   -3.3620 C   0  0  0  0  0  0  0  0  0  0  0  0
    0.2460   11.2430   -3.3780 O   0  0  0  0  0  0  0  0  0  0  0  0
    1.8240   12.4670   -2.4080 O   0  0  0  0  0  0  0  0  0  0  0  0
  2  1  1  6
  2  3  1  0
  2  4  1  0
  4  5  1  1
  3  6  1  0
  4  7  1  0
  5  8  1  0
  6  9  1  0
  6 10  2  0
  7 10  1  0
  7 11  1  0
  7 12  1  1
  9 13  2  0
 10 14  1  0
 13 14  1  0
 12 15  1  0
 11 16  1  0
 15 16  1  0
 13 17  1  0
 16 18  1  1
 17 19  1  0
 19 20  1  0
 20 21  1  0
 20 22  2  0
M  END
