mac-x0439-mac-x0341
     RDKit          3D

 27 30  0  0  0  0  0  0  0  0999 V2000
   -3.1280   15.6810   -5.4690 Cl  0  0  0  0  0  0  0  0  0  0  0  0
   -1.7640   16.7200   -5.3300 C   0  0  0  0  0  0  0  0  0  0  0  0
   -0.8570   16.5750   -4.1670 C   0  0  1  0  0  0  0  0  0  0  0  0
   -1.5150   17.6750   -6.2410 C   0  0  0  0  0  0  0  0  0  0  0  0
   -0.4480   15.3300   -3.4520 C   0  0  0  0  0  0  0  0  0  0  0  0
    0.5320   17.0350   -4.5180 C   0  0  0  0  0  0  0  0  0  0  0  0
   -0.3480   18.5360   -6.1420 C   0  0  0  0  0  0  0  0  0  0  0  0
    0.8920   15.2910   -3.3680 C   0  0  0  0  0  0  0  0  0  0  0  0
    1.4890   16.3160   -4.0450 N   0  0  0  0  0  0  0  0  0  0  0  0
    0.6850   18.2540   -5.3240 C   0  0  0  0  0  0  0  0  0  0  0  0
    1.7070   14.2800   -2.6270 C   0  0  0  0  0  0  0  0  0  0  0  0
    2.9780   14.2600   -3.0360 O   0  0  0  0  0  0  0  0  0  0  0  0
    1.2890   13.5440   -1.6860 N   0  0  0  0  0  0  0  0  0  0  0  0
   -0.0570   13.5770   -1.1570 C   0  0  0  0  0  0  0  0  0  0  0  0
   -0.4660   14.9710   -0.6530 C   0  0  0  0  0  0  0  0  0  0  0  0
   -1.9600   15.0500   -0.7400 C   0  0  0  0  0  0  0  0  0  0  0  0
   -2.7600   14.8950    0.3990 C   0  0  0  0  0  0  0  0  0  0  0  0
   -2.5620   15.2650   -1.9840 C   0  0  0  0  0  0  0  0  0  0  0  0
   -4.1480   14.9390    0.2880 C   0  0  0  0  0  0  0  0  0  0  0  0
   -3.9390   15.3090   -2.1030 C   0  0  0  0  0  0  0  0  0  0  0  0
   -4.7170   15.1390   -0.9680 C   0  0  0  0  0  0  0  0  0  0  0  0
   -4.9300   14.7750    1.4340 N   0  0  0  0  0  0  0  0  0  0  0  0
   -6.2130   14.7200    1.3120 C   0  0  0  0  0  0  0  0  0  0  0  0
   -6.1780   15.1530   -1.0550 C   0  0  0  0  0  0  0  0  0  0  0  0
   -6.9920   14.5690    2.4120 N   0  0  0  0  0  0  0  0  0  0  0  0
   -6.7580   15.4140   -2.0970 O   0  0  0  0  0  0  0  0  0  0  0  0
   -6.8430   14.8230    0.1010 N   0  0  0  0  0  0  0  0  0  0  0  0
  1  2  1  0
  2  3  1  0
  2  4  2  0
  3  5  1  6
  3  6  1  0
  4  7  1  0
  5  8  2  0
  6  9  2  0
  8  9  1  0
  6 10  1  0
  7 10  2  0
  8 11  1  0
 11 12  1  0
 11 13  2  3
 13 14  1  0
 14 15  1  0
 15 16  1  0
 16 17  2  0
 16 18  1  0
 17 19  1  0
 18 20  2  0
 19 21  2  0
 20 21  1  0
 19 22  1  0
 22 23  2  0
 21 24  1  0
 23 25  1  0
 24 26  2  0
 23 27  1  0
 24 27  1  0
M  END
