mac-x0361-mac-x0321
     RDKit          3D

 12 12  0  0  0  0  0  0  0  0999 V2000
   -6.4660   14.8330    1.7760 N   0  0  0  0  0  0  0  0  0  0  0  0
   -6.6640   14.7040    0.4200 C   0  0  0  0  0  0  0  0  0  0  0  0
   -7.7920   14.5300   -0.0200 O   0  0  0  0  0  0  0  0  0  0  0  0
   -5.4900   14.7870   -0.4900 C   0  0  0  0  0  0  0  0  0  0  0  0
   -4.1910   14.6910   -0.0100 C   0  0  0  0  0  0  0  0  0  0  0  0
   -5.7140   14.9620   -1.8690 C   0  0  0  0  0  0  0  0  0  0  0  0
   -3.1220   14.7640   -0.8930 C   0  0  0  0  0  0  0  0  0  0  0  0
   -4.6310   15.0300   -2.7510 C   0  0  0  0  0  0  0  0  0  0  0  0
   -3.3390   14.9280   -2.2630 C   0  0  0  0  0  0  0  0  0  0  0  0
   -2.2290   14.9810   -3.0930 N   0  0  0  0  0  0  0  0  0  0  0  0
   -1.2080   14.5660   -2.4580 C   0  0  0  0  0  0  0  0  0  0  0  0
   -0.0370   14.5300   -3.0640 O   0  0  0  0  0  0  0  0  0  0  0  0
  1  2  1  0
  2  3  2  0
  2  4  1  0
  4  5  2  0
  4  6  1  0
  5  7  1  0
  6  8  2  0
  7  9  2  0
  8  9  1  0
  9 10  1  0
 10 11  2  3
 11 12  1  0
M  END
