mac-x0213-mac-x0417
     RDKit          3D

 22 25  0  0  0  0  0  0  0  0999 V2000
   -0.8900   11.9760   -3.2380 O   0  0  0  0  0  0  0  0  0  0  0  0
    0.1980   12.8500   -3.4800 C   0  0  0  0  0  0  0  0  0  0  0  0
    0.9120   12.9960   -2.2510 O   0  0  0  0  0  0  0  0  0  0  0  0
    1.1620   12.3330   -4.5290 C   0  0  0  0  0  0  0  0  0  0  0  0
   -0.2180   14.1600   -4.1160 C   0  0  0  0  0  0  0  0  0  0  0  0
   -1.6450   14.6580   -3.9040 C   0  0  0  0  0  0  0  0  0  0  0  0
    0.6720   15.3610   -3.7690 C   0  0  0  0  0  0  0  0  0  0  0  0
    0.6310   11.5400   -5.6930 C   0  0  0  0  0  0  0  0  0  0  0  0
   -1.4540   15.9620   -4.6010 C   0  0  0  0  0  0  0  0  0  0  0  0
   -0.1130   16.3720   -4.5180 C   0  0  0  0  0  0  0  0  0  0  0  0
    1.3830   11.5680   -6.7940 N   0  0  0  0  0  0  0  0  0  0  0  0
   -0.5310   10.7160   -5.8900 C   0  0  0  0  0  0  0  0  0  0  0  0
   -2.3900   16.7240   -5.2590 C   0  0  0  0  0  0  0  0  0  0  0  0
    0.3180   17.5490   -5.0830 C   0  0  0  0  0  0  0  0  0  0  0  0
    0.7490   10.7780   -7.7300 O   0  0  0  0  0  0  0  0  0  0  0  0
   -0.3810   10.2680   -7.1990 C   0  0  0  0  0  0  0  0  0  0  0  0
   -1.6630   10.2840   -5.1750 C   0  0  0  0  0  0  0  0  0  0  0  0
   -1.9650   17.9200   -5.8360 C   0  0  0  0  0  0  0  0  0  0  0  0
   -0.6250   18.3300   -5.7490 C   0  0  0  0  0  0  0  0  0  0  0  0
   -1.2660    9.4190   -7.8580 C   0  0  0  0  0  0  0  0  0  0  0  0
   -2.5780    9.4240   -5.8150 C   0  0  0  0  0  0  0  0  0  0  0  0
   -2.3790    9.0010   -7.1320 C   0  0  0  0  0  0  0  0  0  0  0  0
  2  1  1  0
  2  3  1  0
  2  4  1  0
  2  5  1  0
  5  6  1  0
  5  7  1  0
  4  8  1  0
  6  9  1  0
  7 10  1  0
  9 10  2  0
  8 11  2  0
  8 12  1  0
  9 13  1  0
 10 14  1  0
 11 15  1  0
 12 16  2  0
 15 16  1  0
 12 17  1  0
 13 18  2  0
 14 19  2  0
 18 19  1  0
 16 20  1  0
 17 21  2  0
 20 22  2  0
 21 22  1  0
M  END
