mac-x0472-mac-x0564
     RDKit          3D

 28 32  0  0  0  0  0  0  0  0999 V2000
   -4.7990   14.8330   -4.9670 O   0  0  0  0  0  0  0  0  0  0  0  0
   -3.9690   13.6640   -5.1640 S   0  0  0  0  0  0  0  0  0  0  0  0
   -2.4470   13.7680   -5.3380 N   0  0  0  0  0  0  0  0  0  0  0  0
   -4.3930   12.5000   -3.8610 C   0  0  0  0  0  0  0  0  0  0  0  0
   -3.4610   11.5540   -3.4220 C   0  0  0  0  0  0  0  0  0  0  0  0
   -5.6770   12.5520   -3.2930 C   0  0  0  0  0  0  0  0  0  0  0  0
   -1.7930   14.5900   -4.3090 N   0  0  0  0  0  0  0  0  0  0  0  0
   -3.8370   10.6590   -2.4170 C   0  0  0  0  0  0  0  0  0  0  0  0
   -6.0350   11.6600   -2.2950 C   0  0  0  0  0  0  0  0  0  0  0  0
   -2.4940   14.4660   -3.1360 C   0  0  0  0  0  0  0  0  0  0  0  0
   -0.3950   14.4850   -4.2310 C   0  0  0  0  0  0  0  0  0  0  0  0
   -5.1240   10.7170   -1.8630 C   0  0  0  0  0  0  0  0  0  0  0  0
   -1.6570   14.2240   -1.9040 C   0  0  2  0  0  0  0  0  0  0  0  0
    0.3600   14.0300   -3.2730 N   0  0  0  0  0  0  0  0  0  0  0  0
   -3.8120   14.5030   -2.7650 C   0  0  0  0  0  0  0  0  0  0  0  0
   -0.2930   13.5890   -2.1400 C   0  0  0  0  0  0  0  0  0  0  0  0
   -5.1190   14.7210   -3.3360 C   0  0  0  0  0  0  0  0  0  0  0  0
   -3.9770   14.1900   -1.3500 C   0  0  1  0  0  0  0  0  0  0  0  0
   -2.6450   13.5940   -0.9360 C   0  0  2  0  0  0  0  0  0  0  0  0
    0.2040   12.7550   -1.3590 O   0  0  0  0  0  0  0  0  0  0  0  0
   -2.6620   14.2140    0.3340 C   0  0  0  0  0  0  0  0  0  0  0  0
   -6.0280   15.3750   -2.5800 C   0  0  0  0  0  0  0  0  0  0  0  0
   -4.6520   15.3270   -0.6420 C   0  0  0  0  0  0  0  0  0  0  0  0
   -1.6940   14.8730    0.8260 N   0  0  0  0  0  0  0  0  0  0  0  0
   -4.1250   14.0990    1.2250 S   0  0  0  0  0  0  0  0  0  0  0  0
   -5.6740   15.8730   -1.2750 C   0  0  0  0  0  0  0  0  0  0  0  0
   -3.3230   15.0760    2.3220 C   0  0  0  0  0  0  0  0  0  0  0  0
   -2.1010   15.3690    1.9810 N   0  0  0  0  0  0  0  0  0  0  0  0
  1  2  2  0
  2  3  2  0
  2  4  1  0
  4  5  2  0
  4  6  1  0
  3  7  1  0
  5  8  1  0
  6  9  2  0
  7 10  1  0
  7 11  1  0
  8 12  2  0
  9 12  1  0
 10 13  1  0
 11 14  2  0
 10 15  2  0
 13 16  1  6
 14 16  1  0
 15 17  1  0
 15 18  1  0
 13 19  1  0
 18 19  1  0
 16 20  2  0
 19 21  1  1
 17 22  2  0
 18 23  1  1
 21 24  2  0
 21 25  1  0
 22 26  1  0
 23 26  2  0
 25 27  1  0
 24 28  1  0
 27 28  2  0
M  END
