mac-x0132-mac-x0375
     RDKit          3D

 25 27  0  0  0  0  0  0  0  0999 V2000
   -4.1770   14.7320    1.9770 N   0  0  0  0  0  0  0  0  0  0  0  0
   -5.1810   14.7590    1.0100 C   0  0  0  0  0  0  0  0  0  0  0  0
   -6.4510   14.7350    1.4480 N   0  0  0  0  0  0  0  0  0  0  0  0
   -4.8330   14.8030   -0.3400 C   0  0  0  0  0  0  0  0  0  0  0  0
   -5.9170   14.8390   -1.2190 C   0  0  0  0  0  0  0  0  0  0  0  0
   -7.3980   14.7640    0.5110 C   0  0  0  0  0  0  0  0  0  0  0  0
   -3.5000   14.8010   -0.8410 C   0  0  0  0  0  0  0  0  0  0  0  0
   -7.1940   14.8220   -0.8090 N   0  0  0  0  0  0  0  0  0  0  0  0
   -5.6500   14.8870   -2.5750 C   0  0  0  0  0  0  0  0  0  0  0  0
   -3.2480   14.8250   -2.2230 C   0  0  0  0  0  0  0  0  0  0  0  0
   -1.8530   14.7810   -2.8190 C   0  0  0  0  0  0  0  0  0  0  0  0
   -4.3440   14.8790   -3.0760 C   0  0  0  0  0  0  0  0  0  0  0  0
   -0.6870   14.4090   -1.8810 C   0  0  0  0  0  0  0  0  0  0  0  0
    0.6730   14.3190   -2.5880 C   0  0  0  0  0  0  0  0  0  0  0  0
    1.2360   12.9980   -2.4640 O   0  0  0  0  0  0  0  0  0  0  0  0
    0.8160   12.0780   -3.3830 C   0  0  0  0  0  0  0  0  0  0  0  0
    0.5140   10.9220   -3.0970 O   0  0  0  0  0  0  0  0  0  0  0  0
    0.7710   12.6370   -4.8050 C   0  0  0  0  0  0  0  0  0  0  0  0
    0.7360   11.6810   -5.8560 O   0  0  0  0  0  0  0  0  0  0  0  0
   -0.3490   10.8550   -6.0050 C   0  0  0  0  0  0  0  0  0  0  0  0
   -0.3820    9.6870   -6.7700 C   0  0  0  0  0  0  0  0  0  0  0  0
   -1.5050   11.2460   -5.3190 C   0  0  0  0  0  0  0  0  0  0  0  0
   -1.5490    8.9220   -6.8450 C   0  0  0  0  0  0  0  0  0  0  0  0
   -2.6720   10.4810   -5.3940 C   0  0  0  0  0  0  0  0  0  0  0  0
   -2.6940    9.3190   -6.1570 C   0  0  0  0  0  0  0  0  0  0  0  0
  1  2  1  0
  2  3  2  0
  2  4  1  0
  4  5  2  0
  3  6  1  0
  4  7  1  0
  5  8  1  0
  6  8  2  0
  5  9  1  0
  7 10  2  0
 10 11  1  0
  9 12  2  0
 10 12  1  0
 11 13  1  0
 13 14  1  0
 14 15  1  0
 15 16  1  0
 16 17  2  0
 16 18  1  0
 18 19  1  0
 19 20  1  0
 20 21  2  0
 20 22  1  0
 21 23  1  0
 22 24  2  0
 23 25  2  0
 24 25  1  0
M  END
