mac-x0305-mac-x0263
     RDKit          3D

 19 20  0  0  0  0  0  0  0  0999 V2000
    0.0350   13.0700   -0.3400 O   0  0  0  0  0  0  0  0  0  0  0  0
   -0.5690   13.7280   -1.3540 C   0  0  0  0  0  0  0  0  0  0  0  0
   -0.0810   13.6720   -2.4770 O   0  0  0  0  0  0  0  0  0  0  0  0
   -1.8150   14.5150   -0.9350 C   0  0  2  0  0  0  0  0  0  0  0  0
   -2.2530   14.3980    0.5570 C   0  0  1  0  0  0  0  0  0  0  0  0
   -2.9490   14.2930   -1.8670 N   0  0  0  0  0  0  0  0  0  0  0  0
   -1.2540   14.8880    1.4750 O   0  0  0  0  0  0  0  0  0  0  0  0
   -3.5840   15.1590    0.7970 C   0  0  0  0  0  0  0  0  0  0  0  0
   -4.1040   13.7000   -1.1730 C   0  0  0  0  0  0  0  0  0  0  0  0
   -4.7550   14.5570   -0.0440 C   0  0  2  0  0  0  0  0  0  0  0  0
   -5.6900   15.5820   -0.7200 C   0  0  0  0  0  0  0  0  0  0  0  0
   -5.7320   13.7530    0.8440 N   0  0  0  0  0  0  0  0  0  0  0  0
   -6.8900   14.6340    1.0200 C   0  0  1  0  0  0  0  0  0  0  0  0
   -7.0450   15.1400   -0.3300 N   0  0  0  0  0  0  0  0  0  0  0  0
   -8.2400   14.1620    1.6230 C   0  0  0  0  0  0  0  0  0  0  0  0
   -9.3650   15.2290    1.5260 C   0  0  0  0  0  0  0  0  0  0  0  0
  -10.4480   15.1320    2.5840 C   0  0  0  0  0  0  0  0  0  0  0  0
  -11.1850   14.0030    2.5130 O   0  0  0  0  0  0  0  0  0  0  0  0
  -10.6780   15.9920    3.4280 O   0  0  0  0  0  0  0  0  0  0  0  0
  1  2  1  0
  2  3  2  0
  4  2  1  6
  4  5  1  0
  4  6  1  0
  5  7  1  1
  5  8  1  0
  6  9  1  0
 10  8  1  1
  9 10  1  0
 10 11  1  0
 10 12  1  0
 12 13  1  0
 11 14  1  0
 13 14  1  0
 13 15  1  6
 15 16  1  0
 16 17  1  0
 17 18  1  0
 17 19  2  0
M  END
