mac-x0282-mac-x0142
     RDKit          3D

 16 19  0  0  0  0  0  0  0  0999 V2000
   -4.1610   15.6770   -0.2080 C   0  0  0  0  0  0  0  0  0  0  0  0
   -3.4310   15.2920   -1.4130 C   0  0  0  0  0  0  0  0  0  0  0  0
   -2.2680   14.8030   -0.9520 C   0  0  0  0  0  0  0  0  0  0  0  0
   -3.5400   15.4630    0.8970 N   0  0  0  0  0  0  0  0  0  0  0  0
   -2.3440   14.9160    0.5390 C   0  0  0  0  0  0  0  0  0  0  0  0
   -1.0160   14.1880   -1.5920 C   0  0  1  0  0  0  0  0  0  0  0  0
   -1.4730   14.5740    1.4130 N   0  0  0  0  0  0  0  0  0  0  0  0
   -0.0700   13.8430   -0.4300 C   0  0  0  0  0  0  0  0  0  0  0  0
   -0.3350   14.0430    0.8870 C   0  0  0  0  0  0  0  0  0  0  0  0
   -1.5270   12.9220   -2.3630 C   0  0  0  0  0  0  0  0  0  0  0  0
   -0.1610   14.9690   -2.6690 C   0  0  0  0  0  0  0  0  0  0  0  0
    0.5420   13.9790   -3.6450 C   0  0  0  0  0  0  0  0  0  0  0  0
   -1.7260   13.0900   -3.8920 C   0  0  0  0  0  0  0  0  0  0  0  0
    1.9840   14.1420   -4.1010 C   0  0  0  0  0  0  0  0  0  0  0  0
    1.6570   13.1110   -3.0690 C   0  0  0  0  0  0  0  0  0  0  0  0
   -0.4050   13.3150   -4.6090 C   0  0  0  0  0  0  0  0  0  0  0  0
  1  2  1  0
  2  3  2  0
  1  4  2  0
  3  5  1  0
  4  5  1  0
  3  6  1  0
  5  7  2  0
  6  8  1  1
  7  9  1  0
  8  9  2  0
  6 10  1  0
  6 11  1  0
 12 11  1  0
 10 13  1  0
 12 14  1  0
 12 15  1  0
 14 15  1  0
 12 16  1  0
 13 16  1  0
M  END
