mac-x0510-mac-x0142
     RDKit          3D

 18 21  0  0  0  0  0  0  0  0999 V2000
   -5.7170   15.0700    0.9490 O   0  0  0  0  0  0  0  0  0  0  0  0
   -4.6560   15.2290    0.3600 C   0  0  0  0  0  0  0  0  0  0  0  0
   -4.5970   15.3760   -0.9990 N   0  0  0  0  0  0  0  0  0  0  0  0
   -3.4370   15.2690    0.9820 N   0  0  0  0  0  0  0  0  0  0  0  0
   -2.3390   14.8250    0.3190 C   0  0  0  0  0  0  0  0  0  0  0  0
   -3.4480   15.2940   -1.7400 C   0  0  0  0  0  0  0  0  0  0  0  0
   -3.3790   15.6110   -2.9140 O   0  0  0  0  0  0  0  0  0  0  0  0
   -2.2890   14.8040   -1.0170 C   0  0  0  0  0  0  0  0  0  0  0  0
   -1.2140   14.3630    0.9130 N   0  0  0  0  0  0  0  0  0  0  0  0
   -1.0110   14.2040   -1.5500 C   0  0  1  0  0  0  0  0  0  0  0  0
   -0.4520   14.0210   -0.1050 C   0  0  0  0  0  0  0  0  0  0  0  0
   -1.4080   12.8970   -2.2770 C   0  0  0  0  0  0  0  0  0  0  0  0
   -0.0080   14.9480   -2.4890 C   0  0  0  0  0  0  0  0  0  0  0  0
    0.6200   13.9630   -3.5150 C   0  0  0  0  0  0  0  0  0  0  0  0
   -1.6530   13.0640   -3.7980 C   0  0  0  0  0  0  0  0  0  0  0  0
    2.0600   14.1240   -3.9680 C   0  0  0  0  0  0  0  0  0  0  0  0
    1.7100   13.0210   -3.0200 C   0  0  0  0  0  0  0  0  0  0  0  0
   -0.3580   13.3890   -4.5200 C   0  0  0  0  0  0  0  0  0  0  0  0
  1  2  2  0
  2  3  1  0
  2  4  1  0
  4  5  1  0
  3  6  1  0
  6  7  2  0
  5  8  2  0
  6  8  1  0
  5  9  1  0
  8 10  1  0
  9 11  2  0
 10 11  1  1
 10 12  1  0
 10 13  1  0
 14 13  1  0
 12 15  1  0
 14 16  1  0
 14 17  1  0
 16 17  1  0
 14 18  1  0
 15 18  1  0
M  END
