mac-x0213-diamond-x1018_0_A
     RDKit          3D

 24 27  0  0  0  0  0  0  0  0999 V2000
   -0.0530   11.5350   -2.8970 O   0  0  0  0  0  0  0  0  0  0  0  0
    0.0800   12.9300   -2.6640 C   0  0  0  0  0  0  0  0  0  0  0  0
    1.3350   13.0510   -2.0290 O   0  0  0  0  0  0  0  0  0  0  0  0
   -1.0620   13.2950   -1.6890 C   0  0  0  0  0  0  0  0  0  0  0  0
    0.0910   13.7360   -3.9840 C   0  0  0  0  0  0  0  0  0  0  0  0
   -2.5100   13.3070   -2.2270 C   0  0  0  0  0  0  0  0  0  0  0  0
   -1.3270   14.1680   -4.4230 C   0  0  0  0  0  0  0  0  0  0  0  0
    0.9910   15.0090   -3.9690 C   0  0  0  0  0  0  0  0  0  0  0  0
   -1.1800   15.6000   -4.8080 C   0  0  0  0  0  0  0  0  0  0  0  0
    0.1080   16.0710   -4.5640 C   0  0  0  0  0  0  0  0  0  0  0  0
   -3.1380   14.6300   -2.0640 N   0  0  0  0  0  0  0  0  0  0  0  0
   -2.1620   16.4170   -5.3490 C   0  0  0  0  0  0  0  0  0  0  0  0
    0.4430   17.3820   -4.8660 C   0  0  0  0  0  0  0  0  0  0  0  0
   -2.9460   15.0580   -0.6950 N   0  0  0  0  0  0  0  0  0  0  0  0
   -4.5630   14.6120   -2.3130 N   0  0  0  0  0  0  0  0  0  0  0  0
   -1.8290   17.7340   -5.6550 C   0  0  0  0  0  0  0  0  0  0  0  0
   -0.5390   18.2090   -5.4160 C   0  0  0  0  0  0  0  0  0  0  0  0
   -5.0950   14.7750   -1.0360 N   0  0  0  0  0  0  0  0  0  0  0  0
   -4.0780   14.3840   -0.0930 C   0  0  2  0  0  0  0  0  0  0  0  0
   -6.4260   14.5740   -0.8120 N   0  0  0  0  0  0  0  0  0  0  0  0
   -4.4790   14.7900    1.2650 C   0  0  0  0  0  0  0  0  0  0  0  0
   -6.7450   14.6400    0.4490 C   0  0  0  0  0  0  0  0  0  0  0  0
   -5.7800   14.9080    1.5550 C   0  0  0  0  0  0  0  0  0  0  0  0
   -8.4140   14.4150    0.8340 Cl  0  0  0  0  0  0  0  0  0  0  0  0
  2  1  1  0
  2  3  1  0
  2  4  1  0
  2  5  1  0
  4  6  1  0
  5  7  1  0
  5  8  1  0
  7  9  1  0
  8 10  1  0
  9 10  2  0
  6 11  1  0
  9 12  1  0
 10 13  1  0
 11 14  1  0
 11 15  1  0
 12 16  2  0
 13 17  2  0
 16 17  1  0
 15 18  1  0
 14 19  1  0
 18 19  1  0
 18 20  1  0
 19 21  1  1
 20 22  2  0
 21 23  2  0
 22 23  1  0
 22 24  1  0
M  END
