mac-x0193-mac-x0282
     RDKit          3D

 24 26  0  0  0  0  0  0  0  0999 V2000
    0.6220   11.2300   -2.9290 O   0  0  0  0  0  0  0  0  0  0  0  0
    0.7910   12.4720   -3.4520 C   0  0  0  0  0  0  0  0  0  0  0  0
    0.9270   13.5600   -2.7580 N   0  0  0  0  0  0  0  0  0  0  0  0
    0.8270   12.5730   -4.9700 C   0  0  0  0  0  0  0  0  0  0  0  0
    0.1750   11.4670   -5.6550 N   0  0  0  0  0  0  0  0  0  0  0  0
    0.9220   13.4960   -1.2990 C   0  0  0  0  0  0  0  0  0  0  0  0
    0.6670   11.1570   -6.8900 C   0  0  0  0  0  0  0  0  0  0  0  0
   -0.3070   14.0090   -0.5920 C   0  0  0  0  0  0  0  0  0  0  0  0
    1.7410   11.5750   -7.2210 O   0  0  0  0  0  0  0  0  0  0  0  0
   -0.1640   10.3580   -7.6400 N   0  0  0  0  0  0  0  0  0  0  0  0
   -1.4160   14.4120   -1.3290 C   0  0  0  0  0  0  0  0  0  0  0  0
   -0.3880   14.0850    0.8150 C   0  0  0  0  0  0  0  0  0  0  0  0
    0.2340    9.6120   -8.8500 C   0  0  0  0  0  0  0  0  0  0  0  0
   -2.5410   14.8490   -0.6310 C   0  0  0  0  0  0  0  0  0  0  0  0
   -1.4470   14.5050    1.5540 N   0  0  0  0  0  0  0  0  0  0  0  0
    1.3400    8.6030   -8.5280 C   0  0  0  0  0  0  0  0  0  0  0  0
    0.5630   10.5040  -10.0570 C   0  0  0  0  0  0  0  0  0  0  0  0
   -3.8240   15.3140   -1.0050 C   0  0  0  0  0  0  0  0  0  0  0  0
   -2.4800   14.8620    0.7630 C   0  0  0  0  0  0  0  0  0  0  0  0
    2.0450    8.0730   -9.7820 C   0  0  0  0  0  0  0  0  0  0  0  0
    0.7820    9.6850  -11.3300 C   0  0  0  0  0  0  0  0  0  0  0  0
   -4.5100   15.5870    0.1500 C   0  0  0  0  0  0  0  0  0  0  0  0
   -3.6840   15.3090    1.2140 N   0  0  0  0  0  0  0  0  0  0  0  0
    1.1910    8.2380  -11.0370 C   0  0  0  0  0  0  0  0  0  0  0  0
  1  2  1  0
  2  3  2  3
  2  4  1  0
  4  5  1  0
  3  6  1  0
  5  7  1  0
  6  8  1  0
  7  9  2  0
  7 10  1  0
  8 11  2  0
  8 12  1  0
 10 13  1  0
 11 14  1  0
 12 15  2  0
 13 16  1  0
 13 17  1  0
 14 18  1  0
 14 19  2  0
 15 19  1  0
 16 20  1  0
 17 21  1  0
 18 22  2  0
 19 23  1  0
 22 23  1  0
 20 24  1  0
 21 24  1  0
M  END
