mac-x0455-mac-x0224
     RDKit          3D

 20 22  0  0  0  0  0  0  0  0999 V2000
   -2.2560   13.0330   -2.6620 C   0  0  0  0  0  0  0  0  0  0  0  0
   -1.0860   13.6340   -3.4770 C   0  0  1  0  0  0  0  0  0  0  0  0
   -1.6600   14.8560   -3.9710 O   0  0  0  0  0  0  0  0  0  0  0  0
   -0.1050   14.1280   -2.3660 C   0  0  0  0  0  0  0  0  0  0  0  0
   -0.8080   12.6440   -4.5870 C   0  0  0  0  0  0  0  0  0  0  0  0
    0.7350   15.2330   -2.6630 O   0  0  0  0  0  0  0  0  0  0  0  0
    0.6520   13.1750   -1.6590 O   0  0  0  0  0  0  0  0  0  0  0  0
   -1.7980   11.6590   -4.7620 C   0  0  0  0  0  0  0  0  0  0  0  0
    0.3050   12.6190   -5.4250 C   0  0  0  0  0  0  0  0  0  0  0  0
   -1.3580   14.5910   -1.7140 C   0  0  0  0  0  0  0  0  0  0  0  0
   -2.2340   14.9990   -2.7420 C   0  0  0  0  0  0  0  0  0  0  0  0
   -1.6860   10.6790   -5.7310 C   0  0  0  0  0  0  0  0  0  0  0  0
    0.4190   11.6300   -6.4030 C   0  0  0  0  0  0  0  0  0  0  0  0
   -1.7400   14.6520   -0.3980 C   0  0  0  0  0  0  0  0  0  0  0  0
   -3.4980   15.4620   -2.5030 C   0  0  0  0  0  0  0  0  0  0  0  0
   -0.5730   10.6630   -6.5550 C   0  0  0  0  0  0  0  0  0  0  0  0
   -3.0250   15.1270   -0.1250 C   0  0  0  0  0  0  0  0  0  0  0  0
   -3.9000   15.5270   -1.1650 C   0  0  0  0  0  0  0  0  0  0  0  0
   -3.5660   15.2340    1.5590 S   0  0  0  0  0  0  0  0  0  0  0  0
   -5.3090   14.8050    1.3670 C   0  0  0  0  0  0  0  0  0  0  0  0
  2  1  1  1
  2  3  1  0
  2  4  1  0
  2  5  1  0
  4  6  1  0
  4  7  1  0
  5  8  2  0
  5  9  1  0
  4 10  1  0
  3 11  1  0
 10 11  2  0
  8 12  1  0
  9 13  2  0
 10 14  1  0
 11 15  1  0
 12 16  2  0
 13 16  1  0
 14 17  2  0
 15 18  2  0
 17 18  1  0
 17 19  1  0
 19 20  1  0
M  END
