mac-x0213-diamond-x0950_1_A
     RDKit          3D

 15 16  0  0  0  0  0  0  0  0999 V2000
   -0.7020   11.9640   -2.9930 O   0  0  0  0  0  0  0  0  0  0  0  0
    0.3270   12.9260   -3.1710 C   0  0  0  0  0  0  0  0  0  0  0  0
    0.8160   13.2890   -1.8850 O   0  0  0  0  0  0  0  0  0  0  0  0
    1.4210   12.3130   -4.0300 C   0  0  2  0  0  0  0  0  0  0  0  0
   -0.1120   14.1380   -3.9560 C   0  0  0  0  0  0  0  0  0  0  0  0
    2.1750   13.3210   -4.8730 C   0  0  0  0  0  0  0  0  0  0  0  0
    0.7170   11.4310   -4.9340 O   0  0  0  0  0  0  0  0  0  0  0  0
   -1.5630   14.5990   -3.8080 C   0  0  0  0  0  0  0  0  0  0  0  0
    0.7320   15.3930   -3.6900 C   0  0  0  0  0  0  0  0  0  0  0  0
   -1.4110   15.8960   -4.5490 C   0  0  0  0  0  0  0  0  0  0  0  0
   -0.0840   16.3480   -4.4740 C   0  0  0  0  0  0  0  0  0  0  0  0
   -2.3690   16.6110   -5.2330 C   0  0  0  0  0  0  0  0  0  0  0  0
    0.3110   17.5240   -5.0740 C   0  0  0  0  0  0  0  0  0  0  0  0
   -1.9770   17.8030   -5.8450 C   0  0  0  0  0  0  0  0  0  0  0  0
   -0.6510   18.2560   -5.7660 C   0  0  0  0  0  0  0  0  0  0  0  0
  2  1  1  0
  2  3  1  0
  2  4  1  0
  2  5  1  0
  4  6  1  6
  4  7  1  0
  5  8  1  0
  5  9  1  0
  8 10  1  0
  9 11  1  0
 10 11  2  0
 10 12  1  0
 11 13  1  0
 12 14  2  0
 13 15  2  0
 14 15  1  0
M  END
