mac-x0576-diamond-x0628_0_A
     RDKit          3D

 27 29  0  0  0  0  0  0  0  0999 V2000
   -0.0380   14.0050    1.6530 N   0  0  0  0  0  0  0  0  0  0  0  0
   -0.8860   14.8050    0.8230 C   0  0  2  0  0  0  0  0  0  0  0  0
   -2.1070   14.6930    1.5750 N   0  0  0  0  0  0  0  0  0  0  0  0
   -0.8800   14.5080   -0.5700 N   0  0  0  0  0  0  0  0  0  0  0  0
   -1.9830   14.8650   -1.3130 C   0  0  0  0  0  0  0  0  0  0  0  0
   -3.2450   14.3830    0.7430 C   0  0  2  0  0  0  0  0  0  0  0  0
   -1.9200   14.9800   -2.5800 N   0  0  0  0  0  0  0  0  0  0  0  0
   -3.2750   15.1330   -0.5740 C   0  0  2  0  0  0  0  0  0  0  0  0
   -4.4120   14.7820    1.4610 N   0  0  0  0  0  0  0  0  0  0  0  0
   -0.7960   14.7670   -3.4400 C   0  0  0  0  0  0  0  0  0  0  0  0
   -5.6090   14.9220    0.7940 C   0  0  0  0  0  0  0  0  0  0  0  0
   -4.4130   14.7170   -1.3990 N   0  0  0  0  0  0  0  0  0  0  0  0
   -6.6660   14.7810    1.4010 O   0  0  0  0  0  0  0  0  0  0  0  0
   -1.4930   14.1370   -4.6290 C   0  0  0  0  0  0  0  0  0  0  0  0
   -5.5890   15.2550   -0.7070 C   0  0  0  0  0  0  0  0  0  0  0  0
   -1.9580   12.7200   -4.3010 C   0  0  0  0  0  0  0  0  0  0  0  0
   -1.4380   11.8550   -5.3670 C   0  0  0  0  0  0  0  0  0  0  0  0
   -2.0720   10.8760   -5.9750 N   0  0  0  0  0  0  0  0  0  0  0  0
   -0.1790   11.9860   -5.8810 N   0  0  0  0  0  0  0  0  0  0  0  0
    0.8900   12.9220   -5.5290 C   0  0  0  0  0  0  0  0  0  0  0  0
   -1.1530   10.4370   -6.8780 C   0  0  0  0  0  0  0  0  0  0  0  0
    0.0190   11.0910   -6.8540 N   0  0  0  0  0  0  0  0  0  0  0  0
   -1.4290    9.3230   -7.8100 C   0  0  0  0  0  0  0  0  0  0  0  0
    1.8850   12.4000   -4.4950 C   0  0  0  0  0  0  0  0  0  0  0  0
    1.2220   11.9450   -3.2270 C   0  0  0  0  0  0  0  0  0  0  0  0
    0.5520   10.9410   -3.0540 O   0  0  0  0  0  0  0  0  0  0  0  0
    1.4510   12.7910   -2.2080 O   0  0  0  0  0  0  0  0  0  0  0  0
  2  1  1  1
  2  3  1  0
  2  4  1  0
  4  5  1  0
  6  3  1  1
  5  7  2  3
  5  8  1  0
  6  8  1  0
  6  9  1  0
  7 10  1  0
  9 11  1  0
  8 12  1  6
 11 13  2  0
 10 14  1  0
 11 15  1  0
 12 15  1  0
 14 16  1  0
 16 17  1  0
 17 18  2  0
 17 19  1  0
 19 20  1  0
 18 21  1  0
 19 22  1  0
 21 22  2  0
 21 23  1  0
 20 24  1  0
 24 25  1  0
 25 26  2  0
 25 27  1  0
M  END
