mac-x0213-mac-x0124
     RDKit          3D

 23 26  0  0  0  0  0  0  0  0999 V2000
   -0.5280   11.3600   -3.9390 O   0  0  0  0  0  0  0  0  0  0  0  0
    0.1690   12.4870   -3.6950 C   0  0  0  0  0  0  0  0  0  0  0  0
    0.9620   12.5420   -2.7600 O   0  0  0  0  0  0  0  0  0  0  0  0
   -0.1360   13.6340   -4.6690 C   0  0  1  0  0  0  0  0  0  0  0  0
   -1.6390   14.0260   -4.9040 C   0  0  0  0  0  0  0  0  0  0  0  0
    0.1530   14.8750   -3.9190 C   0  0  2  0  0  0  0  0  0  0  0  0
    0.5080   14.8370   -2.5040 C   0  0  0  0  0  0  0  0  0  0  0  0
   -1.5340   15.5480   -5.1530 C   0  0  0  0  0  0  0  0  0  0  0  0
   -0.3760   16.0500   -4.5860 C   0  0  0  0  0  0  0  0  0  0  0  0
   -2.3830   16.4070   -5.8320 C   0  0  0  0  0  0  0  0  0  0  0  0
    0.0360   17.3610   -4.6820 C   0  0  0  0  0  0  0  0  0  0  0  0
   -0.8110   14.8670   -1.8780 N   0  0  0  0  0  0  0  0  0  0  0  0
   -2.0050   17.7510   -5.9430 C   0  0  0  0  0  0  0  0  0  0  0  0
   -0.8040   18.2240   -5.3830 C   0  0  0  0  0  0  0  0  0  0  0  0
   -2.0570   15.0010   -2.4960 C   0  0  0  0  0  0  0  0  0  0  0  0
   -0.9800   14.7680   -0.5670 C   0  0  0  0  0  0  0  0  0  0  0  0
   -3.0220   15.0000   -1.5140 C   0  0  0  0  0  0  0  0  0  0  0  0
   -2.3320   14.8570   -0.2820 C   0  0  0  0  0  0  0  0  0  0  0  0
    0.0390   14.6180    0.2590 N   0  0  0  0  0  0  0  0  0  0  0  0
   -2.6660   14.7950    1.0560 C   0  0  0  0  0  0  0  0  0  0  0  0
   -0.4040   14.5490    1.5090 C   0  0  0  0  0  0  0  0  0  0  0  0
   -3.9660   14.9000    1.5030 N   0  0  0  0  0  0  0  0  0  0  0  0
   -1.6690   14.6300    1.9410 N   0  0  0  0  0  0  0  0  0  0  0  0
  1  2  1  0
  2  3  2  0
  4  2  1  1
  4  5  1  0
  4  6  1  0
  6  7  1  1
  5  8  1  0
  6  9  1  0
  8  9  2  0
  8 10  1  0
  9 11  1  0
  7 12  1  0
 10 13  2  0
 11 14  2  0
 13 14  1  0
 12 15  1  0
 12 16  1  0
 15 17  2  0
 16 18  2  0
 17 18  1  0
 16 19  1  0
 18 20  1  0
 19 21  2  0
 20 22  1  0
 20 23  2  0
 21 23  1  0
M  END
