mac-x0394-mac-x0188
     RDKit          3D

 24 26  0  0  0  0  0  0  0  0999 V2000
    1.2120   18.4790   -5.3170 Cl  0  0  0  0  0  0  0  0  0  0  0  0
    0.2890   17.1180   -4.9300 C   0  0  0  0  0  0  0  0  0  0  0  0
   -0.9990   17.1400   -5.4280 C   0  0  0  0  0  0  0  0  0  0  0  0
    0.8120   16.0480   -4.1660 C   0  0  0  0  0  0  0  0  0  0  0  0
   -0.0520   14.9790   -3.9240 C   0  0  0  0  0  0  0  0  0  0  0  0
   -1.8120   16.0770   -5.1780 C   0  0  0  0  0  0  0  0  0  0  0  0
   -3.4100   15.9890   -5.7690 Cl  0  0  0  0  0  0  0  0  0  0  0  0
    0.0710   13.6580   -3.1970 C   0  0  2  0  0  0  0  0  0  0  0  0
   -1.3360   15.0350   -4.4420 C   0  0  0  0  0  0  0  0  0  0  0  0
    1.1680   13.2190   -2.2320 C   0  0  0  0  0  0  0  0  0  0  0  0
   -0.3580   12.8280   -4.3610 C   0  0  1  0  0  0  0  0  0  0  0  0
    0.8140   11.9720   -1.6720 O   0  0  0  0  0  0  0  0  0  0  0  0
    2.4090   13.0550   -2.8150 O   0  0  0  0  0  0  0  0  0  0  0  0
    1.3000   14.2280   -1.2360 O   0  0  0  0  0  0  0  0  0  0  0  0
   -1.1320   11.6880   -4.0620 O   0  0  0  0  0  0  0  0  0  0  0  0
   -1.3430   13.7340   -5.0270 C   0  0  0  0  0  0  0  0  0  0  0  0
   -2.5480   12.0690   -4.0290 N   0  0  0  0  0  0  0  0  0  0  0  0
   -2.6210   13.5170   -4.1890 C   0  0  1  0  0  0  0  0  0  0  0  0
   -3.0530   14.2260   -2.8690 C   0  0  0  0  0  0  0  0  0  0  0  0
   -4.2750   14.9280   -2.9060 C   0  0  0  0  0  0  0  0  0  0  0  0
   -2.3720   14.2310   -1.6260 C   0  0  0  0  0  0  0  0  0  0  0  0
   -4.7960   15.5860   -1.7910 C   0  0  0  0  0  0  0  0  0  0  0  0
   -2.9010   14.8980   -0.5050 C   0  0  0  0  0  0  0  0  0  0  0  0
   -4.1140   15.5750   -0.5870 C   0  0  0  0  0  0  0  0  0  0  0  0
  1  2  1  0
  2  3  2  0
  2  4  1  0
  4  5  2  0
  3  6  1  0
  6  7  1  0
  5  8  1  0
  5  9  1  0
  6  9  2  0
  8 10  1  6
  8 11  1  0
 10 12  1  0
 10 13  1  0
 10 14  1  0
 11 15  1  0
 11 16  1  6
 15 17  1  0
 16 18  1  0
 17 18  1  0
 18 19  1  1
 19 20  2  0
 19 21  1  0
 20 22  1  0
 21 23  2  0
 22 24  2  0
 23 24  1  0
M  END
