mac-x0346-mac-x0415
     RDKit          3D

 27 29  0  0  0  0  0  0  0  0999 V2000
   -7.6190   13.9920    1.0710 O   0  0  0  0  0  0  0  0  0  0  0  0
   -7.6860   15.0300    0.1060 N   0  0  0  0  0  0  0  0  0  0  0  0
   -6.7110   15.0630   -0.8650 C   0  0  0  0  0  0  0  0  0  0  0  0
   -7.0120   15.0820   -2.0500 O   0  0  0  0  0  0  0  0  0  0  0  0
   -5.2680   15.0570   -0.4470 C   0  0  0  0  0  0  0  0  0  0  0  0
   -4.1890   15.1680   -1.3550 C   0  0  0  0  0  0  0  0  0  0  0  0
   -5.0000   14.9300    0.9370 C   0  0  0  0  0  0  0  0  0  0  0  0
   -4.4070   15.3190   -2.7180 O   0  0  0  0  0  0  0  0  0  0  0  0
   -2.8860   15.1280   -0.8490 C   0  0  0  0  0  0  0  0  0  0  0  0
   -3.6820   14.9070    1.4030 C   0  0  0  0  0  0  0  0  0  0  0  0
   -5.0860   14.3370   -3.5150 C   0  0  0  0  0  0  0  0  0  0  0  0
   -2.6350   15.0010    0.5180 C   0  0  0  0  0  0  0  0  0  0  0  0
   -4.4420   14.2520   -4.9140 C   0  0  0  0  0  0  0  0  0  0  0  0
   -3.9410   15.5540   -5.3150 O   0  0  0  0  0  0  0  0  0  0  0  0
   -2.5750   15.7010   -5.1810 C   0  0  0  0  0  0  0  0  0  0  0  0
   -1.9990   16.9700   -5.6600 C   0  0  0  0  0  0  0  0  0  0  0  0
   -1.7970   14.7310   -4.6420 C   0  0  0  0  0  0  0  0  0  0  0  0
   -0.3900   14.9760   -4.5420 C   0  0  0  0  0  0  0  0  0  0  0  0
   -0.7420   17.3210   -5.3150 C   0  0  0  0  0  0  0  0  0  0  0  0
    0.6670   14.1590   -4.5020 C   0  0  0  0  0  0  0  0  0  0  0  0
    0.0160   16.3980   -4.4280 C   0  0  2  0  0  0  0  0  0  0  0  0
    0.8490   12.6940   -4.5300 C   0  0  0  0  0  0  0  0  0  0  0  0
    1.7470   15.1320   -4.4290 C   0  0  0  0  0  0  0  0  0  0  0  0
    1.4540   16.3920   -4.4280 N   0  0  0  0  0  0  0  0  0  0  0  0
    0.7100   12.1660   -3.1170 C   0  0  0  0  0  0  0  0  0  0  0  0
   -0.0660   11.0630   -3.0490 O   0  0  0  0  0  0  0  0  0  0  0  0
    1.2050   12.6280   -2.1020 O   0  0  0  0  0  0  0  0  0  0  0  0
  1  2  1  0
  2  3  1  0
  3  4  2  0
  3  5  1  0
  5  6  2  0
  5  7  1  0
  6  8  1  0
  6  9  1  0
  7 10  2  0
  8 11  1  0
  9 12  2  0
 10 12  1  0
 11 13  1  0
 13 14  1  0
 14 15  1  0
 15 16  1  0
 15 17  2  0
 17 18  1  0
 16 19  2  0
 18 20  2  0
 18 21  1  0
 21 19  1  6
 20 22  1  0
 20 23  1  0
 21 24  1  0
 23 24  2  0
 22 25  1  0
 25 26  1  0
 25 27  2  0
M  END
