mac-x0455-mac-x0344
     RDKit          3D

 23 24  0  0  0  0  0  0  0  0999 V2000
   -2.5050   15.0390   -2.9320 C   0  0  0  0  0  0  0  0  0  0  0  0
   -1.1480   14.8780   -3.6430 C   0  0  1  0  0  0  0  0  0  0  0  0
   -0.8650   16.1390   -4.2610 O   0  0  0  0  0  0  0  0  0  0  0  0
   -0.0790   14.4730   -2.5580 C   0  0  0  0  0  0  0  0  0  0  0  0
   -1.2010   13.7780   -4.7470 C   0  0  0  0  0  0  0  0  0  0  0  0
    0.6340   15.1780   -1.8480 O   0  0  0  0  0  0  0  0  0  0  0  0
   -0.1560   13.1500   -2.6250 N   0  0  0  0  0  0  0  0  0  0  0  0
   -2.3870   13.0740   -5.0520 C   0  0  0  0  0  0  0  0  0  0  0  0
   -0.0620   13.4320   -5.4980 C   0  0  0  0  0  0  0  0  0  0  0  0
    0.6180   12.6100   -3.4600 C   0  0  0  0  0  0  0  0  0  0  0  0
   -2.4300   12.0840   -6.0310 C   0  0  0  0  0  0  0  0  0  0  0  0
   -0.1020   12.4390   -6.4830 C   0  0  0  0  0  0  0  0  0  0  0  0
    1.6000   13.1630   -4.1950 O   0  0  0  0  0  0  0  0  0  0  0  0
    0.3800   11.1890   -3.7680 C   0  0  0  0  0  0  0  0  0  0  0  0
   -1.2900   11.7660   -6.7460 C   0  0  0  0  0  0  0  0  0  0  0  0
    0.3070   10.3730   -2.8570 O   0  0  0  0  0  0  0  0  0  0  0  0
    0.2360   10.9010   -5.1030 N   0  0  0  0  0  0  0  0  0  0  0  0
   -0.6120   10.1270   -5.9010 C   0  0  0  0  0  0  0  0  0  0  0  0
   -0.3400    9.6970   -7.2010 C   0  0  0  0  0  0  0  0  0  0  0  0
   -1.8200    9.7760   -5.3300 C   0  0  0  0  0  0  0  0  0  0  0  0
   -1.2790    8.9330   -7.9000 C   0  0  0  0  0  0  0  0  0  0  0  0
   -2.7650    9.0180   -6.0150 C   0  0  0  0  0  0  0  0  0  0  0  0
   -2.4940    8.5940   -7.3080 C   0  0  0  0  0  0  0  0  0  0  0  0
  2  1  1  1
  2  3  1  0
  2  4  1  0
  2  5  1  0
  4  6  2  0
  4  7  1  0
  5  8  2  0
  5  9  1  0
  7 10  2  3
  8 11  1  0
  9 12  2  0
 10 13  1  0
 10 14  1  0
 11 15  2  0
 12 15  1  0
 14 16  2  0
 14 17  1  0
 17 18  1  0
 18 19  2  0
 18 20  1  0
 19 21  1  0
 20 22  2  0
 21 23  2  0
 22 23  1  0
M  END
