mac-x0190-diamond-x0844_0_A
     RDKit          3D

 13 14  0  0  0  0  0  0  0  0999 V2000
   -9.3250   15.2030    2.7650 O   0  0  0  0  0  0  0  0  0  0  0  0
   -8.9920   14.2170    1.8060 C   0  0  0  0  0  0  0  0  0  0  0  0
   -7.6360   14.4730    1.1960 C   0  0  0  0  0  0  0  0  0  0  0  0
   -7.5210   14.5050   -0.1700 N   0  0  0  0  0  0  0  0  0  0  0  0
   -6.5500   14.6830    1.8970 N   0  0  0  0  0  0  0  0  0  0  0  0
   -6.2610   14.7380   -0.3230 C   0  0  0  0  0  0  0  0  0  0  0  0
   -5.5850   14.8350    0.9450 C   0  0  0  0  0  0  0  0  0  0  0  0
   -5.5380   14.8970   -1.5700 C   0  0  0  0  0  0  0  0  0  0  0  0
   -4.2650   15.0300    0.9970 C   0  0  0  0  0  0  0  0  0  0  0  0
   -6.2120   14.8850   -2.5660 O   0  0  0  0  0  0  0  0  0  0  0  0
   -4.0570   15.0460   -1.4600 C   0  0  0  0  0  0  0  0  0  0  0  0
   -3.4950   15.1150   -0.2300 C   0  0  0  0  0  0  0  0  0  0  0  0
   -3.0640   15.0910   -3.0320 Br  0  0  0  0  0  0  0  0  0  0  0  0
  1  2  1  0
  2  3  1  0
  3  4  1  0
  3  5  2  0
  4  6  2  0
  5  7  1  0
  6  7  1  0
  6  8  1  0
  7  9  2  0
  8 10  2  0
  8 11  1  0
  9 12  1  0
 11 12  2  0
 11 13  1  0
M  END
