mac-x0179-diamond-x0685_0_A
     RDKit          3D

 28 30  0  0  0  0  0  0  0  0999 V2000
    1.4780   12.8550   -2.2270 O   0  0  0  0  0  0  0  0  0  0  0  0
    0.9480   12.0670   -3.1970 C   0  0  0  0  0  0  0  0  0  0  0  0
    0.5780   10.9310   -2.9450 O   0  0  0  0  0  0  0  0  0  0  0  0
    0.8840   12.7410   -4.5680 C   0  0  0  0  0  0  0  0  0  0  0  0
    0.1620   11.9010   -5.5100 N   0  0  0  0  0  0  0  0  0  0  0  0
    0.7650   11.4000   -6.5970 C   0  0  0  0  0  0  0  0  0  0  0  0
   -1.1340   11.4740   -5.4280 C   0  0  0  0  0  0  0  0  0  0  0  0
    1.7990   11.7390   -7.0730 O   0  0  0  0  0  0  0  0  0  0  0  0
   -1.9430   12.0790   -4.6650 N   0  0  0  0  0  0  0  0  0  0  0  0
   -0.0700   10.3120   -7.0770 C   0  0  0  0  0  0  0  0  0  0  0  0
   -1.2520   10.3310   -6.3520 C   0  0  0  0  0  0  0  0  0  0  0  0
   -1.5760   13.2370   -3.8670 C   0  0  0  0  0  0  0  0  0  0  0  0
    0.2030    9.3850   -8.0680 C   0  0  0  0  0  0  0  0  0  0  0  0
   -2.2280    9.3840   -6.6010 C   0  0  0  0  0  0  0  0  0  0  0  0
   -2.2820   14.5180   -4.3160 C   0  0  0  0  0  0  0  0  0  0  0  0
   -0.7780    8.4300   -8.3280 C   0  0  0  0  0  0  0  0  0  0  0  0
   -1.9820    8.4260   -7.6000 C   0  0  0  0  0  0  0  0  0  0  0  0
   -3.0670   14.9430   -3.1730 C   0  0  0  0  0  0  0  0  0  0  0  0
   -3.6390   15.0900   -2.1550 C   0  0  0  0  0  0  0  0  0  0  0  0
   -4.2710   15.0710   -0.8980 C   0  0  0  0  0  0  0  0  0  0  0  0
   -3.5310   15.1850    0.2700 C   0  0  0  0  0  0  0  0  0  0  0  0
   -5.6350   14.9270   -0.8060 C   0  0  0  0  0  0  0  0  0  0  0  0
   -4.2010   15.1560    1.4840 C   0  0  0  0  0  0  0  0  0  0  0  0
   -6.3050   14.8930    0.3600 N   0  0  0  0  0  0  0  0  0  0  0  0
   -5.5820   15.0130    1.4900 C   0  0  0  0  0  0  0  0  0  0  0  0
   -6.3400   14.9940    2.6520 N   0  0  0  0  0  0  0  0  0  0  0  0
   -7.7690   14.7760    2.5790 C   0  0  0  0  0  0  0  0  0  0  0  0
   -8.1250   13.3540    2.9850 C   0  0  0  0  0  0  0  0  0  0  0  0
  1  2  1  0
  2  3  2  0
  2  4  1  0
  4  5  1  0
  5  6  1  0
  5  7  1  0
  6  8  2  0
  7  9  2  3
  6 10  1  0
  7 11  1  0
 10 11  2  0
  9 12  1  0
 10 13  1  0
 11 14  1  0
 12 15  1  0
 13 16  2  0
 14 17  2  0
 16 17  1  0
 15 18  1  0
 18 19  3  0
 19 20  1  0
 20 21  2  0
 20 22  1  0
 21 23  1  0
 22 24  2  0
 23 25  2  0
 24 25  1  0
 25 26  1  0
 26 27  1  0
 27 28  1  0
M  END
