mac-x0555-mac-x0572
     RDKit          3D

 12 13  0  0  0  0  0  0  0  0999 V2000
   -7.5040   14.2810    2.9000 N   0  0  0  0  0  0  0  0  0  0  0  0
   -6.9450   14.5020    1.6240 C   0  0  0  0  0  0  0  0  0  0  0  0
   -7.7500   14.5750    0.4910 C   0  0  0  0  0  0  0  0  0  0  0  0
   -5.5790   14.6560    1.4350 C   0  0  0  0  0  0  0  0  0  0  0  0
   -9.1040   14.4220    0.6590 O   0  0  0  0  0  0  0  0  0  0  0  0
   -5.0760   14.8750    0.1490 C   0  0  0  0  0  0  0  0  0  0  0  0
   -7.3190   14.7870   -0.7610 N   0  0  0  0  0  0  0  0  0  0  0  0
   -5.9930   14.9350   -0.9280 C   0  0  0  0  0  0  0  0  0  0  0  0
   -3.7050   15.0300   -0.0840 C   0  0  0  0  0  0  0  0  0  0  0  0
   -5.4950   15.1520   -2.2020 C   0  0  0  0  0  0  0  0  0  0  0  0
   -3.2360   15.2400   -1.3760 C   0  0  0  0  0  0  0  0  0  0  0  0
   -4.1280   15.3040   -2.4360 C   0  0  0  0  0  0  0  0  0  0  0  0
  1  2  1  0
  2  3  2  0
  2  4  1  0
  3  5  1  0
  4  6  2  0
  3  7  1  0
  6  8  1  0
  7  8  2  0
  6  9  1  0
  8 10  1  0
  9 11  2  0
 10 12  2  0
 11 12  1  0
M  END
