mac-x0182-mac-x0305
     RDKit          3D

 24 26  0  0  0  0  0  0  0  0999 V2000
    1.7100   11.7820   -7.0580 O   0  0  0  0  0  0  0  0  0  0  0  0
    0.7370   11.4730   -6.4270 C   0  0  0  0  0  0  0  0  0  0  0  0
    0.3750   12.0330   -5.2360 N   0  0  0  0  0  0  0  0  0  0  0  0
   -0.1980   10.3920   -6.8340 C   0  0  0  0  0  0  0  0  0  0  0  0
   -0.8180   11.1070   -4.4980 S   0  0  2  0  0  0  0  0  0  0  0  0
   -1.1130   10.0830   -5.8440 C   0  0  0  0  0  0  0  0  0  0  0  0
   -0.2240    9.7120   -8.0390 C   0  0  0  0  0  0  0  0  0  0  0  0
   -1.9520   12.1090   -4.4200 N   0  0  0  0  0  0  0  0  0  0  0  0
   -0.1440   10.3800   -3.4460 O   0  0  0  0  0  0  0  0  0  0  0  0
   -2.0810    9.1120   -5.9730 C   0  0  0  0  0  0  0  0  0  0  0  0
   -1.1980    8.7170   -8.2090 C   0  0  0  0  0  0  0  0  0  0  0  0
   -1.9990   13.0110   -3.2700 C   0  0  0  0  0  0  0  0  0  0  0  0
   -2.1170    8.4200   -7.1820 C   0  0  0  0  0  0  0  0  0  0  0  0
   -1.3370   12.4040   -2.0320 C   0  0  0  0  0  0  0  0  0  0  0  0
   -0.0850   13.0750   -1.6830 N   0  0  0  0  0  0  0  0  0  0  0  0
   -0.2920   14.1090   -1.0000 C   0  0  0  0  0  0  0  0  0  0  0  0
    0.7150   14.8800   -0.5320 O   0  0  0  0  0  0  0  0  0  0  0  0
   -1.6460   14.6230   -0.6180 C   0  0  0  0  0  0  0  0  0  0  0  0
   -2.0690   14.8450    0.6870 C   0  0  0  0  0  0  0  0  0  0  0  0
   -2.4510   14.8580   -1.7180 N   0  0  0  0  0  0  0  0  0  0  0  0
   -1.2770   14.6130    1.7710 O   0  0  0  0  0  0  0  0  0  0  0  0
   -3.3670   15.3280    0.8810 C   0  0  0  0  0  0  0  0  0  0  0  0
   -3.6960   15.3240   -1.4850 C   0  0  0  0  0  0  0  0  0  0  0  0
   -4.1900   15.5710   -0.2180 C   0  0  0  0  0  0  0  0  0  0  0  0
  1  2  2  0
  2  3  1  0
  2  4  1  0
  5  3  1  6
  4  6  2  0
  5  6  1  0
  4  7  1  0
  5  8  2  0
  5  9  2  0
  6 10  1  0
  7 11  2  0
  8 12  1  0
 10 13  2  0
 11 13  1  0
 12 14  1  0
 14 15  1  0
 15 16  2  3
 16 17  1  0
 16 18  1  0
 18 19  2  0
 18 20  1  0
 19 21  1  0
 19 22  1  0
 20 23  2  0
 22 24  2  0
 23 24  1  0
M  END
