mac-x0346-diamond-x1018_0_A
     RDKit          3D

 15 16  0  0  0  0  0  0  0  0999 V2000
   -7.4780   14.6090    1.3640 O   0  0  0  0  0  0  0  0  0  0  0  0
   -7.2410   13.7440    0.2690 N   0  0  0  0  0  0  0  0  0  0  0  0
   -6.4610   14.2520   -0.7500 C   0  0  0  0  0  0  0  0  0  0  0  0
   -6.9420   14.3730   -1.8820 O   0  0  0  0  0  0  0  0  0  0  0  0
   -5.0180   14.6830   -0.4130 C   0  0  1  0  0  0  0  0  0  0  0  0
   -4.8290   15.8490   -1.3300 C   0  0  0  0  0  0  0  0  0  0  0  0
   -4.8230   15.1810    1.0070 C   0  0  0  0  0  0  0  0  0  0  0  0
   -3.8180   13.8980   -0.8670 C   0  0  0  0  0  0  0  0  0  0  0  0
   -4.8000   15.4380   -2.6980 O   0  0  0  0  0  0  0  0  0  0  0  0
   -2.5390   14.0650   -0.1920 C   0  0  0  0  0  0  0  0  0  0  0  0
   -3.6420   15.2050    1.6160 C   0  0  0  0  0  0  0  0  0  0  0  0
   -3.6780   13.0590   -1.8570 N   0  0  0  0  0  0  0  0  0  0  0  0
   -2.4490   14.7090    0.9730 C   0  0  0  0  0  0  0  0  0  0  0  0
   -1.5910   13.4360   -0.9410 N   0  0  0  0  0  0  0  0  0  0  0  0
   -2.3010   12.8250   -1.8530 C   0  0  0  0  0  0  0  0  0  0  0  0
  1  2  1  0
  2  3  1  0
  3  4  2  0
  5  3  1  0
  5  6  1  6
  5  7  1  0
  5  8  1  0
  6  9  1  0
  8 10  1  0
  7 11  2  0
  8 12  2  0
 10 13  2  0
 11 13  1  0
 10 14  1  0
 12 15  1  0
 14 15  2  0
M  END
