mac-x0584-diamond-x0895_0_A
     RDKit          3D

 19 22  0  0  0  0  0  0  0  0999 V2000
   -3.2540   14.8780    2.8290 O   0  0  0  0  0  0  0  0  0  0  0  0
   -3.3000   14.8510    1.5660 N   0  0  0  0  0  0  0  0  0  0  0  0
   -2.2160   14.8760    0.9060 C   0  0  0  0  0  0  0  0  0  0  0  0
   -4.4280   14.8000    0.6340 C   0  0  0  0  0  0  0  0  0  0  0  0
   -0.9750   14.9640    1.4230 N   0  0  0  0  0  0  0  0  0  0  0  0
   -2.4940   14.8060   -0.5440 C   0  0  0  0  0  0  0  0  0  0  0  0
   -3.9320   14.7820   -0.6230 C   0  0  0  0  0  0  0  0  0  0  0  0
   -0.0560   14.9770    0.5470 C   0  0  0  0  0  0  0  0  0  0  0  0
   -1.4490   14.7740   -1.3910 C   0  0  0  0  0  0  0  0  0  0  0  0
   -1.4850   14.6900   -2.7650 N   0  0  0  0  0  0  0  0  0  0  0  0
   -0.2170   14.8460   -0.7870 N   0  0  0  0  0  0  0  0  0  0  0  0
   -0.2640   14.5910   -3.5750 C   0  0  1  0  0  0  0  0  0  0  0  0
   -2.6370   15.0420   -3.6020 C   0  0  0  0  0  0  0  0  0  0  0  0
    0.4360   13.2370   -3.3640 C   0  0  0  0  0  0  0  0  0  0  0  0
   -0.7250   14.8590   -5.0100 C   0  0  0  0  0  0  0  0  0  0  0  0
   -2.0140   15.6490   -4.8490 C   0  0  0  0  0  0  0  0  0  0  0  0
    1.7760   12.9320   -4.0800 C   0  0  0  0  0  0  0  0  0  0  0  0
   -0.1260   12.0070   -4.1180 C   0  0  0  0  0  0  0  0  0  0  0  0
    0.9200   12.3130   -5.1930 C   0  0  0  0  0  0  0  0  0  0  0  0
  1  2  1  0
  2  3  2  0
  2  4  1  0
  3  5  1  0
  3  6  1  0
  4  7  2  0
  6  7  1  0
  5  8  2  0
  6  9  2  0
  9 10  1  0
  8 11  1  0
  9 11  1  0
 10 12  1  0
 10 13  1  0
 12 14  1  6
 12 15  1  0
 13 16  1  0
 15 16  1  0
 14 17  1  0
 14 18  1  0
 17 19  1  0
 18 19  1  0
M  CHG  2   1  -1   2   1
M  END
