mac-x0178-mac-x0402
     RDKit          3D

 24 26  0  0  0  0  0  0  0  0999 V2000
   -0.2970   18.1190   -6.3680 N   0  0  0  0  0  0  0  0  0  0  0  0
   -1.6060   17.4890   -5.5350 S   0  0  0  0  0  0  0  0  0  0  0  0
   -2.5220   17.0620   -6.5790 O   0  0  0  0  0  0  0  0  0  0  0  0
   -1.9670   18.5140   -4.5970 O   0  0  0  0  0  0  0  0  0  0  0  0
   -0.8790   16.0900   -4.6670 C   0  0  0  0  0  0  0  0  0  0  0  0
    0.5210   16.0270   -4.5580 C   0  0  0  0  0  0  0  0  0  0  0  0
   -1.6400   15.0550   -4.0880 C   0  0  0  0  0  0  0  0  0  0  0  0
   -3.1070   14.9690   -4.0870 C   0  0  0  0  0  0  0  0  0  0  0  0
    1.1340   14.9500   -3.8960 C   0  0  0  0  0  0  0  0  0  0  0  0
   -1.0110   13.9940   -3.4430 C   0  0  0  0  0  0  0  0  0  0  0  0
    0.3550   13.9260   -3.3410 C   0  0  0  0  0  0  0  0  0  0  0  0
   -3.8200   14.9670   -2.7410 C   0  0  0  0  0  0  0  0  0  0  0  0
    0.9990   12.7930   -2.6510 C   0  0  0  0  0  0  0  0  0  0  0  0
   -5.1880   14.9580   -2.8870 C   0  0  0  0  0  0  0  0  0  0  0  0
   -3.2400   14.9750   -1.4300 C   0  0  0  0  0  0  0  0  0  0  0  0
    1.9590   12.8770   -1.9320 O   0  0  0  0  0  0  0  0  0  0  0  0
    0.4000   11.6090   -2.8800 O   0  0  0  0  0  0  0  0  0  0  0  0
   -4.1410   14.9780   -0.3190 C   0  0  0  0  0  0  0  0  0  0  0  0
   -6.0310   14.9600   -1.8160 C   0  0  0  0  0  0  0  0  0  0  0  0
   -5.5190   14.9690   -0.5350 C   0  0  0  0  0  0  0  0  0  0  0  0
   -3.9010   14.9940    1.4010 S   0  0  0  0  0  0  0  0  0  0  0  0
   -5.6190   14.9980    1.6250 C   0  0  0  0  0  0  0  0  0  0  0  0
   -6.3190   14.9700    0.5560 N   0  0  0  0  0  0  0  0  0  0  0  0
   -6.2610   15.0390    2.7950 N   0  0  0  0  0  0  0  0  0  0  0  0
  2  1  1  0
  2  3  2  0
  2  4  2  0
  2  5  1  0
  5  6  2  0
  5  7  1  0
  7  8  1  0
  6  9  1  0
  7 10  2  0
  9 11  2  0
 10 11  1  0
  8 12  1  0
 11 13  1  0
 12 14  2  0
 12 15  1  0
 13 16  2  0
 13 17  1  0
 15 18  2  0
 14 19  1  0
 18 20  1  0
 19 20  2  0
 18 21  1  0
 21 22  1  0
 20 23  1  0
 22 23  2  0
 22 24  1  0
M  END
