mac-x0163-mac-x0255
     RDKit          3D

 25 27  0  0  0  0  0  0  0  0999 V2000
   -4.1630   15.4450   -1.1800 Cl  0  0  0  0  0  0  0  0  0  0  0  0
   -2.7800   15.0240   -0.2240 C   0  0  0  0  0  0  0  0  0  0  0  0
   -2.8540   15.0250    1.1490 C   0  0  0  0  0  0  0  0  0  0  0  0
   -1.5620   14.6900   -0.7630 C   0  0  0  0  0  0  0  0  0  0  0  0
   -4.0580   15.3890    1.7770 N   0  0  0  0  0  0  0  0  0  0  0  0
   -0.4970   14.3610   -0.0070 N   0  0  0  0  0  0  0  0  0  0  0  0
   -1.8110   14.6970    1.9270 N   0  0  0  0  0  0  0  0  0  0  0  0
   -1.3610   14.6960   -2.1050 N   0  0  0  0  0  0  0  0  0  0  0  0
   -0.6760   14.3790    1.3070 C   0  0  0  0  0  0  0  0  0  0  0  0
    0.0270   14.8670   -2.4750 C   0  0  0  0  0  0  0  0  0  0  0  0
   -2.3530   14.0870   -3.0060 C   0  0  0  0  0  0  0  0  0  0  0  0
    0.5130   13.6720   -3.2300 C   0  0  1  0  0  0  0  0  0  0  0  0
   -1.8510   12.7830   -3.5890 C   0  0  0  0  0  0  0  0  0  0  0  0
   -0.4970   12.5080   -2.9590 C   0  0  0  0  0  0  0  0  0  0  0  0
    0.7050   14.1000   -4.6930 C   0  0  1  0  0  0  0  0  0  0  0  0
    0.4110   12.7910   -5.3950 C   0  0  0  0  0  0  0  0  0  0  0  0
   -0.0810   15.4080   -5.0130 C   0  0  0  0  0  0  0  0  0  0  0  0
    0.6100   11.7390   -4.3130 C   0  0  0  0  0  0  0  0  0  0  0  0
   -1.4780   15.5870   -5.1580 C   0  0  0  0  0  0  0  0  0  0  0  0
    0.7170   16.5450   -5.1590 C   0  0  0  0  0  0  0  0  0  0  0  0
    1.5620   12.1040   -3.3990 O   0  0  0  0  0  0  0  0  0  0  0  0
    0.0140   10.6830   -4.2010 O   0  0  0  0  0  0  0  0  0  0  0  0
    0.2000   17.8020   -5.4310 C   0  0  0  0  0  0  0  0  0  0  0  0
   -2.0100   16.8650   -5.4360 C   0  0  0  0  0  0  0  0  0  0  0  0
   -1.1660   17.9720   -5.5720 C   0  0  0  0  0  0  0  0  0  0  0  0
  1  2  1  0
  2  3  2  0
  2  4  1  0
  3  5  1  0
  4  6  2  0
  3  7  1  0
  4  8  1  0
  6  9  1  0
  7  9  2  0
  8 10  1  0
  8 11  1  0
 12 10  1  1
 11 13  1  0
 12 14  1  0
 13 14  1  0
 12 15  1  0
 15 16  1  6
 15 17  1  0
 16 18  1  0
 17 19  2  0
 17 20  1  0
 18 21  1  0
 18 22  2  0
 20 23  2  0
 19 24  1  0
 23 25  1  0
 24 25  2  0
M  END
