mac-x0565-diamond-x0933_0_A
     RDKit          3D

 17 19  0  0  0  0  0  0  0  0999 V2000
   -6.5620   15.2470   -1.4030 C   0  0  0  0  0  0  0  0  0  0  0  0
   -5.3410   15.0620   -2.2470 C   0  0  0  0  0  0  0  0  0  0  0  0
   -5.5110   14.8030   -3.6120 C   0  0  0  0  0  0  0  0  0  0  0  0
   -6.9850   14.4050   -0.6200 O   0  0  0  0  0  0  0  0  0  0  0  0
   -4.0540   15.1460   -1.7360 C   0  0  0  0  0  0  0  0  0  0  0  0
   -2.9750   14.9890   -2.5800 C   0  0  0  0  0  0  0  0  0  0  0  0
   -4.4050   14.6460   -4.4620 C   0  0  0  0  0  0  0  0  0  0  0  0
   -3.8520   15.3900   -0.3300 C   0  0  1  0  0  0  0  0  0  0  0  0
   -3.1410   14.7510   -3.9090 C   0  0  0  0  0  0  0  0  0  0  0  0
   -1.6450   15.0440   -2.2420 O   0  0  0  0  0  0  0  0  0  0  0  0
   -4.9420   14.8190    0.4520 N   0  0  0  0  0  0  0  0  0  0  0  0
   -2.4470   14.9050   -0.0240 C   0  0  0  0  0  0  0  0  0  0  0  0
   -1.9580   14.6390   -4.5710 O   0  0  0  0  0  0  0  0  0  0  0  0
   -1.0380   15.0600   -3.5420 C   0  0  0  0  0  0  0  0  0  0  0  0
   -4.6750   15.0980    1.8180 C   0  0  0  0  0  0  0  0  0  0  0  0
   -2.2540   14.9050    1.4480 C   0  0  0  0  0  0  0  0  0  0  0  0
   -3.4430   14.4380    2.1350 N   0  0  0  0  0  0  0  0  0  0  0  0
  1  2  1  0
  2  3  2  0
  1  4  2  0
  2  5  1  0
  5  6  2  0
  3  7  1  0
  8  5  1  6
  6  9  1  0
  7  9  2  0
  6 10  1  0
  8 11  1  0
  8 12  1  0
  9 13  1  0
 10 14  1  0
 13 14  1  0
 11 15  1  0
 12 16  1  0
 15 17  1  0
 16 17  1  0
M  END
