mac-x0576-mac-x0223
     RDKit          3D

 26 28  0  0  0  0  0  0  0  0999 V2000
   -0.0150   13.9130    0.8830 N   0  0  0  0  0  0  0  0  0  0  0  0
   -0.7060   15.1330    0.5840 C   0  0  2  0  0  0  0  0  0  0  0  0
   -1.8160   14.9900    1.4960 N   0  0  0  0  0  0  0  0  0  0  0  0
   -0.9310   15.4010   -0.8160 N   0  0  0  0  0  0  0  0  0  0  0  0
   -2.0900   14.9450   -1.4060 C   0  0  0  0  0  0  0  0  0  0  0  0
   -2.9730   14.3630    0.8960 C   0  0  2  0  0  0  0  0  0  0  0  0
   -2.2350   14.7150   -2.6850 N   0  0  0  0  0  0  0  0  0  0  0  0
   -3.2830   14.8430   -0.5030 C   0  0  2  0  0  0  0  0  0  0  0  0
   -4.1260   14.7710    1.6570 N   0  0  0  0  0  0  0  0  0  0  0  0
   -5.3960   14.8220    1.0840 C   0  0  0  0  0  0  0  0  0  0  0  0
   -4.3980   14.1450   -1.1180 N   0  0  0  0  0  0  0  0  0  0  0  0
   -1.3340   15.1200   -3.6320 C   0  0  0  0  0  0  0  0  0  0  0  0
   -6.3940   14.9040    1.7910 O   0  0  0  0  0  0  0  0  0  0  0  0
   -5.5480   14.7700   -0.4540 C   0  0  0  0  0  0  0  0  0  0  0  0
   -1.8690   16.3530   -3.8590 C   0  0  0  0  0  0  0  0  0  0  0  0
   -0.1700   14.6930   -4.3440 C   0  0  0  0  0  0  0  0  0  0  0  0
    0.5740   13.3570   -4.2690 C   0  0  0  0  0  0  0  0  0  0  0  0
   -1.3680   17.2270   -4.7100 C   0  0  0  0  0  0  0  0  0  0  0  0
    0.3570   15.6580   -5.2490 C   0  0  0  0  0  0  0  0  0  0  0  0
    0.4690   12.5550   -3.0090 C   0  0  0  0  0  0  0  0  0  0  0  0
   -2.0320   18.4140   -4.8100 O   0  0  0  0  0  0  0  0  0  0  0  0
   -0.2540   16.9200   -5.4200 C   0  0  0  0  0  0  0  0  0  0  0  0
    0.1020   17.9420   -6.2250 O   0  0  0  0  0  0  0  0  0  0  0  0
   -0.1420   11.5070   -2.8450 O   0  0  0  0  0  0  0  0  0  0  0  0
    1.1700   13.1030   -2.0000 O   0  0  0  0  0  0  0  0  0  0  0  0
    1.3180   18.5370   -5.8960 C   0  0  0  0  0  0  0  0  0  0  0  0
  2  1  1  6
  2  3  1  0
  2  4  1  0
  4  5  1  0
  6  3  1  1
  5  7  2  3
  5  8  1  0
  6  8  1  0
  6  9  1  0
  9 10  1  0
  8 11  1  6
  7 12  1  0
 10 13  2  0
 10 14  1  0
 11 14  1  0
 12 15  2  0
 12 16  1  0
 16 17  1  0
 15 18  1  0
 16 19  2  0
 17 20  1  0
 18 21  1  0
 18 22  2  0
 19 22  1  0
 22 23  1  0
 20 24  2  0
 20 25  1  0
 23 26  1  0
M  END
