mac-x0509-diamond-x0900_1_A
     RDKit          3D

 11 12  0  0  0  0  0  0  0  0999 V2000
   -2.1580    8.2200   -5.7560 O   0  0  0  0  0  0  0  0  0  0  0  0
   -1.4100    8.3800   -6.6950 C   0  0  0  0  0  0  0  0  0  0  0  0
   -1.5420    9.4540   -7.8180 C   0  0  0  0  0  0  0  0  0  0  0  0
   -0.2710    7.6640   -7.0200 N   0  0  0  0  0  0  0  0  0  0  0  0
   -2.4040   10.2540   -8.0380 O   0  0  0  0  0  0  0  0  0  0  0  0
   -0.3680    9.3150   -8.6240 C   0  0  0  0  0  0  0  0  0  0  0  0
    0.3570    8.2440   -8.1270 C   0  0  0  0  0  0  0  0  0  0  0  0
    0.0190   10.0710   -9.7020 C   0  0  0  0  0  0  0  0  0  0  0  0
    1.5350    7.8740   -8.7220 C   0  0  0  0  0  0  0  0  0  0  0  0
    1.2080    9.7140  -10.3130 C   0  0  0  0  0  0  0  0  0  0  0  0
    1.9610    8.6230   -9.8310 C   0  0  0  0  0  0  0  0  0  0  0  0
  1  2  2  0
  2  3  1  0
  2  4  1  0
  3  5  2  0
  3  6  1  0
  4  7  1  0
  6  7  2  0
  6  8  1  0
  7  9  1  0
  8 10  2  0
  9 11  2  0
 10 11  1  0
M  END
