mac-x0159-mac-x0453
     RDKit          3D

 19 21  0  0  0  0  0  0  0  0999 V2000
   -4.5980   14.9630    0.8060 N   0  0  0  0  0  0  0  0  0  0  0  0
   -5.6390   13.9720    1.0220 C   0  0  0  0  0  0  0  0  0  0  0  0
   -6.4720   14.4950    2.0750 N   0  0  0  0  0  0  0  0  0  0  0  0
   -3.6220   14.4950   -0.1720 C   0  0  1  0  0  0  0  0  0  0  0  0
   -3.7260   15.4570   -1.2360 N   0  0  0  0  0  0  0  0  0  0  0  0
   -2.1340   14.3400    0.2430 C   0  0  1  0  0  0  0  0  0  0  0  0
   -3.0260   14.9850   -2.4150 C   0  0  0  0  0  0  0  0  0  0  0  0
   -1.2370   14.1500   -1.0150 C   0  0  1  0  0  0  0  0  0  0  0  0
   -1.4020   15.3020    1.0620 N   0  0  0  0  0  0  0  0  0  0  0  0
   -1.5770   14.9830   -2.1630 N   0  0  0  0  0  0  0  0  0  0  0  0
    0.1000   14.4390   -0.4970 N   0  0  0  0  0  0  0  0  0  0  0  0
   -0.0460   14.8180    0.8990 C   0  0  0  0  0  0  0  0  0  0  0  0
   -0.8120   14.6300   -3.3820 C   0  0  0  0  0  0  0  0  0  0  0  0
   -0.3760   15.8590   -4.1460 C   0  0  0  0  0  0  0  0  0  0  0  0
    0.9010   16.3920   -4.1990 C   0  0  0  0  0  0  0  0  0  0  0  0
   -1.3260   16.5640   -4.8860 N   0  0  0  0  0  0  0  0  0  0  0  0
   -0.7650   17.5980   -5.4710 C   0  0  0  0  0  0  0  0  0  0  0  0
    0.9080   17.7940   -5.1850 S   0  0  0  0  0  0  0  0  0  0  0  0
   -1.4780   18.5730   -6.3380 C   0  0  0  0  0  0  0  0  0  0  0  0
  1  2  1  0
  2  3  1  0
  4  1  1  1
  4  5  1  0
  4  6  1  0
  5  7  1  0
  6  8  1  0
  6  9  1  6
  7 10  1  0
  8 10  1  0
  8 11  1  1
  9 12  1  0
 11 12  1  0
 10 13  1  0
 13 14  1  0
 14 15  2  0
 14 16  1  0
 16 17  2  0
 15 18  1  0
 17 18  1  0
 17 19  1  0
M  END
