mac-x0345-mac-x0347
     RDKit          3D

 17 18  0  0  0  0  0  0  0  0999 V2000
   -7.6190   14.6700    0.7180 C   0  0  0  0  0  0  0  0  0  0  0  0
   -6.3860   14.3670   -0.1430 C   0  0  1  0  0  0  0  0  0  0  0  0
   -6.1290   15.4960   -1.0350 N   0  0  0  0  0  0  0  0  0  0  0  0
   -5.1110   13.9770    0.5900 C   0  0  2  0  0  0  0  0  0  0  0  0
   -4.3410   15.3920    1.6920 Br  0  0  0  0  0  0  0  0  0  0  0  0
   -4.0700   13.4560   -0.3860 C   0  0  0  0  0  0  0  0  0  0  0  0
   -5.0750   15.3190   -2.0180 C   0  0  2  0  0  0  0  0  0  0  0  0
   -5.8200   15.0080   -3.2290 N   0  0  0  0  0  0  0  0  0  0  0  0
   -3.9160   14.2880   -1.7110 C   0  0  1  0  0  0  0  0  0  0  0  0
   -2.4750   14.8980   -1.6880 C   0  0  0  0  0  0  0  0  0  0  0  0
   -3.8480   13.4650   -3.0170 C   0  0  0  0  0  0  0  0  0  0  0  0
   -1.4250   14.1440   -2.5530 C   0  0  2  0  0  0  0  0  0  0  0  0
   -3.2380   14.2010   -4.1540 N   0  0  0  0  0  0  0  0  0  0  0  0
    0.0860   14.2730   -2.3460 C   0  0  0  0  0  0  0  0  0  0  0  0
   -1.8020   14.3940   -3.9910 C   0  0  0  0  0  0  0  0  0  0  0  0
    0.7900   14.7810   -3.3780 O   0  0  0  0  0  0  0  0  0  0  0  0
    0.6920   13.9220   -1.3450 O   0  0  0  0  0  0  0  0  0  0  0  0
  2  1  1  1
  2  3  1  0
  2  4  1  0
  4  5  1  6
  4  6  1  0
  3  7  1  0
  7  8  1  6
  9  6  1  1
  7  9  1  0
  9 10  1  0
  9 11  1  0
 10 12  1  0
 11 13  1  0
 12 14  1  6
 12 15  1  0
 13 15  1  0
 14 16  1  0
 14 17  2  0
M  END
