mac-x0394-mac-x0277
     RDKit          3D

 13 13  0  0  0  0  0  0  0  0999 V2000
    1.1060   18.3220   -5.0660 Cl  0  0  0  0  0  0  0  0  0  0  0  0
    0.3310   16.8070   -4.9470 C   0  0  0  0  0  0  0  0  0  0  0  0
   -1.0230   16.7450   -5.1640 C   0  0  0  0  0  0  0  0  0  0  0  0
    1.0800   15.6690   -4.6400 C   0  0  0  0  0  0  0  0  0  0  0  0
   -1.8470   18.2130   -5.5450 Cl  0  0  0  0  0  0  0  0  0  0  0  0
    0.4510   14.4270   -4.5510 C   0  0  0  0  0  0  0  0  0  0  0  0
   -1.6690   15.5170   -5.0750 C   0  0  0  0  0  0  0  0  0  0  0  0
   -3.3660   15.3460   -5.3360 Cl  0  0  0  0  0  0  0  0  0  0  0  0
    1.2410   13.1810   -4.2250 C   0  0  0  0  0  0  0  0  0  0  0  0
   -0.9360   14.3610   -4.7700 C   0  0  0  0  0  0  0  0  0  0  0  0
    0.7630   12.5070   -2.9610 C   0  0  0  0  0  0  0  0  0  0  0  0
    0.1530   11.3290   -3.2090 O   0  0  0  0  0  0  0  0  0  0  0  0
    0.8720   12.9070   -1.8170 O   0  0  0  0  0  0  0  0  0  0  0  0
  1  2  1  0
  2  3  2  0
  2  4  1  0
  3  5  1  0
  4  6  2  0
  3  7  1  0
  7  8  1  0
  6  9  1  0
  6 10  1  0
  7 10  2  0
  9 11  1  0
 11 12  1  0
 11 13  2  0
M  END
