mac-x0161-mac-x0182
     RDKit          3D

 29 33  0  0  0  0  0  0  0  0999 V2000
   -4.6020   15.3930    1.2260 N   0  0  0  0  0  0  0  0  0  0  0  0
   -3.6820   14.9060    0.2160 C   0  0  2  0  0  0  0  0  0  0  0  0
   -2.2330   15.2800    0.5340 C   0  0  2  0  0  0  0  0  0  0  0  0
   -4.1410   15.5270   -1.0250 N   0  0  0  0  0  0  0  0  0  0  0  0
   -3.1910   15.4320   -2.1490 C   0  0  0  0  0  0  0  0  0  0  0  0
   -1.4350   14.9960   -0.7100 C   0  0  1  0  0  0  0  0  0  0  0  0
   -1.4950   14.4910    1.5480 N   0  0  0  0  0  0  0  0  0  0  0  0
   -1.8720   15.9170   -1.7430 N   0  0  0  0  0  0  0  0  0  0  0  0
   -0.1150   15.2690   -0.2030 N   0  0  0  0  0  0  0  0  0  0  0  0
   -0.1260   14.5060    1.0380 C   0  0  0  0  0  0  0  0  0  0  0  0
   -0.9130   15.9640   -2.8690 C   0  0  0  0  0  0  0  0  0  0  0  0
   -0.4940   14.6020   -3.1630 C   0  0  0  0  0  0  0  0  0  0  0  0
   -1.1420   13.5890   -3.7360 C   0  0  0  0  0  0  0  0  0  0  0  0
    0.7620   14.2120   -2.8050 O   0  0  0  0  0  0  0  0  0  0  0  0
    0.9440   12.9010   -3.1430 N   0  0  0  0  0  0  0  0  0  0  0  0
   -0.2090   12.5800   -3.6780 C   0  0  0  0  0  0  0  0  0  0  0  0
   -0.5150   11.3760   -4.1200 C   0  0  0  0  0  0  0  0  0  0  0  0
   -1.2910   10.7150   -3.0290 C   0  0  0  0  0  0  0  0  0  0  0  0
   -0.2870   10.7990   -5.1960 C   0  0  0  0  0  0  0  0  0  0  0  0
    0.3660   11.0070   -6.5100 C   0  0  0  0  0  0  0  0  0  0  0  0
   -1.0750    9.2950   -4.9930 S   0  0  0  0  0  0  0  0  0  0  0  0
    1.3390   11.6700   -6.8290 O   0  0  0  0  0  0  0  0  0  0  0  0
   -2.3990    9.8300   -4.5210 O   0  0  0  0  0  0  0  0  0  0  0  0
   -1.2500    9.2640   -6.6960 C   0  0  0  0  0  0  0  0  0  0  0  0
   -0.4580   10.1740   -7.3990 C   0  0  0  0  0  0  0  0  0  0  0  0
   -2.1120    8.3950   -7.2770 C   0  0  0  0  0  0  0  0  0  0  0  0
   -0.5240   10.2070   -8.7660 C   0  0  0  0  0  0  0  0  0  0  0  0
   -2.1950    8.4170   -8.6440 C   0  0  0  0  0  0  0  0  0  0  0  0
   -1.4070    9.3120   -9.3860 C   0  0  0  0  0  0  0  0  0  0  0  0
  2  1  1  1
  2  3  1  0
  2  4  1  0
  4  5  1  0
  3  6  1  0
  3  7  1  1
  5  8  1  0
  6  8  1  0
  6  9  1  1
  7 10  1  0
  9 10  1  0
  8 11  1  0
 11 12  1  0
 12 13  2  0
 12 14  1  0
 14 15  1  0
 13 16  1  0
 15 16  2  0
 16 17  1  0
 17 18  1  0
 17 19  2  3
 19 20  1  0
 21 19  1  6
 20 22  2  0
 21 23  2  0
 21 24  1  0
 20 25  1  0
 24 25  2  0
 24 26  1  0
 25 27  1  0
 26 28  2  0
 27 29  2  0
 28 29  1  0
M  END
