mac-x0212-mac-x0345
     RDKit          3D

 15 15  0  0  0  0  0  0  0  0999 V2000
   -6.4960   12.7000    1.4540 C   0  0  0  0  0  0  0  0  0  0  0  0
   -6.9320   14.4010    1.1440 S   0  0  0  0  0  0  0  0  0  0  0  0
   -7.8410   14.8640    2.1670 O   0  0  0  0  0  0  0  0  0  0  0  0
   -7.2830   14.5260   -0.2540 O   0  0  0  0  0  0  0  0  0  0  0  0
   -5.4120   15.1400    1.3270 N   0  0  0  0  0  0  0  0  0  0  0  0
   -4.5160   14.9770    0.2260 C   0  0  0  0  0  0  0  0  0  0  0  0
   -3.1920   14.6500    0.4670 C   0  0  0  0  0  0  0  0  0  0  0  0
   -4.9760   15.1390   -1.0880 C   0  0  0  0  0  0  0  0  0  0  0  0
   -2.3180   14.4750   -0.6080 C   0  0  0  0  0  0  0  0  0  0  0  0
   -4.1160   14.9600   -2.1790 C   0  0  0  0  0  0  0  0  0  0  0  0
   -4.6630   15.1240   -3.4620 N   0  0  0  0  0  0  0  0  0  0  0  0
   -2.7690   14.6240   -1.9370 C   0  0  0  0  0  0  0  0  0  0  0  0
   -1.7470   14.4010   -2.9980 C   0  0  0  0  0  0  0  0  0  0  0  0
   -0.6390   13.9210   -2.8200 O   0  0  0  0  0  0  0  0  0  0  0  0
   -2.1300   14.7780   -4.2340 O   0  0  0  0  0  0  0  0  0  0  0  0
  1  2  1  0
  2  3  2  0
  2  4  2  0
  2  5  1  0
  5  6  1  0
  6  7  2  0
  6  8  1  0
  7  9  1  0
  8 10  2  0
 10 11  1  0
  9 12  2  0
 10 12  1  0
 12 13  1  0
 13 14  2  0
 13 15  1  0
M  END
