mac-x0212-mac-x0204
     RDKit          3D

 23 24  0  0  0  0  0  0  0  0999 V2000
   -6.4160   12.7890    1.3750 C   0  0  0  0  0  0  0  0  0  0  0  0
   -6.9550   14.4450    0.9830 S   0  0  0  0  0  0  0  0  0  0  0  0
   -7.7830   14.9080    2.0800 O   0  0  0  0  0  0  0  0  0  0  0  0
   -7.4560   14.4790   -0.3730 O   0  0  0  0  0  0  0  0  0  0  0  0
   -5.5200   15.3260    1.0920 N   0  0  0  0  0  0  0  0  0  0  0  0
   -4.4900   15.0210    0.1910 C   0  0  0  0  0  0  0  0  0  0  0  0
   -3.4220   14.3910    0.7740 C   0  0  0  0  0  0  0  0  0  0  0  0
   -4.5070   15.2980   -1.1810 C   0  0  0  0  0  0  0  0  0  0  0  0
   -2.3620   13.9990    0.0200 C   0  0  0  0  0  0  0  0  0  0  0  0
   -3.4110   14.8910   -1.9600 C   0  0  0  0  0  0  0  0  0  0  0  0
   -2.3270   14.2180   -1.3390 C   0  0  0  0  0  0  0  0  0  0  0  0
   -1.0940   13.6530   -1.9900 C   0  0  2  0  0  0  0  0  0  0  0  0
   -0.2970   14.3610   -3.0800 C   0  0  0  0  0  0  0  0  0  0  0  0
   -1.5430   12.4730   -2.6520 O   0  0  0  0  0  0  0  0  0  0  0  0
    0.8250   13.5370   -3.3760 O   0  0  0  0  0  0  0  0  0  0  0  0
    0.2350   15.6080   -2.6320 O   0  0  0  0  0  0  0  0  0  0  0  0
   -1.2730   14.4590   -4.1950 C   0  0  0  0  0  0  0  0  0  0  0  0
   -1.6490   15.6430   -4.8060 C   0  0  0  0  0  0  0  0  0  0  0  0
   -1.8680   13.2770   -4.6460 C   0  0  0  0  0  0  0  0  0  0  0  0
   -2.5900   15.6000   -5.8210 C   0  0  0  0  0  0  0  0  0  0  0  0
   -2.7860   13.2040   -5.6240 N   0  0  0  0  0  0  0  0  0  0  0  0
   -2.9460   16.7670   -6.4360 O   0  0  0  0  0  0  0  0  0  0  0  0
   -3.1280   14.3740   -6.1890 C   0  0  0  0  0  0  0  0  0  0  0  0
  1  2  1  0
  2  3  2  0
  2  4  2  0
  2  5  1  0
  5  6  1  0
  6  7  2  0
  6  8  1  0
  7  9  1  0
  8 10  2  0
  9 11  2  0
 10 11  1  0
 11 12  1  0
 12 13  1  0
 12 14  1  6
 13 15  1  0
 13 16  1  0
 13 17  1  0
 17 18  2  0
 17 19  1  0
 18 20  1  0
 19 21  2  0
 20 22  1  0
 20 23  2  0
 21 23  1  0
M  END
