mac-x0341-diamond-x0969_0_A
     RDKit          3D

 12 13  0  0  0  0  0  0  0  0999 V2000
   -6.8950   14.6510    2.3740 N   0  0  0  0  0  0  0  0  0  0  0  0
   -6.1090   14.7120    1.2710 C   0  0  0  0  0  0  0  0  0  0  0  0
   -4.8260   14.7310    1.4120 N   0  0  0  0  0  0  0  0  0  0  0  0
   -6.7180   14.7560    0.0480 N   0  0  0  0  0  0  0  0  0  0  0  0
   -6.0240   14.9720   -1.1200 C   0  0  0  0  0  0  0  0  0  0  0  0
   -4.0260   14.7840    0.2700 C   0  0  0  0  0  0  0  0  0  0  0  0
   -6.5800   15.1920   -2.1860 O   0  0  0  0  0  0  0  0  0  0  0  0
   -4.5600   14.9050   -1.0100 C   0  0  0  0  0  0  0  0  0  0  0  0
   -2.6400   14.7070    0.4160 C   0  0  0  0  0  0  0  0  0  0  0  0
   -1.8090   14.7500   -0.7070 C   0  0  0  0  0  0  0  0  0  0  0  0
   -3.7470   14.9530   -2.1410 C   0  0  0  0  0  0  0  0  0  0  0  0
   -2.3660   14.8720   -1.9850 C   0  0  0  0  0  0  0  0  0  0  0  0
  1  2  1  0
  2  3  2  0
  2  4  1  0
  4  5  1  0
  3  6  1  0
  5  7  2  0
  5  8  1  0
  6  8  2  0
  6  9  1  0
  9 10  2  0
  8 11  1  0
 10 12  1  0
 11 12  2  0
M  END
