mac-x0190-mac-x0319
     RDKit          3D

 25 27  0  0  0  0  0  0  0  0999 V2000
   -9.0750   15.0300    2.3920 O   0  0  0  0  0  0  0  0  0  0  0  0
   -8.8180   14.1950    1.2700 C   0  0  0  0  0  0  0  0  0  0  0  0
   -7.4460   14.5010    0.7890 C   0  0  0  0  0  0  0  0  0  0  0  0
   -7.1890   14.8090   -0.5190 N   0  0  0  0  0  0  0  0  0  0  0  0
   -6.3350   14.5240    1.4990 N   0  0  0  0  0  0  0  0  0  0  0  0
   -5.8400   15.0410   -0.6530 C   0  0  0  0  0  0  0  0  0  0  0  0
   -5.3260   14.8560    0.6200 C   0  0  0  0  0  0  0  0  0  0  0  0
   -5.0560   15.3830   -1.7480 C   0  0  0  0  0  0  0  0  0  0  0  0
   -3.9350   15.0180    0.8340 C   0  0  0  0  0  0  0  0  0  0  0  0
   -3.6770   15.5400   -1.5230 C   0  0  0  0  0  0  0  0  0  0  0  0
   -3.0970   15.3620   -0.2550 C   0  0  0  0  0  0  0  0  0  0  0  0
   -1.5900   15.5360   -0.0670 C   0  0  0  0  0  0  0  0  0  0  0  0
   -0.7690   14.2310    0.0700 C   0  0  0  0  0  0  0  0  0  0  0  0
    0.1710   13.8840   -1.1140 C   0  0  0  0  0  0  0  0  0  0  0  0
    0.1930   12.4220   -1.2980 N   0  0  0  0  0  0  0  0  0  0  0  0
    0.6060   11.7930   -2.3560 C   0  0  0  0  0  0  0  0  0  0  0  0
    0.5500   10.4390   -2.4030 O   0  0  0  0  0  0  0  0  0  0  0  0
    1.1660   12.4730   -3.6000 C   0  0  0  0  0  0  0  0  0  0  0  0
    0.5230   13.7900   -3.9590 C   0  0  0  0  0  0  0  0  0  0  0  0
    1.2570   14.9870   -3.9180 C   0  0  0  0  0  0  0  0  0  0  0  0
   -0.8280   13.8280   -4.3350 C   0  0  0  0  0  0  0  0  0  0  0  0
    0.6250   16.1910   -4.2450 C   0  0  0  0  0  0  0  0  0  0  0  0
   -1.4400   15.0430   -4.6610 C   0  0  0  0  0  0  0  0  0  0  0  0
    1.2790   17.3840   -4.2150 O   0  0  0  0  0  0  0  0  0  0  0  0
   -0.7100   16.2220   -4.6130 C   0  0  0  0  0  0  0  0  0  0  0  0
  1  2  1  0
  2  3  1  0
  3  4  1  0
  3  5  2  0
  4  6  1  0
  5  7  1  0
  6  7  2  0
  6  8  1  0
  7  9  1  0
  8 10  2  0
  9 11  2  0
 10 11  1  0
 11 12  1  0
 12 13  1  0
 13 14  1  0
 14 15  1  0
 15 16  2  3
 16 17  1  0
 16 18  1  0
 18 19  1  0
 19 20  2  0
 19 21  1  0
 20 22  1  0
 21 23  2  0
 22 24  1  0
 22 25  2  0
 23 25  1  0
M  END
