mac-x0137-mac-x0182
     RDKit          3D

 27 31  0  0  0  0  0  0  0  0999 V2000
   -0.4870   12.8930   -4.2350 N   0  0  0  0  0  0  0  0  0  0  0  0
   -0.3880   14.2130   -4.7290 C   0  0  1  0  0  0  0  0  0  0  0  0
   -1.7810   14.0220   -5.2140 C   0  0  0  0  0  0  0  0  0  0  0  0
   -0.1800   11.8540   -4.8600 C   0  0  0  0  0  0  0  0  0  0  0  0
   -0.3630   15.0920   -3.4750 C   0  0  0  0  0  0  0  0  0  0  0  0
    0.4380   11.4800   -6.1930 C   0  0  0  0  0  0  0  0  0  0  0  0
   -0.7180   10.3870   -3.9700 S   0  0  0  0  0  0  0  0  0  0  0  0
    1.3850   11.9720   -6.7660 O   0  0  0  0  0  0  0  0  0  0  0  0
    0.4980    9.8530   -3.3190 O   0  0  0  0  0  0  0  0  0  0  0  0
   -0.9500   14.2230   -2.4480 N   0  0  0  0  0  0  0  0  0  0  0  0
   -2.2480   12.9670   -4.1980 C   0  0  0  0  0  0  0  0  0  0  0  0
   -0.9920    9.6990   -5.6100 C   0  0  0  0  0  0  0  0  0  0  0  0
   -0.3430   10.3460   -6.6690 C   0  0  0  0  0  0  0  0  0  0  0  0
   -1.3020   12.9030   -2.9650 C   0  0  0  0  0  0  0  0  0  0  0  0
   -1.1880   14.4890   -1.1080 C   0  0  0  0  0  0  0  0  0  0  0  0
   -1.7950    8.6030   -5.8600 C   0  0  0  0  0  0  0  0  0  0  0  0
   -0.4660    9.9180   -7.9820 C   0  0  0  0  0  0  0  0  0  0  0  0
   -0.1850   14.3500   -0.1730 N   0  0  0  0  0  0  0  0  0  0  0  0
   -2.3750   14.8760   -0.6270 C   0  0  0  0  0  0  0  0  0  0  0  0
   -1.9370    8.1600   -7.1770 C   0  0  0  0  0  0  0  0  0  0  0  0
   -1.2760    8.8100   -8.2300 C   0  0  0  0  0  0  0  0  0  0  0  0
   -0.4290   14.4990    1.1650 C   0  0  0  0  0  0  0  0  0  0  0  0
   -2.5380   15.1020    0.8230 C   0  0  0  0  0  0  0  0  0  0  0  0
   -3.6700   15.1790   -1.1460 C   0  0  0  0  0  0  0  0  0  0  0  0
   -1.5320   14.8580    1.7050 N   0  0  0  0  0  0  0  0  0  0  0  0
   -3.7210   15.5440    1.1280 N   0  0  0  0  0  0  0  0  0  0  0  0
   -4.3880   15.5730   -0.0870 C   0  0  0  0  0  0  0  0  0  0  0  0
  2  1  1  1
  2  3  1  0
  1  4  2  3
  2  5  1  0
  4  6  1  0
  7  4  1  6
  6  8  2  0
  7  9  2  0
  5 10  1  0
  3 11  1  0
  7 12  1  0
  6 13  1  0
 12 13  2  0
 10 14  1  0
 11 14  1  0
 10 15  1  0
 12 16  1  0
 13 17  1  0
 15 18  1  0
 15 19  2  0
 16 20  2  0
 17 21  2  0
 20 21  1  0
 18 22  1  0
 19 23  1  0
 19 24  1  0
 22 25  2  0
 23 25  1  0
 23 26  2  0
 24 27  2  0
 26 27  1  0
M  END
