mac-x0402-mac-x0328
     RDKit          3D

 14 15  0  0  0  0  0  0  0  0999 V2000
   -2.3900   14.9760   -3.3960 C   0  0  0  0  0  0  0  0  0  0  0  0
   -1.0710   14.5000   -2.8720 C   0  0  0  0  0  0  0  0  0  0  0  0
   -0.6670   14.7000   -1.7360 O   0  0  0  0  0  0  0  0  0  0  0  0
   -3.4430   14.9710   -2.3210 C   0  0  0  0  0  0  0  0  0  0  0  0
   -4.7860   15.0780   -2.6860 C   0  0  0  0  0  0  0  0  0  0  0  0
   -3.0780   14.8610   -0.9620 C   0  0  0  0  0  0  0  0  0  0  0  0
   -4.0990   14.8620   -0.0070 C   0  0  0  0  0  0  0  0  0  0  0  0
   -5.7730   15.0750   -1.7110 C   0  0  0  0  0  0  0  0  0  0  0  0
   -7.1110   15.1800   -2.0390 O   0  0  0  0  0  0  0  0  0  0  0  0
   -5.4330   14.9630   -0.3700 C   0  0  0  0  0  0  0  0  0  0  0  0
   -4.0310   14.7500    1.6950 S   0  0  0  0  0  0  0  0  0  0  0  0
   -5.7480   14.8440    1.7810 C   0  0  0  0  0  0  0  0  0  0  0  0
   -6.3510   14.9450    0.6400 N   0  0  0  0  0  0  0  0  0  0  0  0
   -6.4620   14.8290    2.9240 N   0  0  0  0  0  0  0  0  0  0  0  0
  1  2  1  0
  2  3  2  0
  1  4  1  0
  4  5  2  0
  4  6  1  0
  6  7  2  0
  5  8  1  0
  8  9  1  0
  7 10  1  0
  8 10  2  0
  7 11  1  0
 11 12  1  0
 10 13  1  0
 12 13  2  0
 12 14  1  0
M  END
