mac-x0132-diamond-x0855_0_A
     RDKit          3D

 24 26  0  0  0  0  0  0  0  0999 V2000
   -4.3020   14.9690    2.0760 N   0  0  0  0  0  0  0  0  0  0  0  0
   -5.2690   14.8760    1.0840 C   0  0  0  0  0  0  0  0  0  0  0  0
   -6.5560   14.8260    1.4660 N   0  0  0  0  0  0  0  0  0  0  0  0
   -4.8590   14.8400   -0.2280 C   0  0  0  0  0  0  0  0  0  0  0  0
   -5.8730   14.7790   -1.1770 C   0  0  0  0  0  0  0  0  0  0  0  0
   -7.4490   14.7570    0.4720 C   0  0  0  0  0  0  0  0  0  0  0  0
   -3.5070   14.8560   -0.6060 C   0  0  0  0  0  0  0  0  0  0  0  0
   -7.1700   14.7400   -0.8390 N   0  0  0  0  0  0  0  0  0  0  0  0
   -5.4990   14.7550   -2.5140 C   0  0  0  0  0  0  0  0  0  0  0  0
   -3.1330   14.8050   -1.9410 C   0  0  0  0  0  0  0  0  0  0  0  0
   -1.6640   14.7790   -2.3000 C   0  0  0  0  0  0  0  0  0  0  0  0
   -4.1490   14.7660   -2.9050 C   0  0  0  0  0  0  0  0  0  0  0  0
   -0.9430   13.4530   -2.0460 C   0  0  0  0  0  0  0  0  0  0  0  0
    0.5070   13.6590   -1.5750 C   0  0  0  0  0  0  0  0  0  0  0  0
    1.4430   12.9910   -2.4300 O   0  0  0  0  0  0  0  0  0  0  0  0
    0.9000   12.0270   -3.2100 C   0  0  0  0  0  0  0  0  0  0  0  0
    0.6220   10.9040   -2.7980 O   0  0  0  0  0  0  0  0  0  0  0  0
    0.6420   12.4550   -4.6290 C   0  0  0  0  0  0  0  0  0  0  0  0
   -0.4280   11.6510   -5.1720 N   0  0  0  0  0  0  0  0  0  0  0  0
   -0.3310   10.7090   -6.1510 C   0  0  0  0  0  0  0  0  0  0  0  0
   -1.6820   11.7960   -4.6880 N   0  0  0  0  0  0  0  0  0  0  0  0
   -1.5930   10.2100   -6.2950 C   0  0  0  0  0  0  0  0  0  0  0  0
   -2.3920   10.9050   -5.3840 C   0  0  0  0  0  0  0  0  0  0  0  0
   -2.1690    8.8720   -7.4550 Br  0  0  0  0  0  0  0  0  0  0  0  0
  1  2  1  0
  2  3  2  0
  2  4  1  0
  4  5  2  0
  3  6  1  0
  4  7  1  0
  5  8  1  0
  6  8  2  0
  5  9  1  0
  7 10  2  0
 10 11  1  0
  9 12  2  0
 10 12  1  0
 11 13  1  0
 13 14  1  0
 14 15  1  0
 15 16  1  0
 16 17  2  0
 16 18  1  0
 18 19  1  0
 19 20  1  0
 19 21  1  0
 20 22  2  0
 21 23  2  0
 22 23  1  0
 22 24  1  0
M  END
