mac-x0344-mac-x0306
     RDKit          3D

 26 28  0  0  0  0  0  0  0  0999 V2000
    2.3260   12.9440   -4.7830 O   0  0  0  0  0  0  0  0  0  0  0  0
    1.4240   12.8080   -3.8030 C   0  0  0  0  0  0  0  0  0  0  0  0
    1.4050   13.5330   -2.7440 N   0  0  0  0  0  0  0  0  0  0  0  0
    0.4170   11.6910   -4.0960 C   0  0  0  0  0  0  0  0  0  0  0  0
    0.1170   10.9590   -3.1580 O   0  0  0  0  0  0  0  0  0  0  0  0
    0.0030   11.6720   -5.4040 N   0  0  0  0  0  0  0  0  0  0  0  0
    0.3580   13.3390   -1.7410 C   0  0  0  0  0  0  0  0  0  0  0  0
   -0.4820   14.6090   -1.6610 C   0  0  0  0  0  0  0  0  0  0  0  0
   -0.8180   10.6960   -6.0000 C   0  0  0  0  0  0  0  0  0  0  0  0
   -1.7230   14.5570   -2.5670 C   0  0  0  0  0  0  0  0  0  0  0  0
   -0.3860   10.1210   -7.2020 C   0  0  0  0  0  0  0  0  0  0  0  0
   -2.0300   10.2840   -5.4450 C   0  0  0  0  0  0  0  0  0  0  0  0
   -1.1630    9.1470   -7.8360 C   0  0  0  0  0  0  0  0  0  0  0  0
   -2.8050    9.3110   -6.0810 C   0  0  0  0  0  0  0  0  0  0  0  0
   -2.9480   14.9070   -1.8200 N   0  0  0  0  0  0  0  0  0  0  0  0
   -2.3720    8.7420   -7.2750 C   0  0  0  0  0  0  0  0  0  0  0  0
   -4.1830   14.9900   -2.4660 C   0  0  0  0  0  0  0  0  0  0  0  0
   -2.9640   14.6880   -0.4450 C   0  0  0  0  0  0  0  0  0  0  0  0
   -5.3320   15.2080   -1.8130 C   0  0  0  0  0  0  0  0  0  0  0  0
   -4.0410   14.8900    0.3170 C   0  0  0  0  0  0  0  0  0  0  0  0
   -5.3240   15.3880   -0.3030 C   0  0  0  0  0  0  0  0  0  0  0  0
   -6.5740   14.8940    0.3950 C   0  0  0  0  0  0  0  0  0  0  0  0
   -6.5850   14.5180    1.7290 N   0  0  0  0  0  0  0  0  0  0  0  0
   -7.7830   14.7650   -0.1190 N   0  0  0  0  0  0  0  0  0  0  0  0
   -8.5800   14.3110    0.8960 C   0  0  0  0  0  0  0  0  0  0  0  0
   -7.8570   14.1520    2.0490 C   0  0  0  0  0  0  0  0  0  0  0  0
  1  2  1  0
  2  3  2  3
  2  4  1  0
  4  5  2  0
  4  6  1  0
  3  7  1  0
  7  8  1  0
  6  9  1  0
  8 10  1  0
  9 11  2  0
  9 12  1  0
 11 13  1  0
 12 14  2  0
 10 15  1  0
 13 16  2  0
 14 16  1  0
 15 17  1  0
 15 18  1  0
 17 19  2  0
 18 20  2  0
 19 21  1  0
 20 21  1  0
 21 22  1  0
 22 23  1  0
 22 24  2  0
 24 25  1  0
 23 26  1  0
 25 26  2  0
M  END
