mac-x0302-mac-x0360
     RDKit          3D

 25 26  0  0  0  0  0  0  0  0999 V2000
    1.3770   14.5710   -4.0010 O   0  0  0  0  0  0  0  0  0  0  0  0
    0.4170   14.3020   -3.0900 C   0  0  0  0  0  0  0  0  0  0  0  0
    0.6900   13.8520   -1.9850 O   0  0  0  0  0  0  0  0  0  0  0  0
   -1.0030   14.6140   -3.5950 C   0  0  0  0  0  0  0  0  0  0  0  0
   -1.8590   15.2460   -2.5710 N   0  0  0  0  0  0  0  0  0  0  0  0
   -3.0630   14.4970   -2.2180 C   0  0  1  0  0  0  0  0  0  0  0  0
   -3.6400   13.8360   -3.3380 O   0  0  0  0  0  0  0  0  0  0  0  0
   -2.5250   13.3410   -0.7320 S   0  0  0  0  0  0  0  0  0  0  0  0
   -4.0620   14.8010   -1.1200 C   0  0  0  0  0  0  0  0  0  0  0  0
   -2.5470   14.1000    0.5000 O   0  0  0  0  0  0  0  0  0  0  0  0
   -1.3440   12.5480   -1.0470 O   0  0  0  0  0  0  0  0  0  0  0  0
   -5.4480   14.6740   -1.2990 C   0  0  0  0  0  0  0  0  0  0  0  0
   -3.5660   15.1590    0.1470 C   0  0  0  0  0  0  0  0  0  0  0  0
   -4.0400   12.3730   -0.6800 C   0  0  0  0  0  0  0  0  0  0  0  0
   -6.2870   14.8680   -0.2170 C   0  0  0  0  0  0  0  0  0  0  0  0
   -4.4120   15.3450    1.2160 C   0  0  0  0  0  0  0  0  0  0  0  0
   -4.2830   11.4810   -1.7150 C   0  0  0  0  0  0  0  0  0  0  0  0
   -4.9560   12.5190    0.3840 C   0  0  0  0  0  0  0  0  0  0  0  0
   -7.6440   14.7470   -0.3360 O   0  0  0  0  0  0  0  0  0  0  0  0
   -5.7700   15.1830    1.0320 C   0  0  0  0  0  0  0  0  0  0  0  0
   -5.4490   10.7290   -1.6930 C   0  0  0  0  0  0  0  0  0  0  0  0
   -6.1260   11.7470    0.3790 C   0  0  0  0  0  0  0  0  0  0  0  0
   -7.2800   11.8760    1.6520 Cl  0  0  0  0  0  0  0  0  0  0  0  0
   -5.7440    9.6170   -2.9660 Cl  0  0  0  0  0  0  0  0  0  0  0  0
   -6.3740   10.8550   -0.6590 C   0  0  0  0  0  0  0  0  0  0  0  0
  1  2  1  0
  2  3  2  0
  2  4  1  0
  4  5  1  0
  5  6  1  0
  6  7  1  6
  6  8  1  0
  6  9  1  0
  8 10  2  0
  8 11  2  0
  9 12  2  0
  9 13  1  0
  8 14  1  0
 12 15  1  0
 13 16  2  0
 14 17  2  0
 14 18  1  0
 15 19  1  0
 15 20  2  0
 16 20  1  0
 17 21  1  0
 18 22  2  0
 22 23  1  0
 21 24  1  0
 21 25  2  0
 22 25  1  0
M  END
