mac-x0124-mac-x0142
     RDKit          3D

 18 21  0  0  0  0  0  0  0  0999 V2000
   -1.0410   16.2640   -3.4750 C   0  0  0  0  0  0  0  0  0  0  0  0
   -1.9100   15.8410   -2.3860 N   0  0  0  0  0  0  0  0  0  0  0  0
   -3.2780   15.7860   -2.5130 C   0  0  0  0  0  0  0  0  0  0  0  0
   -1.6610   14.5680   -1.7930 C   0  0  2  0  0  0  0  0  0  0  0  0
   -3.8760   14.9880   -1.6090 C   0  0  0  0  0  0  0  0  0  0  0  0
   -2.8120   14.3290   -0.7780 C   0  0  2  0  0  0  0  0  0  0  0  0
   -0.2950   14.1070   -1.3930 C   0  0  1  0  0  0  0  0  0  0  0  0
   -2.4310   14.6490    0.6750 C   0  0  2  0  0  0  0  0  0  0  0  0
   -0.0540   14.5060    0.1510 C   0  0  0  0  0  0  0  0  0  0  0  0
   -0.4180   12.6080   -1.7720 C   0  0  0  0  0  0  0  0  0  0  0  0
    0.7280   14.7290   -2.3940 C   0  0  0  0  0  0  0  0  0  0  0  0
   -3.4420   15.4100    1.3740 N   0  0  0  0  0  0  0  0  0  0  0  0
   -1.1400   15.3050    0.7790 N   0  0  0  0  0  0  0  0  0  0  0  0
    0.9770   13.7840   -3.5720 C   0  0  0  0  0  0  0  0  0  0  0  0
   -0.9870   12.3590   -3.1980 C   0  0  0  0  0  0  0  0  0  0  0  0
    2.1980   13.9650   -4.4260 C   0  0  0  0  0  0  0  0  0  0  0  0
    2.1850   12.8970   -3.3870 C   0  0  0  0  0  0  0  0  0  0  0  0
   -0.2290   13.1630   -4.2350 C   0  0  0  0  0  0  0  0  0  0  0  0
  1  2  1  0
  2  3  1  0
  4  2  1  1
  3  5  2  0
  4  6  1  0
  6  5  1  6
  4  7  1  0
  6  8  1  0
  7  9  1  1
  7 10  1  0
  7 11  1  0
  8 12  1  6
  8 13  1  0
  9 13  1  0
 14 11  1  0
 10 15  1  0
 14 16  1  0
 14 17  1  0
 16 17  1  0
 14 18  1  0
 15 18  1  0
M  END
