mac-x0439-mac-x0360
     RDKit          3D

 27 29  0  0  0  0  0  0  0  0999 V2000
   -3.1350   15.8490   -5.5690 Cl  0  0  0  0  0  0  0  0  0  0  0  0
   -1.7370   16.8390   -5.3990 C   0  0  0  0  0  0  0  0  0  0  0  0
   -0.8620   16.6520   -4.2180 C   0  0  1  0  0  0  0  0  0  0  0  0
   -1.4300   17.7890   -6.2970 C   0  0  0  0  0  0  0  0  0  0  0  0
   -0.5520   15.3700   -3.5400 C   0  0  0  0  0  0  0  0  0  0  0  0
    0.5620   17.0190   -4.5640 C   0  0  0  0  0  0  0  0  0  0  0  0
   -0.2270   18.5980   -6.1580 C   0  0  0  0  0  0  0  0  0  0  0  0
    0.7770   15.2210   -3.4930 C   0  0  0  0  0  0  0  0  0  0  0  0
    1.4720   16.2080   -4.1280 N   0  0  0  0  0  0  0  0  0  0  0  0
    0.7790   18.2550   -5.3310 C   0  0  0  0  0  0  0  0  0  0  0  0
    1.4090   14.0850   -2.8040 C   0  0  0  0  0  0  0  0  0  0  0  0
    2.5130   13.6650   -3.4480 O   0  0  0  0  0  0  0  0  0  0  0  0
    1.0910   13.4780   -1.7250 N   0  0  0  0  0  0  0  0  0  0  0  0
   -0.0830   13.9760   -0.9760 C   0  0  0  0  0  0  0  0  0  0  0  0
   -1.4150   13.3640   -1.4510 C   0  0  0  0  0  0  0  0  0  0  0  0
   -2.4650   14.4080   -1.5760 N   0  0  0  0  0  0  0  0  0  0  0  0
   -3.5870   14.6450   -0.3380 S   0  0  0  0  0  0  0  0  0  0  0  0
   -4.4350   15.7420   -0.7490 O   0  0  0  0  0  0  0  0  0  0  0  0
   -2.8730   14.6750    0.9130 O   0  0  0  0  0  0  0  0  0  0  0  0
   -4.6120   13.1910   -0.4080 C   0  0  0  0  0  0  0  0  0  0  0  0
   -4.4390   12.2510   -1.4290 C   0  0  0  0  0  0  0  0  0  0  0  0
   -5.5930   13.0130    0.5760 C   0  0  0  0  0  0  0  0  0  0  0  0
   -5.2670   11.1300   -1.4560 C   0  0  0  0  0  0  0  0  0  0  0  0
   -6.4070   11.8850    0.5230 C   0  0  0  0  0  0  0  0  0  0  0  0
   -7.6200   11.6440    1.7200 Cl  0  0  0  0  0  0  0  0  0  0  0  0
   -5.0770    9.9530   -2.7000 Cl  0  0  0  0  0  0  0  0  0  0  0  0
   -6.2520   10.9420   -0.4880 C   0  0  0  0  0  0  0  0  0  0  0  0
  1  2  1  0
  2  3  1  0
  2  4  2  0
  3  5  1  6
  3  6  1  0
  4  7  1  0
  5  8  2  0
  6  9  2  0
  8  9  1  0
  6 10  1  0
  7 10  2  0
  8 11  1  0
 11 12  1  0
 11 13  2  3
 13 14  1  0
 14 15  1  0
 15 16  1  0
 17 16  1  0
 17 18  2  0
 17 19  2  0
 17 20  1  0
 20 21  2  0
 20 22  1  0
 21 23  1  0
 22 24  2  0
 24 25  1  0
 23 26  1  0
 23 27  2  0
 24 27  1  0
M  END
