mac-x0223-diamond-x0900_0_A
     RDKit          3D

 22 23  0  0  0  0  0  0  0  0999 V2000
    1.1120   18.3940   -5.5380 C   0  0  0  0  0  0  0  0  0  0  0  0
   -0.1570   18.0740   -4.9910 O   0  0  0  0  0  0  0  0  0  0  0  0
   -0.3600   16.7340   -4.8440 C   0  0  0  0  0  0  0  0  0  0  0  0
   -1.6650   16.2180   -4.9050 C   0  0  0  0  0  0  0  0  0  0  0  0
    0.6730   15.8070   -4.6310 C   0  0  0  0  0  0  0  0  0  0  0  0
   -2.8570   16.8000   -5.0800 O   0  0  0  0  0  0  0  0  0  0  0  0
   -1.9190   14.8730   -4.7710 C   0  0  0  0  0  0  0  0  0  0  0  0
    0.3820   14.4340   -4.4890 C   0  0  0  0  0  0  0  0  0  0  0  0
    1.4150   13.3820   -4.2450 C   0  0  0  0  0  0  0  0  0  0  0  0
   -3.6410   15.5880   -4.8390 C   0  0  0  0  0  0  0  0  0  0  0  0
   -0.9150   13.9910   -4.5650 C   0  0  0  0  0  0  0  0  0  0  0  0
    0.9340   12.4860   -3.1240 C   0  0  0  0  0  0  0  0  0  0  0  0
   -3.6220   15.3470   -3.3060 C   0  0  0  0  0  0  0  0  0  0  0  0
    0.3470   11.4180   -3.1860 O   0  0  0  0  0  0  0  0  0  0  0  0
    1.2150   13.0280   -1.9210 O   0  0  0  0  0  0  0  0  0  0  0  0
   -4.9200   14.9450   -2.6090 C   0  0  0  0  0  0  0  0  0  0  0  0
   -4.8360   15.1510   -1.1620 N   0  0  0  0  0  0  0  0  0  0  0  0
   -5.9200   14.9700   -0.3050 C   0  0  0  0  0  0  0  0  0  0  0  0
   -3.6060   14.9210   -0.4390 C   0  0  0  0  0  0  0  0  0  0  0  0
   -7.1050   14.9940   -0.6040 O   0  0  0  0  0  0  0  0  0  0  0  0
   -5.3750   14.7240    1.0870 C   0  0  0  0  0  0  0  0  0  0  0  0
   -3.9730   15.3050    0.9810 C   0  0  0  0  0  0  0  0  0  0  0  0
  1  2  1  0
  2  3  1  0
  3  4  2  0
  3  5  1  0
  4  6  1  0
  4  7  1  0
  5  8  2  0
  8  9  1  0
  6 10  1  0
  7 11  2  0
  8 11  1  0
  9 12  1  0
 10 13  1  0
 12 14  2  0
 12 15  1  0
 13 16  1  0
 16 17  1  0
 17 18  1  0
 17 19  1  0
 18 20  2  0
 18 21  1  0
 19 22  1  0
 21 22  1  0
M  END
