mac-x0568-mac-x0148
     RDKit          3D

 28 32  0  0  0  0  0  0  0  0999 V2000
   -8.5840   14.4630    1.7960 C   0  0  0  0  0  0  0  0  0  0  0  0
   -7.4970   14.5420    0.7750 C   0  0  0  0  0  0  0  0  0  0  0  0
   -6.2220   14.0720    1.0590 C   0  0  0  0  0  0  0  0  0  0  0  0
   -7.8230   15.0870   -0.4130 N   0  0  0  0  0  0  0  0  0  0  0  0
   -6.8610   15.1780   -1.3530 C   0  0  0  0  0  0  0  0  0  0  0  0
   -5.2410   14.1690    0.0740 C   0  0  0  0  0  0  0  0  0  0  0  0
   -5.5750   14.7410   -1.1710 C   0  0  0  0  0  0  0  0  0  0  0  0
   -4.6490   14.9180   -2.3120 C   0  0  0  0  0  0  0  0  0  0  0  0
   -4.9220   14.5420   -3.4240 O   0  0  0  0  0  0  0  0  0  0  0  0
   -3.5300   15.5140   -1.9580 N   0  0  0  0  0  0  0  0  0  0  0  0
   -3.2400   15.3830   -0.7280 C   0  0  0  0  0  0  0  0  0  0  0  0
   -2.0280   14.8270   -0.3630 C   0  0  0  0  0  0  0  0  0  0  0  0
   -3.9260   15.7050    0.3640 C   0  0  0  0  0  0  0  0  0  0  0  0
   -2.1720   14.8650    1.1020 C   0  0  0  0  0  0  0  0  0  0  0  0
   -0.9250   14.3490   -0.9790 C   0  0  0  0  0  0  0  0  0  0  0  0
   -3.2850   15.3810    1.5210 N   0  0  0  0  0  0  0  0  0  0  0  0
   -0.6500   14.2520   -2.3810 N   0  0  0  0  0  0  0  0  0  0  0  0
    0.0230   13.9190   -0.0820 N   0  0  0  0  0  0  0  0  0  0  0  0
   -1.2290   14.3840    1.8900 N   0  0  0  0  0  0  0  0  0  0  0  0
   -1.7000   14.2100   -3.4770 C   0  0  1  0  0  0  0  0  0  0  0  0
    0.4780   13.3500   -2.6980 C   0  0  0  0  0  0  0  0  0  0  0  0
   -0.2160   13.9340    1.2760 C   0  0  0  0  0  0  0  0  0  0  0  0
   -2.2590   15.4810   -4.1220 C   0  0  0  0  0  0  0  0  0  0  0  0
   -1.1700   13.5930   -4.7830 C   0  0  2  0  0  0  0  0  0  0  0  0
   -0.0570   12.0190   -3.2260 C   0  0  0  0  0  0  0  0  0  0  0  0
   -2.4020   13.7230   -5.6390 C   0  0  0  0  0  0  0  0  0  0  0  0
   -2.8210   15.0750   -5.4030 O   0  0  0  0  0  0  0  0  0  0  0  0
   -0.5920   12.1990   -4.6410 C   0  0  0  0  0  0  0  0  0  0  0  0
  1  2  1  0
  2  3  2  0
  2  4  1  0
  4  5  2  0
  3  6  1  0
  5  7  1  0
  6  7  2  0
  7  8  1  0
  8  9  2  0
  8 10  1  0
 10 11  1  0
 11 12  1  0
 11 13  2  0
 12 14  1  0
 12 15  2  0
 13 16  1  0
 14 16  2  0
 15 17  1  0
 15 18  1  0
 14 19  1  0
 17 20  1  0
 17 21  1  0
 18 22  1  0
 19 22  2  0
 20 23  1  6
 20 24  1  0
 21 25  1  0
 24 26  1  6
 23 27  1  0
 26 27  1  0
 24 28  1  0
 25 28  1  0
M  END
