mac-x0303-mac-x0226
     RDKit          3D

 30 33  0  0  0  0  0  0  0  0999 V2000
   -8.4750   12.9940    2.6950 N   0  0  0  0  0  0  0  0  0  0  0  0
   -8.5470   14.5410    2.0430 S   0  0  0  0  0  0  0  0  0  0  0  0
   -8.3150   15.4860    3.1100 O   0  0  0  0  0  0  0  0  0  0  0  0
   -9.6950   14.6300    1.1750 O   0  0  0  0  0  0  0  0  0  0  0  0
   -7.1380   14.6800    0.9880 C   0  0  0  0  0  0  0  0  0  0  0  0
   -7.2050   14.9910   -0.3480 N   0  0  0  0  0  0  0  0  0  0  0  0
   -5.8890   14.5050    1.3680 N   0  0  0  0  0  0  0  0  0  0  0  0
   -5.9220   15.0090   -0.8360 C   0  0  0  0  0  0  0  0  0  0  0  0
   -5.1250   14.7010    0.2510 C   0  0  0  0  0  0  0  0  0  0  0  0
   -5.4080   15.2610   -2.1030 C   0  0  0  0  0  0  0  0  0  0  0  0
   -3.7330   14.6240    0.1020 C   0  0  0  0  0  0  0  0  0  0  0  0
   -4.0150   15.1790   -2.2430 C   0  0  0  0  0  0  0  0  0  0  0  0
   -3.1750   14.8610   -1.1660 C   0  0  0  0  0  0  0  0  0  0  0  0
   -1.6770   14.7720   -1.3610 C   0  0  0  0  0  0  0  0  0  0  0  0
   -1.0580   13.3870   -1.4480 C   0  0  0  0  0  0  0  0  0  0  0  0
    0.4370   13.4730   -1.1560 C   0  0  0  0  0  0  0  0  0  0  0  0
    1.1930   12.6360   -2.0420 O   0  0  0  0  0  0  0  0  0  0  0  0
    0.5330   11.6250   -2.6740 C   0  0  0  0  0  0  0  0  0  0  0  0
   -0.0440   10.6940   -2.1020 O   0  0  0  0  0  0  0  0  0  0  0  0
    0.6380   11.7330   -4.1160 C   0  0  0  0  0  0  0  0  0  0  0  0
    1.3850   12.6250   -4.9170 C   0  0  0  0  0  0  0  0  0  0  0  0
    0.0020   10.9240   -5.0350 C   0  0  0  0  0  0  0  0  0  0  0  0
    1.2400   12.3900   -6.2220 N   0  0  0  0  0  0  0  0  0  0  0  0
    0.3860   11.3270   -6.2920 N   0  0  0  0  0  0  0  0  0  0  0  0
    0.0000   10.7590   -7.5390 C   0  0  0  0  0  0  0  0  0  0  0  0
   -1.1650    9.9940   -7.6390 C   0  0  0  0  0  0  0  0  0  0  0  0
    0.7700   10.9440   -8.6770 C   0  0  0  0  0  0  0  0  0  0  0  0
   -1.5280    9.4370   -8.8680 C   0  0  0  0  0  0  0  0  0  0  0  0
    0.4160   10.3950   -9.8990 C   0  0  0  0  0  0  0  0  0  0  0  0
   -0.7390    9.6370   -9.9980 C   0  0  0  0  0  0  0  0  0  0  0  0
  2  1  1  0
  2  3  2  0
  2  4  2  0
  2  5  1  0
  5  6  1  0
  5  7  2  0
  6  8  1  0
  7  9  1  0
  8  9  2  0
  8 10  1  0
  9 11  1  0
 10 12  2  0
 11 13  2  0
 12 13  1  0
 13 14  1  0
 14 15  1  0
 15 16  1  0
 16 17  1  0
 17 18  1  0
 18 19  2  0
 18 20  1  0
 20 21  1  0
 20 22  2  0
 21 23  2  0
 22 24  1  0
 23 24  1  0
 24 25  1  0
 25 26  2  0
 25 27  1  0
 26 28  1  0
 27 29  2  0
 28 30  2  0
 29 30  1  0
M  END
