mac-x0231-diamond-x0962_1_A
     RDKit          3D

 23 25  0  0  0  0  0  0  0  0999 V2000
    0.9340   10.6240   -3.1900 O   0  0  0  0  0  0  0  0  0  0  0  0
    1.3940   11.8810   -3.1700 C   0  0  0  0  0  0  0  0  0  0  0  0
    1.4430   12.4760   -2.1060 O   0  0  0  0  0  0  0  0  0  0  0  0
    1.8180   12.4860   -4.4750 C   0  0  0  0  0  0  0  0  0  0  0  0
    1.3150   13.9000   -4.5130 C   0  0  0  0  0  0  0  0  0  0  0  0
   -0.1290   14.1020   -4.5320 C   0  0  0  0  0  0  0  0  0  0  0  0
    2.1580   14.8680   -4.4460 N   0  0  0  0  0  0  0  0  0  0  0  0
   -0.6000   15.4100   -4.5350 C   0  0  0  0  0  0  0  0  0  0  0  0
    1.6760   16.1400   -4.4260 N   0  0  0  0  0  0  0  0  0  0  0  0
   -1.0030   13.0240   -4.5190 C   0  0  0  0  0  0  0  0  0  0  0  0
    0.3700   16.5140   -4.5690 C   0  0  0  0  0  0  0  0  0  0  0  0
   -1.9730   15.6410   -4.4870 C   0  0  0  0  0  0  0  0  0  0  0  0
   -2.3600   13.2520   -4.4740 C   0  0  0  0  0  0  0  0  0  0  0  0
    0.0240   17.6830   -4.7190 O   0  0  0  0  0  0  0  0  0  0  0  0
   -2.8400   14.5490   -4.4390 C   0  0  0  0  0  0  0  0  0  0  0  0
   -4.2960   14.7490   -4.3270 C   0  0  0  0  0  0  0  0  0  0  0  0
   -4.6470   14.9070   -2.8790 C   0  0  0  0  0  0  0  0  0  0  0  0
   -5.0450   14.9300   -1.7280 C   0  0  0  0  0  0  0  0  0  0  0  0
   -5.7280   14.8250   -0.4810 C   0  0  0  0  0  0  0  0  0  0  0  0
   -5.2460   14.8750    0.8070 N   0  0  0  0  0  0  0  0  0  0  0  0
   -7.0790   14.6400   -0.3370 C   0  0  0  0  0  0  0  0  0  0  0  0
   -6.3260   14.7140    1.6470 C   0  0  0  0  0  0  0  0  0  0  0  0
   -7.4460   14.5710    0.9780 N   0  0  0  0  0  0  0  0  0  0  0  0
  1  2  1  0
  2  3  2  0
  2  4  1  0
  4  5  1  0
  5  6  1  0
  5  7  2  0
  6  8  2  0
  7  9  1  0
  6 10  1  0
  8 11  1  0
  9 11  1  0
  8 12  1  0
 10 13  2  0
 11 14  2  0
 12 15  2  0
 13 15  1  0
 15 16  1  0
 16 17  1  0
 17 18  3  0
 18 19  1  0
 19 20  1  0
 19 21  2  0
 20 22  1  0
 21 23  1  0
 22 23  2  0
M  END
