mac-x0357-mac-x0321
     RDKit          3D

 20 21  0  0  0  0  0  0  0  0999 V2000
    2.4220   13.2130   -4.5180 C   0  0  0  0  0  0  0  0  0  0  0  0
    1.0960   12.5660   -4.8200 C   0  0  0  0  0  0  0  0  0  0  0  0
    0.8940   11.8850   -6.0290 C   0  0  0  0  0  0  0  0  0  0  0  0
    0.0120   12.6090   -3.9040 C   0  0  0  0  0  0  0  0  0  0  0  0
    1.8620   11.7720   -6.9750 O   0  0  0  0  0  0  0  0  0  0  0  0
    0.1020   13.3000   -2.5870 C   0  0  0  0  0  0  0  0  0  0  0  0
   -1.2080   11.9860   -4.2290 C   0  0  0  0  0  0  0  0  0  0  0  0
   -0.3150   11.2720   -6.3460 C   0  0  0  0  0  0  0  0  0  0  0  0
   -0.7390   14.1850   -2.1410 N   0  0  0  0  0  0  0  0  0  0  0  0
    1.1830   12.8790   -1.9010 O   0  0  0  0  0  0  0  0  0  0  0  0
   -1.3700   11.3180   -5.4420 C   0  0  0  0  0  0  0  0  0  0  0  0
   -1.8370   14.5860   -2.8640 C   0  0  0  0  0  0  0  0  0  0  0  0
   -1.8570   14.6960   -4.0850 O   0  0  0  0  0  0  0  0  0  0  0  0
   -3.0810   14.9060   -2.0850 C   0  0  0  0  0  0  0  0  0  0  0  0
   -3.0830   14.9870   -0.6840 C   0  0  0  0  0  0  0  0  0  0  0  0
   -4.2740   15.1300   -2.7860 C   0  0  0  0  0  0  0  0  0  0  0  0
   -4.2670   15.2880   -0.0150 C   0  0  0  0  0  0  0  0  0  0  0  0
   -5.4530   15.4290   -2.1030 C   0  0  0  0  0  0  0  0  0  0  0  0
   -4.2640   15.3890    1.6970 Cl  0  0  0  0  0  0  0  0  0  0  0  0
   -5.4470   15.5080   -0.7190 C   0  0  0  0  0  0  0  0  0  0  0  0
  1  2  1  0
  2  3  2  0
  2  4  1  0
  3  5  1  0
  4  6  1  0
  4  7  2  0
  3  8  1  0
  6  9  2  3
  6 10  1  0
  7 11  1  0
  8 11  2  0
  9 12  1  0
 12 13  2  0
 12 14  1  0
 14 15  2  0
 14 16  1  0
 15 17  1  0
 16 18  2  0
 17 19  1  0
 17 20  2  0
 18 20  1  0
M  END
