mac-x0455-mac-x0284
     RDKit          3D

 19 21  0  0  0  0  0  0  0  0999 V2000
   -2.4630   13.0850   -2.8080 C   0  0  0  0  0  0  0  0  0  0  0  0
   -1.2230   13.6990   -3.5010 C   0  0  1  0  0  0  0  0  0  0  0  0
   -1.7850   14.8950   -4.0280 O   0  0  0  0  0  0  0  0  0  0  0  0
   -0.3070   14.1960   -2.3350 C   0  0  0  0  0  0  0  0  0  0  0  0
   -0.8480   12.6770   -4.5410 C   0  0  0  0  0  0  0  0  0  0  0  0
    0.6330   15.2070   -2.6230 O   0  0  0  0  0  0  0  0  0  0  0  0
    0.2640   13.2250   -1.4710 O   0  0  0  0  0  0  0  0  0  0  0  0
   -1.7690   11.6250   -4.6990 C   0  0  0  0  0  0  0  0  0  0  0  0
    0.2990   12.7060   -5.3340 C   0  0  0  0  0  0  0  0  0  0  0  0
   -1.6180   14.6770   -1.7550 C   0  0  0  0  0  0  0  0  0  0  0  0
   -2.4230   15.0570   -2.8490 C   0  0  0  0  0  0  0  0  0  0  0  0
   -1.5560   10.6220   -5.6220 C   0  0  0  0  0  0  0  0  0  0  0  0
    0.5110   11.6930   -6.2660 C   0  0  0  0  0  0  0  0  0  0  0  0
   -2.1240   14.7860   -0.4690 C   0  0  0  0  0  0  0  0  0  0  0  0
   -3.6990   15.5200   -2.7210 C   0  0  0  0  0  0  0  0  0  0  0  0
   -0.4150   10.6550   -6.4090 C   0  0  0  0  0  0  0  0  0  0  0  0
   -3.4440   15.2770   -0.3120 C   0  0  0  0  0  0  0  0  0  0  0  0
   -4.2170   15.6340   -1.4370 C   0  0  0  0  0  0  0  0  0  0  0  0
   -4.0390   15.4280    1.0510 C   0  0  0  0  0  0  0  0  0  0  0  0
  2  1  1  1
  2  3  1  0
  2  4  1  0
  2  5  1  0
  4  6  1  0
  4  7  1  0
  5  8  2  0
  5  9  1  0
  4 10  1  0
  3 11  1  0
 10 11  2  0
  8 12  1  0
  9 13  2  0
 10 14  1  0
 11 15  1  0
 12 16  2  0
 13 16  1  0
 14 17  2  0
 15 18  2  0
 17 18  1  0
 17 19  1  0
M  END
