mac-x0472-diamond-x0962_1_A
     RDKit          3D

 20 22  0  0  0  0  0  0  0  0999 V2000
   -4.8840   15.3220   -1.9450 N   0  0  0  0  0  0  0  0  0  0  0  0
   -3.7250   14.4250   -2.4230 S   0  0  1  0  0  0  0  0  0  0  0  0
   -3.0820   14.5220   -3.7190 O   0  0  0  0  0  0  0  0  0  0  0  0
   -5.6690   15.2380   -0.6910 C   0  0  2  0  0  0  0  0  0  0  0  0
   -2.4480   14.7740   -1.3950 N   0  0  0  0  0  0  0  0  0  0  0  0
   -4.2470   12.7310   -2.2720 C   0  0  0  0  0  0  0  0  0  0  0  0
   -5.3280   14.2310    0.3180 N   0  0  0  0  0  0  0  0  0  0  0  0
   -7.1840   15.0300   -0.8200 C   0  0  0  0  0  0  0  0  0  0  0  0
   -2.7160   14.8430   -0.0890 C   0  0  0  0  0  0  0  0  0  0  0  0
   -3.4140   11.6820   -2.6640 C   0  0  0  0  0  0  0  0  0  0  0  0
   -5.5180   12.4780   -1.7530 C   0  0  0  0  0  0  0  0  0  0  0  0
   -6.4070   14.3390    1.2970 C   0  0  0  0  0  0  0  0  0  0  0  0
   -7.6200   14.5650    0.5170 N   0  0  0  0  0  0  0  0  0  0  0  0
   -2.1190   14.0850    0.7910 N   0  0  0  0  0  0  0  0  0  0  0  0
   -3.8710   15.9130    0.6090 S   0  0  0  0  0  0  0  0  0  0  0  0
   -3.8720   10.3700   -2.5380 C   0  0  0  0  0  0  0  0  0  0  0  0
   -5.9660   11.1680   -1.6290 C   0  0  0  0  0  0  0  0  0  0  0  0
   -3.5070   15.2260    2.1020 C   0  0  0  0  0  0  0  0  0  0  0  0
   -2.5820   14.3060    2.0570 N   0  0  0  0  0  0  0  0  0  0  0  0
   -5.1480   10.1180   -2.0240 C   0  0  0  0  0  0  0  0  0  0  0  0
  1  2  2  0
  2  3  2  0
  4  1  1  6
  2  5  1  1
  2  6  1  0
  4  7  1  0
  4  8  1  0
  5  9  1  0
  6 10  2  0
  6 11  1  0
  7 12  1  0
  8 13  1  0
 12 13  1  0
  9 14  2  0
  9 15  1  0
 10 16  1  0
 11 17  2  0
 15 18  1  0
 14 19  1  0
 18 19  2  0
 16 20  2  0
 17 20  1  0
M  END
