mac-x0361-mac-x0131
     RDKit          3D

 22 24  0  0  0  0  0  0  0  0999 V2000
   -6.2960   14.8310    1.5500 N   0  0  0  0  0  0  0  0  0  0  0  0
   -6.4770   14.8020    0.1820 C   0  0  0  0  0  0  0  0  0  0  0  0
   -7.6190   14.8880   -0.2550 O   0  0  0  0  0  0  0  0  0  0  0  0
   -5.2360   14.6450   -0.7080 C   0  0  2  0  0  0  0  0  0  0  0  0
   -4.1380   15.6920   -0.6120 C   0  0  0  0  0  0  0  0  0  0  0  0
   -5.5120   14.5510   -2.1880 C   0  0  0  0  0  0  0  0  0  0  0  0
   -2.7670   15.0050   -0.7860 C   0  0  2  0  0  0  0  0  0  0  0  0
   -4.2020   14.1840   -2.9280 C   0  0  1  0  0  0  0  0  0  0  0  0
   -4.0200   14.9960   -4.2130 C   0  0  0  0  0  0  0  0  0  0  0  0
   -2.8820   14.0900   -2.0710 C   0  0  1  0  0  0  0  0  0  0  0  0
   -2.5860   14.3280    0.6200 C   0  0  2  0  0  0  0  0  0  0  0  0
   -1.5150   15.8690   -0.9850 C   0  0  0  0  0  0  0  0  0  0  0  0
   -1.7600   14.3880   -2.9350 O   0  0  0  0  0  0  0  0  0  0  0  0
   -3.6080   14.7900    1.5490 N   0  0  0  0  0  0  0  0  0  0  0  0
   -1.3670   14.6980    1.2910 N   0  0  0  0  0  0  0  0  0  0  0  0
   -0.3080   15.0670   -0.8510 N   0  0  0  0  0  0  0  0  0  0  0  0
   -0.1320   14.7000    0.5420 C   0  0  0  0  0  0  0  0  0  0  0  0
   -1.0550   13.3870   -3.4870 C   0  0  0  0  0  0  0  0  0  0  0  0
    0.2340   13.1820   -3.9500 C   0  0  0  0  0  0  0  0  0  0  0  0
   -1.7800   12.2480   -3.6470 O   0  0  0  0  0  0  0  0  0  0  0  0
   -0.9690   11.3210   -4.2110 C   0  0  0  0  0  0  0  0  0  0  0  0
    0.2770   11.8490   -4.4180 C   0  0  0  0  0  0  0  0  0  0  0  0
  1  2  1  0
  2  3  2  0
  4  2  1  1
  4  5  1  0
  4  6  1  0
  7  5  1  1
  6  8  1  0
  8  9  1  6
  7 10  1  0
  8 10  1  0
  7 11  1  0
  7 12  1  0
 10 13  1  6
 11 14  1  1
 11 15  1  0
 12 16  1  0
 15 17  1  0
 16 17  1  0
 13 18  1  0
 18 19  2  0
 18 20  1  0
 20 21  1  0
 19 22  1  0
 21 22  2  0
M  END
