mac-x0132-mac-x0226
     RDKit          3D

 28 31  0  0  0  0  0  0  0  0999 V2000
   -4.1330   15.2400    1.8550 N   0  0  0  0  0  0  0  0  0  0  0  0
   -5.1580   15.0170    0.9450 C   0  0  0  0  0  0  0  0  0  0  0  0
   -6.4060   14.9190    1.4380 N   0  0  0  0  0  0  0  0  0  0  0  0
   -4.8530   14.9130   -0.3960 C   0  0  0  0  0  0  0  0  0  0  0  0
   -5.9480   14.7350   -1.2380 C   0  0  0  0  0  0  0  0  0  0  0  0
   -7.3760   14.7340    0.5360 C   0  0  0  0  0  0  0  0  0  0  0  0
   -3.5390   14.9720   -0.9170 C   0  0  0  0  0  0  0  0  0  0  0  0
   -7.2060   14.6490   -0.7870 N   0  0  0  0  0  0  0  0  0  0  0  0
   -5.7060   14.6410   -2.5960 C   0  0  0  0  0  0  0  0  0  0  0  0
   -3.3100   14.8450   -2.2890 C   0  0  0  0  0  0  0  0  0  0  0  0
   -1.9170   14.8500   -2.8770 C   0  0  0  0  0  0  0  0  0  0  0  0
   -4.4130   14.6910   -3.1220 C   0  0  0  0  0  0  0  0  0  0  0  0
   -0.7930   14.5110   -1.8760 C   0  0  0  0  0  0  0  0  0  0  0  0
    0.5200   14.0620   -2.5190 C   0  0  0  0  0  0  0  0  0  0  0  0
    0.9700   12.7890   -2.0290 O   0  0  0  0  0  0  0  0  0  0  0  0
    0.5200   11.6720   -2.6730 C   0  0  0  0  0  0  0  0  0  0  0  0
    0.0910   10.6680   -2.0930 O   0  0  0  0  0  0  0  0  0  0  0  0
    0.6240   11.7350   -4.1170 C   0  0  0  0  0  0  0  0  0  0  0  0
    1.4070   12.5900   -4.9240 C   0  0  0  0  0  0  0  0  0  0  0  0
   -0.0310   10.9360   -5.0340 C   0  0  0  0  0  0  0  0  0  0  0  0
    1.2660   12.3460   -6.2260 N   0  0  0  0  0  0  0  0  0  0  0  0
    0.3760   11.3130   -6.2900 N   0  0  0  0  0  0  0  0  0  0  0  0
   -0.0250   10.7410   -7.5290 C   0  0  0  0  0  0  0  0  0  0  0  0
   -1.1830    9.9750   -7.6600 C   0  0  0  0  0  0  0  0  0  0  0  0
    0.7650   10.9430   -8.6540 C   0  0  0  0  0  0  0  0  0  0  0  0
   -1.5220    9.4330   -8.9030 C   0  0  0  0  0  0  0  0  0  0  0  0
    0.4380   10.4110   -9.8890 C   0  0  0  0  0  0  0  0  0  0  0  0
   -0.7120    9.6510  -10.0190 C   0  0  0  0  0  0  0  0  0  0  0  0
  1  2  1  0
  2  3  2  0
  2  4  1  0
  4  5  2  0
  3  6  1  0
  4  7  1  0
  5  8  1  0
  6  8  2  0
  5  9  1  0
  7 10  2  0
 10 11  1  0
  9 12  2  0
 10 12  1  0
 11 13  1  0
 13 14  1  0
 14 15  1  0
 15 16  1  0
 16 17  2  0
 16 18  1  0
 18 19  1  0
 18 20  2  0
 19 21  2  0
 20 22  1  0
 21 22  1  0
 22 23  1  0
 23 24  2  0
 23 25  1  0
 24 26  1  0
 25 27  2  0
 26 28  2  0
 27 28  1  0
M  END
