mac-x0365-mac-x0206
     RDKit          3D

 20 21  0  0  0  0  0  0  0  0999 V2000
   -0.3550   15.1030   -2.3010 O   0  0  0  0  0  0  0  0  0  0  0  0
   -1.5130   15.4680   -2.8940 C   0  0  0  0  0  0  0  0  0  0  0  0
   -1.6190   15.7270   -4.0740 O   0  0  0  0  0  0  0  0  0  0  0  0
   -2.6340   15.5030   -1.9430 C   0  0  0  0  0  0  0  0  0  0  0  0
   -3.9680   15.3470   -2.3580 C   0  0  0  0  0  0  0  0  0  0  0  0
   -2.3070   15.6910   -0.6010 C   0  0  0  0  0  0  0  0  0  0  0  0
   -4.9690   15.3700   -1.3860 C   0  0  0  0  0  0  0  0  0  0  0  0
   -3.3050   15.7150    0.3500 C   0  0  0  0  0  0  0  0  0  0  0  0
   -6.2820   15.1960   -1.7290 O   0  0  0  0  0  0  0  0  0  0  0  0
   -4.6100   15.5500   -0.0380 C   0  0  0  0  0  0  0  0  0  0  0  0
   -5.4810   15.5650    1.0060 O   0  0  0  0  0  0  0  0  0  0  0  0
   -6.7440   14.7060   -0.5510 C   0  0  0  0  0  0  0  0  0  0  0  0
   -5.9220   13.8450    0.1680 C   0  0  0  0  0  0  0  0  0  0  0  0
   -7.9970   15.0760   -0.0600 C   0  0  0  0  0  0  0  0  0  0  0  0
   -4.5900   13.4340   -0.3420 C   0  0  0  0  0  0  0  0  0  0  0  0
   -8.4160   14.5800    1.1780 C   0  0  0  0  0  0  0  0  0  0  0  0
   -6.3380   13.3530    1.3980 C   0  0  0  0  0  0  0  0  0  0  0  0
   -3.5540   13.4040    0.5490 N   0  0  0  0  0  0  0  0  0  0  0  0
   -4.4340   13.1460   -1.5200 O   0  0  0  0  0  0  0  0  0  0  0  0
   -7.5830   13.7230    1.9060 C   0  0  0  0  0  0  0  0  0  0  0  0
  1  2  1  0
  2  3  2  0
  2  4  1  0
  4  5  2  0
  4  6  1  0
  5  7  1  0
  6  8  2  0
  7  9  1  0
  7 10  2  0
  8 10  1  0
 10 11  1  0
  9 12  1  0
 12 13  2  0
 12 14  1  0
 13 15  1  0
 14 16  2  0
 13 17  1  0
 15 18  1  0
 15 19  2  0
 16 20  1  0
 17 20  2  0
M  END
