mac-x0206-mac-x0132
     RDKit          3D

 15 16  0  0  0  0  0  0  0  0999 V2000
   -2.7850   16.0370    0.0480 N   0  0  0  0  0  0  0  0  0  0  0  0
   -3.8630   15.6950   -0.6980 C   0  0  0  0  0  0  0  0  0  0  0  0
   -3.8980   16.0560   -1.8760 O   0  0  0  0  0  0  0  0  0  0  0  0
   -4.9730   14.7920   -0.1320 C   0  0  2  0  0  0  0  0  0  0  0  0
   -6.3330   14.8770   -0.9210 C   0  0  2  0  0  0  0  0  0  0  0  0
   -5.1680   15.0740    1.3790 C   0  0  0  0  0  0  0  0  0  0  0  0
   -4.1540   13.6080   -0.5580 C   0  0  0  0  0  0  0  0  0  0  0  0
   -6.9020   16.1820   -0.9920 O   0  0  0  0  0  0  0  0  0  0  0  0
   -4.1440   15.6480    2.1050 N   0  0  0  0  0  0  0  0  0  0  0  0
   -7.4540   14.1590   -0.2070 C   0  0  0  0  0  0  0  0  0  0  0  0
   -6.3590   14.7300    1.9280 C   0  0  0  0  0  0  0  0  0  0  0  0
   -6.0220   14.7770   -2.3980 C   0  0  0  0  0  0  0  0  0  0  0  0
   -4.1560   13.2950   -1.8600 C   0  0  0  0  0  0  0  0  0  0  0  0
   -7.4340   14.1180    1.1510 C   0  0  0  0  0  0  0  0  0  0  0  0
   -4.9700   14.0390   -2.8140 C   0  0  0  0  0  0  0  0  0  0  0  0
  1  2  1  0
  2  3  2  0
  4  2  1  6
  4  5  1  0
  4  6  1  0
  4  7  1  0
  5  8  1  6
  6  9  1  0
  5 10  1  0
  6 11  2  0
  5 12  1  0
  7 13  2  0
 10 14  2  0
 11 14  1  0
 12 15  2  0
 13 15  1  0
M  END
