mac-x0437-diamond-x0689_0_A
     RDKit          3D

 24 26  0  0  0  0  0  0  0  0999 V2000
    2.5130   12.5950   -2.4180 O   0  0  0  0  0  0  0  0  0  0  0  0
    1.3340   12.3970   -3.1480 C   0  0  0  0  0  0  0  0  0  0  0  0
    1.0140   11.0210   -3.0270 O   0  0  0  0  0  0  0  0  0  0  0  0
    1.6140   12.7340   -4.6230 C   0  0  0  0  0  0  0  0  0  0  0  0
    0.2410   13.1850   -2.4390 C   0  0  0  0  0  0  0  0  0  0  0  0
    0.4010   13.1430   -5.4630 C   0  0  0  0  0  0  0  0  0  0  0  0
    0.7380   14.0970   -1.3140 C   0  0  0  0  0  0  0  0  0  0  0  0
   -0.5240   12.0710   -5.7480 N   0  0  0  0  0  0  0  0  0  0  0  0
   -0.4090   14.3710   -0.4150 C   0  0  0  0  0  0  0  0  0  0  0  0
   -1.6660   11.7980   -5.0430 C   0  0  0  0  0  0  0  0  0  0  0  0
   -0.4180   11.1510   -6.7540 C   0  0  0  0  0  0  0  0  0  0  0  0
   -1.6310   14.6300   -0.9630 C   0  0  0  0  0  0  0  0  0  0  0  0
   -0.3800   14.3880    0.9640 C   0  0  0  0  0  0  0  0  0  0  0  0
   -2.3040   10.7610   -5.5330 N   0  0  0  0  0  0  0  0  0  0  0  0
   -1.5440   10.3420   -6.5980 C   0  0  0  0  0  0  0  0  0  0  0  0
    0.5280   10.9400   -7.7650 C   0  0  0  0  0  0  0  0  0  0  0  0
   -2.7220   14.8880   -0.2420 N   0  0  0  0  0  0  0  0  0  0  0  0
   -1.4450   14.6390    1.7310 N   0  0  0  0  0  0  0  0  0  0  0  0
   -1.7520    9.2720   -7.4820 C   0  0  0  0  0  0  0  0  0  0  0  0
    0.3080    9.8690   -8.6360 C   0  0  0  0  0  0  0  0  0  0  0  0
   -2.5840   14.8860    1.0830 C   0  0  0  0  0  0  0  0  0  0  0  0
   -3.6660   15.1560    1.8810 N   0  0  0  0  0  0  0  0  0  0  0  0
   -0.8150    9.0430   -8.5010 C   0  0  0  0  0  0  0  0  0  0  0  0
   -4.9250   14.9600    1.2160 C   0  0  0  0  0  0  0  0  0  0  0  0
  2  1  1  0
  2  3  1  0
  2  4  1  0
  2  5  1  0
  4  6  1  0
  5  7  1  0
  6  8  1  0
  7  9  1  0
  8 10  1  0
  8 11  1  0
  9 12  2  0
  9 13  1  0
 10 14  2  0
 11 15  2  0
 14 15  1  0
 11 16  1  0
 12 17  1  0
 13 18  2  0
 15 19  1  0
 16 20  2  0
 17 21  2  0
 18 21  1  0
 21 22  1  0
 19 23  2  0
 20 23  1  0
 22 24  1  0
M  END
