mac-x0328-mac-x0338
     RDKit          3D

 13 13  0  0  0  0  0  0  0  0999 V2000
   -1.7710   14.6560   -3.8480 O   0  0  0  0  0  0  0  0  0  0  0  0
   -1.8760   14.6770   -2.5090 C   0  0  0  0  0  0  0  0  0  0  0  0
   -0.8960   14.5720   -1.7980 O   0  0  0  0  0  0  0  0  0  0  0  0
   -3.2750   14.8360   -2.0360 C   0  0  0  0  0  0  0  0  0  0  0  0
   -3.5190   14.8630   -0.6560 C   0  0  0  0  0  0  0  0  0  0  0  0
   -4.3440   14.9570   -2.9260 C   0  0  0  0  0  0  0  0  0  0  0  0
   -4.8320   15.0110   -0.1900 C   0  0  0  0  0  0  0  0  0  0  0  0
   -5.6490   15.1010   -2.4490 C   0  0  0  0  0  0  0  0  0  0  0  0
   -5.0890   15.0420    1.2570 C   0  0  0  0  0  0  0  0  0  0  0  0
   -5.8880   15.1290   -1.0840 C   0  0  0  0  0  0  0  0  0  0  0  0
   -7.1660   15.2720   -0.6320 O   0  0  0  0  0  0  0  0  0  0  0  0
   -4.0120   15.3170    2.0340 N   0  0  0  0  0  0  0  0  0  0  0  0
   -6.2040   14.8440    1.7170 O   0  0  0  0  0  0  0  0  0  0  0  0
  1  2  1  0
  2  3  2  0
  2  4  1  0
  4  5  2  0
  4  6  1  0
  5  7  1  0
  6  8  2  0
  7  9  1  0
  7 10  2  0
  8 10  1  0
 10 11  1  0
  9 12  1  0
  9 13  2  0
M  END
