mac-x0381-diamond-x0910_2_B
     RDKit          3D

 22 24  0  0  0  0  0  0  0  0999 V2000
   -7.9450   13.2180    3.9400 N   0  0  0  0  0  0  0  0  0  0  0  0
   -8.0940   14.5590    3.7260 C   0  0  0  0  0  0  0  0  0  0  0  0
   -7.0690   15.3220    3.7950 N   0  0  0  0  0  0  0  0  0  0  0  0
   -9.4280   15.1370    3.3950 C   0  0  0  0  0  0  0  0  0  0  0  0
   -9.6090   15.7710    2.1590 C   0  0  0  0  0  0  0  0  0  0  0  0
  -10.4910   15.0480    4.2920 C   0  0  0  0  0  0  0  0  0  0  0  0
  -10.8530   16.3110    1.8110 C   0  0  0  0  0  0  0  0  0  0  0  0
  -11.7350   15.5860    3.9550 C   0  0  0  0  0  0  0  0  0  0  0  0
  -11.9300   16.2160    2.7170 C   0  0  0  0  0  0  0  0  0  0  0  0
  -11.0420   16.9400    0.5670 C   0  0  0  0  0  0  0  0  0  0  0  0
  -13.1720   16.7510    2.3590 C   0  0  0  0  0  0  0  0  0  0  0  0
  -12.2960   17.4670    0.2160 C   0  0  0  0  0  0  0  0  0  0  0  0
  -12.5550   18.1260   -1.1150 C   0  0  0  0  0  0  0  0  0  0  0  0
  -13.3510   17.3690    1.1230 C   0  0  0  0  0  0  0  0  0  0  0  0
  -11.7330   19.3660   -1.4790 C   0  0  0  0  0  0  0  0  0  0  0  0
  -12.2300   19.9220   -2.8230 C   0  0  0  0  0  0  0  0  0  0  0  0
  -11.8460   21.3030   -3.0460 N   0  0  0  0  0  0  0  0  0  0  0  0
  -12.2470   22.3070   -2.2410 C   0  0  0  0  0  0  0  0  0  0  0  0
  -11.7330   23.5710   -2.3030 N   0  0  0  0  0  0  0  0  0  0  0  0
  -13.1590   22.2620   -1.2960 N   0  0  0  0  0  0  0  0  0  0  0  0
  -12.3100   24.3720   -1.3850 N   0  0  0  0  0  0  0  0  0  0  0  0
  -13.1630   23.5320   -0.8010 C   0  0  0  0  0  0  0  0  0  0  0  0
  1  2  1  0
  2  3  2  3
  2  4  1  0
  4  5  2  0
  4  6  1  0
  5  7  1  0
  6  8  2  0
  7  9  2  0
  8  9  1  0
  7 10  1  0
  9 11  1  0
 10 12  2  0
 12 13  1  0
 11 14  2  0
 12 14  1  0
 13 15  1  0
 15 16  1  0
 16 17  1  0
 17 18  1  0
 18 19  1  0
 18 20  2  0
 19 21  1  0
 20 22  1  0
 21 22  2  0
M  END
