mac-x0568-mac-x0436
     RDKit          3D

 28 30  0  0  0  0  0  0  0  0999 V2000
   -8.6500   14.6460    1.3660 C   0  0  0  0  0  0  0  0  0  0  0  0
   -7.2960   14.7030    0.7310 C   0  0  0  0  0  0  0  0  0  0  0  0
   -6.1580   14.6600    1.5260 C   0  0  0  0  0  0  0  0  0  0  0  0
   -7.2410   14.8000   -0.6150 N   0  0  0  0  0  0  0  0  0  0  0  0
   -6.0080   14.8490   -1.1800 C   0  0  0  0  0  0  0  0  0  0  0  0
   -4.9010   14.7110    0.9200 C   0  0  0  0  0  0  0  0  0  0  0  0
   -4.8180   14.8040   -0.4680 C   0  0  0  0  0  0  0  0  0  0  0  0
   -3.5050   14.8350   -1.1780 C   0  0  0  0  0  0  0  0  0  0  0  0
   -3.5810   14.7690   -2.4650 N   0  0  0  0  0  0  0  0  0  0  0  0
   -2.3430   14.8830   -0.4400 N   0  0  0  0  0  0  0  0  0  0  0  0
   -2.3920   14.7140   -3.3130 C   0  0  0  0  0  0  0  0  0  0  0  0
   -1.6220   13.4150   -3.0060 C   0  0  0  0  0  0  0  0  0  0  0  0
   -2.1490   12.2520   -3.7130 N   0  0  0  0  0  0  0  0  0  0  0  0
   -1.6640   11.6450   -4.7480 C   0  0  0  0  0  0  0  0  0  0  0  0
   -0.3720   12.0000   -5.5280 C   0  0  0  0  0  0  0  0  0  0  0  0
   -2.3920   10.5610   -5.2030 N   0  0  0  0  0  0  0  0  0  0  0  0
    0.4300   13.2420   -5.2100 C   0  0  0  0  0  0  0  0  0  0  0  0
   -1.8510    9.7290   -6.2110 C   0  0  0  0  0  0  0  0  0  0  0  0
    0.0700   11.2430   -6.4920 N   0  0  0  0  0  0  0  0  0  0  0  0
    1.6510   12.9520   -4.3440 C   0  0  0  0  0  0  0  0  0  0  0  0
   -0.6360   10.0820   -6.8370 C   0  0  0  0  0  0  0  0  0  0  0  0
   -2.5120    8.5590   -6.5940 C   0  0  0  0  0  0  0  0  0  0  0  0
    1.2790   12.4040   -2.9850 C   0  0  0  0  0  0  0  0  0  0  0  0
   -0.1110    9.2570   -7.8330 C   0  0  0  0  0  0  0  0  0  0  0  0
   -1.9770    7.7430   -7.5910 C   0  0  0  0  0  0  0  0  0  0  0  0
    0.7560   11.1650   -3.0100 O   0  0  0  0  0  0  0  0  0  0  0  0
    1.4200   12.9850   -1.9260 O   0  0  0  0  0  0  0  0  0  0  0  0
   -0.7750    8.0930   -8.2110 C   0  0  0  0  0  0  0  0  0  0  0  0
  1  2  1  0
  2  3  2  0
  2  4  1  0
  4  5  2  0
  3  6  1  0
  5  7  1  0
  6  7  2  0
  7  8  1  0
  8  9  2  3
  8 10  1  0
  9 11  1  0
 11 12  1  0
 12 13  1  0
 13 14  2  3
 14 15  1  0
 14 16  1  0
 15 17  1  0
 16 18  1  0
 15 19  2  0
 17 20  1  0
 18 21  2  0
 19 21  1  0
 18 22  1  0
 20 23  1  0
 21 24  1  0
 22 25  2  0
 23 26  1  0
 23 27  2  0
 24 28  2  0
 25 28  1  0
M  END
