mac-x0346-diamond-x0766_0_A
     RDKit          3D

 24 26  0  0  0  0  0  0  0  0999 V2000
   -7.6380   14.1390    1.0420 O   0  0  0  0  0  0  0  0  0  0  0  0
   -7.7360   14.8490   -0.1780 N   0  0  0  0  0  0  0  0  0  0  0  0
   -6.6570   14.7910   -1.0440 C   0  0  0  0  0  0  0  0  0  0  0  0
   -6.7660   14.4610   -2.2160 O   0  0  0  0  0  0  0  0  0  0  0  0
   -5.3390   15.1680   -0.4980 C   0  0  0  0  0  0  0  0  0  0  0  0
   -4.1540   15.3420   -1.2250 C   0  0  0  0  0  0  0  0  0  0  0  0
   -5.2860   15.3520    0.9050 C   0  0  0  0  0  0  0  0  0  0  0  0
   -3.7110   15.2190   -2.5270 O   0  0  0  0  0  0  0  0  0  0  0  0
   -2.9880   15.7220   -0.5330 C   0  0  0  0  0  0  0  0  0  0  0  0
   -4.1080   15.7160    1.5600 C   0  0  0  0  0  0  0  0  0  0  0  0
   -2.9560   15.9060    0.8280 C   0  0  0  0  0  0  0  0  0  0  0  0
   -2.5950   14.7120   -2.0060 C   0  0  0  0  0  0  0  0  0  0  0  0
   -1.2200   14.4810   -2.2490 C   0  0  0  0  0  0  0  0  0  0  0  0
   -3.0240   14.1590   -0.4250 S   0  0  0  0  0  0  0  0  0  0  0  0
   -0.1690   14.6590   -3.3140 C   0  0  1  0  0  0  0  0  0  0  0  0
   -0.6340   13.8980   -1.0710 C   0  0  0  0  0  0  0  0  0  0  0  0
   -1.4710   13.6870   -0.0400 C   0  0  0  0  0  0  0  0  0  0  0  0
    0.1810   13.3360   -4.0220 C   0  0  2  0  0  0  0  0  0  0  0  0
   -0.1370   15.6830   -4.4090 C   0  0  0  0  0  0  0  0  0  0  0  0
    0.6740   12.2910   -3.0140 C   0  0  0  0  0  0  0  0  0  0  0  0
    1.2640   13.7900   -5.0160 C   0  0  0  0  0  0  0  0  0  0  0  0
    1.2360   15.3320   -4.9570 C   0  0  0  0  0  0  0  0  0  0  0  0
    1.5740   12.4920   -2.2240 O   0  0  0  0  0  0  0  0  0  0  0  0
    0.0170   11.0900   -3.0410 O   0  0  0  0  0  0  0  0  0  0  0  0
  1  2  1  0
  2  3  1  0
  3  4  2  0
  3  5  1  0
  5  6  2  0
  5  7  1  0
  6  8  1  0
  6  9  1  0
  7 10  2  0
  9 11  2  0
 10 11  1  0
  8 12  1  0
 12 13  2  0
 12 14  1  0
 15 13  1  6
 13 16  1  0
 14 17  1  0
 16 17  2  0
 15 18  1  0
 15 19  1  0
 18 20  1  1
 18 21  1  0
 19 22  1  0
 21 22  1  0
 20 23  2  0
 20 24  1  0
M  END
