mac-x0182-mac-x0392
     RDKit          3D

 23 25  0  0  0  0  0  0  0  0999 V2000
    1.6960   11.8550   -6.8870 O   0  0  0  0  0  0  0  0  0  0  0  0
    0.6780   11.5540   -6.2940 C   0  0  0  0  0  0  0  0  0  0  0  0
    0.2240   12.1530   -5.1450 N   0  0  0  0  0  0  0  0  0  0  0  0
   -0.2200   10.4500   -6.7160 C   0  0  0  0  0  0  0  0  0  0  0  0
   -0.8940   11.1470   -4.3670 S   0  0  2  0  0  0  0  0  0  0  0  0
   -1.1410   10.1180   -5.7340 C   0  0  0  0  0  0  0  0  0  0  0  0
   -0.2170    9.7700   -7.9230 C   0  0  0  0  0  0  0  0  0  0  0  0
   -2.1680   11.9850   -4.2580 N   0  0  0  0  0  0  0  0  0  0  0  0
   -0.1550   10.4450   -3.3420 O   0  0  0  0  0  0  0  0  0  0  0  0
   -2.0830    9.1240   -5.8790 C   0  0  0  0  0  0  0  0  0  0  0  0
   -1.1650    8.7530   -8.1040 C   0  0  0  0  0  0  0  0  0  0  0  0
   -2.3070   13.0340   -3.2610 C   0  0  0  0  0  0  0  0  0  0  0  0
   -2.0900    8.4320   -7.0890 C   0  0  0  0  0  0  0  0  0  0  0  0
   -1.1520   13.8870   -3.4210 N   0  0  0  0  0  0  0  0  0  0  0  0
   -0.8890   14.6310   -2.4240 C   0  0  0  0  0  0  0  0  0  0  0  0
    0.1720   15.4540   -2.4080 O   0  0  0  0  0  0  0  0  0  0  0  0
   -1.6900   14.6780   -1.1920 C   0  0  0  0  0  0  0  0  0  0  0  0
   -1.1060   14.3590    0.0360 C   0  0  0  0  0  0  0  0  0  0  0  0
   -3.0390   15.0550   -1.2890 C   0  0  0  0  0  0  0  0  0  0  0  0
    0.2310   13.9760    0.1600 N   0  0  0  0  0  0  0  0  0  0  0  0
   -3.7720   15.1030   -0.1230 C   0  0  0  0  0  0  0  0  0  0  0  0
   -1.9480   14.4450    1.1330 C   0  0  0  0  0  0  0  0  0  0  0  0
   -3.2540   14.8080    1.0840 N   0  0  0  0  0  0  0  0  0  0  0  0
  1  2  2  0
  2  3  1  0
  2  4  1  0
  5  3  1  6
  4  6  2  0
  5  6  1  0
  4  7  1  0
  5  8  2  0
  5  9  2  0
  6 10  1  0
  7 11  2  0
  8 12  1  0
 10 13  2  0
 11 13  1  0
 12 14  1  0
 14 15  2  3
 15 16  1  0
 15 17  1  0
 17 18  2  0
 17 19  1  0
 18 20  1  0
 19 21  2  0
 18 22  1  0
 21 23  1  0
 22 23  2  0
M  END
