mac-x0161-diamond-x0689_0_A
     RDKit          3D

 19 22  0  0  0  0  0  0  0  0999 V2000
   -4.2100   15.3260    1.1440 N   0  0  0  0  0  0  0  0  0  0  0  0
   -3.1080   14.9980    2.1190 N   0  0  0  0  0  0  0  0  0  0  0  0
   -1.9420   14.7660    1.3170 N   0  0  0  0  0  0  0  0  0  0  0  0
   -3.6690   15.2330   -0.0250 C   0  0  0  0  0  0  0  0  0  0  0  0
   -4.0810   15.3680   -1.3160 N   0  0  0  0  0  0  0  0  0  0  0  0
   -2.3410   14.9160    0.0980 C   0  0  0  0  0  0  0  0  0  0  0  0
   -3.1420   15.2010   -2.2200 C   0  0  0  0  0  0  0  0  0  0  0  0
   -1.3800   14.7390   -0.7820 C   0  0  0  0  0  0  0  0  0  0  0  0
   -0.6050   14.4630    1.2120 C   0  0  0  0  0  0  0  0  0  0  0  0
   -1.7640   14.8980   -2.0610 N   0  0  0  0  0  0  0  0  0  0  0  0
   -0.2310   14.4410   -0.0970 N   0  0  0  0  0  0  0  0  0  0  0  0
   -0.8140   14.7850   -3.1480 C   0  0  0  0  0  0  0  0  0  0  0  0
   -0.6450   13.3860   -3.5780 C   0  0  0  0  0  0  0  0  0  0  0  0
   -0.9820   12.6500   -4.6870 C   0  0  0  0  0  0  0  0  0  0  0  0
   -0.0090   12.5850   -2.6780 O   0  0  0  0  0  0  0  0  0  0  0  0
    0.0740   11.3000   -3.1810 N   0  0  0  0  0  0  0  0  0  0  0  0
   -0.5120   11.3660   -4.3800 C   0  0  0  0  0  0  0  0  0  0  0  0
   -0.6190   10.2850   -5.1820 O   0  0  0  0  0  0  0  0  0  0  0  0
   -1.7600   10.3030   -6.0340 C   0  0  0  0  0  0  0  0  0  0  0  0
  1  2  1  0
  2  3  1  0
  1  4  2  0
  4  5  1  0
  3  6  1  0
  4  6  1  0
  5  7  2  0
  6  8  2  0
  3  9  1  0
  7 10  1  0
  8 10  1  0
  8 11  1  0
  9 11  2  0
 10 12  1  0
 12 13  1  0
 13 14  2  0
 13 15  1  0
 15 16  1  0
 14 17  1  0
 16 17  2  0
 17 18  1  0
 18 19  1  0
M  END
