mac-x0161-diamond-x0587_0_A
     RDKit          3D

 30 33  0  0  0  0  0  0  0  0999 V2000
   -3.7820   15.9880    1.0810 N   0  0  0  0  0  0  0  0  0  0  0  0
   -3.4110   15.0020    0.0790 C   0  0  2  0  0  0  0  0  0  0  0  0
   -1.9300   14.7000    0.2230 C   0  0  1  0  0  0  0  0  0  0  0  0
   -3.8350   15.4910   -1.2330 N   0  0  0  0  0  0  0  0  0  0  0  0
   -2.9270   15.3870   -2.3910 C   0  0  0  0  0  0  0  0  0  0  0  0
   -1.1370   15.3540   -0.8520 C   0  0  2  0  0  0  0  0  0  0  0  0
   -1.2390   15.2000    1.3940 N   0  0  0  0  0  0  0  0  0  0  0  0
   -5.0180   14.6860   -1.5590 C   0  0  0  0  0  0  0  0  0  0  0  0
   -1.6340   14.8150   -2.0770 N   0  0  0  0  0  0  0  0  0  0  0  0
    0.1590   14.8350   -0.4750 N   0  0  0  0  0  0  0  0  0  0  0  0
    0.0950   14.8100    0.9880 C   0  0  0  0  0  0  0  0  0  0  0  0
   -4.6300   13.3990   -1.8570 F   0  0  0  0  0  0  0  0  0  0  0  0
   -5.5300   15.1660   -2.7280 F   0  0  0  0  0  0  0  0  0  0  0  0
   -5.9970   14.6840   -0.3730 C   0  0  0  0  0  0  0  0  0  0  0  0
   -0.6770   14.7960   -3.1850 C   0  0  0  0  0  0  0  0  0  0  0  0
   -7.3260   14.6160   -0.6040 N   0  0  0  0  0  0  0  0  0  0  0  0
   -5.4490   14.7690    0.8640 N   0  0  0  0  0  0  0  0  0  0  0  0
   -0.5400   13.3880   -3.6090 C   0  0  0  0  0  0  0  0  0  0  0  0
   -8.1220   14.6570    0.4860 C   0  0  0  0  0  0  0  0  0  0  0  0
   -6.2890   14.8050    1.9060 C   0  0  0  0  0  0  0  0  0  0  0  0
   -0.8970   12.6730   -4.7220 C   0  0  0  0  0  0  0  0  0  0  0  0
    0.0690   12.5610   -2.7130 O   0  0  0  0  0  0  0  0  0  0  0  0
   -7.6530   14.7610    1.7770 C   0  0  0  0  0  0  0  0  0  0  0  0
    0.1100   11.2790   -3.2270 N   0  0  0  0  0  0  0  0  0  0  0  0
   -0.4690   11.3720   -4.4250 C   0  0  0  0  0  0  0  0  0  0  0  0
   -8.4830   14.8380    2.9800 C   0  0  0  0  0  0  0  0  0  0  0  0
   -0.6110   10.2990   -5.2270 O   0  0  0  0  0  0  0  0  0  0  0  0
   -7.8640   14.8050    4.1940 N   0  0  0  0  0  0  0  0  0  0  0  0
   -9.6990   14.9480    2.8900 O   0  0  0  0  0  0  0  0  0  0  0  0
   -1.7840   10.3230   -6.0310 C   0  0  0  0  0  0  0  0  0  0  0  0
  2  1  1  1
  2  3  1  0
  2  4  1  0
  4  5  1  0
  3  6  1  0
  3  7  1  1
  4  8  1  0
  5  9  1  0
  6  9  1  0
  6 10  1  1
  7 11  1  0
 10 11  1  0
  8 12  1  0
  8 13  1  0
  8 14  1  0
  9 15  1  0
 14 16  2  0
 14 17  1  0
 15 18  1  0
 16 19  1  0
 17 20  2  0
 18 21  2  0
 18 22  1  0
 19 23  2  0
 20 23  1  0
 22 24  1  0
 21 25  1  0
 24 25  2  0
 23 26  1  0
 25 27  1  0
 26 28  1  0
 26 29  2  0
 27 30  1  0
M  END
