mac-x0341-mac-x0204
     RDKit          3D

 23 25  0  0  0  0  0  0  0  0999 V2000
   -7.1150   14.5980    2.1560 N   0  0  0  0  0  0  0  0  0  0  0  0
   -6.1760   14.6880    1.1800 C   0  0  0  0  0  0  0  0  0  0  0  0
   -4.9650   14.6810    1.5480 N   0  0  0  0  0  0  0  0  0  0  0  0
   -6.5330   14.7840   -0.1420 N   0  0  0  0  0  0  0  0  0  0  0  0
   -5.6030   14.9830   -1.1600 C   0  0  0  0  0  0  0  0  0  0  0  0
   -3.9560   14.7480    0.6110 C   0  0  0  0  0  0  0  0  0  0  0  0
   -5.9560   15.2070   -2.3090 O   0  0  0  0  0  0  0  0  0  0  0  0
   -4.1640   14.8960   -0.7570 C   0  0  0  0  0  0  0  0  0  0  0  0
   -2.6880   14.6530    1.1200 C   0  0  0  0  0  0  0  0  0  0  0  0
   -1.5910   14.6990    0.3050 C   0  0  0  0  0  0  0  0  0  0  0  0
   -3.0370   14.9470   -1.6380 C   0  0  0  0  0  0  0  0  0  0  0  0
   -1.7150   14.8430   -1.0630 C   0  0  0  0  0  0  0  0  0  0  0  0
   -0.3420   14.8820   -1.7280 C   0  0  0  0  0  0  0  0  0  0  0  0
    0.0090   13.9520   -2.8710 C   0  0  0  0  0  0  0  0  0  0  0  0
    0.2400   12.6410   -2.3780 O   0  0  0  0  0  0  0  0  0  0  0  0
    1.2550   14.3760   -3.3860 O   0  0  0  0  0  0  0  0  0  0  0  0
   -1.0700   13.9940   -3.9070 C   0  0  0  0  0  0  0  0  0  0  0  0
   -1.4630   15.2060   -4.4810 C   0  0  0  0  0  0  0  0  0  0  0  0
   -1.7170   12.8370   -4.3270 C   0  0  0  0  0  0  0  0  0  0  0  0
   -2.4670   15.2140   -5.4310 C   0  0  0  0  0  0  0  0  0  0  0  0
   -2.7000   12.8130   -5.2530 N   0  0  0  0  0  0  0  0  0  0  0  0
   -2.8740   16.3760   -6.0160 O   0  0  0  0  0  0  0  0  0  0  0  0
   -3.0540   14.0100   -5.7850 C   0  0  0  0  0  0  0  0  0  0  0  0
  1  2  1  0
  2  3  2  0
  2  4  1  0
  4  5  1  0
  3  6  1  0
  5  7  2  0
  5  8  1  0
  6  8  2  0
  6  9  1  0
  9 10  2  0
  8 11  1  0
 10 12  1  0
 11 12  2  0
 12 13  1  0
 13 14  1  0
 14 15  1  0
 14 16  1  0
 14 17  1  0
 17 18  2  0
 17 19  1  0
 18 20  1  0
 19 21  2  0
 20 22  1  0
 20 23  2  0
 21 23  1  0
M  END
