mac-x0527-diamond-x0910_0_A
     RDKit          3D

 21 23  0  0  0  0  0  0  0  0999 V2000
   -2.9370   16.3360   -2.8130 O   0  0  0  0  0  0  0  0  0  0  0  0
   -2.7250   15.1800   -2.0070 C   0  0  2  0  0  0  0  0  0  0  0  0
   -2.5030   14.0910   -2.9440 N   0  0  0  0  0  0  0  0  0  0  0  0
   -3.8750   15.0190   -1.0160 C   0  0  0  0  0  0  0  0  0  0  0  0
   -1.6240   15.2220   -0.9260 C   0  0  0  0  0  0  0  0  0  0  0  0
   -1.4120   14.3950   -3.8770 C   0  0  0  0  0  0  0  0  0  0  0  0
   -5.2260   15.1670   -1.3070 C   0  0  0  0  0  0  0  0  0  0  0  0
   -3.4650   14.7130    0.2520 N   0  0  0  0  0  0  0  0  0  0  0  0
   -1.8670   15.3550    0.4020 N   0  0  0  0  0  0  0  0  0  0  0  0
   -0.2840   15.1080   -1.2110 N   0  0  0  0  0  0  0  0  0  0  0  0
   -1.1030   13.1310   -4.6350 C   0  0  0  0  0  0  0  0  0  0  0  0
   -6.1860   15.0160   -0.3510 N   0  0  0  0  0  0  0  0  0  0  0  0
   -4.4100   14.5710    1.1860 C   0  0  0  0  0  0  0  0  0  0  0  0
   -0.6430   15.3110    0.9220 N   0  0  0  0  0  0  0  0  0  0  0  0
    0.2840   15.1670   -0.0400 C   0  0  0  0  0  0  0  0  0  0  0  0
   -1.9220   12.0130   -4.4220 C   0  0  0  0  0  0  0  0  0  0  0  0
   -0.0360   13.0360   -5.5360 C   0  0  0  0  0  0  0  0  0  0  0  0
   -5.7430   14.7180    0.8930 C   0  0  0  0  0  0  0  0  0  0  0  0
   -1.6820   10.8210   -5.0930 C   0  0  0  0  0  0  0  0  0  0  0  0
    0.2050   11.8370   -6.2090 C   0  0  0  0  0  0  0  0  0  0  0  0
   -0.6180   10.7330   -5.9860 C   0  0  0  0  0  0  0  0  0  0  0  0
  2  1  1  6
  2  3  1  0
  2  4  1  0
  2  5  1  0
  3  6  1  0
  4  7  2  0
  4  8  1  0
  5  9  2  0
  5 10  1  0
  6 11  1  0
  7 12  1  0
  8 13  2  0
  9 14  1  0
 10 15  2  0
 14 15  1  0
 11 16  2  0
 11 17  1  0
 12 18  2  0
 13 18  1  0
 16 19  1  0
 17 20  2  0
 19 21  2  0
 20 21  1  0
M  END
