mac-x0305-diamond-x0905_0_A
     RDKit          3D

 11 11  0  0  0  0  0  0  0  0999 V2000
    0.2870   13.1880   -0.3910 O   0  0  0  0  0  0  0  0  0  0  0  0
   -0.2850   14.0800   -1.2610 C   0  0  0  0  0  0  0  0  0  0  0  0
    0.3330   14.4260   -2.2560 O   0  0  0  0  0  0  0  0  0  0  0  0
   -1.6770   14.5120   -0.8690 C   0  0  0  0  0  0  0  0  0  0  0  0
   -2.1030   14.7710    0.4550 C   0  0  0  0  0  0  0  0  0  0  0  0
   -2.5180   14.6320   -1.9430 N   0  0  0  0  0  0  0  0  0  0  0  0
   -1.3010   14.6770    1.5820 O   0  0  0  0  0  0  0  0  0  0  0  0
   -3.4430   15.1540    0.6550 C   0  0  0  0  0  0  0  0  0  0  0  0
   -3.7950   15.0030   -1.7080 C   0  0  0  0  0  0  0  0  0  0  0  0
   -4.3030   15.2660   -0.4510 C   0  0  0  0  0  0  0  0  0  0  0  0
   -5.6190   15.6240   -0.2760 O   0  0  0  0  0  0  0  0  0  0  0  0
  1  2  1  0
  2  3  2  0
  2  4  1  0
  4  5  2  0
  4  6  1  0
  5  7  1  0
  5  8  1  0
  6  9  2  0
  8 10  2  0
  9 10  1  0
 10 11  1  0
M  END
