mac-x0224-mac-x0348
     RDKit          3D

 24 26  0  0  0  0  0  0  0  0999 V2000
   -5.1100   14.9400    1.2430 C   0  0  0  0  0  0  0  0  0  0  0  0
   -3.3370   15.2900    1.3430 S   0  0  0  0  0  0  0  0  0  0  0  0
   -2.8780   14.9650   -0.3360 C   0  0  0  0  0  0  0  0  0  0  0  0
   -1.5410   14.6720   -0.6350 C   0  0  0  0  0  0  0  0  0  0  0  0
   -3.8350   15.0060   -1.3520 C   0  0  0  0  0  0  0  0  0  0  0  0
   -1.1300   14.4150   -1.9410 C   0  0  0  0  0  0  0  0  0  0  0  0
   -3.4520   14.7470   -2.6580 C   0  0  0  0  0  0  0  0  0  0  0  0
    0.3230   14.1070   -2.2980 C   0  0  1  0  0  0  0  0  0  0  0  0
   -2.1140   14.4530   -2.9380 C   0  0  0  0  0  0  0  0  0  0  0  0
   -1.7800   14.1970   -4.2380 O   0  0  0  0  0  0  0  0  0  0  0  0
    0.7930   12.7890   -1.9400 N   0  0  0  0  0  0  0  0  0  0  0  0
    0.4400   14.4230   -3.6870 O   0  0  0  0  0  0  0  0  0  0  0  0
    0.1890   11.7860   -2.4400 C   0  0  0  0  0  0  0  0  0  0  0  0
   -0.0420   15.7340   -3.9470 C   0  0  1  0  0  0  0  0  0  0  0  0
    0.4480   10.4800   -2.2540 O   0  0  0  0  0  0  0  0  0  0  0  0
    0.9870   16.6090   -4.7050 C   0  0  0  0  0  0  0  0  0  0  0  0
   -1.1530   15.7670   -4.9850 C   0  0  2  0  0  0  0  0  0  0  0  0
    0.2260   17.3270   -5.7650 N   0  0  0  0  0  0  0  0  0  0  0  0
   -1.1550   17.2410   -5.3340 C   0  0  1  0  0  0  0  0  0  0  0  0
   -2.5190   15.1520   -4.8670 C   0  0  0  0  0  0  0  0  0  0  0  0
    0.7180   18.6490   -6.0630 C   0  0  0  0  0  0  0  0  0  0  0  0
   -3.5280   15.6650   -5.5850 C   0  0  0  0  0  0  0  0  0  0  0  0
   -2.2060   17.5610   -6.3390 C   0  0  0  0  0  0  0  0  0  0  0  0
   -3.3150   16.8020   -6.4480 C   0  0  0  0  0  0  0  0  0  0  0  0
  1  2  1  0
  2  3  1  0
  3  4  2  0
  3  5  1  0
  4  6  1  0
  5  7  2  0
  6  8  1  0
  6  9  2  0
  7  9  1  0
  9 10  1  0
  8 11  1  6
  8 12  1  0
 11 13  2  3
 14 12  1  6
 13 15  1  0
 14 16  1  0
 14 17  1  0
 16 18  1  0
 17 19  1  0
 18 19  1  0
 17 20  1  1
 18 21  1  0
 20 22  2  0
 19 23  1  6
 22 24  1  0
 23 24  2  0
M  END
