mac-x0496-mac-x0590
     RDKit          3D

 30 33  0  0  0  0  0  0  0  0999 V2000
   -9.7240   17.6860    4.7180 C   0  0  0  0  0  0  0  0  0  0  0  0
   -9.6230   16.7290    3.5940 C   0  0  0  0  0  0  0  0  0  0  0  0
  -10.3650   16.7680    2.4730 N   0  0  0  0  0  0  0  0  0  0  0  0
   -8.7280   15.7100    3.6300 N   0  0  0  0  0  0  0  0  0  0  0  0
   -9.9140   15.6870    1.7270 O   0  0  0  0  0  0  0  0  0  0  0  0
   -8.9350   15.1120    2.4810 C   0  0  0  0  0  0  0  0  0  0  0  0
   -8.2410   13.9310    1.9360 C   0  0  0  0  0  0  0  0  0  0  0  0
   -6.8640   14.3080    1.6480 N   0  0  0  0  0  0  0  0  0  0  0  0
   -6.5160   14.7010    0.3710 C   0  0  0  0  0  0  0  0  0  0  0  0
   -7.2720   14.4810   -0.5730 O   0  0  0  0  0  0  0  0  0  0  0  0
   -5.1740   15.4440    0.1250 C   0  0  1  0  0  0  0  0  0  0  0  0
   -4.2100   15.5730    1.2710 C   0  0  0  0  0  0  0  0  0  0  0  0
   -4.5750   15.0120   -1.1940 C   0  0  0  0  0  0  0  0  0  0  0  0
   -2.9070   15.2720    1.1910 C   0  0  0  0  0  0  0  0  0  0  0  0
   -3.1740   14.4050   -1.2040 C   0  0  1  0  0  0  0  0  0  0  0  0
   -2.6210   14.4930   -2.5870 C   0  0  0  0  0  0  0  0  0  0  0  0
   -2.1910   14.7250   -0.0220 C   0  0  2  0  0  0  0  0  0  0  0  0
   -1.6420   14.0110   -3.1980 N   0  0  0  0  0  0  0  0  0  0  0  0
   -3.3920   15.2780   -3.3750 O   0  0  0  0  0  0  0  0  0  0  0  0
   -1.8230   13.5590    0.7150 N   0  0  0  0  0  0  0  0  0  0  0  0
   -0.7030   15.1600   -0.3480 C   0  0  0  0  0  0  0  0  0  0  0  0
   -1.4780   14.2910   -4.5930 C   0  0  0  0  0  0  0  0  0  0  0  0
    0.1410   14.0300    0.0190 N   0  0  0  0  0  0  0  0  0  0  0  0
   -0.5190   13.8410    1.2500 C   0  0  0  0  0  0  0  0  0  0  0  0
   -0.0540   13.9980   -5.0060 C   0  0  0  0  0  0  0  0  0  0  0  0
    0.4740   12.5660   -4.9870 C   0  0  2  0  0  0  0  0  0  0  0  0
    0.7670   12.0200   -3.5970 C   0  0  0  0  0  0  0  0  0  0  0  0
    1.8130   12.5610   -5.6450 C   0  0  0  0  0  0  0  0  0  0  0  0
    2.7200   12.9080   -4.4870 C   0  0  0  0  0  0  0  0  0  0  0  0
    2.1530   12.2850   -3.3270 O   0  0  0  0  0  0  0  0  0  0  0  0
  1  2  1  0
  2  3  2  0
  2  4  1  0
  3  5  1  0
  4  6  2  0
  5  6  1  0
  6  7  1  0
  7  8  1  0
  8  9  1  0
  9 10  2  0
 11  9  1  1
 11 12  1  0
 11 13  1  0
 12 14  2  0
 13 15  1  0
 15 16  1  6
 17 14  1  1
 15 17  1  0
 16 18  2  3
 16 19  1  0
 17 20  1  0
 17 21  1  0
 18 22  1  0
 21 23  1  0
 20 24  1  0
 23 24  1  0
 22 25  1  0
 26 25  1  1
 26 27  1  0
 26 28  1  0
 28 29  1  0
 27 30  1  0
 29 30  1  0
M  END
