mac-x0341-mac-x0303
     RDKit          3D

 15 16  0  0  0  0  0  0  0  0999 V2000
   -7.0050   14.7650    2.1870 N   0  0  0  0  0  0  0  0  0  0  0  0
   -8.3530   14.1190    1.9550 S   0  0  0  0  0  0  0  0  0  0  0  0
   -8.3220   13.0370    3.2390 N   0  0  0  0  0  0  0  0  0  0  0  0
   -6.1410   14.7960    1.1180 C   0  0  0  0  0  0  0  0  0  0  0  0
   -9.6610   14.7300    2.0410 O   0  0  0  0  0  0  0  0  0  0  0  0
   -6.6870   14.8000   -0.1180 N   0  0  0  0  0  0  0  0  0  0  0  0
   -4.8780   14.8220    1.3650 N   0  0  0  0  0  0  0  0  0  0  0  0
   -5.9490   15.0690   -1.2300 C   0  0  0  0  0  0  0  0  0  0  0  0
   -4.0180   14.8390    0.2590 C   0  0  0  0  0  0  0  0  0  0  0  0
   -6.4460   15.3590   -2.3040 O   0  0  0  0  0  0  0  0  0  0  0  0
   -4.4920   14.9610   -1.0490 C   0  0  0  0  0  0  0  0  0  0  0  0
   -2.6430   14.7250    0.4660 C   0  0  0  0  0  0  0  0  0  0  0  0
   -1.7670   14.7290   -0.6240 C   0  0  0  0  0  0  0  0  0  0  0  0
   -3.6340   14.9750   -2.1440 C   0  0  0  0  0  0  0  0  0  0  0  0
   -2.2620   14.8550   -1.9270 C   0  0  0  0  0  0  0  0  0  0  0  0
  1  2  2  0
  2  3  1  0
  1  4  1  0
  2  5  2  0
  4  6  1  0
  4  7  2  0
  6  8  1  0
  7  9  1  0
  8 10  2  0
  8 11  1  0
  9 11  2  0
  9 12  1  0
 12 13  2  0
 11 14  1  0
 13 15  1  0
 14 15  2  0
M  END
