mac-x0510-diamond-x0282_0_A
     RDKit          3D

 12 13  0  0  0  0  0  0  0  0999 V2000
   -6.2520   14.7500    0.9510 N   0  0  0  0  0  0  0  0  0  0  0  0
   -7.2800   14.7590   -0.0290 O   0  0  0  0  0  0  0  0  0  0  0  0
   -5.0240   14.9490    0.5190 C   0  0  0  0  0  0  0  0  0  0  0  0
   -3.9830   14.9440    1.4220 N   0  0  0  0  0  0  0  0  0  0  0  0
   -4.7490   15.1560   -0.8240 N   0  0  0  0  0  0  0  0  0  0  0  0
   -2.7380   14.8360    0.9480 C   0  0  0  0  0  0  0  0  0  0  0  0
   -3.4830   15.1350   -1.3730 C   0  0  0  0  0  0  0  0  0  0  0  0
   -3.2570   15.2960   -2.5650 O   0  0  0  0  0  0  0  0  0  0  0  0
   -2.4730   14.9190   -0.3830 C   0  0  0  0  0  0  0  0  0  0  0  0
   -1.6090   14.6380    1.6810 N   0  0  0  0  0  0  0  0  0  0  0  0
   -1.1190   14.7640   -0.4930 N   0  0  0  0  0  0  0  0  0  0  0  0
   -0.6420   14.6020    0.7860 C   0  0  0  0  0  0  0  0  0  0  0  0
  1  2  1  0
  1  3  2  3
  3  4  1  0
  3  5  1  0
  4  6  1  0
  5  7  1  0
  7  8  2  0
  6  9  2  0
  7  9  1  0
  6 10  1  0
  9 11  1  0
 10 12  2  0
 11 12  1  0
M  END
