mac-x0328-mac-x0303
     RDKit          3D

 17 18  0  0  0  0  0  0  0  0999 V2000
   -1.9740   14.8330   -3.6190 O   0  0  0  0  0  0  0  0  0  0  0  0
   -2.0820   14.7380   -2.2800 C   0  0  0  0  0  0  0  0  0  0  0  0
   -1.0830   14.6600   -1.5860 O   0  0  0  0  0  0  0  0  0  0  0  0
   -3.4990   14.7390   -1.8010 C   0  0  0  0  0  0  0  0  0  0  0  0
   -3.7150   14.8790   -0.4620 C   0  0  0  0  0  0  0  0  0  0  0  0
   -4.6190   14.5770   -2.7420 C   0  0  0  0  0  0  0  0  0  0  0  0
   -5.1400   14.8500   -0.0560 C   0  0  0  0  0  0  0  0  0  0  0  0
   -5.8940   14.8450   -2.3890 C   0  0  0  0  0  0  0  0  0  0  0  0
   -6.1880   15.3360   -1.0210 C   0  0  2  0  0  0  0  0  0  0  0  0
   -5.6860   14.4710    1.0570 N   0  0  0  0  0  0  0  0  0  0  0  0
   -6.1190   16.7040   -1.0600 O   0  0  0  0  0  0  0  0  0  0  0  0
   -7.0550   14.6260    0.8200 C   0  0  0  0  0  0  0  0  0  0  0  0
   -7.4450   15.0320   -0.3630 N   0  0  0  0  0  0  0  0  0  0  0  0
   -8.3680   14.3130    2.0320 S   0  0  0  0  0  0  0  0  0  0  0  0
   -8.1000   12.7480    2.6390 N   0  0  0  0  0  0  0  0  0  0  0  0
   -8.1460   15.2180    3.1420 O   0  0  0  0  0  0  0  0  0  0  0  0
   -9.6180   14.3010    1.3060 O   0  0  0  0  0  0  0  0  0  0  0  0
  1  2  1  0
  2  3  2  0
  2  4  1  0
  4  5  2  0
  4  6  1  0
  5  7  1  0
  6  8  2  0
  7  9  1  0
  8  9  1  0
  7 10  2  0
  9 11  1  6
 10 12  1  0
  9 13  1  0
 12 13  2  0
 12 14  1  0
 14 15  1  0
 14 16  2  0
 14 17  2  0
M  END
