mac-x0398-mac-x0546
     RDKit          3D

 25 27  0  0  0  0  0  0  0  0999 V2000
   -6.3120   14.8130    2.1130 N   0  0  0  0  0  0  0  0  0  0  0  0
   -5.5650   14.9100    0.9420 C   0  0  0  0  0  0  0  0  0  0  0  0
   -4.1610   14.8950    0.9490 C   0  0  0  0  0  0  0  0  0  0  0  0
   -6.2380   15.0290   -0.2610 C   0  0  0  0  0  0  0  0  0  0  0  0
   -5.5360   15.1370   -1.4380 C   0  0  0  0  0  0  0  0  0  0  0  0
   -3.4430   15.0070   -0.2550 C   0  0  0  0  0  0  0  0  0  0  0  0
   -6.2920   15.2500   -2.5700 O   0  0  0  0  0  0  0  0  0  0  0  0
   -4.1420   15.1310   -1.4610 C   0  0  0  0  0  0  0  0  0  0  0  0
   -3.5180   15.2700   -2.7850 C   0  0  0  0  0  0  0  0  0  0  0  0
   -4.1720   15.4080   -3.8810 N   0  0  0  0  0  0  0  0  0  0  0  0
   -2.1760   15.2710   -2.7790 O   0  0  0  0  0  0  0  0  0  0  0  0
   -3.5940   15.6410   -5.1390 O   0  0  0  0  0  0  0  0  0  0  0  0
   -2.2290   15.8090   -5.2040 C   0  0  0  0  0  0  0  0  0  0  0  0
   -1.4740   14.7200   -5.0200 C   0  0  0  0  0  0  0  0  0  0  0  0
   -1.6290   17.1270   -5.5050 C   0  0  0  0  0  0  0  0  0  0  0  0
   -0.0040   14.8240   -5.1420 C   0  0  1  0  0  0  0  0  0  0  0  0
   -0.3150   17.3750   -5.3140 C   0  0  0  0  0  0  0  0  0  0  0  0
    0.4220   16.2230   -4.7690 C   0  0  0  0  0  0  0  0  0  0  0  0
    0.9470   14.0950   -4.2610 C   0  0  0  0  0  0  0  0  0  0  0  0
    0.9360   12.6030   -4.1530 C   0  0  0  0  0  0  0  0  0  0  0  0
    1.4110   16.3030   -3.9670 N   0  0  0  0  0  0  0  0  0  0  0  0
    1.7280   15.0020   -3.6730 C   0  0  0  0  0  0  0  0  0  0  0  0
    0.4750   12.0100   -2.8140 C   0  0  0  0  0  0  0  0  0  0  0  0
    0.6290   12.4430   -1.6730 O   0  0  0  0  0  0  0  0  0  0  0  0
   -0.1860   10.8460   -2.9820 O   0  0  0  0  0  0  0  0  0  0  0  0
  1  2  1  0
  2  3  2  0
  2  4  1  0
  4  5  2  0
  3  6  1  0
  5  7  1  0
  5  8  1  0
  6  8  2  0
  8  9  1  0
  9 10  2  3
  9 11  1  0
 10 12  1  0
 12 13  1  0
 13 14  2  0
 13 15  1  0
 16 14  1  1
 15 17  2  0
 16 18  1  0
 17 18  1  0
 16 19  1  0
 19 20  1  0
 18 21  2  0
 19 22  2  0
 21 22  1  0
 20 23  1  0
 23 24  2  0
 23 25  1  0
M  END
