mac-x0576-mac-x0510
     RDKit          3D

 13 14  0  0  0  0  0  0  0  0999 V2000
   -0.0410   13.8720    1.4930 N   0  0  0  0  0  0  0  0  0  0  0  0
   -0.5940   14.9210    0.7280 C   0  0  2  0  0  0  0  0  0  0  0  0
   -1.8970   15.1550    1.2630 N   0  0  0  0  0  0  0  0  0  0  0  0
   -0.6210   14.4220   -0.5870 N   0  0  0  0  0  0  0  0  0  0  0  0
   -1.6530   14.6530   -1.4450 C   0  0  0  0  0  0  0  0  0  0  0  0
   -2.9850   14.4240    0.6690 C   0  0  2  0  0  0  0  0  0  0  0  0
   -1.4200   14.9590   -2.6090 O   0  0  0  0  0  0  0  0  0  0  0  0
   -3.0540   14.5060   -0.8590 C   0  0  1  0  0  0  0  0  0  0  0  0
   -4.1840   14.8510    1.3380 N   0  0  0  0  0  0  0  0  0  0  0  0
   -5.3680   15.0090    0.6620 C   0  0  0  0  0  0  0  0  0  0  0  0
   -3.9620   15.5640   -1.3470 N   0  0  0  0  0  0  0  0  0  0  0  0
   -6.4300   14.8220    1.2520 O   0  0  0  0  0  0  0  0  0  0  0  0
   -5.3250   15.4210   -0.8130 C   0  0  0  0  0  0  0  0  0  0  0  0
  2  1  1  1
  2  3  1  0
  2  4  1  0
  4  5  1  0
  6  3  1  1
  5  7  2  0
  5  8  1  0
  6  8  1  0
  6  9  1  0
  9 10  1  0
  8 11  1  1
 10 12  2  0
 10 13  1  0
 11 13  1  0
M  END
