mac-x0224-diamond-x0685_1_A
     RDKit          3D

 23 24  0  0  0  0  0  0  0  0999 V2000
   -5.1410   14.9480    1.3060 C   0  0  0  0  0  0  0  0  0  0  0  0
   -3.3430   15.1080    1.2620 S   0  0  0  0  0  0  0  0  0  0  0  0
   -3.0640   15.0310   -0.4870 C   0  0  0  0  0  0  0  0  0  0  0  0
   -1.8020   14.6470   -0.9040 C   0  0  0  0  0  0  0  0  0  0  0  0
   -4.0410   15.3390   -1.4470 C   0  0  0  0  0  0  0  0  0  0  0  0
   -1.5180   14.5770   -2.2600 C   0  0  0  0  0  0  0  0  0  0  0  0
   -3.7430   15.2610   -2.8110 C   0  0  0  0  0  0  0  0  0  0  0  0
   -0.1820   14.1710   -2.6390 C   0  0  0  0  0  0  0  0  0  0  0  0
   -2.4750   14.8820   -3.2180 C   0  0  0  0  0  0  0  0  0  0  0  0
   -2.1630   14.8070   -4.5480 O   0  0  0  0  0  0  0  0  0  0  0  0
    0.7730   14.8240   -2.2090 O   0  0  0  0  0  0  0  0  0  0  0  0
   -0.0440   13.0380   -3.4010 N   0  0  0  0  0  0  0  0  0  0  0  0
   -1.0090   12.5070   -4.3990 C   0  0  0  0  0  0  0  0  0  0  0  0
    0.8990   11.9830   -2.5000 S   0  0  0  0  0  0  0  0  0  0  0  0
   -0.8080   11.0710   -4.6290 N   0  0  0  0  0  0  0  0  0  0  0  0
    2.3330   12.0770   -3.2200 O   0  0  0  0  0  0  0  0  0  0  0  0
    0.3900   10.4540   -2.6060 O   0  0  0  0  0  0  0  0  0  0  0  0
   -0.5700   10.5560   -6.0030 C   0  0  0  0  0  0  0  0  0  0  0  0
   -0.5400    9.0310   -6.2190 C   0  0  0  0  0  0  0  0  0  0  0  0
   -1.4500   11.1890   -7.0950 C   0  0  0  0  0  0  0  0  0  0  0  0
   -0.0390    8.6400   -7.6060 C   0  0  0  0  0  0  0  0  0  0  0  0
   -1.0470   10.7980   -8.5240 C   0  0  0  0  0  0  0  0  0  0  0  0
   -0.8890    9.2810   -8.7040 C   0  0  0  0  0  0  0  0  0  0  0  0
  1  2  1  0
  2  3  1  0
  3  4  2  0
  3  5  1  0
  4  6  1  0
  5  7  2  0
  6  8  1  0
  6  9  2  0
  7  9  1  0
  9 10  1  0
  8 11  2  0
  8 12  1  0
 12 13  1  0
 12 14  1  0
 13 15  1  0
 14 16  1  0
 14 17  1  0
 15 18  1  0
 18 19  1  0
 18 20  1  0
 19 21  1  0
 20 22  1  0
 21 23  1  0
 22 23  1  0
M  END
