mac-x0193-diamond-x0711_0_A
     RDKit          3D

 27 28  0  0  0  0  0  0  0  0999 V2000
    0.6840   10.8360   -2.5820 O   0  0  0  0  0  0  0  0  0  0  0  0
    0.4090   11.9910   -3.2880 C   0  0  0  0  0  0  0  0  0  0  0  0
   -0.2480   12.9040   -2.6930 N   0  0  0  0  0  0  0  0  0  0  0  0
    0.8010   12.2210   -4.6720 C   0  0  0  0  0  0  0  0  0  0  0  0
    0.1170   11.4380   -5.6390 N   0  0  0  0  0  0  0  0  0  0  0  0
   -0.6190   14.1690   -3.4680 S   0  0  0  0  0  0  0  0  0  0  0  0
    0.6940   11.1980   -6.8930 C   0  0  0  0  0  0  0  0  0  0  0  0
   -1.1640   14.9040   -1.9800 N   0  0  0  0  0  0  0  0  0  0  0  0
   -1.7790   13.5100   -4.4060 C   0  0  0  0  0  0  0  0  0  0  0  0
   -0.6460   15.5480   -4.0280 O   0  0  0  0  0  0  0  0  0  0  0  0
    1.8300   11.6690   -7.0480 O   0  0  0  0  0  0  0  0  0  0  0  0
    0.0880   10.4660   -7.9350 N   0  0  0  0  0  0  0  0  0  0  0  0
   -2.4650   14.8270   -1.4420 C   0  0  0  0  0  0  0  0  0  0  0  0
    0.7980   10.0470   -9.1280 C   0  0  0  0  0  0  0  0  0  0  0  0
   -3.5990   15.1270   -2.2150 C   0  0  0  0  0  0  0  0  0  0  0  0
   -2.7040   14.4770   -0.1410 C   0  0  0  0  0  0  0  0  0  0  0  0
    1.3910    8.6950   -8.8240 C   0  0  0  0  0  0  0  0  0  0  0  0
   -0.0730    9.9870  -10.3310 C   0  0  0  0  0  0  0  0  0  0  0  0
   -4.8800   15.0700   -1.6680 C   0  0  0  0  0  0  0  0  0  0  0  0
   -3.9730   14.4180    0.4060 C   0  0  0  0  0  0  0  0  0  0  0  0
    2.1270    8.0830   -9.9620 C   0  0  0  0  0  0  0  0  0  0  0  0
    0.7760    9.4830  -11.4700 C   0  0  0  0  0  0  0  0  0  0  0  0
   -5.0840   14.7130   -0.3430 C   0  0  0  0  0  0  0  0  0  0  0  0
   -6.4190   14.6390    0.2860 C   0  0  0  0  0  0  0  0  0  0  0  0
    1.2350    8.0840  -11.1790 C   0  0  0  0  0  0  0  0  0  0  0  0
   -6.5940   14.6020    1.6850 N   0  0  0  0  0  0  0  0  0  0  0  0
   -7.4320   14.6150   -0.4480 O   0  0  0  0  0  0  0  0  0  0  0  0
  1  2  1  0
  2  3  2  3
  2  4  1  0
  4  5  1  0
  3  6  1  0
  5  7  1  0
  6  8  1  0
  6  9  1  0
  6 10  2  0
  7 11  2  0
  7 12  1  0
  8 13  1  0
 12 14  1  0
 13 15  2  0
 13 16  1  0
 14 17  1  0
 14 18  1  0
 15 19  1  0
 16 20  2  0
 17 21  1  0
 18 22  1  0
 19 23  2  0
 20 23  1  0
 23 24  1  0
 21 25  1  0
 22 25  1  0
 24 26  1  0
 24 27  2  0
M  END
