mac-x0333-mac-x0231
     RDKit          3D

 26 29  0  0  0  0  0  0  0  0999 V2000
   -2.1000   14.9610   -2.3720 O   0  0  0  0  0  0  0  0  0  0  0  0
   -3.2190   14.9570   -1.6030 C   0  0  0  0  0  0  0  0  0  0  0  0
   -3.0540   15.1280   -0.2260 C   0  0  0  0  0  0  0  0  0  0  0  0
   -4.4660   14.7800   -2.2300 C   0  0  0  0  0  0  0  0  0  0  0  0
   -4.4600   14.5810   -3.7630 C   0  0  0  0  0  0  0  0  0  0  0  0
   -5.5590   14.7940   -1.3360 C   0  0  0  0  0  0  0  0  0  0  0  0
   -4.1430   15.1340    0.6140 C   0  0  0  0  0  0  0  0  0  0  0  0
   -5.3770   14.9650    0.0360 C   0  0  0  0  0  0  0  0  0  0  0  0
   -6.8840   14.6490   -1.6230 O   0  0  0  0  0  0  0  0  0  0  0  0
   -2.9910   14.4720   -4.0980 C   0  0  0  0  0  0  0  0  0  0  0  0
   -6.5370   14.9420    0.7400 O   0  0  0  0  0  0  0  0  0  0  0  0
   -7.4800   14.6960   -0.3100 C   0  0  0  0  0  0  0  0  0  0  0  0
   -2.1440   15.5960   -4.2870 C   0  0  0  0  0  0  0  0  0  0  0  0
   -2.4590   13.1930   -4.1690 C   0  0  0  0  0  0  0  0  0  0  0  0
   -0.7630   15.3910   -4.4820 C   0  0  0  0  0  0  0  0  0  0  0  0
   -1.1090   12.9980   -4.3670 C   0  0  0  0  0  0  0  0  0  0  0  0
   -0.2650   14.0920   -4.4960 C   0  0  0  0  0  0  0  0  0  0  0  0
    0.2020   16.5060   -4.6470 C   0  0  0  0  0  0  0  0  0  0  0  0
   -0.1560   17.6720   -4.8030 O   0  0  0  0  0  0  0  0  0  0  0  0
    1.1770   13.9010   -4.6120 C   0  0  0  0  0  0  0  0  0  0  0  0
    1.5250   16.1500   -4.6060 N   0  0  0  0  0  0  0  0  0  0  0  0
    1.7060   12.4900   -4.5850 C   0  0  0  0  0  0  0  0  0  0  0  0
    2.0090   14.8790   -4.6380 N   0  0  0  0  0  0  0  0  0  0  0  0
    1.3650   11.9310   -3.2320 C   0  0  0  0  0  0  0  0  0  0  0  0
    0.9470   10.6550   -3.2390 O   0  0  0  0  0  0  0  0  0  0  0  0
    1.4370   12.5270   -2.1710 O   0  0  0  0  0  0  0  0  0  0  0  0
  1  2  1  0
  2  3  2  0
  2  4  1  0
  4  5  1  0
  4  6  2  0
  3  7  1  0
  6  8  1  0
  7  8  2  0
  6  9  1  0
  5 10  1  0
  8 11  1  0
  9 12  1  0
 11 12  1  0
 10 13  2  0
 10 14  1  0
 13 15  1  0
 14 16  2  0
 15 17  2  0
 16 17  1  0
 15 18  1  0
 18 19  2  0
 17 20  1  0
 18 21  1  0
 20 22  1  0
 20 23  2  0
 21 23  1  0
 22 24  1  0
 24 25  1  0
 24 26  2  0
M  END
