mac-x0132-mac-x0123
     RDKit          3D

 14 16  0  0  0  0  0  0  0  0999 V2000
   -4.4340   15.2360    2.3910 N   0  0  0  0  0  0  0  0  0  0  0  0
   -5.4730   14.3650    1.8840 C   0  0  2  0  0  0  0  0  0  0  0  0
   -5.9870   15.0160    0.7250 N   0  0  0  0  0  0  0  0  0  0  0  0
   -6.5350   14.1570    2.9090 C   0  0  0  0  0  0  0  0  0  0  0  0
   -5.1860   15.6110   -0.3460 C   0  0  2  0  0  0  0  0  0  0  0  0
   -7.3200   14.7020    0.2370 C   0  0  1  0  0  0  0  0  0  0  0  0
   -7.8050   13.8790    2.5670 C   0  0  0  0  0  0  0  0  0  0  0  0
   -6.1140   15.2980   -1.5520 C   0  0  2  0  0  0  0  0  0  0  0  0
   -7.0500   14.2400   -1.1100 N   0  0  0  0  0  0  0  0  0  0  0  0
   -3.7360   15.2470   -0.5410 C   0  0  0  0  0  0  0  0  0  0  0  0
   -8.1820   13.7680    1.1170 C   0  0  0  0  0  0  0  0  0  0  0  0
   -5.4170   14.9530   -2.8250 C   0  0  0  0  0  0  0  0  0  0  0  0
   -3.2510   14.8660   -1.7280 C   0  0  0  0  0  0  0  0  0  0  0  0
   -4.0930   14.7650   -2.8940 C   0  0  0  0  0  0  0  0  0  0  0  0
  2  1  1  1
  2  3  1  0
  2  4  1  0
  3  5  1  0
  3  6  1  0
  4  7  2  0
  5  8  1  0
  6  9  1  0
  8  9  1  0
  5 10  1  6
  6 11  1  1
  7 11  1  0
  8 12  1  6
 10 13  2  0
 12 14  2  0
 13 14  1  0
M  END
