mac-x0338-mac-x0190
     RDKit          3D

 15 16  0  0  0  0  0  0  0  0999 V2000
   -3.5820   15.2400    1.9920 N   0  0  0  0  0  0  0  0  0  0  0  0
   -4.7780   15.2430    1.3480 C   0  0  0  0  0  0  0  0  0  0  0  0
   -5.8130   15.1050    1.9760 O   0  0  0  0  0  0  0  0  0  0  0  0
   -4.7400   15.4300   -0.1610 C   0  0  1  0  0  0  0  0  0  0  0  0
   -3.3730   15.1140   -0.6610 N   0  0  0  0  0  0  0  0  0  0  0  0
   -5.8560   14.5780   -0.8880 C   0  0  2  0  0  0  0  0  0  0  0  0
   -3.2240   15.0180   -2.0240 C   0  0  0  0  0  0  0  0  0  0  0  0
   -5.5370   14.4840   -2.3470 N   0  0  0  0  0  0  0  0  0  0  0  0
   -7.2490   15.0140   -0.6020 N   0  0  0  0  0  0  0  0  0  0  0  0
   -5.8850   13.1630   -0.2670 C   0  0  0  0  0  0  0  0  0  0  0  0
   -4.2550   14.7210   -2.8210 C   0  0  0  0  0  0  0  0  0  0  0  0
   -7.6170   14.4600    0.7090 C   0  0  2  0  0  0  0  0  0  0  0  0
   -6.7510   13.3050    0.9170 N   0  0  0  0  0  0  0  0  0  0  0  0
   -9.1300   14.1860    0.9040 C   0  0  0  0  0  0  0  0  0  0  0  0
   -9.5830   14.7450    2.1430 O   0  0  0  0  0  0  0  0  0  0  0  0
  1  2  1  0
  2  3  2  0
  4  2  1  1
  4  5  1  0
  4  6  1  0
  5  7  1  0
  6  8  1  0
  6  9  1  0
  6 10  1  1
  7 11  2  0
  8 11  1  0
  9 12  1  0
 10 13  1  0
 12 13  1  0
 12 14  1  6
 14 15  1  0
M  END
