mac-x0283-mac-x0124
     RDKit          3D

 20 23  0  0  0  0  0  0  0  0999 V2000
   -6.0570   14.4650    2.7070 N   0  0  0  0  0  0  0  0  0  0  0  0
   -6.3460   14.6760    1.4310 C   0  0  0  0  0  0  0  0  0  0  0  0
   -7.6210   14.7410    1.0340 N   0  0  0  0  0  0  0  0  0  0  0  0
   -5.4220   14.8620    0.3530 C   0  0  0  0  0  0  0  0  0  0  0  0
   -7.5950   14.9820   -0.3060 O   0  0  0  0  0  0  0  0  0  0  0  0
   -6.3220   15.0590   -0.7170 C   0  0  0  0  0  0  0  0  0  0  0  0
   -4.0420   14.9190   -0.0310 C   0  0  0  0  0  0  0  0  0  0  0  0
   -6.0160   15.3030   -2.0370 C   0  0  0  0  0  0  0  0  0  0  0  0
   -3.7810   15.1740   -1.3740 C   0  0  0  0  0  0  0  0  0  0  0  0
   -2.6800   14.8070    0.4200 C   0  0  0  0  0  0  0  0  0  0  0  0
   -4.7010   15.3600   -2.3490 C   0  0  0  0  0  0  0  0  0  0  0  0
   -2.0770   14.7970   -0.8100 C   0  0  0  0  0  0  0  0  0  0  0  0
   -1.9410   14.7230    1.5710 N   0  0  0  0  0  0  0  0  0  0  0  0
   -2.6040   14.8590   -2.1330 C   0  0  0  0  0  0  0  0  0  0  0  0
   -0.7320   14.7190   -0.9090 C   0  0  0  0  0  0  0  0  0  0  0  0
   -0.5860   14.6390    1.3190 C   0  0  0  0  0  0  0  0  0  0  0  0
   -0.4230   14.7440   -2.2540 N   0  0  0  0  0  0  0  0  0  0  0  0
   -1.5630   14.8250   -3.0050 C   0  0  0  0  0  0  0  0  0  0  0  0
    0.0850   14.6380    0.1330 N   0  0  0  0  0  0  0  0  0  0  0  0
    0.9010   14.6910   -2.8010 C   0  0  0  0  0  0  0  0  0  0  0  0
  1  2  1  0
  2  3  2  0
  2  4  1  0
  3  5  1  0
  4  6  2  0
  5  6  1  0
  4  7  1  0
  6  8  1  0
  7  9  2  0
  7 10  1  0
  8 11  2  0
  9 11  1  0
 10 12  1  0
 10 13  2  0
 12 14  1  0
 12 15  2  0
 13 16  1  0
 15 17  1  0
 14 18  2  0
 17 18  1  0
 15 19  1  0
 16 19  2  0
 17 20  1  0
M  END
