mac-x0131-mac-x0206
     RDKit          3D

 27 30  0  0  0  0  0  0  0  0999 V2000
   -3.2710   15.1990   -4.3590 C   0  0  0  0  0  0  0  0  0  0  0  0
   -2.7150   15.1140   -2.9800 C   0  0  0  0  0  0  0  0  0  0  0  0
   -3.3340   15.2000   -1.7620 C   0  0  0  0  0  0  0  0  0  0  0  0
   -1.3680   14.9100   -2.6750 N   0  0  0  0  0  0  0  0  0  0  0  0
   -4.6490   15.3860   -1.4490 C   0  0  0  0  0  0  0  0  0  0  0  0
   -0.2820   14.7410   -3.6340 C   0  0  0  0  0  0  0  0  0  0  0  0
   -2.4200   15.0590   -0.6960 C   0  0  0  0  0  0  0  0  0  0  0  0
   -1.1900   14.8790   -1.2930 C   0  0  0  0  0  0  0  0  0  0  0  0
   -4.9800   14.7350   -0.3830 C   0  0  0  0  0  0  0  0  0  0  0  0
   -2.4710   15.0670    0.7400 C   0  0  0  0  0  0  0  0  0  0  0  0
   -0.0390   14.7080   -0.6260 N   0  0  0  0  0  0  0  0  0  0  0  0
   -0.2050   13.2890   -3.9100 C   0  0  0  0  0  0  0  0  0  0  0  0
   -3.6020   15.2610    1.5330 N   0  0  0  0  0  0  0  0  0  0  0  0
   -4.0630   13.9400    0.2620 N   0  0  0  0  0  0  0  0  0  0  0  0
   -1.3450   14.8870    1.4230 N   0  0  0  0  0  0  0  0  0  0  0  0
   -0.2260   14.7290    0.7140 C   0  0  0  0  0  0  0  0  0  0  0  0
    0.5860   12.2480   -3.4650 C   0  0  0  0  0  0  0  0  0  0  0  0
   -1.1330   12.8180   -4.7960 O   0  0  0  0  0  0  0  0  0  0  0  0
   -6.2440   14.7510    0.2530 C   0  0  0  0  0  0  0  0  0  0  0  0
   -0.9380   11.4840   -4.9090 C   0  0  0  0  0  0  0  0  0  0  0  0
    0.0930   11.0860   -4.1110 C   0  0  0  0  0  0  0  0  0  0  0  0
   -7.4440   14.7400   -0.4230 C   0  0  0  0  0  0  0  0  0  0  0  0
   -6.2000   14.7800    1.6330 C   0  0  0  0  0  0  0  0  0  0  0  0
   -7.4530   14.7160   -1.7930 O   0  0  0  0  0  0  0  0  0  0  0  0
   -8.6260   14.7540    0.3080 C   0  0  0  0  0  0  0  0  0  0  0  0
   -7.3590   14.7940    2.3770 C   0  0  0  0  0  0  0  0  0  0  0  0
   -8.5790   14.7800    1.7090 C   0  0  0  0  0  0  0  0  0  0  0  0
  1  2  1  0
  2  3  2  0
  2  4  1  0
  3  5  1  0
  4  6  1  0
  3  7  1  0
  4  8  1  0
  7  8  2  0
  5  9  2  3
  7 10  1  0
  8 11  1  0
  6 12  1  0
 10 13  1  0
  9 14  1  0
 10 15  2  0
 11 16  2  0
 15 16  1  0
 12 17  2  0
 12 18  1  0
  9 19  1  0
 18 20  1  0
 17 21  1  0
 20 21  2  0
 19 22  2  0
 19 23  1  0
 22 24  1  0
 22 25  1  0
 23 26  2  0
 25 27  2  0
 26 27  1  0
M  END
