mac-x0206-mac-x0360
     RDKit          3D

 19 20  0  0  0  0  0  0  0  0999 V2000
   -3.5760   14.0340   -0.3530 C   0  0  0  0  0  0  0  0  0  0  0  0
   -4.4330   15.1730   -0.6980 C   0  0  0  0  0  0  0  0  0  0  0  0
   -4.1120   16.0160   -1.5100 O   0  0  0  0  0  0  0  0  0  0  0  0
   -2.4050   14.1500   -0.0200 O   0  0  0  0  0  0  0  0  0  0  0  0
   -4.4190   12.8240   -0.4560 C   0  0  0  0  0  0  0  0  0  0  0  0
   -5.6970   15.0540    0.0250 C   0  0  0  0  0  0  0  0  0  0  0  0
   -4.3010   11.8840   -1.4720 C   0  0  0  0  0  0  0  0  0  0  0  0
   -5.4090   12.6630    0.5300 C   0  0  0  0  0  0  0  0  0  0  0  0
   -6.9490   14.9670   -0.5820 C   0  0  0  0  0  0  0  0  0  0  0  0
   -5.5930   14.9980    1.4240 C   0  0  0  0  0  0  0  0  0  0  0  0
   -5.1810   10.8050   -1.4950 C   0  0  0  0  0  0  0  0  0  0  0  0
   -6.2800   11.5870    0.4910 C   0  0  0  0  0  0  0  0  0  0  0  0
   -7.0660   15.0090   -1.9430 O   0  0  0  0  0  0  0  0  0  0  0  0
   -7.4910   11.4120    1.7010 Cl  0  0  0  0  0  0  0  0  0  0  0  0
   -5.0420    9.6380   -2.7490 Cl  0  0  0  0  0  0  0  0  0  0  0  0
   -8.0970   14.8250    0.2040 C   0  0  0  0  0  0  0  0  0  0  0  0
   -6.7420   14.8530    2.2080 C   0  0  0  0  0  0  0  0  0  0  0  0
   -6.1710   10.6520   -0.5280 C   0  0  0  0  0  0  0  0  0  0  0  0
   -7.9890   14.7670    1.5990 C   0  0  0  0  0  0  0  0  0  0  0  0
  1  2  1  0
  2  3  2  0
  1  4  2  0
  1  5  1  0
  2  6  1  0
  5  7  2  0
  5  8  1  0
  6  9  2  0
  6 10  1  0
  7 11  1  0
  8 12  2  0
  9 13  1  0
 12 14  1  0
 11 15  1  0
  9 16  1  0
 10 17  2  0
 11 18  2  0
 12 18  1  0
 16 19  2  0
 17 19  1  0
M  END
