mac-x0527-diamond-x0662_0_A
     RDKit          3D

 33 36  0  0  0  0  0  0  0  0999 V2000
   -3.9070   15.3300   -3.5470 O   0  0  0  0  0  0  0  0  0  0  0  0
   -3.2570   15.1240   -2.5290 C   0  0  0  0  0  0  0  0  0  0  0  0
   -1.9000   14.9560   -2.5460 N   0  0  0  0  0  0  0  0  0  0  0  0
   -3.9160   15.0540   -1.2040 C   0  0  0  0  0  0  0  0  0  0  0  0
   -1.2310   15.1360   -3.8000 C   0  0  0  0  0  0  0  0  0  0  0  0
   -5.2960   15.0940   -1.1060 C   0  0  0  0  0  0  0  0  0  0  0  0
   -3.1110   14.9510   -0.1120 N   0  0  0  0  0  0  0  0  0  0  0  0
   -1.4500   13.9050   -4.6020 C   0  0  0  0  0  0  0  0  0  0  0  0
   -5.9430   15.0320    0.0760 N   0  0  0  0  0  0  0  0  0  0  0  0
   -3.7610   14.8920    1.0690 C   0  0  0  0  0  0  0  0  0  0  0  0
   -2.6890   13.2790   -4.7530 C   0  0  0  0  0  0  0  0  0  0  0  0
   -0.3690   13.3670   -5.2130 C   0  0  0  0  0  0  0  0  0  0  0  0
   -5.1400   14.9320    1.1610 C   0  0  0  0  0  0  0  0  0  0  0  0
   -2.8150   12.1060   -5.5160 C   0  0  0  0  0  0  0  0  0  0  0  0
   -0.4930   12.2300   -5.9570 C   0  0  0  0  0  0  0  0  0  0  0  0
   -1.6990   11.5780   -6.1210 C   0  0  0  0  0  0  0  0  0  0  0  0
    0.7370   11.7610   -6.5670 C   0  0  1  0  0  0  0  0  0  0  0  0
    1.5710   11.7020   -5.5840 O   0  0  0  0  0  0  0  0  0  0  0  0
    0.3880   10.5670   -7.4630 C   0  0  0  0  0  0  0  0  0  0  0  0
   -0.3850    9.4510   -7.1370 C   0  0  0  0  0  0  0  0  0  0  0  0
    0.9000   10.6480   -8.7540 C   0  0  0  0  0  0  0  0  0  0  0  0
   -0.6230    8.4660   -8.1000 C   0  0  0  0  0  0  0  0  0  0  0  0
    0.6800    9.6910   -9.7130 C   0  0  0  0  0  0  0  0  0  0  0  0
    1.2840    9.9480  -10.9540 N   0  0  0  0  0  0  0  0  0  0  0  0
   -0.0900    8.5870   -9.3910 C   0  0  0  0  0  0  0  0  0  0  0  0
    2.3200    9.2270  -11.4950 C   0  0  0  0  0  0  0  0  0  0  0  0
    2.6890    8.1360  -11.0730 O   0  0  0  0  0  0  0  0  0  0  0  0
    3.0010    9.8650  -12.6490 C   0  0  0  0  0  0  0  0  0  0  0  0
    2.8070   11.1540  -13.2380 C   0  0  0  0  0  0  0  0  0  0  0  0
    3.9720    9.2030  -13.3050 N   0  0  0  0  0  0  0  0  0  0  0  0
    4.3760   10.0420  -14.2650 N   0  0  0  0  0  0  0  0  0  0  0  0
    3.7090   11.2290  -14.2730 C   0  0  0  0  0  0  0  0  0  0  0  0
    5.4320    9.6190  -15.1520 C   0  0  0  0  0  0  0  0  0  0  0  0
  1  2  2  0
  2  3  1  0
  2  4  1  0
  3  5  1  0
  4  6  2  0
  4  7  1  0
  5  8  1  0
  6  9  1  0
  7 10  2  0
  8 11  2  0
  8 12  1  0
  9 13  2  0
 10 13  1  0
 11 14  1  0
 12 15  2  0
 14 16  2  0
 15 16  1  0
 15 17  1  0
 17 18  1  1
 17 19  1  0
 19 20  2  0
 19 21  1  0
 20 22  1  0
 21 23  2  0
 23 24  1  0
 22 25  2  0
 23 25  1  0
 24 26  1  0
 26 27  2  0
 26 28  1  0
 28 29  1  0
 28 30  2  0
 30 31  1  0
 29 32  2  0
 31 32  1  0
 31 33  1  0
M  CHG  1  18  -1
M  END
