mac-x0402-mac-x0412
     RDKit          3D

 12 13  0  0  0  0  0  0  0  0999 V2000
   -1.7420   14.8380   -3.3380 Cl  0  0  0  0  0  0  0  0  0  0  0  0
   -3.1040   14.8940   -2.2820 C   0  0  0  0  0  0  0  0  0  0  0  0
   -4.3670   15.0020   -2.8460 C   0  0  0  0  0  0  0  0  0  0  0  0
   -2.9180   14.8310   -0.8970 C   0  0  0  0  0  0  0  0  0  0  0  0
   -4.0580   14.8710   -0.0660 C   0  0  0  0  0  0  0  0  0  0  0  0
   -5.5020   15.0420   -2.0430 C   0  0  0  0  0  0  0  0  0  0  0  0
   -5.3250   14.9690   -0.6660 C   0  0  0  0  0  0  0  0  0  0  0  0
   -4.0570   14.8060    1.6790 S   0  0  0  0  0  0  0  0  0  0  0  0
   -5.7740   14.8970    1.6320 C   0  0  0  0  0  0  0  0  0  0  0  0
   -6.3000   14.9780    0.2580 N   0  0  0  0  0  0  0  0  0  0  0  0
   -6.6010   14.8970    2.8590 N   0  0  0  0  0  0  0  0  0  0  0  0
   -7.5550   15.0450    0.0840 O   0  0  0  0  0  0  0  0  0  0  0  0
  1  2  1  0
  2  3  2  0
  2  4  1  0
  4  5  2  0
  3  6  1  0
  5  7  1  0
  6  7  2  0
  5  8  1  0
  8  9  1  0
  7 10  1  0
  9 10  2  0
  9 11  1  0
 10 12  1  0
M  CHG  2  10   1  12  -1
M  END
