mac-x0226-mac-x0180
     RDKit          3D

 29 31  0  0  0  0  0  0  0  0999 V2000
    1.7510   12.2430   -2.1790 O   0  0  0  0  0  0  0  0  0  0  0  0
    0.5220   11.7800   -2.6900 C   0  0  0  0  0  0  0  0  0  0  0  0
    0.3010   10.4720   -2.1660 O   0  0  0  0  0  0  0  0  0  0  0  0
   -0.4590   12.7410   -2.0450 C   0  0  0  0  0  0  0  0  0  0  0  0
    0.6170   11.7810   -4.1840 C   0  0  0  0  0  0  0  0  0  0  0  0
    0.2320   13.9580   -1.4170 C   0  0  0  0  0  0  0  0  0  0  0  0
    1.4250   12.6110   -4.9980 C   0  0  0  0  0  0  0  0  0  0  0  0
   -0.0350   10.9750   -5.0990 C   0  0  0  0  0  0  0  0  0  0  0  0
   -0.0050   15.1180   -2.1970 O   0  0  0  0  0  0  0  0  0  0  0  0
    1.2980   12.3440   -6.2950 N   0  0  0  0  0  0  0  0  0  0  0  0
    0.3990   11.3270   -6.3600 N   0  0  0  0  0  0  0  0  0  0  0  0
   -1.1710   15.0560   -2.8710 C   0  0  0  0  0  0  0  0  0  0  0  0
    0.0130   10.7450   -7.6020 C   0  0  0  0  0  0  0  0  0  0  0  0
   -1.3140   15.0760   -4.0830 O   0  0  0  0  0  0  0  0  0  0  0  0
   -1.1440    9.9670   -7.6820 C   0  0  0  0  0  0  0  0  0  0  0  0
    0.7720   10.9270   -8.7540 C   0  0  0  0  0  0  0  0  0  0  0  0
   -2.2920   14.9780   -1.8930 C   0  0  0  0  0  0  0  0  0  0  0  0
   -1.5170    9.3930   -8.9020 C   0  0  0  0  0  0  0  0  0  0  0  0
    0.4070   10.3610   -9.9650 C   0  0  0  0  0  0  0  0  0  0  0  0
   -2.0960   14.7270   -0.5220 C   0  0  0  0  0  0  0  0  0  0  0  0
   -3.5880   15.1760   -2.3670 C   0  0  0  0  0  0  0  0  0  0  0  0
   -0.7410    9.5910  -10.0430 C   0  0  0  0  0  0  0  0  0  0  0  0
   -3.1790   14.6770    0.3540 C   0  0  0  0  0  0  0  0  0  0  0  0
   -4.6660   15.1250   -1.4870 C   0  0  0  0  0  0  0  0  0  0  0  0
   -4.4740   14.8740   -0.1210 C   0  0  0  0  0  0  0  0  0  0  0  0
   -5.6180   14.8350    0.6910 N   0  0  0  0  0  0  0  0  0  0  0  0
   -6.9230   14.7200    0.2480 C   0  0  0  0  0  0  0  0  0  0  0  0
   -7.9030   14.5320    1.3780 C   0  0  0  0  0  0  0  0  0  0  0  0
   -7.3080   14.7630   -0.9120 O   0  0  0  0  0  0  0  0  0  0  0  0
  2  1  1  0
  2  3  1  0
  2  4  1  0
  2  5  1  0
  4  6  1  0
  5  7  1  0
  5  8  2  0
  6  9  1  0
  7 10  2  0
  8 11  1  0
 10 11  1  0
  9 12  1  0
 11 13  1  0
 12 14  2  0
 13 15  2  0
 13 16  1  0
 12 17  1  0
 15 18  1  0
 16 19  2  0
 17 20  2  0
 17 21  1  0
 18 22  2  0
 19 22  1  0
 20 23  1  0
 21 24  2  0
 23 25  2  0
 24 25  1  0
 25 26  1  0
 26 27  1  0
 27 28  1  0
 27 29  2  0
M  END
