mac-x0142-mac-x0148
     RDKit          3D

 20 24  0  0  0  0  0  0  0  0999 V2000
    2.3120   13.2950   -4.2960 C   0  0  0  0  0  0  0  0  0  0  0  0
    1.4290   12.4860   -3.3920 C   0  0  0  0  0  0  0  0  0  0  0  0
    0.8660   13.6910   -4.1070 C   0  0  0  0  0  0  0  0  0  0  0  0
   -0.0880   13.4740   -5.2450 C   0  0  0  0  0  0  0  0  0  0  0  0
    0.4980   14.8880   -3.2710 C   0  0  0  0  0  0  0  0  0  0  0  0
   -1.4910   13.2190   -4.6860 C   0  0  1  0  0  0  0  0  0  0  0  0
   -0.8310   14.6420   -2.6890 N   0  0  0  0  0  0  0  0  0  0  0  0
   -1.9090   14.2130   -3.6070 C   0  0  1  0  0  0  0  0  0  0  0  0
   -1.0870   14.6890   -1.3090 C   0  0  0  0  0  0  0  0  0  0  0  0
   -2.5520   13.4600   -5.7430 C   0  0  0  0  0  0  0  0  0  0  0  0
   -0.0980   14.5300   -0.3570 N   0  0  0  0  0  0  0  0  0  0  0  0
   -2.3190   14.9100   -0.8100 C   0  0  0  0  0  0  0  0  0  0  0  0
   -2.9280   14.8450   -5.6730 O   0  0  0  0  0  0  0  0  0  0  0  0
   -2.5510   15.3560   -4.3810 C   0  0  0  0  0  0  0  0  0  0  0  0
   -0.3850   14.5240    0.9900 C   0  0  0  0  0  0  0  0  0  0  0  0
   -2.5350   14.9570    0.6560 C   0  0  0  0  0  0  0  0  0  0  0  0
   -3.6250   15.1610   -1.3370 C   0  0  0  0  0  0  0  0  0  0  0  0
   -1.5320   14.7110    1.5410 N   0  0  0  0  0  0  0  0  0  0  0  0
   -3.7640   15.2550    0.9620 N   0  0  0  0  0  0  0  0  0  0  0  0
   -4.4020   15.3690   -0.2630 C   0  0  0  0  0  0  0  0  0  0  0  0
  1  2  1  0
  3  1  1  0
  2  3  1  0
  3  4  1  0
  3  5  1  0
  6  4  1  6
  5  7  1  0
  6  8  1  0
  7  8  1  0
  7  9  1  0
  6 10  1  0
  9 11  1  0
  9 12  2  0
 10 13  1  0
  8 14  1  6
 13 14  1  0
 11 15  1  0
 12 16  1  0
 12 17  1  0
 15 18  2  0
 16 18  1  0
 16 19  2  0
 17 20  2  0
 19 20  1  0
M  END
