mac-x0179-diamond-x0253_0_A
     RDKit          3D

 17 19  0  0  0  0  0  0  0  0999 V2000
    1.0670   12.8480   -2.0870 O   0  0  0  0  0  0  0  0  0  0  0  0
    0.7140   12.0050   -3.0780 C   0  0  0  0  0  0  0  0  0  0  0  0
    0.6170   10.8090   -2.8730 O   0  0  0  0  0  0  0  0  0  0  0  0
    0.4810   12.6990   -4.4350 C   0  0  1  0  0  0  0  0  0  0  0  0
    1.6410   12.8750   -5.2100 N   0  0  0  0  0  0  0  0  0  0  0  0
   -0.4840   12.2620   -5.4320 N   0  0  0  0  0  0  0  0  0  0  0  0
    1.5870   11.9630   -6.2120 C   0  0  0  0  0  0  0  0  0  0  0  0
    0.1650   11.9830   -6.7090 C   0  0  1  0  0  0  0  0  0  0  0  0
   -1.4200   11.2650   -5.1610 C   0  0  0  0  0  0  0  0  0  0  0  0
   -2.1210   11.1490   -4.1800 O   0  0  0  0  0  0  0  0  0  0  0  0
    2.5020   11.3050   -6.5690 O   0  0  0  0  0  0  0  0  0  0  0  0
   -0.4750   10.7490   -7.2190 C   0  0  0  0  0  0  0  0  0  0  0  0
   -1.4330   10.3270   -6.2960 C   0  0  0  0  0  0  0  0  0  0  0  0
   -0.2620   10.0340   -8.3910 C   0  0  0  0  0  0  0  0  0  0  0  0
   -2.2130    9.1980   -6.4980 C   0  0  0  0  0  0  0  0  0  0  0  0
   -1.0380    8.8850   -8.6120 C   0  0  0  0  0  0  0  0  0  0  0  0
   -2.0050    8.4730   -7.6760 C   0  0  0  0  0  0  0  0  0  0  0  0
  1  2  1  0
  2  3  2  0
  4  2  1  1
  4  5  1  0
  4  6  1  0
  5  7  1  0
  6  8  1  0
  8  7  1  1
  6  9  1  0
  9 10  2  0
  7 11  2  0
  8 12  1  0
  9 13  1  0
 12 13  2  0
 12 14  1  0
 13 15  1  0
 14 16  2  0
 15 17  2  0
 16 17  1  0
M  END
