mac-x0373-mac-x0346
     RDKit          3D

 21 22  0  0  0  0  0  0  0  0999 V2000
    0.8880   13.5640   -1.5380 O   0  0  0  0  0  0  0  0  0  0  0  0
    0.0060   14.4180   -2.0960 C   0  0  0  0  0  0  0  0  0  0  0  0
    0.3870   15.5090   -2.4760 O   0  0  0  0  0  0  0  0  0  0  0  0
   -1.3940   13.8380   -2.1580 C   0  0  2  0  0  0  0  0  0  0  0  0
   -1.7290   12.9220   -3.3290 C   0  0  0  0  0  0  0  0  0  0  0  0
   -2.5520   14.4180   -1.3310 C   0  0  0  0  0  0  0  0  0  0  0  0
   -1.0420   12.9820   -4.5550 C   0  0  0  0  0  0  0  0  0  0  0  0
   -2.7470   11.9750   -3.1670 C   0  0  0  0  0  0  0  0  0  0  0  0
   -3.8930   14.5970   -1.7910 C   0  0  0  0  0  0  0  0  0  0  0  0
   -2.2790   14.7690   -0.0040 C   0  0  0  0  0  0  0  0  0  0  0  0
   -4.2390   14.2850   -3.0780 O   0  0  0  0  0  0  0  0  0  0  0  0
   -1.3760   12.1020   -5.5910 C   0  0  0  0  0  0  0  0  0  0  0  0
   -3.0780   11.1020   -4.1950 C   0  0  0  0  0  0  0  0  0  0  0  0
   -4.9080   15.0800   -0.9300 C   0  0  0  0  0  0  0  0  0  0  0  0
   -3.2720   15.2610    0.8310 C   0  0  0  0  0  0  0  0  0  0  0  0
   -6.3540   15.2400   -1.3110 C   0  0  0  0  0  0  0  0  0  0  0  0
   -2.3930   11.1640   -5.4060 C   0  0  0  0  0  0  0  0  0  0  0  0
   -4.5670   15.4100    0.3750 C   0  0  0  0  0  0  0  0  0  0  0  0
   -7.3350   15.1980   -0.3340 N   0  0  0  0  0  0  0  0  0  0  0  0
   -6.6760   15.3610   -2.4760 O   0  0  0  0  0  0  0  0  0  0  0  0
   -7.1850   14.3000    0.7560 O   0  0  0  0  0  0  0  0  0  0  0  0
  1  2  1  0
  2  3  2  0
  4  2  1  6
  4  5  1  0
  4  6  1  0
  5  7  2  0
  5  8  1  0
  6  9  2  0
  6 10  1  0
  9 11  1  0
  7 12  1  0
  8 13  2  0
  9 14  1  0
 10 15  2  0
 14 16  1  0
 12 17  2  0
 13 17  1  0
 14 18  2  0
 15 18  1  0
 16 19  1  0
 16 20  2  0
 19 21  1  0
M  END
