mac-x0546-diamond-x0900_1_A
     RDKit          3D

 23 25  0  0  0  0  0  0  0  0999 V2000
   -4.2130   15.3990   -5.8990 C   0  0  0  0  0  0  0  0  0  0  0  0
   -3.4970   16.5140   -5.3510 O   0  0  0  0  0  0  0  0  0  0  0  0
   -2.1700   16.2850   -5.3770 C   0  0  0  0  0  0  0  0  0  0  0  0
   -1.7350   15.0650   -5.1090 C   0  0  0  0  0  0  0  0  0  0  0  0
   -1.2690   17.3860   -5.7210 C   0  0  0  0  0  0  0  0  0  0  0  0
   -0.2990   14.7980   -5.1980 C   0  0  1  0  0  0  0  0  0  0  0  0
    0.0740   17.3090   -5.5350 C   0  0  0  0  0  0  0  0  0  0  0  0
    0.5260   16.0310   -4.9480 C   0  0  0  0  0  0  0  0  0  0  0  0
    0.3770   13.8920   -4.2850 C   0  0  0  0  0  0  0  0  0  0  0  0
   -0.2120   12.5260   -4.0250 C   0  0  2  0  0  0  0  0  0  0  0  0
    1.5810   15.8320   -4.2310 N   0  0  0  0  0  0  0  0  0  0  0  0
    1.4740   14.5200   -3.8180 C   0  0  0  0  0  0  0  0  0  0  0  0
    0.6090   11.7580   -3.0120 C   0  0  0  0  0  0  0  0  0  0  0  0
   -0.8090   11.7560   -5.2510 C   0  0  0  0  0  0  0  0  0  0  0  0
    1.4900   12.2570   -2.3380 O   0  0  0  0  0  0  0  0  0  0  0  0
    0.2510   10.4620   -2.8890 O   0  0  0  0  0  0  0  0  0  0  0  0
    0.0550   11.0000   -6.2960 C   0  0  0  0  0  0  0  0  0  0  0  0
   -0.2760    9.4800   -6.5250 C   0  0  2  0  0  0  0  0  0  0  0  0
    0.0630    9.0940   -7.8690 N   0  0  0  0  0  0  0  0  0  0  0  0
   -1.7590    9.1130   -6.5180 C   0  0  0  0  0  0  0  0  0  0  0  0
   -0.9460    9.4730   -8.7200 C   0  0  0  0  0  0  0  0  0  0  0  0
   -2.2330    9.3980   -7.9440 C   0  0  0  0  0  0  0  0  0  0  0  0
   -0.8100    9.8060   -9.8830 O   0  0  0  0  0  0  0  0  0  0  0  0
  1  2  1  0
  2  3  1  0
  3  4  2  0
  3  5  1  0
  6  4  1  1
  5  7  2  0
  6  8  1  0
  7  8  1  0
  6  9  1  0
  9 10  1  0
  8 11  2  0
  9 12  2  0
 11 12  1  0
 10 13  1  0
 10 14  1  6
 13 15  2  0
 13 16  1  0
 14 17  1  0
 18 17  1  6
 18 19  1  0
 18 20  1  0
 19 21  1  0
 20 22  1  0
 21 22  1  0
 21 23  2  0
M  END
