mac-x0354-diamond-x0592_0_A
     RDKit          3D

 29 31  0  0  0  0  0  0  0  0999 V2000
    0.6370   11.0440   -8.3080 C   0  0  0  0  0  0  0  0  0  0  0  0
    0.9200   11.5280   -6.9690 N   0  0  0  0  0  0  0  0  0  0  0  0
    1.8970   12.4080   -6.7570 N   0  0  0  0  0  0  0  0  0  0  0  0
    0.2710   11.1740   -5.8290 C   0  0  0  0  0  0  0  0  0  0  0  0
    1.8840   12.6320   -5.4660 C   0  0  0  0  0  0  0  0  0  0  0  0
    0.8950   11.8960   -4.8020 C   0  0  0  0  0  0  0  0  0  0  0  0
   -0.8150   10.2170   -5.8790 C   0  0  0  0  0  0  0  0  0  0  0  0
    0.6560   11.9360   -3.3850 C   0  0  0  0  0  0  0  0  0  0  0  0
   -0.6080    8.9610   -6.4690 C   0  0  0  0  0  0  0  0  0  0  0  0
   -2.0620   10.5350   -5.3480 C   0  0  0  0  0  0  0  0  0  0  0  0
    0.9450   13.0620   -2.8520 N   0  0  0  0  0  0  0  0  0  0  0  0
    0.1680   10.8410   -2.7380 O   0  0  0  0  0  0  0  0  0  0  0  0
   -1.6430    8.0360   -6.5230 C   0  0  0  0  0  0  0  0  0  0  0  0
   -3.0980    9.6060   -5.4050 C   0  0  0  0  0  0  0  0  0  0  0  0
    0.7800   13.3510   -1.4460 C   0  0  0  0  0  0  0  0  0  0  0  0
   -2.8880    8.3570   -5.9910 C   0  0  0  0  0  0  0  0  0  0  0  0
   -0.0330   14.6300   -1.3200 C   0  0  0  0  0  0  0  0  0  0  0  0
   -0.9870   14.5740   -0.1340 C   0  0  0  0  0  0  0  0  0  0  0  0
   -2.3560   14.6220   -0.6420 N   0  0  0  0  0  0  0  0  0  0  0  0
   -3.3150   14.7450    0.1920 C   0  0  0  0  0  0  0  0  0  0  0  0
   -3.0240   14.8280    1.5220 N   0  0  0  0  0  0  0  0  0  0  0  0
   -4.7290   14.8090   -0.0750 C   0  0  0  0  0  0  0  0  0  0  0  0
   -5.4540   15.1480   -1.2470 C   0  0  0  0  0  0  0  0  0  0  0  0
   -5.7130   14.5290    0.8390 C   0  0  0  0  0  0  0  0  0  0  0  0
   -6.7830   15.0830   -1.0720 N   0  0  0  0  0  0  0  0  0  0  0  0
   -6.9020   14.7020    0.2150 N   0  0  0  0  0  0  0  0  0  0  0  0
   -8.1860   14.5080    0.8490 C   0  0  0  0  0  0  0  0  0  0  0  0
   -8.0380   14.0810    2.3090 C   0  0  0  0  0  0  0  0  0  0  0  0
   -7.2510   15.0360    3.0260 O   0  0  0  0  0  0  0  0  0  0  0  0
  1  2  1  0
  2  3  1  0
  2  4  1  0
  3  5  2  0
  4  6  2  0
  5  6  1  0
  4  7  1  0
  6  8  1  0
  7  9  2  0
  7 10  1  0
  8 11  2  3
  8 12  1  0
  9 13  1  0
 10 14  2  0
 11 15  1  0
 13 16  2  0
 14 16  1  0
 15 17  1  0
 17 18  1  0
 18 19  1  0
 19 20  2  3
 20 21  1  0
 20 22  1  0
 22 23  1  0
 22 24  2  0
 23 25  2  0
 24 26  1  0
 25 26  1  0
 26 27  1  0
 27 28  1  0
 28 29  1  0
M  END
