mac-x0319-mac-x0328
     RDKit          3D

 21 22  0  0  0  0  0  0  0  0999 V2000
    0.5530   10.5220   -2.5340 O   0  0  0  0  0  0  0  0  0  0  0  0
    0.8610   11.8480   -2.4630 C   0  0  0  0  0  0  0  0  0  0  0  0
    0.6610   12.4290   -1.4100 O   0  0  0  0  0  0  0  0  0  0  0  0
    1.4210   12.4300   -3.7600 C   0  0  0  0  0  0  0  0  0  0  0  0
    0.7900   13.7540   -4.1030 C   0  0  0  0  0  0  0  0  0  0  0  0
    1.4800   14.8870   -4.5570 C   0  0  0  0  0  0  0  0  0  0  0  0
   -0.5690   13.8560   -3.9430 C   0  0  0  0  0  0  0  0  0  0  0  0
    0.7720   16.0670   -4.8420 C   0  0  0  0  0  0  0  0  0  0  0  0
   -1.2310   15.0330   -4.2180 C   0  0  0  0  0  0  0  0  0  0  0  0
    1.3960   17.1720   -5.2880 O   0  0  0  0  0  0  0  0  0  0  0  0
   -0.5780   16.1450   -4.6740 C   0  0  0  0  0  0  0  0  0  0  0  0
   -2.6500   15.0300   -3.9590 C   0  0  0  0  0  0  0  0  0  0  0  0
   -2.6490   14.8890   -2.4670 C   0  0  0  0  0  0  0  0  0  0  0  0
   -1.6070   14.7160   -1.8180 O   0  0  0  0  0  0  0  0  0  0  0  0
   -3.9230   14.9670   -1.8080 C   0  0  0  0  0  0  0  0  0  0  0  0
   -3.9870   14.9200   -0.4190 C   0  0  0  0  0  0  0  0  0  0  0  0
   -5.0570   15.0840   -2.5810 C   0  0  0  0  0  0  0  0  0  0  0  0
   -5.2310   14.9880    0.1900 C   0  0  0  0  0  0  0  0  0  0  0  0
   -6.2920   15.1570   -1.9840 C   0  0  0  0  0  0  0  0  0  0  0  0
   -6.3710   15.1050   -0.6030 C   0  0  0  0  0  0  0  0  0  0  0  0
   -7.5800   15.1660    0.0070 O   0  0  0  0  0  0  0  0  0  0  0  0
  1  2  1  0
  2  3  2  0
  2  4  1  0
  4  5  1  0
  5  6  2  0
  5  7  1  0
  6  8  1  0
  7  9  2  0
  8 10  1  0
  8 11  2  0
  9 11  1  0
  9 12  1  0
 12 13  1  0
 13 14  2  0
 13 15  1  0
 15 16  2  0
 15 17  1  0
 16 18  1  0
 17 19  2  0
 18 20  2  0
 19 20  1  0
 20 21  1  0
M  END
