mac-x0139-mac-x0271
     RDKit          3D

 22 24  0  0  0  0  0  0  0  0999 V2000
   -2.5540   15.3340   -2.9950 C   0  0  0  0  0  0  0  0  0  0  0  0
   -1.3650   15.7440   -2.2390 N   0  0  0  0  0  0  0  0  0  0  0  0
   -0.0840   15.2070   -2.8390 C   0  0  0  0  0  0  0  0  0  0  0  0
   -1.4870   15.3460   -0.8790 C   0  0  0  0  0  0  0  0  0  0  0  0
   -0.2240   13.8030   -3.4810 C   0  0  0  0  0  0  0  0  0  0  0  0
   -2.7030   15.1480   -0.1840 C   0  0  0  0  0  0  0  0  0  0  0  0
   -0.3260   15.1400   -0.2380 N   0  0  0  0  0  0  0  0  0  0  0  0
    0.7070   12.7690   -2.8750 C   0  0  0  0  0  0  0  0  0  0  0  0
   -2.5740   14.6860    1.1080 C   0  0  0  0  0  0  0  0  0  0  0  0
   -0.3650   14.7410    1.0350 C   0  0  0  0  0  0  0  0  0  0  0  0
   -4.1870   15.3030   -0.4890 C   0  0  0  0  0  0  0  0  0  0  0  0
    1.6760   12.9540   -2.1670 O   0  0  0  0  0  0  0  0  0  0  0  0
    0.3570   11.5010   -3.1940 O   0  0  0  0  0  0  0  0  0  0  0  0
   -1.4460   14.4890    1.7460 N   0  0  0  0  0  0  0  0  0  0  0  0
   -3.8010   14.3950    1.7180 N   0  0  0  0  0  0  0  0  0  0  0  0
   -4.8810   14.5760    0.7400 C   0  0  1  0  0  0  0  0  0  0  0  0
   -5.8530   15.0790    1.7820 C   0  0  0  0  0  0  0  0  0  0  0  0
   -5.6840   13.3860    0.1610 C   0  0  0  0  0  0  0  0  0  0  0  0
   -7.2050   14.9510    1.7150 C   0  0  0  0  0  0  0  0  0  0  0  0
   -7.0250   13.7770   -0.3140 O   0  0  0  0  0  0  0  0  0  0  0  0
   -7.8740   14.3550    0.5710 C   0  0  0  0  0  0  0  0  0  0  0  0
   -9.1000   14.4170    0.4470 O   0  0  0  0  0  0  0  0  0  0  0  0
  1  2  1  0
  2  3  1  0
  2  4  1  0
  3  5  1  0
  4  6  2  0
  4  7  1  0
  5  8  1  0
  6  9  1  0
  7 10  2  0
  6 11  1  0
  8 12  2  0
  8 13  1  0
  9 14  2  0
 10 14  1  0
  9 15  1  0
 16 11  1  6
 15 16  1  0
 16 17  1  0
 16 18  1  0
 17 19  2  0
 18 20  1  0
 19 21  1  0
 20 21  1  0
 21 22  2  0
M  END
