mac-x0124-mac-x0472
     RDKit          3D

 21 23  0  0  0  0  0  0  0  0999 V2000
   -1.1510   15.0030   -2.7180 C   0  0  0  0  0  0  0  0  0  0  0  0
   -2.5340   14.7640   -2.2790 N   0  0  0  0  0  0  0  0  0  0  0  0
   -3.5440   15.6670   -2.2710 C   0  0  0  0  0  0  0  0  0  0  0  0
   -2.7660   13.8140   -1.1850 C   0  0  2  0  0  0  0  0  0  0  0  0
   -4.3000   15.5980   -1.1560 C   0  0  0  0  0  0  0  0  0  0  0  0
   -3.8020   14.4730   -0.2620 C   0  0  2  0  0  0  0  0  0  0  0  0
   -1.6510   13.2060   -0.5390 N   0  0  0  0  0  0  0  0  0  0  0  0
   -0.9140   12.5610   -1.5810 N   0  0  0  0  0  0  0  0  0  0  0  0
   -3.1870   14.7890    1.1100 C   0  0  2  0  0  0  0  0  0  0  0  0
   -0.9040   14.1740    0.2950 C   0  0  0  0  0  0  0  0  0  0  0  0
   -3.9070   15.7600    1.8970 N   0  0  0  0  0  0  0  0  0  0  0  0
   -1.8990   12.3730   -3.0250 S   0  0  0  0  0  0  0  0  0  0  0  0
   -1.7720   15.1080    1.0600 N   0  0  0  0  0  0  0  0  0  0  0  0
   -2.4400   13.6480   -3.4550 O   0  0  0  0  0  0  0  0  0  0  0  0
   -1.1650   11.5810   -3.9810 O   0  0  0  0  0  0  0  0  0  0  0  0
   -3.3460   11.4210   -2.5800 C   0  0  0  0  0  0  0  0  0  0  0  0
   -3.3620   10.0710   -2.9300 C   0  0  0  0  0  0  0  0  0  0  0  0
   -4.4450   11.9940   -1.9180 C   0  0  0  0  0  0  0  0  0  0  0  0
   -4.4720    9.2910   -2.6230 C   0  0  0  0  0  0  0  0  0  0  0  0
   -5.5530   11.2050   -1.6120 C   0  0  0  0  0  0  0  0  0  0  0  0
   -5.5660    9.8540   -1.9670 C   0  0  0  0  0  0  0  0  0  0  0  0
  1  2  1  0
  2  3  1  0
  4  2  1  6
  3  5  2  0
  4  6  1  0
  6  5  1  6
  4  7  1  0
  7  8  1  0
  6  9  1  0
  7 10  1  0
  9 11  1  6
 12  8  1  0
  9 13  1  0
 10 13  1  0
 12 14  2  0
 12 15  2  0
 12 16  1  0
 16 17  2  0
 16 18  1  0
 17 19  1  0
 18 20  2  0
 19 21  2  0
 20 21  1  0
M  END
