mac-x0190-mac-x0436
     RDKit          3D

 29 32  0  0  0  0  0  0  0  0999 V2000
   -9.1180   15.1950    2.5960 O   0  0  0  0  0  0  0  0  0  0  0  0
   -9.0410   14.4440    1.3880 C   0  0  0  0  0  0  0  0  0  0  0  0
   -7.6610   14.6030    0.8580 C   0  0  0  0  0  0  0  0  0  0  0  0
   -7.3950   14.5390   -0.4800 N   0  0  0  0  0  0  0  0  0  0  0  0
   -6.5530   14.8130    1.5580 N   0  0  0  0  0  0  0  0  0  0  0  0
   -6.0480   14.7100   -0.6410 C   0  0  0  0  0  0  0  0  0  0  0  0
   -5.5340   14.8830    0.6340 C   0  0  0  0  0  0  0  0  0  0  0  0
   -5.2750   14.7150   -1.7850 C   0  0  0  0  0  0  0  0  0  0  0  0
   -4.1470   15.0880    0.7940 C   0  0  0  0  0  0  0  0  0  0  0  0
   -3.8990   14.8950   -1.6330 C   0  0  0  0  0  0  0  0  0  0  0  0
   -3.3350   15.0890   -0.3550 C   0  0  0  0  0  0  0  0  0  0  0  0
   -3.0840   14.8450   -2.9040 C   0  0  0  0  0  0  0  0  0  0  0  0
   -3.1520   13.4090   -3.5250 C   0  0  0  0  0  0  0  0  0  0  0  0
   -1.9260   13.0860   -4.2720 N   0  0  0  0  0  0  0  0  0  0  0  0
   -1.6500   11.9910   -4.9360 C   0  0  0  0  0  0  0  0  0  0  0  0
   -0.2620   12.0840   -5.5980 C   0  0  0  0  0  0  0  0  0  0  0  0
   -2.3550   10.8100   -5.1580 N   0  0  0  0  0  0  0  0  0  0  0  0
    0.6090   13.2730   -5.2490 C   0  0  0  0  0  0  0  0  0  0  0  0
   -1.8830    9.8920   -6.1420 C   0  0  0  0  0  0  0  0  0  0  0  0
    0.1810   11.2060   -6.4410 N   0  0  0  0  0  0  0  0  0  0  0  0
    1.7400   12.9270   -4.2860 C   0  0  0  0  0  0  0  0  0  0  0  0
   -0.6350   10.1090   -6.7630 C   0  0  0  0  0  0  0  0  0  0  0  0
   -2.6420    8.7700   -6.5140 C   0  0  0  0  0  0  0  0  0  0  0  0
    1.2810   12.4010   -2.9370 C   0  0  0  0  0  0  0  0  0  0  0  0
   -0.1720    9.2140   -7.7290 C   0  0  0  0  0  0  0  0  0  0  0  0
   -2.1650    7.8820   -7.4860 C   0  0  0  0  0  0  0  0  0  0  0  0
    0.7260   11.1650   -2.9650 O   0  0  0  0  0  0  0  0  0  0  0  0
    1.3950   13.0220   -1.8920 O   0  0  0  0  0  0  0  0  0  0  0  0
   -0.9340    8.1040   -8.0940 C   0  0  0  0  0  0  0  0  0  0  0  0
  1  2  1  0
  2  3  1  0
  3  4  1  0
  3  5  2  0
  4  6  1  0
  5  7  1  0
  6  7  2  0
  6  8  1  0
  7  9  1  0
  8 10  2  0
  9 11  2  0
 10 11  1  0
 10 12  1  0
 12 13  1  0
 13 14  1  0
 14 15  2  3
 15 16  1  0
 15 17  1  0
 16 18  1  0
 17 19  1  0
 16 20  2  0
 18 21  1  0
 19 22  2  0
 20 22  1  0
 19 23  1  0
 21 24  1  0
 22 25  1  0
 23 26  2  0
 24 27  1  0
 24 28  2  0
 25 29  2  0
 26 29  1  0
M  END
