mac-x0348-mac-x0188
     RDKit          3D

 27 30  0  0  0  0  0  0  0  0999 V2000
    1.1710   18.6890   -5.8130 C   0  0  0  0  0  0  0  0  0  0  0  0
    0.5020   17.5780   -5.2370 N   0  0  0  0  0  0  0  0  0  0  0  0
    1.0420   16.6840   -4.3730 C   0  0  0  0  0  0  0  0  0  0  0  0
   -0.7760   17.2750   -5.4930 C   0  0  0  0  0  0  0  0  0  0  0  0
    0.1200   15.7680   -4.0730 C   0  0  0  0  0  0  0  0  0  0  0  0
   -1.0660   16.1300   -4.7880 C   0  0  0  0  0  0  0  0  0  0  0  0
   -1.6930   17.9150   -6.2830 C   0  0  0  0  0  0  0  0  0  0  0  0
    0.2250   14.5810   -3.1870 C   0  0  1  0  0  0  0  0  0  0  0  0
   -2.3590   15.5810   -4.8950 C   0  0  0  0  0  0  0  0  0  0  0  0
   -2.9290   17.3640   -6.3550 C   0  0  0  0  0  0  0  0  0  0  0  0
   -0.1810   14.9190   -1.8420 O   0  0  0  0  0  0  0  0  0  0  0  0
   -3.2900   16.2080   -5.6900 C   0  0  0  0  0  0  0  0  0  0  0  0
   -0.8650   13.7820   -3.8660 C   0  0  1  0  0  0  0  0  0  0  0  0
    1.5040   13.7470   -3.0570 C   0  0  0  0  0  0  0  0  0  0  0  0
   -0.6760   12.3330   -4.1280 C   0  0  0  0  0  0  0  0  0  0  0  0
   -2.3630   14.0000   -3.7340 C   0  0  1  0  0  0  0  0  0  0  0  0
    1.0600   12.5480   -2.2630 C   0  0  0  0  0  0  0  0  0  0  0  0
   -1.8040   12.0950   -4.9560 O   0  0  0  0  0  0  0  0  0  0  0  0
   -2.9230   12.7350   -4.2500 N   0  0  0  0  0  0  0  0  0  0  0  0
   -3.0540   14.5220   -2.4820 C   0  0  0  0  0  0  0  0  0  0  0  0
    0.6620   12.5890   -1.1170 O   0  0  0  0  0  0  0  0  0  0  0  0
    1.0790   11.3820   -2.9310 O   0  0  0  0  0  0  0  0  0  0  0  0
   -4.2990   15.1480   -2.5970 C   0  0  0  0  0  0  0  0  0  0  0  0
   -2.4930   14.4090   -1.1970 C   0  0  0  0  0  0  0  0  0  0  0  0
   -4.9680   15.6450   -1.4850 C   0  0  0  0  0  0  0  0  0  0  0  0
   -3.1660   14.9110   -0.0760 C   0  0  0  0  0  0  0  0  0  0  0  0
   -4.4020   15.5300   -0.2240 C   0  0  0  0  0  0  0  0  0  0  0  0
  1  2  1  0
  2  3  1  0
  2  4  1  0
  3  5  2  0
  4  6  2  0
  5  6  1  0
  4  7  1  0
  5  8  1  0
  6  9  1  0
  7 10  2  0
  8 11  1  1
  9 12  2  0
 10 12  1  0
  8 13  1  0
  8 14  1  0
 13 15  1  1
 13 16  1  0
 14 17  1  0
 15 18  1  0
 16 19  1  0
 18 19  1  0
 16 20  1  1
 17 21  2  0
 17 22  1  0
 20 23  2  0
 20 24  1  0
 23 25  1  0
 24 26  2  0
 25 27  2  0
 26 27  1  0
M  END
