mac-x0380-mac-x0137
     RDKit          3D

 26 29  0  0  0  0  0  0  0  0999 V2000
   -1.4460   15.9640   -2.9220 O   0  0  0  0  0  0  0  0  0  0  0  0
   -2.7430   15.6300   -3.0160 C   0  0  0  0  0  0  0  0  0  0  0  0
   -3.2670   15.5200   -4.1160 O   0  0  0  0  0  0  0  0  0  0  0  0
   -3.4370   15.4440   -1.6820 C   0  0  1  0  0  0  0  0  0  0  0  0
   -4.9180   15.0760   -1.8580 C   0  0  0  0  0  0  0  0  0  0  0  0
   -2.7290   14.7230   -0.4980 C   0  0  2  0  0  0  0  0  0  0  0  0
   -5.7450   15.4540   -0.6330 C   0  0  2  0  0  0  0  0  0  0  0  0
   -3.8330   14.1280    0.4370 C   0  0  0  0  0  0  0  0  0  0  0  0
   -2.0620   15.7580    0.4250 C   0  0  0  0  0  0  0  0  0  0  0  0
   -1.4060   13.8640   -0.8370 C   0  0  1  0  0  0  0  0  0  0  0  0
   -4.9980   15.1250    0.6750 C   0  0  2  0  0  0  0  0  0  0  0  0
   -7.4890   14.8530   -0.8020 S   0  0  0  0  0  0  0  0  0  0  0  0
   -1.1380   13.3020   -2.1760 N   0  0  0  0  0  0  0  0  0  0  0  0
   -0.1650   14.4720   -0.3610 N   0  0  0  0  0  0  0  0  0  0  0  0
   -1.3600   15.1040    1.5000 N   0  0  0  0  0  0  0  0  0  0  0  0
   -5.8150   14.8240    1.8520 N   0  0  0  0  0  0  0  0  0  0  0  0
   -7.6730   13.8070    0.6710 C   0  0  0  0  0  0  0  0  0  0  0  0
   -1.6210   14.0300   -3.3460 C   0  0  0  0  0  0  0  0  0  0  0  0
    0.2300   12.8600   -2.4620 C   0  0  0  0  0  0  0  0  0  0  0  0
   -0.0930   14.6490    1.0610 C   0  0  0  0  0  0  0  0  0  0  0  0
   -7.1470   14.5150    1.8820 C   0  0  0  0  0  0  0  0  0  0  0  0
   -1.7780   13.0880   -4.5330 C   0  0  2  0  0  0  0  0  0  0  0  0
    0.3100   11.8880   -3.6470 C   0  0  0  0  0  0  0  0  0  0  0  0
   -7.8450   14.8100    2.8550 O   0  0  0  0  0  0  0  0  0  0  0  0
   -2.7860   12.2190   -4.2450 F   0  0  0  0  0  0  0  0  0  0  0  0
   -0.5190   12.2870   -4.8740 C   0  0  0  0  0  0  0  0  0  0  0  0
  1  2  1  0
  2  3  2  0
  4  2  1  6
  4  5  1  0
  4  6  1  0
  7  5  1  6
  6  8  1  1
  6  9  1  0
  6 10  1  0
  7 11  1  0
 11  8  1  6
  7 12  1  0
 10 13  1  6
 10 14  1  0
  9 15  1  0
 11 16  1  0
 12 17  1  0
 13 18  1  0
 13 19  1  0
 14 20  1  0
 15 20  1  0
 16 21  1  0
 17 21  1  0
 18 22  1  0
 19 23  1  0
 21 24  2  0
 22 25  1  1
 22 26  1  0
 23 26  1  0
M  END
