mac-x0178-mac-x0212
     RDKit          3D

 26 27  0  0  0  0  0  0  0  0999 V2000
   -0.1770   18.4460   -6.6110 N   0  0  0  0  0  0  0  0  0  0  0  0
   -1.5200   17.8670   -5.8150 S   0  0  0  0  0  0  0  0  0  0  0  0
   -2.4520   17.3330   -6.7810 O   0  0  0  0  0  0  0  0  0  0  0  0
   -1.9200   18.8510   -4.8340 O   0  0  0  0  0  0  0  0  0  0  0  0
   -0.8820   16.5300   -4.8810 C   0  0  0  0  0  0  0  0  0  0  0  0
    0.4010   16.5170   -4.2780 C   0  0  0  0  0  0  0  0  0  0  0  0
   -1.7500   15.4920   -4.7670 C   0  0  0  0  0  0  0  0  0  0  0  0
    0.7850   15.4000   -3.5090 C   0  0  0  0  0  0  0  0  0  0  0  0
   -1.3780   14.4280   -4.0300 C   0  0  0  0  0  0  0  0  0  0  0  0
   -0.1380   14.3580   -3.3840 C   0  0  0  0  0  0  0  0  0  0  0  0
   -0.1160   13.0800   -2.6310 C   0  0  0  0  0  0  0  0  0  0  0  0
    0.3390   13.1080   -1.2580 O   0  0  0  0  0  0  0  0  0  0  0  0
    0.4220   11.9450   -3.2990 O   0  0  0  0  0  0  0  0  0  0  0  0
   -1.7010   13.2000   -2.8020 C   0  0  1  0  0  0  0  0  0  0  0  0
   -2.2670   12.0310   -3.3890 O   0  0  0  0  0  0  0  0  0  0  0  0
   -2.6310   13.8040   -1.7480 C   0  0  0  0  0  0  0  0  0  0  0  0
   -2.3830   13.6560   -0.3850 C   0  0  0  0  0  0  0  0  0  0  0  0
   -3.7870   14.5180   -2.1530 C   0  0  0  0  0  0  0  0  0  0  0  0
   -3.2780   14.1730    0.5550 C   0  0  0  0  0  0  0  0  0  0  0  0
   -4.6780   15.0350   -1.2150 C   0  0  0  0  0  0  0  0  0  0  0  0
   -4.4230   14.8430    0.1360 C   0  0  0  0  0  0  0  0  0  0  0  0
   -5.3300   15.3040    1.1120 N   0  0  0  0  0  0  0  0  0  0  0  0
   -6.8300   14.5040    1.0800 S   0  0  0  0  0  0  0  0  0  0  0  0
   -6.3420   12.8270    1.4440 C   0  0  0  0  0  0  0  0  0  0  0  0
   -7.5990   14.9950    2.2060 O   0  0  0  0  0  0  0  0  0  0  0  0
   -7.3960   14.5510   -0.2550 O   0  0  0  0  0  0  0  0  0  0  0  0
  2  1  1  0
  2  3  2  0
  2  4  2  0
  2  5  1  0
  5  6  2  0
  5  7  1  0
  6  8  1  0
  7  9  2  0
  8 10  2  0
  9 10  1  0
 10 11  1  0
 11 12  1  0
 11 13  1  0
 11 14  1  0
 14 15  1  1
 14 16  1  0
 16 17  2  0
 16 18  1  0
 17 19  1  0
 18 20  2  0
 19 21  2  0
 20 21  1  0
 21 22  1  0
 23 22  1  0
 23 24  1  0
 23 25  2  0
 23 26  2  0
M  END
