mac-x0394-diamond-x0895_0_A
     RDKit          3D

 21 22  0  0  0  0  0  0  0  0999 V2000
    0.9870   18.2810   -5.0100 Cl  0  0  0  0  0  0  0  0  0  0  0  0
    0.2450   16.7540   -4.9450 C   0  0  0  0  0  0  0  0  0  0  0  0
   -1.1210   16.6790   -5.1630 C   0  0  0  0  0  0  0  0  0  0  0  0
    1.0050   15.6150   -4.6810 C   0  0  0  0  0  0  0  0  0  0  0  0
    0.3840   14.3650   -4.6360 C   0  0  0  0  0  0  0  0  0  0  0  0
   -1.7590   15.4420   -5.1230 C   0  0  0  0  0  0  0  0  0  0  0  0
   -3.2450   15.3490   -5.3690 C   0  0  0  0  0  0  0  0  0  0  0  0
    1.1790   13.1070   -4.3510 C   0  0  0  0  0  0  0  0  0  0  0  0
   -1.0000   14.2890   -4.8590 C   0  0  0  0  0  0  0  0  0  0  0  0
    0.8970   12.5150   -2.9890 C   0  0  0  0  0  0  0  0  0  0  0  0
   -3.9800   14.5900   -4.2610 C   0  0  0  0  0  0  0  0  0  0  0  0
    0.4280   11.2520   -3.0540 O   0  0  0  0  0  0  0  0  0  0  0  0
    1.0440   13.0370   -1.9000 O   0  0  0  0  0  0  0  0  0  0  0  0
   -3.2370   14.6730   -2.9330 C   0  0  0  0  0  0  0  0  0  0  0  0
   -4.1300   15.1440   -1.8800 N   0  0  0  0  0  0  0  0  0  0  0  0
   -3.7200   15.1860   -0.6810 C   0  0  0  0  0  0  0  0  0  0  0  0
   -4.4550   15.6220    0.3640 N   0  0  0  0  0  0  0  0  0  0  0  0
   -2.4990   14.8110   -0.2290 N   0  0  0  0  0  0  0  0  0  0  0  0
   -3.9550   14.9660    1.5360 C   0  0  0  0  0  0  0  0  0  0  0  0
   -2.5010   14.7600    1.1370 C   0  0  0  0  0  0  0  0  0  0  0  0
   -1.5320   14.5830    1.8620 O   0  0  0  0  0  0  0  0  0  0  0  0
  1  2  1  0
  2  3  2  0
  2  4  1  0
  4  5  2  0
  3  6  1  0
  6  7  1  0
  5  8  1  0
  5  9  1  0
  6  9  2  0
  8 10  1  0
  7 11  1  0
 10 12  1  0
 10 13  2  0
 11 14  1  0
 14 15  1  0
 15 16  2  3
 16 17  1  0
 16 18  1  0
 17 19  1  0
 18 20  1  0
 19 20  1  0
 20 21  2  0
M  END
