mac-x0436-diamond-x0962_0_A
     RDKit          3D

 25 27  0  0  0  0  0  0  0  0999 V2000
    0.7510   11.1580   -3.0360 O   0  0  0  0  0  0  0  0  0  0  0  0
    1.2790   12.3980   -3.0050 C   0  0  0  0  0  0  0  0  0  0  0  0
    1.4190   12.9750   -1.9420 O   0  0  0  0  0  0  0  0  0  0  0  0
    1.6540   12.9190   -4.3770 C   0  0  0  0  0  0  0  0  0  0  0  0
    0.4660   13.1940   -5.3100 C   0  0  0  0  0  0  0  0  0  0  0  0
   -0.3190   11.9330   -5.6210 C   0  0  0  0  0  0  0  0  0  0  0  0
   -1.5920   11.5730   -4.8020 C   0  0  0  0  0  0  0  0  0  0  0  0
    0.0970   11.1760   -6.5910 N   0  0  0  0  0  0  0  0  0  0  0  0
   -1.8520   12.3180   -3.7960 N   0  0  0  0  0  0  0  0  0  0  0  0
   -2.3130   10.4880   -5.2390 N   0  0  0  0  0  0  0  0  0  0  0  0
   -0.6200   10.0120   -6.9080 C   0  0  0  0  0  0  0  0  0  0  0  0
   -1.0230   13.4520   -3.4170 C   0  0  0  0  0  0  0  0  0  0  0  0
   -1.8130    9.6580   -6.2490 C   0  0  0  0  0  0  0  0  0  0  0  0
   -0.1190    9.1890   -7.9140 C   0  0  0  0  0  0  0  0  0  0  0  0
   -1.7870   14.7470   -3.6450 C   0  0  0  0  0  0  0  0  0  0  0  0
   -0.7930    8.0210   -8.2710 C   0  0  0  0  0  0  0  0  0  0  0  0
   -2.4850    8.4860   -6.6090 C   0  0  0  0  0  0  0  0  0  0  0  0
   -2.6230   14.9740   -2.4800 C   0  0  0  0  0  0  0  0  0  0  0  0
   -1.9750    7.6700   -7.6180 C   0  0  0  0  0  0  0  0  0  0  0  0
   -3.2300   15.0740   -1.4720 C   0  0  0  0  0  0  0  0  0  0  0  0
   -4.0210   15.1230   -0.3280 C   0  0  0  0  0  0  0  0  0  0  0  0
   -3.5790   15.4720    0.9120 N   0  0  0  0  0  0  0  0  0  0  0  0
   -5.3500   14.8470   -0.1880 C   0  0  0  0  0  0  0  0  0  0  0  0
   -4.6480   15.4040    1.7430 C   0  0  0  0  0  0  0  0  0  0  0  0
   -5.7370   15.0210    1.1090 N   0  0  0  0  0  0  0  0  0  0  0  0
  1  2  1  0
  2  3  2  0
  2  4  1  0
  4  5  1  0
  5  6  1  0
  6  7  1  0
  6  8  2  0
  7  9  2  3
  7 10  1  0
  8 11  1  0
  9 12  1  0
 10 13  1  0
 11 13  2  0
 11 14  1  0
 12 15  1  0
 14 16  2  0
 13 17  1  0
 15 18  1  0
 16 19  1  0
 17 19  2  0
 18 20  3  0
 20 21  1  0
 21 22  1  0
 21 23  2  0
 22 24  1  0
 23 25  1  0
 24 25  2  0
M  END
