mac-x0584-mac-x0138
     RDKit          3D

 21 24  0  0  0  0  0  0  0  0999 V2000
   -3.9040   15.3310   -3.1250 C   0  0  0  0  0  0  0  0  0  0  0  0
   -3.7760   15.3610   -1.6580 C   0  0  0  0  0  0  0  0  0  0  0  0
   -2.5980   15.0130   -0.9840 C   0  0  0  0  0  0  0  0  0  0  0  0
   -4.6580   15.6980   -0.6930 C   0  0  0  0  0  0  0  0  0  0  0  0
   -2.9540   15.1620    0.4120 C   0  0  0  0  0  0  0  0  0  0  0  0
   -1.3590   14.6370   -1.3150 C   0  0  0  0  0  0  0  0  0  0  0  0
   -4.1720   15.5900    0.5920 N   0  0  0  0  0  0  0  0  0  0  0  0
   -1.0980   14.5530   -2.6830 N   0  0  0  0  0  0  0  0  0  0  0  0
   -0.3940   14.3520   -0.3420 N   0  0  0  0  0  0  0  0  0  0  0  0
   -2.0460   14.8540    1.3040 N   0  0  0  0  0  0  0  0  0  0  0  0
   -2.7350   14.1700    2.2840 N   0  0  0  0  0  0  0  0  0  0  0  0
    0.2190   14.4430   -3.3220 C   0  0  1  0  0  0  0  0  0  0  0  0
   -2.1600   14.6280   -3.6800 C   0  0  0  0  0  0  0  0  0  0  0  0
   -0.7790   14.4620    0.9190 C   0  0  0  0  0  0  0  0  0  0  0  0
    0.0590   14.1900    1.9600 N   0  0  0  0  0  0  0  0  0  0  0  0
    0.7180   12.9980   -3.2610 C   0  0  0  0  0  0  0  0  0  0  0  0
   -0.0090   14.9910   -4.7470 C   0  0  0  0  0  0  0  0  0  0  0  0
   -1.5140   15.1750   -4.9330 C   0  0  0  0  0  0  0  0  0  0  0  0
    1.8060   12.5280   -4.2710 C   0  0  0  0  0  0  0  0  0  0  0  0
   -0.1630   11.8170   -3.7650 C   0  0  0  0  0  0  0  0  0  0  0  0
    1.1300   11.1380   -4.2540 C   0  0  0  0  0  0  0  0  0  0  0  0
  1  2  1  0
  2  3  1  0
  2  4  2  0
  3  5  1  0
  3  6  2  0
  4  7  1  0
  5  7  2  0
  6  8  1  0
  6  9  1  0
  5 10  1  0
 10 11  1  0
  8 12  1  0
  8 13  1  0
  9 14  2  0
 10 14  1  0
 14 15  1  0
 12 16  1  6
 12 17  1  0
 13 18  1  0
 17 18  1  0
 16 19  1  0
 16 20  1  0
 19 21  1  0
 20 21  1  0
M  END
