mac-x0398-diamond-x0722_0_A
     RDKit          3D

 20 22  0  0  0  0  0  0  0  0999 V2000
   -5.5030   14.5090    1.5590 N   0  0  0  0  0  0  0  0  0  0  0  0
   -5.5640   13.2660    0.8360 C   0  0  2  0  0  0  0  0  0  0  0  0
   -4.1200   12.9310    0.7660 C   0  0  0  0  0  0  0  0  0  0  0  0
   -4.1910   14.6930    1.0500 C   0  0  2  0  0  0  0  0  0  0  0  0
   -5.9440   13.1860   -0.6700 C   0  0  1  0  0  0  0  0  0  0  0  0
   -3.0690   14.8950    1.9530 N   0  0  0  0  0  0  0  0  0  0  0  0
   -3.9010   15.7260    0.0500 C   0  0  2  0  0  0  0  0  0  0  0  0
   -6.7370   14.2680   -1.0760 N   0  0  0  0  0  0  0  0  0  0  0  0
   -4.9480   16.0570   -1.0460 C   0  0  0  0  0  0  0  0  0  0  0  0
   -4.6700   12.9880   -1.5330 C   0  0  2  0  0  0  0  0  0  0  0  0
   -3.6320   12.8090   -0.4850 C   0  0  0  0  0  0  0  0  0  0  0  0
   -2.5870   15.0260   -0.3760 C   0  0  2  0  0  0  0  0  0  0  0  0
   -2.0580   14.5270    0.9240 N   0  0  0  0  0  0  0  0  0  0  0  0
   -4.2680   14.0750   -2.5540 C   0  0  0  0  0  0  0  0  0  0  0  0
   -0.6380   14.6580    1.2470 C   0  0  0  0  0  0  0  0  0  0  0  0
   -1.6520   15.8160   -1.2760 C   0  0  0  0  0  0  0  0  0  0  0  0
   -6.3230   15.4260   -1.2070 C   0  0  0  0  0  0  0  0  0  0  0  0
   -5.0270   14.7130   -3.2670 O   0  0  0  0  0  0  0  0  0  0  0  0
   -2.9410   14.3180   -2.6720 O   0  0  0  0  0  0  0  0  0  0  0  0
   -7.3060   16.2840   -1.5720 N   0  0  0  0  0  0  0  0  0  0  0  0
  1  2  1  0
  2  3  1  6
  4  1  1  1
  2  5  1  0
  4  6  1  0
  4  7  1  0
  5  8  1  6
  7  9  1  6
  5 10  1  0
  3 11  2  0
 10 11  1  0
  7 12  1  0
  6 13  1  0
 12 13  1  0
 10 14  1  1
 13 15  1  0
 12 16  1  1
  8 17  2  0
  9 17  1  0
 14 18  2  0
 14 19  1  0
 17 20  1  0
M  END
