mac-x0380-mac-x0417
     RDKit          3D

 29 32  0  0  0  0  0  0  0  0999 V2000
   -1.2700   15.2170   -2.4560 O   0  0  0  0  0  0  0  0  0  0  0  0
   -2.5960   14.9720   -2.8870 C   0  0  0  0  0  0  0  0  0  0  0  0
   -2.9640   15.9800   -3.8120 O   0  0  0  0  0  0  0  0  0  0  0  0
   -2.3960   13.7360   -3.7640 C   0  0  0  0  0  0  0  0  0  0  0  0
   -3.4890   14.9660   -1.6320 C   0  0  0  0  0  0  0  0  0  0  0  0
   -1.0100   13.5840   -4.4530 C   0  0  0  0  0  0  0  0  0  0  0  0
   -4.8890   15.0320   -1.7100 C   0  0  0  0  0  0  0  0  0  0  0  0
   -2.9200   14.8930   -0.3400 C   0  0  0  0  0  0  0  0  0  0  0  0
   -0.3970   12.1860   -4.3430 C   0  0  2  0  0  0  0  0  0  0  0  0
   -5.6950   15.0200   -0.5550 C   0  0  0  0  0  0  0  0  0  0  0  0
   -3.7160   14.8830    0.8160 C   0  0  0  0  0  0  0  0  0  0  0  0
    0.7120   12.0010   -3.3260 C   0  0  0  0  0  0  0  0  0  0  0  0
   -5.1060   14.9450    0.7080 C   0  0  0  0  0  0  0  0  0  0  0  0
   -7.4580   15.0970   -0.7460 S   0  0  0  0  0  0  0  0  0  0  0  0
   -0.1070   11.4820   -5.6250 C   0  0  0  0  0  0  0  0  0  0  0  0
    1.4730   13.0830   -3.0800 O   0  0  0  0  0  0  0  0  0  0  0  0
    0.8870   10.9460   -2.7560 O   0  0  0  0  0  0  0  0  0  0  0  0
   -5.8700   14.9250    1.8950 N   0  0  0  0  0  0  0  0  0  0  0  0
   -7.8860   14.1260    0.7120 C   0  0  0  0  0  0  0  0  0  0  0  0
    0.9540   11.6980   -6.4280 N   0  0  0  0  0  0  0  0  0  0  0  0
   -0.9460   10.4900   -6.1280 C   0  0  0  0  0  0  0  0  0  0  0  0
   -7.2030   14.6180    1.9600 C   0  0  0  0  0  0  0  0  0  0  0  0
    0.7830   10.8020   -7.4910 O   0  0  0  0  0  0  0  0  0  0  0  0
   -0.3590   10.0830   -7.2980 C   0  0  0  0  0  0  0  0  0  0  0  0
   -2.1410    9.9060   -5.6960 C   0  0  0  0  0  0  0  0  0  0  0  0
   -7.8290   14.7520    3.0180 O   0  0  0  0  0  0  0  0  0  0  0  0
   -0.8950    9.0890   -8.1140 C   0  0  0  0  0  0  0  0  0  0  0  0
   -2.7080    8.9100   -6.4850 C   0  0  0  0  0  0  0  0  0  0  0  0
   -2.0960    8.5090   -7.6710 C   0  0  0  0  0  0  0  0  0  0  0  0
  2  1  1  0
  2  3  1  0
  2  4  1  0
  2  5  1  0
  4  6  1  0
  5  7  2  0
  5  8  1  0
  9  6  1  6
  7 10  1  0
  8 11  2  0
  9 12  1  0
 10 13  2  0
 11 13  1  0
 10 14  1  0
  9 15  1  0
 12 16  1  0
 12 17  2  0
 13 18  1  0
 14 19  1  0
 15 20  2  0
 15 21  1  0
 18 22  1  0
 19 22  1  0
 20 23  1  0
 21 24  2  0
 23 24  1  0
 21 25  1  0
 22 26  2  0
 24 27  1  0
 25 28  2  0
 27 29  2  0
 28 29  1  0
M  END
