mac-x0161-mac-x0527
     RDKit          3D

 27 30  0  0  0  0  0  0  0  0999 V2000
   -4.0030   15.6040    1.7790 N   0  0  0  0  0  0  0  0  0  0  0  0
   -3.5410   14.7710    0.6940 C   0  0  2  0  0  0  0  0  0  0  0  0
   -2.0520   14.4600    0.7960 C   0  0  1  0  0  0  0  0  0  0  0  0
   -3.8870   15.4680   -0.5130 N   0  0  0  0  0  0  0  0  0  0  0  0
   -2.7720   15.7920   -1.3780 C   0  0  0  0  0  0  0  0  0  0  0  0
   -1.5010   13.9500   -0.5460 C   0  0  1  0  0  0  0  0  0  0  0  0
   -1.1650   15.5990    1.0570 N   0  0  0  0  0  0  0  0  0  0  0  0
   -1.8890   14.7050   -1.7240 N   0  0  0  0  0  0  0  0  0  0  0  0
   -0.0630   14.2110   -0.4050 N   0  0  0  0  0  0  0  0  0  0  0  0
    0.0780   14.9060    0.8650 C   0  0  0  0  0  0  0  0  0  0  0  0
   -2.2650   13.9220   -2.9100 C   0  0  2  0  0  0  0  0  0  0  0  0
   -3.6230   13.5130   -2.6640 N   0  0  0  0  0  0  0  0  0  0  0  0
   -1.4840   12.7130   -3.2900 C   0  0  0  0  0  0  0  0  0  0  0  0
   -4.7060   14.3300   -2.9340 C   0  0  0  0  0  0  0  0  0  0  0  0
   -1.4160   11.9750   -4.4450 C   0  0  0  0  0  0  0  0  0  0  0  0
   -0.6490   12.1620   -2.3560 O   0  0  0  0  0  0  0  0  0  0  0  0
   -4.8680   14.9070   -3.9990 O   0  0  0  0  0  0  0  0  0  0  0  0
   -0.0260   11.0470   -2.9000 N   0  0  0  0  0  0  0  0  0  0  0  0
   -0.5100   10.9640   -4.1440 C   0  0  0  0  0  0  0  0  0  0  0  0
   -5.6670   14.4270   -1.7980 C   0  0  0  0  0  0  0  0  0  0  0  0
   -0.1500    9.9980   -5.0090 O   0  0  0  0  0  0  0  0  0  0  0  0
   -6.7570   15.2850   -1.8040 C   0  0  0  0  0  0  0  0  0  0  0  0
   -5.4060   13.6130   -0.7460 N   0  0  0  0  0  0  0  0  0  0  0  0
   -1.2030    9.1290   -5.4100 C   0  0  0  0  0  0  0  0  0  0  0  0
   -7.6260   15.3600   -0.7610 N   0  0  0  0  0  0  0  0  0  0  0  0
   -6.2640   13.6880    0.2940 C   0  0  0  0  0  0  0  0  0  0  0  0
   -7.3510   14.5420    0.2870 C   0  0  0  0  0  0  0  0  0  0  0  0
  2  1  1  1
  2  3  1  0
  2  4  1  0
  4  5  1  0
  3  6  1  0
  3  7  1  6
  5  8  1  0
  6  8  1  0
  6  9  1  1
  7 10  1  0
  9 10  1  0
  8 11  1  0
 11 12  1  1
 11 13  1  0
 12 14  1  0
 13 15  2  0
 13 16  1  0
 14 17  2  0
 16 18  1  0
 15 19  1  0
 18 19  2  0
 14 20  1  0
 19 21  1  0
 20 22  2  0
 20 23  1  0
 21 24  1  0
 22 25  1  0
 23 26  2  0
 25 27  2  0
 26 27  1  0
M  END
