mac-x0380-mac-x0437
     RDKit          3D

 31 34  0  0  0  0  0  0  0  0999 V2000
   -1.4200   15.2560   -2.4350 O   0  0  0  0  0  0  0  0  0  0  0  0
   -2.7540   14.9020   -2.6870 C   0  0  0  0  0  0  0  0  0  0  0  0
   -3.2320   15.7650   -3.7010 O   0  0  0  0  0  0  0  0  0  0  0  0
   -2.6800   13.5110   -3.2470 C   0  0  0  0  0  0  0  0  0  0  0  0
   -3.6120   14.9510   -1.4580 C   0  0  0  0  0  0  0  0  0  0  0  0
   -1.2380   13.1700   -3.5270 C   0  0  0  0  0  0  0  0  0  0  0  0
   -5.0040   15.0000   -1.5610 C   0  0  0  0  0  0  0  0  0  0  0  0
   -3.0260   14.9310   -0.1840 C   0  0  0  0  0  0  0  0  0  0  0  0
   -0.5830   13.9830   -4.6470 C   0  0  0  0  0  0  0  0  0  0  0  0
   -5.8000   15.0130   -0.4230 C   0  0  0  0  0  0  0  0  0  0  0  0
   -3.8150   14.9470    0.9600 C   0  0  0  0  0  0  0  0  0  0  0  0
    0.3120   13.0900   -5.4840 C   0  0  1  0  0  0  0  0  0  0  0  0
   -5.2040   14.9820    0.8390 C   0  0  0  0  0  0  0  0  0  0  0  0
   -7.5580   15.0620   -0.6340 S   0  0  0  0  0  0  0  0  0  0  0  0
    1.6000   12.7980   -4.7100 C   0  0  0  0  0  0  0  0  0  0  0  0
   -5.9620   14.9770    2.0180 N   0  0  0  0  0  0  0  0  0  0  0  0
   -7.9550   14.1010    0.8370 C   0  0  0  0  0  0  0  0  0  0  0  0
   -0.4710   11.8840   -5.7750 N   0  0  0  0  0  0  0  0  0  0  0  0
    1.2980   12.1830   -3.3640 C   0  0  0  0  0  0  0  0  0  0  0  0
   -7.2890   14.6400    2.0780 C   0  0  0  0  0  0  0  0  0  0  0  0
   -1.6430   11.5550   -5.1330 C   0  0  0  0  0  0  0  0  0  0  0  0
   -0.2240   10.9040   -6.6870 C   0  0  0  0  0  0  0  0  0  0  0  0
   -7.9210   14.7790    3.1290 O   0  0  0  0  0  0  0  0  0  0  0  0
    1.7970   12.8660   -2.3200 O   0  0  0  0  0  0  0  0  0  0  0  0
    0.6490   11.1650   -3.1680 O   0  0  0  0  0  0  0  0  0  0  0  0
   -2.1560   10.4360   -5.5680 N   0  0  0  0  0  0  0  0  0  0  0  0
   -1.2880   10.0150   -6.5330 C   0  0  0  0  0  0  0  0  0  0  0  0
    0.7910   10.7020   -7.6130 C   0  0  0  0  0  0  0  0  0  0  0  0
   -1.3490    8.8680   -7.3300 C   0  0  0  0  0  0  0  0  0  0  0  0
    0.7160    9.5520   -8.4000 C   0  0  0  0  0  0  0  0  0  0  0  0
   -0.3340    8.6480   -8.2650 C   0  0  0  0  0  0  0  0  0  0  0  0
  2  1  1  0
  2  3  1  0
  2  4  1  0
  2  5  1  0
  4  6  1  0
  5  7  2  0
  5  8  1  0
  6  9  1  0
  7 10  1  0
  8 11  2  0
 12  9  1  1
 10 13  2  0
 11 13  1  0
 10 14  1  0
 12 15  1  0
 13 16  1  0
 14 17  1  0
 12 18  1  0
 15 19  1  0
 16 20  1  0
 17 20  1  0
 18 21  1  0
 18 22  1  0
 20 23  2  0
 19 24  1  0
 19 25  2  0
 21 26  2  0
 22 27  2  0
 26 27  1  0
 22 28  1  0
 27 29  1  0
 28 30  2  0
 29 31  2  0
 30 31  1  0
M  END
