mac-x0302-mac-x0358
     RDKit          3D

 22 23  0  0  0  0  0  0  0  0999 V2000
    0.6350   13.5610   -4.0910 O   0  0  0  0  0  0  0  0  0  0  0  0
    0.4480   13.4160   -2.6770 C   0  0  0  0  0  0  0  0  0  0  0  0
    1.5740   13.5530   -1.8490 O   0  0  0  0  0  0  0  0  0  0  0  0
   -0.5740   13.7680   -4.6970 C   0  0  0  0  0  0  0  0  0  0  0  0
   -0.5990   14.5070   -2.2460 C   0  0  0  0  0  0  0  0  0  0  0  0
   -0.0080   12.0730   -2.4310 O   0  0  0  0  0  0  0  0  0  0  0  0
   -1.3920   12.7280   -5.1810 C   0  0  0  0  0  0  0  0  0  0  0  0
   -0.9900   15.0960   -4.8130 C   0  0  0  0  0  0  0  0  0  0  0  0
   -1.9840   14.1460   -2.5410 N   0  0  0  0  0  0  0  0  0  0  0  0
   -0.9920   11.4180   -5.0740 O   0  0  0  0  0  0  0  0  0  0  0  0
   -2.6240   13.0330   -5.7730 C   0  0  0  0  0  0  0  0  0  0  0  0
   -2.2250   15.3970   -5.4030 C   0  0  0  0  0  0  0  0  0  0  0  0
   -3.0360   15.0440   -2.4950 C   0  0  0  0  0  0  0  0  0  0  0  0
   -3.0410   14.3670   -5.8820 C   0  0  0  0  0  0  0  0  0  0  0  0
   -3.3270   15.8020   -3.4160 O   0  0  0  0  0  0  0  0  0  0  0  0
   -3.8390   15.0480   -1.2530 C   0  0  0  0  0  0  0  0  0  0  0  0
   -5.2350   15.0360   -1.3720 C   0  0  0  0  0  0  0  0  0  0  0  0
   -3.2380   15.0570    0.0170 C   0  0  0  0  0  0  0  0  0  0  0  0
   -6.0140   15.0250   -0.2280 C   0  0  0  0  0  0  0  0  0  0  0  0
   -4.0290   15.0500    1.1570 C   0  0  0  0  0  0  0  0  0  0  0  0
   -7.3790   15.0090   -0.3070 O   0  0  0  0  0  0  0  0  0  0  0  0
   -5.4200   15.0310    1.0390 C   0  0  0  0  0  0  0  0  0  0  0  0
  2  1  1  0
  2  3  1  0
  1  4  1  0
  2  5  1  0
  2  6  1  0
  4  7  2  0
  4  8  1  0
  5  9  1  0
  7 10  1  0
  7 11  1  0
  8 12  2  0
  9 13  1  0
 11 14  2  0
 12 14  1  0
 13 15  2  0
 13 16  1  0
 16 17  2  0
 16 18  1  0
 17 19  1  0
 18 20  2  0
 19 21  1  0
 19 22  2  0
 20 22  1  0
M  END
