mac-x0284-diamond-x0253_0_A
     RDKit          3D

 24 25  0  0  0  0  0  0  0  0999 V2000
   -3.9680   15.5860    0.8940 C   0  0  0  0  0  0  0  0  0  0  0  0
   -3.5430   15.3100   -0.5160 C   0  0  0  0  0  0  0  0  0  0  0  0
   -4.4340   15.5290   -1.5750 C   0  0  0  0  0  0  0  0  0  0  0  0
   -2.2500   14.8310   -0.7990 C   0  0  0  0  0  0  0  0  0  0  0  0
   -1.8840   14.5970   -2.1270 C   0  0  0  0  0  0  0  0  0  0  0  0
   -4.0500   15.2840   -2.8930 C   0  0  0  0  0  0  0  0  0  0  0  0
   -0.5840   14.0900   -2.5210 C   0  0  0  0  0  0  0  0  0  0  0  0
   -2.7800   14.8260   -3.1650 C   0  0  0  0  0  0  0  0  0  0  0  0
   -2.4030   14.5910   -4.4620 O   0  0  0  0  0  0  0  0  0  0  0  0
   -0.4270   12.8380   -2.5590 N   0  0  0  0  0  0  0  0  0  0  0  0
    0.3100   15.0330   -2.8590 O   0  0  0  0  0  0  0  0  0  0  0  0
    0.7670   12.1900   -3.0190 C   0  0  2  0  0  0  0  0  0  0  0  0
    1.8700   12.3280   -2.1880 O   0  0  0  0  0  0  0  0  0  0  0  0
    1.0770   12.7440   -4.4270 C   0  0  0  0  0  0  0  0  0  0  0  0
    0.4080   11.9800   -5.4730 N   0  0  0  0  0  0  0  0  0  0  0  0
    1.0770   11.6410   -6.6010 C   0  0  0  0  0  0  0  0  0  0  0  0
    2.1920   12.0870   -6.7270 O   0  0  0  0  0  0  0  0  0  0  0  0
    0.4670   10.7270   -7.5970 C   0  0  0  0  0  0  0  0  0  0  0  0
   -0.5030    9.8150   -7.1790 C   0  0  0  0  0  0  0  0  0  0  0  0
    0.8510   10.7690   -8.9420 C   0  0  0  0  0  0  0  0  0  0  0  0
   -1.0940    8.9440   -8.1000 C   0  0  0  0  0  0  0  0  0  0  0  0
    0.2680    9.9040   -9.8620 C   0  0  0  0  0  0  0  0  0  0  0  0
   -2.1380    7.9700   -7.6400 C   0  0  0  0  0  0  0  0  0  0  0  0
   -0.7030    8.9950   -9.4410 C   0  0  0  0  0  0  0  0  0  0  0  0
  1  2  1  0
  2  3  2  0
  2  4  1  0
  4  5  2  0
  3  6  1  0
  5  7  1  0
  5  8  1  0
  6  8  2  0
  8  9  1  0
  7 10  2  3
  7 11  1  0
 10 12  1  0
 12 13  1  1
 12 14  1  0
 14 15  1  0
 15 16  1  0
 16 17  2  0
 16 18  1  0
 18 19  2  0
 18 20  1  0
 19 21  1  0
 20 22  2  0
 21 23  1  0
 21 24  2  0
 22 24  1  0
M  END
