mac-x0584-mac-x0567
     RDKit          3D

 18 21  0  0  0  0  0  0  0  0999 V2000
    0.9360   12.3190   -5.1640 C   0  0  0  0  0  0  0  0  0  0  0  0
   -0.0260   11.9390   -4.0240 C   0  0  0  0  0  0  0  0  0  0  0  0
    0.5350   13.1990   -3.3030 C   0  0  0  0  0  0  0  0  0  0  0  0
    1.8540   12.8990   -4.0700 C   0  0  0  0  0  0  0  0  0  0  0  0
   -0.1330   14.5680   -3.4390 C   0  0  1  0  0  0  0  0  0  0  0  0
   -0.5610   14.7990   -4.9110 C   0  0  0  0  0  0  0  0  0  0  0  0
   -1.3730   14.6910   -2.6760 N   0  0  0  0  0  0  0  0  0  0  0  0
   -2.5050   14.9930   -3.5660 C   0  0  0  0  0  0  0  0  0  0  0  0
   -1.8630   15.5690   -4.8140 C   0  0  0  0  0  0  0  0  0  0  0  0
   -1.5120   14.7340   -1.3000 C   0  0  0  0  0  0  0  0  0  0  0  0
   -0.3900   14.5640   -0.5080 N   0  0  0  0  0  0  0  0  0  0  0  0
   -2.6460   14.9460   -0.6240 C   0  0  0  0  0  0  0  0  0  0  0  0
   -0.4530   14.5680    0.8530 C   0  0  0  0  0  0  0  0  0  0  0  0
   -2.6230   14.9710    0.8580 C   0  0  0  0  0  0  0  0  0  0  0  0
   -4.0160   15.1940   -0.9250 C   0  0  0  0  0  0  0  0  0  0  0  0
   -1.4920   14.7460    1.5830 N   0  0  0  0  0  0  0  0  0  0  0  0
   -3.7880   15.2240    1.3630 N   0  0  0  0  0  0  0  0  0  0  0  0
   -4.6110   15.3500    0.2580 C   0  0  0  0  0  0  0  0  0  0  0  0
  1  2  1  0
  2  3  1  0
  1  4  1  0
  3  4  1  0
  5  3  1  6
  5  6  1  0
  5  7  1  0
  7  8  1  0
  6  9  1  0
  8  9  1  0
  7 10  1  0
 10 11  1  0
 10 12  2  0
 11 13  1  0
 12 14  1  0
 12 15  1  0
 13 16  2  0
 14 16  1  0
 14 17  2  0
 15 18  2  0
 17 18  1  0
M  END
