mac-x0180-diamond-x0905_0_A
     RDKit          3D

 13 13  0  0  0  0  0  0  0  0999 V2000
   -7.7260   14.4890    1.5880 C   0  0  0  0  0  0  0  0  0  0  0  0
   -6.7870   14.7020    0.4280 C   0  0  0  0  0  0  0  0  0  0  0  0
   -7.2190   14.7790   -0.7160 O   0  0  0  0  0  0  0  0  0  0  0  0
   -5.4570   14.7990    0.8230 N   0  0  0  0  0  0  0  0  0  0  0  0
   -4.3820   14.8340   -0.0910 C   0  0  0  0  0  0  0  0  0  0  0  0
   -3.0820   14.6720    0.4140 C   0  0  0  0  0  0  0  0  0  0  0  0
   -4.5550   15.0160   -1.4650 C   0  0  0  0  0  0  0  0  0  0  0  0
   -1.9780   14.6890   -0.4530 C   0  0  0  0  0  0  0  0  0  0  0  0
   -3.4630   15.0330   -2.3350 C   0  0  0  0  0  0  0  0  0  0  0  0
   -2.1760   14.8680   -1.8310 C   0  0  0  0  0  0  0  0  0  0  0  0
   -1.0410   14.8970   -2.7830 C   0  0  0  0  0  0  0  0  0  0  0  0
   -1.1740   14.9350   -3.9950 O   0  0  0  0  0  0  0  0  0  0  0  0
    0.1550   14.8900   -2.1650 O   0  0  0  0  0  0  0  0  0  0  0  0
  1  2  1  0
  2  3  2  0
  2  4  1  0
  4  5  1  0
  5  6  2  0
  5  7  1  0
  6  8  1  0
  7  9  2  0
  8 10  2  0
  9 10  1  0
 10 11  1  0
 11 12  2  0
 11 13  1  0
M  END
