mac-x0345-mac-x0137
     RDKit          3D

 23 26  0  0  0  0  0  0  0  0999 V2000
   -8.1420   14.9420   -0.5120 C   0  0  0  0  0  0  0  0  0  0  0  0
   -6.6420   14.9960   -0.5850 C   0  0  0  0  0  0  0  0  0  0  0  0
   -6.0660   15.1550   -1.8250 N   0  0  0  0  0  0  0  0  0  0  0  0
   -5.9000   14.8880    0.4890 C   0  0  0  0  0  0  0  0  0  0  0  0
   -6.5500   14.6390    2.1920 Br  0  0  0  0  0  0  0  0  0  0  0  0
   -4.4530   14.9480    0.3180 C   0  0  0  0  0  0  0  0  0  0  0  0
   -4.7100   15.0420   -2.1020 C   0  0  0  0  0  0  0  0  0  0  0  0
   -4.3870   15.0640   -3.4280 N   0  0  0  0  0  0  0  0  0  0  0  0
   -3.8320   14.9280   -1.0410 C   0  0  0  0  0  0  0  0  0  0  0  0
   -3.6230   15.0090    1.2840 N   0  0  0  0  0  0  0  0  0  0  0  0
   -2.3860   14.8910    0.6950 C   0  0  0  0  0  0  0  0  0  0  0  0
   -2.3790   14.7980   -0.7060 C   0  0  0  0  0  0  0  0  0  0  0  0
   -1.3650   14.8570    1.5240 N   0  0  0  0  0  0  0  0  0  0  0  0
   -1.0800   14.6270   -1.2410 C   0  0  0  0  0  0  0  0  0  0  0  0
   -0.7050   14.4830   -2.6050 N   0  0  0  0  0  0  0  0  0  0  0  0
   -0.0190   14.5910   -0.4040 N   0  0  0  0  0  0  0  0  0  0  0  0
   -0.2200   14.7130    0.9170 C   0  0  0  0  0  0  0  0  0  0  0  0
   -1.7700   14.6090   -3.6290 C   0  0  0  0  0  0  0  0  0  0  0  0
    0.4430   13.5640   -2.8160 C   0  0  0  0  0  0  0  0  0  0  0  0
   -2.0110   13.3300   -4.4540 C   0  0  2  0  0  0  0  0  0  0  0  0
    0.0260   12.2280   -3.4030 C   0  0  0  0  0  0  0  0  0  0  0  0
   -2.9350   12.5760   -3.7960 F   0  0  0  0  0  0  0  0  0  0  0  0
   -0.7740   12.4560   -4.6780 C   0  0  0  0  0  0  0  0  0  0  0  0
  1  2  1  0
  2  3  1  0
  2  4  2  0
  4  5  1  0
  4  6  1  0
  3  7  1  0
  7  8  1  0
  6  9  1  0
  7  9  2  0
  6 10  2  0
 10 11  1  0
  9 12  1  0
 11 12  2  0
 11 13  1  0
 12 14  1  0
 14 15  1  0
 14 16  2  0
 13 17  2  0
 16 17  1  0
 15 18  1  0
 15 19  1  0
 18 20  1  0
 19 21  1  0
 20 22  1  1
 20 23  1  0
 21 23  1  0
M  END
