mac-x0224-diamond-x0962_2_B
     RDKit          3D

 22 23  0  0  0  0  0  0  0  0999 V2000
   -4.1040   16.2560    1.3600 C   0  0  0  0  0  0  0  0  0  0  0  0
   -3.1700   14.8040    1.2690 S   0  0  1  0  0  0  0  0  0  0  0  0
   -4.3260   13.6600    1.9330 C   0  0  0  0  0  0  0  0  0  0  0  0
   -2.8240   14.7670   -0.4250 C   0  0  0  0  0  0  0  0  0  0  0  0
   -5.2330   14.4270    2.8990 C   0  0  0  0  0  0  0  0  0  0  0  0
   -1.5200   14.5420   -0.8000 C   0  0  0  0  0  0  0  0  0  0  0  0
   -3.8380   14.9710   -1.3620 C   0  0  0  0  0  0  0  0  0  0  0  0
   -6.3760   13.7330    3.6420 C   0  0  0  0  0  0  0  0  0  0  0  0
   -1.1850   14.5040   -2.1460 C   0  0  0  0  0  0  0  0  0  0  0  0
   -3.5100   14.9410   -2.7210 C   0  0  0  0  0  0  0  0  0  0  0  0
    0.2240   14.2450   -2.4970 C   0  0  0  0  0  0  0  0  0  0  0  0
   -2.1830   14.7060   -3.1120 C   0  0  0  0  0  0  0  0  0  0  0  0
   -7.5130   14.6020    3.5740 N   0  0  0  0  0  0  0  0  0  0  0  0
   -1.8660   14.6720   -4.4450 O   0  0  0  0  0  0  0  0  0  0  0  0
    1.1600   14.1150   -1.7430 O   0  0  0  0  0  0  0  0  0  0  0  0
    0.3970   14.1570   -3.8270 O   0  0  0  0  0  0  0  0  0  0  0  0
   -7.9820   15.4600    4.5310 C   0  0  0  0  0  0  0  0  0  0  0  0
   -8.3050   14.7080    2.4800 C   0  0  0  0  0  0  0  0  0  0  0  0
   -9.2340   15.6500    2.8110 C   0  0  0  0  0  0  0  0  0  0  0  0
   -9.0380   16.1180    4.0950 N   0  0  0  0  0  0  0  0  0  0  0  0
  -10.2740   16.1110    1.9530 C   0  0  0  0  0  0  0  0  0  0  0  0
  -11.0710   16.4890    1.2010 N   0  0  0  0  0  0  0  0  0  0  0  0
  2  1  1  6
  2  3  1  0
  2  4  1  0
  3  5  1  0
  4  6  2  0
  4  7  1  0
  5  8  1  0
  6  9  1  0
  7 10  2  0
  9 11  1  0
  9 12  2  0
 10 12  1  0
  8 13  1  0
 12 14  1  0
 11 15  2  0
 11 16  1  0
 13 17  1  0
 13 18  1  0
 18 19  2  0
 17 20  2  0
 19 20  1  0
 19 21  1  0
 21 22  3  0
M  END
