mac-x0137-mac-x0148
     RDKit          3D

 19 22  0  0  0  0  0  0  0  0999 V2000
   -2.7810   12.1600   -3.8710 F   0  0  0  0  0  0  0  0  0  0  0  0
   -1.9080   13.0600   -4.4080 C   0  0  2  0  0  0  0  0  0  0  0  0
   -0.5860   12.3200   -4.6300 C   0  0  0  0  0  0  0  0  0  0  0  0
   -1.9470   14.2540   -3.4450 C   0  0  1  0  0  0  0  0  0  0  0  0
   -2.5260   13.5620   -5.7040 C   0  0  0  0  0  0  0  0  0  0  0  0
   -0.8110   14.3270   -2.4650 N   0  0  0  0  0  0  0  0  0  0  0  0
    0.1630   12.1870   -3.3230 C   0  0  0  0  0  0  0  0  0  0  0  0
   -2.8300   14.9570   -5.5570 O   0  0  0  0  0  0  0  0  0  0  0  0
   -2.1130   15.4260   -4.4080 C   0  0  0  0  0  0  0  0  0  0  0  0
    0.4360   13.5840   -2.7850 C   0  0  0  0  0  0  0  0  0  0  0  0
   -1.1280   14.4750   -1.1140 C   0  0  0  0  0  0  0  0  0  0  0  0
   -0.1580   14.2350   -0.1680 N   0  0  0  0  0  0  0  0  0  0  0  0
   -2.3290   14.8580   -0.6440 C   0  0  0  0  0  0  0  0  0  0  0  0
   -0.4500   14.2810    1.1720 C   0  0  0  0  0  0  0  0  0  0  0  0
   -2.5350   14.9760    0.8150 C   0  0  0  0  0  0  0  0  0  0  0  0
   -3.5950   15.2440   -1.1880 C   0  0  0  0  0  0  0  0  0  0  0  0
   -1.5700   14.6200    1.7060 N   0  0  0  0  0  0  0  0  0  0  0  0
   -3.7160   15.4410    1.1050 N   0  0  0  0  0  0  0  0  0  0  0  0
   -4.3370   15.5860   -0.1260 C   0  0  0  0  0  0  0  0  0  0  0  0
  2  1  1  1
  2  3  1  0
  2  4  1  0
  2  5  1  0
  4  6  1  0
  3  7  1  0
  5  8  1  0
  4  9  1  6
  8  9  1  0
  6 10  1  0
  7 10  1  0
  6 11  1  0
 11 12  1  0
 11 13  2  0
 12 14  1  0
 13 15  1  0
 13 16  1  0
 14 17  2  0
 15 17  1  0
 15 18  2  0
 16 19  2  0
 18 19  1  0
M  END
