mac-x0115-mac-x0231
     RDKit          3D

 31 34  0  0  0  0  0  0  0  0999 V2000
   -1.5310   18.0990   -6.3760 C   0  0  0  0  0  0  0  0  0  0  0  0
   -0.3630   17.6490   -5.4670 C   0  0  0  0  0  0  0  0  0  0  0  0
    0.9120   18.3880   -5.8980 C   0  0  0  0  0  0  0  0  0  0  0  0
   -0.6470   17.9970   -4.1330 O   0  0  0  0  0  0  0  0  0  0  0  0
   -0.0740   16.1610   -5.3200 C   0  0  0  0  0  0  0  0  0  0  0  0
    0.2850   17.2770   -3.3310 C   0  0  0  0  0  0  0  0  0  0  0  0
   -1.0810   15.1780   -5.2480 C   0  0  0  0  0  0  0  0  0  0  0  0
    1.2360   15.8360   -5.2410 N   0  0  0  0  0  0  0  0  0  0  0  0
    0.0560   15.7610   -3.3520 C   0  0  0  0  0  0  0  0  0  0  0  0
   -0.6750   13.8310   -5.0930 C   0  0  0  0  0  0  0  0  0  0  0  0
    1.6090   14.5420   -5.0810 N   0  0  0  0  0  0  0  0  0  0  0  0
   -2.4710   15.4510   -5.3220 C   0  0  0  0  0  0  0  0  0  0  0  0
   -0.2460   15.1820   -2.0430 N   0  0  0  0  0  0  0  0  0  0  0  0
    0.6970   13.5650   -5.0110 C   0  0  0  0  0  0  0  0  0  0  0  0
   -3.4290   14.4490   -5.2540 C   0  0  0  0  0  0  0  0  0  0  0  0
   -1.6690   12.8300   -5.0280 C   0  0  0  0  0  0  0  0  0  0  0  0
    1.2810   12.1980   -4.8350 C   0  0  0  0  0  0  0  0  0  0  0  0
    0.7600   14.7640   -1.1660 C   0  0  0  0  0  0  0  0  0  0  0  0
   -1.5490   15.1690   -1.6180 C   0  0  0  0  0  0  0  0  0  0  0  0
   -3.0250   13.1340   -5.1080 C   0  0  0  0  0  0  0  0  0  0  0  0
    2.3280   14.3080   -1.5710 S   0  0  0  0  0  0  0  0  0  0  0  0
    1.3310   11.8040   -3.3810 C   0  0  0  0  0  0  0  0  0  0  0  0
    0.3970   14.7390    0.1680 N   0  0  0  0  0  0  0  0  0  0  0  0
   -1.9000   14.3620   -0.4280 C   0  0  1  0  0  0  0  0  0  0  0  0
   -2.6080   15.7860   -2.1240 C   0  0  0  0  0  0  0  0  0  0  0  0
    0.7520   10.6230   -3.1330 O   0  0  0  0  0  0  0  0  0  0  0  0
    1.8170   12.4120   -2.4590 O   0  0  0  0  0  0  0  0  0  0  0  0
   -0.9050   14.6570    0.6690 C   0  0  0  0  0  0  0  0  0  0  0  0
   -3.3360   14.6310   -0.1860 N   0  0  0  0  0  0  0  0  0  0  0  0
   -3.6560   15.4060   -1.1830 C   0  0  0  0  0  0  0  0  0  0  0  0
   -1.1720   14.7980    1.8560 O   0  0  0  0  0  0  0  0  0  0  0  0
  1  2  1  0
  2  3  1  0
  2  4  1  0
  2  5  1  0
  4  6  1  0
  5  7  1  0
  5  8  2  0
  6  9  1  0
  7 10  2  0
  8 11  1  0
  7 12  1  0
  9 13  1  0
 10 14  1  0
 11 14  2  0
 12 15  2  0
 10 16  1  0
 14 17  1  0
 13 18  1  0
 13 19  1  0
 15 20  1  0
 16 20  2  0
 18 21  2  0
 17 22  1  0
 18 23  1  0
 19 24  1  0
 19 25  2  0
 22 26  1  0
 22 27  2  0
 23 28  1  0
 24 28  1  0
 24 29  1  1
 25 30  1  0
 29 30  2  0
 28 31  2  0
M  END
