mac-x0124-mac-x0433
     RDKit          3D

 19 21  0  0  0  0  0  0  0  0999 V2000
    0.2220   14.7190   -3.2080 C   0  0  0  0  0  0  0  0  0  0  0  0
   -0.9730   14.7890   -2.4000 N   0  0  0  0  0  0  0  0  0  0  0  0
   -2.2510   14.9020   -2.8780 C   0  0  0  0  0  0  0  0  0  0  0  0
   -0.9850   14.7540   -1.0260 C   0  0  0  0  0  0  0  0  0  0  0  0
   -3.0910   14.9470   -1.7900 C   0  0  0  0  0  0  0  0  0  0  0  0
   -2.2970   14.8530   -0.6070 C   0  0  0  0  0  0  0  0  0  0  0  0
    0.0910   14.6490   -0.2400 N   0  0  0  0  0  0  0  0  0  0  0  0
   -2.5310   14.8440    0.7790 C   0  0  0  0  0  0  0  0  0  0  0  0
   -0.2580   14.6390    1.0660 C   0  0  0  0  0  0  0  0  0  0  0  0
   -3.8250   14.9660    1.2420 N   0  0  0  0  0  0  0  0  0  0  0  0
   -1.4780   14.7220    1.6110 N   0  0  0  0  0  0  0  0  0  0  0  0
   -4.9500   14.9410    0.4050 C   0  0  0  0  0  0  0  0  0  0  0  0
   -4.8990   15.1330   -0.9250 N   0  0  0  0  0  0  0  0  0  0  0  0
   -6.1260   14.7000    1.0370 C   0  0  0  0  0  0  0  0  0  0  0  0
   -6.0480   15.0740   -1.6070 C   0  0  0  0  0  0  0  0  0  0  0  0
   -7.2560   14.6650    0.2650 C   0  0  0  0  0  0  0  0  0  0  0  0
   -8.5720   14.4150    0.9150 C   0  0  0  0  0  0  0  0  0  0  0  0
   -5.9920   15.2470   -2.9720 N   0  0  0  0  0  0  0  0  0  0  0  0
   -7.2360   14.8500   -1.0630 N   0  0  0  0  0  0  0  0  0  0  0  0
  1  2  1  0
  2  3  1  0
  2  4  1  0
  3  5  2  0
  4  6  2  0
  5  6  1  0
  4  7  1  0
  6  8  1  0
  7  9  2  0
  8 10  1  0
  8 11  2  0
  9 11  1  0
 10 12  1  0
 12 13  2  0
 12 14  1  0
 13 15  1  0
 14 16  2  0
 16 17  1  0
 15 18  1  0
 15 19  2  0
 16 19  1  0
M  END
