mac-x0510-mac-x0357
     RDKit          3D

 23 25  0  0  0  0  0  0  0  0999 V2000
   -6.1290   14.9420    0.7390 O   0  0  0  0  0  0  0  0  0  0  0  0
   -4.9420   14.9880    0.4320 C   0  0  0  0  0  0  0  0  0  0  0  0
   -4.5560   15.1830   -0.8790 N   0  0  0  0  0  0  0  0  0  0  0  0
   -3.9520   14.8380    1.3650 N   0  0  0  0  0  0  0  0  0  0  0  0
   -2.6540   14.7950    0.9720 C   0  0  0  0  0  0  0  0  0  0  0  0
   -3.2850   15.0310   -1.3800 C   0  0  0  0  0  0  0  0  0  0  0  0
   -3.0000   15.0170   -2.6450 N   0  0  0  0  0  0  0  0  0  0  0  0
   -2.3140   14.8870   -0.3490 C   0  0  0  0  0  0  0  0  0  0  0  0
   -1.5740   14.6670    1.7730 N   0  0  0  0  0  0  0  0  0  0  0  0
   -1.6610   14.8470   -3.2340 C   0  0  0  0  0  0  0  0  0  0  0  0
   -0.9570   14.8180   -0.3550 N   0  0  0  0  0  0  0  0  0  0  0  0
   -0.5540   14.6870    0.9430 C   0  0  0  0  0  0  0  0  0  0  0  0
   -0.6400   14.3000   -2.3380 N   0  0  0  0  0  0  0  0  0  0  0  0
    0.0430   13.2980   -2.7510 C   0  0  0  0  0  0  0  0  0  0  0  0
    0.9910   12.7830   -1.9440 O   0  0  0  0  0  0  0  0  0  0  0  0
   -0.0280   12.5730   -4.0220 C   0  0  0  0  0  0  0  0  0  0  0  0
    1.0550   12.5300   -4.9150 C   0  0  0  0  0  0  0  0  0  0  0  0
   -1.2400   11.9280   -4.3070 C   0  0  0  0  0  0  0  0  0  0  0  0
    2.3580   13.2140   -4.6080 C   0  0  0  0  0  0  0  0  0  0  0  0
   -1.3960   11.2270   -5.4970 C   0  0  0  0  0  0  0  0  0  0  0  0
    0.8560   11.8180   -6.1000 C   0  0  0  0  0  0  0  0  0  0  0  0
    1.8140   11.6970   -7.0420 O   0  0  0  0  0  0  0  0  0  0  0  0
   -0.3420   11.1750   -6.3960 C   0  0  0  0  0  0  0  0  0  0  0  0
  1  2  2  0
  2  3  1  0
  2  4  1  0
  4  5  1  0
  3  6  1  0
  6  7  2  3
  5  8  2  0
  6  8  1  0
  5  9  1  0
  7 10  1  0
  8 11  1  0
  9 12  2  0
 11 12  1  0
 10 13  1  0
 13 14  2  3
 14 15  1  0
 14 16  1  0
 16 17  2  0
 16 18  1  0
 17 19  1  0
 18 20  2  0
 17 21  1  0
 21 22  1  0
 20 23  1  0
 21 23  2  0
M  END
