mac-x0148-mac-x0138
     RDKit          3D

 20 23  0  0  0  0  0  0  0  0999 V2000
   -3.6670   15.1500   -3.2390 C   0  0  0  0  0  0  0  0  0  0  0  0
   -3.5230   15.2030   -1.7750 C   0  0  0  0  0  0  0  0  0  0  0  0
   -2.3330   14.9010   -1.0520 C   0  0  0  0  0  0  0  0  0  0  0  0
   -4.4310   15.5550   -0.8460 C   0  0  0  0  0  0  0  0  0  0  0  0
   -2.7540   15.1220    0.3330 C   0  0  0  0  0  0  0  0  0  0  0  0
   -1.0600   14.5170   -1.2930 C   0  0  0  0  0  0  0  0  0  0  0  0
   -3.9860   15.5160    0.4530 N   0  0  0  0  0  0  0  0  0  0  0  0
   -0.6210   14.2880   -2.6160 N   0  0  0  0  0  0  0  0  0  0  0  0
   -0.1470   14.3400   -0.2480 N   0  0  0  0  0  0  0  0  0  0  0  0
   -1.8790   14.8890    1.2890 N   0  0  0  0  0  0  0  0  0  0  0  0
   -2.6030   14.2120    2.2450 N   0  0  0  0  0  0  0  0  0  0  0  0
   -1.6870   14.2950   -3.6710 C   0  0  1  0  0  0  0  0  0  0  0  0
    0.4960   13.3180   -2.7280 C   0  0  0  0  0  0  0  0  0  0  0  0
   -0.5830   14.5290    0.9700 C   0  0  0  0  0  0  0  0  0  0  0  0
   -1.6700   15.4470   -4.6590 C   0  0  0  0  0  0  0  0  0  0  0  0
   -1.7550   13.0820   -4.5960 C   0  0  1  0  0  0  0  0  0  0  0  0
    0.1630   12.0600   -3.5130 C   0  0  0  0  0  0  0  0  0  0  0  0
   -2.4360   13.6220   -5.8470 C   0  0  0  0  0  0  0  0  0  0  0  0
   -2.5750   15.0420   -5.7010 O   0  0  0  0  0  0  0  0  0  0  0  0
   -0.4120   12.4250   -4.8570 C   0  0  0  0  0  0  0  0  0  0  0  0
  1  2  1  0
  2  3  1  0
  2  4  2  0
  3  5  1  0
  3  6  2  0
  4  7  1  0
  5  7  2  0
  6  8  1  0
  6  9  1  0
  5 10  1  0
 10 11  1  0
  8 12  1  0
  8 13  1  0
  9 14  2  0
 10 14  1  0
 12 15  1  6
 12 16  1  0
 13 17  1  0
 16 18  1  6
 15 19  1  0
 18 19  1  0
 16 20  1  0
 17 20  1  0
M  END
