mac-x0361-diamond-x0290_0_A
     RDKit          3D

 18 19  0  0  0  0  0  0  0  0999 V2000
   -5.9080   15.1020    0.7200 N   0  0  0  0  0  0  0  0  0  0  0  0
   -6.0600   14.2860   -0.3420 C   0  0  0  0  0  0  0  0  0  0  0  0
   -7.2650   13.8570   -0.6060 N   0  0  0  0  0  0  0  0  0  0  0  0
   -4.9670   14.9200    1.7480 C   0  0  0  0  0  0  0  0  0  0  0  0
   -3.6300   15.4200    1.6980 N   0  0  0  0  0  0  0  0  0  0  0  0
   -4.8340   13.8310   -1.1860 C   0  0  1  0  0  0  0  0  0  0  0  0
   -8.1920   14.3200    0.2760 N   0  0  0  0  0  0  0  0  0  0  0  0
   -5.1590   12.8150   -2.2410 C   0  0  0  0  0  0  0  0  0  0  0  0
   -4.1340   14.9500   -2.0340 C   0  0  1  0  0  0  0  0  0  0  0  0
   -2.6700   14.3860    1.4820 C   0  0  2  0  0  0  0  0  0  0  0  0
   -2.7060   14.6660   -2.2450 O   0  0  0  0  0  0  0  0  0  0  0  0
   -4.9350   14.8460   -3.3360 C   0  0  0  0  0  0  0  0  0  0  0  0
   -1.2660   14.6360    1.5680 N   0  0  0  0  0  0  0  0  0  0  0  0
   -2.9220   13.7320    0.1280 C   0  0  0  0  0  0  0  0  0  0  0  0
   -5.2080   13.3830   -3.4460 C   0  0  0  0  0  0  0  0  0  0  0  0
   -0.4620   14.5400    0.4830 C   0  0  0  0  0  0  0  0  0  0  0  0
   -1.7880   15.5260   -1.5340 C   0  0  0  0  0  0  0  0  0  0  0  0
   -0.6240   14.8810   -0.8010 C   0  0  0  0  0  0  0  0  0  0  0  0
  1  2  1  0
  2  3  2  3
  1  4  1  0
  4  5  1  0
  2  6  1  0
  3  7  1  0
  6  8  1  6
  6  9  1  0
  5 10  1  0
  9 11  1  0
  9 12  1  6
 10 13  1  0
 10 14  1  6
  8 15  2  0
 12 15  1  0
 13 16  1  0
 11 17  1  0
 16 18  2  0
 17 18  1  0
M  END
