mac-x0380-diamond-x1018_0_A
     RDKit          3D

 14 15  0  0  0  0  0  0  0  0999 V2000
   -1.3730   14.6950   -2.5220 O   0  0  0  0  0  0  0  0  0  0  0  0
   -2.6670   14.9910   -2.7720 C   0  0  0  0  0  0  0  0  0  0  0  0
   -3.0950   15.2300   -3.8870 O   0  0  0  0  0  0  0  0  0  0  0  0
   -3.5250   14.9960   -1.5590 C   0  0  0  0  0  0  0  0  0  0  0  0
   -4.9160   15.0530   -1.6680 C   0  0  0  0  0  0  0  0  0  0  0  0
   -2.9250   14.9390   -0.2920 C   0  0  0  0  0  0  0  0  0  0  0  0
   -5.7070   15.0450   -0.5140 C   0  0  0  0  0  0  0  0  0  0  0  0
   -3.7150   14.9340    0.8620 C   0  0  0  0  0  0  0  0  0  0  0  0
   -5.1110   14.9830    0.7520 C   0  0  0  0  0  0  0  0  0  0  0  0
   -7.4710   15.1020   -0.7080 S   0  0  0  0  0  0  0  0  0  0  0  0
   -5.8760   14.9600    1.9350 N   0  0  0  0  0  0  0  0  0  0  0  0
   -7.8810   14.1270    0.7540 C   0  0  0  0  0  0  0  0  0  0  0  0
   -7.2080   14.6370    1.9980 C   0  0  0  0  0  0  0  0  0  0  0  0
   -7.8370   14.7730    3.0530 O   0  0  0  0  0  0  0  0  0  0  0  0
  1  2  1  0
  2  3  2  0
  2  4  1  0
  4  5  2  0
  4  6  1  0
  5  7  1  0
  6  8  2  0
  7  9  2  0
  8  9  1  0
  7 10  1  0
  9 11  1  0
 10 12  1  0
 11 13  1  0
 12 13  1  0
 13 14  2  0
M  END
