mac-x0341-mac-x0224
     RDKit          3D

 18 19  0  0  0  0  0  0  0  0999 V2000
   -6.7830   14.7460    2.1610 N   0  0  0  0  0  0  0  0  0  0  0  0
   -6.0920   14.7850    0.9870 C   0  0  0  0  0  0  0  0  0  0  0  0
   -4.8000   14.8140    0.9840 N   0  0  0  0  0  0  0  0  0  0  0  0
   -6.7980   14.8000   -0.1720 N   0  0  0  0  0  0  0  0  0  0  0  0
   -6.2030   15.0570   -1.3850 C   0  0  0  0  0  0  0  0  0  0  0  0
   -4.0750   14.8240   -0.2350 C   0  0  0  0  0  0  0  0  0  0  0  0
   -6.8490   15.3460   -2.3720 O   0  0  0  0  0  0  0  0  0  0  0  0
   -4.7350   14.9420   -1.4330 C   0  0  0  0  0  0  0  0  0  0  0  0
   -2.6630   14.6990   -0.2350 C   0  0  0  0  0  0  0  0  0  0  0  0
   -2.0260   14.5830    1.4180 S   0  0  0  0  0  0  0  0  0  0  0  0
   -1.9190   14.6760   -1.4700 C   0  0  0  0  0  0  0  0  0  0  0  0
   -4.0450   14.9430   -2.6440 C   0  0  0  0  0  0  0  0  0  0  0  0
   -3.6170   15.1350    2.0900 C   0  0  0  0  0  0  0  0  0  0  0  0
   -0.4250   14.5190   -1.6310 C   0  0  0  0  0  0  0  0  0  0  0  0
   -2.6570   14.8070   -2.6570 C   0  0  0  0  0  0  0  0  0  0  0  0
   -2.0780   14.8090   -3.9100 O   0  0  0  0  0  0  0  0  0  0  0  0
    0.4380   14.4350   -0.7890 O   0  0  0  0  0  0  0  0  0  0  0  0
   -0.0660   14.4550   -2.9450 O   0  0  0  0  0  0  0  0  0  0  0  0
  1  2  1  0
  2  3  2  0
  2  4  1  0
  4  5  1  0
  3  6  1  0
  5  7  2  0
  5  8  1  0
  6  8  2  0
  6  9  1  0
  9 10  1  0
  9 11  2  0
  8 12  1  0
 10 13  1  0
 11 14  1  0
 11 15  1  0
 12 15  2  0
 15 16  1  0
 14 17  2  0
 14 18  1  0
M  END
