mac-x0223-mac-x0396
     RDKit          3D

 25 26  0  0  0  0  0  0  0  0999 V2000
    1.2390   18.4260   -5.7610 C   0  0  0  0  0  0  0  0  0  0  0  0
    0.2360   18.2140   -4.7980 O   0  0  0  0  0  0  0  0  0  0  0  0
   -0.2340   16.9400   -4.7360 C   0  0  0  0  0  0  0  0  0  0  0  0
   -1.6150   16.8390   -4.7750 C   0  0  0  0  0  0  0  0  0  0  0  0
    0.5490   15.7900   -4.6420 C   0  0  0  0  0  0  0  0  0  0  0  0
   -2.3230   18.0070   -4.8610 O   0  0  0  0  0  0  0  0  0  0  0  0
   -2.2470   15.6000   -4.7200 C   0  0  0  0  0  0  0  0  0  0  0  0
   -0.0590   14.5220   -4.5820 C   0  0  0  0  0  0  0  0  0  0  0  0
    0.7900   13.2700   -4.4750 C   0  0  0  0  0  0  0  0  0  0  0  0
   -1.4640   14.4440   -4.6240 C   0  0  0  0  0  0  0  0  0  0  0  0
    0.5860   12.4390   -3.2120 C   0  0  0  0  0  0  0  0  0  0  0  0
   -0.1140   11.4380   -3.1080 O   0  0  0  0  0  0  0  0  0  0  0  0
    1.3150   12.9690   -2.1860 O   0  0  0  0  0  0  0  0  0  0  0  0
    0.8770   14.2250   -1.6580 C   0  0  0  0  0  0  0  0  0  0  0  0
   -0.6310   14.3970   -1.8010 C   0  0  0  0  0  0  0  0  0  0  0  0
   -1.3710   14.4610   -0.4710 C   0  0  0  0  0  0  0  0  0  0  0  0
   -2.8130   14.5650   -0.6990 N   0  0  0  0  0  0  0  0  0  0  0  0
   -3.6000   14.7570    0.2910 C   0  0  0  0  0  0  0  0  0  0  0  0
   -3.1650   14.8910    1.5900 N   0  0  0  0  0  0  0  0  0  0  0  0
   -5.0800   14.7910    0.0270 C   0  0  0  0  0  0  0  0  0  0  0  0
   -5.6490   14.9760   -1.2230 C   0  0  0  0  0  0  0  0  0  0  0  0
   -5.9490   14.6160    1.1000 C   0  0  0  0  0  0  0  0  0  0  0  0
   -6.9950   14.9860   -1.4390 N   0  0  0  0  0  0  0  0  0  0  0  0
   -7.3250   14.6200    0.9130 C   0  0  0  0  0  0  0  0  0  0  0  0
   -7.7990   14.8080   -0.3660 C   0  0  0  0  0  0  0  0  0  0  0  0
  1  2  1  0
  2  3  1  0
  3  4  2  0
  3  5  1  0
  4  6  1  0
  4  7  1  0
  5  8  2  0
  8  9  1  0
  7 10  2  0
  8 10  1  0
  9 11  1  0
 11 12  2  0
 11 13  1  0
 13 14  1  0
 14 15  1  0
 15 16  1  0
 16 17  1  0
 17 18  2  3
 18 19  1  0
 18 20  1  0
 20 21  2  0
 20 22  1  0
 21 23  1  0
 22 24  2  0
 23 25  2  0
 24 25  1  0
M  END
