mac-x0271-diamond-x1012_0_A
     RDKit          3D

 26 28  0  0  0  0  0  0  0  0999 V2000
   -4.3880   15.3270   -3.3390 O   0  0  0  0  0  0  0  0  0  0  0  0
   -4.7730   15.2260   -2.0390 C   0  0  0  0  0  0  0  0  0  0  0  0
   -3.8800   15.3510   -0.9780 C   0  0  0  0  0  0  0  0  0  0  0  0
   -6.1120   14.9890   -1.8390 C   0  0  0  0  0  0  0  0  0  0  0  0
   -2.4400   15.6200   -1.2780 C   0  0  0  0  0  0  0  0  0  0  0  0
   -6.5790   14.8650   -0.5480 C   0  0  0  0  0  0  0  0  0  0  0  0
   -4.3660   15.2200    0.3410 C   0  0  0  0  0  0  0  0  0  0  0  0
   -2.2020   15.5660   -2.7940 C   0  0  0  0  0  0  0  0  0  0  0  0
   -5.7290   14.9710    0.5510 C   0  0  0  0  0  0  0  0  0  0  0  0
   -7.9520   14.6260   -0.3890 O   0  0  0  0  0  0  0  0  0  0  0  0
   -2.1150   16.8550   -3.4820 N   0  0  0  0  0  0  0  0  0  0  0  0
   -6.3100   14.8200    1.8740 C   0  0  0  0  0  0  0  0  0  0  0  0
   -8.5470   14.7920    0.8470 C   0  0  0  0  0  0  0  0  0  0  0  0
   -9.7500   14.9810    0.9820 O   0  0  0  0  0  0  0  0  0  0  0  0
   -1.3310   16.8830   -4.4580 C   0  0  0  0  0  0  0  0  0  0  0  0
   -7.6430   14.7340    2.0080 C   0  0  0  0  0  0  0  0  0  0  0  0
   -1.1550   18.0560   -5.1120 N   0  0  0  0  0  0  0  0  0  0  0  0
   -0.5830   15.8580   -4.9760 N   0  0  0  0  0  0  0  0  0  0  0  0
   -1.2930   14.5760   -5.1990 C   0  0  0  0  0  0  0  0  0  0  0  0
    0.8570   15.7610   -4.6970 C   0  0  0  0  0  0  0  0  0  0  0  0
   -1.1720   13.6000   -4.0350 C   0  0  0  0  0  0  0  0  0  0  0  0
    1.2100   14.4310   -4.0130 C   0  0  0  0  0  0  0  0  0  0  0  0
    0.0560   13.8700   -3.1730 C   0  0  0  0  0  0  0  0  0  0  0  0
    0.4010   12.6160   -2.4070 C   0  0  0  0  0  0  0  0  0  0  0  0
    0.4670   11.5380   -3.2100 O   0  0  0  0  0  0  0  0  0  0  0  0
    0.5850   12.5520   -1.2070 O   0  0  0  0  0  0  0  0  0  0  0  0
  1  2  1  0
  2  3  2  0
  2  4  1  0
  3  5  1  0
  4  6  2  0
  3  7  1  0
  5  8  1  0
  6  9  1  0
  7  9  2  0
  6 10  1  0
  8 11  1  0
  9 12  1  0
 10 13  1  0
 13 14  2  0
 11 15  2  3
 12 16  2  0
 13 16  1  0
 15 17  1  0
 15 18  1  0
 18 19  1  0
 18 20  1  0
 19 21  1  0
 20 22  1  0
 21 23  1  0
 22 23  1  0
 23 24  1  0
 24 25  1  0
 24 26  2  0
M  END
