mac-x0228-diamond-x0722_0_A
     RDKit          3D

 23 25  0  0  0  0  0  0  0  0999 V2000
   -1.4280   14.5520   -1.6580 O   0  0  0  0  0  0  0  0  0  0  0  0
   -2.1230   14.2110   -2.7730 C   0  0  0  0  0  0  0  0  0  0  0  0
   -1.7010   14.1170   -3.9210 O   0  0  0  0  0  0  0  0  0  0  0  0
   -2.1110   14.7250   -0.5200 C   0  0  0  0  0  0  0  0  0  0  0  0
   -3.5470   13.9600   -2.4110 C   0  0  0  0  0  0  0  0  0  0  0  0
   -3.4090   15.1310   -0.2050 C   0  0  0  0  0  0  0  0  0  0  0  0
   -1.5120   14.4880    0.6970 N   0  0  0  0  0  0  0  0  0  0  0  0
   -0.1680   14.0610    0.9480 C   0  0  0  0  0  0  0  0  0  0  0  0
   -4.5360   15.5370   -1.1010 C   0  0  0  0  0  0  0  0  0  0  0  0
   -3.9150   13.1870   -1.2840 C   0  0  0  0  0  0  0  0  0  0  0  0
   -4.5550   14.5330   -3.2320 C   0  0  0  0  0  0  0  0  0  0  0  0
   -2.3060   14.6930    1.7420 N   0  0  0  0  0  0  0  0  0  0  0  0
   -3.4510   15.0840    1.2010 C   0  0  0  0  0  0  0  0  0  0  0  0
   -4.5980   15.4170    2.0430 C   0  0  0  0  0  0  0  0  0  0  0  0
   -5.9220   15.3760   -0.4970 C   0  0  0  0  0  0  0  0  0  0  0  0
   -5.2660   13.0230   -1.0110 C   0  0  0  0  0  0  0  0  0  0  0  0
   -5.9160   14.3500   -2.9370 C   0  0  0  0  0  0  0  0  0  0  0  0
   -6.9460   15.8270   -1.0050 O   0  0  0  0  0  0  0  0  0  0  0  0
   -5.9950   14.6840    0.6720 N   0  0  0  0  0  0  0  0  0  0  0  0
   -6.2400   13.5940   -1.8210 C   0  0  0  0  0  0  0  0  0  0  0  0
   -5.9180   12.2820    0.0970 C   0  0  0  0  0  0  0  0  0  0  0  0
   -7.5220   13.3360   -1.4050 O   0  0  0  0  0  0  0  0  0  0  0  0
   -7.3630   12.7630   -0.0820 C   0  0  0  0  0  0  0  0  0  0  0  0
  1  2  1  0
  2  3  2  0
  1  4  1  0
  2  5  1  0
  4  6  2  0
  4  7  1  0
  7  8  1  0
  6  9  1  0
  5 10  2  0
  5 11  1  0
  7 12  1  0
  6 13  1  0
 12 13  2  0
 13 14  1  0
  9 15  1  0
 10 16  1  0
 11 17  2  0
 15 18  2  0
 15 19  1  0
 16 20  2  0
 17 20  1  0
 16 21  1  0
 20 22  1  0
 21 23  1  0
 22 23  1  0
M  END
