mac-x0115-diamond-x0910_0_A
     RDKit          3D

 18 19  0  0  0  0  0  0  0  0999 V2000
   -1.4240   18.6350   -5.2190 C   0  0  0  0  0  0  0  0  0  0  0  0
   -0.4250   17.6780   -5.8320 C   0  0  0  0  0  0  0  0  0  0  0  0
    1.0010   18.1170   -5.5610 C   0  0  0  0  0  0  0  0  0  0  0  0
   -0.6020   16.3740   -5.2710 O   0  0  0  0  0  0  0  0  0  0  0  0
    0.5600   15.8060   -4.6540 C   0  0  0  0  0  0  0  0  0  0  0  0
    0.0950   14.5820   -3.8540 C   0  0  0  0  0  0  0  0  0  0  0  0
   -0.1500   14.8220   -2.4060 N   0  0  0  0  0  0  0  0  0  0  0  0
    0.8920   14.5190   -1.5130 C   0  0  0  0  0  0  0  0  0  0  0  0
   -1.4880   14.5280   -1.9100 C   0  0  1  0  0  0  0  0  0  0  0  0
    2.4620   14.0840   -1.9180 S   0  0  0  0  0  0  0  0  0  0  0  0
   -1.7010   13.1140   -1.9430 N   0  0  0  0  0  0  0  0  0  0  0  0
    0.5910   14.5750   -0.1590 N   0  0  0  0  0  0  0  0  0  0  0  0
   -1.7090   15.0680   -0.5280 C   0  0  0  0  0  0  0  0  0  0  0  0
   -2.7070   15.1380   -2.4960 C   0  0  0  0  0  0  0  0  0  0  0  0
   -0.6370   14.7630    0.4550 C   0  0  0  0  0  0  0  0  0  0  0  0
   -2.8040   15.7260   -0.3040 N   0  0  0  0  0  0  0  0  0  0  0  0
   -3.4020   15.7550   -1.5340 C   0  0  0  0  0  0  0  0  0  0  0  0
   -0.8480   14.6860    1.6630 O   0  0  0  0  0  0  0  0  0  0  0  0
  1  2  1  0
  2  3  1  0
  2  4  1  0
  4  5  1  0
  5  6  1  0
  6  7  1  0
  7  8  1  0
  7  9  1  0
  8 10  2  0
  9 11  1  1
  8 12  1  0
  9 13  1  0
  9 14  1  0
 12 15  1  0
 13 15  1  0
 13 16  2  0
 14 17  2  0
 16 17  1  0
 15 18  2  0
M  END
