mac-x0347-diamond-x0962_1_A
     RDKit          3D

 17 18  0  0  0  0  0  0  0  0999 V2000
    1.4160   14.6110   -3.4970 O   0  0  0  0  0  0  0  0  0  0  0  0
    0.6520   14.1340   -2.5030 C   0  0  0  0  0  0  0  0  0  0  0  0
    1.1250   13.4390   -1.6320 O   0  0  0  0  0  0  0  0  0  0  0  0
   -0.7540   14.5490   -2.6070 C   0  0  0  0  0  0  0  0  0  0  0  0
   -1.5530   14.5390   -1.4550 C   0  0  0  0  0  0  0  0  0  0  0  0
   -1.3220   14.9510   -3.8090 C   0  0  0  0  0  0  0  0  0  0  0  0
   -2.8920   14.9280   -1.5350 C   0  0  0  0  0  0  0  0  0  0  0  0
   -2.6130   15.3380   -3.9320 N   0  0  0  0  0  0  0  0  0  0  0  0
   -3.3600   15.3160   -2.8010 C   0  0  0  0  0  0  0  0  0  0  0  0
   -3.7920   14.9300   -0.3750 C   0  0  0  0  0  0  0  0  0  0  0  0
   -3.4200   15.3220    0.9100 C   0  0  0  0  0  0  0  0  0  0  0  0
   -5.0830   14.5160   -0.5800 C   0  0  0  0  0  0  0  0  0  0  0  0
   -5.3540   14.1580   -1.8990 C   0  0  0  0  0  0  0  0  0  0  0  0
   -4.3540   15.2800    1.9460 C   0  0  0  0  0  0  0  0  0  0  0  0
   -6.0380   14.4580    0.4280 C   0  0  0  0  0  0  0  0  0  0  0  0
   -5.4710   13.9070   -3.0020 N   0  0  0  0  0  0  0  0  0  0  0  0
   -5.6630   14.8450    1.7060 C   0  0  0  0  0  0  0  0  0  0  0  0
  1  2  1  0
  2  3  2  0
  2  4  1  0
  4  5  2  0
  4  6  1  0
  5  7  1  0
  6  8  2  0
  7  9  2  0
  8  9  1  0
  7 10  1  0
 10 11  2  0
 10 12  1  0
 12 13  1  0
 11 14  1  0
 12 15  2  0
 13 16  3  0
 14 17  2  0
 15 17  1  0
M  END
