mac-x0132-mac-x0472
     RDKit          3D

 25 28  0  0  0  0  0  0  0  0999 V2000
   -5.6800   14.6580    2.1850 N   0  0  0  0  0  0  0  0  0  0  0  0
   -6.6070   14.7710    1.1360 C   0  0  0  0  0  0  0  0  0  0  0  0
   -7.9210   14.9060    1.3830 N   0  0  0  0  0  0  0  0  0  0  0  0
   -6.1710   14.7530   -0.1480 C   0  0  0  0  0  0  0  0  0  0  0  0
   -6.9770   14.8750   -1.1990 C   0  0  0  0  0  0  0  0  0  0  0  0
   -8.7610   15.0310    0.3300 C   0  0  0  0  0  0  0  0  0  0  0  0
   -4.8650   14.5980   -0.3060 C   0  0  0  0  0  0  0  0  0  0  0  0
   -8.2930   15.0200   -0.9390 N   0  0  0  0  0  0  0  0  0  0  0  0
   -6.3840   14.8380   -2.3800 C   0  0  0  0  0  0  0  0  0  0  0  0
   -4.0820   14.5070   -1.4160 C   0  0  0  0  0  0  0  0  0  0  0  0
   -5.0120   14.6590   -2.4420 C   0  0  0  0  0  0  0  0  0  0  0  0
   -3.1600   14.4000   -2.9090 S   0  0  0  0  0  0  0  0  0  0  0  0
   -3.0730   15.7370   -2.9030 O   0  0  0  0  0  0  0  0  0  0  0  0
   -1.6220   14.2470   -2.1530 N   0  0  0  0  0  0  0  0  0  0  0  0
   -3.6620   12.7730   -2.6740 C   0  0  0  0  0  0  0  0  0  0  0  0
   -1.8110   14.4010   -0.7260 C   0  0  0  0  0  0  0  0  0  0  0  0
   -2.9410   11.6070   -2.9340 C   0  0  0  0  0  0  0  0  0  0  0  0
   -4.9360   12.4790   -2.1680 C   0  0  0  0  0  0  0  0  0  0  0  0
   -1.0770   14.0630    0.3310 N   0  0  0  0  0  0  0  0  0  0  0  0
   -3.1600   15.1190    0.0840 S   0  0  0  0  0  0  0  0  0  0  0  0
   -3.4270   10.3620   -2.7260 C   0  0  0  0  0  0  0  0  0  0  0  0
   -5.4440   11.2610   -1.9510 C   0  0  0  0  0  0  0  0  0  0  0  0
   -2.6650   14.8980    1.6860 C   0  0  0  0  0  0  0  0  0  0  0  0
   -1.4910   14.3020    1.5050 N   0  0  0  0  0  0  0  0  0  0  0  0
   -4.6770   10.1920   -2.2380 C   0  0  0  0  0  0  0  0  0  0  0  0
  1  2  1  0
  2  3  2  0
  2  4  1  0
  4  5  2  0
  3  6  1  0
  4  7  1  0
  5  8  1  0
  6  8  2  0
  5  9  1  0
  7 10  2  0
  9 11  2  0
 10 11  1  0
 10 12  1  0
 12 13  2  0
 12 14  1  0
 12 15  1  0
 14 16  1  0
 15 17  2  0
 15 18  1  0
 16 19  2  0
 16 20  1  0
 17 21  1  0
 18 22  2  0
 20 23  1  0
 19 24  1  0
 23 24  2  0
 21 25  2  0
 22 25  1  0
M  END
