mac-x0223-mac-x0590
     RDKit          3D

 30 33  0  0  0  0  0  0  0  0999 V2000
    1.2080   18.3330   -5.7990 C   0  0  0  0  0  0  0  0  0  0  0  0
    0.4050   18.1810   -4.6490 O   0  0  0  0  0  0  0  0  0  0  0  0
   -0.2800   17.0110   -4.5900 C   0  0  0  0  0  0  0  0  0  0  0  0
   -1.6350   17.1680   -4.8610 C   0  0  0  0  0  0  0  0  0  0  0  0
    0.2260   15.7340   -4.2850 C   0  0  0  0  0  0  0  0  0  0  0  0
   -2.1650   18.3890   -5.1190 O   0  0  0  0  0  0  0  0  0  0  0  0
   -2.5000   16.1170   -4.8600 C   0  0  0  0  0  0  0  0  0  0  0  0
   -0.6650   14.6340   -4.2520 C   0  0  0  0  0  0  0  0  0  0  0  0
   -0.4180   13.1500   -3.9020 C   0  0  1  0  0  0  0  0  0  0  0  0
   -2.0150   14.8780   -4.5590 C   0  0  0  0  0  0  0  0  0  0  0  0
    0.0900   12.8850   -2.4610 C   0  0  0  0  0  0  0  0  0  0  0  0
   -1.8210   12.5180   -3.8550 C   0  0  0  0  0  0  0  0  0  0  0  0
    0.6660   12.2830   -4.5770 C   0  0  2  0  0  0  0  0  0  0  0  0
   -0.2240   11.9250   -1.7560 O   0  0  0  0  0  0  0  0  0  0  0  0
    0.9810   13.7800   -1.9880 O   0  0  0  0  0  0  0  0  0  0  0  0
   -2.7860   13.0900   -2.7800 C   0  0  0  0  0  0  0  0  0  0  0  0
    1.4870   11.9860   -3.3220 C   0  0  0  0  0  0  0  0  0  0  0  0
    1.7090   12.8490   -5.5250 C   0  0  0  0  0  0  0  0  0  0  0  0
   -2.4400   14.3480   -2.0950 N   0  0  0  0  0  0  0  0  0  0  0  0
    2.9180   13.0830   -4.6540 C   0  0  0  0  0  0  0  0  0  0  0  0
    2.8630   12.1370   -3.6130 O   0  0  0  0  0  0  0  0  0  0  0  0
   -3.6020   15.2400   -2.0900 C   0  0  0  0  0  0  0  0  0  0  0  0
   -1.7440   14.1120   -0.8320 C   0  0  2  0  0  0  0  0  0  0  0  0
   -4.0350   15.7740   -0.8060 N   0  0  0  0  0  0  0  0  0  0  0  0
   -2.5450   14.3020    0.4750 C   0  0  2  0  0  0  0  0  0  0  0  0
   -0.5520   14.9310   -0.6420 N   0  0  0  0  0  0  0  0  0  0  0  0
   -3.9880   14.8150    0.2510 C   0  0  1  0  0  0  0  0  0  0  0  0
   -1.6670   15.1620    1.3090 N   0  0  0  0  0  0  0  0  0  0  0  0
   -0.3420   14.9020    0.7800 C   0  0  0  0  0  0  0  0  0  0  0  0
   -4.5140   15.5190    1.4110 N   0  0  0  0  0  0  0  0  0  0  0  0
  1  2  1  0
  2  3  1  0
  3  4  2  0
  3  5  1  0
  4  6  1  0
  4  7  1  0
  5  8  2  0
  8  9  1  0
  7 10  2  0
  8 10  1  0
  9 11  1  0
  9 12  1  1
  9 13  1  0
 11 14  2  0
 11 15  1  0
 12 16  1  0
 13 17  1  1
 13 18  1  0
 16 19  1  0
 18 20  1  0
 17 21  1  0
 20 21  1  0
 19 22  1  0
 19 23  1  0
 22 24  1  0
 23 25  1  0
 23 26  1  1
 24 27  1  0
 25 27  1  0
 25 28  1  1
 26 29  1  0
 28 29  1  0
 27 30  1  1
M  END
