mac-x0354-mac-x0357
     RDKit          3D

 17 19  0  0  0  0  0  0  0  0999 V2000
    0.5470   11.3350   -8.0510 C   0  0  0  0  0  0  0  0  0  0  0  0
    0.7000   11.6940   -6.6490 N   0  0  0  0  0  0  0  0  0  0  0  0
    1.4730   12.7420   -6.1700 N   0  0  0  0  0  0  0  0  0  0  0  0
    0.0630   11.0020   -5.6640 C   0  0  0  0  0  0  0  0  0  0  0  0
    1.2580   12.6430   -4.8310 C   0  0  0  0  0  0  0  0  0  0  0  0
    0.4590   11.5740   -4.5180 C   0  0  0  0  0  0  0  0  0  0  0  0
   -0.8260    9.9060   -5.8820 C   0  0  0  0  0  0  0  0  0  0  0  0
    0.3750   11.5130   -3.1100 C   0  0  0  0  0  0  0  0  0  0  0  0
    1.5490   13.2870   -3.5340 C   0  0  0  0  0  0  0  0  0  0  0  0
   -0.4720    8.7240   -6.5310 C   0  0  0  0  0  0  0  0  0  0  0  0
   -2.1200   10.0860   -5.4040 C   0  0  0  0  0  0  0  0  0  0  0  0
    1.0180   12.4560   -2.5300 N   0  0  0  0  0  0  0  0  0  0  0  0
   -0.2680   10.5270   -2.4660 O   0  0  0  0  0  0  0  0  0  0  0  0
    2.0630   14.3590   -3.3120 O   0  0  0  0  0  0  0  0  0  0  0  0
   -1.4320    7.7300   -6.6900 C   0  0  0  0  0  0  0  0  0  0  0  0
   -3.0710    9.0990   -5.5630 C   0  0  0  0  0  0  0  0  0  0  0  0
   -2.7290    7.9180   -6.2060 C   0  0  0  0  0  0  0  0  0  0  0  0
  1  2  1  0
  2  3  1  0
  2  4  1  0
  3  5  2  0
  4  6  2  0
  5  6  1  0
  4  7  1  0
  6  8  1  0
  5  9  1  0
  7 10  2  0
  7 11  1  0
  8 12  2  0
  9 12  1  0
  8 13  1  0
  9 14  2  0
 10 15  1  0
 11 16  2  0
 15 17  2  0
 16 17  1  0
M  END
