mac-x0139-diamond-x0421_0_A
     RDKit          3D

 19 22  0  0  0  0  0  0  0  0999 V2000
   -2.6340   14.9550   -3.0490 C   0  0  0  0  0  0  0  0  0  0  0  0
   -1.3210   14.7600   -2.3620 N   0  0  0  0  0  0  0  0  0  0  0  0
   -0.0850   14.8410   -3.1580 C   0  0  0  0  0  0  0  0  0  0  0  0
   -3.9350   14.7440   -2.1740 C   0  0  0  0  0  0  0  0  0  0  0  0
   -1.2560   14.7830   -0.9810 C   0  0  0  0  0  0  0  0  0  0  0  0
   -3.7330   14.6850   -0.6980 C   0  0  0  0  0  0  0  0  0  0  0  0
    0.1820   13.5170   -3.8790 C   0  0  0  0  0  0  0  0  0  0  0  0
   -2.4870   14.7170   -0.2520 C   0  0  0  0  0  0  0  0  0  0  0  0
   -0.1740   14.8520   -0.2820 N   0  0  0  0  0  0  0  0  0  0  0  0
   -4.6440   14.5570    0.4680 C   0  0  0  0  0  0  0  0  0  0  0  0
    0.9430   12.5620   -3.0010 C   0  0  0  0  0  0  0  0  0  0  0  0
   -2.5590   14.6940    1.1670 C   0  0  0  0  0  0  0  0  0  0  0  0
   -0.3020   14.8440    1.0930 C   0  0  0  0  0  0  0  0  0  0  0  0
   -3.7470   14.6440    1.6730 N   0  0  0  0  0  0  0  0  0  0  0  0
   -6.1170   14.8730    0.5660 C   0  0  0  0  0  0  0  0  0  0  0  0
   -5.6670   13.4500    0.5450 C   0  0  0  0  0  0  0  0  0  0  0  0
    1.8240   12.8320   -2.2130 O   0  0  0  0  0  0  0  0  0  0  0  0
    0.5560   11.2810   -3.1470 O   0  0  0  0  0  0  0  0  0  0  0  0
   -1.3780   14.7540    1.7990 N   0  0  0  0  0  0  0  0  0  0  0  0
  1  2  1  0
  2  3  1  0
  1  4  1  0
  2  5  1  0
  4  6  1  0
  3  7  1  0
  5  8  1  0
  6  8  2  0
  5  9  2  0
  6 10  1  0
  7 11  1  0
  8 12  1  0
  9 13  1  0
 10 14  1  0
 12 14  2  0
 10 15  1  0
 10 16  1  0
 15 16  1  0
 11 17  2  0
 11 18  1  0
 12 19  1  0
 13 19  2  0
M  END
