mac-x0131-diamond-x0837_0_A
     RDKit          3D

 25 28  0  0  0  0  0  0  0  0999 V2000
   -4.4320   14.3330   -3.0720 C   0  0  0  0  0  0  0  0  0  0  0  0
   -3.2720   14.4580   -2.1730 C   0  0  0  0  0  0  0  0  0  0  0  0
   -3.4550   14.3480   -0.8270 C   0  0  0  0  0  0  0  0  0  0  0  0
   -5.4700   15.0850   -2.1720 C   0  0  2  0  0  0  0  0  0  0  0  0
   -1.9180   14.7040   -2.3970 N   0  0  0  0  0  0  0  0  0  0  0  0
   -4.6980   15.7250   -1.0150 C   0  0  0  0  0  0  0  0  0  0  0  0
   -6.6210   14.2020   -1.6590 C   0  0  0  0  0  0  0  0  0  0  0  0
   -4.6990   14.0580   -0.0910 C   0  0  0  0  0  0  0  0  0  0  0  0
   -1.1910   14.8840   -3.6440 C   0  0  0  0  0  0  0  0  0  0  0  0
   -2.2620   14.5710   -0.1970 C   0  0  0  0  0  0  0  0  0  0  0  0
   -1.3110   14.7780   -1.1590 C   0  0  0  0  0  0  0  0  0  0  0  0
   -5.0300   15.6000    0.2830 C   0  0  0  0  0  0  0  0  0  0  0  0
   -7.1030   14.5530   -0.2570 C   0  0  0  0  0  0  0  0  0  0  0  0
   -8.2860   14.5530    0.0660 O   0  0  0  0  0  0  0  0  0  0  0  0
   -1.9120   14.6210    1.1190 C   0  0  0  0  0  0  0  0  0  0  0  0
   -0.0280   15.0240   -0.9130 N   0  0  0  0  0  0  0  0  0  0  0  0
   -0.6650   13.5950   -4.1480 C   0  0  0  0  0  0  0  0  0  0  0  0
   -6.1300   14.8740    0.6460 N   0  0  0  0  0  0  0  0  0  0  0  0
   -2.8050   14.4490    2.1380 N   0  0  0  0  0  0  0  0  0  0  0  0
   -0.6700   14.8650    1.4380 N   0  0  0  0  0  0  0  0  0  0  0  0
    0.1870   15.0600    0.4120 C   0  0  0  0  0  0  0  0  0  0  0  0
    0.3990   13.2390   -4.9440 C   0  0  0  0  0  0  0  0  0  0  0  0
   -1.3570   12.4730   -3.7730 O   0  0  0  0  0  0  0  0  0  0  0  0
   -0.7300   11.4120   -4.3340 C   0  0  0  0  0  0  0  0  0  0  0  0
    0.3550   11.8360   -5.0670 C   0  0  0  0  0  0  0  0  0  0  0  0
  1  2  1  0
  2  3  2  0
  4  1  1  1
  2  5  1  0
  4  6  1  0
  4  7  1  0
  3  8  1  0
  5  9  1  0
  3 10  1  0
  5 11  1  0
 10 11  2  0
  6 12  2  0
  7 13  1  0
 13 14  2  0
 10 15  1  0
 11 16  1  0
  9 17  1  0
 12 18  1  0
 13 18  1  0
 15 19  1  0
 15 20  2  0
 16 21  2  0
 20 21  1  0
 17 22  2  0
 17 23  1  0
 23 24  1  0
 22 25  1  0
 24 25  2  0
M  END
