mac-x0188-mac-x0411
     RDKit          3D

 26 29  0  0  0  0  0  0  0  0999 V2000
    0.4940   12.0970   -4.5440 C   0  0  2  0  0  0  0  0  0  0  0  0
    1.6650   12.4630   -3.6710 C   0  0  0  0  0  0  0  0  0  0  0  0
    2.8100   12.4150   -4.0500 O   0  0  0  0  0  0  0  0  0  0  0  0
    0.5900   11.6630   -5.9000 O   0  0  0  0  0  0  0  0  0  0  0  0
   -0.6060   12.9700   -4.2660 C   0  0  0  0  0  0  0  0  0  0  0  0
    1.3650   12.8030   -2.3760 O   0  0  0  0  0  0  0  0  0  0  0  0
   -1.6070   13.1740   -5.1370 O   0  0  0  0  0  0  0  0  0  0  0  0
   -0.7790   13.6130   -3.0930 C   0  0  0  0  0  0  0  0  0  0  0  0
   -0.4450   10.7100   -6.0850 C   0  0  0  0  0  0  0  0  0  0  0  0
    0.2580   13.5620   -2.0890 C   0  0  0  0  0  0  0  0  0  0  0  0
   -2.5640   13.9190   -4.4840 N   0  0  0  0  0  0  0  0  0  0  0  0
   -2.0830   14.1280   -3.2390 C   0  0  0  0  0  0  0  0  0  0  0  0
   -1.6340   10.6610   -5.2890 C   0  0  0  0  0  0  0  0  0  0  0  0
   -0.3550    9.7190   -7.0890 C   0  0  0  0  0  0  0  0  0  0  0  0
    0.2230   14.2110   -1.0570 O   0  0  0  0  0  0  0  0  0  0  0  0
    0.9900    9.5850   -8.1500 Cl  0  0  0  0  0  0  0  0  0  0  0  0
   -2.0290   11.6960   -3.9830 Cl  0  0  0  0  0  0  0  0  0  0  0  0
   -2.9090   14.7490   -2.2430 C   0  0  0  0  0  0  0  0  0  0  0  0
   -2.6320    9.7160   -5.5000 C   0  0  0  0  0  0  0  0  0  0  0  0
   -1.3710    8.7750   -7.2810 C   0  0  0  0  0  0  0  0  0  0  0  0
   -4.1560   15.2620   -2.5800 C   0  0  0  0  0  0  0  0  0  0  0  0
   -2.4820   14.7810   -0.9140 C   0  0  0  0  0  0  0  0  0  0  0  0
   -2.5090    8.7740   -6.4920 C   0  0  0  0  0  0  0  0  0  0  0  0
   -4.9720   15.7960   -1.5870 C   0  0  0  0  0  0  0  0  0  0  0  0
   -3.2970   15.3170    0.0730 C   0  0  0  0  0  0  0  0  0  0  0  0
   -4.5370   15.8180   -0.2700 C   0  0  0  0  0  0  0  0  0  0  0  0
  1  2  1  0
  2  3  2  0
  1  4  1  6
  1  5  1  0
  2  6  1  0
  5  7  1  0
  5  8  2  0
  4  9  1  0
  6 10  1  0
  8 10  1  0
  7 11  1  0
  8 12  1  0
 11 12  2  0
  9 13  2  0
  9 14  1  0
 10 15  2  0
 14 16  1  0
 13 17  1  0
 12 18  1  0
 13 19  1  0
 14 20  2  0
 18 21  2  0
 18 22  1  0
 19 23  2  0
 20 23  1  0
 21 24  1  0
 22 25  2  0
 24 26  2  0
 25 26  1  0
M  END
