mac-x0361-mac-x0161
     RDKit          3D

 22 24  0  0  0  0  0  0  0  0999 V2000
   -6.3390   14.8530    1.7120 N   0  0  0  0  0  0  0  0  0  0  0  0
   -6.4380   14.7430    0.3410 C   0  0  0  0  0  0  0  0  0  0  0  0
   -7.5670   14.7220   -0.1500 O   0  0  0  0  0  0  0  0  0  0  0  0
   -5.1290   14.6430   -0.4800 C   0  0  2  0  0  0  0  0  0  0  0  0
   -3.8620   15.3550    0.0750 C   0  0  1  0  0  0  0  0  0  0  0  0
   -5.2660   15.1220   -1.9010 C   0  0  0  0  0  0  0  0  0  0  0  0
   -3.7900   15.2450    1.5490 N   0  0  0  0  0  0  0  0  0  0  0  0
   -2.5570   14.8300   -0.6570 C   0  0  2  0  0  0  0  0  0  0  0  0
   -4.1950   14.9850   -2.6870 C   0  0  0  0  0  0  0  0  0  0  0  0
   -2.9270   14.3510   -2.1270 C   0  0  1  0  0  0  0  0  0  0  0  0
   -1.9360   13.8420    0.3020 N   0  0  0  0  0  0  0  0  0  0  0  0
   -1.3810   15.8200   -0.7480 C   0  0  0  0  0  0  0  0  0  0  0  0
   -1.8100   14.5640   -3.0200 O   0  0  0  0  0  0  0  0  0  0  0  0
   -0.1850   15.0520   -0.3860 N   0  0  0  0  0  0  0  0  0  0  0  0
   -0.6750   14.3810    0.7850 C   0  0  0  0  0  0  0  0  0  0  0  0
   -1.2870   13.4260   -3.4880 C   0  0  0  0  0  0  0  0  0  0  0  0
   -1.5410   12.5740   -4.5320 C   0  0  0  0  0  0  0  0  0  0  0  0
   -0.2280   12.9340   -2.7690 O   0  0  0  0  0  0  0  0  0  0  0  0
    0.2120   11.7440   -3.3400 N   0  0  0  0  0  0  0  0  0  0  0  0
   -0.5920   11.5560   -4.3860 C   0  0  0  0  0  0  0  0  0  0  0  0
   -0.4820   10.4810   -5.1960 O   0  0  0  0  0  0  0  0  0  0  0  0
   -1.6550   10.2210   -5.9610 C   0  0  0  0  0  0  0  0  0  0  0  0
  1  2  1  0
  2  3  2  0
  4  2  1  1
  4  5  1  0
  4  6  1  0
  5  7  1  1
  5  8  1  0
  6  9  2  0
  8 10  1  0
  9 10  1  0
  8 11  1  0
  8 12  1  6
 10 13  1  6
 12 14  1  0
 11 15  1  0
 14 15  1  0
 13 16  1  0
 16 17  2  0
 16 18  1  0
 18 19  1  0
 17 20  1  0
 19 20  2  0
 20 21  1  0
 21 22  1  0
M  END
