mac-x0402-mac-x0441
     RDKit          3D

 31 34  0  0  0  0  0  0  0  0999 V2000
   -1.8270   14.8930   -3.4620 Cl  0  0  0  0  0  0  0  0  0  0  0  0
   -3.0520   14.9270   -2.2420 C   0  0  0  0  0  0  0  0  0  0  0  0
   -4.3410   15.0860   -2.7280 C   0  0  0  0  0  0  0  0  0  0  0  0
   -2.7670   14.8010   -0.8510 C   0  0  0  0  0  0  0  0  0  0  0  0
   -1.3630   14.6270   -0.2850 C   0  0  0  0  0  0  0  0  0  0  0  0
   -3.9090   14.8510   -0.0100 C   0  0  0  0  0  0  0  0  0  0  0  0
   -5.4260   15.1260   -1.8690 C   0  0  0  0  0  0  0  0  0  0  0  0
   -0.6310   13.4380   -0.8840 C   0  0  0  0  0  0  0  0  0  0  0  0
   -5.2070   15.0040   -0.4960 C   0  0  0  0  0  0  0  0  0  0  0  0
   -4.0140   14.7450    1.7090 S   0  0  0  0  0  0  0  0  0  0  0  0
    0.4700   13.8280   -1.8700 C   0  0  0  0  0  0  0  0  0  0  0  0
   -5.7190   14.9030    1.6250 C   0  0  0  0  0  0  0  0  0  0  0  0
   -6.2110   15.0250    0.4330 N   0  0  0  0  0  0  0  0  0  0  0  0
   -6.5150   14.9090    2.7050 N   0  0  0  0  0  0  0  0  0  0  0  0
    1.1010   12.6270   -2.3980 N   0  0  0  0  0  0  0  0  0  0  0  0
    1.0550   12.2370   -3.6240 C   0  0  0  0  0  0  0  0  0  0  0  0
    1.7090   11.0980   -3.8400 O   0  0  0  0  0  0  0  0  0  0  0  0
    0.3900   12.8670   -4.8380 C   0  0  0  0  0  0  0  0  0  0  0  0
    0.0980   11.9410   -5.9470 N   0  0  0  0  0  0  0  0  0  0  0  0
    0.9330   11.9070   -7.0290 N   0  0  0  0  0  0  0  0  0  0  0  0
   -0.9400   11.0640   -6.0720 C   0  0  0  0  0  0  0  0  0  0  0  0
    0.3900   10.9720   -7.8650 C   0  0  0  0  0  0  0  0  0  0  0  0
   -0.7760   10.4390   -7.2890 C   0  0  0  0  0  0  0  0  0  0  0  0
   -2.0470   10.8000   -5.1140 C   0  0  0  0  0  0  0  0  0  0  0  0
    0.8960   10.5090   -9.2180 C   0  0  0  0  0  0  0  0  0  0  0  0
   -1.7020    9.4000   -7.8070 C   0  0  0  0  0  0  0  0  0  0  0  0
   -3.0930    9.8480   -5.7300 C   0  0  0  0  0  0  0  0  0  0  0  0
    1.5630    9.3260   -9.1590 F   0  0  0  0  0  0  0  0  0  0  0  0
   -0.1410   10.3000  -10.0620 F   0  0  0  0  0  0  0  0  0  0  0  0
    1.6780   11.3670   -9.8970 F   0  0  0  0  0  0  0  0  0  0  0  0
   -2.4780    8.7670   -6.6380 C   0  0  0  0  0  0  0  0  0  0  0  0
  1  2  1  0
  2  3  2  0
  2  4  1  0
  4  5  1  0
  4  6  2  0
  3  7  1  0
  5  8  1  0
  6  9  1  0
  7  9  2  0
  6 10  1  0
  8 11  1  0
 10 12  1  0
  9 13  1  0
 12 13  2  0
 12 14  1  0
 11 15  1  0
 15 16  2  3
 16 17  1  0
 16 18  1  0
 18 19  1  0
 19 20  1  0
 19 21  1  0
 20 22  2  0
 21 23  2  0
 22 23  1  0
 21 24  1  0
 22 25  1  0
 23 26  1  0
 24 27  1  0
 25 28  1  0
 25 29  1  0
 25 30  1  0
 26 31  1  0
 27 31  1  0
M  END
