mac-x0358-mac-x0212
     RDKit          3D

 25 26  0  0  0  0  0  0  0  0999 V2000
    1.6840   12.7110   -2.3810 O   0  0  0  0  0  0  0  0  0  0  0  0
    0.9810   11.9800   -3.2760 C   0  0  0  0  0  0  0  0  0  0  0  0
    0.3460   10.9880   -2.9390 O   0  0  0  0  0  0  0  0  0  0  0  0
    1.0000   12.5000   -4.7040 C   0  0  0  0  0  0  0  0  0  0  0  0
   -0.3780   12.9260   -5.0890 C   0  0  0  0  0  0  0  0  0  0  0  0
   -1.2250   12.2380   -5.9530 C   0  0  0  0  0  0  0  0  0  0  0  0
   -0.8440   14.0650   -4.5320 C   0  0  0  0  0  0  0  0  0  0  0  0
   -0.7520   11.0800   -6.4940 O   0  0  0  0  0  0  0  0  0  0  0  0
   -2.5150   12.6940   -6.2640 C   0  0  0  0  0  0  0  0  0  0  0  0
   -2.1050   14.4990   -4.8120 C   0  0  0  0  0  0  0  0  0  0  0  0
   -2.3700   15.5940   -4.1000 O   0  0  0  0  0  0  0  0  0  0  0  0
   -2.9750   13.8660   -5.6740 C   0  0  0  0  0  0  0  0  0  0  0  0
   -1.8780   15.0940   -2.8920 C   0  0  0  0  0  0  0  0  0  0  0  0
   -0.7460   14.6860   -2.6700 O   0  0  0  0  0  0  0  0  0  0  0  0
   -2.8910   15.0850   -1.8310 C   0  0  0  0  0  0  0  0  0  0  0  0
   -2.4630   14.6620   -0.5690 C   0  0  0  0  0  0  0  0  0  0  0  0
   -4.2070   15.4760   -2.0290 C   0  0  0  0  0  0  0  0  0  0  0  0
   -3.3520   14.6350    0.4960 C   0  0  0  0  0  0  0  0  0  0  0  0
   -5.1010   15.4530   -0.9610 C   0  0  0  0  0  0  0  0  0  0  0  0
   -4.6640   15.0290    0.3010 C   0  0  0  0  0  0  0  0  0  0  0  0
   -5.5800   14.9990    1.3820 N   0  0  0  0  0  0  0  0  0  0  0  0
   -7.0960   14.3460    1.0930 S   0  0  0  0  0  0  0  0  0  0  0  0
   -6.7530   12.6210    1.4040 C   0  0  0  0  0  0  0  0  0  0  0  0
   -7.9450   14.8400    2.1570 O   0  0  0  0  0  0  0  0  0  0  0  0
   -7.4700   14.5160   -0.2930 O   0  0  0  0  0  0  0  0  0  0  0  0
  1  2  1  0
  2  3  2  0
  2  4  1  0
  4  5  1  0
  5  6  2  0
  5  7  1  0
  6  8  1  0
  6  9  1  0
  7 10  2  0
 10 11  1  0
  9 12  2  0
 10 12  1  0
 11 13  1  0
 13 14  2  0
 13 15  1  0
 15 16  2  0
 15 17  1  0
 16 18  1  0
 17 19  2  0
 18 20  2  0
 19 20  1  0
 20 21  1  0
 22 21  1  0
 22 23  1  0
 22 24  2  0
 22 25  2  0
M  END
