mac-x0301-mac-x0385
     RDKit          3D

 15 16  0  0  0  0  0  0  0  0999 V2000
    0.6430   14.0610   -3.1380 O   0  0  0  0  0  0  0  0  0  0  0  0
   -0.7020   14.0690   -3.2400 C   0  0  0  0  0  0  0  0  0  0  0  0
   -1.2710   13.6940   -4.2530 O   0  0  0  0  0  0  0  0  0  0  0  0
   -1.4140   14.6100   -2.0150 C   0  0  2  0  0  0  0  0  0  0  0  0
   -1.3280   13.7970   -0.7370 C   0  0  2  0  0  0  0  0  0  0  0  0
   -2.9120   14.8230   -2.3280 C   0  0  0  0  0  0  0  0  0  0  0  0
   -1.8290   14.6760    0.3840 C   0  0  1  0  0  0  0  0  0  0  0  0
   -3.7650   15.3790   -1.1560 C   0  0  1  0  0  0  0  0  0  0  0  0
   -0.0120   13.4500   -0.2600 O   0  0  0  0  0  0  0  0  0  0  0  0
   -5.2550   15.1490   -1.3950 C   0  0  0  0  0  0  0  0  0  0  0  0
   -3.3120   15.0110    0.3010 C   0  0  2  0  0  0  0  0  0  0  0  0
   -1.3740   14.0530    1.5530 O   0  0  0  0  0  0  0  0  0  0  0  0
   -0.0380   13.9220    1.1290 C   0  0  0  0  0  0  0  0  0  0  0  0
   -3.4740   16.1700    1.1980 C   0  0  0  0  0  0  0  0  0  0  0  0
   -4.1610   13.9690    0.8950 N   0  0  0  0  0  0  0  0  0  0  0  0
  1  2  1  0
  2  3  2  0
  4  2  1  6
  4  5  1  0
  4  6  1  0
  5  7  1  0
  6  8  1  0
  5  9  1  1
  8 10  1  6
  7 11  1  0
  8 11  1  0
  7 12  1  1
  9 13  1  0
 12 13  1  0
 11 14  1  1
 11 15  1  0
M  END
