mac-x0365-mac-x0455
     RDKit          3D

 20 21  0  0  0  0  0  0  0  0999 V2000
   -0.2510   14.8980   -1.5940 C   0  0  0  0  0  0  0  0  0  0  0  0
   -1.4470   14.3930   -2.2570 C   0  0  0  0  0  0  0  0  0  0  0  0
   -0.8990   13.7050   -3.2740 C   0  0  0  0  0  0  0  0  0  0  0  0
    0.3540   15.9070   -1.7890 O   0  0  0  0  0  0  0  0  0  0  0  0
    0.1960   13.9780   -0.7230 O   0  0  0  0  0  0  0  0  0  0  0  0
   -2.8440   14.6210   -1.7290 C   0  0  0  0  0  0  0  0  0  0  0  0
    0.4620   13.8520   -3.3510 O   0  0  0  0  0  0  0  0  0  0  0  0
   -3.9610   14.7800   -2.5750 C   0  0  0  0  0  0  0  0  0  0  0  0
   -3.0730   14.6880   -0.3280 C   0  0  0  0  0  0  0  0  0  0  0  0
   -1.2680   12.8070   -4.3550 C   0  0  0  0  0  0  0  0  0  0  0  0
   -5.2320   14.9840   -2.0280 C   0  0  0  0  0  0  0  0  0  0  0  0
   -4.3590   14.8980    0.2050 C   0  0  0  0  0  0  0  0  0  0  0  0
   -2.4820   12.1450   -4.4680 C   0  0  0  0  0  0  0  0  0  0  0  0
   -0.2600   12.6040   -5.3140 C   0  0  0  0  0  0  0  0  0  0  0  0
   -6.2910   15.1270   -2.8300 F   0  0  0  0  0  0  0  0  0  0  0  0
   -5.4330   15.0420   -0.6590 C   0  0  0  0  0  0  0  0  0  0  0  0
   -2.6780   11.2700   -5.5400 C   0  0  0  0  0  0  0  0  0  0  0  0
   -0.4540   11.7390   -6.3760 C   0  0  0  0  0  0  0  0  0  0  0  0
   -6.6890   15.2370   -0.1600 O   0  0  0  0  0  0  0  0  0  0  0  0
   -1.6650   11.0680   -6.4850 C   0  0  0  0  0  0  0  0  0  0  0  0
  1  2  1  0
  2  3  2  3
  1  4  2  0
  1  5  1  0
  2  6  1  0
  3  7  1  0
  6  8  2  0
  6  9  1  0
  3 10  1  0
  8 11  1  0
  9 12  2  0
 10 13  2  0
 10 14  1  0
 11 15  1  0
 11 16  2  0
 12 16  1  0
 13 17  1  0
 14 18  2  0
 16 19  1  0
 17 20  2  0
 18 20  1  0
M  END
