mac-x0396-mac-x0394
     RDKit          3D

 24 25  0  0  0  0  0  0  0  0999 V2000
   -2.9910   14.8510    1.2870 N   0  0  0  0  0  0  0  0  0  0  0  0
   -3.6090   14.9340    0.0580 C   0  0  0  0  0  0  0  0  0  0  0  0
   -2.9870   15.0530   -1.0610 N   0  0  0  0  0  0  0  0  0  0  0  0
   -5.1080   14.8630    0.0470 C   0  0  0  0  0  0  0  0  0  0  0  0
   -3.6350   15.1790   -2.3640 C   0  0  0  0  0  0  0  0  0  0  0  0
   -5.8920   15.1050   -1.0800 C   0  0  0  0  0  0  0  0  0  0  0  0
   -5.7710   14.5260    1.2260 C   0  0  0  0  0  0  0  0  0  0  0  0
   -3.4830   13.9160   -3.2000 C   0  0  0  0  0  0  0  0  0  0  0  0
   -7.2490   15.0280   -1.0890 N   0  0  0  0  0  0  0  0  0  0  0  0
   -7.1590   14.4420    1.2460 C   0  0  0  0  0  0  0  0  0  0  0  0
   -3.8780   14.1420   -4.6660 C   0  0  0  0  0  0  0  0  0  0  0  0
   -7.8480   14.6980    0.0730 C   0  0  0  0  0  0  0  0  0  0  0  0
   -3.2080   15.3640   -5.2980 C   0  0  0  0  0  0  0  0  0  0  0  0
   -1.7200   15.4480   -5.0860 C   0  0  0  0  0  0  0  0  0  0  0  0
   -0.9550   14.3020   -4.8140 C   0  0  0  0  0  0  0  0  0  0  0  0
   -1.0870   16.6820   -5.1630 C   0  0  0  0  0  0  0  0  0  0  0  0
    0.4350   14.3860   -4.6160 C   0  0  0  0  0  0  0  0  0  0  0  0
    0.2790   16.7680   -4.9720 C   0  0  0  0  0  0  0  0  0  0  0  0
    1.0020   18.3020   -5.0850 Cl  0  0  0  0  0  0  0  0  0  0  0  0
    1.2440   13.1460   -4.3210 C   0  0  0  0  0  0  0  0  0  0  0  0
    1.0480   15.6400   -4.6980 C   0  0  0  0  0  0  0  0  0  0  0  0
    0.8570   12.4770   -3.0220 C   0  0  0  0  0  0  0  0  0  0  0  0
    0.2200   11.3050   -3.2290 O   0  0  0  0  0  0  0  0  0  0  0  0
    1.0490   12.8670   -1.8850 O   0  0  0  0  0  0  0  0  0  0  0  0
  1  2  1  0
  2  3  2  3
  2  4  1  0
  3  5  1  0
  4  6  2  0
  4  7  1  0
  5  8  1  0
  6  9  1  0
  7 10  2  0
  8 11  1  0
  9 12  2  0
 10 12  1  0
 11 13  1  0
 13 14  1  0
 14 15  2  0
 14 16  1  0
 15 17  1  0
 16 18  2  0
 18 19  1  0
 17 20  1  0
 17 21  2  0
 18 21  1  0
 20 22  1  0
 22 23  1  0
 22 24  2  0
M  END
