mac-x0365-diamond-x0962_2_B
     RDKit          3D

 20 21  0  0  0  0  0  0  0  0999 V2000
   -0.7590   14.8110   -1.4600 O   0  0  0  0  0  0  0  0  0  0  0  0
   -1.8050   14.8060   -2.3010 C   0  0  0  0  0  0  0  0  0  0  0  0
   -1.6470   14.7310   -3.5040 O   0  0  0  0  0  0  0  0  0  0  0  0
   -3.1150   14.9000   -1.6070 C   0  0  0  0  0  0  0  0  0  0  0  0
   -4.2620   15.0080   -2.3880 C   0  0  0  0  0  0  0  0  0  0  0  0
   -3.2320   14.8790   -0.2110 C   0  0  0  0  0  0  0  0  0  0  0  0
   -5.5100   15.0850   -1.7790 C   0  0  0  0  0  0  0  0  0  0  0  0
   -4.4930   14.9590    0.3940 C   0  0  0  0  0  0  0  0  0  0  0  0
   -6.5810   15.1820   -2.5740 F   0  0  0  0  0  0  0  0  0  0  0  0
   -5.6560   15.0590   -0.3850 C   0  0  0  0  0  0  0  0  0  0  0  0
   -6.9240   15.1250    0.1400 O   0  0  0  0  0  0  0  0  0  0  0  0
   -8.1220   15.4390   -0.5860 C   0  0  0  0  0  0  0  0  0  0  0  0
   -9.3400   14.8080    0.1230 C   0  0  0  0  0  0  0  0  0  0  0  0
   -9.9650   15.5340    1.3560 C   0  0  2  0  0  0  0  0  0  0  0  0
  -10.2800   16.9180    1.1160 N   0  0  0  0  0  0  0  0  0  0  0  0
   -9.1980   15.3370    2.6320 C   0  0  0  0  0  0  0  0  0  0  0  0
   -9.1000   16.2670    3.6520 N   0  0  0  0  0  0  0  0  0  0  0  0
   -8.4590   14.2660    3.0930 C   0  0  0  0  0  0  0  0  0  0  0  0
   -8.3250   15.7240    4.6430 C   0  0  0  0  0  0  0  0  0  0  0  0
   -7.9340   14.5130    4.3310 N   0  0  0  0  0  0  0  0  0  0  0  0
  1  2  1  0
  2  3  2  0
  2  4  1  0
  4  5  2  0
  4  6  1  0
  5  7  1  0
  6  8  2  0
  7  9  1  0
  7 10  2  0
  8 10  1  0
 10 11  1  0
 11 12  1  0
 12 13  1  0
 13 14  1  0
 14 15  1  6
 14 16  1  0
 16 17  1  0
 16 18  2  0
 17 19  1  0
 18 20  1  0
 19 20  2  0
M  END
