mac-x0402-mac-x1493
     RDKit          3D

 13 14  0  0  0  0  0  0  0  0999 V2000
   -2.2500   14.9300   -3.2650 N   0  0  0  0  0  0  0  0  0  0  0  0
   -0.8800   14.7510   -2.9140 C   0  0  0  0  0  0  0  0  0  0  0  0
   -0.7640   14.6680   -1.5180 O   0  0  0  0  0  0  0  0  0  0  0  0
   -3.2380   14.9330   -2.2810 C   0  0  0  0  0  0  0  0  0  0  0  0
   -4.5520   15.0060   -2.7290 C   0  0  0  0  0  0  0  0  0  0  0  0
   -3.0010   14.8680   -0.9010 C   0  0  0  0  0  0  0  0  0  0  0  0
   -4.0920   14.8800   -0.0260 C   0  0  0  0  0  0  0  0  0  0  0  0
   -5.6320   15.0150   -1.8560 C   0  0  0  0  0  0  0  0  0  0  0  0
   -5.3990   14.9480   -0.4850 C   0  0  0  0  0  0  0  0  0  0  0  0
   -4.1130   14.8210    1.6860 S   0  0  0  0  0  0  0  0  0  0  0  0
   -5.8310   14.8860    1.6590 C   0  0  0  0  0  0  0  0  0  0  0  0
   -6.3720   14.9420    0.4800 N   0  0  0  0  0  0  0  0  0  0  0  0
   -6.5840   14.8850    2.7700 N   0  0  0  0  0  0  0  0  0  0  0  0
  1  2  1  0
  2  3  1  0
  1  4  1  0
  4  5  2  0
  4  6  1  0
  6  7  2  0
  5  8  1  0
  7  9  1  0
  8  9  2  0
  7 10  1  0
 10 11  1  0
  9 12  1  0
 11 12  2  0
 11 13  1  0
M  END
