mac-x0116-mac-x0179
     RDKit          3D

 32 36  0  0  0  0  0  0  0  0999 V2000
   -6.0700   14.7640    1.4490 C   0  0  0  0  0  0  0  0  0  0  0  0
   -4.6690   15.1630    1.6030 N   0  0  0  0  0  0  0  0  0  0  0  0
   -3.8870   15.0190    0.4520 C   0  0  0  0  0  0  0  0  0  0  0  0
   -6.4560   13.3180    1.5280 C   0  0  0  0  0  0  0  0  0  0  0  0
   -6.3910   12.6040    0.3660 O   0  0  0  0  0  0  0  0  0  0  0  0
   -6.8920   12.4960    2.5520 C   0  0  0  0  0  0  0  0  0  0  0  0
   -7.1060   11.2280    1.9890 C   0  0  0  0  0  0  0  0  0  0  0  0
   -6.7880   11.3440    0.6580 C   0  0  0  0  0  0  0  0  0  0  0  0
   -4.4560   15.1880   -0.7680 N   0  0  0  0  0  0  0  0  0  0  0  0
   -2.5110   14.6980    0.4980 C   0  0  0  0  0  0  0  0  0  0  0  0
   -3.7040   15.0390   -1.8710 C   0  0  0  0  0  0  0  0  0  0  0  0
   -1.8680   14.5690   -0.7310 C   0  0  0  0  0  0  0  0  0  0  0  0
   -1.6300   14.4720    1.5420 N   0  0  0  0  0  0  0  0  0  0  0  0
   -2.3990   14.7250   -1.9530 N   0  0  0  0  0  0  0  0  0  0  0  0
   -0.5740   14.2450   -0.4280 N   0  0  0  0  0  0  0  0  0  0  0  0
   -0.4810   14.2050    0.9490 C   0  0  0  0  0  0  0  0  0  0  0  0
    0.4780   13.9930   -1.4140 C   0  0  0  0  0  0  0  0  0  0  0  0
    0.6880   12.5620   -1.4840 O   0  0  0  0  0  0  0  0  0  0  0  0
    0.6010   11.8200   -2.6500 C   0  0  0  0  0  0  0  0  0  0  0  0
    0.4630   10.5900   -2.5970 O   0  0  0  0  0  0  0  0  0  0  0  0
    0.6900   12.6020   -3.9870 C   0  0  0  0  0  0  0  0  0  0  0  0
    0.1080   11.8620   -5.1210 N   0  0  0  0  0  0  0  0  0  0  0  0
    0.7590   11.5450   -6.2900 C   0  0  0  0  0  0  0  0  0  0  0  0
   -1.0900   11.2070   -5.0440 C   0  0  0  0  0  0  0  0  0  0  0  0
    1.7800   12.0120   -6.7350 O   0  0  0  0  0  0  0  0  0  0  0  0
   -1.9670   11.3470   -4.2190 O   0  0  0  0  0  0  0  0  0  0  0  0
   -0.0190   10.4760   -6.9330 C   0  0  0  0  0  0  0  0  0  0  0  0
   -1.1490   10.2680   -6.1650 C   0  0  0  0  0  0  0  0  0  0  0  0
    0.2240    9.7370   -8.0800 C   0  0  0  0  0  0  0  0  0  0  0  0
   -2.0990    9.3190   -6.4900 C   0  0  0  0  0  0  0  0  0  0  0  0
   -0.7250    8.7660   -8.4320 C   0  0  0  0  0  0  0  0  0  0  0  0
   -1.8780    8.5580   -7.6430 C   0  0  0  0  0  0  0  0  0  0  0  0
  1  2  1  0
  2  3  1  0
  1  4  1  0
  4  5  1  0
  4  6  2  0
  6  7  1  0
  5  8  1  0
  7  8  2  0
  3  9  2  0
  3 10  1  0
  9 11  1  0
 10 12  2  0
 10 13  1  0
 11 14  2  0
 12 14  1  0
 12 15  1  0
 13 16  2  0
 15 16  1  0
 15 17  1  0
 17 18  1  0
 18 19  1  0
 19 20  2  0
 19 21  1  0
 21 22  1  0
 22 23  1  0
 22 24  1  0
 23 25  2  0
 24 26  2  0
 23 27  1  0
 24 28  1  0
 27 28  2  0
 27 29  1  0
 28 30  1  0
 29 31  2  0
 30 32  2  0
 31 32  1  0
M  END
