mac-x0546-mac-x0148
     RDKit          3D

 32 37  0  0  0  0  0  0  0  0999 V2000
   -3.4310   16.2540   -5.6420 C   0  0  0  0  0  0  0  0  0  0  0  0
   -2.7270   17.4250   -5.1440 O   0  0  0  0  0  0  0  0  0  0  0  0
   -1.4300   17.1270   -5.1120 C   0  0  0  0  0  0  0  0  0  0  0  0
   -1.0880   15.8920   -5.2400 C   0  0  0  0  0  0  0  0  0  0  0  0
   -0.4400   18.1680   -4.9490 C   0  0  0  0  0  0  0  0  0  0  0  0
    0.3080   15.5440   -5.2470 C   0  0  1  0  0  0  0  0  0  0  0  0
    0.8460   17.8880   -4.6030 C   0  0  0  0  0  0  0  0  0  0  0  0
    1.1210   16.4450   -4.4220 C   0  0  0  0  0  0  0  0  0  0  0  0
    0.7230   14.2940   -4.6950 C   0  0  0  0  0  0  0  0  0  0  0  0
    1.9820   15.8220   -3.6690 N   0  0  0  0  0  0  0  0  0  0  0  0
    1.7220   14.4960   -3.8480 C   0  0  0  0  0  0  0  0  0  0  0  0
    0.0070   13.0790   -5.0820 C   0  0  2  0  0  0  0  0  0  0  0  0
   -1.4290   13.5910   -5.0790 C   0  0  1  0  0  0  0  0  0  0  0  0
    0.1910   12.0850   -4.0260 C   0  0  0  0  0  0  0  0  0  0  0  0
   -2.5210   12.5690   -5.3050 C   0  0  0  0  0  0  0  0  0  0  0  0
   -1.8620   14.1400   -3.6900 C   0  0  1  0  0  0  0  0  0  0  0  0
    0.0670   12.7950   -2.6830 C   0  0  1  0  0  0  0  0  0  0  0  0
   -3.6940   13.3150   -4.9660 O   0  0  0  0  0  0  0  0  0  0  0  0
   -3.3810   13.9780   -3.7220 C   0  0  0  0  0  0  0  0  0  0  0  0
   -1.1840   13.5540   -2.4850 N   0  0  0  0  0  0  0  0  0  0  0  0
    0.3650   11.7440   -1.7320 N   0  0  0  0  0  0  0  0  0  0  0  0
   -1.4270   14.0200   -1.1700 C   0  0  0  0  0  0  0  0  0  0  0  0
    0.4130   10.6800   -2.4220 C   0  0  0  0  0  0  0  0  0  0  0  0
   -0.4190   13.8480   -0.2270 N   0  0  0  0  0  0  0  0  0  0  0  0
   -2.5360   14.6190   -0.6870 C   0  0  0  0  0  0  0  0  0  0  0  0
    0.1510   10.7280   -3.7170 O   0  0  0  0  0  0  0  0  0  0  0  0
   -0.5540   14.2030    1.0860 C   0  0  0  0  0  0  0  0  0  0  0  0
   -2.6020   14.9960    0.7530 C   0  0  0  0  0  0  0  0  0  0  0  0
   -3.8160   15.0470   -1.1730 C   0  0  0  0  0  0  0  0  0  0  0  0
   -1.5780   14.7610    1.6220 N   0  0  0  0  0  0  0  0  0  0  0  0
   -3.7360   15.5440    1.0730 N   0  0  0  0  0  0  0  0  0  0  0  0
   -4.4450   15.5660   -0.1130 C   0  0  0  0  0  0  0  0  0  0  0  0
  1  2  1  0
  2  3  1  0
  3  4  2  0
  3  5  1  0
  6  4  1  1
  5  7  2  0
  6  8  1  0
  7  8  1  0
  6  9  1  0
  8 10  2  0
  9 11  2  0
 10 11  1  0
 12  9  1  1
 12 13  1  0
 12 14  1  0
 13 15  1  1
 13 16  1  0
 14 17  1  0
 15 18  1  0
 16 19  1  1
 18 19  1  0
 16 20  1  0
 17 20  1  0
 17 21  1  1
 20 22  1  0
 21 23  2  3
 22 24  1  0
 22 25  2  0
 23 26  1  0
 24 27  1  0
 25 28  1  0
 25 29  1  0
 27 30  2  0
 28 30  1  0
 28 31  2  0
 29 32  2  0
 31 32  1  0
M  END
