mac-x0178-mac-x0576
     RDKit          3D

 26 28  0  0  0  0  0  0  0  0999 V2000
   -0.1460   18.3440   -6.5500 N   0  0  0  0  0  0  0  0  0  0  0  0
   -1.4670   17.6830   -5.7800 S   0  0  0  0  0  0  0  0  0  0  0  0
   -2.4300   17.2670   -6.7750 O   0  0  0  0  0  0  0  0  0  0  0  0
   -1.8400   18.6200   -4.7450 O   0  0  0  0  0  0  0  0  0  0  0  0
   -0.8090   16.2460   -4.9870 C   0  0  0  0  0  0  0  0  0  0  0  0
   -1.4230   15.9640   -3.8590 C   0  0  0  0  0  0  0  0  0  0  0  0
    0.2240   15.4130   -5.3860 C   0  0  0  0  0  0  0  0  0  0  0  0
   -1.0880   14.8990   -3.0950 C   0  0  0  0  0  0  0  0  0  0  0  0
    0.5980   14.2970   -4.6270 C   0  0  0  0  0  0  0  0  0  0  0  0
   -1.9610   14.9960   -2.0770 N   0  0  0  0  0  0  0  0  0  0  0  0
   -0.0610   14.0090   -3.4410 C   0  0  0  0  0  0  0  0  0  0  0  0
    0.3750   12.8150   -2.6630 C   0  0  0  0  0  0  0  0  0  0  0  0
   -1.7580   15.0930   -0.8520 C   0  0  0  0  0  0  0  0  0  0  0  0
    1.2230   12.7920   -1.7970 O   0  0  0  0  0  0  0  0  0  0  0  0
   -0.2740   11.6970   -3.0380 O   0  0  0  0  0  0  0  0  0  0  0  0
   -0.6310   15.0620   -0.0800 N   0  0  0  0  0  0  0  0  0  0  0  0
   -3.0740   15.3010   -0.1650 C   0  0  2  0  0  0  0  0  0  0  0  0
   -0.8120   14.1880    1.0260 C   0  0  1  0  0  0  0  0  0  0  0  0
   -3.1600   14.2600    0.9140 C   0  0  1  0  0  0  0  0  0  0  0  0
   -4.1560   15.0860   -1.1570 N   0  0  0  0  0  0  0  0  0  0  0  0
    0.1480   14.2090    2.0660 N   0  0  0  0  0  0  0  0  0  0  0  0
   -2.0220   14.3660    1.7930 N   0  0  0  0  0  0  0  0  0  0  0  0
   -4.3390   14.5530    1.6470 N   0  0  0  0  0  0  0  0  0  0  0  0
   -5.4240   15.3810   -0.4810 C   0  0  0  0  0  0  0  0  0  0  0  0
   -5.5000   14.9070    0.9930 C   0  0  0  0  0  0  0  0  0  0  0  0
   -6.5750   14.8360    1.5760 O   0  0  0  0  0  0  0  0  0  0  0  0
  2  1  1  0
  2  3  2  0
  2  4  2  0
  2  5  1  0
  5  6  2  0
  5  7  1  0
  6  8  1  0
  7  9  2  0
  8 10  1  0
  8 11  2  0
  9 11  1  0
 11 12  1  0
 10 13  2  3
 12 14  2  0
 12 15  1  0
 13 16  1  0
 13 17  1  0
 16 18  1  0
 17 19  1  0
 17 20  1  6
 18 21  1  1
 18 22  1  0
 19 22  1  1
 19 23  1  0
 20 24  1  0
 23 25  1  0
 24 25  1  0
 25 26  2  0
M  END
