mac-x0439-mac-x0346
     RDKit          3D

 26 28  0  0  0  0  0  0  0  0999 V2000
   -3.2980   15.9060   -5.4060 Cl  0  0  0  0  0  0  0  0  0  0  0  0
   -1.7810   16.7020   -5.4360 C   0  0  0  0  0  0  0  0  0  0  0  0
   -0.6020   15.9050   -5.0560 C   0  0  2  0  0  0  0  0  0  0  0  0
   -1.6580   17.9800   -5.8220 C   0  0  0  0  0  0  0  0  0  0  0  0
   -0.4920   14.8270   -4.0430 C   0  0  0  0  0  0  0  0  0  0  0  0
    0.5820   16.7410   -4.6890 C   0  0  0  0  0  0  0  0  0  0  0  0
   -0.3490   18.6080   -5.8720 C   0  0  0  0  0  0  0  0  0  0  0  0
   -1.5770   13.7600   -3.9050 C   0  0  0  0  0  0  0  0  0  0  0  0
    0.7160   15.0150   -3.4380 C   0  0  0  0  0  0  0  0  0  0  0  0
    1.3640   16.1870   -3.8220 N   0  0  0  0  0  0  0  0  0  0  0  0
    0.7640   18.0550   -5.3450 C   0  0  0  0  0  0  0  0  0  0  0  0
    1.3960   14.1500   -2.4210 C   0  0  0  0  0  0  0  0  0  0  0  0
   -2.3690   13.6700   -2.5680 C   0  0  0  0  0  0  0  0  0  0  0  0
    2.7430   14.3480   -2.4950 O   0  0  0  0  0  0  0  0  0  0  0  0
    0.8510   13.3710   -1.6670 O   0  0  0  0  0  0  0  0  0  0  0  0
   -3.5410   14.5360   -2.3900 O   0  0  0  0  0  0  0  0  0  0  0  0
   -3.7280   14.8270   -1.0540 C   0  0  0  0  0  0  0  0  0  0  0  0
   -5.0030   14.9800   -0.4200 C   0  0  0  0  0  0  0  0  0  0  0  0
   -2.5830   14.9680   -0.2740 C   0  0  0  0  0  0  0  0  0  0  0  0
   -6.3660   14.8740   -1.0490 C   0  0  0  0  0  0  0  0  0  0  0  0
   -2.6350   15.2500    1.0770 C   0  0  0  0  0  0  0  0  0  0  0  0
   -5.0190   15.2620    0.9570 C   0  0  0  0  0  0  0  0  0  0  0  0
   -7.4830   14.9240   -0.2310 N   0  0  0  0  0  0  0  0  0  0  0  0
   -6.5080   14.7480   -2.2590 O   0  0  0  0  0  0  0  0  0  0  0  0
   -3.8560   15.3980    1.6940 C   0  0  0  0  0  0  0  0  0  0  0  0
   -7.4800   14.1890    0.9820 O   0  0  0  0  0  0  0  0  0  0  0  0
  1  2  1  0
  3  2  1  1
  2  4  2  0
  3  5  1  0
  3  6  1  0
  4  7  1  0
  5  8  1  0
  5  9  2  0
  6 10  2  0
  9 10  1  0
  6 11  1  0
  7 11  2  0
  9 12  1  0
  8 13  1  0
 12 14  1  0
 12 15  2  0
 13 16  1  0
 16 17  1  0
 17 18  2  0
 17 19  1  0
 18 20  1  0
 19 21  2  0
 18 22  1  0
 20 23  1  0
 20 24  2  0
 21 25  1  0
 22 25  2  0
 23 26  1  0
M  END
