mac-x0284-mac-x0568
     RDKit          3D

 20 21  0  0  0  0  0  0  0  0999 V2000
   -3.7680   15.1940    0.3690 C   0  0  2  0  0  0  0  0  0  0  0  0
   -3.5890   16.5190    0.7030 O   0  0  0  0  0  0  0  0  0  0  0  0
   -3.0350   14.4140    1.3280 N   0  0  0  0  0  0  0  0  0  0  0  0
   -3.1980   15.0510   -1.0030 C   0  0  0  0  0  0  0  0  0  0  0  0
   -5.2260   14.9010    0.2540 C   0  0  0  0  0  0  0  0  0  0  0  0
   -1.8620   14.7400   -1.1810 C   0  0  0  0  0  0  0  0  0  0  0  0
   -4.0170   15.2360   -2.1270 C   0  0  0  0  0  0  0  0  0  0  0  0
   -5.6930   14.8090   -1.0450 C   0  0  0  0  0  0  0  0  0  0  0  0
   -6.1380   14.7290    1.2970 C   0  0  0  0  0  0  0  0  0  0  0  0
   -1.3280   14.6060   -2.4530 C   0  0  0  0  0  0  0  0  0  0  0  0
   -3.5050   15.1030   -3.4050 C   0  0  0  0  0  0  0  0  0  0  0  0
   -7.4680   14.4760    0.9700 C   0  0  0  0  0  0  0  0  0  0  0  0
   -7.0080   14.5590   -1.2760 C   0  0  0  0  0  0  0  0  0  0  0  0
    0.1170   14.2770   -2.5160 C   0  0  0  0  0  0  0  0  0  0  0  0
   -8.4960   14.2860    2.0350 C   0  0  0  0  0  0  0  0  0  0  0  0
   -2.1620   14.7870   -3.5650 C   0  0  0  0  0  0  0  0  0  0  0  0
   -7.9080   14.3900   -0.3000 N   0  0  0  0  0  0  0  0  0  0  0  0
   -1.6640   14.6550   -4.8340 O   0  0  0  0  0  0  0  0  0  0  0  0
    0.8370   14.2860   -1.5320 O   0  0  0  0  0  0  0  0  0  0  0  0
    0.5710   13.9710   -3.7390 O   0  0  0  0  0  0  0  0  0  0  0  0
  1  2  1  0
  1  3  1  1
  1  4  1  0
  1  5  1  0
  4  6  2  0
  4  7  1  0
  5  8  2  0
  5  9  1  0
  6 10  1  0
  7 11  2  0
  9 12  2  0
  8 13  1  0
 10 14  1  0
 12 15  1  0
 10 16  2  0
 11 16  1  0
 12 17  1  0
 13 17  2  0
 16 18  1  0
 14 19  2  0
 14 20  1  0
M  END
