mac-x0387-mac-x0584
     RDKit          3D

 22 25  0  0  0  0  0  0  0  0999 V2000
   -3.1620   13.4110    1.1340 N   0  0  0  0  0  0  0  0  0  0  0  0
   -2.7940   14.6780    0.6700 C   0  0  1  0  0  0  0  0  0  0  0  0
   -1.4470   15.1750    0.3490 N   0  0  0  0  0  0  0  0  0  0  0  0
   -3.9060   15.1810   -0.2420 C   0  0  0  0  0  0  0  0  0  0  0  0
   -2.9540   15.3830    1.9040 N   0  0  0  0  0  0  0  0  0  0  0  0
   -0.2860   14.4590    0.1350 C   0  0  0  0  0  0  0  0  0  0  0  0
   -4.4900   14.9480   -1.5420 C   0  0  0  0  0  0  0  0  0  0  0  0
   -4.5600   16.0760    0.3550 C   0  0  0  0  0  0  0  0  0  0  0  0
   -3.9450   16.1410    1.6490 C   0  0  0  0  0  0  0  0  0  0  0  0
    0.2450   14.2730   -1.1090 C   0  0  0  0  0  0  0  0  0  0  0  0
   -4.0590   14.7630   -2.7460 C   0  0  0  0  0  0  0  0  0  0  0  0
   -0.4050   14.8180   -2.4170 C   0  0  2  0  0  0  0  0  0  0  0  0
   -2.7380   14.7320   -3.0960 C   0  0  0  0  0  0  0  0  0  0  0  0
   -1.8220   14.8540   -2.1640 C   0  0  0  0  0  0  0  0  0  0  0  0
   -0.3660   14.0020   -3.7580 C   0  0  2  0  0  0  0  0  0  0  0  0
   -0.0240   16.1960   -2.9430 C   0  0  0  0  0  0  0  0  0  0  0  0
    0.6670   12.9470   -4.0520 C   0  0  0  0  0  0  0  0  0  0  0  0
   -0.5090   15.0200   -4.9070 C   0  0  0  0  0  0  0  0  0  0  0  0
   -0.8480   16.3250   -4.2210 C   0  0  0  0  0  0  0  0  0  0  0  0
    1.5780   12.3650   -2.9570 C   0  0  0  0  0  0  0  0  0  0  0  0
    0.1070   11.5210   -4.2490 C   0  0  0  0  0  0  0  0  0  0  0  0
    0.4810   11.2860   -2.7790 C   0  0  0  0  0  0  0  0  0  0  0  0
  2  1  1  1
  2  3  1  0
  2  4  1  0
  2  5  1  0
  3  6  1  0
  4  7  1  0
  4  8  2  0
  5  9  2  0
  8  9  1  0
  6 10  2  0
  7 11  2  0
 12 10  1  1
 11 13  1  0
 12 14  1  0
 13 14  2  0
 12 15  1  0
 12 16  1  0
 15 17  1  6
 15 18  1  0
 16 19  1  0
 18 19  1  0
 17 20  1  0
 17 21  1  0
 20 22  1  0
 21 22  1  0
M  END
