mac-x0568-mac-x0115
     RDKit          3D

 26 28  0  0  0  0  0  0  0  0999 V2000
   -8.7340   14.3560    1.8000 C   0  0  0  0  0  0  0  0  0  0  0  0
   -7.5440   14.5900    0.9300 C   0  0  0  0  0  0  0  0  0  0  0  0
   -6.2740   14.6680    1.4810 C   0  0  0  0  0  0  0  0  0  0  0  0
   -7.7750   14.7230   -0.3920 N   0  0  0  0  0  0  0  0  0  0  0  0
   -6.7130   14.9380   -1.1840 C   0  0  0  0  0  0  0  0  0  0  0  0
   -5.1830   14.8900    0.6450 C   0  0  0  0  0  0  0  0  0  0  0  0
   -5.4250   15.0270   -0.7290 C   0  0  0  0  0  0  0  0  0  0  0  0
   -4.3650   15.2560   -1.6880 C   0  0  0  0  0  0  0  0  0  0  0  0
   -4.5700   15.6460   -2.8150 O   0  0  0  0  0  0  0  0  0  0  0  0
   -2.9970   14.9570   -1.3850 C   0  0  0  0  0  0  0  0  0  0  0  0
   -2.5490   14.8450   -0.1760 N   0  0  0  0  0  0  0  0  0  0  0  0
   -2.1390   14.7920   -2.5370 C   0  0  0  0  0  0  0  0  0  0  0  0
   -1.1550   14.4870   -0.4630 C   0  0  1  0  0  0  0  0  0  0  0  0
   -1.0020   14.5240   -1.9490 C   0  0  0  0  0  0  0  0  0  0  0  0
    0.2220   14.2940   -2.5260 N   0  0  0  0  0  0  0  0  0  0  0  0
   -0.0670   15.2420    0.1340 C   0  0  0  0  0  0  0  0  0  0  0  0
    0.3640   14.3480   -4.0140 C   0  0  0  0  0  0  0  0  0  0  0  0
   -0.1870   16.0670    0.9860 O   0  0  0  0  0  0  0  0  0  0  0  0
    1.3380   14.3510   -1.6870 C   0  0  0  0  0  0  0  0  0  0  0  0
    1.1360   14.8530   -0.4130 N   0  0  0  0  0  0  0  0  0  0  0  0
    0.6580   15.7550   -4.5810 C   0  0  0  0  0  0  0  0  0  0  0  0
    2.8820   13.8640   -2.0860 S   0  0  0  0  0  0  0  0  0  0  0  0
   -0.5580   16.3440   -5.0750 O   0  0  0  0  0  0  0  0  0  0  0  0
   -0.3940   17.6100   -5.7320 C   0  0  0  0  0  0  0  0  0  0  0  0
   -1.4390   18.5480   -5.1560 C   0  0  0  0  0  0  0  0  0  0  0  0
    1.0080   18.1530   -5.5480 C   0  0  0  0  0  0  0  0  0  0  0  0
  1  2  1  0
  2  3  2  0
  2  4  1  0
  4  5  2  0
  3  6  1  0
  5  7  1  0
  6  7  2  0
  7  8  1  0
  8  9  2  0
  8 10  1  0
 10 11  2  0
 10 12  1  0
 13 11  1  6
 12 14  2  0
 13 14  1  0
 14 15  1  0
 13 16  1  0
 15 17  1  0
 16 18  2  0
 15 19  1  0
 16 20  1  0
 19 20  1  0
 17 21  1  0
 19 22  2  0
 21 23  1  0
 23 24  1  0
 24 25  1  0
 24 26  1  0
M  END
