mac-x0139-mac-x0576
     RDKit          3D

 18 19  0  0  0  0  0  0  0  0999 V2000
   -2.1450   15.0360   -3.3980 C   0  0  0  0  0  0  0  0  0  0  0  0
   -1.0690   14.8200   -2.4150 N   0  0  0  0  0  0  0  0  0  0  0  0
    0.2900   14.9980   -2.9510 C   0  0  0  0  0  0  0  0  0  0  0  0
   -1.3980   14.7670   -1.0530 C   0  0  0  0  0  0  0  0  0  0  0  0
    0.6400   13.8620   -3.9130 C   0  0  0  0  0  0  0  0  0  0  0  0
   -2.7530   14.9320   -0.4980 C   0  0  0  0  0  0  0  0  0  0  0  0
   -0.4480   14.5640   -0.1750 N   0  0  0  0  0  0  0  0  0  0  0  0
    0.9620   12.5860   -3.1770 C   0  0  0  0  0  0  0  0  0  0  0  0
   -2.9260   14.8750    0.9250 C   0  0  0  0  0  0  0  0  0  0  0  0
   -0.7540   14.4970    1.1540 C   0  0  0  0  0  0  0  0  0  0  0  0
   -3.9930   15.1510   -0.9230 C   0  0  0  0  0  0  0  0  0  0  0  0
    1.5630   12.5350   -2.1210 O   0  0  0  0  0  0  0  0  0  0  0  0
    0.5190   11.4740   -3.8010 O   0  0  0  0  0  0  0  0  0  0  0  0
    0.1830   14.2110    2.0260 N   0  0  0  0  0  0  0  0  0  0  0  0
   -1.8810   14.6450    1.6960 N   0  0  0  0  0  0  0  0  0  0  0  0
   -4.0960   15.0350    1.3800 N   0  0  0  0  0  0  0  0  0  0  0  0
   -4.8580   15.1660    0.2730 C   0  0  0  0  0  0  0  0  0  0  0  0
   -6.0780   15.2260    0.2330 O   0  0  0  0  0  0  0  0  0  0  0  0
  1  2  1  0
  2  3  1  0
  2  4  1  0
  3  5  1  0
  4  6  1  0
  4  7  2  0
  5  8  1  0
  6  9  1  0
  7 10  1  0
  6 11  2  0
  8 12  2  0
  8 13  1  0
 10 14  1  0
  9 15  1  0
 10 15  2  0
  9 16  2  0
 11 17  1  0
 16 17  1  0
 17 18  2  0
M  END
