mac-x0565-mac-x0255
     RDKit          3D

 24 27  0  0  0  0  0  0  0  0999 V2000
   -5.7330   14.9300    0.6530 O   0  0  0  0  0  0  0  0  0  0  0  0
   -6.1180   14.7750   -0.6350 C   0  0  0  0  0  0  0  0  0  0  0  0
   -7.2770   14.6350   -0.9720 O   0  0  0  0  0  0  0  0  0  0  0  0
   -4.9640   14.8100   -1.5740 C   0  0  0  0  0  0  0  0  0  0  0  0
   -3.7020   14.8380   -1.0060 C   0  0  0  0  0  0  0  0  0  0  0  0
   -5.1020   14.8190   -2.9880 C   0  0  0  0  0  0  0  0  0  0  0  0
   -2.6150   14.8920   -1.8430 C   0  0  0  0  0  0  0  0  0  0  0  0
   -3.9610   14.8740   -3.8270 C   0  0  0  0  0  0  0  0  0  0  0  0
   -2.6920   14.9210   -3.2370 C   0  0  0  0  0  0  0  0  0  0  0  0
   -1.3540   14.9290   -1.3760 O   0  0  0  0  0  0  0  0  0  0  0  0
   -1.2670   15.0530   -3.8110 C   0  0  1  0  0  0  0  0  0  0  0  0
   -0.6820   15.5450   -2.4740 C   0  0  0  0  0  0  0  0  0  0  0  0
   -0.0940   14.1370   -4.2620 C   0  0  0  0  0  0  0  0  0  0  0  0
   -1.0640   16.2680   -4.6010 C   0  0  0  0  0  0  0  0  0  0  0  0
    0.1650   12.6810   -3.9470 C   0  0  0  0  0  0  0  0  0  0  0  0
    0.7650   14.9090   -4.9910 C   0  0  0  0  0  0  0  0  0  0  0  0
    0.1590   16.2260   -5.2230 C   0  0  0  0  0  0  0  0  0  0  0  0
   -1.9120   17.3180   -4.7100 C   0  0  0  0  0  0  0  0  0  0  0  0
    0.5190   12.3460   -2.5140 C   0  0  0  0  0  0  0  0  0  0  0  0
    0.5870   17.3230   -5.9440 C   0  0  0  0  0  0  0  0  0  0  0  0
   -1.5260   18.4210   -5.4450 C   0  0  0  0  0  0  0  0  0  0  0  0
    1.5460   13.0700   -2.0440 O   0  0  0  0  0  0  0  0  0  0  0  0
   -0.0150   11.5170   -1.7970 O   0  0  0  0  0  0  0  0  0  0  0  0
   -0.2670   18.4290   -6.0520 C   0  0  0  0  0  0  0  0  0  0  0  0
  1  2  1  0
  2  3  2  0
  2  4  1  0
  4  5  2  0
  4  6  1  0
  5  7  1  0
  6  8  2  0
  7  9  2  0
  8  9  1  0
  7 10  1  0
  9 11  1  0
 10 12  1  0
 11 12  1  1
 11 13  1  0
 11 14  1  0
 13 15  1  0
 13 16  2  0
 14 17  2  0
 16 17  1  0
 14 18  1  0
 15 19  1  0
 17 20  1  0
 18 21  2  0
 19 22  1  0
 19 23  2  0
 20 24  2  0
 21 24  1  0
M  END
