mac-x0138-diamond-x0128_0_A
     RDKit          3D

 29 32  0  0  0  0  0  0  0  0999 V2000
   -0.8740   14.5090   -3.1330 C   0  0  0  0  0  0  0  0  0  0  0  0
   -1.8930   14.7670   -2.1550 N   0  0  0  0  0  0  0  0  0  0  0  0
   -3.1710   15.1480   -2.4180 C   0  0  0  0  0  0  0  0  0  0  0  0
   -1.7570   14.6780   -0.7880 C   0  0  0  0  0  0  0  0  0  0  0  0
   -3.8540   15.3150   -1.3110 N   0  0  0  0  0  0  0  0  0  0  0  0
   -2.9940   15.0280   -0.2680 C   0  0  0  0  0  0  0  0  0  0  0  0
   -0.6690   14.3340   -0.0920 N   0  0  0  0  0  0  0  0  0  0  0  0
   -3.1340   15.0360    1.1600 C   0  0  0  0  0  0  0  0  0  0  0  0
   -0.9140   14.3520    1.2290 C   0  0  0  0  0  0  0  0  0  0  0  0
   -4.3280   15.4260    1.8400 N   0  0  0  0  0  0  0  0  0  0  0  0
    0.0970   14.0110    2.0820 N   0  0  0  0  0  0  0  0  0  0  0  0
   -2.0430   14.6700    1.8600 N   0  0  0  0  0  0  0  0  0  0  0  0
   -5.0050   14.6560    2.8890 C   0  0  0  0  0  0  0  0  0  0  0  0
   -6.3690   14.5190    2.3810 N   0  0  0  0  0  0  0  0  0  0  0  0
   -7.4930   15.0400    3.1010 C   0  0  0  0  0  0  0  0  0  0  0  0
   -6.2740   14.7150    0.9800 C   0  0  0  0  0  0  0  0  0  0  0  0
   -8.5400   15.2860    2.5020 O   0  0  0  0  0  0  0  0  0  0  0  0
   -7.3840   15.2720    4.4680 N   0  0  0  0  0  0  0  0  0  0  0  0
   -7.1890   14.2100    0.0590 C   0  0  0  0  0  0  0  0  0  0  0  0
   -5.2040   15.4640    0.4940 C   0  0  0  0  0  0  0  0  0  0  0  0
   -7.0240   14.4550   -1.3050 C   0  0  0  0  0  0  0  0  0  0  0  0
   -5.0430   15.7090   -0.8560 C   0  0  0  0  0  0  0  0  0  0  0  0
   -8.2820   16.0500    5.2560 C   0  0  0  0  0  0  0  0  0  0  0  0
   -5.9540   15.2010   -1.7650 C   0  0  0  0  0  0  0  0  0  0  0  0
   -8.9910   17.1750    4.8230 C   0  0  0  0  0  0  0  0  0  0  0  0
   -8.4870   15.6710    6.5900 C   0  0  0  0  0  0  0  0  0  0  0  0
   -9.8400   17.9010    5.5980 N   0  0  0  0  0  0  0  0  0  0  0  0
   -9.3540   16.4020    7.4050 C   0  0  0  0  0  0  0  0  0  0  0  0
  -10.0030   17.5010    6.8690 C   0  0  0  0  0  0  0  0  0  0  0  0
  1  2  1  0
  2  3  1  0
  2  4  1  0
  3  5  2  0
  4  6  2  0
  5  6  1  0
  4  7  1  0
  6  8  1  0
  7  9  2  0
  8 10  1  0
  9 11  1  0
  8 12  2  0
  9 12  1  0
 10 13  1  0
 13 14  1  0
 14 15  1  0
 14 16  1  0
 15 17  2  0
 15 18  1  0
 16 19  2  0
 16 20  1  0
 19 21  1  0
 20 22  2  0
 18 23  1  0
 21 24  2  0
 22 24  1  0
 23 25  2  0
 23 26  1  0
 25 27  1  0
 26 28  2  0
 27 29  2  0
 28 29  1  0
M  END
