mac-x0392-mac-x1493
     RDKit          3D

 21 23  0  0  0  0  0  0  0  0999 V2000
    0.5540   13.5150   -0.3000 N   0  0  0  0  0  0  0  0  0  0  0  0
   -0.5840   14.2560   -0.0340 C   0  0  0  0  0  0  0  0  0  0  0  0
   -1.1030   14.3460    1.2580 C   0  0  0  0  0  0  0  0  0  0  0  0
   -1.2310   14.9200   -1.0620 C   0  0  0  0  0  0  0  0  0  0  0  0
   -0.7520   14.8440   -2.5240 C   0  0  1  0  0  0  0  0  0  0  0  0
   -2.3790   15.6730   -0.7180 C   0  0  0  0  0  0  0  0  0  0  0  0
   -2.1990   15.0340    1.6100 N   0  0  0  0  0  0  0  0  0  0  0  0
   -2.0020   14.9770   -3.2140 N   0  0  0  0  0  0  0  0  0  0  0  0
    0.2020   15.8480   -2.7790 O   0  0  0  0  0  0  0  0  0  0  0  0
   -2.8180   15.6990    0.6060 C   0  0  0  0  0  0  0  0  0  0  0  0
   -2.7140   14.8230   -2.1840 C   0  0  0  0  0  0  0  0  0  0  0  0
   -4.0660   14.7900   -1.6950 C   0  0  0  0  0  0  0  0  0  0  0  0
   -4.1650   14.7930   -0.3240 C   0  0  0  0  0  0  0  0  0  0  0  0
   -5.2090   14.7560   -2.4520 C   0  0  0  0  0  0  0  0  0  0  0  0
   -5.3780   14.7660    0.2950 C   0  0  0  0  0  0  0  0  0  0  0  0
   -6.4400   14.7210   -1.8750 N   0  0  0  0  0  0  0  0  0  0  0  0
   -6.5150   14.7270   -0.5210 C   0  0  0  0  0  0  0  0  0  0  0  0
   -5.4630   14.7770    1.6900 C   0  0  0  0  0  0  0  0  0  0  0  0
   -7.7440   14.6910    0.1180 C   0  0  0  0  0  0  0  0  0  0  0  0
   -6.7080   14.7440    2.3010 C   0  0  0  0  0  0  0  0  0  0  0  0
   -7.8500   14.6990    1.5130 C   0  0  0  0  0  0  0  0  0  0  0  0
  1  2  1  0
  2  3  2  0
  2  4  1  0
  4  5  1  0
  4  6  2  0
  3  7  1  0
  5  8  1  0
  5  9  1  6
  6 10  1  0
  7 10  2  0
  8 11  2  3
 11 12  1  0
 12 13  2  0
 12 14  1  0
 13 15  1  0
 14 16  2  0
 15 17  2  0
 16 17  1  0
 15 18  1  0
 17 19  1  0
 18 20  2  0
 19 21  2  0
 20 21  1  0
M  END
