mac-x0396-diamond-x0128_0_A
     RDKit          3D

 19 20  0  0  0  0  0  0  0  0999 V2000
   -2.6810   15.0900    0.7660 N   0  0  0  0  0  0  0  0  0  0  0  0
   -3.4260   15.0810   -0.3880 C   0  0  0  0  0  0  0  0  0  0  0  0
   -2.9110   15.1710   -1.4880 O   0  0  0  0  0  0  0  0  0  0  0  0
   -4.8730   14.9200   -0.2090 C   0  0  0  0  0  0  0  0  0  0  0  0
   -5.7730   14.9420   -1.2740 C   0  0  0  0  0  0  0  0  0  0  0  0
   -5.3620   14.7360    1.0540 C   0  0  0  0  0  0  0  0  0  0  0  0
   -7.1180   14.7820   -1.1130 N   0  0  0  0  0  0  0  0  0  0  0  0
   -6.7010   14.5700    1.2660 C   0  0  0  0  0  0  0  0  0  0  0  0
   -7.1550   14.3890    2.5670 N   0  0  0  0  0  0  0  0  0  0  0  0
   -7.5550   14.5970    0.1600 C   0  0  0  0  0  0  0  0  0  0  0  0
   -8.0630   15.1930    3.1510 C   0  0  0  0  0  0  0  0  0  0  0  0
   -9.0390   15.6760    2.5860 O   0  0  0  0  0  0  0  0  0  0  0  0
   -7.8530   15.4780    4.4630 N   0  0  0  0  0  0  0  0  0  0  0  0
   -8.6140   16.2470    5.3430 C   0  0  0  0  0  0  0  0  0  0  0  0
   -9.2910   17.4050    4.9850 C   0  0  0  0  0  0  0  0  0  0  0  0
   -8.7090   15.8290    6.6670 C   0  0  0  0  0  0  0  0  0  0  0  0
  -10.0330   18.1420    5.8370 N   0  0  0  0  0  0  0  0  0  0  0  0
   -9.4650   16.5730    7.5720 C   0  0  0  0  0  0  0  0  0  0  0  0
  -10.1040   17.7140    7.1100 C   0  0  0  0  0  0  0  0  0  0  0  0
  1  2  1  0
  2  3  2  0
  2  4  1  0
  4  5  2  0
  4  6  1  0
  5  7  1  0
  6  8  2  0
  8  9  1  0
  7 10  2  0
  8 10  1  0
  9 11  1  0
 11 12  2  0
 11 13  1  0
 13 14  1  0
 14 15  2  0
 14 16  1  0
 15 17  1  0
 16 18  2  0
 17 19  2  0
 18 19  1  0
M  END
