mac-x0345-mac-x0341
     RDKit          3D

 13 14  0  0  0  0  0  0  0  0999 V2000
   -7.9010   14.9360    0.4020 C   0  0  0  0  0  0  0  0  0  0  0  0
   -6.6100   14.9220   -0.3720 C   0  0  0  0  0  0  0  0  0  0  0  0
   -6.7510   14.8930   -1.6980 N   0  0  0  0  0  0  0  0  0  0  0  0
   -5.3600   14.9310    0.2200 C   0  0  0  0  0  0  0  0  0  0  0  0
   -5.2200   14.9960    2.0650 Br  0  0  0  0  0  0  0  0  0  0  0  0
   -4.1890   14.8880   -0.5300 C   0  0  0  0  0  0  0  0  0  0  0  0
   -5.6470   14.8640   -2.4460 C   0  0  0  0  0  0  0  0  0  0  0  0
   -5.9000   14.8310   -3.8190 N   0  0  0  0  0  0  0  0  0  0  0  0
   -4.3370   14.8540   -1.9180 C   0  0  0  0  0  0  0  0  0  0  0  0
   -2.8870   14.8680    0.0320 C   0  0  0  0  0  0  0  0  0  0  0  0
   -1.7590   14.8120   -0.7760 C   0  0  0  0  0  0  0  0  0  0  0  0
   -3.1840   14.8080   -2.7150 C   0  0  0  0  0  0  0  0  0  0  0  0
   -1.9100   14.7840   -2.1530 C   0  0  0  0  0  0  0  0  0  0  0  0
  1  2  1  0
  2  3  2  0
  2  4  1  0
  4  5  1  0
  4  6  2  0
  3  7  1  0
  7  8  1  0
  6  9  1  0
  7  9  2  0
  6 10  1  0
 10 11  2  0
  9 12  1  0
 11 13  1  0
 12 13  2  0
M  END
