mac-x0436-diamond-x0282_0_A
     RDKit          3D

 31 34  0  0  0  0  0  0  0  0999 V2000
    1.1320   12.1820   -2.0220 O   0  0  0  0  0  0  0  0  0  0  0  0
    1.0590   12.9760   -3.1020 C   0  0  0  0  0  0  0  0  0  0  0  0
    0.8090   14.2070   -3.0520 N   0  0  0  0  0  0  0  0  0  0  0  0
    1.2900   12.3150   -4.3780 C   0  0  0  0  0  0  0  0  0  0  0  0
    0.3820   12.9180   -5.4180 C   0  0  0  0  0  0  0  0  0  0  0  0
    0.5750   15.1240   -1.9720 C   0  0  0  0  0  0  0  0  0  0  0  0
   -0.4630   11.7620   -5.7820 C   0  0  0  0  0  0  0  0  0  0  0  0
   -0.3000   14.8120   -0.8050 C   0  0  0  0  0  0  0  0  0  0  0  0
   -1.7550   11.5220   -5.0010 C   0  0  0  0  0  0  0  0  0  0  0  0
   -0.0200   10.9970   -6.7140 N   0  0  0  0  0  0  0  0  0  0  0  0
   -1.6060   14.5090   -0.8760 N   0  0  0  0  0  0  0  0  0  0  0  0
    0.3590   14.8780    0.3370 C   0  0  0  0  0  0  0  0  0  0  0  0
   -2.1360   12.3090   -4.1450 O   0  0  0  0  0  0  0  0  0  0  0  0
   -2.4200   10.3790   -5.3370 N   0  0  0  0  0  0  0  0  0  0  0  0
   -0.7650    9.8730   -7.0250 C   0  0  0  0  0  0  0  0  0  0  0  0
   -0.3070   14.6100    1.4740 C   0  0  0  0  0  0  0  0  0  0  0  0
   -2.2270   14.2720    0.3030 C   0  0  0  0  0  0  0  0  0  0  0  0
   -1.9520    9.5460   -6.3580 C   0  0  0  0  0  0  0  0  0  0  0  0
   -0.2950    9.0500   -8.0390 C   0  0  0  0  0  0  0  0  0  0  0  0
   -3.5840   13.9680    0.2900 N   0  0  0  0  0  0  0  0  0  0  0  0
   -1.5950   14.3140    1.5010 N   0  0  0  0  0  0  0  0  0  0  0  0
   -1.0020    7.9040   -8.3910 C   0  0  0  0  0  0  0  0  0  0  0  0
   -2.6650    8.4040   -6.7010 C   0  0  0  0  0  0  0  0  0  0  0  0
   -4.1870   13.8720    1.6160 C   0  0  0  0  0  0  0  0  0  0  0  0
   -4.3330   14.3350   -0.9230 C   0  0  0  0  0  0  0  0  0  0  0  0
   -2.1850    7.5830   -7.7210 C   0  0  0  0  0  0  0  0  0  0  0  0
   -5.3370   14.8570    1.7670 C   0  0  0  0  0  0  0  0  0  0  0  0
   -5.5980   15.1590   -0.6520 C   0  0  0  0  0  0  0  0  0  0  0  0
   -6.3230   14.7080    0.6170 C   0  0  0  0  0  0  0  0  0  0  0  0
   -7.0100   13.3570    0.5280 C   0  0  0  0  0  0  0  0  0  0  0  0
   -8.3800   13.5540    0.1850 O   0  0  0  0  0  0  0  0  0  0  0  0
  1  2  1  0
  2  3  2  3
  2  4  1  0
  4  5  1  0
  3  6  1  0
  5  7  1  0
  6  8  1  0
  7  9  1  0
  7 10  2  0
  8 11  2  0
  8 12  1  0
  9 13  2  0
  9 14  1  0
 10 15  1  0
 12 16  2  0
 11 17  1  0
 14 18  1  0
 15 18  2  0
 15 19  1  0
 17 20  1  0
 16 21  1  0
 17 21  2  0
 19 22  2  0
 18 23  1  0
 20 24  1  0
 20 25  1  0
 22 26  1  0
 23 26  2  0
 24 27  1  0
 25 28  1  0
 27 29  1  0
 28 29  1  0
 29 30  1  0
 30 31  1  0
M  END
