mac-x0392-mac-x0226
     RDKit          3D

 25 27  0  0  0  0  0  0  0  0999 V2000
    0.1580   14.0830   -0.0540 N   0  0  0  0  0  0  0  0  0  0  0  0
   -1.2010   14.4590   -0.0820 C   0  0  0  0  0  0  0  0  0  0  0  0
   -1.8950   14.5810    1.1090 C   0  0  0  0  0  0  0  0  0  0  0  0
   -1.9450   14.7300   -1.2560 C   0  0  0  0  0  0  0  0  0  0  0  0
   -1.3510   14.6510   -2.6170 C   0  0  0  0  0  0  0  0  0  0  0  0
   -3.2980   15.0930   -1.1620 C   0  0  0  0  0  0  0  0  0  0  0  0
   -3.1960   14.9310    1.2210 N   0  0  0  0  0  0  0  0  0  0  0  0
   -1.6520   15.3930   -3.5350 O   0  0  0  0  0  0  0  0  0  0  0  0
   -0.4760   13.6480   -2.7000 O   0  0  0  0  0  0  0  0  0  0  0  0
   -3.8680   15.1790    0.0860 C   0  0  0  0  0  0  0  0  0  0  0  0
    0.8900   13.9270   -2.4620 C   0  0  0  0  0  0  0  0  0  0  0  0
    1.4480   12.6760   -2.1090 O   0  0  0  0  0  0  0  0  0  0  0  0
    0.8010   11.6400   -2.7210 C   0  0  0  0  0  0  0  0  0  0  0  0
    0.3220   10.6660   -2.1330 O   0  0  0  0  0  0  0  0  0  0  0  0
    0.7870   11.7320   -4.1650 C   0  0  0  0  0  0  0  0  0  0  0  0
    1.5040   12.6170   -4.9960 C   0  0  0  0  0  0  0  0  0  0  0  0
    0.0810   10.9420   -5.0580 C   0  0  0  0  0  0  0  0  0  0  0  0
    1.2890   12.3960   -6.2900 N   0  0  0  0  0  0  0  0  0  0  0  0
    0.4180   11.3500   -6.3310 N   0  0  0  0  0  0  0  0  0  0  0  0
   -0.0180   10.7970   -7.5660 C   0  0  0  0  0  0  0  0  0  0  0  0
   -1.2070   10.0710   -7.6430 C   0  0  0  0  0  0  0  0  0  0  0  0
    0.7380   10.9550   -8.7260 C   0  0  0  0  0  0  0  0  0  0  0  0
   -1.6150    9.5230   -8.8630 C   0  0  0  0  0  0  0  0  0  0  0  0
    0.3390   10.4160   -9.9380 C   0  0  0  0  0  0  0  0  0  0  0  0
   -0.8410    9.6960  -10.0120 C   0  0  0  0  0  0  0  0  0  0  0  0
  1  2  1  0
  2  3  2  0
  2  4  1  0
  4  5  1  0
  4  6  2  0
  3  7  1  0
  5  8  2  0
  5  9  1  0
  6 10  1  0
  7 10  2  0
  9 11  1  0
 11 12  1  0
 12 13  1  0
 13 14  2  0
 13 15  1  0
 15 16  1  0
 15 17  2  0
 16 18  2  0
 17 19  1  0
 18 19  1  0
 19 20  1  0
 20 21  2  0
 20 22  1  0
 21 23  1  0
 22 24  2  0
 23 25  2  0
 24 25  1  0
M  END
