mac-x0333-mac-x0206
     RDKit          3D

 13 14  0  0  0  0  0  0  0  0999 V2000
   -1.4630   14.5500   -1.7400 O   0  0  0  0  0  0  0  0  0  0  0  0
   -2.5330   14.6430   -0.8950 C   0  0  0  0  0  0  0  0  0  0  0  0
   -2.4290   14.9600    0.4700 C   0  0  0  0  0  0  0  0  0  0  0  0
   -3.7430   14.4090   -1.4570 C   0  0  0  0  0  0  0  0  0  0  0  0
   -4.8370   14.5080   -0.6540 C   0  0  0  0  0  0  0  0  0  0  0  0
   -3.5900   15.0490    1.2670 C   0  0  0  0  0  0  0  0  0  0  0  0
   -4.8020   14.8180    0.6540 C   0  0  0  0  0  0  0  0  0  0  0  0
   -6.0710   14.3480   -1.0720 N   0  0  0  0  0  0  0  0  0  0  0  0
   -6.0410   15.0550   -2.1580 C   0  0  0  0  0  0  0  0  0  0  0  0
   -6.0620   14.8640    1.2150 O   0  0  0  0  0  0  0  0  0  0  0  0
   -6.9290   14.6370    0.0690 C   0  0  0  0  0  0  0  0  0  0  0  0
   -4.9010   15.7850   -2.1950 N   0  0  0  0  0  0  0  0  0  0  0  0
   -6.8430   15.0730   -3.0430 O   0  0  0  0  0  0  0  0  0  0  0  0
  1  2  1  0
  2  3  2  0
  2  4  1  0
  4  5  2  0
  3  6  1  0
  5  7  1  0
  6  7  2  0
  5  8  1  0
  8  9  1  0
  7 10  1  0
  8 11  1  0
 10 11  1  0
  9 12  1  0
  9 13  2  0
M  END
