mac-x0439-mac-x0179
     RDKit          3D

 27 30  0  0  0  0  0  0  0  0999 V2000
   -3.1470   15.7370   -4.8680 Cl  0  0  0  0  0  0  0  0  0  0  0  0
   -1.6690   16.5500   -5.1700 C   0  0  0  0  0  0  0  0  0  0  0  0
   -0.4160   15.7690   -4.9960 C   0  0  2  0  0  0  0  0  0  0  0  0
   -1.6210   17.8330   -5.5780 C   0  0  0  0  0  0  0  0  0  0  0  0
   -0.1090   14.7400   -3.9690 C   0  0  0  0  0  0  0  0  0  0  0  0
    0.7550   16.6650   -4.7410 C   0  0  0  0  0  0  0  0  0  0  0  0
   -0.3460   18.4780   -5.8500 C   0  0  0  0  0  0  0  0  0  0  0  0
    1.0980   15.0000   -3.4390 C   0  0  0  0  0  0  0  0  0  0  0  0
    1.6170   16.1860   -3.9040 N   0  0  0  0  0  0  0  0  0  0  0  0
    0.8330   17.9550   -5.4670 C   0  0  0  0  0  0  0  0  0  0  0  0
    1.8310   14.1340   -2.4410 C   0  0  0  0  0  0  0  0  0  0  0  0
    2.6870   14.8080   -1.6460 O   0  0  0  0  0  0  0  0  0  0  0  0
    1.7060   12.8590   -2.3430 N   0  0  0  0  0  0  0  0  0  0  0  0
    0.9030   12.1170   -3.1520 C   0  0  0  0  0  0  0  0  0  0  0  0
    0.4110   11.0330   -2.8270 O   0  0  0  0  0  0  0  0  0  0  0  0
    0.6670   12.7250   -4.5410 C   0  0  0  0  0  0  0  0  0  0  0  0
    0.0640   11.8070   -5.4580 N   0  0  0  0  0  0  0  0  0  0  0  0
    0.7000   11.3750   -6.5670 C   0  0  0  0  0  0  0  0  0  0  0  0
   -1.0740   11.1060   -5.2040 C   0  0  0  0  0  0  0  0  0  0  0  0
    1.7440   11.7580   -7.0190 O   0  0  0  0  0  0  0  0  0  0  0  0
   -1.8540   11.2270   -4.2800 O   0  0  0  0  0  0  0  0  0  0  0  0
   -0.1110   10.3040   -7.1270 C   0  0  0  0  0  0  0  0  0  0  0  0
   -1.2020   10.1360   -6.2890 C   0  0  0  0  0  0  0  0  0  0  0  0
    0.0730    9.5380   -8.2550 C   0  0  0  0  0  0  0  0  0  0  0  0
   -2.1710    9.1870   -6.5390 C   0  0  0  0  0  0  0  0  0  0  0  0
   -0.8940    8.5680   -8.5320 C   0  0  0  0  0  0  0  0  0  0  0  0
   -2.0100    8.3940   -7.6790 C   0  0  0  0  0  0  0  0  0  0  0  0
  1  2  1  0
  2  3  1  0
  2  4  2  0
  3  5  1  1
  3  6  1  0
  4  7  1  0
  5  8  2  0
  6  9  2  0
  8  9  1  0
  6 10  1  0
  7 10  2  0
  8 11  1  0
 11 12  1  0
 11 13  2  3
 13 14  1  0
 14 15  2  0
 14 16  1  0
 16 17  1  0
 17 18  1  0
 17 19  1  0
 18 20  2  0
 19 21  2  0
 18 22  1  0
 19 23  1  0
 22 23  2  0
 22 24  1  0
 23 25  1  0
 24 26  2  0
 25 27  2  0
 26 27  1  0
M  END
