mac-x0182-diamond-x0910_0_A
     RDKit          3D

 20 22  0  0  0  0  0  0  0  0999 V2000
    1.6840   11.8450   -6.9950 O   0  0  0  0  0  0  0  0  0  0  0  0
    0.7580   11.5300   -6.2930 C   0  0  0  0  0  0  0  0  0  0  0  0
    0.5120   12.0390   -5.0450 N   0  0  0  0  0  0  0  0  0  0  0  0
   -0.2360   10.4930   -6.6760 C   0  0  0  0  0  0  0  0  0  0  0  0
   -0.7560   11.2320   -4.3010 S   0  0  2  0  0  0  0  0  0  0  0  0
   -1.1390   10.2260   -5.6540 C   0  0  0  0  0  0  0  0  0  0  0  0
   -0.3200    9.8200   -7.8810 C   0  0  0  0  0  0  0  0  0  0  0  0
   -1.7630   12.3820   -4.1720 N   0  0  0  0  0  0  0  0  0  0  0  0
   -0.1580   10.4390   -3.2530 O   0  0  0  0  0  0  0  0  0  0  0  0
   -2.1500    9.2960   -5.7750 C   0  0  0  0  0  0  0  0  0  0  0  0
   -1.3390    8.8670   -8.0350 C   0  0  0  0  0  0  0  0  0  0  0  0
   -2.9640   12.2360   -3.2940 C   0  0  0  0  0  0  0  0  0  0  0  0
   -2.2460    8.6100   -6.9830 C   0  0  0  0  0  0  0  0  0  0  0  0
   -2.6510   12.6430   -1.8360 C   0  0  0  0  0  0  0  0  0  0  0  0
   -2.4690   14.0990   -1.6920 N   0  0  0  0  0  0  0  0  0  0  0  0
   -1.6770   14.4790   -0.6750 C   0  0  0  0  0  0  0  0  0  0  0  0
   -2.1580   14.6320    0.5950 N   0  0  0  0  0  0  0  0  0  0  0  0
   -0.3930   14.7520   -0.6790 N   0  0  0  0  0  0  0  0  0  0  0  0
   -1.1880   15.0030    1.4370 N   0  0  0  0  0  0  0  0  0  0  0  0
   -0.1370   15.0650    0.6220 C   0  0  0  0  0  0  0  0  0  0  0  0
  1  2  2  0
  2  3  1  0
  2  4  1  0
  5  3  1  6
  4  6  2  0
  5  6  1  0
  4  7  1  0
  5  8  2  0
  5  9  2  0
  6 10  1  0
  7 11  2  0
  8 12  1  0
 10 13  2  0
 11 13  1  0
 12 14  1  0
 14 15  1  0
 15 16  1  0
 16 17  1  0
 16 18  2  0
 17 19  1  0
 18 20  1  0
 19 20  2  0
M  END
