mac-x0358-mac-x0338
     RDKit          3D

 21 22  0  0  0  0  0  0  0  0999 V2000
    1.9810   12.9090   -2.5320 O   0  0  0  0  0  0  0  0  0  0  0  0
    1.2410   12.1980   -3.4050 C   0  0  0  0  0  0  0  0  0  0  0  0
    0.7000   11.1660   -3.0330 O   0  0  0  0  0  0  0  0  0  0  0  0
    1.1310   12.8120   -4.7920 C   0  0  0  0  0  0  0  0  0  0  0  0
   -0.2470   13.3610   -4.8400 C   0  0  0  0  0  0  0  0  0  0  0  0
   -1.3470   12.5130   -4.9700 C   0  0  0  0  0  0  0  0  0  0  0  0
   -0.4400   14.7400   -4.7200 C   0  0  0  0  0  0  0  0  0  0  0  0
   -1.2250   11.1600   -5.1090 O   0  0  0  0  0  0  0  0  0  0  0  0
   -2.6280   13.0160   -4.9420 C   0  0  0  0  0  0  0  0  0  0  0  0
   -1.7250   15.2490   -4.6910 C   0  0  0  0  0  0  0  0  0  0  0  0
   -2.8080   14.3820   -4.7810 C   0  0  0  0  0  0  0  0  0  0  0  0
   -4.1580   14.9480   -4.6600 C   0  0  0  0  0  0  0  0  0  0  0  0
   -4.4230   15.0090   -3.1460 C   0  0  0  0  0  0  0  0  0  0  0  0
   -3.3660   14.9960   -2.2150 C   0  0  0  0  0  0  0  0  0  0  0  0
   -5.7030   15.0670   -2.7050 N   0  0  0  0  0  0  0  0  0  0  0  0
   -3.5400   15.0340   -0.8630 N   0  0  0  0  0  0  0  0  0  0  0  0
   -5.8770   15.1080   -1.3600 C   0  0  0  0  0  0  0  0  0  0  0  0
   -4.8310   15.0890   -0.4570 C   0  0  0  0  0  0  0  0  0  0  0  0
   -5.1220   15.1230    1.0020 C   0  0  0  0  0  0  0  0  0  0  0  0
   -4.0860   15.3500    1.8640 N   0  0  0  0  0  0  0  0  0  0  0  0
   -6.2560   14.9450    1.4360 O   0  0  0  0  0  0  0  0  0  0  0  0
  1  2  1  0
  2  3  2  0
  2  4  1  0
  4  5  1  0
  5  6  2  0
  5  7  1  0
  6  8  1  0
  6  9  1  0
  7 10  2  0
  9 11  2  0
 10 11  1  0
 11 12  1  0
 12 13  1  0
 13 14  2  0
 13 15  1  0
 14 16  1  0
 15 17  2  0
 16 18  2  0
 17 18  1  0
 18 19  1  0
 19 20  1  0
 19 21  2  0
M  END
