mac-x0337-mac-x0576
     RDKit          3D

 23 25  0  0  0  0  0  0  0  0999 V2000
   -6.0360    7.2420   -1.9730 C   0  0  0  0  0  0  0  0  0  0  0  0
   -5.5370    8.6240   -2.2070 C   0  0  0  0  0  0  0  0  0  0  0  0
   -6.3170    9.6880   -1.8120 C   0  0  0  0  0  0  0  0  0  0  0  0
   -4.3200    8.8610   -2.8040 C   0  0  0  0  0  0  0  0  0  0  0  0
   -3.9040   10.1550   -2.9980 C   0  0  0  0  0  0  0  0  0  0  0  0
   -5.8920   10.9790   -2.0120 C   0  0  0  0  0  0  0  0  0  0  0  0
   -4.6860   11.1700   -2.6070 C   0  0  0  0  0  0  0  0  0  0  0  0
   -4.1670   12.8760   -2.8650 S   0  0  0  0  0  0  0  0  0  0  0  0
   -2.8480   13.3970   -2.2920 N   0  0  0  0  0  0  0  0  0  0  0  0
   -5.7160   13.6300   -1.5950 O   0  0  0  0  0  0  0  0  0  0  0  0
   -4.8480   13.4140   -4.2850 N   0  0  0  0  0  0  0  0  0  0  0  0
   -2.1000   13.9970   -1.5340 C   0  0  0  0  0  0  0  0  0  0  0  0
   -1.5100   14.7600   -0.5240 N   0  0  0  0  0  0  0  0  0  0  0  0
   -3.3720   14.3740   -0.8000 C   0  0  1  0  0  0  0  0  0  0  0  0
   -1.0610   14.1720    0.6950 C   0  0  1  0  0  0  0  0  0  0  0  0
   -3.2100   14.9060    0.6470 C   0  0  2  0  0  0  0  0  0  0  0  0
   -4.0390   15.4500   -1.5070 N   0  0  0  0  0  0  0  0  0  0  0  0
    0.0890   14.8140    1.2430 N   0  0  0  0  0  0  0  0  0  0  0  0
   -2.2350   14.2920    1.4900 N   0  0  0  0  0  0  0  0  0  0  0  0
   -4.5190   14.8010    1.2420 N   0  0  0  0  0  0  0  0  0  0  0  0
   -5.3230   15.7330   -0.9130 C   0  0  0  0  0  0  0  0  0  0  0  0
   -5.6040   14.9910    0.3420 C   0  0  0  0  0  0  0  0  0  0  0  0
   -6.7770   14.5600    0.5980 O   0  0  0  0  0  0  0  0  0  0  0  0
  1  2  1  0
  2  3  2  0
  2  4  1  0
  4  5  2  0
  3  6  1  0
  5  7  1  0
  6  7  2  0
  7  8  1  0
  8  9  1  0
  8 10  2  0
  8 11  1  0
  9 12  2  3
 12 13  1  0
 12 14  1  0
 13 15  1  0
 14 16  1  0
 14 17  1  6
 15 18  1  1
 15 19  1  0
 16 19  1  1
 16 20  1  0
 17 21  1  0
 20 22  1  0
 21 22  1  0
 22 23  2  0
M  END
