mac-x0180-mac-x0319
     RDKit          3D

 23 24  0  0  0  0  0  0  0  0999 V2000
   -8.1830   14.6070    1.1690 C   0  0  0  0  0  0  0  0  0  0  0  0
   -7.1460   14.7520    0.0840 C   0  0  0  0  0  0  0  0  0  0  0  0
   -7.4650   14.8330   -1.0920 O   0  0  0  0  0  0  0  0  0  0  0  0
   -5.8740   14.7790    0.5970 N   0  0  0  0  0  0  0  0  0  0  0  0
   -4.6850   14.9860   -0.1110 C   0  0  0  0  0  0  0  0  0  0  0  0
   -3.5430   14.9690    0.6740 C   0  0  0  0  0  0  0  0  0  0  0  0
   -4.5820   15.1950   -1.4930 C   0  0  0  0  0  0  0  0  0  0  0  0
   -2.3140   15.1570    0.0970 C   0  0  0  0  0  0  0  0  0  0  0  0
   -3.3240   15.3860   -2.0840 C   0  0  0  0  0  0  0  0  0  0  0  0
   -2.1890   15.3640   -1.2660 C   0  0  0  0  0  0  0  0  0  0  0  0
   -0.7730   15.5460   -1.6760 C   0  0  2  0  0  0  0  0  0  0  0  0
   -0.3160   16.8000   -1.3220 O   0  0  0  0  0  0  0  0  0  0  0  0
   -0.2090   15.2310   -2.9810 C   0  0  0  0  0  0  0  0  0  0  0  0
    0.2060   16.2430   -3.8330 C   0  0  0  0  0  0  0  0  0  0  0  0
   -0.0570   13.9270   -3.3000 C   0  0  0  0  0  0  0  0  0  0  0  0
    0.5300   13.5630   -4.4610 C   0  0  0  0  0  0  0  0  0  0  0  0
    0.8020   15.8940   -5.0110 C   0  0  0  0  0  0  0  0  0  0  0  0
    0.6490   12.1040   -4.6210 C   0  0  0  0  0  0  0  0  0  0  0  0
    1.2180   16.9140   -5.8030 O   0  0  0  0  0  0  0  0  0  0  0  0
    0.9700   14.5450   -5.3370 C   0  0  0  0  0  0  0  0  0  0  0  0
    0.7370   11.5610   -3.2030 C   0  0  0  0  0  0  0  0  0  0  0  0
    0.1930   10.3400   -3.0670 O   0  0  0  0  0  0  0  0  0  0  0  0
    1.2230   12.1130   -2.2270 O   0  0  0  0  0  0  0  0  0  0  0  0
  1  2  1  0
  2  3  2  0
  2  4  1  0
  4  5  1  0
  5  6  2  0
  5  7  1  0
  6  8  1  0
  7  9  2  0
  8 10  2  0
  9 10  1  0
 10 11  1  0
 11 12  1  6
 11 13  1  0
 13 14  2  0
 13 15  1  0
 15 16  2  0
 14 17  1  0
 16 18  1  0
 17 19  1  0
 16 20  1  0
 17 20  2  0
 18 21  1  0
 21 22  1  0
 21 23  2  0
M  END
