mac-x0212-mac-x0373
     RDKit          3D

 22 23  0  0  0  0  0  0  0  0999 V2000
   -6.5030   12.7270    1.4040 C   0  0  0  0  0  0  0  0  0  0  0  0
   -6.9300   14.4220    1.0550 S   0  0  0  0  0  0  0  0  0  0  0  0
   -7.7840   14.8950    2.1250 O   0  0  0  0  0  0  0  0  0  0  0  0
   -7.3510   14.5430   -0.3220 O   0  0  0  0  0  0  0  0  0  0  0  0
   -5.4250   15.1650    1.3000 N   0  0  0  0  0  0  0  0  0  0  0  0
   -4.5030   15.0100    0.2240 C   0  0  0  0  0  0  0  0  0  0  0  0
   -3.2880   14.4020    0.4910 C   0  0  0  0  0  0  0  0  0  0  0  0
   -4.8060   15.4440   -1.0730 C   0  0  0  0  0  0  0  0  0  0  0  0
   -2.3660   14.2100   -0.5330 C   0  0  0  0  0  0  0  0  0  0  0  0
   -3.8770   15.2490   -2.1040 C   0  0  0  0  0  0  0  0  0  0  0  0
   -2.6360   14.6210   -1.8500 C   0  0  0  0  0  0  0  0  0  0  0  0
   -1.5880   14.3650   -2.9460 C   0  0  2  0  0  0  0  0  0  0  0  0
   -0.1530   14.3200   -2.3530 C   0  0  0  0  0  0  0  0  0  0  0  0
   -1.6350   15.3850   -3.9690 O   0  0  0  0  0  0  0  0  0  0  0  0
   -1.8590   13.0670   -3.6860 C   0  0  0  0  0  0  0  0  0  0  0  0
    0.1160   13.2420   -1.5790 O   0  0  0  0  0  0  0  0  0  0  0  0
    0.7460   15.1370   -2.5170 O   0  0  0  0  0  0  0  0  0  0  0  0
   -1.1720   12.8070   -4.8890 C   0  0  0  0  0  0  0  0  0  0  0  0
   -2.7690   12.1110   -3.2140 C   0  0  0  0  0  0  0  0  0  0  0  0
   -1.3900   11.6280   -5.5930 C   0  0  0  0  0  0  0  0  0  0  0  0
   -2.9860   10.9310   -3.9180 C   0  0  0  0  0  0  0  0  0  0  0  0
   -2.2990   10.6880   -5.1060 C   0  0  0  0  0  0  0  0  0  0  0  0
  1  2  1  0
  2  3  2  0
  2  4  2  0
  2  5  1  0
  5  6  1  0
  6  7  2  0
  6  8  1  0
  7  9  1  0
  8 10  2  0
  9 11  2  0
 10 11  1  0
 11 12  1  0
 12 13  1  0
 12 14  1  6
 12 15  1  0
 13 16  1  0
 13 17  2  0
 15 18  2  0
 15 19  1  0
 18 20  1  0
 19 21  2  0
 20 22  2  0
 21 22  1  0
M  END
