mac-x0576-diamond-x1012_0_A
     RDKit          3D

 25 27  0  0  0  0  0  0  0  0999 V2000
   -0.0120   13.9650    1.6350 N   0  0  0  0  0  0  0  0  0  0  0  0
   -0.8320   14.8470    0.8740 C   0  0  2  0  0  0  0  0  0  0  0  0
   -2.0650   14.6960    1.6280 N   0  0  0  0  0  0  0  0  0  0  0  0
   -0.7950   14.6580   -0.5340 N   0  0  0  0  0  0  0  0  0  0  0  0
   -1.9240   14.6760   -1.2950 C   0  0  0  0  0  0  0  0  0  0  0  0
   -3.2230   14.3490    0.8270 C   0  0  2  0  0  0  0  0  0  0  0  0
   -2.0580   14.6150   -2.5440 N   0  0  0  0  0  0  0  0  0  0  0  0
   -3.2410   14.8670   -0.5830 C   0  0  2  0  0  0  0  0  0  0  0  0
   -4.4110   14.7860    1.4900 N   0  0  0  0  0  0  0  0  0  0  0  0
   -5.5950   14.9210    0.8010 C   0  0  0  0  0  0  0  0  0  0  0  0
   -4.4280   14.4750   -1.3430 N   0  0  0  0  0  0  0  0  0  0  0  0
   -0.9430   14.6160   -3.4370 C   0  0  2  0  0  0  0  0  0  0  0  0
   -6.6650   14.8140    1.3880 O   0  0  0  0  0  0  0  0  0  0  0  0
   -5.5350   15.2020   -0.7090 C   0  0  0  0  0  0  0  0  0  0  0  0
   -1.4470   15.0480   -4.7830 C   0  0  0  0  0  0  0  0  0  0  0  0
   -0.0440   13.4480   -3.7210 C   0  0  2  0  0  0  0  0  0  0  0  0
    0.2610   12.5020   -2.5530 C   0  0  0  0  0  0  0  0  0  0  0  0
    1.1490   14.1720   -4.4060 C   0  0  0  0  0  0  0  0  0  0  0  0
   -0.5180   16.0630   -5.1670 N   0  0  0  0  0  0  0  0  0  0  0  0
   -1.0550   17.3140   -4.9040 C   0  0  0  0  0  0  0  0  0  0  0  0
    0.3050   11.1940   -2.8820 O   0  0  0  0  0  0  0  0  0  0  0  0
    0.4510   12.8540   -1.3910 O   0  0  0  0  0  0  0  0  0  0  0  0
    0.8880   15.6750   -4.8210 C   0  0  0  0  0  0  0  0  0  0  0  0
   -0.1970   18.3190   -4.6880 N   0  0  0  0  0  0  0  0  0  0  0  0
   -2.2640   17.5510   -4.8420 O   0  0  0  0  0  0  0  0  0  0  0  0
  2  1  1  1
  2  3  1  0
  2  4  1  0
  4  5  1  0
  6  3  1  1
  5  7  2  3
  5  8  1  0
  6  8  1  0
  6  9  1  0
  9 10  1  0
  8 11  1  6
 12  7  1  1
 10 13  2  0
 10 14  1  0
 11 14  1  0
 12 15  1  0
 12 16  1  0
 16 17  1  1
 16 18  1  0
 15 19  1  0
 19 20  1  0
 17 21  1  0
 17 22  2  0
 18 23  1  0
 19 23  1  0
 20 24  1  0
 20 25  2  0
M  END
