mac-x0398-diamond-x0895_0_A
     RDKit          3D

 12 12  0  0  0  0  0  0  0  0999 V2000
   -6.4290   14.8080    2.1640 N   0  0  0  0  0  0  0  0  0  0  0  0
   -5.5780   14.5200    1.0230 C   0  0  2  0  0  0  0  0  0  0  0  0
   -4.2400   15.2470    1.1750 C   0  0  0  0  0  0  0  0  0  0  0  0
   -6.2660   14.7970   -0.3250 C   0  0  0  0  0  0  0  0  0  0  0  0
   -5.3670   14.6690   -1.5430 C   0  0  1  0  0  0  0  0  0  0  0  0
   -3.3570   15.0290   -0.0180 C   0  0  0  0  0  0  0  0  0  0  0  0
   -6.0480   15.2070   -2.6780 O   0  0  0  0  0  0  0  0  0  0  0  0
   -2.1760   14.6540    0.1470 O   0  0  0  0  0  0  0  0  0  0  0  0
   -3.9960   15.3000   -1.3690 C   0  0  1  0  0  0  0  0  0  0  0  0
   -3.1820   14.9950   -2.5930 C   0  0  0  0  0  0  0  0  0  0  0  0
   -3.6450   14.8410   -3.7150 O   0  0  0  0  0  0  0  0  0  0  0  0
   -1.8580   14.9020   -2.3990 O   0  0  0  0  0  0  0  0  0  0  0  0
  2  1  1  1
  2  3  1  0
  2  4  1  0
  4  5  1  0
  3  6  1  0
  5  7  1  6
  6  8  2  0
  5  9  1  0
  6  9  1  0
  9 10  1  6
 10 11  2  0
 10 12  1  0
M  END
