mac-x0161-diamond-x0421_0_A
     RDKit          3D

 28 32  0  0  0  0  0  0  0  0999 V2000
   -4.1620   15.7310    1.7290 N   0  0  0  0  0  0  0  0  0  0  0  0
   -3.6790   14.9310    0.6210 C   0  0  2  0  0  0  0  0  0  0  0  0
   -2.2060   14.4850    0.7860 C   0  0  1  0  0  0  0  0  0  0  0  0
   -3.8690   15.7980   -0.5010 N   0  0  0  0  0  0  0  0  0  0  0  0
   -3.4590   15.1230   -1.7180 C   0  0  0  0  0  0  0  0  0  0  0  0
   -1.5670   14.0220   -0.5440 C   0  0  1  0  0  0  0  0  0  0  0  0
   -1.2790   15.5280    1.2680 N   0  0  0  0  0  0  0  0  0  0  0  0
   -2.4860   14.0320   -1.6700 N   0  0  0  0  0  0  0  0  0  0  0  0
   -0.2920   14.7440   -0.5840 N   0  0  0  0  0  0  0  0  0  0  0  0
   -0.0210   14.9870    0.8060 C   0  0  0  0  0  0  0  0  0  0  0  0
   -2.8950   12.7710   -2.1100 C   0  0  0  0  0  0  0  0  0  0  0  0
   -4.0780   12.1650   -1.7680 C   0  0  0  0  0  0  0  0  0  0  0  0
   -1.9700   12.0660   -2.9820 C   0  0  0  0  0  0  0  0  0  0  0  0
   -4.4720   10.9050   -2.2220 N   0  0  0  0  0  0  0  0  0  0  0  0
   -2.2030   11.4640   -4.2100 C   0  0  0  0  0  0  0  0  0  0  0  0
   -0.6280   11.8710   -2.6980 O   0  0  0  0  0  0  0  0  0  0  0  0
   -5.0470   12.7880   -0.8730 C   0  0  0  0  0  0  0  0  0  0  0  0
   -0.0160   11.1670   -3.7150 N   0  0  0  0  0  0  0  0  0  0  0  0
   -0.9710   10.9300   -4.6040 C   0  0  0  0  0  0  0  0  0  0  0  0
   -5.1160   12.6180    0.4960 C   0  0  0  0  0  0  0  0  0  0  0  0
   -6.0380   13.6430   -1.2990 N   0  0  0  0  0  0  0  0  0  0  0  0
   -0.7320   10.2450   -5.7420 O   0  0  0  0  0  0  0  0  0  0  0  0
   -6.1690   13.3830    0.9000 N   0  0  0  0  0  0  0  0  0  0  0  0
   -6.6920   13.9860   -0.2030 C   0  0  0  0  0  0  0  0  0  0  0  0
   -1.0180    8.8530   -5.6610 C   0  0  0  0  0  0  0  0  0  0  0  0
   -7.9000   14.9530   -0.2040 C   0  0  0  0  0  0  0  0  0  0  0  0
   -7.9550   16.0510   -1.2360 C   0  0  0  0  0  0  0  0  0  0  0  0
   -8.9380   14.9140   -1.2880 C   0  0  0  0  0  0  0  0  0  0  0  0
  2  1  1  1
  2  3  1  0
  2  4  1  0
  4  5  1  0
  3  6  1  0
  3  7  1  6
  5  8  1  0
  6  8  1  0
  6  9  1  6
  7 10  1  0
  9 10  1  0
  8 11  1  0
 11 12  2  3
 11 13  1  0
 12 14  1  0
 13 15  2  0
 13 16  1  0
 12 17  1  0
 16 18  1  0
 15 19  1  0
 18 19  2  0
 17 20  2  0
 17 21  1  0
 19 22  1  0
 20 23  1  0
 21 24  2  0
 23 24  1  0
 22 25  1  0
 24 26  1  0
 26 27  1  0
 26 28  1  0
 27 28  1  0
M  END
