mac-x0411-diamond-x0685_1_A
     RDKit          3D

 15 15  0  0  0  0  0  0  0  0999 V2000
    0.8490    8.7980   -7.9630 Cl  0  0  0  0  0  0  0  0  0  0  0  0
   -0.4250    9.3000   -6.9100 C   0  0  0  0  0  0  0  0  0  0  0  0
   -0.4890   10.6040   -6.3740 C   0  0  0  0  0  0  0  0  0  0  0  0
   -1.4050    8.3580   -6.6060 C   0  0  0  0  0  0  0  0  0  0  0  0
    0.5140   11.4950   -6.7070 O   0  0  0  0  0  0  0  0  0  0  0  0
   -1.5680   10.9570   -5.5300 C   0  0  0  0  0  0  0  0  0  0  0  0
   -2.4640    8.6960   -5.7720 C   0  0  0  0  0  0  0  0  0  0  0  0
   -1.7540   12.3180   -4.9100 C   0  0  0  0  0  0  0  0  0  0  0  0
    0.8390   12.5220   -5.7490 C   0  0  0  0  0  0  0  0  0  0  0  0
   -2.5450    9.9820   -5.2430 C   0  0  0  0  0  0  0  0  0  0  0  0
    0.8330   12.0540   -4.2990 C   0  0  0  0  0  0  0  0  0  0  0  0
   -3.1210   12.4750   -4.4410 N   0  0  0  0  0  0  0  0  0  0  0  0
    1.5550   12.8860   -3.4830 O   0  0  0  0  0  0  0  0  0  0  0  0
    0.2650   11.0480   -3.8830 O   0  0  0  0  0  0  0  0  0  0  0  0
    0.7680   13.1280   -2.2660 O   0  0  0  0  0  0  0  0  0  0  0  0
  1  2  1  0
  2  3  2  0
  2  4  1  0
  3  5  1  0
  3  6  1  0
  4  7  2  0
  6  8  1  0
  5  9  1  0
  6 10  2  0
  7 10  1  0
  9 11  1  0
  8 12  1  0
 11 13  1  0
 11 14  2  0
 13 15  1  0
M  END
