mac-x0148-diamond-x1018_0_A
     RDKit          3D

 24 28  0  0  0  0  0  0  0  0999 V2000
   -8.3820   14.7390    1.2670 Cl  0  0  0  0  0  0  0  0  0  0  0  0
   -7.2180   13.9540    0.1870 C   0  0  2  0  0  0  0  0  0  0  0  0
   -6.0940   13.3140    0.9440 C   0  0  0  0  0  0  0  0  0  0  0  0
   -6.7620   14.9010   -0.8430 N   0  0  0  0  0  0  0  0  0  0  0  0
   -5.6470   15.7340   -0.3620 N   0  0  0  0  0  0  0  0  0  0  0  0
   -4.8470   13.7740    0.8820 C   0  0  0  0  0  0  0  0  0  0  0  0
   -4.4610   14.9960    0.0770 C   0  0  2  0  0  0  0  0  0  0  0  0
   -3.5860   15.6000    1.0380 N   0  0  0  0  0  0  0  0  0  0  0  0
   -3.6090   14.7400   -1.2060 C   0  0  0  0  0  0  0  0  0  0  0  0
   -2.3140   15.1660    0.6630 C   0  0  0  0  0  0  0  0  0  0  0  0
   -2.2660   14.6910   -0.6260 C   0  0  0  0  0  0  0  0  0  0  0  0
   -1.2870   15.2230    1.4600 N   0  0  0  0  0  0  0  0  0  0  0  0
   -1.0800   14.2700   -1.1430 C   0  0  0  0  0  0  0  0  0  0  0  0
   -1.0120   13.7580   -2.4740 N   0  0  0  0  0  0  0  0  0  0  0  0
    0.0150   14.3360   -0.3700 N   0  0  0  0  0  0  0  0  0  0  0  0
   -0.1600   14.8060    0.8900 C   0  0  0  0  0  0  0  0  0  0  0  0
   -1.2080   14.6600   -3.6660 C   0  0  2  0  0  0  0  0  0  0  0  0
    0.1180   12.8330   -2.5520 C   0  0  0  0  0  0  0  0  0  0  0  0
   -2.6880   15.0690   -3.8620 C   0  0  0  0  0  0  0  0  0  0  0  0
   -0.9370   13.9090   -5.0100 C   0  0  2  0  0  0  0  0  0  0  0  0
   -0.2060   11.8730   -3.6730 C   0  0  0  0  0  0  0  0  0  0  0  0
   -2.3210   13.6980   -5.5990 C   0  0  0  0  0  0  0  0  0  0  0  0
   -3.0300   14.8730   -5.2430 O   0  0  0  0  0  0  0  0  0  0  0  0
   -0.0960   12.6320   -4.9800 C   0  0  0  0  0  0  0  0  0  0  0  0
  2  1  1  1
  2  3  1  0
  2  4  1  0
  4  5  1  0
  3  6  2  0
  5  7  1  0
  7  6  1  1
  7  8  1  0
  7  9  1  0
  8 10  1  0
  9 11  1  0
 10 11  2  0
 10 12  1  0
 11 13  1  0
 13 14  1  0
 13 15  2  0
 12 16  2  0
 15 16  1  0
 14 17  1  0
 14 18  1  0
 17 19  1  6
 17 20  1  0
 18 21  1  0
 20 22  1  1
 19 23  1  0
 22 23  1  0
 20 24  1  0
 21 24  1  0
M  END
