mac-x0402-mac-x0436
     RDKit          3D

 29 32  0  0  0  0  0  0  0  0999 V2000
   -1.7090   14.8290   -3.2230 Cl  0  0  0  0  0  0  0  0  0  0  0  0
   -3.1000   14.8140   -2.2080 C   0  0  0  0  0  0  0  0  0  0  0  0
   -4.3630   14.5760   -2.7310 C   0  0  0  0  0  0  0  0  0  0  0  0
   -2.9020   15.0430   -0.8500 C   0  0  0  0  0  0  0  0  0  0  0  0
   -4.5620   14.3010   -4.1940 C   0  0  0  0  0  0  0  0  0  0  0  0
   -4.0180   15.0300   -0.0220 C   0  0  0  0  0  0  0  0  0  0  0  0
   -5.4760   14.5720   -1.8780 C   0  0  0  0  0  0  0  0  0  0  0  0
   -4.0220   12.8870   -4.5260 C   0  0  0  0  0  0  0  0  0  0  0  0
   -5.3020   14.7930   -0.5050 C   0  0  0  0  0  0  0  0  0  0  0  0
   -4.0970   15.2750    1.6590 S   0  0  0  0  0  0  0  0  0  0  0  0
   -2.5900   12.9050   -4.8890 N   0  0  0  0  0  0  0  0  0  0  0  0
   -5.7980   15.0110    1.6070 C   0  0  0  0  0  0  0  0  0  0  0  0
   -6.3060   14.7870    0.4300 N   0  0  0  0  0  0  0  0  0  0  0  0
   -6.5650   15.0300    2.7180 N   0  0  0  0  0  0  0  0  0  0  0  0
   -1.9390   11.8220   -5.1840 C   0  0  0  0  0  0  0  0  0  0  0  0
   -0.4620   12.0280   -5.6210 C   0  0  0  0  0  0  0  0  0  0  0  0
   -2.3700   10.5120   -5.2050 N   0  0  0  0  0  0  0  0  0  0  0  0
    0.3740   13.2150   -5.1830 C   0  0  0  0  0  0  0  0  0  0  0  0
   -1.8520    9.6950   -6.2330 C   0  0  0  0  0  0  0  0  0  0  0  0
    0.1050   11.1640   -6.4170 N   0  0  0  0  0  0  0  0  0  0  0  0
    1.6020   12.9800   -4.3200 C   0  0  0  0  0  0  0  0  0  0  0  0
   -0.6190   10.0390   -6.8250 C   0  0  0  0  0  0  0  0  0  0  0  0
   -2.5420    8.5620   -6.6640 C   0  0  0  0  0  0  0  0  0  0  0  0
    1.2600   12.3790   -2.9720 C   0  0  0  0  0  0  0  0  0  0  0  0
   -0.1010    9.2410   -7.8420 C   0  0  0  0  0  0  0  0  0  0  0  0
   -2.0110    7.7700   -7.6840 C   0  0  0  0  0  0  0  0  0  0  0  0
    0.7390   11.1350   -2.9970 O   0  0  0  0  0  0  0  0  0  0  0  0
    1.4400   12.9640   -1.9210 O   0  0  0  0  0  0  0  0  0  0  0  0
   -0.7910    8.1130   -8.2710 C   0  0  0  0  0  0  0  0  0  0  0  0
  1  2  1  0
  2  3  2  0
  2  4  1  0
  3  5  1  0
  4  6  2  0
  3  7  1  0
  5  8  1  0
  6  9  1  0
  7  9  2  0
  6 10  1  0
  8 11  1  0
 10 12  1  0
  9 13  1  0
 12 13  2  0
 12 14  1  0
 11 15  2  3
 15 16  1  0
 15 17  1  0
 16 18  1  0
 17 19  1  0
 16 20  2  0
 18 21  1  0
 19 22  2  0
 20 22  1  0
 19 23  1  0
 21 24  1  0
 22 25  1  0
 23 26  2  0
 24 27  1  0
 24 28  2  0
 25 29  2  0
 26 29  1  0
M  END
