mac-x0301-mac-x0161
     RDKit          3D

 20 22  0  0  0  0  0  0  0  0999 V2000
    0.3980   15.1280   -2.9790 O   0  0  0  0  0  0  0  0  0  0  0  0
   -0.8930   14.5770   -3.1630 C   0  0  0  0  0  0  0  0  0  0  0  0
   -1.3680   15.1800   -4.3470 O   0  0  0  0  0  0  0  0  0  0  0  0
   -1.7450   14.7990   -1.9240 C   0  0  0  0  0  0  0  0  0  0  0  0
   -0.7050   13.1720   -3.5130 C   0  0  0  0  0  0  0  0  0  0  0  0
   -1.2740   14.6470   -0.6220 C   0  0  0  0  0  0  0  0  0  0  0  0
   -3.0970   15.1940   -2.0390 C   0  0  0  0  0  0  0  0  0  0  0  0
   -1.0590   12.4300   -4.6030 C   0  0  0  0  0  0  0  0  0  0  0  0
   -0.0460   12.3890   -2.6140 O   0  0  0  0  0  0  0  0  0  0  0  0
   -2.0670   14.8780    0.5000 C   0  0  0  0  0  0  0  0  0  0  0  0
   -3.9010   15.4260   -0.9040 C   0  0  0  0  0  0  0  0  0  0  0  0
   -0.0150   14.2720   -0.2820 O   0  0  0  0  0  0  0  0  0  0  0  0
    0.0340   11.1040   -3.1170 N   0  0  0  0  0  0  0  0  0  0  0  0
   -0.5750   11.1600   -4.3020 C   0  0  0  0  0  0  0  0  0  0  0  0
   -0.6960   10.0870   -5.1050 O   0  0  0  0  0  0  0  0  0  0  0  0
   -3.3980   15.2740    0.3930 C   0  0  0  0  0  0  0  0  0  0  0  0
   -1.3780   14.6790    1.6710 O   0  0  0  0  0  0  0  0  0  0  0  0
   -0.0660   14.4240    1.1510 C   0  0  0  0  0  0  0  0  0  0  0  0
   -4.2200   15.5230    1.5030 N   0  0  0  0  0  0  0  0  0  0  0  0
   -1.7450   10.2080   -6.0600 C   0  0  0  0  0  0  0  0  0  0  0  0
  2  1  1  0
  2  3  1  0
  2  4  1  0
  2  5  1  0
  4  6  1  0
  4  7  2  0
  5  8  2  0
  5  9  1  0
  6 10  2  0
  7 11  1  0
  6 12  1  0
  9 13  1  0
  8 14  1  0
 13 14  2  0
 14 15  1  0
 10 16  1  0
 11 16  2  0
 10 17  1  0
 12 18  1  0
 17 18  1  0
 16 19  1  0
 15 20  1  0
M  END
