mac-x0375-mac-x0255
     RDKit          3D

 20 22  0  0  0  0  0  0  0  0999 V2000
    1.9090   12.9580   -2.8350 O   0  0  0  0  0  0  0  0  0  0  0  0
    1.0200   12.0290   -3.2300 C   0  0  0  0  0  0  0  0  0  0  0  0
    0.8950   11.0010   -2.5940 O   0  0  0  0  0  0  0  0  0  0  0  0
    0.2190   12.3800   -4.4670 C   0  0  2  0  0  0  0  0  0  0  0  0
    0.5830   11.7270   -5.6860 O   0  0  0  0  0  0  0  0  0  0  0  0
   -0.0130   13.8470   -4.7110 C   0  0  0  0  0  0  0  0  0  0  0  0
   -0.4520   10.8730   -5.9710 C   0  0  0  0  0  0  0  0  0  0  0  0
    0.8260   14.9470   -4.8570 C   0  0  0  0  0  0  0  0  0  0  0  0
   -1.6480   14.2810   -4.8470 S   0  0  0  0  0  0  0  0  0  0  0  0
   -0.2790    9.7730   -6.8120 C   0  0  0  0  0  0  0  0  0  0  0  0
   -1.6940   11.1300   -5.3910 C   0  0  0  0  0  0  0  0  0  0  0  0
    0.0810   16.1630   -5.1050 C   0  0  0  0  0  0  0  0  0  0  0  0
   -1.2920   15.9130   -5.1210 C   0  0  0  0  0  0  0  0  0  0  0  0
   -1.3620    8.9280   -7.0620 C   0  0  0  0  0  0  0  0  0  0  0  0
   -2.7710   10.2870   -5.6440 C   0  0  0  0  0  0  0  0  0  0  0  0
    0.4880   17.4950   -5.3300 C   0  0  0  0  0  0  0  0  0  0  0  0
   -2.2450   16.9070   -5.3460 C   0  0  0  0  0  0  0  0  0  0  0  0
   -2.6030    9.1850   -6.4790 C   0  0  0  0  0  0  0  0  0  0  0  0
   -0.4650   18.4890   -5.5630 C   0  0  0  0  0  0  0  0  0  0  0  0
   -1.8130   18.2030   -5.5690 C   0  0  0  0  0  0  0  0  0  0  0  0
  1  2  1  0
  2  3  2  0
  2  4  1  0
  4  5  1  6
  4  6  1  0
  5  7  1  0
  6  8  2  0
  6  9  1  0
  7 10  2  0
  7 11  1  0
  8 12  1  0
  9 13  1  0
 12 13  2  0
 10 14  1  0
 11 15  2  0
 12 16  1  0
 13 17  1  0
 14 18  2  0
 15 18  1  0
 16 19  2  0
 17 20  2  0
 19 20  1  0
M  END
