mac-x0190-mac-x0138
     RDKit          3D

 22 25  0  0  0  0  0  0  0  0999 V2000
   -9.3810   15.1530    2.6860 O   0  0  0  0  0  0  0  0  0  0  0  0
   -8.7410   13.9370    2.3360 C   0  0  0  0  0  0  0  0  0  0  0  0
   -7.6320   14.3020    1.4410 C   0  0  0  0  0  0  0  0  0  0  0  0
   -7.8630   14.7860    0.2020 N   0  0  0  0  0  0  0  0  0  0  0  0
   -6.3380   14.2130    1.7050 N   0  0  0  0  0  0  0  0  0  0  0  0
   -6.6700   15.0250   -0.3770 C   0  0  0  0  0  0  0  0  0  0  0  0
   -5.6950   14.6600    0.5810 C   0  0  0  0  0  0  0  0  0  0  0  0
   -6.4190   15.5200   -1.6420 C   0  0  0  0  0  0  0  0  0  0  0  0
   -4.3540   14.8280    0.1560 C   0  0  0  0  0  0  0  0  0  0  0  0
   -5.1170   15.6580   -1.9760 C   0  0  0  0  0  0  0  0  0  0  0  0
   -4.1550   15.3310   -1.1090 C   0  0  0  0  0  0  0  0  0  0  0  0
   -3.0010   14.6530    0.5110 C   0  0  0  0  0  0  0  0  0  0  0  0
   -2.5220   14.7100   -0.7640 C   0  0  0  0  0  0  0  0  0  0  0  0
   -2.1680   14.4700    1.5890 N   0  0  0  0  0  0  0  0  0  0  0  0
   -3.2240   14.8850   -1.9450 N   0  0  0  0  0  0  0  0  0  0  0  0
   -1.2140   14.5900   -0.9840 C   0  0  0  0  0  0  0  0  0  0  0  0
   -0.8520   14.3460    1.2120 C   0  0  0  0  0  0  0  0  0  0  0  0
    0.0600   14.1310    2.2100 N   0  0  0  0  0  0  0  0  0  0  0  0
   -1.0960   14.7080   -2.3560 N   0  0  0  0  0  0  0  0  0  0  0  0
   -2.3390   14.8800   -2.8810 C   0  0  0  0  0  0  0  0  0  0  0  0
   -0.3040   14.4040   -0.0380 N   0  0  0  0  0  0  0  0  0  0  0  0
    0.1050   14.6630   -3.1250 C   0  0  0  0  0  0  0  0  0  0  0  0
  1  2  1  0
  2  3  1  0
  3  4  1  0
  3  5  2  0
  4  6  1  0
  5  7  1  0
  6  7  2  0
  6  8  1  0
  7  9  1  0
  8 10  2  0
  9 11  2  0
 10 11  1  0
  9 12  1  0
 12 13  1  0
 12 14  2  0
 13 15  1  0
 13 16  2  0
 14 17  1  0
 17 18  1  0
 16 19  1  0
 15 20  2  0
 19 20  1  0
 16 21  1  0
 17 21  2  0
 19 22  1  0
M  END
