mac-x0361-diamond-x0950_0_A
     RDKit          3D

 18 18  0  0  0  0  0  0  0  0999 V2000
   -6.3820   14.8280    1.7390 N   0  0  0  0  0  0  0  0  0  0  0  0
   -6.5400   14.7270    0.3730 C   0  0  0  0  0  0  0  0  0  0  0  0
   -7.6580   14.5570   -0.0940 O   0  0  0  0  0  0  0  0  0  0  0  0
   -5.3430   14.8350   -0.5160 C   0  0  0  0  0  0  0  0  0  0  0  0
   -4.0430   14.7090   -0.0220 C   0  0  0  0  0  0  0  0  0  0  0  0
   -5.5340   15.0630   -1.8880 C   0  0  0  0  0  0  0  0  0  0  0  0
   -2.9460   14.8060   -0.8870 C   0  0  0  0  0  0  0  0  0  0  0  0
   -4.4310   15.1560   -2.7440 C   0  0  0  0  0  0  0  0  0  0  0  0
   -3.1320   15.0280   -2.2500 C   0  0  0  0  0  0  0  0  0  0  0  0
   -2.1420   15.1330   -3.1880 O   0  0  0  0  0  0  0  0  0  0  0  0
   -1.1590   14.0860   -3.2700 C   0  0  0  0  0  0  0  0  0  0  0  0
    0.0270   14.3290   -2.3230 C   0  0  0  0  0  0  0  0  0  0  0  0
    0.6830   13.0740   -2.0110 O   0  0  0  0  0  0  0  0  0  0  0  0
    0.7580   12.1710   -3.0340 C   0  0  0  0  0  0  0  0  0  0  0  0
    1.3710   12.8200   -4.2820 C   0  0  1  0  0  0  0  0  0  0  0  0
    0.3900   11.0040   -2.9590 O   0  0  0  0  0  0  0  0  0  0  0  0
    2.8710   12.9410   -4.0910 C   0  0  0  0  0  0  0  0  0  0  0  0
    1.0900   12.1230   -5.4910 O   0  0  0  0  0  0  0  0  0  0  0  0
  1  2  1  0
  2  3  2  0
  2  4  1  0
  4  5  2  0
  4  6  1  0
  5  7  1  0
  6  8  2  0
  7  9  2  0
  8  9  1  0
  9 10  1  0
 10 11  1  0
 11 12  1  0
 12 13  1  0
 13 14  1  0
 14 15  1  0
 14 16  2  0
 15 17  1  1
 15 18  1  0
M  END
