mac-x0123-diamond-x0837_0_A
     RDKit          3D

 15 17  0  0  0  0  0  0  0  0999 V2000
   -3.4730   14.7670    1.7050 N   0  0  0  0  0  0  0  0  0  0  0  0
   -4.5710   14.6390    0.8700 C   0  0  0  0  0  0  0  0  0  0  0  0
   -5.8530   14.5170    1.2830 C   0  0  0  0  0  0  0  0  0  0  0  0
   -4.3390   14.6150   -0.6310 C   0  0  1  0  0  0  0  0  0  0  0  0
   -3.8470   12.6530   -1.3130 I   0  0  0  0  0  0  0  0  0  0  0  0
   -5.4930   14.8800   -1.4940 C   0  0  0  0  0  0  0  0  0  0  0  0
   -6.9400   14.4020    0.3020 C   0  0  0  0  0  0  0  0  0  0  0  0
   -6.5200   14.4610    2.6140 C   0  0  0  0  0  0  0  0  0  0  0  0
   -3.2020   15.2170   -1.3060 N   0  0  0  0  0  0  0  0  0  0  0  0
   -6.8240   14.5550   -0.9700 N   0  0  0  0  0  0  0  0  0  0  0  0
   -8.2550   14.0860    0.9080 C   0  0  0  0  0  0  0  0  0  0  0  0
   -8.0210   14.6150    2.3210 C   0  0  0  0  0  0  0  0  0  0  0  0
   -5.1020   15.3420   -2.6270 N   0  0  0  0  0  0  0  0  0  0  0  0
   -3.7410   15.5260   -2.4520 C   0  0  0  0  0  0  0  0  0  0  0  0
   -7.8260   14.4360   -1.7100 O   0  0  0  0  0  0  0  0  0  0  0  0
  1  2  1  0
  2  3  2  0
  2  4  1  0
  4  5  1  6
  4  6  1  0
  3  7  1  0
  3  8  1  0
  4  9  1  0
  6 10  1  0
  7 10  2  0
  7 11  1  0
  8 12  1  0
 11 12  1  0
  6 13  2  0
  9 14  2  0
 13 14  1  0
 10 15  1  0
M  CHG  2  10   1  15  -1
M  END
