mac-x0115-mac-x0472
     RDKit          3D

 32 35  0  0  0  0  0  0  0  0999 V2000
   -1.4170   18.5680   -5.1880 C   0  0  0  0  0  0  0  0  0  0  0  0
   -0.4040   17.6070   -5.7670 C   0  0  0  0  0  0  0  0  0  0  0  0
    1.0180   18.0660   -5.5140 C   0  0  0  0  0  0  0  0  0  0  0  0
   -0.6390   16.3160   -5.1790 O   0  0  0  0  0  0  0  0  0  0  0  0
    0.5350   15.6840   -4.6440 C   0  0  0  0  0  0  0  0  0  0  0  0
    0.2090   14.2800   -4.0900 C   0  0  0  0  0  0  0  0  0  0  0  0
    0.1560   14.1170   -2.6110 N   0  0  0  0  0  0  0  0  0  0  0  0
    1.3730   14.0730   -1.8950 C   0  0  0  0  0  0  0  0  0  0  0  0
   -0.8560   14.7270   -1.8670 C   0  0  0  0  0  0  0  0  0  0  0  0
    2.8830   13.6150   -2.4350 S   0  0  0  0  0  0  0  0  0  0  0  0
    1.2920   14.4750   -0.5830 N   0  0  0  0  0  0  0  0  0  0  0  0
   -0.4750   15.8950   -1.0970 C   0  0  2  0  0  0  0  0  0  0  0  0
   -2.0890   14.5740   -1.4970 C   0  0  0  0  0  0  0  0  0  0  0  0
   -3.0040   13.7030   -1.6060 N   0  0  0  0  0  0  0  0  0  0  0  0
    0.2720   15.1850   -0.0240 C   0  0  0  0  0  0  0  0  0  0  0  0
   -1.6140   16.4710   -0.4420 N   0  0  0  0  0  0  0  0  0  0  0  0
   -2.4890   15.6920   -0.7220 C   0  0  0  0  0  0  0  0  0  0  0  0
    0.0090   15.1840    1.1700 O   0  0  0  0  0  0  0  0  0  0  0  0
   -4.0570   14.0100   -2.8560 S   0  0  0  0  0  0  0  0  0  0  0  0
   -3.4710   14.0940   -0.2570 C   0  0  0  0  0  0  0  0  0  0  0  0
   -4.9950   15.0450   -2.4540 O   0  0  0  0  0  0  0  0  0  0  0  0
   -3.3550   14.0640   -4.1250 O   0  0  0  0  0  0  0  0  0  0  0  0
   -2.6200   14.0490    0.7620 N   0  0  0  0  0  0  0  0  0  0  0  0
   -5.0220   14.6880    0.2100 S   0  0  0  0  0  0  0  0  0  0  0  0
   -4.7140   12.4190   -2.5360 C   0  0  0  0  0  0  0  0  0  0  0  0
   -4.3970   14.8590    1.7950 C   0  0  0  0  0  0  0  0  0  0  0  0
   -3.1470   14.4910    1.9470 N   0  0  0  0  0  0  0  0  0  0  0  0
   -3.9460   11.3210   -2.9260 C   0  0  0  0  0  0  0  0  0  0  0  0
   -5.9350   12.2650   -1.8970 C   0  0  0  0  0  0  0  0  0  0  0  0
   -4.4130   10.0450   -2.6750 C   0  0  0  0  0  0  0  0  0  0  0  0
   -6.3990   10.9820   -1.6460 C   0  0  0  0  0  0  0  0  0  0  0  0
   -5.6410    9.8760   -2.0370 C   0  0  0  0  0  0  0  0  0  0  0  0
  1  2  1  0
  2  3  1  0
  2  4  1  0
  4  5  1  0
  5  6  1  0
  6  7  1  0
  7  8  1  0
  7  9  1  0
  8 10  2  0
  8 11  1  0
  9 12  1  0
  9 13  2  0
 13 14  1  0
 11 15  1  0
 12 15  1  0
 12 16  1  1
 13 17  1  0
 16 17  2  0
 15 18  2  0
 19 14  1  0
 14 20  1  0
 19 21  2  0
 19 22  2  0
 20 23  2  0
 20 24  1  0
 19 25  1  0
 24 26  1  0
 23 27  1  0
 26 27  2  0
 25 28  2  0
 25 29  1  0
 28 30  1  0
 29 31  2  0
 30 32  2  0
 31 32  1  0
M  END
