mac-x0347-mac-x0568
     RDKit          3D

 19 20  0  0  0  0  0  0  0  0999 V2000
    1.0280   14.4630   -3.6800 O   0  0  0  0  0  0  0  0  0  0  0  0
    0.2550   13.9520   -2.7010 C   0  0  0  0  0  0  0  0  0  0  0  0
    0.7210   13.3090   -1.7780 O   0  0  0  0  0  0  0  0  0  0  0  0
   -1.1860   14.2670   -2.8590 C   0  0  0  0  0  0  0  0  0  0  0  0
   -2.1020   14.2510   -1.7980 C   0  0  0  0  0  0  0  0  0  0  0  0
   -1.6710   14.6020   -4.1160 C   0  0  0  0  0  0  0  0  0  0  0  0
   -3.4690   14.5750   -2.0070 C   0  0  0  0  0  0  0  0  0  0  0  0
   -2.9720   14.9110   -4.3640 N   0  0  0  0  0  0  0  0  0  0  0  0
   -3.8370   14.8940   -3.3110 C   0  0  0  0  0  0  0  0  0  0  0  0
   -4.3990   14.5830   -0.8490 C   0  0  0  0  0  0  0  0  0  0  0  0
   -3.8870   15.2020    0.2540 C   0  0  0  0  0  0  0  0  0  0  0  0
   -5.7060   14.0500   -0.7660 C   0  0  0  0  0  0  0  0  0  0  0  0
   -2.5550   15.6990   -0.0250 C   0  0  0  0  0  0  0  0  0  0  0  0
   -4.5690   15.3280    1.4600 C   0  0  0  0  0  0  0  0  0  0  0  0
   -6.4400   14.1660    0.4470 C   0  0  0  0  0  0  0  0  0  0  0  0
   -7.8400   13.6320    0.6070 C   0  0  0  0  0  0  0  0  0  0  0  0
   -2.3410   16.2630   -1.0840 O   0  0  0  0  0  0  0  0  0  0  0  0
   -1.5770   15.4600    0.8770 N   0  0  0  0  0  0  0  0  0  0  0  0
   -5.8530   14.8000    1.5460 C   0  0  0  0  0  0  0  0  0  0  0  0
  1  2  1  0
  2  3  2  0
  2  4  1  0
  4  5  2  0
  4  6  1  0
  5  7  1  0
  6  8  2  0
  7  9  2  0
  8  9  1  0
  7 10  1  0
 10 11  2  0
 10 12  1  0
 11 13  1  0
 11 14  1  0
 12 15  2  0
 15 16  1  0
 13 17  2  0
 13 18  1  0
 14 19  2  0
 15 19  1  0
M  END
