mac-x0188-mac-x0453
     RDKit          3D

 18 19  0  0  0  0  0  0  0  0999 V2000
    1.3880   13.2400   -5.2150 C   0  0  0  0  0  0  0  0  0  0  0  0
    0.0860   13.6120   -4.6290 C   0  0  0  0  0  0  0  0  0  0  0  0
   -0.9670   13.7390   -5.4810 O   0  0  0  0  0  0  0  0  0  0  0  0
   -0.3340   13.8770   -3.3440 C   0  0  0  0  0  0  0  0  0  0  0  0
    0.5130   13.8410   -2.1730 C   0  0  0  0  0  0  0  0  0  0  0  0
   -2.1000   14.0860   -4.7710 N   0  0  0  0  0  0  0  0  0  0  0  0
   -1.7150   14.1640   -3.4890 C   0  0  0  0  0  0  0  0  0  0  0  0
    1.2000   14.7760   -1.7880 O   0  0  0  0  0  0  0  0  0  0  0  0
    0.5340   12.6620   -1.4910 O   0  0  0  0  0  0  0  0  0  0  0  0
   -2.6380   14.4920   -2.4250 C   0  0  0  0  0  0  0  0  0  0  0  0
   -3.8850   15.1100   -2.6200 C   0  0  0  0  0  0  0  0  0  0  0  0
   -2.2230   14.1440   -1.1490 C   0  0  0  0  0  0  0  0  0  0  0  0
   -4.7050   15.3560   -1.5060 C   0  0  0  0  0  0  0  0  0  0  0  0
   -3.0220   14.3820   -0.0650 C   0  0  0  0  0  0  0  0  0  0  0  0
   -4.2510   14.9710   -0.2290 C   0  0  0  0  0  0  0  0  0  0  0  0
   -5.0080   15.1360    1.0370 C   0  0  0  0  0  0  0  0  0  0  0  0
   -6.3580   14.3990    1.0530 C   0  0  0  0  0  0  0  0  0  0  0  0
   -6.9280   14.2980    2.3940 N   0  0  0  0  0  0  0  0  0  0  0  0
  1  2  1  0
  2  3  1  0
  2  4  2  0
  4  5  1  0
  3  6  1  0
  4  7  1  0
  6  7  2  0
  5  8  2  0
  5  9  1  0
  7 10  1  0
 10 11  2  0
 10 12  1  0
 11 13  1  0
 12 14  2  0
 13 15  2  0
 14 15  1  0
 15 16  1  0
 16 17  1  0
 17 18  1  0
M  END
