mac-x0451-diamond-x0910_1_A
     RDKit          3D

 12 13  0  0  0  0  0  0  0  0999 V2000
   -6.7050   14.3880    2.6000 N   0  0  0  0  0  0  0  0  0  0  0  0
   -5.6230   14.8780    1.7930 C   0  0  2  0  0  0  0  0  0  0  0  0
   -6.2110   14.9890    0.4510 N   0  0  0  0  0  0  0  0  0  0  0  0
   -4.1780   13.8110    1.6730 S   0  0  0  0  0  0  0  0  0  0  0  0
   -7.4130   14.1450    0.3660 N   0  0  0  0  0  0  0  0  0  0  0  0
   -5.1520   14.6100   -0.5150 C   0  0  2  0  0  0  0  0  0  0  0  0
   -3.7780   14.6770    0.1760 C   0  0  2  0  0  0  0  0  0  0  0  0
   -5.0850   15.3190   -1.8300 C   0  0  0  0  0  0  0  0  0  0  0  0
   -2.7020   14.0380   -0.6800 C   0  0  0  0  0  0  0  0  0  0  0  0
   -3.9260   15.3710   -2.5110 C   0  0  0  0  0  0  0  0  0  0  0  0
   -2.6330   14.7470   -2.0320 C   0  0  2  0  0  0  0  0  0  0  0  0
   -2.2050   13.8630   -2.9650 F   0  0  0  0  0  0  0  0  0  0  0  0
  2  1  1  1
  2  3  1  0
  2  4  1  0
  3  5  1  0
  3  6  1  0
  4  7  1  0
  6  7  1  0
  6  8  1  6
  7  9  1  6
  8 10  2  0
  9 11  1  0
 10 11  1  0
 11 12  1  6
M  END
