mac-x0358-mac-x0373
     RDKit          3D

 26 28  0  0  0  0  0  0  0  0999 V2000
    0.8320   13.1520   -2.0930 O   0  0  0  0  0  0  0  0  0  0  0  0
    0.7970   12.3610   -3.1910 C   0  0  0  0  0  0  0  0  0  0  0  0
    0.6630   11.1440   -3.1810 O   0  0  0  0  0  0  0  0  0  0  0  0
    0.1280   14.3230   -2.0490 C   0  0  0  0  0  0  0  0  0  0  0  0
    0.9400   13.1580   -4.4970 C   0  0  0  0  0  0  0  0  0  0  0  0
    0.5930   15.3770   -1.6510 O   0  0  0  0  0  0  0  0  0  0  0  0
   -1.3380   14.2300   -2.5570 C   0  0  0  0  0  0  0  0  0  0  0  0
   -0.4150   13.6360   -5.0060 C   0  0  0  0  0  0  0  0  0  0  0  0
   -1.7590   12.9140   -3.2120 C   0  0  0  0  0  0  0  0  0  0  0  0
   -2.4150   14.7250   -1.6030 C   0  0  0  0  0  0  0  0  0  0  0  0
   -1.3240   12.8070   -5.7020 C   0  0  0  0  0  0  0  0  0  0  0  0
   -0.8050   14.9710   -4.7710 C   0  0  0  0  0  0  0  0  0  0  0  0
   -0.9280   12.3050   -4.1560 C   0  0  0  0  0  0  0  0  0  0  0  0
   -2.9720   12.2870   -2.8970 C   0  0  0  0  0  0  0  0  0  0  0  0
   -3.6190   15.2840   -2.0720 C   0  0  0  0  0  0  0  0  0  0  0  0
   -2.2150   14.6210   -0.2180 C   0  0  0  0  0  0  0  0  0  0  0  0
   -1.0720   11.4960   -6.0120 O   0  0  0  0  0  0  0  0  0  0  0  0
   -2.5650   13.2850   -6.1230 C   0  0  0  0  0  0  0  0  0  0  0  0
   -2.0530   15.4480   -5.1980 C   0  0  0  0  0  0  0  0  0  0  0  0
   -1.2890   11.1040   -4.7720 C   0  0  0  0  0  0  0  0  0  0  0  0
   -3.3340   11.0880   -3.5160 C   0  0  0  0  0  0  0  0  0  0  0  0
   -4.5910   15.7230   -1.1730 C   0  0  0  0  0  0  0  0  0  0  0  0
   -3.1900   15.0630    0.6760 C   0  0  0  0  0  0  0  0  0  0  0  0
   -2.9320   14.6050   -5.8700 C   0  0  0  0  0  0  0  0  0  0  0  0
   -2.4940   10.5000   -4.4520 C   0  0  0  0  0  0  0  0  0  0  0  0
   -4.3730   15.6110    0.1930 C   0  0  0  0  0  0  0  0  0  0  0  0
  1  2  1  0
  2  3  2  0
  1  4  1  0
  2  5  1  0
  4  6  2  0
  4  7  1  0
  5  8  1  0
  7  9  1  0
  7 10  1  0
  8 11  2  0
  8 12  1  0
  9 13  2  0
  9 14  1  0
 10 15  2  0
 10 16  1  0
 11 17  1  0
 11 18  1  0
 12 19  2  0
 13 20  1  0
 14 21  2  0
 15 22  1  0
 16 23  2  0
 18 24  2  0
 19 24  1  0
 20 25  2  0
 21 25  1  0
 22 26  2  0
 23 26  1  0
M  END
