mac-x0357-mac-x0397
     RDKit          3D

 23 25  0  0  0  0  0  0  0  0999 V2000
    2.4480   13.1160   -4.6780 C   0  0  0  0  0  0  0  0  0  0  0  0
    1.1030   12.4780   -4.9050 C   0  0  0  0  0  0  0  0  0  0  0  0
    0.8340   11.7990   -6.0940 C   0  0  0  0  0  0  0  0  0  0  0  0
    0.0810   12.5320   -3.9550 C   0  0  0  0  0  0  0  0  0  0  0  0
    1.8130   11.7320   -7.0240 O   0  0  0  0  0  0  0  0  0  0  0  0
    0.2800   13.2300   -2.6870 C   0  0  0  0  0  0  0  0  0  0  0  0
   -1.1650   11.9250   -4.1860 C   0  0  0  0  0  0  0  0  0  0  0  0
   -0.3970   11.1910   -6.3440 C   0  0  0  0  0  0  0  0  0  0  0  0
   -0.3600   14.2010   -2.1850 N   0  0  0  0  0  0  0  0  0  0  0  0
    1.3090   12.7300   -1.9920 O   0  0  0  0  0  0  0  0  0  0  0  0
   -1.4000   11.2560   -5.3830 C   0  0  0  0  0  0  0  0  0  0  0  0
   -1.4870   14.7170   -2.9530 C   0  0  0  0  0  0  0  0  0  0  0  0
   -2.7130   14.8070   -2.0870 C   0  0  0  0  0  0  0  0  0  0  0  0
   -3.9740   14.9710   -2.6570 C   0  0  0  0  0  0  0  0  0  0  0  0
   -2.5790   14.7180   -0.6920 C   0  0  0  0  0  0  0  0  0  0  0  0
   -3.7290   14.7920    0.0960 C   0  0  0  0  0  0  0  0  0  0  0  0
   -5.0900   15.0370   -1.8340 C   0  0  0  0  0  0  0  0  0  0  0  0
   -6.6780   15.2250   -2.4260 Cl  0  0  0  0  0  0  0  0  0  0  0  0
   -4.9950   14.9480   -0.4530 C   0  0  0  0  0  0  0  0  0  0  0  0
   -3.8830   14.7150    1.7910 S   0  0  0  0  0  0  0  0  0  0  0  0
   -5.5870   14.8870    1.6540 C   0  0  0  0  0  0  0  0  0  0  0  0
   -6.0330   14.9950    0.4470 N   0  0  0  0  0  0  0  0  0  0  0  0
   -6.4180   14.9150    2.7020 N   0  0  0  0  0  0  0  0  0  0  0  0
  1  2  1  0
  2  3  2  0
  2  4  1  0
  3  5  1  0
  4  6  1  0
  4  7  2  0
  3  8  1  0
  6  9  2  3
  6 10  1  0
  7 11  1  0
  8 11  2  0
  9 12  1  0
 12 13  1  0
 13 14  2  0
 13 15  1  0
 15 16  2  0
 14 17  1  0
 17 18  1  0
 16 19  1  0
 17 19  2  0
 16 20  1  0
 20 21  1  0
 19 22  1  0
 21 22  2  0
 21 23  1  0
M  END
