mac-x0546-mac-x0284
     RDKit          3D

 25 27  0  0  0  0  0  0  0  0999 V2000
   -4.3610   15.5020   -6.2380 C   0  0  0  0  0  0  0  0  0  0  0  0
   -3.4730   16.6190   -6.2310 O   0  0  0  0  0  0  0  0  0  0  0  0
   -2.3160   16.4280   -5.5420 C   0  0  0  0  0  0  0  0  0  0  0  0
   -1.8680   15.2380   -5.1430 C   0  0  0  0  0  0  0  0  0  0  0  0
   -1.5600   17.6480   -5.2620 C   0  0  0  0  0  0  0  0  0  0  0  0
   -0.6100   15.1670   -4.3660 C   0  0  2  0  0  0  0  0  0  0  0  0
   -0.2630   17.6260   -4.8850 C   0  0  0  0  0  0  0  0  0  0  0  0
    0.3160   16.2780   -4.7690 C   0  0  0  0  0  0  0  0  0  0  0  0
    0.3850   14.0470   -4.4610 C   0  0  0  0  0  0  0  0  0  0  0  0
    0.0960   12.5950   -4.2280 C   0  0  0  0  0  0  0  0  0  0  0  0
    1.5400   15.9430   -4.9560 N   0  0  0  0  0  0  0  0  0  0  0  0
    1.5640   14.5780   -4.7730 C   0  0  0  0  0  0  0  0  0  0  0  0
    0.3830   12.0870   -2.8240 C   0  0  0  0  0  0  0  0  0  0  0  0
    0.3710   12.7830   -1.7350 N   0  0  0  0  0  0  0  0  0  0  0  0
    0.6350   10.7710   -2.8290 O   0  0  0  0  0  0  0  0  0  0  0  0
    0.0310   14.2020   -1.7330 C   0  0  1  0  0  0  0  0  0  0  0  0
    0.7520   14.9430   -2.7040 O   0  0  0  0  0  0  0  0  0  0  0  0
   -1.4880   14.4900   -1.7440 C   0  0  0  0  0  0  0  0  0  0  0  0
   -2.1070   14.8770   -0.5440 C   0  0  0  0  0  0  0  0  0  0  0  0
   -2.3380   14.4040   -2.8710 C   0  0  0  0  0  0  0  0  0  0  0  0
   -1.9090   14.0300   -4.1050 O   0  0  0  0  0  0  0  0  0  0  0  0
   -3.4760   15.1740   -0.4680 C   0  0  0  0  0  0  0  0  0  0  0  0
   -3.6990   14.6980   -2.8040 C   0  0  0  0  0  0  0  0  0  0  0  0
   -4.0670   15.5900    0.8460 C   0  0  0  0  0  0  0  0  0  0  0  0
   -4.2700   15.0860   -1.6030 C   0  0  0  0  0  0  0  0  0  0  0  0
  1  2  1  0
  2  3  1  0
  3  4  2  0
  3  5  1  0
  6  4  1  6
  5  7  2  0
  6  8  1  0
  7  8  1  0
  6  9  1  0
  9 10  1  0
  8 11  2  0
  9 12  2  0
 11 12  1  0
 10 13  1  0
 13 14  2  3
 13 15  1  0
 14 16  1  0
 16 17  1  6
 16 18  1  0
 18 19  2  0
 18 20  1  0
 20 21  1  0
 19 22  1  0
 20 23  2  0
 22 24  1  0
 22 25  2  0
 23 25  1  0
M  END
