mac-x0436-mac-x0271
     RDKit          3D

 30 33  0  0  0  0  0  0  0  0999 V2000
    0.7720   11.0940   -3.0760 O   0  0  0  0  0  0  0  0  0  0  0  0
    1.2280   12.3550   -3.0450 C   0  0  0  0  0  0  0  0  0  0  0  0
    1.3780   12.9350   -1.9850 O   0  0  0  0  0  0  0  0  0  0  0  0
    1.5340   12.9180   -4.4100 C   0  0  0  0  0  0  0  0  0  0  0  0
    0.2890   13.3410   -5.1730 C   0  0  0  0  0  0  0  0  0  0  0  0
   -0.4840   12.1580   -5.7230 C   0  0  0  0  0  0  0  0  0  0  0  0
   -2.0100   12.1610   -5.5580 C   0  0  0  0  0  0  0  0  0  0  0  0
    0.1360   11.1900   -6.3330 N   0  0  0  0  0  0  0  0  0  0  0  0
   -2.4990   13.3090   -5.1750 N   0  0  0  0  0  0  0  0  0  0  0  0
   -2.6610   10.9800   -5.8700 N   0  0  0  0  0  0  0  0  0  0  0  0
   -0.6150   10.0960   -6.8160 C   0  0  0  0  0  0  0  0  0  0  0  0
   -3.9470   13.5920   -5.0270 C   0  0  0  0  0  0  0  0  0  0  0  0
   -1.9930    9.9750   -6.5810 C   0  0  0  0  0  0  0  0  0  0  0  0
    0.0420    9.1010   -7.5460 C   0  0  0  0  0  0  0  0  0  0  0  0
   -4.2470   14.9190   -4.3180 C   0  0  0  0  0  0  0  0  0  0  0  0
   -0.6590    7.9950   -8.0270 C   0  0  0  0  0  0  0  0  0  0  0  0
   -2.6940    8.8610   -7.0610 C   0  0  0  0  0  0  0  0  0  0  0  0
   -3.5730   15.1010   -3.0570 O   0  0  0  0  0  0  0  0  0  0  0  0
   -2.0250    7.8740   -7.7820 C   0  0  0  0  0  0  0  0  0  0  0  0
   -4.2320   15.0530   -1.8400 C   0  0  0  0  0  0  0  0  0  0  0  0
   -5.6360   14.9810   -1.8740 C   0  0  0  0  0  0  0  0  0  0  0  0
   -3.5920   15.0660   -0.5980 C   0  0  0  0  0  0  0  0  0  0  0  0
   -6.3530   14.9200   -0.6700 C   0  0  0  0  0  0  0  0  0  0  0  0
   -4.3210   15.0020    0.5950 C   0  0  0  0  0  0  0  0  0  0  0  0
   -5.7110   14.9250    0.5610 C   0  0  0  0  0  0  0  0  0  0  0  0
   -7.7660   14.8460   -0.7340 O   0  0  0  0  0  0  0  0  0  0  0  0
   -6.5180   14.8510    1.7750 C   0  0  0  0  0  0  0  0  0  0  0  0
   -8.5520   14.8410    0.4180 C   0  0  0  0  0  0  0  0  0  0  0  0
   -9.7770   14.8750    0.3900 O   0  0  0  0  0  0  0  0  0  0  0  0
   -7.8470   14.8060    1.7000 C   0  0  0  0  0  0  0  0  0  0  0  0
  1  2  1  0
  2  3  2  0
  2  4  1  0
  4  5  1  0
  5  6  1  0
  6  7  1  0
  6  8  2  0
  7  9  2  3
  7 10  1  0
  8 11  1  0
  9 12  1  0
 10 13  1  0
 11 13  2  0
 11 14  1  0
 12 15  1  0
 14 16  2  0
 13 17  1  0
 15 18  1  0
 16 19  1  0
 17 19  2  0
 18 20  1  0
 20 21  2  0
 20 22  1  0
 21 23  1  0
 22 24  2  0
 23 25  2  0
 24 25  1  0
 23 26  1  0
 25 27  1  0
 26 28  1  0
 28 29  2  0
 27 30  2  0
 28 30  1  0
M  END
