mac-x0546-mac-x0277
     RDKit          3D

 16 17  0  0  0  0  0  0  0  0999 V2000
   -4.9090   14.8240   -5.6260 C   0  0  0  0  0  0  0  0  0  0  0  0
   -4.0800   15.8290   -6.1770 O   0  0  0  0  0  0  0  0  0  0  0  0
   -2.8040   15.8870   -5.7320 C   0  0  0  0  0  0  0  0  0  0  0  0
   -1.9720   14.8000   -5.3680 C   0  0  0  0  0  0  0  0  0  0  0  0
   -2.3560   17.1910   -5.6670 C   0  0  0  0  0  0  0  0  0  0  0  0
   -0.6610   15.0800   -4.9300 C   0  0  0  0  0  0  0  0  0  0  0  0
   -1.1210   17.4730   -5.2350 C   0  0  0  0  0  0  0  0  0  0  0  0
   -0.3410   16.4070   -4.8870 C   0  0  0  0  0  0  0  0  0  0  0  0
    0.5160   14.3510   -4.4880 C   0  0  0  0  0  0  0  0  0  0  0  0
    0.6610   12.8580   -4.3790 C   0  0  0  0  0  0  0  0  0  0  0  0
    0.8410   16.5310   -4.4570 N   0  0  0  0  0  0  0  0  0  0  0  0
    1.4690   15.3450   -4.1910 C   0  0  0  0  0  0  0  0  0  0  0  0
    0.5800   12.3280   -2.9630 C   0  0  0  0  0  0  0  0  0  0  0  0
    1.2220   18.1790   -4.3600 Cl  0  0  0  0  0  0  0  0  0  0  0  0
    0.8250   12.9130   -1.9240 O   0  0  0  0  0  0  0  0  0  0  0  0
    0.1860   11.0370   -2.9140 O   0  0  0  0  0  0  0  0  0  0  0  0
  1  2  1  0
  2  3  1  0
  3  4  2  0
  3  5  1  0
  4  6  1  0
  5  7  2  0
  6  8  2  0
  7  8  1  0
  6  9  1  0
  9 10  1  0
  8 11  1  0
  9 12  2  0
 11 12  1  0
 10 13  1  0
 11 14  1  0
 13 15  2  0
 13 16  1  0
M  END
