mac-x0132-mac-x0302
     RDKit          3D

 18 19  0  0  0  0  0  0  0  0999 V2000
   -4.0770   14.8640    2.2230 N   0  0  0  0  0  0  0  0  0  0  0  0
   -5.1180   14.8130    1.3030 C   0  0  0  0  0  0  0  0  0  0  0  0
   -6.3600   14.6950    1.8070 N   0  0  0  0  0  0  0  0  0  0  0  0
   -4.8390   14.8810   -0.0490 C   0  0  0  0  0  0  0  0  0  0  0  0
   -5.9540   14.8320   -0.8740 C   0  0  0  0  0  0  0  0  0  0  0  0
   -7.3530   14.6480    0.9130 C   0  0  0  0  0  0  0  0  0  0  0  0
   -3.5270   14.9880   -0.5790 C   0  0  0  0  0  0  0  0  0  0  0  0
   -7.2070   14.7160   -0.4050 N   0  0  0  0  0  0  0  0  0  0  0  0
   -5.7420   14.9040   -2.2290 C   0  0  0  0  0  0  0  0  0  0  0  0
   -3.3150   15.0470   -1.9510 C   0  0  0  0  0  0  0  0  0  0  0  0
   -6.8700   14.8520   -3.0080 O   0  0  0  0  0  0  0  0  0  0  0  0
   -4.4440   15.0100   -2.7700 C   0  0  0  0  0  0  0  0  0  0  0  0
   -2.0070   15.1480   -2.5170 N   0  0  0  0  0  0  0  0  0  0  0  0
   -4.2450   15.0790   -4.1220 O   0  0  0  0  0  0  0  0  0  0  0  0
   -1.3760   13.9260   -3.0790 C   0  0  0  0  0  0  0  0  0  0  0  0
    0.1320   13.8750   -2.7720 C   0  0  0  0  0  0  0  0  0  0  0  0
    0.9400   14.1510   -3.8210 O   0  0  0  0  0  0  0  0  0  0  0  0
    0.5940   13.6160   -1.6720 O   0  0  0  0  0  0  0  0  0  0  0  0
  1  2  1  0
  2  3  2  0
  2  4  1  0
  4  5  2  0
  3  6  1  0
  4  7  1  0
  5  8  1  0
  6  8  2  0
  5  9  1  0
  7 10  2  0
  9 11  1  0
  9 12  2  0
 10 12  1  0
 10 13  1  0
 12 14  1  0
 13 15  1  0
 15 16  1  0
 16 17  1  0
 16 18  2  0
M  END
