mac-x0163-mac-x0371
     RDKit          3D

 23 25  0  0  0  0  0  0  0  0999 V2000
   -4.2780   15.5720   -1.0670 Cl  0  0  0  0  0  0  0  0  0  0  0  0
   -2.7490   15.2890   -0.3110 C   0  0  0  0  0  0  0  0  0  0  0  0
   -2.6700   15.1990    1.0610 C   0  0  0  0  0  0  0  0  0  0  0  0
   -1.5920   15.1430   -1.0420 C   0  0  0  0  0  0  0  0  0  0  0  0
   -3.8260   15.3730    1.8420 N   0  0  0  0  0  0  0  0  0  0  0  0
   -0.4070   14.9120   -0.4350 N   0  0  0  0  0  0  0  0  0  0  0  0
   -1.5130   14.9540    1.6840 N   0  0  0  0  0  0  0  0  0  0  0  0
   -1.7110   15.2270   -2.4240 N   0  0  0  0  0  0  0  0  0  0  0  0
   -0.4350   14.8270    0.9070 C   0  0  0  0  0  0  0  0  0  0  0  0
   -2.2600   13.9810   -2.9030 C   0  0  0  0  0  0  0  0  0  0  0  0
   -0.6730   15.7860   -3.2970 C   0  0  0  0  0  0  0  0  0  0  0  0
   -1.1400   12.9260   -3.0440 C   0  0  0  0  0  0  0  0  0  0  0  0
   -0.5140   14.8430   -4.5160 C   0  0  2  0  0  0  0  0  0  0  0  0
   -2.1630   14.7510   -5.2600 Cl  0  0  0  0  0  0  0  0  0  0  0  0
   -0.8300   12.2160   -1.6810 C   0  0  0  0  0  0  0  0  0  0  0  0
   -1.8990   11.6120   -3.4600 C   0  0  0  0  0  0  0  0  0  0  0  0
    0.0260   13.4680   -3.9820 C   0  0  1  0  0  0  0  0  0  0  0  0
    1.7270   13.5410   -3.2730 Cl  0  0  0  0  0  0  0  0  0  0  0  0
    0.1830   12.2590   -4.8920 C   0  0  0  0  0  0  0  0  0  0  0  0
   -1.2750   10.8650   -2.2830 C   0  0  0  0  0  0  0  0  0  0  0  0
    0.2830   11.0840   -3.9530 C   0  0  0  0  0  0  0  0  0  0  0  0
    0.8890   11.3730   -2.7810 O   0  0  0  0  0  0  0  0  0  0  0  0
   -0.1330    9.9640   -4.1490 O   0  0  0  0  0  0  0  0  0  0  0  0
  1  2  1  0
  2  3  2  0
  2  4  1  0
  3  5  1  0
  4  6  2  0
  3  7  1  0
  4  8  1  0
  6  9  1  0
  7  9  2  0
  8 10  1  0
  8 11  1  0
 12 10  1  0
 11 13  1  0
 13 14  1  1
 12 15  1  0
 12 16  1  0
 12 17  1  0
 13 17  1  0
 17 18  1  0
 17 19  1  6
 15 20  1  0
 16 20  1  0
 19 21  1  0
 21 22  1  0
 21 23  2  0
M  END
