mac-x0358-mac-x0161
     RDKit          3D

 28 31  0  0  0  0  0  0  0  0999 V2000
    0.0310   15.3730   -5.3440 O   0  0  0  0  0  0  0  0  0  0  0  0
   -0.2510   14.0700   -5.5740 C   0  0  0  0  0  0  0  0  0  0  0  0
    0.6470   13.2600   -5.7020 O   0  0  0  0  0  0  0  0  0  0  0  0
   -1.7550   13.8360   -5.6400 C   0  0  0  0  0  0  0  0  0  0  0  0
   -2.1970   12.5290   -6.2760 C   0  0  0  0  0  0  0  0  0  0  0  0
   -1.8730   11.2790   -5.6960 C   0  0  0  0  0  0  0  0  0  0  0  0
   -2.9440   12.5740   -7.4540 C   0  0  0  0  0  0  0  0  0  0  0  0
   -2.3030   10.0740   -6.2920 C   0  0  0  0  0  0  0  0  0  0  0  0
   -3.3690   11.4020   -8.0540 C   0  0  0  0  0  0  0  0  0  0  0  0
   -1.0940   11.4020   -4.4860 C   0  0  0  0  0  0  0  0  0  0  0  0
   -3.0530   10.1660   -7.4790 C   0  0  0  0  0  0  0  0  0  0  0  0
   -0.8780   12.6670   -3.9660 C   0  0  0  0  0  0  0  0  0  0  0  0
   -0.5020   10.4560   -3.7300 N   0  0  0  0  0  0  0  0  0  0  0  0
   -2.0120    8.6940   -5.7400 C   0  0  0  0  0  0  0  0  0  0  0  0
   -0.1400   12.5040   -2.8780 C   0  0  0  0  0  0  0  0  0  0  0  0
    0.1160   11.1690   -2.6850 O   0  0  0  0  0  0  0  0  0  0  0  0
   -0.5400    8.3380   -5.8270 C   0  0  0  0  0  0  0  0  0  0  0  0
    0.3470   13.5570   -1.9820 C   0  0  0  0  0  0  0  0  0  0  0  0
   -0.7430   14.4080   -1.4910 N   0  0  0  0  0  0  0  0  0  0  0  0
   -1.9730   14.5260   -2.2780 C   0  0  0  0  0  0  0  0  0  0  0  0
   -1.0190   13.9770   -0.1920 C   0  0  2  0  0  0  0  0  0  0  0  0
   -3.1450   15.0950   -1.5690 N   0  0  0  0  0  0  0  0  0  0  0  0
   -1.9320   14.8190    0.6110 C   0  0  1  0  0  0  0  0  0  0  0  0
    0.1860   14.1150    0.5470 N   0  0  0  0  0  0  0  0  0  0  0  0
   -3.2600   14.8030   -0.1470 C   0  0  1  0  0  0  0  0  0  0  0  0
   -1.7540   14.1480    1.8750 N   0  0  0  0  0  0  0  0  0  0  0  0
   -0.3010   13.8930    1.8800 C   0  0  0  0  0  0  0  0  0  0  0  0
   -4.2040   15.7770    0.3580 N   0  0  0  0  0  0  0  0  0  0  0  0
  1  2  1  0
  2  3  2  0
  2  4  1  0
  4  5  1  0
  5  6  2  0
  5  7  1  0
  6  8  1  0
  7  9  2  0
  6 10  1  0
  8 11  2  0
  9 11  1  0
 10 12  1  0
 10 13  2  0
  8 14  1  0
 12 15  2  0
 13 16  1  0
 15 16  1  0
 14 17  1  0
 15 18  1  0
 18 19  1  0
 19 20  1  0
 19 21  1  0
 20 22  1  0
 21 23  1  0
 21 24  1  1
 22 25  1  0
 23 25  1  0
 23 26  1  1
 24 27  1  0
 26 27  1  0
 25 28  1  1
M  END
