mac-x0319-mac-x0546
     RDKit          3D

 17 18  0  0  0  0  0  0  0  0999 V2000
    0.2530   10.4610   -2.4840 O   0  0  0  0  0  0  0  0  0  0  0  0
    0.6020   11.7750   -2.5050 C   0  0  0  0  0  0  0  0  0  0  0  0
    0.6130   12.4020   -1.4580 O   0  0  0  0  0  0  0  0  0  0  0  0
    0.9250   12.2560   -3.9150 C   0  0  0  0  0  0  0  0  0  0  0  0
    0.2550   13.5400   -4.2940 C   0  0  0  0  0  0  0  0  0  0  0  0
    1.0170   14.7270   -4.6160 C   0  0  0  0  0  0  0  0  0  0  0  0
   -1.0730   13.8270   -4.3810 C   0  0  0  0  0  0  0  0  0  0  0  0
   -1.2000   15.2140   -4.8300 C   0  0  0  0  0  0  0  0  0  0  0  0
    0.1700   15.7180   -4.9020 C   0  0  0  0  0  0  0  0  0  0  0  0
    0.4460   17.1390   -5.2090 C   0  0  2  0  0  0  0  0  0  0  0  0
   -2.2410   16.0420   -5.1720 C   0  0  0  0  0  0  0  0  0  0  0  0
    1.5600   17.3000   -6.0570 O   0  0  0  0  0  0  0  0  0  0  0  0
   -3.5970   15.8660   -5.1770 O   0  0  0  0  0  0  0  0  0  0  0  0
    0.7440   17.7660   -3.9000 C   0  0  0  0  0  0  0  0  0  0  0  0
   -0.7250   17.8990   -5.7010 C   0  0  0  0  0  0  0  0  0  0  0  0
   -1.9490   17.3890   -5.6630 C   0  0  0  0  0  0  0  0  0  0  0  0
   -4.2700   15.1100   -6.1570 C   0  0  0  0  0  0  0  0  0  0  0  0
  1  2  1  0
  2  3  2  0
  2  4  1  0
  4  5  1  0
  5  6  1  0
  5  7  2  0
  7  8  1  0
  6  9  2  0
  8  9  1  0
  9 10  1  0
  8 11  2  0
 10 12  1  0
 11 13  1  0
 10 14  1  1
 10 15  1  0
 11 16  1  0
 15 16  2  0
 13 17  1  0
M  END
