mac-x0360-diamond-x1015_0_A
     RDKit          3D

 28 30  0  0  0  0  0  0  0  0999 V2000
   -7.6650   11.5920    1.7460 Cl  0  0  0  0  0  0  0  0  0  0  0  0
   -6.4900   11.8730    0.5210 C   0  0  0  0  0  0  0  0  0  0  0  0
   -6.2860   10.9180   -0.4630 C   0  0  0  0  0  0  0  0  0  0  0  0
   -5.7540   13.0550    0.5310 C   0  0  0  0  0  0  0  0  0  0  0  0
   -4.7980   13.2750   -0.4700 C   0  0  0  0  0  0  0  0  0  0  0  0
   -5.3290   11.1400   -1.4520 C   0  0  0  0  0  0  0  0  0  0  0  0
   -5.0820    9.9400   -2.6620 Cl  0  0  0  0  0  0  0  0  0  0  0  0
   -3.8790   14.7970   -0.4540 S   0  0  0  0  0  0  0  0  0  0  0  0
   -4.5790   12.3160   -1.4650 C   0  0  0  0  0  0  0  0  0  0  0  0
   -3.1870   14.8560   -2.0020 N   0  0  0  0  0  0  0  0  0  0  0  0
   -4.8340   15.8770   -0.4680 O   0  0  0  0  0  0  0  0  0  0  0  0
   -2.8450   14.7250    0.5540 O   0  0  0  0  0  0  0  0  0  0  0  0
   -1.8280   14.3390   -2.1830 C   0  0  0  0  0  0  0  0  0  0  0  0
   -1.4460   14.2890   -3.6600 C   0  0  0  0  0  0  0  0  0  0  0  0
   -0.0680   13.6790   -3.9320 C   0  0  2  0  0  0  0  0  0  0  0  0
   -0.0510   12.2210   -3.9490 N   0  0  0  0  0  0  0  0  0  0  0  0
    0.6960   13.9120   -2.6330 C   0  0  0  0  0  0  0  0  0  0  0  0
    1.1120   14.9910   -2.2440 O   0  0  0  0  0  0  0  0  0  0  0  0
    0.3490   11.7010   -2.7050 C   0  0  0  0  0  0  0  0  0  0  0  0
    0.8450   12.7360   -1.9730 N   0  0  0  0  0  0  0  0  0  0  0  0
   -0.4580   11.4310   -5.0480 C   0  0  0  0  0  0  0  0  0  0  0  0
    0.2920   10.5400   -2.2930 O   0  0  0  0  0  0  0  0  0  0  0  0
    0.0920   11.6230   -6.3220 C   0  0  0  0  0  0  0  0  0  0  0  0
   -1.4260   10.4300   -4.8880 C   0  0  0  0  0  0  0  0  0  0  0  0
   -0.3100   10.8410   -7.4060 C   0  0  0  0  0  0  0  0  0  0  0  0
   -1.8300    9.6440   -5.9700 C   0  0  0  0  0  0  0  0  0  0  0  0
   -1.2720    9.8520   -7.2260 C   0  0  0  0  0  0  0  0  0  0  0  0
   -1.7760    8.8810   -8.5490 Cl  0  0  0  0  0  0  0  0  0  0  0  0
  1  2  1  0
  2  3  2  0
  2  4  1  0
  4  5  2  0
  3  6  1  0
  6  7  1  0
  5  8  1  0
  5  9  1  0
  6  9  2  0
  8 10  1  0
  8 11  2  0
  8 12  2  0
 10 13  1  0
 13 14  1  0
 15 14  1  1
 15 16  1  0
 15 17  1  0
 17 18  2  0
 16 19  1  0
 17 20  1  0
 19 20  1  0
 16 21  1  0
 19 22  2  0
 21 23  2  0
 21 24  1  0
 23 25  1  0
 24 26  2  0
 25 27  2  0
 26 27  1  0
 27 28  1  0
M  END
