mac-x0387-diamond-x0864_0_A
     RDKit          3D

 24 26  0  0  0  0  0  0  0  0999 V2000
   -3.9290   15.2230    1.6800 N   0  0  0  0  0  0  0  0  0  0  0  0
   -2.6730   14.9350    1.1220 C   0  0  0  0  0  0  0  0  0  0  0  0
   -1.6860   14.6760    1.9890 N   0  0  0  0  0  0  0  0  0  0  0  0
   -2.4840   14.9340   -0.2780 C   0  0  0  0  0  0  0  0  0  0  0  0
   -1.1790   14.6640   -0.7500 C   0  0  0  0  0  0  0  0  0  0  0  0
   -0.4590   14.4170    1.5100 C   0  0  0  0  0  0  0  0  0  0  0  0
   -3.5050   15.1900   -1.2220 C   0  0  0  0  0  0  0  0  0  0  0  0
   -0.1660   14.4050    0.1750 C   0  0  0  0  0  0  0  0  0  0  0  0
   -0.9140   14.6600   -2.1280 C   0  0  0  0  0  0  0  0  0  0  0  0
   -3.2450   15.1790   -2.5940 C   0  0  0  0  0  0  0  0  0  0  0  0
    0.5090   14.3670   -2.5580 C   0  0  0  0  0  0  0  0  0  0  0  0
   -1.9500   14.9150   -3.0510 C   0  0  0  0  0  0  0  0  0  0  0  0
    0.7260   12.9790   -2.1970 N   0  0  0  0  0  0  0  0  0  0  0  0
    0.6050   12.1610   -3.1510 C   0  0  0  0  0  0  0  0  0  0  0  0
    0.3230   12.6760   -4.5490 C   0  0  0  0  0  0  0  0  0  0  0  0
    0.6990   10.8320   -2.9860 O   0  0  0  0  0  0  0  0  0  0  0  0
   -0.2550   11.6250   -5.3540 N   0  0  0  0  0  0  0  0  0  0  0  0
   -1.4460   11.0480   -4.9680 C   0  0  0  0  0  0  0  0  0  0  0  0
    0.4250   11.2500   -6.4960 C   0  0  0  0  0  0  0  0  0  0  0  0
    1.4550   11.8040   -6.8710 O   0  0  0  0  0  0  0  0  0  0  0  0
   -1.9670   10.0400   -5.6690 C   0  0  0  0  0  0  0  0  0  0  0  0
   -0.1390   10.1130   -7.2560 C   0  0  0  0  0  0  0  0  0  0  0  0
   -1.2820    9.5500   -6.8410 C   0  0  0  0  0  0  0  0  0  0  0  0
   -2.0490    8.1110   -7.7440 Br  0  0  0  0  0  0  0  0  0  0  0  0
  1  2  1  0
  2  3  2  0
  2  4  1  0
  4  5  2  0
  3  6  1  0
  4  7  1  0
  5  8  1  0
  6  8  2  0
  5  9  1  0
  7 10  2  0
  9 11  1  0
  9 12  2  0
 10 12  1  0
 11 13  1  0
 13 14  2  3
 14 15  1  0
 14 16  1  0
 15 17  1  0
 17 18  1  0
 17 19  1  0
 19 20  2  0
 18 21  2  0
 19 22  1  0
 21 23  1  0
 22 23  2  0
 23 24  1  0
M  END
