mac-x0385-diamond-x0253_0_A
     RDKit          3D

 25 26  0  0  0  0  0  0  0  0999 V2000
   -5.2910   15.5330   -0.6970 C   0  0  0  0  0  0  0  0  0  0  0  0
   -3.8840   15.3050   -0.2690 C   0  0  0  0  0  0  0  0  0  0  0  0
   -2.9220   14.9780   -1.1810 C   0  0  0  0  0  0  0  0  0  0  0  0
   -3.4550   15.4030    1.0450 C   0  0  0  0  0  0  0  0  0  0  0  0
   -4.3520   15.7350    2.0490 N   0  0  0  0  0  0  0  0  0  0  0  0
   -2.1830   15.1990    1.4380 N   0  0  0  0  0  0  0  0  0  0  0  0
   -1.6520   14.7750   -0.8490 N   0  0  0  0  0  0  0  0  0  0  0  0
   -1.3360   14.9000    0.4520 C   0  0  0  0  0  0  0  0  0  0  0  0
    0.0910   14.6920    0.7440 C   0  0  0  0  0  0  0  0  0  0  0  0
    0.7540   14.5860   -0.6040 C   0  0  0  0  0  0  0  0  0  0  0  0
    0.3050   13.3230   -1.2910 C   0  0  0  0  0  0  0  0  0  0  0  0
    0.7450   13.4910   -2.6240 N   0  0  0  0  0  0  0  0  0  0  0  0
    0.7460   12.4570   -3.3190 C   0  0  0  0  0  0  0  0  0  0  0  0
    0.3750   11.2210   -2.9000 O   0  0  0  0  0  0  0  0  0  0  0  0
    1.1820   12.6280   -4.7220 C   0  0  0  0  0  0  0  0  0  0  0  0
    0.3910   11.8470   -5.6150 N   0  0  0  0  0  0  0  0  0  0  0  0
    1.0880   11.5690   -6.7190 C   0  0  0  0  0  0  0  0  0  0  0  0
    2.1980   12.0440   -6.7710 O   0  0  0  0  0  0  0  0  0  0  0  0
    0.4910   10.6920   -7.7450 C   0  0  0  0  0  0  0  0  0  0  0  0
   -0.4780    9.7880   -7.3050 C   0  0  0  0  0  0  0  0  0  0  0  0
    0.8460   10.7320   -9.0960 C   0  0  0  0  0  0  0  0  0  0  0  0
   -1.0990    8.9200   -8.2050 C   0  0  0  0  0  0  0  0  0  0  0  0
    0.2320    9.8700   -9.9990 C   0  0  0  0  0  0  0  0  0  0  0  0
   -2.1410    7.9540   -7.7200 C   0  0  0  0  0  0  0  0  0  0  0  0
   -0.7380    8.9690   -9.5550 C   0  0  0  0  0  0  0  0  0  0  0  0
  1  2  1  0
  2  3  2  0
  2  4  1  0
  4  5  1  0
  4  6  2  0
  3  7  1  0
  6  8  1  0
  7  8  2  0
  8  9  1  0
  9 10  1  0
 10 11  1  0
 11 12  1  0
 12 13  2  3
 13 14  1  0
 13 15  1  0
 15 16  1  0
 16 17  1  0
 17 18  2  0
 17 19  1  0
 19 20  2  0
 19 21  1  0
 20 22  1  0
 21 23  2  0
 22 24  1  0
 22 25  2  0
 23 25  1  0
M  END
