mac-x0433-mac-x0360
     RDKit          3D

 20 21  0  0  0  0  0  0  0  0999 V2000
   -3.7890   15.5200    0.0770 C   0  0  0  0  0  0  0  0  0  0  0  0
   -2.7600   14.2730   -0.2860 S   0  0  2  0  0  0  0  0  0  0  0  0
   -1.1120   14.2740   -0.2930 N   0  0  0  0  0  0  0  0  0  0  0  0
   -5.1270   15.2450   -0.1120 C   0  0  0  0  0  0  0  0  0  0  0  0
   -2.8760   12.7570   -0.7730 O   0  0  0  0  0  0  0  0  0  0  0  0
   -5.3190   15.2980   -1.4210 N   0  0  0  0  0  0  0  0  0  0  0  0
   -6.0450   14.9690    0.8350 C   0  0  0  0  0  0  0  0  0  0  0  0
   -4.0760   13.0840   -0.4420 C   0  0  0  0  0  0  0  0  0  0  0  0
   -6.5220   15.0610   -1.8400 C   0  0  0  0  0  0  0  0  0  0  0  0
   -7.2920   14.7420    0.3010 C   0  0  0  0  0  0  0  0  0  0  0  0
   -4.1150   12.2130   -1.5430 C   0  0  0  0  0  0  0  0  0  0  0  0
   -5.0770   12.9660    0.5540 C   0  0  0  0  0  0  0  0  0  0  0  0
   -8.4380   14.4340    1.1990 C   0  0  0  0  0  0  0  0  0  0  0  0
   -6.7110   15.0890   -3.1970 N   0  0  0  0  0  0  0  0  0  0  0  0
   -7.5440   14.7860   -1.0340 N   0  0  0  0  0  0  0  0  0  0  0  0
   -5.1310   11.2490   -1.6290 C   0  0  0  0  0  0  0  0  0  0  0  0
   -6.0900   11.9950    0.4370 C   0  0  0  0  0  0  0  0  0  0  0  0
   -7.3180   11.8310    1.6420 Cl  0  0  0  0  0  0  0  0  0  0  0  0
   -5.1640   10.1620   -2.9620 Cl  0  0  0  0  0  0  0  0  0  0  0  0
   -6.1160   11.1390   -0.6530 C   0  0  0  0  0  0  0  0  0  0  0  0
  1  2  2  0
  2  3  1  1
  1  4  1  0
  2  5  2  0
  4  6  2  0
  4  7  1  0
  2  8  1  0
  6  9  1  0
  7 10  2  0
  8 11  2  0
  8 12  1  0
 10 13  1  0
  9 14  1  0
  9 15  2  0
 10 15  1  0
 11 16  1  0
 12 17  2  0
 17 18  1  0
 16 19  1  0
 16 20  2  0
 17 20  1  0
M  END
