mac-x0303-mac-x0328
     RDKit          3D

 17 18  0  0  0  0  0  0  0  0999 V2000
   -8.1080   13.1000    3.1680 N   0  0  0  0  0  0  0  0  0  0  0  0
   -8.3550   14.5670    2.3900 S   0  0  0  0  0  0  0  0  0  0  0  0
   -8.1730   15.6380    3.3320 O   0  0  0  0  0  0  0  0  0  0  0  0
   -9.5370   14.4640    1.5630 O   0  0  0  0  0  0  0  0  0  0  0  0
   -7.0220   14.6930    1.2470 C   0  0  0  0  0  0  0  0  0  0  0  0
   -7.2690   14.8620   -0.0740 N   0  0  0  0  0  0  0  0  0  0  0  0
   -5.7120   14.6440    1.4900 N   0  0  0  0  0  0  0  0  0  0  0  0
   -6.0800   14.9140   -0.7160 C   0  0  0  0  0  0  0  0  0  0  0  0
   -5.1080   14.7740    0.2590 C   0  0  0  0  0  0  0  0  0  0  0  0
   -5.8020   15.0610   -2.0340 C   0  0  0  0  0  0  0  0  0  0  0  0
   -3.7430   14.7750   -0.1260 C   0  0  0  0  0  0  0  0  0  0  0  0
   -6.8340   15.1790   -2.9130 O   0  0  0  0  0  0  0  0  0  0  0  0
   -4.4700   15.0610   -2.4450 C   0  0  0  0  0  0  0  0  0  0  0  0
   -3.4390   14.9120   -1.5090 C   0  0  0  0  0  0  0  0  0  0  0  0
   -2.0500   14.8880   -2.0600 C   0  0  0  0  0  0  0  0  0  0  0  0
   -2.0100   14.9800   -3.4080 O   0  0  0  0  0  0  0  0  0  0  0  0
   -1.0230   14.7820   -1.4170 O   0  0  0  0  0  0  0  0  0  0  0  0
  2  1  1  0
  2  3  2  0
  2  4  2  0
  2  5  1  0
  5  6  1  0
  5  7  2  0
  6  8  1  0
  7  9  1  0
  8  9  2  0
  8 10  1  0
  9 11  1  0
 10 12  1  0
 10 13  2  0
 11 14  2  0
 13 14  1  0
 14 15  1  0
 15 16  1  0
 15 17  2  0
M  END
