mac-x0568-mac-x0346
     RDKit          3D

 18 19  0  0  0  0  0  0  0  0999 V2000
   -7.6790   14.4820    0.4780 C   0  0  0  0  0  0  0  0  0  0  0  0
   -7.4820   15.1570   -0.7870 N   0  0  0  0  0  0  0  0  0  0  0  0
   -6.1670   15.2260   -1.1960 C   0  0  0  0  0  0  0  0  0  0  0  0
   -6.4000   13.7220    0.8160 C   0  0  1  0  0  0  0  0  0  0  0  0
   -6.7030   12.7220    1.8430 N   0  0  0  0  0  0  0  0  0  0  0  0
   -5.9680   12.8660   -0.4330 C   0  0  1  0  0  0  0  0  0  0  0  0
   -4.4720   12.9820   -0.8850 C   0  0  1  0  0  0  0  0  0  0  0  0
   -5.7700   14.6340   -2.1910 O   0  0  0  0  0  0  0  0  0  0  0  0
   -6.4140   11.4820   -0.0030 C   0  0  0  0  0  0  0  0  0  0  0  0
   -5.2900   16.0960   -0.3790 C   0  0  0  0  0  0  0  0  0  0  0  0
   -6.8090   11.4890    1.2790 C   0  0  0  0  0  0  0  0  0  0  0  0
   -4.2140   14.1760   -1.6520 O   0  0  0  0  0  0  0  0  0  0  0  0
   -3.5340   12.9800    0.2110 N   0  0  0  0  0  0  0  0  0  0  0  0
   -4.3020   16.0280    0.5620 C   0  0  0  0  0  0  0  0  0  0  0  0
   -2.8970   14.5610   -1.7190 C   0  0  0  0  0  0  0  0  0  0  0  0
   -3.5630   15.0260    1.2620 C   0  0  0  0  0  0  0  0  0  0  0  0
   -2.1000   14.6720   -0.6440 C   0  0  0  0  0  0  0  0  0  0  0  0
   -2.5250   14.4090    0.7090 C   0  0  0  0  0  0  0  0  0  0  0  0
  1  2  1  0
  2  3  1  0
  4  1  1  6
  4  5  1  0
  4  6  1  0
  6  7  1  0
  3  8  2  0
  6  9  1  1
  3 10  1  0
  5 11  1  0
  9 11  2  0
  7 12  1  0
  7 13  1  1
 10 14  2  0
 12 15  1  0
 14 16  1  0
 15 17  2  0
 16 18  2  0
 17 18  1  0
M  END
