mac-x0472-mac-x0433
     RDKit          3D

 23 25  0  0  0  0  0  0  0  0999 V2000
   -4.1260   15.5220   -2.5310 N   0  0  0  0  0  0  0  0  0  0  0  0
   -3.2380   14.2900   -2.8250 S   0  0  1  0  0  0  0  0  0  0  0  0
   -2.6020   14.0630   -4.1020 O   0  0  0  0  0  0  0  0  0  0  0  0
   -5.1390   15.5910   -1.4130 N   0  0  0  0  0  0  0  0  0  0  0  0
   -1.9140   14.4920   -1.8220 N   0  0  0  0  0  0  0  0  0  0  0  0
   -4.0470   12.7420   -2.4340 C   0  0  0  0  0  0  0  0  0  0  0  0
   -4.6920   15.0600   -0.1100 C   0  0  1  0  0  0  0  0  0  0  0  0
   -6.4920   15.2160   -1.8180 C   0  0  0  0  0  0  0  0  0  0  0  0
   -3.7250   16.0430    0.5590 C   0  0  0  0  0  0  0  0  0  0  0  0
   -2.0600   14.4940   -0.4970 C   0  0  0  0  0  0  0  0  0  0  0  0
   -3.4440   11.5460   -2.8390 C   0  0  0  0  0  0  0  0  0  0  0  0
   -5.2630   12.7100   -1.7360 C   0  0  0  0  0  0  0  0  0  0  0  0
   -7.4550   15.5130   -0.7780 N   0  0  0  0  0  0  0  0  0  0  0  0
   -5.7580   14.6360    0.9130 C   0  0  0  0  0  0  0  0  0  0  0  0
   -1.2090   15.1150    0.2890 N   0  0  0  0  0  0  0  0  0  0  0  0
   -3.3310   13.7250    0.3630 S   0  0  0  0  0  0  0  0  0  0  0  0
   -4.0620   10.3310   -2.5540 C   0  0  0  0  0  0  0  0  0  0  0  0
   -5.8750   11.4870   -1.4540 C   0  0  0  0  0  0  0  0  0  0  0  0
   -7.2250   14.7480    0.4510 C   0  0  2  0  0  0  0  0  0  0  0  0
   -7.8990   13.3980    0.3370 C   0  0  0  0  0  0  0  0  0  0  0  0
   -2.6120   14.3220    1.7710 C   0  0  0  0  0  0  0  0  0  0  0  0
   -1.5320   15.0110    1.6030 N   0  0  0  0  0  0  0  0  0  0  0  0
   -5.2740   10.3020   -1.8680 C   0  0  0  0  0  0  0  0  0  0  0  0
  1  2  2  0
  2  3  2  0
  1  4  1  0
  2  5  1  1
  2  6  1  0
  4  7  1  0
  4  8  1  0
  7  9  1  1
  5 10  1  0
  6 11  2  0
  6 12  1  0
  8 13  1  0
  7 14  1  0
 10 15  2  0
 10 16  1  0
 11 17  1  0
 12 18  2  0
 13 19  1  0
 14 19  1  0
 19 20  1  6
 16 21  1  0
 15 22  1  0
 21 22  2  0
 17 23  2  0
 18 23  1  0
M  END
