mac-x0380-mac-x0306
     RDKit          3D

 14 15  0  0  0  0  0  0  0  0999 V2000
   -1.3530   14.7300   -2.5060 O   0  0  0  0  0  0  0  0  0  0  0  0
   -2.6530   14.9920   -2.7570 C   0  0  0  0  0  0  0  0  0  0  0  0
   -3.0870   15.2080   -3.8760 O   0  0  0  0  0  0  0  0  0  0  0  0
   -3.5110   14.9970   -1.5460 C   0  0  0  0  0  0  0  0  0  0  0  0
   -4.9000   15.0520   -1.6560 C   0  0  0  0  0  0  0  0  0  0  0  0
   -2.9130   14.9410   -0.2790 C   0  0  0  0  0  0  0  0  0  0  0  0
   -5.6960   15.0430   -0.5070 C   0  0  0  0  0  0  0  0  0  0  0  0
   -3.7060   14.9370    0.8740 C   0  0  0  0  0  0  0  0  0  0  0  0
   -5.1010   14.9830    0.7610 C   0  0  0  0  0  0  0  0  0  0  0  0
   -7.4580   15.1000   -0.7030 S   0  0  0  0  0  0  0  0  0  0  0  0
   -5.8690   14.9630    1.9400 N   0  0  0  0  0  0  0  0  0  0  0  0
   -7.8750   14.1310    0.7590 C   0  0  0  0  0  0  0  0  0  0  0  0
   -7.2010   14.6370    2.0060 C   0  0  0  0  0  0  0  0  0  0  0  0
   -7.8290   14.7740    3.0640 O   0  0  0  0  0  0  0  0  0  0  0  0
  1  2  1  0
  2  3  2  0
  2  4  1  0
  4  5  2  0
  4  6  1  0
  5  7  1  0
  6  8  2  0
  7  9  2  0
  8  9  1  0
  7 10  1  0
  9 11  1  0
 10 12  1  0
 11 13  1  0
 12 13  1  0
 13 14  2  0
M  END
