mac-x0441-mac-x0415
     RDKit          3D

 27 30  0  0  0  0  0  0  0  0999 V2000
    0.5390   10.7790   -3.0080 O   0  0  0  0  0  0  0  0  0  0  0  0
    0.9610   12.0350   -3.2560 C   0  0  0  0  0  0  0  0  0  0  0  0
    1.7170   12.5580   -2.4640 O   0  0  0  0  0  0  0  0  0  0  0  0
    0.3950   12.6450   -4.5140 C   0  0  2  0  0  0  0  0  0  0  0  0
    0.1720   11.7230   -5.6470 N   0  0  0  0  0  0  0  0  0  0  0  0
    0.7830   14.1050   -4.8030 C   0  0  2  0  0  0  0  0  0  0  0  0
    1.0230   11.7360   -6.7200 N   0  0  0  0  0  0  0  0  0  0  0  0
   -0.8210   10.7900   -5.8150 C   0  0  0  0  0  0  0  0  0  0  0  0
    1.8480   14.8740   -3.9910 C   0  0  0  0  0  0  0  0  0  0  0  0
   -0.3040   15.0620   -4.4990 C   0  0  1  0  0  0  0  0  0  0  0  0
    0.5340   10.7840   -7.5620 C   0  0  0  0  0  0  0  0  0  0  0  0
   -0.6040   10.1840   -7.0260 C   0  0  0  0  0  0  0  0  0  0  0  0
   -1.9510   10.4430   -4.9130 C   0  0  0  0  0  0  0  0  0  0  0  0
    1.4680   16.3170   -4.1680 N   0  0  0  0  0  0  0  0  0  0  0  0
    0.3690   16.2690   -5.1160 C   0  0  2  0  0  0  0  0  0  0  0  0
   -1.6680   14.7060   -5.0030 C   0  0  0  0  0  0  0  0  0  0  0  0
    1.0920   10.3860   -8.8920 C   0  0  0  0  0  0  0  0  0  0  0  0
   -1.4510    9.1050   -7.6010 C   0  0  0  0  0  0  0  0  0  0  0  0
   -3.0410    9.7040   -5.7170 C   0  0  0  0  0  0  0  0  0  0  0  0
   -0.5610   17.4190   -5.3200 C   0  0  0  0  0  0  0  0  0  0  0  0
   -2.5690   15.9230   -4.9580 C   0  0  2  0  0  0  0  0  0  0  0  0
    1.6970    9.1710   -8.9050 F   0  0  0  0  0  0  0  0  0  0  0  0
    0.1350   10.3560   -9.8580 F   0  0  0  0  0  0  0  0  0  0  0  0
    1.9790   11.2510   -9.3340 F   0  0  0  0  0  0  0  0  0  0  0  0
   -4.0130   15.4670   -6.1730 Br  0  0  0  0  0  0  0  0  0  0  0  0
   -2.4440    8.5700   -6.5640 C   0  0  0  0  0  0  0  0  0  0  0  0
   -1.9010   17.2520   -5.2610 C   0  0  0  0  0  0  0  0  0  0  0  0
  1  2  1  0
  2  3  2  0
  4  2  1  1
  4  5  1  0
  4  6  1  0
  5  7  1  0
  5  8  1  0
  6  9  1  1
  6 10  1  0
  7 11  2  0
  8 12  2  0
 11 12  1  0
  8 13  1  0
  9 14  1  0
 10 15  1  0
 14 15  1  0
 10 16  1  6
 11 17  1  0
 12 18  1  0
 13 19  1  0
 15 20  1  1
 16 21  1  0
 17 22  1  0
 17 23  1  0
 17 24  1  0
 21 25  1  6
 18 26  1  0
 19 26  1  0
 20 27  2  0
 21 27  1  0
M  END
