mac-x0132-mac-x0271
     RDKit          3D

 12 13  0  0  0  0  0  0  0  0999 V2000
   -4.6660   14.8190    2.1050 N   0  0  0  0  0  0  0  0  0  0  0  0
   -5.5580   14.8120    1.0920 C   0  0  0  0  0  0  0  0  0  0  0  0
   -6.8190   14.7080    1.4000 N   0  0  0  0  0  0  0  0  0  0  0  0
   -5.0590   14.9340   -0.2740 C   0  0  0  0  0  0  0  0  0  0  0  0
   -6.0300   14.8980   -1.2610 C   0  0  0  0  0  0  0  0  0  0  0  0
   -7.7740   14.7220    0.4160 C   0  0  0  0  0  0  0  0  0  0  0  0
   -3.7110   15.0750   -0.5970 C   0  0  0  0  0  0  0  0  0  0  0  0
   -8.9880   14.7390    0.6520 O   0  0  0  0  0  0  0  0  0  0  0  0
   -7.3620   14.7500   -0.8920 N   0  0  0  0  0  0  0  0  0  0  0  0
   -5.6620   15.0050   -2.5950 C   0  0  0  0  0  0  0  0  0  0  0  0
   -3.3440   15.1780   -1.9320 C   0  0  0  0  0  0  0  0  0  0  0  0
   -4.3150   15.1440   -2.9290 C   0  0  0  0  0  0  0  0  0  0  0  0
  1  2  1  0
  2  3  2  0
  2  4  1  0
  4  5  2  0
  3  6  1  0
  4  7  1  0
  6  8  2  0
  5  9  1  0
  6  9  1  0
  5 10  1  0
  7 11  2  0
 10 12  2  0
 11 12  1  0
M  END
