mac-x0347-mac-x0381
     RDKit          3D

 30 33  0  0  0  0  0  0  0  0999 V2000
    1.4550   14.7020   -3.6230 O   0  0  0  0  0  0  0  0  0  0  0  0
    0.6670   14.1740   -2.6660 C   0  0  0  0  0  0  0  0  0  0  0  0
    1.0980   13.4740   -1.7700 O   0  0  0  0  0  0  0  0  0  0  0  0
   -0.7620   14.5130   -2.7900 C   0  0  0  0  0  0  0  0  0  0  0  0
   -1.6240   14.4600   -1.7040 C   0  0  0  0  0  0  0  0  0  0  0  0
   -1.2780   14.8980   -4.0230 C   0  0  0  0  0  0  0  0  0  0  0  0
   -2.9670   14.7860   -1.8710 C   0  0  0  0  0  0  0  0  0  0  0  0
   -2.5820   15.2230   -4.2250 N   0  0  0  0  0  0  0  0  0  0  0  0
   -3.3930   15.1580   -3.1400 C   0  0  0  0  0  0  0  0  0  0  0  0
   -3.8600   14.7310   -0.7390 C   0  0  0  0  0  0  0  0  0  0  0  0
   -3.4590   15.2720    0.4840 C   0  0  0  0  0  0  0  0  0  0  0  0
   -5.1220   14.1380   -0.8500 C   0  0  0  0  0  0  0  0  0  0  0  0
   -4.2910   15.2240    1.5670 C   0  0  0  0  0  0  0  0  0  0  0  0
   -5.9600   14.0880    0.2480 C   0  0  0  0  0  0  0  0  0  0  0  0
   -5.5300   14.6320    1.4500 C   0  0  0  0  0  0  0  0  0  0  0  0
   -6.3960   14.5890    2.6220 C   0  0  0  0  0  0  0  0  0  0  0  0
   -6.9870   13.2030    2.8170 C   0  0  0  0  0  0  0  0  0  0  0  0
   -8.2850   13.7040    2.7230 N   0  0  0  0  0  0  0  0  0  0  0  0
   -8.7090   14.4770    3.6160 C   0  0  0  0  0  0  0  0  0  0  0  0
   -7.9820   14.7660    4.7260 N   0  0  0  0  0  0  0  0  0  0  0  0
   -9.9790   15.0840    3.3700 C   0  0  0  0  0  0  0  0  0  0  0  0
   -9.9780   15.8700    2.2320 C   0  0  0  0  0  0  0  0  0  0  0  0
  -11.0860   14.8940    4.1660 C   0  0  0  0  0  0  0  0  0  0  0  0
  -11.1340   16.5000    1.8380 C   0  0  0  0  0  0  0  0  0  0  0  0
  -12.2620   15.5240    3.7820 C   0  0  0  0  0  0  0  0  0  0  0  0
  -12.3000   16.3220    2.6190 C   0  0  0  0  0  0  0  0  0  0  0  0
  -11.1620   17.2960    0.6880 C   0  0  0  0  0  0  0  0  0  0  0  0
  -13.4780   16.9510    2.2090 C   0  0  0  0  0  0  0  0  0  0  0  0
  -12.3440   17.9150    0.3000 C   0  0  0  0  0  0  0  0  0  0  0  0
  -13.4990   17.7410    1.0570 C   0  0  0  0  0  0  0  0  0  0  0  0
  1  2  1  0
  2  3  2  0
  2  4  1  0
  4  5  2  0
  4  6  1  0
  5  7  1  0
  6  8  2  0
  7  9  2  0
  8  9  1  0
  7 10  1  0
 10 11  2  0
 10 12  1  0
 11 13  1  0
 12 14  2  0
 13 15  2  0
 14 15  1  0
 15 16  1  0
 16 17  1  0
 17 18  1  0
 18 19  2  3
 19 20  1  0
 19 21  1  0
 21 22  2  0
 21 23  1  0
 22 24  1  0
 23 25  2  0
 24 26  2  0
 25 26  1  0
 24 27  1  0
 26 28  1  0
 27 29  2  0
 28 30  2  0
 29 30  1  0
M  END
