mac-x0180-mac-x0453
     RDKit          3D

 14 14  0  0  0  0  0  0  0  0999 V2000
   -8.0400   14.8520    1.0970 C   0  0  0  0  0  0  0  0  0  0  0  0
   -6.6770   14.2680    0.7120 C   0  0  1  0  0  0  0  0  0  0  0  0
   -6.7480   13.8480   -0.6230 O   0  0  0  0  0  0  0  0  0  0  0  0
   -5.5120   15.1240    0.8270 N   0  0  0  0  0  0  0  0  0  0  0  0
   -6.5620   13.0920    1.5360 N   0  0  0  0  0  0  0  0  0  0  0  0
   -4.4280   15.0430   -0.0710 C   0  0  0  0  0  0  0  0  0  0  0  0
   -3.1300   14.7480    0.3730 C   0  0  0  0  0  0  0  0  0  0  0  0
   -4.6370   15.2670   -1.4370 C   0  0  0  0  0  0  0  0  0  0  0  0
   -2.0630   14.6820   -0.5340 C   0  0  0  0  0  0  0  0  0  0  0  0
   -3.5790   15.2030   -2.3490 C   0  0  0  0  0  0  0  0  0  0  0  0
   -2.2840   14.9120   -1.9010 C   0  0  0  0  0  0  0  0  0  0  0  0
   -1.1280   14.8510   -2.8350 C   0  0  0  0  0  0  0  0  0  0  0  0
   -1.1920   14.7940   -4.0480 O   0  0  0  0  0  0  0  0  0  0  0  0
    0.0580   14.8870   -2.2070 O   0  0  0  0  0  0  0  0  0  0  0  0
  2  1  1  1
  2  3  1  0
  2  4  1  0
  2  5  1  0
  4  6  1  0
  6  7  2  0
  6  8  1  0
  7  9  1  0
  8 10  2  0
  9 11  2  0
 10 11  1  0
 11 12  1  0
 12 13  2  0
 12 14  1  0
M  END
