mac-x0228-diamond-x0900_0_A
     RDKit          3D

 12 13  0  0  0  0  0  0  0  0999 V2000
   -1.0750   14.5540   -1.7600 O   0  0  0  0  0  0  0  0  0  0  0  0
   -2.0500   14.6770   -2.6720 C   0  0  0  0  0  0  0  0  0  0  0  0
   -1.8000   14.7010   -3.8630 O   0  0  0  0  0  0  0  0  0  0  0  0
   -3.4050   14.7800   -2.0720 C   0  0  0  0  0  0  0  0  0  0  0  0
   -3.6420   14.5750   -0.7040 C   0  0  0  0  0  0  0  0  0  0  0  0
   -4.4700   15.0930   -2.9280 C   0  0  0  0  0  0  0  0  0  0  0  0
   -4.9430   14.6880   -0.2450 C   0  0  0  0  0  0  0  0  0  0  0  0
   -5.7760   15.2050   -2.4440 C   0  0  0  0  0  0  0  0  0  0  0  0
   -5.9840   14.9990   -1.1030 C   0  0  0  0  0  0  0  0  0  0  0  0
   -5.4810   14.5170    1.1200 C   0  0  0  0  0  0  0  0  0  0  0  0
   -7.2070   15.0750   -0.4860 O   0  0  0  0  0  0  0  0  0  0  0  0
   -6.9740   14.4330    0.7890 C   0  0  0  0  0  0  0  0  0  0  0  0
  1  2  1  0
  2  3  2  0
  2  4  1  0
  4  5  2  0
  4  6  1  0
  5  7  1  0
  6  8  2  0
  7  9  2  0
  8  9  1  0
  7 10  1  0
  9 11  1  0
 10 12  1  0
 11 12  1  0
M  END
