mac-x0337-mac-x0385
     RDKit          3D

 19 20  0  0  0  0  0  0  0  0999 V2000
   -5.8660    9.0180   -1.9090 C   0  0  0  0  0  0  0  0  0  0  0  0
   -5.4600   10.4610   -1.8820 C   0  0  0  0  0  0  0  0  0  0  0  0
   -6.1990   11.3990   -1.1420 C   0  0  0  0  0  0  0  0  0  0  0  0
   -4.3420   10.8770   -2.6070 C   0  0  0  0  0  0  0  0  0  0  0  0
   -3.9700   12.2110   -2.6140 C   0  0  0  0  0  0  0  0  0  0  0  0
   -5.8310   12.7440   -1.1440 C   0  0  0  0  0  0  0  0  0  0  0  0
   -4.7210   13.1360   -1.8930 C   0  0  0  0  0  0  0  0  0  0  0  0
   -4.2090   14.8240   -1.9830 S   0  0  0  0  0  0  0  0  0  0  0  0
   -4.6910   15.4450   -3.1590 O   0  0  0  0  0  0  0  0  0  0  0  0
   -2.7950   14.7640   -1.7330 O   0  0  0  0  0  0  0  0  0  0  0  0
   -4.7500   15.5560   -0.6060 N   0  0  0  0  0  0  0  0  0  0  0  0
   -3.5780   15.2610    0.0560 C   0  0  0  0  0  0  0  0  0  0  0  0
   -3.3840   15.2200    1.4010 C   0  0  0  0  0  0  0  0  0  0  0  0
   -2.5010   14.9650   -0.7580 C   0  0  0  0  0  0  0  0  0  0  0  0
   -4.4230   15.5180    2.2910 N   0  0  0  0  0  0  0  0  0  0  0  0
   -2.1900   14.8880    1.8850 N   0  0  0  0  0  0  0  0  0  0  0  0
   -1.3060   14.6510   -0.3150 N   0  0  0  0  0  0  0  0  0  0  0  0
   -1.2270   14.6300    0.9990 C   0  0  0  0  0  0  0  0  0  0  0  0
    0.0660   14.2840    1.5140 C   0  0  0  0  0  0  0  0  0  0  0  0
  1  2  1  0
  2  3  2  0
  2  4  1  0
  4  5  2  0
  3  6  1  0
  5  7  1  0
  6  7  2  0
  7  8  1  0
  8  9  2  0
  8 10  2  0
  8 11  1  0
 11 12  1  0
 12 13  2  0
 12 14  1  0
 13 15  1  0
 13 16  1  0
 14 17  2  0
 16 18  2  0
 17 18  1  0
 18 19  1  0
M  END
