mac-x0437-mac-x0301
     RDKit          3D

 27 30  0  0  0  0  0  0  0  0999 V2000
    1.7600   12.6720   -2.1060 O   0  0  0  0  0  0  0  0  0  0  0  0
    1.2410   12.1040   -3.2010 C   0  0  0  0  0  0  0  0  0  0  0  0
    0.5810   11.0800   -3.1230 O   0  0  0  0  0  0  0  0  0  0  0  0
    1.5620   12.8730   -4.4420 C   0  0  0  0  0  0  0  0  0  0  0  0
    0.4030   13.0200   -5.4290 C   0  0  2  0  0  0  0  0  0  0  0  0
   -0.4460   14.2810   -5.3110 C   0  0  0  0  0  0  0  0  0  0  0  0
   -0.3960   11.8290   -5.6490 N   0  0  0  0  0  0  0  0  0  0  0  0
   -1.3900   14.2870   -4.2000 N   0  0  0  0  0  0  0  0  0  0  0  0
   -1.5000   11.4920   -4.9010 C   0  0  0  0  0  0  0  0  0  0  0  0
   -0.2270   10.8620   -6.5950 C   0  0  0  0  0  0  0  0  0  0  0  0
   -1.0530   14.6890   -3.0500 C   0  0  0  0  0  0  0  0  0  0  0  0
   -2.0440   10.3700   -5.3090 N   0  0  0  0  0  0  0  0  0  0  0  0
   -1.2630    9.9650   -6.3600 C   0  0  0  0  0  0  0  0  0  0  0  0
    0.7030   10.6670   -7.6210 C   0  0  0  0  0  0  0  0  0  0  0  0
    0.2150   15.0820   -2.8690 O   0  0  0  0  0  0  0  0  0  0  0  0
   -1.3900    8.8250   -7.1670 C   0  0  0  0  0  0  0  0  0  0  0  0
    0.5680    9.5300   -8.4150 C   0  0  0  0  0  0  0  0  0  0  0  0
   -1.8310   14.8450   -1.8310 C   0  0  0  0  0  0  0  0  0  0  0  0
   -0.4640    8.6180   -8.1940 C   0  0  0  0  0  0  0  0  0  0  0  0
   -1.2820   14.6610   -0.5740 C   0  0  0  0  0  0  0  0  0  0  0  0
   -3.1830   15.2160   -1.9320 C   0  0  0  0  0  0  0  0  0  0  0  0
   -2.0480   14.8500    0.5610 C   0  0  0  0  0  0  0  0  0  0  0  0
   -3.9490   15.4010   -0.7680 C   0  0  0  0  0  0  0  0  0  0  0  0
   -0.0140   14.3050   -0.2810 O   0  0  0  0  0  0  0  0  0  0  0  0
   -3.3780   15.2170    0.4980 C   0  0  0  0  0  0  0  0  0  0  0  0
   -1.3430   14.6410    1.7080 O   0  0  0  0  0  0  0  0  0  0  0  0
   -0.0390   14.4150    1.1540 C   0  0  0  0  0  0  0  0  0  0  0  0
  1  2  1  0
  2  3  2  0
  2  4  1  0
  5  4  1  1
  5  6  1  0
  5  7  1  0
  6  8  1  0
  7  9  1  0
  7 10  1  0
  8 11  2  3
  9 12  2  0
 10 13  2  0
 12 13  1  0
 10 14  1  0
 11 15  1  0
 13 16  1  0
 14 17  2  0
 11 18  1  0
 16 19  2  0
 17 19  1  0
 18 20  1  0
 18 21  2  0
 20 22  2  0
 21 23  1  0
 20 24  1  0
 22 25  1  0
 23 25  2  0
 22 26  1  0
 24 27  1  0
 26 27  1  0
M  END
