mac-x0321-mac-x0472
     RDKit          3D

 23 25  0  0  0  0  0  0  0  0999 V2000
   -6.8660   14.2990    1.0380 Cl  0  0  0  0  0  0  0  0  0  0  0  0
   -6.1530   14.6050   -0.4960 C   0  0  0  0  0  0  0  0  0  0  0  0
   -4.7800   14.6230   -0.6150 C   0  0  0  0  0  0  0  0  0  0  0  0
   -6.9440   14.8300   -1.6010 C   0  0  0  0  0  0  0  0  0  0  0  0
   -4.1290   14.8720   -1.8380 C   0  0  0  0  0  0  0  0  0  0  0  0
   -6.3370   15.0710   -2.8270 C   0  0  0  0  0  0  0  0  0  0  0  0
   -2.5950   14.8730   -1.8320 C   0  0  2  0  0  0  0  0  0  0  0  0
   -4.9440   15.0960   -2.9480 C   0  0  0  0  0  0  0  0  0  0  0  0
   -2.0890   16.1270   -2.3100 O   0  0  0  0  0  0  0  0  0  0  0  0
   -1.9840   13.7920   -2.5530 O   0  0  0  0  0  0  0  0  0  0  0  0
   -2.3320   14.7610   -0.3630 C   0  0  0  0  0  0  0  0  0  0  0  0
   -2.6620   13.3280   -3.9390 S   0  0  0  0  0  0  0  0  0  0  0  0
   -1.3580   14.1450    0.2720 N   0  0  0  0  0  0  0  0  0  0  0  0
   -3.5070   15.5240    0.6480 S   0  0  0  0  0  0  0  0  0  0  0  0
   -3.5080   14.4680   -4.4130 O   0  0  0  0  0  0  0  0  0  0  0  0
   -3.7760   12.1230   -3.1550 C   0  0  0  0  0  0  0  0  0  0  0  0
   -2.6280   14.9120    1.9350 C   0  0  0  0  0  0  0  0  0  0  0  0
   -1.5390   14.2370    1.6290 N   0  0  0  0  0  0  0  0  0  0  0  0
   -3.4000   10.7790   -3.1670 C   0  0  0  0  0  0  0  0  0  0  0  0
   -4.9870   12.4850   -2.5500 C   0  0  0  0  0  0  0  0  0  0  0  0
   -4.2200    9.8140   -2.5880 C   0  0  0  0  0  0  0  0  0  0  0  0
   -5.8060   11.5190   -1.9650 C   0  0  0  0  0  0  0  0  0  0  0  0
   -5.4220   10.1850   -1.9870 C   0  0  0  0  0  0  0  0  0  0  0  0
  1  2  1  0
  2  3  2  0
  2  4  1  0
  3  5  1  0
  4  6  2  0
  5  7  1  0
  5  8  2  0
  6  8  1  0
  7  9  1  6
  7 10  1  0
  7 11  1  0
 12 10  1  1
 11 13  2  0
 11 14  1  0
 12 15  2  0
 12 16  1  0
 14 17  1  0
 13 18  1  0
 17 18  2  0
 16 19  2  0
 16 20  1  0
 19 21  1  0
 20 22  2  0
 21 23  2  0
 22 23  1  0
M  END
