mac-x0159-diamond-x0587_0_A
     RDKit          3D

 29 32  0  0  0  0  0  0  0  0999 V2000
   -3.8350   14.4330    0.6970 N   0  0  0  0  0  0  0  0  0  0  0  0
   -3.2980   15.5590   -0.0350 C   0  0  1  0  0  0  0  0  0  0  0  0
   -1.7820   15.5030    0.1270 C   0  0  2  0  0  0  0  0  0  0  0  0
   -3.8020   15.4860   -1.4150 N   0  0  0  0  0  0  0  0  0  0  0  0
   -2.8980   15.1630   -2.5250 C   0  0  0  0  0  0  0  0  0  0  0  0
   -1.2260   14.5830   -0.9260 C   0  0  1  0  0  0  0  0  0  0  0  0
   -1.2710   14.8990    1.3480 N   0  0  0  0  0  0  0  0  0  0  0  0
   -4.9640   14.6000   -1.5380 C   0  0  0  0  0  0  0  0  0  0  0  0
   -1.4780   15.1750   -2.1930 N   0  0  0  0  0  0  0  0  0  0  0  0
    0.1550   14.5850   -0.5210 N   0  0  0  0  0  0  0  0  0  0  0  0
    0.0790   14.5870    0.9360 C   0  0  0  0  0  0  0  0  0  0  0  0
   -4.5360   13.3140   -1.7580 F   0  0  0  0  0  0  0  0  0  0  0  0
   -5.5620   14.9510   -2.7150 F   0  0  0  0  0  0  0  0  0  0  0  0
   -5.9370   14.6490   -0.3410 C   0  0  0  0  0  0  0  0  0  0  0  0
   -0.6010   14.8160   -3.3060 C   0  0  0  0  0  0  0  0  0  0  0  0
   -7.2690   14.5890   -0.5800 N   0  0  0  0  0  0  0  0  0  0  0  0
   -5.4050   14.7570    0.9010 N   0  0  0  0  0  0  0  0  0  0  0  0
   -0.2450   16.0140   -4.1380 C   0  0  0  0  0  0  0  0  0  0  0  0
   -8.0740   14.6570    0.5000 C   0  0  0  0  0  0  0  0  0  0  0  0
   -6.2530   14.8190    1.9360 C   0  0  0  0  0  0  0  0  0  0  0  0
    1.0120   16.5420   -4.3170 C   0  0  0  0  0  0  0  0  0  0  0  0
   -1.2530   16.6960   -4.8150 N   0  0  0  0  0  0  0  0  0  0  0  0
   -7.6150   14.7800    1.7900 C   0  0  0  0  0  0  0  0  0  0  0  0
   -0.7500   17.7110   -5.4810 C   0  0  0  0  0  0  0  0  0  0  0  0
    0.9390   17.9120   -5.3440 S   0  0  0  0  0  0  0  0  0  0  0  0
   -8.4710   14.8780    2.9710 C   0  0  0  0  0  0  0  0  0  0  0  0
   -1.5410   18.6530   -6.3130 C   0  0  0  0  0  0  0  0  0  0  0  0
   -7.8730   14.8340    4.1950 N   0  0  0  0  0  0  0  0  0  0  0  0
   -9.6840   15.0100    2.8550 O   0  0  0  0  0  0  0  0  0  0  0  0
  2  1  1  1
  2  3  1  0
  2  4  1  0
  4  5  1  0
  3  6  1  0
  3  7  1  1
  4  8  1  0
  5  9  1  0
  6  9  1  0
  6 10  1  1
  7 11  1  0
 10 11  1  0
  8 12  1  0
  8 13  1  0
  8 14  1  0
  9 15  1  0
 14 16  2  0
 14 17  1  0
 15 18  1  0
 16 19  1  0
 17 20  2  0
 18 21  2  0
 18 22  1  0
 19 23  2  0
 20 23  1  0
 22 24  2  0
 21 25  1  0
 24 25  1  0
 23 26  1  0
 24 27  1  0
 26 28  1  0
 26 29  2  0
M  END
