mac-x0148-mac-x0306
     RDKit          3D

 22 26  0  0  0  0  0  0  0  0999 V2000
   -2.6710   13.7880   -5.6870 C   0  0  0  0  0  0  0  0  0  0  0  0
   -3.2970   14.9960   -5.2300 O   0  0  0  0  0  0  0  0  0  0  0  0
   -2.9520   15.1430   -3.8320 C   0  0  0  0  0  0  0  0  0  0  0  0
   -1.7380   13.3680   -4.5750 C   0  0  2  0  0  0  0  0  0  0  0  0
   -1.5240   14.6180   -3.7350 C   0  0  2  0  0  0  0  0  0  0  0  0
   -0.4610   12.6460   -4.9480 C   0  0  0  0  0  0  0  0  0  0  0  0
    0.0790   12.0620   -3.6520 C   0  0  0  0  0  0  0  0  0  0  0  0
   -0.9670   14.0670   -2.4710 N   0  0  0  0  0  0  0  0  0  0  0  0
    0.1950   13.1380   -2.5570 C   0  0  0  0  0  0  0  0  0  0  0  0
   -1.3030   14.3710   -1.1150 C   0  0  0  0  0  0  0  0  0  0  0  0
   -0.2350   14.4510   -0.3020 N   0  0  0  0  0  0  0  0  0  0  0  0
   -2.5850   14.5620   -0.5810 C   0  0  0  0  0  0  0  0  0  0  0  0
   -0.4440   14.7000    1.0020 C   0  0  0  0  0  0  0  0  0  0  0  0
   -2.6800   14.8110    0.7870 C   0  0  0  0  0  0  0  0  0  0  0  0
   -3.9760   14.5580   -1.1530 C   0  0  0  0  0  0  0  0  0  0  0  0
   -1.6240   14.8820    1.6010 N   0  0  0  0  0  0  0  0  0  0  0  0
   -4.0330   14.9830    1.2450 N   0  0  0  0  0  0  0  0  0  0  0  0
   -4.8530   14.5390    0.1370 C   0  0  0  0  0  0  0  0  0  0  0  0
   -6.0910   15.3140    0.1050 N   0  0  0  0  0  0  0  0  0  0  0  0
   -5.5410   13.2620    0.3830 N   0  0  0  0  0  0  0  0  0  0  0  0
   -6.7570   13.4630    1.0430 C   0  0  0  0  0  0  0  0  0  0  0  0
   -7.0940   14.7120    0.8800 C   0  0  0  0  0  0  0  0  0  0  0  0
  1  2  1  0
  2  3  1  0
  4  1  1  6
  5  3  1  1
  4  5  1  0
  4  6  1  0
  6  7  1  0
  5  8  1  0
  7  9  1  0
  8  9  1  0
  8 10  1  0
 10 11  2  0
 10 12  1  0
 11 13  1  0
 12 14  2  0
 12 15  1  0
 13 16  2  0
 14 16  1  0
 14 17  1  0
 15 18  1  0
 18 17  1  0
 18 19  1  0
 18 20  1  0
 20 21  1  0
 19 22  1  0
 21 22  2  0
M  END
