mac-x0302-diamond-x0900_0_A
     RDKit          3D

 14 14  0  0  0  0  0  0  0  0999 V2000
    1.5660   14.3020   -3.7580 O   0  0  0  0  0  0  0  0  0  0  0  0
    0.5470   14.1040   -2.8960 C   0  0  0  0  0  0  0  0  0  0  0  0
    0.7150   13.5720   -1.8110 O   0  0  0  0  0  0  0  0  0  0  0  0
   -0.7990   14.5950   -3.4010 C   0  0  0  0  0  0  0  0  0  0  0  0
   -1.7420   14.5880   -2.3100 N   0  0  0  0  0  0  0  0  0  0  0  0
   -3.0150   15.0690   -2.4560 C   0  0  0  0  0  0  0  0  0  0  0  0
   -3.4480   15.4940   -3.5180 O   0  0  0  0  0  0  0  0  0  0  0  0
   -3.8570   15.0500   -1.2370 C   0  0  0  0  0  0  0  0  0  0  0  0
   -5.2510   15.0220   -1.3850 C   0  0  0  0  0  0  0  0  0  0  0  0
   -3.2840   15.0580    0.0400 C   0  0  0  0  0  0  0  0  0  0  0  0
   -6.0490   14.9950   -0.2490 C   0  0  0  0  0  0  0  0  0  0  0  0
   -4.0960   15.0340    1.1670 C   0  0  0  0  0  0  0  0  0  0  0  0
   -7.4110   14.9660   -0.3420 O   0  0  0  0  0  0  0  0  0  0  0  0
   -5.4790   14.9980    1.0240 C   0  0  0  0  0  0  0  0  0  0  0  0
  1  2  1  0
  2  3  2  0
  2  4  1  0
  4  5  1  0
  5  6  1  0
  6  7  2  0
  6  8  1  0
  8  9  2  0
  8 10  1  0
  9 11  1  0
 10 12  2  0
 11 13  1  0
 11 14  2  0
 12 14  1  0
M  END
