mac-x0326-mac-x0396
     RDKit          3D

 24 26  0  0  0  0  0  0  0  0999 V2000
   -6.4200   15.4000   -2.5210 Cl  0  0  0  0  0  0  0  0  0  0  0  0
   -4.7190   15.2120   -2.3820 C   0  0  0  0  0  0  0  0  0  0  0  0
   -3.8540   15.1100   -3.4740 C   0  0  0  0  0  0  0  0  0  0  0  0
   -4.2330   15.1550   -1.1320 C   0  0  0  0  0  0  0  0  0  0  0  0
   -2.4600   14.9380   -3.2490 C   0  0  0  0  0  0  0  0  0  0  0  0
   -2.9000   14.9810   -0.9250 C   0  0  0  0  0  0  0  0  0  0  0  0
   -2.5420   14.9160    0.3290 N   0  0  0  0  0  0  0  0  0  0  0  0
   -1.4790   14.8230   -4.2060 N   0  0  0  0  0  0  0  0  0  0  0  0
   -1.9980   14.8710   -1.9490 C   0  0  0  0  0  0  0  0  0  0  0  0
   -3.5360   14.6900    1.0820 C   0  0  0  0  0  0  0  0  0  0  0  0
   -0.3020   14.6660   -3.6340 C   0  0  0  0  0  0  0  0  0  0  0  0
   -0.2870   14.6520   -1.9220 S   0  0  0  0  0  0  0  0  0  0  0  0
    0.9740   14.4990   -4.3950 C   0  0  0  0  0  0  0  0  0  0  0  0
   -3.2000   14.6050    2.3510 N   0  0  0  0  0  0  0  0  0  0  0  0
   -4.9920   14.5100    0.7420 C   0  0  0  0  0  0  0  0  0  0  0  0
    1.2950   13.0130   -4.5590 C   0  0  0  0  0  0  0  0  0  0  0  0
   -5.4500   14.0400   -0.4920 C   0  0  0  0  0  0  0  0  0  0  0  0
   -5.9510   14.8150    1.6920 C   0  0  0  0  0  0  0  0  0  0  0  0
    1.1760   12.2370   -3.2680 C   0  0  0  0  0  0  0  0  0  0  0  0
   -6.7720   13.8740   -0.8060 N   0  0  0  0  0  0  0  0  0  0  0  0
   -7.3030   14.6530    1.4030 C   0  0  0  0  0  0  0  0  0  0  0  0
    0.3840   11.1490   -3.3410 O   0  0  0  0  0  0  0  0  0  0  0  0
    1.7330   12.5300   -2.2280 O   0  0  0  0  0  0  0  0  0  0  0  0
   -7.6650   14.1890    0.1560 C   0  0  0  0  0  0  0  0  0  0  0  0
  1  2  1  0
  2  3  2  0
  2  4  1  0
  3  5  1  0
  4  6  2  0
  6  7  1  0
  5  8  1  0
  5  9  2  0
  6  9  1  0
  7 10  2  3
  8 11  2  0
  9 12  1  0
 11 12  1  0
 11 13  1  0
 10 14  1  0
 10 15  1  0
 13 16  1  0
 15 17  2  0
 15 18  1  0
 16 19  1  0
 17 20  1  0
 18 21  2  0
 19 22  1  0
 19 23  2  0
 20 24  2  0
 21 24  1  0
M  END
