mac-x0379-mac-x0282
     RDKit          3D

 16 18  0  0  0  0  0  0  0  0999 V2000
   -4.8760   13.2300   -0.1690 C   0  0  0  0  0  0  0  0  0  0  0  0
   -4.2620   14.4710   -0.7780 C   0  0  2  0  0  0  0  0  0  0  0  0
   -4.7420   14.6420   -2.1660 N   0  0  0  0  0  0  0  0  0  0  0  0
   -2.5280   14.5770   -0.8210 S   0  0  1  0  0  0  0  0  0  0  0  0
   -4.6550   15.6610    0.1450 C   0  0  0  0  0  0  0  0  0  0  0  0
   -3.6340   15.0810   -3.0510 C   0  0  0  0  0  0  0  0  0  0  0  0
   -2.4210   15.5600   -2.2420 C   0  0  2  0  0  0  0  0  0  0  0  0
   -2.4170   15.1980    0.7710 C   0  0  2  0  0  0  0  0  0  0  0  0
   -3.4890   16.1440    0.9120 N   0  0  0  0  0  0  0  0  0  0  0  0
   -1.3570   13.4210   -0.9200 C   0  0  0  0  0  0  0  0  0  0  0  0
   -1.1580   15.3270   -3.0450 C   0  0  0  0  0  0  0  0  0  0  0  0
   -0.2980   13.6710   -0.1280 C   0  0  0  0  0  0  0  0  0  0  0  0
   -1.1510   15.8110    0.9550 N   0  0  0  0  0  0  0  0  0  0  0  0
   -1.0840   15.0840   -4.2440 O   0  0  0  0  0  0  0  0  0  0  0  0
   -0.0210   15.3880   -2.3270 O   0  0  0  0  0  0  0  0  0  0  0  0
   -0.0790   14.8200    0.8350 C   0  0  0  0  0  0  0  0  0  0  0  0
  2  1  1  1
  2  3  1  0
  2  4  1  0
  2  5  1  0
  3  6  1  0
  4  7  1  0
  6  7  1  0
  4  8  1  0
  5  9  1  0
  8  9  1  6
  4 10  1  6
  7 11  1  6
 10 12  2  0
  8 13  1  0
 11 14  2  0
 11 15  1  0
 12 16  1  0
 13 16  1  0
M  END
