mac-x0303-mac-x0381
     RDKit          3D

 24 27  0  0  0  0  0  0  0  0999 V2000
   -7.7620   12.5470    3.1690 N   0  0  0  0  0  0  0  0  0  0  0  0
   -8.2720   13.5990    1.9570 S   0  0  0  0  0  0  0  0  0  0  0  0
   -8.3930   14.7870    3.1160 C   0  0  0  0  0  0  0  0  0  0  0  0
   -9.6580   13.9670    1.5620 O   0  0  0  0  0  0  0  0  0  0  0  0
   -6.9020   14.1760    0.9880 C   0  0  0  0  0  0  0  0  0  0  0  0
   -7.5880   15.1820    4.0410 N   0  0  0  0  0  0  0  0  0  0  0  0
   -7.0520   14.5890   -0.2550 N   0  0  0  0  0  0  0  0  0  0  0  0
   -5.6520   14.2210    1.3560 N   0  0  0  0  0  0  0  0  0  0  0  0
   -9.6830   15.3860    3.0050 C   0  0  0  0  0  0  0  0  0  0  0  0
   -5.8070   14.8790   -0.6970 C   0  0  0  0  0  0  0  0  0  0  0  0
   -4.8980   14.6490    0.3090 C   0  0  0  0  0  0  0  0  0  0  0  0
   -9.9170   16.1550    1.9140 C   0  0  0  0  0  0  0  0  0  0  0  0
  -10.6840   15.1800    3.8970 C   0  0  0  0  0  0  0  0  0  0  0  0
   -5.4200   15.3160   -1.9100 C   0  0  0  0  0  0  0  0  0  0  0  0
   -3.5840   14.8500    0.1100 C   0  0  0  0  0  0  0  0  0  0  0  0
  -11.1350   16.6980    1.6810 C   0  0  0  0  0  0  0  0  0  0  0  0
  -11.9540   15.7310    3.6840 C   0  0  0  0  0  0  0  0  0  0  0  0
   -4.0890   15.5260   -2.1650 C   0  0  0  0  0  0  0  0  0  0  0  0
   -3.1990   15.2830   -1.1460 C   0  0  0  0  0  0  0  0  0  0  0  0
  -12.1800   16.4900    2.5500 C   0  0  0  0  0  0  0  0  0  0  0  0
  -11.3450   17.4570    0.5590 C   0  0  0  0  0  0  0  0  0  0  0  0
  -13.4130   17.0370    2.2610 C   0  0  0  0  0  0  0  0  0  0  0  0
  -12.5750   18.0070    0.2760 C   0  0  0  0  0  0  0  0  0  0  0  0
  -13.6370   17.7990    1.1300 C   0  0  0  0  0  0  0  0  0  0  0  0
  1  2  1  0
  2  3  1  0
  2  4  2  0
  2  5  1  0
  3  6  2  3
  5  7  1  0
  5  8  2  0
  3  9  1  0
  7 10  1  0
  8 11  1  0
 10 11  2  0
  9 12  2  0
  9 13  1  0
 10 14  1  0
 11 15  1  0
 12 16  1  0
 13 17  2  0
 14 18  2  0
 15 19  2  0
 18 19  1  0
 16 20  2  0
 17 20  1  0
 16 21  1  0
 20 22  1  0
 21 23  2  0
 22 24  2  0
 23 24  1  0
M  END
