mac-x0223-mac-x0347
     RDKit          3D

 25 27  0  0  0  0  0  0  0  0999 V2000
    1.2460   18.5710   -5.6390 C   0  0  0  0  0  0  0  0  0  0  0  0
    0.2820   18.3450   -4.6230 O   0  0  0  0  0  0  0  0  0  0  0  0
   -0.1940   17.0850   -4.6940 C   0  0  0  0  0  0  0  0  0  0  0  0
   -1.5420   17.0180   -5.0020 C   0  0  0  0  0  0  0  0  0  0  0  0
    0.5450   15.9260   -4.4880 C   0  0  0  0  0  0  0  0  0  0  0  0
   -2.2570   18.1710   -5.1590 O   0  0  0  0  0  0  0  0  0  0  0  0
   -2.1890   15.8050   -5.1470 C   0  0  0  0  0  0  0  0  0  0  0  0
   -0.0790   14.6830   -4.5990 C   0  0  0  0  0  0  0  0  0  0  0  0
    0.6730   13.4000   -4.3240 C   0  0  0  0  0  0  0  0  0  0  0  0
   -1.4510   14.6280   -4.9460 C   0  0  0  0  0  0  0  0  0  0  0  0
    0.1550   12.9220   -2.9290 C   0  0  0  0  0  0  0  0  0  0  0  0
   -0.0450   11.5120   -2.9270 O   0  0  0  0  0  0  0  0  0  0  0  0
    1.0790   13.1410   -1.8700 O   0  0  0  0  0  0  0  0  0  0  0  0
   -1.1710   13.6690   -2.7220 C   0  0  0  0  0  0  0  0  0  0  0  0
   -1.9260   13.7520   -1.5390 C   0  0  0  0  0  0  0  0  0  0  0  0
   -1.7080   14.3350   -3.8150 C   0  0  0  0  0  0  0  0  0  0  0  0
   -3.1460   14.4680   -1.5270 C   0  0  0  0  0  0  0  0  0  0  0  0
   -2.8650   15.0350   -3.8460 N   0  0  0  0  0  0  0  0  0  0  0  0
   -3.5440   15.0760   -2.7020 C   0  0  0  0  0  0  0  0  0  0  0  0
   -4.0090   14.5900   -0.3650 C   0  0  0  0  0  0  0  0  0  0  0  0
   -3.6600   15.3020    0.7940 C   0  0  0  0  0  0  0  0  0  0  0  0
   -5.2630   13.9610   -0.4120 C   0  0  0  0  0  0  0  0  0  0  0  0
   -4.5460   15.3730    1.8630 C   0  0  0  0  0  0  0  0  0  0  0  0
   -6.1480   14.0300    0.6560 C   0  0  0  0  0  0  0  0  0  0  0  0
   -5.7840   14.7380    1.7960 C   0  0  0  0  0  0  0  0  0  0  0  0
  1  2  1  0
  2  3  1  0
  3  4  2  0
  3  5  1  0
  4  6  1  0
  4  7  1  0
  5  8  2  0
  8  9  1  0
  7 10  2  0
  8 10  1  0
  9 11  1  0
 11 12  1  0
 11 13  1  0
 11 14  1  0
 14 15  2  0
 14 16  1  0
 15 17  1  0
 16 18  2  0
 17 19  2  0
 18 19  1  0
 17 20  1  0
 20 21  2  0
 20 22  1  0
 21 23  1  0
 22 24  2  0
 23 25  2  0
 24 25  1  0
M  END
