mac-x0397-mac-x0375
     RDKit          3D

 25 27  0  0  0  0  0  0  0  0999 V2000
   -6.5250   15.2020   -2.4190 Cl  0  0  0  0  0  0  0  0  0  0  0  0
   -4.9570   15.0160   -1.7750 C   0  0  0  0  0  0  0  0  0  0  0  0
   -4.9080   14.9300   -0.3900 C   0  0  0  0  0  0  0  0  0  0  0  0
   -3.8080   14.9490   -2.5600 C   0  0  0  0  0  0  0  0  0  0  0  0
   -5.9810   14.9800    0.4730 N   0  0  0  0  0  0  0  0  0  0  0  0
   -3.6650   14.7740    0.2090 C   0  0  0  0  0  0  0  0  0  0  0  0
   -2.5620   14.7840   -1.9470 C   0  0  0  0  0  0  0  0  0  0  0  0
   -1.3080   14.7010   -2.7950 C   0  0  0  0  0  0  0  0  0  0  0  0
   -5.5810   14.8760    1.6950 C   0  0  0  0  0  0  0  0  0  0  0  0
   -3.8850   14.7030    1.9040 S   0  0  0  0  0  0  0  0  0  0  0  0
   -2.4780   14.6960   -0.5430 C   0  0  0  0  0  0  0  0  0  0  0  0
   -6.4500   14.9060    2.7100 N   0  0  0  0  0  0  0  0  0  0  0  0
    0.0080   14.8020   -2.0090 C   0  0  0  0  0  0  0  0  0  0  0  0
    0.5650   13.4600   -1.5400 C   0  0  0  0  0  0  0  0  0  0  0  0
    1.4550   12.9270   -2.5340 O   0  0  0  0  0  0  0  0  0  0  0  0
    0.8960   12.0370   -3.3990 C   0  0  0  0  0  0  0  0  0  0  0  0
    0.5210   10.9140   -3.0820 O   0  0  0  0  0  0  0  0  0  0  0  0
    0.7980   12.6080   -4.8150 C   0  0  0  0  0  0  0  0  0  0  0  0
    0.7370   11.6680   -5.8810 O   0  0  0  0  0  0  0  0  0  0  0  0
   -0.3470   10.8390   -6.0190 C   0  0  0  0  0  0  0  0  0  0  0  0
   -0.3770    9.6600   -6.7680 C   0  0  0  0  0  0  0  0  0  0  0  0
   -1.5030   11.2350   -5.3380 C   0  0  0  0  0  0  0  0  0  0  0  0
   -1.5410    8.8920   -6.8330 C   0  0  0  0  0  0  0  0  0  0  0  0
   -2.6670   10.4690   -5.4040 C   0  0  0  0  0  0  0  0  0  0  0  0
   -2.6880    9.2950   -6.1520 C   0  0  0  0  0  0  0  0  0  0  0  0
  1  2  1  0
  2  3  2  0
  2  4  1  0
  3  5  1  0
  3  6  1  0
  4  7  2  0
  7  8  1  0
  5  9  2  0
  6 10  1  0
  9 10  1  0
  6 11  2  0
  7 11  1  0
  9 12  1  0
  8 13  1  0
 13 14  1  0
 14 15  1  0
 15 16  1  0
 16 17  2  0
 16 18  1  0
 18 19  1  0
 19 20  1  0
 20 21  2  0
 20 22  1  0
 21 23  1  0
 22 24  2  0
 23 25  2  0
 24 25  1  0
M  END
