mac-x0137-mac-x0305
     RDKit          3D

 20 22  0  0  0  0  0  0  0  0999 V2000
   -2.5100   13.4370   -4.5970 F   0  0  0  0  0  0  0  0  0  0  0  0
   -1.1460   13.5800   -4.5040 C   0  0  2  0  0  0  0  0  0  0  0  0
   -0.6120   12.1610   -4.3260 C   0  0  0  0  0  0  0  0  0  0  0  0
   -0.7780   14.5400   -3.3360 C   0  0  0  0  0  0  0  0  0  0  0  0
   -0.2800   13.7430   -2.1820 N   0  0  0  0  0  0  0  0  0  0  0  0
    0.7270   12.0550   -3.5770 C   0  0  0  0  0  0  0  0  0  0  0  0
    0.9730   13.0720   -2.4560 C   0  0  0  0  0  0  0  0  0  0  0  0
   -0.5980   14.1180   -0.8420 C   0  0  0  0  0  0  0  0  0  0  0  0
    0.2900   14.0730    0.1450 N   0  0  0  0  0  0  0  0  0  0  0  0
   -1.8520   14.5440   -0.4690 C   0  0  0  0  0  0  0  0  0  0  0  0
   -0.1090   14.4300    1.3910 C   0  0  0  0  0  0  0  0  0  0  0  0
   -2.1220   14.8800    0.8040 C   0  0  0  0  0  0  0  0  0  0  0  0
   -2.9670   14.7010   -1.2030 C   0  0  0  0  0  0  0  0  0  0  0  0
   -2.7510   14.3450   -2.5450 C   0  0  0  0  0  0  0  0  0  0  0  0
   -1.2930   14.8460    1.8080 N   0  0  0  0  0  0  0  0  0  0  0  0
   -3.4090   15.2620    0.8680 N   0  0  0  0  0  0  0  0  0  0  0  0
   -3.9960   15.1720   -0.3730 C   0  0  0  0  0  0  0  0  0  0  0  0
   -2.1710   13.1030   -2.5710 O   0  0  0  0  0  0  0  0  0  0  0  0
   -2.9260   14.9640   -3.5670 O   0  0  0  0  0  0  0  0  0  0  0  0
   -3.9720   15.6720    2.0470 O   0  0  0  0  0  0  0  0  0  0  0  0
  2  1  1  1
  2  3  1  0
  2  4  1  0
  4  5  1  0
  3  6  1  0
  5  7  1  0
  6  7  1  0
  5  8  1  0
  8  9  2  0
  8 10  1  0
  9 11  1  0
 10 12  2  0
 10 13  1  0
 13 14  1  0
 11 15  2  0
 12 15  1  0
 12 16  1  0
 13 17  2  0
 16 17  1  0
 14 18  1  0
 14 19  2  0
 16 20  1  0
M  END
