mac-x0178-mac-x0263
     RDKit          3D

 30 32  0  0  0  0  0  0  0  0999 V2000
   -1.1380   18.6790   -4.9840 N   0  0  0  0  0  0  0  0  0  0  0  0
   -1.5320   17.2660   -5.7420 S   0  0  2  0  0  0  0  0  0  0  0  0
   -1.1500   17.6060   -7.0690 O   0  0  0  0  0  0  0  0  0  0  0  0
   -2.9090   17.0160   -5.3000 N   0  0  0  0  0  0  0  0  0  0  0  0
   -0.7640   15.9350   -4.8850 C   0  0  0  0  0  0  0  0  0  0  0  0
   -3.6020   15.7550   -5.6730 C   0  0  0  0  0  0  0  0  0  0  0  0
    0.3650   16.1400   -4.0990 C   0  0  0  0  0  0  0  0  0  0  0  0
   -1.3550   14.6700   -4.9970 C   0  0  0  0  0  0  0  0  0  0  0  0
   -3.9260   14.8990   -4.4380 C   0  0  0  0  0  0  0  0  0  0  0  0
    0.8990   15.0530   -3.4010 C   0  0  0  0  0  0  0  0  0  0  0  0
   -0.8240   13.5920   -4.3030 C   0  0  0  0  0  0  0  0  0  0  0  0
    0.2970   13.7890   -3.5030 C   0  0  0  0  0  0  0  0  0  0  0  0
   -3.2910   15.4500   -3.1590 C   0  0  0  0  0  0  0  0  0  0  0  0
    0.8850   12.6750   -2.7330 C   0  0  0  0  0  0  0  0  0  0  0  0
   -4.0780   15.2500   -1.8800 C   0  0  0  0  0  0  0  0  0  0  0  0
    1.8120   12.8370   -1.9750 O   0  0  0  0  0  0  0  0  0  0  0  0
    0.2910   11.4830   -2.9390 O   0  0  0  0  0  0  0  0  0  0  0  0
   -5.4710   15.1200   -1.9350 C   0  0  0  0  0  0  0  0  0  0  0  0
   -3.4090   15.1860   -0.6420 C   0  0  0  0  0  0  0  0  0  0  0  0
   -6.1360   14.9100   -0.7300 C   0  0  0  0  0  0  0  0  0  0  0  0
   -4.1040   14.9840    0.5570 C   0  0  0  0  0  0  0  0  0  0  0  0
   -7.4590   14.7290   -0.4360 N   0  0  0  0  0  0  0  0  0  0  0  0
   -5.4940   14.8390    0.4970 C   0  0  0  0  0  0  0  0  0  0  0  0
   -7.5750   14.5500    0.9200 C   0  0  0  0  0  0  0  0  0  0  0  0
   -6.4010   14.6190    1.5020 N   0  0  0  0  0  0  0  0  0  0  0  0
   -8.8800   14.3130    1.5930 C   0  0  0  0  0  0  0  0  0  0  0  0
   -9.4970   15.5920    2.1410 C   0  0  0  0  0  0  0  0  0  0  0  0
  -10.8520   15.3470    2.7500 C   0  0  0  0  0  0  0  0  0  0  0  0
  -11.5030   14.3090    2.1970 O   0  0  0  0  0  0  0  0  0  0  0  0
  -11.3780   15.9690    3.6510 O   0  0  0  0  0  0  0  0  0  0  0  0
  2  1  1  1
  2  3  2  0
  2  4  2  0
  2  5  1  0
  4  6  1  0
  5  7  2  0
  5  8  1  0
  6  9  1  0
  7 10  1  0
  8 11  2  0
 10 12  2  0
 11 12  1  0
  9 13  1  0
 12 14  1  0
 13 15  1  0
 14 16  2  0
 14 17  1  0
 15 18  2  0
 15 19  1  0
 18 20  1  0
 19 21  2  0
 20 22  1  0
 20 23  2  0
 21 23  1  0
 22 24  1  0
 23 25  1  0
 24 25  2  0
 24 26  1  0
 26 27  1  0
 27 28  1  0
 28 29  1  0
 28 30  2  0
M  END
