mac-x0394-mac-x0411
     RDKit          3D

 22 23  0  0  0  0  0  0  0  0999 V2000
    1.0440   18.1480   -4.7130 Cl  0  0  0  0  0  0  0  0  0  0  0  0
    0.1820   16.6890   -4.8620 C   0  0  0  0  0  0  0  0  0  0  0  0
   -1.1610   16.8270   -5.1630 C   0  0  0  0  0  0  0  0  0  0  0  0
    0.7850   15.4150   -4.6930 C   0  0  0  0  0  0  0  0  0  0  0  0
   -0.0330   14.2630   -4.8390 C   0  0  0  0  0  0  0  0  0  0  0  0
   -1.9200   15.6900   -5.2990 C   0  0  0  0  0  0  0  0  0  0  0  0
   -3.5780   15.7560   -5.6820 Cl  0  0  0  0  0  0  0  0  0  0  0  0
    0.3620   12.7920   -4.6920 C   0  0  2  0  0  0  0  0  0  0  0  0
   -1.3670   14.4540   -5.1400 C   0  0  0  0  0  0  0  0  0  0  0  0
    1.2380   12.5840   -3.4270 C   0  0  0  0  0  0  0  0  0  0  0  0
    0.5620   12.0320   -5.9660 O   0  0  0  0  0  0  0  0  0  0  0  0
    0.8110   11.5510   -2.6470 N   0  0  0  0  0  0  0  0  0  0  0  0
    2.1750   13.3110   -3.1390 O   0  0  0  0  0  0  0  0  0  0  0  0
   -0.5380   11.1600   -6.2080 C   0  0  0  0  0  0  0  0  0  0  0  0
    0.1810   10.6530   -3.2790 C   0  0  0  0  0  0  0  0  0  0  0  0
   -1.8110   11.5520   -5.7560 C   0  0  0  0  0  0  0  0  0  0  0  0
   -0.4910    9.8960   -6.8870 C   0  0  0  0  0  0  0  0  0  0  0  0
    0.8900    9.1850   -7.6260 Cl  0  0  0  0  0  0  0  0  0  0  0  0
   -2.0740   13.0730   -5.0050 Cl  0  0  0  0  0  0  0  0  0  0  0  0
   -2.9410   10.7490   -5.8990 C   0  0  0  0  0  0  0  0  0  0  0  0
   -1.6360    9.1030   -7.0200 C   0  0  0  0  0  0  0  0  0  0  0  0
   -2.8560    9.5170   -6.5210 C   0  0  0  0  0  0  0  0  0  0  0  0
  1  2  1  0
  2  3  2  0
  2  4  1  0
  4  5  2  0
  3  6  1  0
  6  7  1  0
  5  8  1  0
  5  9  1  0
  6  9  2  0
  8 10  1  0
  8 11  1  6
 10 12  1  0
 10 13  2  0
 11 14  1  0
 12 15  2  3
 14 16  2  0
 14 17  1  0
 17 18  1  0
 16 19  1  0
 16 20  1  0
 17 21  2  0
 20 22  2  0
 21 22  1  0
M  END
