mac-x0282-diamond-x0282_0_A
     RDKit          3D

 11 12  0  0  0  0  0  0  0  0999 V2000
   -6.2910   14.8220    0.3160 C   0  0  0  0  0  0  0  0  0  0  0  0
   -6.9210   13.6300   -0.1220 O   0  0  0  0  0  0  0  0  0  0  0  0
   -4.7880   14.7840    0.1520 C   0  0  0  0  0  0  0  0  0  0  0  0
   -3.9510   14.8500   -0.9590 C   0  0  0  0  0  0  0  0  0  0  0  0
   -3.9550   14.6660    1.2510 N   0  0  0  0  0  0  0  0  0  0  0  0
   -2.5950   14.7670   -0.5110 C   0  0  0  0  0  0  0  0  0  0  0  0
   -2.6420   14.6600    0.8720 C   0  0  0  0  0  0  0  0  0  0  0  0
   -1.3170   14.7690   -1.1090 C   0  0  0  0  0  0  0  0  0  0  0  0
   -1.6050   14.5610    1.7240 N   0  0  0  0  0  0  0  0  0  0  0  0
   -0.2030   14.6700   -0.2650 C   0  0  0  0  0  0  0  0  0  0  0  0
   -0.4090   14.5730    1.1020 C   0  0  0  0  0  0  0  0  0  0  0  0
  1  2  1  0
  1  3  1  0
  3  4  2  0
  3  5  1  0
  4  6  1  0
  5  7  1  0
  6  7  2  0
  6  8  1  0
  7  9  1  0
  8 10  2  0
  9 11  2  0
 10 11  1  0
M  END
