mac-x0142-mac-x0190
     RDKit          3D

 23 27  0  0  0  0  0  0  0  0999 V2000
   -8.9310   14.5650    2.0420 O   0  0  0  0  0  0  0  0  0  0  0  0
   -8.1460   13.7330    1.1720 C   0  0  0  0  0  0  0  0  0  0  0  0
   -6.8540   14.4730    0.7370 C   0  0  2  0  0  0  0  0  0  0  0  0
   -7.0560   15.3100   -0.4160 N   0  0  0  0  0  0  0  0  0  0  0  0
   -5.7410   13.6630    0.2320 N   0  0  0  0  0  0  0  0  0  0  0  0
   -4.7140   14.6970   -0.1030 C   0  0  1  0  0  0  0  0  0  0  0  0
   -5.6620   15.7600   -0.7030 C   0  0  0  0  0  0  0  0  0  0  0  0
   -3.8840   15.0900    1.0500 N   0  0  0  0  0  0  0  0  0  0  0  0
   -3.7330   14.4230   -1.3000 C   0  0  0  0  0  0  0  0  0  0  0  0
   -2.5210   14.9580    0.6380 C   0  0  0  0  0  0  0  0  0  0  0  0
   -2.3870   14.6160   -0.6970 C   0  0  0  0  0  0  0  0  0  0  0  0
   -1.4910   15.1560    1.4550 N   0  0  0  0  0  0  0  0  0  0  0  0
   -1.1060   14.5120   -1.2310 C   0  0  0  0  0  0  0  0  0  0  0  0
   -0.8490   14.1920   -2.5910 N   0  0  0  0  0  0  0  0  0  0  0  0
   -0.0500   14.7160   -0.4280 N   0  0  0  0  0  0  0  0  0  0  0  0
   -0.2890   15.0170    0.8600 C   0  0  0  0  0  0  0  0  0  0  0  0
   -1.9650   14.2190   -3.5500 C   0  0  0  0  0  0  0  0  0  0  0  0
    0.3920   14.7430   -3.1450 C   0  0  0  0  0  0  0  0  0  0  0  0
    0.8140   13.6810   -4.1270 C   0  0  0  0  0  0  0  0  0  0  0  0
   -1.6060   13.3030   -4.7380 C   0  0  0  0  0  0  0  0  0  0  0  0
    2.2720   13.3470   -4.3550 C   0  0  0  0  0  0  0  0  0  0  0  0
    1.4130   12.4330   -3.5280 C   0  0  0  0  0  0  0  0  0  0  0  0
   -0.1740   13.5180   -5.2620 C   0  0  0  0  0  0  0  0  0  0  0  0
  1  2  1  0
  3  2  1  6
  3  4  1  0
  3  5  1  0
  6  5  1  0
  4  7  1  0
  6  7  1  6
  6  8  1  0
  6  9  1  0
  8 10  1  0
  9 11  1  0
 10 11  2  0
 10 12  1  0
 11 13  1  0
 13 14  1  0
 13 15  2  0
 12 16  2  0
 15 16  1  0
 14 17  1  0
 14 18  1  0
 19 18  1  0
 17 20  1  0
 19 21  1  0
 19 22  1  0
 21 22  1  0
 19 23  1  0
 20 23  1  0
M  END
