mac-x0132-mac-x0328
     RDKit          3D

 15 16  0  0  0  0  0  0  0  0999 V2000
   -3.9420   14.8450    2.0530 N   0  0  0  0  0  0  0  0  0  0  0  0
   -5.0650   14.8160    1.2380 C   0  0  0  0  0  0  0  0  0  0  0  0
   -6.2860   14.7440    1.8000 N   0  0  0  0  0  0  0  0  0  0  0  0
   -4.8520   14.8570   -0.1140 C   0  0  0  0  0  0  0  0  0  0  0  0
   -5.9950   14.8420   -0.8830 C   0  0  0  0  0  0  0  0  0  0  0  0
   -7.3230   14.7240    0.9510 C   0  0  0  0  0  0  0  0  0  0  0  0
   -3.5720   14.9040   -0.7010 C   0  0  0  0  0  0  0  0  0  0  0  0
   -7.2350   14.7780   -0.3780 N   0  0  0  0  0  0  0  0  0  0  0  0
   -5.8440   14.8880   -2.2410 C   0  0  0  0  0  0  0  0  0  0  0  0
   -3.4390   14.9280   -2.0830 C   0  0  0  0  0  0  0  0  0  0  0  0
   -2.0760   14.9370   -2.6780 C   0  0  0  0  0  0  0  0  0  0  0  0
   -7.0210   14.8720   -2.9420 O   0  0  0  0  0  0  0  0  0  0  0  0
   -4.5900   14.9300   -2.8830 C   0  0  0  0  0  0  0  0  0  0  0  0
   -2.0610   15.0710   -4.0180 O   0  0  0  0  0  0  0  0  0  0  0  0
   -1.0680   14.8200   -2.0000 O   0  0  0  0  0  0  0  0  0  0  0  0
  1  2  1  0
  2  3  2  0
  2  4  1  0
  4  5  2  0
  3  6  1  0
  4  7  1  0
  5  8  1  0
  6  8  2  0
  5  9  1  0
  7 10  2  0
 10 11  1  0
  9 12  1  0
  9 13  2  0
 10 13  1  0
 11 14  1  0
 11 15  2  0
M  END
