mac-x0455-mac-x0271
     RDKit          3D

 23 25  0  0  0  0  0  0  0  0999 V2000
   -2.9090   14.8760   -3.0810 C   0  0  0  0  0  0  0  0  0  0  0  0
   -1.4100   14.3630   -3.3420 C   0  0  1  0  0  0  0  0  0  0  0  0
   -0.8900   15.4270   -4.1890 O   0  0  0  0  0  0  0  0  0  0  0  0
   -3.7570   14.8690   -1.7730 C   0  0  0  0  0  0  0  0  0  0  0  0
   -0.3680   14.3680   -2.1800 C   0  0  0  0  0  0  0  0  0  0  0  0
   -1.2810   13.1100   -4.2410 C   0  0  0  0  0  0  0  0  0  0  0  0
   -5.1880   14.8850   -1.8350 C   0  0  0  0  0  0  0  0  0  0  0  0
   -3.1750   14.8520   -0.4960 C   0  0  0  0  0  0  0  0  0  0  0  0
    0.0580   15.2840   -1.5080 O   0  0  0  0  0  0  0  0  0  0  0  0
    0.1530   13.1250   -1.9500 O   0  0  0  0  0  0  0  0  0  0  0  0
   -2.2400   12.0820   -4.2710 C   0  0  0  0  0  0  0  0  0  0  0  0
   -0.1540   12.9550   -5.0910 C   0  0  0  0  0  0  0  0  0  0  0  0
   -5.9670   14.8710   -0.6510 C   0  0  0  0  0  0  0  0  0  0  0  0
   -3.9660   14.8400    0.6730 C   0  0  0  0  0  0  0  0  0  0  0  0
   -2.0830   10.9600   -5.1000 C   0  0  0  0  0  0  0  0  0  0  0  0
    0.0020   11.8370   -5.9190 C   0  0  0  0  0  0  0  0  0  0  0  0
   -5.3590   14.8430    0.5970 C   0  0  0  0  0  0  0  0  0  0  0  0
   -7.3920   14.8780   -0.7460 O   0  0  0  0  0  0  0  0  0  0  0  0
   -0.9660   10.8380   -5.9210 C   0  0  0  0  0  0  0  0  0  0  0  0
   -6.1870   14.8080    1.7970 C   0  0  0  0  0  0  0  0  0  0  0  0
   -8.2060   14.8410    0.3960 C   0  0  0  0  0  0  0  0  0  0  0  0
   -9.4370   14.8580    0.3510 O   0  0  0  0  0  0  0  0  0  0  0  0
   -7.5200   14.7980    1.6980 C   0  0  0  0  0  0  0  0  0  0  0  0
  1  2  1  0
  2  3  1  6
  1  4  1  0
  2  5  1  0
  2  6  1  0
  4  7  2  0
  4  8  1  0
  5  9  2  0
  5 10  1  0
  6 11  2  0
  6 12  1  0
  7 13  1  0
  8 14  2  0
 11 15  1  0
 12 16  2  0
 13 17  2  0
 14 17  1  0
 13 18  1  0
 15 19  2  0
 16 19  1  0
 17 20  1  0
 18 21  1  0
 21 22  2  0
 20 23  2  0
 21 23  1  0
M  END
