mac-x0380-mac-x1493
     RDKit          3D

 15 16  0  0  0  0  0  0  0  0999 V2000
   -1.8590   13.8650   -2.8200 O   0  0  0  0  0  0  0  0  0  0  0  0
   -2.3590   15.1380   -2.5520 C   0  0  0  0  0  0  0  0  0  0  0  0
   -2.9260   15.6210   -3.7350 O   0  0  0  0  0  0  0  0  0  0  0  0
   -1.2490   15.9210   -2.2240 O   0  0  0  0  0  0  0  0  0  0  0  0
   -3.3340   15.1110   -1.3930 C   0  0  0  0  0  0  0  0  0  0  0  0
   -4.7340   15.0940   -1.5780 C   0  0  0  0  0  0  0  0  0  0  0  0
   -2.8440   15.0990   -0.0790 C   0  0  0  0  0  0  0  0  0  0  0  0
   -5.6060   15.0560   -0.4810 C   0  0  0  0  0  0  0  0  0  0  0  0
   -3.7040   15.0620    1.0130 C   0  0  0  0  0  0  0  0  0  0  0  0
   -5.0870   15.0360    0.8180 C   0  0  0  0  0  0  0  0  0  0  0  0
   -7.3620   15.0250   -0.7680 S   0  0  0  0  0  0  0  0  0  0  0  0
   -5.9010   14.9850    1.9610 N   0  0  0  0  0  0  0  0  0  0  0  0
   -7.8250   14.0800    0.6990 C   0  0  0  0  0  0  0  0  0  0  0  0
   -7.2230   14.6230    1.9670 C   0  0  0  0  0  0  0  0  0  0  0  0
   -7.8980   14.7460    2.9940 O   0  0  0  0  0  0  0  0  0  0  0  0
  2  1  1  0
  2  3  1  0
  2  4  1  0
  2  5  1  0
  5  6  2  0
  5  7  1  0
  6  8  1  0
  7  9  2  0
  8 10  2  0
  9 10  1  0
  8 11  1  0
 10 12  1  0
 11 13  1  0
 12 14  1  0
 13 14  1  0
 14 15  2  0
M  END
