mac-x0231-mac-x0188
     RDKit          3D

 22 25  0  0  0  0  0  0  0  0999 V2000
    1.7990   10.6560   -3.4720 O   0  0  0  0  0  0  0  0  0  0  0  0
    1.2300   11.8170   -3.4380 C   0  0  0  0  0  0  0  0  0  0  0  0
    0.2760   11.9110   -2.5850 N   0  0  0  0  0  0  0  0  0  0  0  0
    1.7940   12.8200   -4.4200 C   0  0  0  0  0  0  0  0  0  0  0  0
   -0.3050   13.1070   -2.6300 C   0  0  0  0  0  0  0  0  0  0  0  0
    1.2050   14.2240   -4.4550 C   0  0  0  0  0  0  0  0  0  0  0  0
   -0.1920   13.9600   -1.7440 O   0  0  0  0  0  0  0  0  0  0  0  0
   -0.2480   14.4190   -4.3870 C   0  0  0  0  0  0  0  0  0  0  0  0
    2.0270   15.2030   -4.5180 N   0  0  0  0  0  0  0  0  0  0  0  0
   -1.0400   13.2650   -3.9820 C   0  0  2  0  0  0  0  0  0  0  0  0
   -0.7670   15.6220   -4.6160 C   0  0  0  0  0  0  0  0  0  0  0  0
    1.4790   16.4470   -4.5550 N   0  0  0  0  0  0  0  0  0  0  0  0
   -2.5760   13.4730   -3.9720 C   0  0  0  0  0  0  0  0  0  0  0  0
    0.1820   16.7210   -4.9290 C   0  0  0  0  0  0  0  0  0  0  0  0
   -2.2620   15.8700   -4.5020 C   0  0  0  0  0  0  0  0  0  0  0  0
   -2.8680   14.8830   -3.4420 C   0  0  0  0  0  0  0  0  0  0  0  0
   -0.1510   17.7730   -5.4520 O   0  0  0  0  0  0  0  0  0  0  0  0
   -4.3280   15.1330   -2.9900 C   0  0  0  0  0  0  0  0  0  0  0  0
   -2.0000   14.8790   -2.2010 C   0  0  0  0  0  0  0  0  0  0  0  0
   -4.7390   15.2030   -1.6960 C   0  0  0  0  0  0  0  0  0  0  0  0
   -2.4130   14.9310   -0.9260 C   0  0  0  0  0  0  0  0  0  0  0  0
   -3.8380   15.0320   -0.5170 C   0  0  0  0  0  0  0  0  0  0  0  0
  1  2  1  0
  2  3  2  0
  2  4  1  0
  3  5  1  0
  4  6  1  0
  5  7  2  0
  6  8  1  0
  6  9  2  0
  5 10  1  0
  8 10  1  0
  8 11  2  0
  9 12  1  0
 10 13  1  1
 11 14  1  0
 12 14  1  0
 11 15  1  0
 13 16  1  0
 15 16  1  0
 14 17  2  0
 16 18  1  0
 16 19  1  0
 18 20  2  0
 19 21  2  0
 20 22  1  0
 21 22  1  0
M  END
