mac-x0509-mac-x0584
     RDKit          3D

 29 34  0  0  0  0  0  0  0  0999 V2000
   -1.9570    8.3060   -5.3530 O   0  0  0  0  0  0  0  0  0  0  0  0
   -1.1760    8.6800   -6.2100 C   0  0  0  0  0  0  0  0  0  0  0  0
   -1.2380   10.0090   -7.0060 C   0  0  1  0  0  0  0  0  0  0  0  0
   -0.0720    7.9640   -6.6700 N   0  0  0  0  0  0  0  0  0  0  0  0
   -0.8990   11.3380   -6.2460 C   0  0  0  0  0  0  0  0  0  0  0  0
   -0.2460    9.7190   -8.1030 C   0  0  0  0  0  0  0  0  0  0  0  0
    0.4040    8.5160   -7.8470 C   0  0  0  0  0  0  0  0  0  0  0  0
    0.0610   10.4560   -9.2350 C   0  0  0  0  0  0  0  0  0  0  0  0
    1.3690    8.0040   -8.6840 C   0  0  0  0  0  0  0  0  0  0  0  0
   -0.0980   11.2810   -4.9160 C   0  0  1  0  0  0  0  0  0  0  0  0
    1.0370    9.9580  -10.1000 C   0  0  0  0  0  0  0  0  0  0  0  0
    1.6880    8.7410   -9.8270 C   0  0  0  0  0  0  0  0  0  0  0  0
    0.9860   12.4070   -4.7940 C   0  0  0  0  0  0  0  0  0  0  0  0
   -0.8090   11.8870   -3.6820 C   0  0  0  0  0  0  0  0  0  0  0  0
    0.2910   12.9670   -3.5260 C   0  0  2  0  0  0  0  0  0  0  0  0
   -0.1140   14.4520   -3.4610 C   0  0  1  0  0  0  0  0  0  0  0  0
   -0.4270   15.0140   -4.8650 C   0  0  0  0  0  0  0  0  0  0  0  0
   -1.3360   14.6860   -2.6830 N   0  0  0  0  0  0  0  0  0  0  0  0
   -2.4880   14.9690   -3.5520 C   0  0  0  0  0  0  0  0  0  0  0  0
   -1.9430   15.1130   -4.9690 C   0  0  0  0  0  0  0  0  0  0  0  0
   -1.4330   14.7160   -1.2990 C   0  0  0  0  0  0  0  0  0  0  0  0
   -0.3390   14.5200   -0.4800 N   0  0  0  0  0  0  0  0  0  0  0  0
   -2.5820   14.9550   -0.6470 C   0  0  0  0  0  0  0  0  0  0  0  0
   -0.4470   14.5380    0.8830 C   0  0  0  0  0  0  0  0  0  0  0  0
   -2.6080   14.9870    0.8320 C   0  0  0  0  0  0  0  0  0  0  0  0
   -3.9360   15.2340   -1.0040 C   0  0  0  0  0  0  0  0  0  0  0  0
   -1.5020   14.7440    1.5840 N   0  0  0  0  0  0  0  0  0  0  0  0
   -3.7840   15.2710    1.2970 N   0  0  0  0  0  0  0  0  0  0  0  0
   -4.5650   15.4110    0.1630 C   0  0  0  0  0  0  0  0  0  0  0  0
  1  2  2  0
  2  3  1  0
  2  4  1  0
  3  5  1  1
  3  6  1  0
  4  7  1  0
  6  7  2  0
  6  8  1  0
  7  9  1  0
 10  5  1  6
  8 11  2  0
  9 12  2  0
 11 12  1  0
 10 13  1  0
 10 14  1  0
 15 13  1  6
 14 15  1  0
 15 16  1  0
 16 17  1  6
 16 18  1  0
 18 19  1  0
 17 20  1  0
 19 20  1  0
 18 21  1  0
 21 22  1  0
 21 23  2  0
 22 24  1  0
 23 25  1  0
 23 26  1  0
 24 27  2  0
 25 27  1  0
 25 28  2  0
 26 29  2  0
 28 29  1  0
M  END
