mac-x0510-mac-x0398
     RDKit          3D

 14 15  0  0  0  0  0  0  0  0999 V2000
   -6.1950   14.9220    0.8750 O   0  0  0  0  0  0  0  0  0  0  0  0
   -5.0400   14.9510    0.4610 C   0  0  0  0  0  0  0  0  0  0  0  0
   -4.6650   15.0740   -0.8770 N   0  0  0  0  0  0  0  0  0  0  0  0
   -3.9970   14.8470    1.3680 N   0  0  0  0  0  0  0  0  0  0  0  0
   -5.7070   15.3660   -1.7970 O   0  0  0  0  0  0  0  0  0  0  0  0
   -2.7200   14.7920    0.9750 C   0  0  0  0  0  0  0  0  0  0  0  0
   -3.3630   15.0200   -1.3330 C   0  0  0  0  0  0  0  0  0  0  0  0
   -3.0680   15.1200   -2.7770 C   0  0  0  0  0  0  0  0  0  0  0  0
   -2.3800   14.8740   -0.4320 C   0  0  0  0  0  0  0  0  0  0  0  0
   -1.6480   14.6710    1.6900 N   0  0  0  0  0  0  0  0  0  0  0  0
   -3.9520   15.1320   -3.6230 O   0  0  0  0  0  0  0  0  0  0  0  0
   -1.7720   15.2010   -3.1240 O   0  0  0  0  0  0  0  0  0  0  0  0
   -1.0110   14.7870   -0.5200 N   0  0  0  0  0  0  0  0  0  0  0  0
   -0.6410   14.6800    0.7350 C   0  0  0  0  0  0  0  0  0  0  0  0
  1  2  2  0
  2  3  1  0
  2  4  1  0
  3  5  1  0
  4  6  1  0
  3  7  1  0
  7  8  1  0
  6  9  1  0
  7  9  2  0
  6 10  2  0
  8 11  2  0
  8 12  1  0
  9 13  1  0
 10 14  1  0
 13 14  2  0
M  END
