mac-x0412-mac-x0161
     RDKit          3D

 24 27  0  0  0  0  0  0  0  0999 V2000
   -7.2450   13.8440   -1.1060 O   0  0  0  0  0  0  0  0  0  0  0  0
   -6.3830   14.1490   -0.2860 C   0  0  0  0  0  0  0  0  0  0  0  0
   -6.6920   14.2360    1.0480 N   0  0  0  0  0  0  0  0  0  0  0  0
   -4.9240   14.4880   -0.5980 C   0  0  1  0  0  0  0  0  0  0  0  0
   -3.9120   14.0240    0.4820 C   0  0  2  0  0  0  0  0  0  0  0  0
   -5.7870   14.6060    2.0110 C   0  0  0  0  0  0  0  0  0  0  0  0
   -4.3740   14.2460   -2.0320 C   0  0  0  0  0  0  0  0  0  0  0  0
   -4.4620   14.5220    1.7970 C   0  0  0  0  0  0  0  0  0  0  0  0
   -2.4780   14.5880    0.0980 C   0  0  1  0  0  0  0  0  0  0  0  0
   -3.2660   15.3100   -2.2540 C   0  0  2  0  0  0  0  0  0  0  0  0
   -2.0530   15.0580   -3.2380 C   0  0  0  0  0  0  0  0  0  0  0  0
   -2.8640   15.7500   -0.8280 C   0  0  1  0  0  0  0  0  0  0  0  0
   -1.6560   15.1260    1.2400 N   0  0  0  0  0  0  0  0  0  0  0  0
   -1.4680   13.6820   -0.6090 C   0  0  0  0  0  0  0  0  0  0  0  0
   -4.1080   16.1830   -0.1500 N   0  0  0  0  0  0  0  0  0  0  0  0
   -1.5380   13.6710   -3.5230 C   0  0  0  0  0  0  0  0  0  0  0  0
   -0.2200   14.4220   -0.4250 N   0  0  0  0  0  0  0  0  0  0  0  0
   -0.2730   14.7380    0.9800 C   0  0  0  0  0  0  0  0  0  0  0  0
   -1.9860   12.6030   -4.2680 C   0  0  0  0  0  0  0  0  0  0  0  0
   -0.3390   13.3250   -2.9560 O   0  0  0  0  0  0  0  0  0  0  0  0
    0.0060   12.0310   -3.3240 N   0  0  0  0  0  0  0  0  0  0  0  0
   -0.9890   11.6230   -4.1050 C   0  0  0  0  0  0  0  0  0  0  0  0
   -0.9930   10.3910   -4.6620 O   0  0  0  0  0  0  0  0  0  0  0  0
   -1.5700   10.3380   -5.9590 C   0  0  0  0  0  0  0  0  0  0  0  0
  1  2  2  0
  2  3  1  0
  2  4  1  0
  4  5  1  0
  3  6  1  0
  4  7  1  6
  5  8  1  1
  6  8  2  0
  5  9  1  0
  7 10  1  0
 10 11  1  1
  9 12  1  0
 10 12  1  0
  9 13  1  0
  9 14  1  6
 12 15  1  1
 11 16  1  0
 14 17  1  0
 13 18  1  0
 17 18  1  0
 16 19  2  0
 16 20  1  0
 20 21  1  0
 19 22  1  0
 21 22  2  0
 22 23  1  0
 23 24  1  0
M  END
