mac-x0333-mac-x0115
     RDKit          3D

 25 28  0  0  0  0  0  0  0  0999 V2000
   -3.1240   16.4770   -2.8020 O   0  0  0  0  0  0  0  0  0  0  0  0
   -3.3970   15.3260   -2.0300 C   0  0  1  0  0  0  0  0  0  0  0  0
   -2.8510   15.5040   -0.5920 C   0  0  1  0  0  0  0  0  0  0  0  0
   -4.8820   14.9630   -2.0920 C   0  0  0  0  0  0  0  0  0  0  0  0
   -2.4950   14.3310   -2.7560 C   0  0  0  0  0  0  0  0  0  0  0  0
   -5.6430   15.4960   -0.8760 C   0  0  2  0  0  0  0  0  0  0  0  0
   -3.5820   14.5800    0.3810 C   0  0  0  0  0  0  0  0  0  0  0  0
   -1.3550   15.3150   -0.8430 C   0  0  2  0  0  0  0  0  0  0  0  0
   -1.2490   14.2370   -1.8850 C   0  0  2  0  0  0  0  0  0  0  0  0
   -5.0340   15.0700    0.4620 C   0  0  2  0  0  0  0  0  0  0  0  0
   -6.9790   14.9910   -0.8810 O   0  0  0  0  0  0  0  0  0  0  0  0
    0.0740   14.3270   -2.4830 N   0  0  0  0  0  0  0  0  0  0  0  0
   -0.4650   14.8480    0.2640 C   0  0  0  0  0  0  0  0  0  0  0  0
    0.2500   14.3260   -3.9660 C   0  0  0  0  0  0  0  0  0  0  0  0
   -0.7810   14.7610    1.4510 O   0  0  0  0  0  0  0  0  0  0  0  0
   -5.9080   14.0520    0.9400 O   0  0  0  0  0  0  0  0  0  0  0  0
   -7.1740   14.3660    0.3760 C   0  0  0  0  0  0  0  0  0  0  0  0
    1.1230   14.2790   -1.5730 C   0  0  0  0  0  0  0  0  0  0  0  0
    0.7700   14.4960   -0.2440 N   0  0  0  0  0  0  0  0  0  0  0  0
    0.5750   15.6810   -4.6290 C   0  0  0  0  0  0  0  0  0  0  0  0
    2.7270   13.9780   -1.9240 S   0  0  0  0  0  0  0  0  0  0  0  0
   -0.5870   16.3140   -5.1710 O   0  0  0  0  0  0  0  0  0  0  0  0
   -0.4220   17.6040   -5.7740 C   0  0  0  0  0  0  0  0  0  0  0  0
   -1.4230   18.5830   -5.2010 C   0  0  0  0  0  0  0  0  0  0  0  0
    1.0010   18.0710   -5.5160 C   0  0  0  0  0  0  0  0  0  0  0  0
  2  1  1  6
  2  3  1  0
  2  4  1  0
  2  5  1  0
  6  4  1  6
  3  7  1  1
  3  8  1  0
  9  5  1  6
  8  9  1  0
  6 10  1  0
 10  7  1  6
  6 11  1  0
  9 12  1  0
  8 13  1  1
 12 14  1  0
 13 15  2  0
 10 16  1  0
 11 17  1  0
 16 17  1  0
 12 18  1  0
 13 19  1  0
 18 19  1  0
 14 20  1  0
 18 21  2  0
 20 22  1  0
 22 23  1  0
 23 24  1  0
 23 25  1  0
M  END
