mac-x0282-mac-x0321
     RDKit          3D

 13 14  0  0  0  0  0  0  0  0999 V2000
   -4.7610   15.2590    1.8720 Cl  0  0  0  0  0  0  0  0  0  0  0  0
   -3.7080   15.0530    0.5540 N   0  0  0  0  0  0  0  0  0  0  0  0
   -4.1270   15.1270   -0.7520 C   0  0  0  0  0  0  0  0  0  0  0  0
   -2.3660   14.8000    0.6420 C   0  0  0  0  0  0  0  0  0  0  0  0
   -2.9920   14.9100   -1.5300 C   0  0  0  0  0  0  0  0  0  0  0  0
   -1.9370   14.7240   -0.6620 C   0  0  0  0  0  0  0  0  0  0  0  0
   -1.5820   14.6470    1.7310 N   0  0  0  0  0  0  0  0  0  0  0  0
   -2.7330   14.8490   -2.9470 C   0  0  0  0  0  0  0  0  0  0  0  0
   -0.6100   14.4910   -0.9340 C   0  0  0  0  0  0  0  0  0  0  0  0
   -0.2870   14.4240    1.4020 C   0  0  0  0  0  0  0  0  0  0  0  0
   -1.4060   14.7400   -3.1860 O   0  0  0  0  0  0  0  0  0  0  0  0
   -3.5070   14.8690   -3.8740 O   0  0  0  0  0  0  0  0  0  0  0  0
    0.2240   14.3420    0.1120 C   0  0  0  0  0  0  0  0  0  0  0  0
  1  2  1  0
  2  3  1  0
  2  4  1  0
  3  5  2  0
  4  6  2  0
  5  6  1  0
  4  7  1  0
  5  8  1  0
  6  9  1  0
  7 10  2  0
  8 11  1  0
  8 12  2  0
  9 13  2  0
 10 13  1  0
M  END
