mac-x0305-mac-x0344
     RDKit          3D

 21 22  0  0  0  0  0  0  0  0999 V2000
    0.2740   13.0400   -0.5560 O   0  0  0  0  0  0  0  0  0  0  0  0
   -0.4800   13.7660   -1.4460 C   0  0  0  0  0  0  0  0  0  0  0  0
   -0.1070   13.7570   -2.6930 N   0  0  0  0  0  0  0  0  0  0  0  0
   -1.6910   14.4340   -0.8410 C   0  0  0  0  0  0  0  0  0  0  0  0
    1.0260   13.0130   -3.2940 C   0  0  2  0  0  0  0  0  0  0  0  0
   -1.9350   14.7350    0.5250 C   0  0  0  0  0  0  0  0  0  0  0  0
   -2.6100   14.7310   -1.8080 N   0  0  0  0  0  0  0  0  0  0  0  0
   -1.1050   14.5000    1.5990 O   0  0  0  0  0  0  0  0  0  0  0  0
    1.8580   13.7120   -4.1980 O   0  0  0  0  0  0  0  0  0  0  0  0
    0.4390   11.6370   -3.8210 C   0  0  0  0  0  0  0  0  0  0  0  0
   -3.1590   15.3390    0.8440 C   0  0  0  0  0  0  0  0  0  0  0  0
   -3.7710   15.3170   -1.4520 C   0  0  0  0  0  0  0  0  0  0  0  0
    0.2450   10.7070   -3.0400 O   0  0  0  0  0  0  0  0  0  0  0  0
    0.1600   11.6160   -5.1940 N   0  0  0  0  0  0  0  0  0  0  0  0
   -4.0850   15.6340   -0.1510 C   0  0  0  0  0  0  0  0  0  0  0  0
   -0.6960   10.7070   -5.8600 C   0  0  0  0  0  0  0  0  0  0  0  0
   -0.2830   10.1930   -7.1040 C   0  0  0  0  0  0  0  0  0  0  0  0
   -1.9270   10.2920   -5.3450 C   0  0  0  0  0  0  0  0  0  0  0  0
   -1.0910    9.2880   -7.8040 C   0  0  0  0  0  0  0  0  0  0  0  0
   -2.7300    9.3880   -6.0500 C   0  0  0  0  0  0  0  0  0  0  0  0
   -2.3160    8.8850   -7.2760 C   0  0  0  0  0  0  0  0  0  0  0  0
  1  2  1  0
  2  3  2  3
  2  4  1  0
  3  5  1  0
  4  6  2  0
  4  7  1  0
  6  8  1  0
  5  9  1  6
  5 10  1  0
  6 11  1  0
  7 12  2  0
 10 13  2  0
 10 14  1  0
 11 15  2  0
 12 15  1  0
 14 16  1  0
 16 17  2  0
 16 18  1  0
 17 19  1  0
 18 20  2  0
 19 21  2  0
 20 21  1  0
M  END
