mac-x0321-mac-x0510
     RDKit          3D

 14 15  0  0  0  0  0  0  0  0999 V2000
   -4.5710   14.8130    1.5850 Cl  0  0  0  0  0  0  0  0  0  0  0  0
   -4.1640   15.6810    0.0940 C   0  0  1  0  0  0  0  0  0  0  0  0
   -2.8420   15.1570   -0.5910 C   0  0  1  0  0  0  0  0  0  0  0  0
   -5.4030   15.6450   -0.7800 C   0  0  0  0  0  0  0  0  0  0  0  0
   -2.9140   15.2280   -2.1470 C   0  0  1  0  0  0  0  0  0  0  0  0
   -5.4400   15.2430   -2.0440 C   0  0  0  0  0  0  0  0  0  0  0  0
   -1.6060   15.9740   -0.2790 N   0  0  0  0  0  0  0  0  0  0  0  0
   -2.3990   13.8420    0.0670 C   0  0  0  0  0  0  0  0  0  0  0  0
   -1.7520   14.5880   -2.8750 C   0  0  0  0  0  0  0  0  0  0  0  0
   -4.2390   14.7640   -2.7690 C   0  0  0  0  0  0  0  0  0  0  0  0
   -1.5070   14.2410    1.1580 N   0  0  0  0  0  0  0  0  0  0  0  0
   -0.6640   15.1650    0.4680 C   0  0  0  0  0  0  0  0  0  0  0  0
   -0.6240   14.5030   -2.1390 O   0  0  0  0  0  0  0  0  0  0  0  0
   -1.7930   14.1870   -4.0240 O   0  0  0  0  0  0  0  0  0  0  0  0
  2  1  1  1
  2  3  1  0
  2  4  1  0
  3  5  1  0
  4  6  2  0
  3  7  1  0
  3  8  1  6
  5  9  1  6
  5 10  1  0
  6 10  1  0
  8 11  1  0
  7 12  1  0
 11 12  1  0
  9 13  1  0
  9 14  2  0
M  END
