mac-x0223-mac-x0587
     RDKit          3D

 24 25  0  0  0  0  0  0  0  0999 V2000
    1.2390   18.4170   -5.5700 C   0  0  0  0  0  0  0  0  0  0  0  0
   -0.1700   18.3560   -5.5070 O   0  0  0  0  0  0  0  0  0  0  0  0
   -0.6430   17.0990   -5.3140 C   0  0  0  0  0  0  0  0  0  0  0  0
   -1.9540   16.8680   -5.6920 C   0  0  0  0  0  0  0  0  0  0  0  0
    0.0750   16.0690   -4.7740 C   0  0  0  0  0  0  0  0  0  0  0  0
   -2.6710   17.9000   -6.2170 O   0  0  0  0  0  0  0  0  0  0  0  0
   -2.5550   15.6120   -5.5580 C   0  0  0  0  0  0  0  0  0  0  0  0
   -0.4930   14.8060   -4.6020 C   0  0  0  0  0  0  0  0  0  0  0  0
    0.3900   13.8320   -3.9090 C   0  0  2  0  0  0  0  0  0  0  0  0
   -1.8110   14.5570   -5.0050 C   0  0  0  0  0  0  0  0  0  0  0  0
    0.0290   12.5540   -3.1010 C   0  0  1  0  0  0  0  0  0  0  0  0
    0.0710   14.8920   -2.8340 C   0  0  2  0  0  0  0  0  0  0  0  0
    0.1620   11.2670   -3.8370 N   0  0  0  0  0  0  0  0  0  0  0  0
    0.7650   12.5420   -1.8520 O   0  0  0  0  0  0  0  0  0  0  0  0
    0.8410   14.8010   -1.5520 C   0  0  0  0  0  0  0  0  0  0  0  0
   -1.5070   15.0030   -2.7500 C   0  0  0  0  0  0  0  0  0  0  0  0
   -2.1590   15.4580   -3.6920 O   0  0  0  0  0  0  0  0  0  0  0  0
    0.3850   10.3470   -3.0400 O   0  0  0  0  0  0  0  0  0  0  0  0
   -2.2270   14.6250   -1.6430 N   0  0  0  0  0  0  0  0  0  0  0  0
   -3.6810   14.7660   -1.5770 C   0  0  0  0  0  0  0  0  0  0  0  0
   -1.7290   14.6880   -0.3360 C   0  0  0  0  0  0  0  0  0  0  0  0
   -0.5900   14.7210    0.0500 O   0  0  0  0  0  0  0  0  0  0  0  0
   -3.9770   15.1450   -0.1440 C   0  0  0  0  0  0  0  0  0  0  0  0
   -2.8060   14.7180    0.5440 N   0  0  0  0  0  0  0  0  0  0  0  0
  1  2  1  0
  2  3  1  0
  3  4  2  0
  3  5  1  0
  4  6  1  0
  4  7  1  0
  5  8  2  0
  9  8  1  6
  7 10  2  0
  8 10  1  0
  9 11  1  0
  9 12  1  0
 11 13  1  0
 11 14  1  1
 12 15  1  1
 12 16  1  0
 16 17  2  0
 13 18  2  0
 16 19  1  0
 19 20  1  0
 19 21  1  0
 21 22  2  0
 20 23  1  0
 21 24  1  0
 23 24  1  0
M  END
