mac-x0357-mac-x0379
     RDKit          3D

 19 20  0  0  0  0  0  0  0  0999 V2000
    2.4620   13.1200   -4.6650 C   0  0  0  0  0  0  0  0  0  0  0  0
    1.1250   12.4840   -4.9110 C   0  0  0  0  0  0  0  0  0  0  0  0
    0.8410   11.8020   -6.0990 C   0  0  0  0  0  0  0  0  0  0  0  0
    0.1030   12.5420   -3.9570 C   0  0  0  0  0  0  0  0  0  0  0  0
    1.7440   11.6690   -7.0970 O   0  0  0  0  0  0  0  0  0  0  0  0
    0.2980   13.2370   -2.6850 C   0  0  0  0  0  0  0  0  0  0  0  0
   -1.1500   11.9410   -4.1780 C   0  0  0  0  0  0  0  0  0  0  0  0
   -0.3940   11.2050   -6.3360 C   0  0  0  0  0  0  0  0  0  0  0  0
   -0.2830   14.2760   -2.2250 N   0  0  0  0  0  0  0  0  0  0  0  0
    1.2450   12.6570   -1.9350 O   0  0  0  0  0  0  0  0  0  0  0  0
   -1.3950   11.2720   -5.3750 C   0  0  0  0  0  0  0  0  0  0  0  0
   -1.2390   14.8070   -3.0450 C   0  0  0  0  0  0  0  0  0  0  0  0
   -1.0350   15.1490   -4.2050 O   0  0  0  0  0  0  0  0  0  0  0  0
   -2.5160   14.9120   -2.3830 C   0  0  0  0  0  0  0  0  0  0  0  0
   -3.7330   15.1360   -2.9820 C   0  0  0  0  0  0  0  0  0  0  0  0
   -2.7380   14.7730   -0.6860 S   0  0  0  0  0  0  0  0  0  0  0  0
   -4.4170   15.0260   -0.8940 C   0  0  0  0  0  0  0  0  0  0  0  0
   -4.8170   15.1990   -2.1320 N   0  0  0  0  0  0  0  0  0  0  0  0
   -5.3170   15.0350    0.2860 C   0  0  0  0  0  0  0  0  0  0  0  0
  1  2  1  0
  2  3  2  0
  2  4  1  0
  3  5  1  0
  4  6  1  0
  4  7  2  0
  3  8  1  0
  6  9  2  3
  6 10  1  0
  7 11  1  0
  8 11  2  0
  9 12  1  0
 12 13  2  0
 12 14  1  0
 14 15  2  0
 14 16  1  0
 16 17  1  0
 15 18  1  0
 17 18  2  0
 17 19  1  0
M  END
