mac-x0115-mac-x0277
     RDKit          3D

 25 27  0  0  0  0  0  0  0  0999 V2000
   -1.2490   18.3240   -5.6210 C   0  0  0  0  0  0  0  0  0  0  0  0
   -0.0740   18.0170   -6.4800 C   0  0  1  0  0  0  0  0  0  0  0  0
    1.1920   18.6860   -6.0110 C   0  0  0  0  0  0  0  0  0  0  0  0
   -1.0900   17.1040   -4.7910 C   0  0  0  0  0  0  0  0  0  0  0  0
    0.0400   16.6240   -6.1740 O   0  0  0  0  0  0  0  0  0  0  0  0
   -1.9400   15.9930   -4.8380 C   0  0  0  0  0  0  0  0  0  0  0  0
    0.0150   17.1040   -3.9320 C   0  0  0  0  0  0  0  0  0  0  0  0
    1.1370   16.2310   -5.3750 C   0  0  0  0  0  0  0  0  0  0  0  0
   -3.3110   15.8570   -5.8630 Cl  0  0  0  0  0  0  0  0  0  0  0  0
   -1.6970   14.9220   -4.0100 C   0  0  0  0  0  0  0  0  0  0  0  0
    0.2340   16.0160   -3.1180 C   0  0  0  0  0  0  0  0  0  0  0  0
   -0.6210   14.9660   -3.1510 C   0  0  0  0  0  0  0  0  0  0  0  0
   -0.4490   13.9340   -2.2510 N   0  0  0  0  0  0  0  0  0  0  0  0
    0.6990   14.0750   -1.4600 C   0  0  0  0  0  0  0  0  0  0  0  0
   -1.6330   14.2210   -1.6020 C   0  0  0  0  0  0  0  0  0  0  0  0
    2.2780   13.5890   -1.9450 S   0  0  0  0  0  0  0  0  0  0  0  0
    0.6350   14.6530   -0.2060 N   0  0  0  0  0  0  0  0  0  0  0  0
   -1.6210   15.2340   -0.5110 C   0  0  2  0  0  0  0  0  0  0  0  0
   -2.8650   13.7800   -1.8270 C   0  0  0  0  0  0  0  0  0  0  0  0
    1.8380   12.7800   -3.4030 C   0  0  0  0  0  0  0  0  0  0  0  0
   -0.5690   14.8320    0.4750 C   0  0  0  0  0  0  0  0  0  0  0  0
   -3.0200   15.3440   -0.0500 N   0  0  0  0  0  0  0  0  0  0  0  0
   -3.6380   14.5240   -0.8330 C   0  0  0  0  0  0  0  0  0  0  0  0
   -0.7110   14.6750    1.6950 O   0  0  0  0  0  0  0  0  0  0  0  0
    0.5630   12.6170   -3.7820 O   0  0  0  0  0  0  0  0  0  0  0  0
  1  2  1  0
  2  3  1  1
  1  4  1  0
  2  5  1  0
  4  6  2  0
  4  7  1  0
  5  8  1  0
  6  9  1  0
  6 10  1  0
  7 11  2  0
 10 12  2  0
 11 12  1  0
 12 13  1  0
 13 14  1  0
 13 15  1  0
 14 16  2  0
 14 17  1  0
 15 18  1  0
 15 19  2  0
 16 20  2  0
 17 21  1  0
 18 21  1  0
 18 22  1  1
 19 23  1  0
 22 23  2  0
 21 24  2  0
 20 25  1  0
M  END
