mac-x0455-mac-x0263
     RDKit          3D

 28 30  0  0  0  0  0  0  0  0999 V2000
   -1.8970   13.6680   -2.1230 C   0  0  0  0  0  0  0  0  0  0  0  0
   -0.7940   13.9890   -3.1460 C   0  0  1  0  0  0  0  0  0  0  0  0
   -1.0070   15.2550   -3.7840 O   0  0  0  0  0  0  0  0  0  0  0  0
    0.5770   14.0380   -2.4270 C   0  0  0  0  0  0  0  0  0  0  0  0
   -0.8180   12.8850   -4.2290 C   0  0  0  0  0  0  0  0  0  0  0  0
    1.4240   14.9100   -2.5070 O   0  0  0  0  0  0  0  0  0  0  0  0
    0.8270   12.9910   -1.6130 O   0  0  0  0  0  0  0  0  0  0  0  0
   -1.9190   16.1350   -3.1620 C   0  0  0  0  0  0  0  0  0  0  0  0
   -1.8950   11.9820   -4.3070 C   0  0  0  0  0  0  0  0  0  0  0  0
    0.2250   12.7370   -5.1700 C   0  0  0  0  0  0  0  0  0  0  0  0
   -3.3340   15.5840   -3.2010 C   0  0  0  0  0  0  0  0  0  0  0  0
   -1.9340   10.9750   -5.2750 C   0  0  0  0  0  0  0  0  0  0  0  0
    0.1860   11.7280   -6.1380 C   0  0  0  0  0  0  0  0  0  0  0  0
   -0.8920   10.8490   -6.1880 C   0  0  0  0  0  0  0  0  0  0  0  0
   -4.0390   15.4070   -1.8650 C   0  0  0  0  0  0  0  0  0  0  0  0
   -5.4180   15.1430   -1.9060 C   0  0  0  0  0  0  0  0  0  0  0  0
   -3.3690   15.4810   -0.6240 C   0  0  0  0  0  0  0  0  0  0  0  0
   -6.0730   14.9450   -0.6980 C   0  0  0  0  0  0  0  0  0  0  0  0
   -4.0620   15.2770    0.5850 C   0  0  0  0  0  0  0  0  0  0  0  0
   -7.3800   14.6690   -0.4020 N   0  0  0  0  0  0  0  0  0  0  0  0
   -5.4370   14.9990    0.5310 C   0  0  0  0  0  0  0  0  0  0  0  0
   -7.4970   14.5640    0.9580 C   0  0  0  0  0  0  0  0  0  0  0  0
   -6.3340   14.7560    1.5410 N   0  0  0  0  0  0  0  0  0  0  0  0
   -8.7940   14.2810    1.6300 C   0  0  0  0  0  0  0  0  0  0  0  0
   -9.5120   15.5880    1.9470 C   0  0  0  0  0  0  0  0  0  0  0  0
  -10.7640   15.4200    2.7600 C   0  0  0  0  0  0  0  0  0  0  0  0
  -11.4430   14.2990    2.4510 O   0  0  0  0  0  0  0  0  0  0  0  0
  -11.1770   16.1800    3.6190 O   0  0  0  0  0  0  0  0  0  0  0  0
  2  1  1  1
  2  3  1  0
  2  4  1  0
  2  5  1  0
  4  6  2  0
  4  7  1  0
  3  8  1  0
  5  9  2  0
  5 10  1  0
  8 11  1  0
  9 12  1  0
 10 13  2  0
 12 14  2  0
 13 14  1  0
 11 15  1  0
 15 16  2  0
 15 17  1  0
 16 18  1  0
 17 19  2  0
 18 20  1  0
 18 21  2  0
 19 21  1  0
 20 22  1  0
 21 23  1  0
 22 23  2  0
 22 24  1  0
 24 25  1  0
 25 26  1  0
 26 27  1  0
 26 28  2  0
M  END
