mac-x0411-mac-x0142
     RDKit          3D

 30 34  0  0  0  0  0  0  0  0999 V2000
    0.8030    9.0400   -7.7510 Cl  0  0  0  0  0  0  0  0  0  0  0  0
   -0.5950    9.5700   -6.8770 C   0  0  0  0  0  0  0  0  0  0  0  0
   -0.6120   10.5800   -5.8680 C   0  0  0  0  0  0  0  0  0  0  0  0
   -1.7720    8.9160   -7.2410 C   0  0  0  0  0  0  0  0  0  0  0  0
    0.5440   11.2370   -5.4620 O   0  0  0  0  0  0  0  0  0  0  0  0
   -1.8650   10.8840   -5.2920 C   0  0  0  0  0  0  0  0  0  0  0  0
   -2.9810    9.2340   -6.6440 C   0  0  0  0  0  0  0  0  0  0  0  0
   -2.1130   12.0820   -4.0830 Cl  0  0  0  0  0  0  0  0  0  0  0  0
    0.4040   11.7960   -4.1240 C   0  0  1  0  0  0  0  0  0  0  0  0
   -3.0250   10.2180   -5.6760 C   0  0  0  0  0  0  0  0  0  0  0  0
    0.4650   10.9960   -2.8350 C   0  0  0  0  0  0  0  0  0  0  0  0
    1.3200   12.9140   -3.8580 C   0  0  1  0  0  0  0  0  0  0  0  0
    0.7330   11.7740   -1.7480 O   0  0  0  0  0  0  0  0  0  0  0  0
    0.3190    9.8270   -2.6730 O   0  0  0  0  0  0  0  0  0  0  0  0
    2.1400   13.6730   -4.7950 C   0  0  0  0  0  0  0  0  0  0  0  0
    0.7640   14.1800   -4.4130 C   0  0  1  0  0  0  0  0  0  0  0  0
   -0.3430   13.8690   -5.3790 C   0  0  0  0  0  0  0  0  0  0  0  0
    0.4460   15.2320   -3.3750 C   0  0  0  0  0  0  0  0  0  0  0  0
   -1.6640   14.5790   -5.0980 C   0  0  0  0  0  0  0  0  0  0  0  0
   -0.8280   14.8190   -2.7310 N   0  0  0  0  0  0  0  0  0  0  0  0
   -1.9980   14.7370   -3.6230 C   0  0  0  0  0  0  0  0  0  0  0  0
   -1.0830   14.8110   -1.3460 C   0  0  0  0  0  0  0  0  0  0  0  0
   -0.0830   14.6760   -0.3970 N   0  0  0  0  0  0  0  0  0  0  0  0
   -2.3240   14.9600   -0.8230 C   0  0  0  0  0  0  0  0  0  0  0  0
   -0.3530   14.6370    0.9520 C   0  0  0  0  0  0  0  0  0  0  0  0
   -2.5210   14.9620    0.6480 C   0  0  0  0  0  0  0  0  0  0  0  0
   -3.6500   15.1650   -1.3180 C   0  0  0  0  0  0  0  0  0  0  0  0
   -1.5020   14.7510    1.5200 N   0  0  0  0  0  0  0  0  0  0  0  0
   -3.7560   15.2000    0.9820 N   0  0  0  0  0  0  0  0  0  0  0  0
   -4.4160   15.3130   -0.2290 C   0  0  0  0  0  0  0  0  0  0  0  0
  1  2  1  0
  2  3  2  0
  2  4  1  0
  3  5  1  0
  3  6  1  0
  4  7  2  0
  6  8  1  0
  9  5  1  6
  6 10  2  0
  7 10  1  0
  9 11  1  0
  9 12  1  0
 11 13  1  0
 11 14  2  0
 12 15  1  6
 12 16  1  0
 16 15  1  6
 16 17  1  0
 16 18  1  0
 17 19  1  0
 18 20  1  0
 19 21  1  0
 20 21  1  0
 20 22  1  0
 22 23  1  0
 22 24  2  0
 23 25  1  0
 24 26  1  0
 24 27  1  0
 25 28  2  0
 26 28  1  0
 26 29  2  0
 27 30  2  0
 29 30  1  0
M  END
