mac-x0284-mac-x0441
     RDKit          3D

 29 31  0  0  0  0  0  0  0  0999 V2000
   -3.9030   15.3470    0.8280 C   0  0  0  0  0  0  0  0  0  0  0  0
   -3.4770   15.1750   -0.5980 C   0  0  0  0  0  0  0  0  0  0  0  0
   -4.4090   15.3090   -1.6320 C   0  0  0  0  0  0  0  0  0  0  0  0
   -2.1350   14.8840   -0.9230 C   0  0  0  0  0  0  0  0  0  0  0  0
   -1.7460   14.7460   -2.2680 C   0  0  0  0  0  0  0  0  0  0  0  0
   -4.0200   15.1590   -2.9590 C   0  0  0  0  0  0  0  0  0  0  0  0
   -0.3370   14.4660   -2.6130 C   0  0  0  0  0  0  0  0  0  0  0  0
   -2.6970   14.8840   -3.2740 C   0  0  0  0  0  0  0  0  0  0  0  0
   -2.4310   14.7680   -4.6100 O   0  0  0  0  0  0  0  0  0  0  0  0
    0.6050   14.3950   -1.8330 O   0  0  0  0  0  0  0  0  0  0  0  0
   -0.3380   14.3280   -3.9730 O   0  0  0  0  0  0  0  0  0  0  0  0
    0.8680   14.0510   -4.7130 C   0  0  0  0  0  0  0  0  0  0  0  0
    1.1010   12.5430   -4.7400 C   0  0  1  0  0  0  0  0  0  0  0  0
    0.8710   11.9600   -3.3600 C   0  0  0  0  0  0  0  0  0  0  0  0
    0.5260   11.6960   -5.8060 N   0  0  0  0  0  0  0  0  0  0  0  0
    0.3110   10.7290   -3.3330 O   0  0  0  0  0  0  0  0  0  0  0  0
    1.1810   12.5380   -2.3280 O   0  0  0  0  0  0  0  0  0  0  0  0
    1.2410   11.6810   -6.9740 N   0  0  0  0  0  0  0  0  0  0  0  0
   -0.5900   10.8810   -5.9000 C   0  0  0  0  0  0  0  0  0  0  0  0
    0.5790   10.8400   -7.8070 C   0  0  0  0  0  0  0  0  0  0  0  0
   -0.5590   10.3300   -7.1670 C   0  0  0  0  0  0  0  0  0  0  0  0
   -1.6590   10.5800   -4.8970 C   0  0  0  0  0  0  0  0  0  0  0  0
    0.9590   10.4610   -9.2260 C   0  0  0  0  0  0  0  0  0  0  0  0
   -1.5690    9.3750   -7.6980 C   0  0  0  0  0  0  0  0  0  0  0  0
   -2.8510    9.8680   -5.5820 C   0  0  0  0  0  0  0  0  0  0  0  0
    1.6060    9.2650   -9.2560 F   0  0  0  0  0  0  0  0  0  0  0  0
   -0.1410   10.2930   -9.9940 F   0  0  0  0  0  0  0  0  0  0  0  0
    1.7070   11.3330   -9.9200 F   0  0  0  0  0  0  0  0  0  0  0  0
   -2.3940    8.7710   -6.5540 C   0  0  0  0  0  0  0  0  0  0  0  0
  1  2  1  0
  2  3  2  0
  2  4  1  0
  4  5  2  0
  3  6  1  0
  5  7  1  0
  5  8  1  0
  6  8  2  0
  8  9  1  0
  7 10  2  0
  7 11  1  0
 11 12  1  0
 13 12  1  1
 13 14  1  0
 13 15  1  0
 14 16  1  0
 14 17  2  0
 15 18  1  0
 15 19  1  0
 18 20  2  0
 19 21  2  0
 20 21  1  0
 19 22  1  0
 20 23  1  0
 21 24  1  0
 22 25  1  0
 23 26  1  0
 23 27  1  0
 23 28  1  0
 24 29  1  0
 25 29  1  0
M  END
