mac-x0451-mac-x0433
     RDKit          3D

 14 15  0  0  0  0  0  0  0  0999 V2000
   -6.3270   14.8730    2.7890 N   0  0  0  0  0  0  0  0  0  0  0  0
   -6.0320   14.0150    1.6760 C   0  0  1  0  0  0  0  0  0  0  0  0
   -6.4170   14.7480    0.4830 N   0  0  0  0  0  0  0  0  0  0  0  0
   -4.2680   13.5880    1.5810 S   0  0  0  0  0  0  0  0  0  0  0  0
   -7.8110   14.5580    0.1140 C   0  0  0  0  0  0  0  0  0  0  0  0
   -5.3540   14.8970   -0.5180 C   0  0  2  0  0  0  0  0  0  0  0  0
   -3.9540   14.8220    0.2850 C   0  0  1  0  0  0  0  0  0  0  0  0
   -3.6170   16.0270    1.1530 C   0  0  0  0  0  0  0  0  0  0  0  0
   -5.5890   16.1370   -1.2360 N   0  0  0  0  0  0  0  0  0  0  0  0
   -5.3160   14.0680   -1.7630 C   0  0  0  0  0  0  0  0  0  0  0  0
   -2.7270   14.5670   -0.6060 C   0  0  0  0  0  0  0  0  0  0  0  0
   -4.2080   14.1070   -2.5100 C   0  0  0  0  0  0  0  0  0  0  0  0
   -3.0560   14.9340   -2.0550 C   0  0  2  0  0  0  0  0  0  0  0  0
   -1.9490   14.7830   -2.8400 F   0  0  0  0  0  0  0  0  0  0  0  0
  2  1  1  1
  2  3  1  0
  2  4  1  0
  3  5  1  0
  3  6  1  0
  4  7  1  0
  6  7  1  0
  7  8  1  1
  6  9  1  6
  6 10  1  0
  7 11  1  0
 10 12  2  0
 11 13  1  0
 12 13  1  0
 13 14  1  6
M  END
