mac-x0392-diamond-x0421_0_A
     RDKit          3D

 14 15  0  0  0  0  0  0  0  0999 V2000
    0.0860   14.6310    0.0030 N   0  0  0  0  0  0  0  0  0  0  0  0
   -1.3640   14.3230   -0.0000 C   0  0  1  0  0  0  0  0  0  0  0  0
   -1.9800   14.6220    1.3730 C   0  0  0  0  0  0  0  0  0  0  0  0
   -2.0850   15.1040   -1.1080 C   0  0  1  0  0  0  0  0  0  0  0  0
   -1.3090   14.9060   -2.4100 C   0  0  0  0  0  0  0  0  0  0  0  0
   -3.6070   14.7700   -1.1520 C   0  0  0  0  0  0  0  0  0  0  0  0
   -3.3540   15.1590    1.3340 N   0  0  0  0  0  0  0  0  0  0  0  0
   -1.7730   15.0680   -3.5890 N   0  0  0  0  0  0  0  0  0  0  0  0
   -0.0280   14.5360   -2.2080 O   0  0  0  0  0  0  0  0  0  0  0  0
   -4.2320   14.6770    0.2460 C   0  0  0  0  0  0  0  0  0  0  0  0
   -5.7420   14.8760    0.4590 C   0  0  0  0  0  0  0  0  0  0  0  0
   -5.1770   13.5050    0.5610 C   0  0  0  0  0  0  0  0  0  0  0  0
   -3.1330   15.4810   -3.8110 C   0  0  0  0  0  0  0  0  0  0  0  0
   -4.0720   14.3910   -3.6560 N   0  0  0  0  0  0  0  0  0  0  0  0
  2  1  1  1
  2  3  1  0
  2  4  1  0
  4  5  1  6
  4  6  1  0
  3  7  1  0
  5  8  2  3
  5  9  1  0
  6 10  1  0
 10  7  1  0
 10 11  1  0
 10 12  1  0
 11 12  1  0
  8 13  1  0
 13 14  1  0
M  END
