mac-x0115-diamond-x1018_0_A
     RDKit          3D

 23 25  0  0  0  0  0  0  0  0999 V2000
   -1.4090   18.6440   -5.2010 C   0  0  0  0  0  0  0  0  0  0  0  0
   -0.4130   17.6750   -5.7860 C   0  0  0  0  0  0  0  0  0  0  0  0
    1.0130   18.0980   -5.4950 C   0  0  0  0  0  0  0  0  0  0  0  0
   -0.6050   16.3610   -5.2510 O   0  0  0  0  0  0  0  0  0  0  0  0
    0.5340   15.7550   -4.6320 C   0  0  0  0  0  0  0  0  0  0  0  0
    0.0800   14.5230   -3.8240 C   0  0  0  0  0  0  0  0  0  0  0  0
   -0.2060   14.7860   -2.3820 N   0  0  0  0  0  0  0  0  0  0  0  0
    0.7770   14.4400   -1.4500 C   0  0  0  0  0  0  0  0  0  0  0  0
   -1.6030   14.6680   -1.9200 C   0  0  1  0  0  0  0  0  0  0  0  0
    2.3980   14.1230   -1.7890 S   0  0  0  0  0  0  0  0  0  0  0  0
    0.3850   14.3280   -0.1220 N   0  0  0  0  0  0  0  0  0  0  0  0
   -1.8480   15.1580   -0.5130 C   0  0  2  0  0  0  0  0  0  0  0  0
   -2.6270   15.5990   -2.5150 C   0  0  0  0  0  0  0  0  0  0  0  0
   -0.8350   14.6420    0.4570 C   0  0  0  0  0  0  0  0  0  0  0  0
   -3.4020   14.9860   -0.3710 C   0  0  1  0  0  0  0  0  0  0  0  0
   -3.6480   15.7680   -1.6250 C   0  0  0  0  0  0  0  0  0  0  0  0
   -1.0430   14.5220    1.6700 O   0  0  0  0  0  0  0  0  0  0  0  0
   -4.1120   13.7190   -0.6880 N   0  0  0  0  0  0  0  0  0  0  0  0
   -3.9920   15.5610    0.9120 C   0  0  0  0  0  0  0  0  0  0  0  0
   -5.5820   13.9850   -0.6900 N   0  0  0  0  0  0  0  0  0  0  0  0
   -5.1900   15.1470    1.4050 C   0  0  0  0  0  0  0  0  0  0  0  0
   -6.0250   14.1160    0.7070 C   0  0  1  0  0  0  0  0  0  0  0  0
   -7.7530   14.5520    0.6610 Cl  0  0  0  0  0  0  0  0  0  0  0  0
  1  2  1  0
  2  3  1  0
  2  4  1  0
  4  5  1  0
  5  6  1  0
  6  7  1  0
  7  8  1  0
  7  9  1  0
  8 10  2  0
  8 11  1  0
  9 12  1  0
  9 13  1  6
 11 14  1  0
 12 14  1  1
 12 15  1  0
 13 16  2  0
 15 16  1  6
 14 17  2  0
 15 18  1  0
 15 19  1  0
 18 20  1  0
 19 21  2  0
 20 22  1  0
 21 22  1  0
 22 23  1  6
M  END
