mac-x0344-mac-x0226
     RDKit          3D

 24 26  0  0  0  0  0  0  0  0999 V2000
    1.2220   14.6750   -3.7330 O   0  0  0  0  0  0  0  0  0  0  0  0
    0.6080   13.7570   -2.9540 C   0  0  0  0  0  0  0  0  0  0  0  0
    0.6220   13.8560   -1.7480 O   0  0  0  0  0  0  0  0  0  0  0  0
    0.0130   12.6520   -3.7700 C   0  0  1  0  0  0  0  0  0  0  0  0
    0.2500   11.2540   -3.4400 C   0  0  0  0  0  0  0  0  0  0  0  0
   -1.1670   12.7300   -4.6920 N   0  0  0  0  0  0  0  0  0  0  0  0
    0.2120   10.5710   -2.3850 O   0  0  0  0  0  0  0  0  0  0  0  0
   -1.6450   11.5850   -5.4390 C   0  0  0  0  0  0  0  0  0  0  0  0
    0.5470   11.0080   -4.8280 C   0  0  1  0  0  0  0  0  0  0  0  0
   -1.3600   11.4650   -6.8250 C   0  0  0  0  0  0  0  0  0  0  0  0
   -2.4010   10.5380   -4.8920 C   0  0  0  0  0  0  0  0  0  0  0  0
    1.8480   11.6770   -5.2090 C   0  0  0  0  0  0  0  0  0  0  0  0
    0.4660    9.6890   -5.4360 C   0  0  0  0  0  0  0  0  0  0  0  0
   -1.8150   10.3750   -7.5910 C   0  0  0  0  0  0  0  0  0  0  0  0
   -2.8530    9.4480   -5.6560 C   0  0  0  0  0  0  0  0  0  0  0  0
    2.0670   11.1440   -6.5240 N   0  0  0  0  0  0  0  0  0  0  0  0
    1.1020   10.1230   -6.6780 N   0  0  0  0  0  0  0  0  0  0  0  0
   -2.5630    9.3640   -7.0070 C   0  0  0  0  0  0  0  0  0  0  0  0
    0.5010    9.9560   -7.9010 C   0  0  0  0  0  0  0  0  0  0  0  0
   -0.4700    8.9890   -8.1190 C   0  0  0  0  0  0  0  0  0  0  0  0
    0.8490   10.7640   -8.9820 C   0  0  0  0  0  0  0  0  0  0  0  0
   -1.0740    8.8350   -9.3700 C   0  0  0  0  0  0  0  0  0  0  0  0
    0.2650   10.6260  -10.2310 C   0  0  0  0  0  0  0  0  0  0  0  0
   -0.7030    9.6570  -10.4280 C   0  0  0  0  0  0  0  0  0  0  0  0
  1  2  1  0
  2  3  2  0
  2  4  1  0
  4  5  1  0
  4  6  1  1
  5  7  2  0
  6  8  1  0
  9  5  1  1
  8 10  2  0
  8 11  1  0
  9 12  1  0
  9 13  1  0
 10 14  1  0
 11 15  2  0
 12 16  1  0
 13 17  1  0
 16 17  1  0
 14 18  2  0
 15 18  1  0
 17 19  1  0
 19 20  2  0
 19 21  1  0
 20 22  1  0
 21 23  2  0
 22 24  2  0
 23 24  1  0
M  END
