mac-x0306-mac-x0404
     RDKit          3D

 27 30  0  0  0  0  0  0  0  0999 V2000
    1.3560   12.9800   -2.1250 O   0  0  0  0  0  0  0  0  0  0  0  0
    1.2440   12.2090   -3.2220 C   0  0  0  0  0  0  0  0  0  0  0  0
    0.5680   11.1900   -3.1680 O   0  0  0  0  0  0  0  0  0  0  0  0
    2.0200   12.7100   -4.4540 C   0  0  0  0  0  0  0  0  0  0  0  0
    1.6490   13.9460   -5.0320 O   0  0  0  0  0  0  0  0  0  0  0  0
    0.3750   14.3460   -4.8340 C   0  0  0  0  0  0  0  0  0  0  0  0
    0.0870   15.7200   -5.0190 C   0  0  0  0  0  0  0  0  0  0  0  0
   -0.6080   13.4520   -4.4590 C   0  0  0  0  0  0  0  0  0  0  0  0
   -1.2070   16.1880   -4.7960 C   0  0  0  0  0  0  0  0  0  0  0  0
   -1.8690   13.9050   -4.2310 C   0  0  0  0  0  0  0  0  0  0  0  0
    1.0550   16.6400   -5.4160 C   0  0  0  0  0  0  0  0  0  0  0  0
   -2.1640   15.2410   -4.3790 C   0  0  0  0  0  0  0  0  0  0  0  0
   -1.4690   17.5660   -4.9950 C   0  0  0  0  0  0  0  0  0  0  0  0
    0.7950   17.9910   -5.6070 C   0  0  0  0  0  0  0  0  0  0  0  0
   -3.5150   15.6660   -4.0640 C   0  0  0  0  0  0  0  0  0  0  0  0
   -0.4850   18.4570   -5.3970 C   0  0  0  0  0  0  0  0  0  0  0  0
   -4.0000   15.1320   -2.7630 N   0  0  0  0  0  0  0  0  0  0  0  0
   -5.2940   14.7090   -2.8400 C   0  0  0  0  0  0  0  0  0  0  0  0
   -3.5830   15.6100   -1.4940 C   0  0  0  0  0  0  0  0  0  0  0  0
   -6.0120   14.3500   -1.8000 C   0  0  0  0  0  0  0  0  0  0  0  0
   -4.2360   15.2950   -0.3410 C   0  0  0  0  0  0  0  0  0  0  0  0
   -5.4520   14.3710   -0.4030 C   0  0  0  0  0  0  0  0  0  0  0  0
   -6.6270   14.5770    0.5190 C   0  0  0  0  0  0  0  0  0  0  0  0
   -6.5850   14.5000    1.8930 N   0  0  0  0  0  0  0  0  0  0  0  0
   -7.8570   14.8420    0.1150 N   0  0  0  0  0  0  0  0  0  0  0  0
   -8.6150   14.9370    1.2450 C   0  0  0  0  0  0  0  0  0  0  0  0
   -7.8470   14.7300    2.3610 C   0  0  0  0  0  0  0  0  0  0  0  0
  1  2  1  0
  2  3  2  0
  2  4  1  0
  4  5  1  0
  5  6  1  0
  6  7  2  0
  6  8  1  0
  7  9  1  0
  8 10  2  0
  7 11  1  0
  9 12  2  0
 10 12  1  0
  9 13  1  0
 11 14  2  0
 12 15  1  0
 13 16  2  0
 14 16  1  0
 15 17  1  0
 17 18  1  0
 17 19  1  0
 18 20  2  0
 19 21  2  0
 20 22  1  0
 21 22  1  0
 22 23  1  0
 23 24  1  0
 23 25  2  0
 25 26  1  0
 24 27  1  0
 26 27  2  0
M  END
