mac-x0348-diamond-x0282_0_A
     RDKit          3D

 30 33  0  0  0  0  0  0  0  0999 V2000
   -0.1190   19.0590   -6.5050 C   0  0  0  0  0  0  0  0  0  0  0  0
   -0.2330   17.7970   -5.8350 N   0  0  0  0  0  0  0  0  0  0  0  0
    0.7860   17.2030   -5.2060 C   0  0  0  0  0  0  0  0  0  0  0  0
   -1.3520   17.0370   -5.7480 C   0  0  0  0  0  0  0  0  0  0  0  0
    0.3820   16.0030   -4.6850 C   0  0  0  0  0  0  0  0  0  0  0  0
   -1.0130   15.8860   -5.0240 C   0  0  0  0  0  0  0  0  0  0  0  0
   -2.6260   17.2610   -6.2520 C   0  0  0  0  0  0  0  0  0  0  0  0
    1.2920   15.0750   -3.9370 C   0  0  0  0  0  0  0  0  0  0  0  0
   -2.0220   14.9270   -4.8020 C   0  0  0  0  0  0  0  0  0  0  0  0
   -3.5930   16.2840   -6.0180 C   0  0  0  0  0  0  0  0  0  0  0  0
    1.4470   13.6760   -4.5670 C   0  0  0  0  0  0  0  0  0  0  0  0
   -3.3040   15.1420   -5.3070 C   0  0  0  0  0  0  0  0  0  0  0  0
    0.7310   12.7860   -3.6480 C   0  0  0  0  0  0  0  0  0  0  0  0
    0.2670   13.2210   -2.6020 N   0  0  0  0  0  0  0  0  0  0  0  0
    0.5450   11.4910   -3.9380 O   0  0  0  0  0  0  0  0  0  0  0  0
   -0.4820   12.4430   -1.7160 C   0  0  0  0  0  0  0  0  0  0  0  0
   -0.8390   13.3510   -0.5940 C   0  0  0  0  0  0  0  0  0  0  0  0
   -2.0840   13.7450   -0.4740 N   0  0  0  0  0  0  0  0  0  0  0  0
    0.1240   13.7360    0.2570 C   0  0  0  0  0  0  0  0  0  0  0  0
   -0.2460   14.5310    1.2830 C   0  0  0  0  0  0  0  0  0  0  0  0
   -2.3880   14.5300    0.5380 C   0  0  0  0  0  0  0  0  0  0  0  0
   -3.7030   14.8880    0.5850 N   0  0  0  0  0  0  0  0  0  0  0  0
   -1.4970   14.9440    1.4610 N   0  0  0  0  0  0  0  0  0  0  0  0
   -4.3420   13.9910    1.5010 C   0  0  0  0  0  0  0  0  0  0  0  0
   -4.3160   14.8630   -0.7370 C   0  0  0  0  0  0  0  0  0  0  0  0
   -5.7230   14.5320    1.7980 C   0  0  0  0  0  0  0  0  0  0  0  0
   -5.7950   15.2440   -0.6560 C   0  0  0  0  0  0  0  0  0  0  0  0
   -6.5830   14.6710    0.5460 C   0  0  0  0  0  0  0  0  0  0  0  0
   -7.3820   13.4150    0.2440 C   0  0  0  0  0  0  0  0  0  0  0  0
   -8.7520   13.7400    0.1130 O   0  0  0  0  0  0  0  0  0  0  0  0
  1  2  1  0
  2  3  1  0
  2  4  1  0
  3  5  2  0
  4  6  2  0
  5  6  1  0
  4  7  1  0
  5  8  1  0
  6  9  1  0
  7 10  2  0
  8 11  1  0
  9 12  2  0
 10 12  1  0
 11 13  1  0
 13 14  2  3
 13 15  1  0
 14 16  1  0
 16 17  1  0
 17 18  2  0
 17 19  1  0
 19 20  2  0
 18 21  1  0
 21 22  1  0
 20 23  1  0
 21 23  2  0
 22 24  1  0
 22 25  1  0
 24 26  1  0
 25 27  1  0
 26 28  1  0
 27 28  1  0
 28 29  1  0
 29 30  1  0
M  END
