mac-x0159-diamond-x0104_0_A
     RDKit          3D

 35 39  0  0  0  0  0  0  0  0999 V2000
   -3.4710   15.0020    2.0270 N   0  0  0  0  0  0  0  0  0  0  0  0
   -2.8290   15.2770    0.7660 C   0  0  1  0  0  0  0  0  0  0  0  0
   -1.8040   14.2200    0.3240 C   0  0  1  0  0  0  0  0  0  0  0  0
   -3.8860   15.3410   -0.1750 N   0  0  0  0  0  0  0  0  0  0  0  0
   -3.2820   15.9030   -1.3380 C   0  0  0  0  0  0  0  0  0  0  0  0
   -1.3200   14.5290   -1.1070 C   0  0  1  0  0  0  0  0  0  0  0  0
   -0.5980   14.3060    1.1630 N   0  0  0  0  0  0  0  0  0  0  0  0
   -2.3340   15.0770   -1.9690 N   0  0  0  0  0  0  0  0  0  0  0  0
   -0.3260   15.5360   -0.8120 N   0  0  0  0  0  0  0  0  0  0  0  0
    0.3740   14.9340    0.2840 C   0  0  0  0  0  0  0  0  0  0  0  0
   -2.2660   15.1610   -3.4310 C   0  0  2  0  0  0  0  0  0  0  0  0
   -2.7690   13.8590   -4.0540 C   0  0  0  0  0  0  0  0  0  0  0  0
   -1.1860   16.0160   -4.0980 C   0  0  0  0  0  0  0  0  0  0  0  0
   -3.8900   13.2790   -3.1550 C   0  0  0  0  0  0  0  0  0  0  0  0
    0.1950   16.0730   -3.9390 C   0  0  0  0  0  0  0  0  0  0  0  0
   -1.6720   16.9230   -5.0420 N   0  0  0  0  0  0  0  0  0  0  0  0
   -4.8950   14.2910   -2.8750 O   0  0  0  0  0  0  0  0  0  0  0  0
   -0.7050   17.6310   -5.5680 C   0  0  0  0  0  0  0  0  0  0  0  0
    0.8560   17.2680   -4.9790 S   0  0  0  0  0  0  0  0  0  0  0  0
   -0.8960   18.6810   -6.6040 C   0  0  0  0  0  0  0  0  0  0  0  0
   -5.4170   14.2830   -1.5700 C   0  0  0  0  0  0  0  0  0  0  0  0
   -4.7440   13.6710   -0.5760 N   0  0  0  0  0  0  0  0  0  0  0  0
   -6.6310   14.9270   -1.3570 C   0  0  0  0  0  0  0  0  0  0  0  0
   -5.2900   13.7070    0.6790 C   0  0  0  0  0  0  0  0  0  0  0  0
   -7.1730   14.9440   -0.0550 C   0  0  0  0  0  0  0  0  0  0  0  0
   -6.4920   14.3270    1.0060 C   0  0  0  0  0  0  0  0  0  0  0  0
   -7.0280   14.3520    2.3330 N   0  0  0  0  0  0  0  0  0  0  0  0
   -8.1130   15.0540    2.8570 C   0  0  0  0  0  0  0  0  0  0  0  0
   -7.9620   15.1980    4.2360 N   0  0  0  0  0  0  0  0  0  0  0  0
   -9.0610   15.4780    2.2060 O   0  0  0  0  0  0  0  0  0  0  0  0
   -9.0060   15.2010    5.1410 C   0  0  0  0  0  0  0  0  0  0  0  0
   -9.0620   15.2920    6.5130 C   0  0  0  0  0  0  0  0  0  0  0  0
  -10.5490   15.0630    4.4350 S   0  0  0  0  0  0  0  0  0  0  0  0
  -11.3200   15.1210    5.9650 C   0  0  0  0  0  0  0  0  0  0  0  0
  -10.4100   15.2450    6.9930 C   0  0  0  0  0  0  0  0  0  0  0  0
  2  1  1  1
  2  3  1  0
  2  4  1  0
  4  5  1  0
  3  6  1  0
  3  7  1  1
  5  8  1  0
  6  8  1  0
  6  9  1  1
  7 10  1  0
  9 10  1  0
  8 11  1  0
 11 12  1  6
 11 13  1  0
 12 14  1  0
 13 15  2  0
 13 16  1  0
 14 17  1  0
 16 18  2  0
 15 19  1  0
 18 19  1  0
 18 20  1  0
 17 21  1  0
 21 22  2  0
 21 23  1  0
 22 24  1  0
 23 25  2  0
 24 26  2  0
 25 26  1  0
 26 27  1  0
 27 28  1  0
 28 29  1  0
 28 30  2  0
 29 31  1  0
 31 32  2  0
 31 33  1  0
 33 34  1  0
 32 35  1  0
 34 35  2  0
M  END
