mac-x0373-diamond-x0689_0_A
     RDKit          3D

 24 26  0  0  0  0  0  0  0  0999 V2000
    1.3320   15.1210   -3.9690 O   0  0  0  0  0  0  0  0  0  0  0  0
    0.0070   15.2800   -4.2270 C   0  0  0  0  0  0  0  0  0  0  0  0
   -0.4040   16.2750   -4.8050 O   0  0  0  0  0  0  0  0  0  0  0  0
   -0.8580   14.1220   -3.7200 C   0  0  2  0  0  0  0  0  0  0  0  0
   -1.2530   13.0190   -4.6900 C   0  0  0  0  0  0  0  0  0  0  0  0
   -1.9840   14.4930   -2.7730 C   0  0  0  0  0  0  0  0  0  0  0  0
   -0.4830   12.8070   -5.8440 C   0  0  0  0  0  0  0  0  0  0  0  0
   -2.3670   12.1950   -4.4630 C   0  0  0  0  0  0  0  0  0  0  0  0
   -3.3520   14.6170   -3.1100 C   0  0  0  0  0  0  0  0  0  0  0  0
   -1.5940   14.7100   -1.4740 C   0  0  0  0  0  0  0  0  0  0  0  0
   -0.8180   11.7970   -6.7460 C   0  0  0  0  0  0  0  0  0  0  0  0
   -2.7000   11.1840   -5.3650 C   0  0  0  0  0  0  0  0  0  0  0  0
   -4.2990   14.9470   -2.1150 C   0  0  0  0  0  0  0  0  0  0  0  0
   -2.5230   15.0280   -0.5080 C   0  0  0  0  0  0  0  0  0  0  0  0
   -1.9270   10.9860   -6.5050 C   0  0  0  0  0  0  0  0  0  0  0  0
   -3.8730   15.1460   -0.7940 C   0  0  0  0  0  0  0  0  0  0  0  0
   -4.7470   15.4770    0.3800 C   0  0  0  0  0  0  0  0  0  0  0  0
   -3.9510   15.1330    1.5490 N   0  0  0  0  0  0  0  0  0  0  0  0
   -2.7460   14.5590    1.1660 C   0  0  0  0  0  0  0  0  0  0  0  0
   -2.6780   13.8110    0.0530 N   0  0  0  0  0  0  0  0  0  0  0  0
   -1.6870   14.8120    1.9400 N   0  0  0  0  0  0  0  0  0  0  0  0
   -1.4710   13.3310   -0.2960 C   0  0  0  0  0  0  0  0  0  0  0  0
   -0.5050   14.3090    1.5530 C   0  0  0  0  0  0  0  0  0  0  0  0
   -0.3360   13.5640    0.4300 C   0  0  0  0  0  0  0  0  0  0  0  0
  1  2  1  0
  2  3  2  0
  4  2  1  6
  4  5  1  0
  4  6  1  0
  5  7  2  0
  5  8  1  0
  6  9  2  0
  6 10  1  0
  7 11  1  0
  8 12  2  0
  9 13  1  0
 10 14  2  0
 11 15  2  0
 12 15  1  0
 13 16  2  0
 14 16  1  0
 16 17  1  0
 17 18  1  0
 18 19  1  0
 19 20  2  0
 19 21  1  0
 20 22  1  0
 21 23  2  0
 22 24  2  0
 23 24  1  0
M  END
