mac-x0180-mac-x0348
     RDKit          3D

 27 29  0  0  0  0  0  0  0  0999 V2000
   -7.9040   14.4980    1.6390 C   0  0  0  0  0  0  0  0  0  0  0  0
   -6.8410   14.6420    0.5930 C   0  0  0  0  0  0  0  0  0  0  0  0
   -7.1600   14.6870   -0.6030 O   0  0  0  0  0  0  0  0  0  0  0  0
   -5.5110   14.7380    0.9160 N   0  0  0  0  0  0  0  0  0  0  0  0
   -4.3880   14.9530    0.1070 C   0  0  0  0  0  0  0  0  0  0  0  0
   -3.0590   15.0090    0.5470 C   0  0  0  0  0  0  0  0  0  0  0  0
   -4.6670   15.1200   -1.2540 C   0  0  0  0  0  0  0  0  0  0  0  0
   -2.0230   15.2300   -0.3720 C   0  0  0  0  0  0  0  0  0  0  0  0
   -3.6520   15.3370   -2.1630 C   0  0  0  0  0  0  0  0  0  0  0  0
   -2.3420   15.3910   -1.7190 C   0  0  0  0  0  0  0  0  0  0  0  0
   -1.3240   15.6330   -2.7210 C   0  0  0  0  0  0  0  0  0  0  0  0
   -1.6220   16.5180   -3.5060 O   0  0  0  0  0  0  0  0  0  0  0  0
   -0.1320   14.9340   -2.8920 N   0  0  0  0  0  0  0  0  0  0  0  0
   -0.2890   13.4710   -3.2000 C   0  0  0  0  0  0  0  0  0  0  0  0
    0.3360   15.6590   -4.0750 C   0  0  2  0  0  0  0  0  0  0  0  0
    0.7130   12.5280   -2.5450 C   0  0  0  0  0  0  0  0  0  0  0  0
    0.5990   17.1690   -3.8710 C   0  0  0  0  0  0  0  0  0  0  0  0
   -0.6190   15.5970   -5.2630 C   0  0  2  0  0  0  0  0  0  0  0  0
    1.7030   12.8720   -1.9380 O   0  0  0  0  0  0  0  0  0  0  0  0
    0.3700   11.2260   -2.7070 O   0  0  0  0  0  0  0  0  0  0  0  0
   -0.0550   17.9750   -4.9100 N   0  0  0  0  0  0  0  0  0  0  0  0
   -0.7460   17.0610   -5.7900 C   0  0  2  0  0  0  0  0  0  0  0  0
   -1.9280   14.8360   -5.1590 C   0  0  0  0  0  0  0  0  0  0  0  0
    0.9910   18.5680   -5.7430 C   0  0  0  0  0  0  0  0  0  0  0  0
   -3.0970   15.3430   -5.5560 C   0  0  0  0  0  0  0  0  0  0  0  0
   -2.1340   17.4760   -6.2070 C   0  0  0  0  0  0  0  0  0  0  0  0
   -3.1890   16.6580   -6.1030 C   0  0  0  0  0  0  0  0  0  0  0  0
  1  2  1  0
  2  3  2  0
  2  4  1  0
  4  5  1  0
  5  6  2  0
  5  7  1  0
  6  8  1  0
  7  9  2  0
  8 10  2  0
  9 10  1  0
 10 11  1  0
 11 12  2  0
 11 13  1  0
 13 14  1  0
 15 13  1  1
 14 16  1  0
 15 17  1  0
 15 18  1  0
 16 19  2  0
 16 20  1  0
 17 21  1  0
 18 22  1  0
 21 22  1  0
 18 23  1  1
 21 24  1  0
 23 25  2  0
 22 26  1  1
 25 27  1  0
 26 27  2  0
M  END
