mac-x0433-diamond-x0591_0_A
     RDKit          3D

 22 23  0  0  0  0  0  0  0  0999 V2000
   -2.0320   15.0770    1.0450 C   0  0  0  0  0  0  0  0  0  0  0  0
   -3.4570   14.8670    0.6530 C   0  0  0  0  0  0  0  0  0  0  0  0
   -4.1860   13.8830    1.2780 C   0  0  0  0  0  0  0  0  0  0  0  0
   -3.9780   15.6490   -0.3180 N   0  0  0  0  0  0  0  0  0  0  0  0
   -5.2500   15.4220   -0.6430 C   0  0  0  0  0  0  0  0  0  0  0  0
   -5.4770   13.7550    0.8450 C   0  0  0  0  0  0  0  0  0  0  0  0
   -6.4040   12.7270    1.3700 C   0  0  0  0  0  0  0  0  0  0  0  0
   -5.8600   16.1370   -1.6150 N   0  0  0  0  0  0  0  0  0  0  0  0
   -6.0150   14.5200   -0.1000 N   0  0  0  0  0  0  0  0  0  0  0  0
   -6.9590   12.1560    0.1610 N   0  0  0  0  0  0  0  0  0  0  0  0
   -7.1770   12.9670   -0.9440 C   0  0  0  0  0  0  0  0  0  0  0  0
   -8.2880   13.4380   -1.1710 O   0  0  0  0  0  0  0  0  0  0  0  0
   -6.0400   13.3100   -1.8890 C   0  0  0  0  0  0  0  0  0  0  0  0
   -4.7140   12.8990   -1.6110 C   0  0  0  0  0  0  0  0  0  0  0  0
   -6.2800   14.0480   -3.0660 C   0  0  0  0  0  0  0  0  0  0  0  0
   -3.6650   13.2210   -2.4980 C   0  0  0  0  0  0  0  0  0  0  0  0
   -5.2370   14.3640   -3.9480 C   0  0  0  0  0  0  0  0  0  0  0  0
   -3.9310   13.9510   -3.6660 C   0  0  0  0  0  0  0  0  0  0  0  0
   -2.6220   14.3590   -4.8100 S   0  0  0  0  0  0  0  0  0  0  0  0
   -1.5550   15.2650   -3.8790 N   0  0  0  0  0  0  0  0  0  0  0  0
   -1.9140   13.1380   -5.1210 O   0  0  0  0  0  0  0  0  0  0  0  0
   -3.1520   15.2230   -5.8380 O   0  0  0  0  0  0  0  0  0  0  0  0
  1  2  1  0
  2  3  2  0
  2  4  1  0
  4  5  2  0
  3  6  1  0
  6  7  1  0
  5  8  1  0
  5  9  1  0
  6  9  2  0
  7 10  1  0
 10 11  1  0
 11 12  2  0
 11 13  1  0
 13 14  2  0
 13 15  1  0
 14 16  1  0
 15 17  2  0
 16 18  2  0
 17 18  1  0
 18 19  1  0
 19 20  1  0
 19 21  2  0
 19 22  2  0
M  END
