mac-x0277-diamond-x0727_0_A
     RDKit          3D

 21 22  0  0  0  0  0  0  0  0999 V2000
   -1.3140   18.4320   -5.1820 Cl  0  0  0  0  0  0  0  0  0  0  0  0
   -0.7070   16.8350   -4.9700 C   0  0  0  0  0  0  0  0  0  0  0  0
   -1.5170   15.7110   -5.0940 C   0  0  0  0  0  0  0  0  0  0  0  0
    0.6430   16.6770   -4.6640 C   0  0  0  0  0  0  0  0  0  0  0  0
   -3.1910   15.8010   -5.4670 Cl  0  0  0  0  0  0  0  0  0  0  0  0
   -0.9880   14.4340   -4.9230 C   0  0  0  0  0  0  0  0  0  0  0  0
    1.1740   15.3950   -4.4910 C   0  0  0  0  0  0  0  0  0  0  0  0
    0.3620   14.2450   -4.6220 C   0  0  0  0  0  0  0  0  0  0  0  0
    0.8950   12.8020   -4.4520 C   0  0  1  0  0  0  0  0  0  0  0  0
    0.7240   12.3740   -2.9440 C   0  0  0  0  0  0  0  0  0  0  0  0
    0.2150   11.8950   -5.4730 N   0  0  0  0  0  0  0  0  0  0  0  0
    2.3990   12.8890   -4.6760 C   0  0  0  0  0  0  0  0  0  0  0  0
    0.1210   11.1850   -2.7370 O   0  0  0  0  0  0  0  0  0  0  0  0
    1.0990   13.0440   -1.9900 O   0  0  0  0  0  0  0  0  0  0  0  0
    0.7910   11.3710   -6.6150 C   0  0  0  0  0  0  0  0  0  0  0  0
    1.8130   11.8600   -7.0120 O   0  0  0  0  0  0  0  0  0  0  0  0
    0.1260   10.1730   -7.3240 C   0  0  0  0  0  0  0  0  0  0  0  0
   -1.1430   10.5380   -8.1030 C   0  0  0  0  0  0  0  0  0  0  0  0
   -0.2610    9.0330   -6.3690 C   0  0  0  0  0  0  0  0  0  0  0  0
   -2.2300    9.5310   -7.7190 C   0  0  0  0  0  0  0  0  0  0  0  0
   -1.5680    8.4520   -6.8700 C   0  0  0  0  0  0  0  0  0  0  0  0
  1  2  1  0
  2  3  2  0
  2  4  1  0
  3  5  1  0
  3  6  1  0
  4  7  2  0
  6  8  2  0
  7  8  1  0
  8  9  1  0
  9 10  1  0
  9 11  1  0
  9 12  1  6
 10 13  1  0
 10 14  2  0
 11 15  1  0
 15 16  2  0
 15 17  1  0
 17 18  1  0
 17 19  1  0
 18 20  1  0
 19 21  1  0
 20 21  1  0
M  END
