mac-x0142-diamond-x0844_0_A
     RDKit          3D

 19 22  0  0  0  0  0  0  0  0999 V2000
   -5.8020   15.1610   -0.1480 O   0  0  0  0  0  0  0  0  0  0  0  0
   -4.5630   15.0940   -0.0820 C   0  0  0  0  0  0  0  0  0  0  0  0
   -3.7930   15.1180    1.0580 N   0  0  0  0  0  0  0  0  0  0  0  0
   -3.6390   14.9400   -1.2470 C   0  0  0  0  0  0  0  0  0  0  0  0
   -4.2530   14.8860   -2.9600 Br  0  0  0  0  0  0  0  0  0  0  0  0
   -2.5820   14.9720    0.6400 C   0  0  0  0  0  0  0  0  0  0  0  0
   -2.3960   14.8540   -0.7860 C   0  0  0  0  0  0  0  0  0  0  0  0
   -1.4930   14.9330    1.4430 N   0  0  0  0  0  0  0  0  0  0  0  0
   -1.0310   14.6990   -1.3230 C   0  0  0  0  0  0  0  0  0  0  0  0
   -0.7520   14.5810   -2.6980 N   0  0  0  0  0  0  0  0  0  0  0  0
   -0.0530   14.6870   -0.4530 N   0  0  0  0  0  0  0  0  0  0  0  0
   -0.3310   14.8040    0.8920 C   0  0  0  0  0  0  0  0  0  0  0  0
   -1.8080   14.2130   -3.6700 C   0  0  0  0  0  0  0  0  0  0  0  0
    0.5900   14.8620   -3.2400 C   0  0  0  0  0  0  0  0  0  0  0  0
    0.9740   13.6820   -4.0950 C   0  0  0  0  0  0  0  0  0  0  0  0
   -1.3790   13.1770   -4.7160 C   0  0  0  0  0  0  0  0  0  0  0  0
    2.4120   13.2420   -4.2400 C   0  0  0  0  0  0  0  0  0  0  0  0
    1.4840   12.4620   -3.3600 C   0  0  0  0  0  0  0  0  0  0  0  0
    0.0270   13.4540   -5.2420 C   0  0  0  0  0  0  0  0  0  0  0  0
  1  2  2  0
  2  3  1  0
  2  4  1  0
  4  5  1  0
  3  6  2  0
  4  7  2  0
  6  7  1  0
  6  8  1  0
  7  9  1  0
  9 10  1  0
  9 11  2  0
  8 12  2  0
 11 12  1  0
 10 13  1  0
 10 14  1  0
 15 14  1  0
 13 16  1  0
 15 17  1  0
 15 18  1  0
 17 18  1  0
 15 19  1  0
 16 19  1  0
M  END
