mac-x0587-mac-x0402
     RDKit          3D

 20 21  0  0  0  0  0  0  0  0999 V2000
    0.0300   16.1700   -4.2360 C   0  0  0  0  0  0  0  0  0  0  0  0
   -0.5900   14.8660   -3.7290 C   0  0  2  0  0  0  0  0  0  0  0  0
   -0.2180   13.5500   -4.9690 S   0  0  0  0  0  0  0  0  0  0  0  0
   -2.1120   15.0630   -3.4870 C   0  0  0  0  0  0  0  0  0  0  0  0
   -0.6450   12.0450   -4.0340 C   0  0  0  0  0  0  0  0  0  0  0  0
   -2.8770   15.3000   -4.4240 O   0  0  0  0  0  0  0  0  0  0  0  0
   -2.5750   14.9630   -2.1730 N   0  0  0  0  0  0  0  0  0  0  0  0
    0.4480   11.5480   -3.1310 C   0  0  0  0  0  0  0  0  0  0  0  0
   -3.8500   15.4210   -1.6310 C   0  0  0  0  0  0  0  0  0  0  0  0
   -1.7970   14.6240   -1.0620 C   0  0  0  0  0  0  0  0  0  0  0  0
    0.5300   10.3900   -2.7520 O   0  0  0  0  0  0  0  0  0  0  0  0
    1.3450   12.4770   -2.7510 O   0  0  0  0  0  0  0  0  0  0  0  0
   -0.6030   14.7440   -0.8610 O   0  0  0  0  0  0  0  0  0  0  0  0
   -3.9530   14.7410   -0.2650 C   0  0  2  0  0  0  0  0  0  0  0  0
   -2.6810   14.0870   -0.1380 N   0  0  0  0  0  0  0  0  0  0  0  0
   -5.1850   13.8060   -0.3030 C   0  0  0  0  0  0  0  0  0  0  0  0
   -4.1980   15.6900    1.2530 S   0  0  0  0  0  0  0  0  0  0  0  0
   -5.5100   14.5750    1.7350 C   0  0  2  0  0  0  0  0  0  0  0  0
   -6.2490   14.4000    0.5340 N   0  0  0  0  0  0  0  0  0  0  0  0
   -6.4060   15.0470    2.7300 N   0  0  0  0  0  0  0  0  0  0  0  0
  2  1  1  6
  2  3  1  0
  2  4  1  0
  3  5  1  0
  4  6  2  0
  4  7  1  0
  5  8  1  0
  7  9  1  0
  7 10  1  0
  8 11  2  0
  8 12  1  0
 10 13  2  0
 14  9  1  6
 10 15  1  0
 14 15  1  0
 14 16  1  0
 14 17  1  0
 17 18  1  0
 16 19  1  0
 18 19  1  0
 18 20  1  1
M  END
