mac-x0142-mac-x0572
     RDKit          3D

 25 29  0  0  0  0  0  0  0  0999 V2000
   -7.8130   14.3400    3.0610 C   0  0  0  0  0  0  0  0  0  0  0  0
   -6.7900   14.5330    1.9360 C   0  0  1  0  0  0  0  0  0  0  0  0
   -5.9290   13.3490    1.8320 N   0  0  0  0  0  0  0  0  0  0  0  0
   -7.4800   14.8080    0.6070 C   0  0  2  0  0  0  0  0  0  0  0  0
   -8.3180   13.7090    0.2420 O   0  0  0  0  0  0  0  0  0  0  0  0
   -6.3640   15.0200   -0.4220 C   0  0  0  0  0  0  0  0  0  0  0  0
   -4.9160   13.3720    0.7310 C   0  0  0  0  0  0  0  0  0  0  0  0
   -6.6870   15.3690   -1.5550 O   0  0  0  0  0  0  0  0  0  0  0  0
   -4.8540   14.7210   -0.0210 C   0  0  2  0  0  0  0  0  0  0  0  0
   -4.0780   15.5160    0.9750 N   0  0  0  0  0  0  0  0  0  0  0  0
   -3.9410   14.8300   -1.3020 C   0  0  0  0  0  0  0  0  0  0  0  0
   -2.7050   15.1830    0.6280 C   0  0  0  0  0  0  0  0  0  0  0  0
   -2.5760   14.8160   -0.7060 C   0  0  0  0  0  0  0  0  0  0  0  0
   -1.6590   15.2290    1.4660 N   0  0  0  0  0  0  0  0  0  0  0  0
   -1.3010   14.5260   -1.2100 C   0  0  0  0  0  0  0  0  0  0  0  0
   -1.0410   14.1640   -2.5650 N   0  0  0  0  0  0  0  0  0  0  0  0
   -0.2460   14.5840   -0.3830 N   0  0  0  0  0  0  0  0  0  0  0  0
   -0.4760   14.9190    0.9020 C   0  0  0  0  0  0  0  0  0  0  0  0
   -2.1620   14.1160   -3.5050 C   0  0  0  0  0  0  0  0  0  0  0  0
    0.2250   14.6470   -3.1340 C   0  0  0  0  0  0  0  0  0  0  0  0
    0.7190   13.5240   -4.0280 C   0  0  0  0  0  0  0  0  0  0  0  0
   -1.6190   13.8390   -4.9210 C   0  0  0  0  0  0  0  0  0  0  0  0
    2.1370   13.5480   -4.5500 C   0  0  0  0  0  0  0  0  0  0  0  0
    1.7660   12.5800   -3.4610 C   0  0  0  0  0  0  0  0  0  0  0  0
   -0.3620   12.9560   -4.9270 C   0  0  0  0  0  0  0  0  0  0  0  0
  2  1  1  1
  2  3  1  0
  2  4  1  0
  4  5  1  6
  4  6  1  0
  3  7  1  0
  6  8  2  0
  9  6  1  0
  9  7  1  1
  9 10  1  0
  9 11  1  0
 10 12  1  0
 11 13  1  0
 12 13  2  0
 12 14  1  0
 13 15  1  0
 15 16  1  0
 15 17  2  0
 14 18  2  0
 17 18  1  0
 16 19  1  0
 16 20  1  0
 21 20  1  0
 19 22  1  0
 21 23  1  0
 21 24  1  0
 23 24  1  0
 21 25  1  0
 22 25  1  0
M  END
