mac-x0472-mac-x0555
     RDKit          3D

 26 29  0  0  0  0  0  0  0  0999 V2000
   -3.4700   14.7750   -4.0030 O   0  0  0  0  0  0  0  0  0  0  0  0
   -2.7010   14.1370   -2.9620 S   0  0  0  0  0  0  0  0  0  0  0  0
   -1.3690   13.6950   -3.2500 O   0  0  0  0  0  0  0  0  0  0  0  0
   -2.7270   15.2350   -1.6780 N   0  0  0  0  0  0  0  0  0  0  0  0
   -3.6960   12.7020   -2.4910 C   0  0  0  0  0  0  0  0  0  0  0  0
   -2.4580   14.7880   -0.3270 C   0  0  0  0  0  0  0  0  0  0  0  0
   -3.2060   11.4340   -2.7970 C   0  0  0  0  0  0  0  0  0  0  0  0
   -4.9420   12.8290   -1.8450 C   0  0  0  0  0  0  0  0  0  0  0  0
   -4.0730   15.2550   -1.4950 C   0  0  0  0  0  0  0  0  0  0  0  0
   -1.3610   14.8490    0.3850 N   0  0  0  0  0  0  0  0  0  0  0  0
   -3.8130   14.1300    0.4680 S   0  0  0  0  0  0  0  0  0  0  0  0
   -3.9490   10.3040   -2.4730 C   0  0  0  0  0  0  0  0  0  0  0  0
   -5.6800   11.6890   -1.5210 C   0  0  0  0  0  0  0  0  0  0  0  0
   -5.0130   15.3900   -2.4720 C   0  0  0  0  0  0  0  0  0  0  0  0
   -4.4170   15.0720   -0.1910 C   0  0  0  0  0  0  0  0  0  0  0  0
   -2.8360   13.9780    1.8120 C   0  0  0  0  0  0  0  0  0  0  0  0
   -1.5930   14.3710    1.6570 N   0  0  0  0  0  0  0  0  0  0  0  0
   -5.1870   10.4330   -1.8380 C   0  0  0  0  0  0  0  0  0  0  0  0
   -5.7320   14.9820    0.1580 C   0  0  0  0  0  0  0  0  0  0  0  0
   -6.3500   15.3210   -2.1240 C   0  0  0  0  0  0  0  0  0  0  0  0
   -6.0760   14.7570    1.4770 C   0  0  0  0  0  0  0  0  0  0  0  0
   -6.7330   15.1040   -0.8110 C   0  0  0  0  0  0  0  0  0  0  0  0
   -7.3920   14.6450    1.8360 C   0  0  0  0  0  0  0  0  0  0  0  0
   -8.0250   15.0100   -0.4930 N   0  0  0  0  0  0  0  0  0  0  0  0
   -7.6980   14.4110    3.1690 N   0  0  0  0  0  0  0  0  0  0  0  0
   -8.3260   14.7800    0.8110 C   0  0  0  0  0  0  0  0  0  0  0  0
  1  2  2  0
  2  3  2  0
  2  4  1  0
  2  5  1  0
  4  6  1  0
  5  7  2  0
  5  8  1  0
  4  9  1  0
  6 10  2  0
  6 11  1  0
  7 12  1  0
  8 13  2  0
  9 14  2  0
  9 15  1  0
 11 16  1  0
 10 17  1  0
 16 17  2  0
 12 18  2  0
 13 18  1  0
 15 19  2  0
 14 20  1  0
 19 21  1  0
 19 22  1  0
 20 22  2  0
 21 23  2  0
 22 24  1  0
 23 25  1  0
 23 26  1  0
 24 26  2  0
M  END
