mac-x0411-mac-x0590
     RDKit          3D

 28 31  0  0  0  0  0  0  0  0999 V2000
    0.2770   12.1330   -2.0140 O   0  0  0  0  0  0  0  0  0  0  0  0
    0.2700   11.3220   -3.0840 C   0  0  0  0  0  0  0  0  0  0  0  0
   -0.5850   10.4880   -3.2380 O   0  0  0  0  0  0  0  0  0  0  0  0
    1.4330   11.5750   -3.9680 C   0  0  1  0  0  0  0  0  0  0  0  0
    1.1760   11.9060   -5.4670 C   0  0  2  0  0  0  0  0  0  0  0  0
    2.1800   12.6140   -3.3800 O   0  0  0  0  0  0  0  0  0  0  0  0
    2.2650   12.8340   -5.7280 C   0  0  0  0  0  0  0  0  0  0  0  0
    2.8800   13.2280   -4.4180 C   0  0  0  0  0  0  0  0  0  0  0  0
   -0.0290   12.4480   -5.9590 O   0  0  0  0  0  0  0  0  0  0  0  0
   -0.9990   11.5120   -6.0190 C   0  0  0  0  0  0  0  0  0  0  0  0
   -1.9920   11.7310   -5.0870 C   0  0  0  0  0  0  0  0  0  0  0  0
   -1.0160   10.4270   -6.9240 C   0  0  0  0  0  0  0  0  0  0  0  0
    0.2190   10.1510   -8.1210 Cl  0  0  0  0  0  0  0  0  0  0  0  0
   -1.8180   12.9950   -4.2090 C   0  0  0  0  0  0  0  0  0  0  0  0
   -3.0550   10.8040   -5.0350 C   0  0  0  0  0  0  0  0  0  0  0  0
   -2.0750    9.5160   -6.8620 C   0  0  0  0  0  0  0  0  0  0  0  0
   -2.4950   13.1870   -2.8250 C   0  0  0  0  0  0  0  0  0  0  0  0
   -3.0890    9.7030   -5.9170 C   0  0  0  0  0  0  0  0  0  0  0  0
   -2.2160   14.5110   -2.1650 N   0  0  0  0  0  0  0  0  0  0  0  0
   -3.4290   15.3440   -2.0670 C   0  0  0  0  0  0  0  0  0  0  0  0
   -1.6910   14.3190   -0.8060 C   0  0  2  0  0  0  0  0  0  0  0  0
   -4.3930   14.8570   -1.0510 N   0  0  0  0  0  0  0  0  0  0  0  0
   -2.3640   15.1890    0.2270 C   0  0  1  0  0  0  0  0  0  0  0  0
   -0.3320   14.7920   -0.6580 N   0  0  0  0  0  0  0  0  0  0  0  0
   -3.8090   14.6960    0.2690 C   0  0  1  0  0  0  0  0  0  0  0  0
   -1.4980   14.9870    1.3830 N   0  0  0  0  0  0  0  0  0  0  0  0
   -0.1760   14.7860    0.7950 C   0  0  0  0  0  0  0  0  0  0  0  0
   -4.6550   15.4000    1.2150 N   0  0  0  0  0  0  0  0  0  0  0  0
  1  2  1  0
  2  3  2  0
  4  2  1  1
  4  5  1  0
  4  6  1  0
  5  7  1  0
  6  8  1  0
  7  8  1  0
  5  9  1  1
  9 10  1  0
 10 11  1  0
 10 12  2  0
 12 13  1  0
 11 14  1  0
 11 15  2  0
 12 16  1  0
 14 17  1  0
 15 18  1  0
 16 18  2  0
 17 19  1  0
 19 20  1  0
 19 21  1  0
 20 22  1  0
 21 23  1  0
 21 24  1  6
 22 25  1  0
 23 25  1  0
 23 26  1  1
 24 27  1  0
 26 27  1  0
 25 28  1  1
M  END
