mac-x0555-mac-x0190
     RDKit          3D

 12 13  0  0  0  0  0  0  0  0999 V2000
   -7.5910   14.3550    2.7300 N   0  0  0  0  0  0  0  0  0  0  0  0
   -8.9070   13.7530    2.6500 C   0  0  0  0  0  0  0  0  0  0  0  0
   -6.9470   14.5550    1.5250 C   0  0  0  0  0  0  0  0  0  0  0  0
   -5.5740   14.6860    1.3640 C   0  0  0  0  0  0  0  0  0  0  0  0
   -7.7130   14.6340    0.3670 C   0  0  0  0  0  0  0  0  0  0  0  0
   -5.0270   14.8850    0.0890 C   0  0  0  0  0  0  0  0  0  0  0  0
   -7.2360   14.8260   -0.8760 N   0  0  0  0  0  0  0  0  0  0  0  0
   -5.9100   14.9510   -1.0080 C   0  0  0  0  0  0  0  0  0  0  0  0
   -3.6490   15.0150   -0.1100 C   0  0  0  0  0  0  0  0  0  0  0  0
   -5.3830   15.1480   -2.2690 C   0  0  0  0  0  0  0  0  0  0  0  0
   -3.1450   15.2060   -1.3900 C   0  0  0  0  0  0  0  0  0  0  0  0
   -4.0110   15.2760   -2.4720 C   0  0  0  0  0  0  0  0  0  0  0  0
  1  2  1  0
  1  3  1  0
  3  4  2  0
  3  5  1  0
  4  6  1  0
  5  7  2  0
  6  8  2  0
  7  8  1  0
  6  9  1  0
  8 10  1  0
  9 11  2  0
 10 12  2  0
 11 12  1  0
M  END
