mac-x0346-mac-x0439
     RDKit          3D

 26 28  0  0  0  0  0  0  0  0999 V2000
   -7.5930   14.0590    1.2640 O   0  0  0  0  0  0  0  0  0  0  0  0
   -7.7130   14.9230    0.1500 N   0  0  0  0  0  0  0  0  0  0  0  0
   -6.6640   14.9590   -0.7440 C   0  0  0  0  0  0  0  0  0  0  0  0
   -6.8940   14.9230   -1.9500 O   0  0  0  0  0  0  0  0  0  0  0  0
   -5.2560   15.0400   -0.2260 C   0  0  0  0  0  0  0  0  0  0  0  0
   -4.1280   14.9560   -1.0590 C   0  0  0  0  0  0  0  0  0  0  0  0
   -5.0570   15.2070    1.1530 C   0  0  0  0  0  0  0  0  0  0  0  0
   -4.3230   14.7990   -2.3890 O   0  0  0  0  0  0  0  0  0  0  0  0
   -2.8540   15.0350   -0.4980 C   0  0  0  0  0  0  0  0  0  0  0  0
   -3.7760   15.2930    1.6900 C   0  0  0  0  0  0  0  0  0  0  0  0
   -3.2400   15.1700   -3.2210 C   0  0  0  0  0  0  0  0  0  0  0  0
   -2.6720   15.2040    0.8670 C   0  0  0  0  0  0  0  0  0  0  0  0
   -3.3300   14.6790   -4.6450 C   0  0  0  0  0  0  0  0  0  0  0  0
   -3.0280   15.7710   -5.6600 C   0  0  0  0  0  0  0  0  0  0  0  0
   -1.7260   16.5400   -5.5460 C   0  0  0  0  0  0  0  0  0  0  0  0
   -0.4180   15.8600   -5.1850 C   0  0  2  0  0  0  0  0  0  0  0  0
   -1.6780   17.8600   -5.8300 C   0  0  0  0  0  0  0  0  0  0  0  0
   -0.1660   14.7600   -4.2310 C   0  0  0  0  0  0  0  0  0  0  0  0
    0.6280   16.8110   -4.6860 C   0  0  0  0  0  0  0  0  0  0  0  0
   -0.4380   18.6180   -5.8010 C   0  0  0  0  0  0  0  0  0  0  0  0
    0.9170   15.0780   -3.5110 C   0  0  0  0  0  0  0  0  0  0  0  0
    1.3970   16.3300   -3.7820 N   0  0  0  0  0  0  0  0  0  0  0  0
    0.7070   18.1570   -5.2670 C   0  0  0  0  0  0  0  0  0  0  0  0
    1.5030   14.1510   -2.5170 C   0  0  0  0  0  0  0  0  0  0  0  0
    2.8300   14.3380   -2.3140 O   0  0  0  0  0  0  0  0  0  0  0  0
    0.8930   13.2760   -1.9260 O   0  0  0  0  0  0  0  0  0  0  0  0
  1  2  1  0
  2  3  1  0
  3  4  2  0
  3  5  1  0
  5  6  2  0
  5  7  1  0
  6  8  1  0
  6  9  1  0
  7 10  2  0
  8 11  1  0
  9 12  2  0
 10 12  1  0
 11 13  1  0
 13 14  1  0
 14 15  1  0
 15 16  1  0
 15 17  2  0
 16 18  1  1
 16 19  1  0
 17 20  1  0
 18 21  2  0
 19 22  2  0
 21 22  1  0
 19 23  1  0
 20 23  2  0
 21 24  1  0
 24 25  1  0
 24 26  2  0
M  END
