mac-x0380-diamond-x0685_1_A
     RDKit          3D

 29 31  0  0  0  0  0  0  0  0999 V2000
   -1.5610   15.4440   -2.7810 O   0  0  0  0  0  0  0  0  0  0  0  0
   -2.6070   14.5400   -2.6660 C   0  0  0  0  0  0  0  0  0  0  0  0
   -3.3040   14.6060   -3.8960 O   0  0  0  0  0  0  0  0  0  0  0  0
   -1.8760   13.2340   -2.4110 C   0  0  0  0  0  0  0  0  0  0  0  0
   -3.5060   14.7410   -1.4570 C   0  0  0  0  0  0  0  0  0  0  0  0
   -0.9700   13.4180   -1.1960 C   0  0  0  0  0  0  0  0  0  0  0  0
   -4.8980   14.8200   -1.5800 C   0  0  0  0  0  0  0  0  0  0  0  0
   -2.9410   14.8170   -0.1670 C   0  0  0  0  0  0  0  0  0  0  0  0
    0.2060   12.6380   -1.3010 O   0  0  0  0  0  0  0  0  0  0  0  0
   -5.7090   14.9400   -0.4490 C   0  0  0  0  0  0  0  0  0  0  0  0
   -3.7430   14.9360    0.9590 C   0  0  0  0  0  0  0  0  0  0  0  0
    0.6880   11.9680   -2.6820 S   0  0  0  0  0  0  0  0  0  0  0  0
   -5.1280   14.9840    0.8230 C   0  0  0  0  0  0  0  0  0  0  0  0
   -7.4680   15.0130   -0.6630 S   0  0  0  0  0  0  0  0  0  0  0  0
   -0.1290   12.6920   -4.1130 C   0  0  0  0  0  0  0  0  0  0  0  0
    2.2410   12.2420   -2.9690 O   0  0  0  0  0  0  0  0  0  0  0  0
    0.3620   10.3920   -2.6500 O   0  0  0  0  0  0  0  0  0  0  0  0
   -5.8940   15.0630    1.9950 N   0  0  0  0  0  0  0  0  0  0  0  0
   -7.8850   14.1240    0.8470 C   0  0  0  0  0  0  0  0  0  0  0  0
   -1.3340   11.8830   -4.6070 C   0  0  0  0  0  0  0  0  0  0  0  0
   -7.2180   14.6960    2.0720 C   0  0  0  0  0  0  0  0  0  0  0  0
   -7.8430   14.8460    3.1260 O   0  0  0  0  0  0  0  0  0  0  0  0
   -0.9450   10.4990   -4.9020 N   0  0  0  0  0  0  0  0  0  0  0  0
   -1.2320   10.0180   -6.2610 C   0  0  0  0  0  0  0  0  0  0  0  0
   -0.5820    8.6600   -6.5690 C   0  0  0  0  0  0  0  0  0  0  0  0
   -1.0110   11.0920   -7.3520 C   0  0  0  0  0  0  0  0  0  0  0  0
    0.2100    8.6830   -7.8640 C   0  0  0  0  0  0  0  0  0  0  0  0
   -1.3030   10.5600   -8.7510 C   0  0  0  0  0  0  0  0  0  0  0  0
   -0.6510    9.2000   -9.0190 C   0  0  0  0  0  0  0  0  0  0  0  0
  2  1  1  0
  2  3  1  0
  2  4  1  0
  2  5  1  0
  4  6  1  0
  5  7  2  0
  5  8  1  0
  6  9  1  0
  7 10  1  0
  8 11  2  0
 12  9  1  0
 10 13  2  0
 11 13  1  0
 10 14  1  0
 12 15  1  0
 12 16  1  0
 12 17  1  0
 13 18  1  0
 14 19  1  0
 15 20  1  0
 18 21  1  0
 19 21  1  0
 21 22  2  0
 20 23  1  0
 23 24  1  0
 24 25  1  0
 24 26  1  0
 25 27  1  0
 26 28  1  0
 27 29  1  0
 28 29  1  0
M  END
