mac-x0193-mac-x0361
     RDKit          3D

 27 28  0  0  0  0  0  0  0  0999 V2000
    0.3770   10.4680   -3.1310 O   0  0  0  0  0  0  0  0  0  0  0  0
    0.6590   11.7830   -3.2420 C   0  0  0  0  0  0  0  0  0  0  0  0
    0.8150   12.5330   -2.2090 N   0  0  0  0  0  0  0  0  0  0  0  0
    0.7680   12.2780   -4.6910 C   0  0  0  0  0  0  0  0  0  0  0  0
    0.0720   11.3900   -5.6280 N   0  0  0  0  0  0  0  0  0  0  0  0
    1.0840   13.9560   -2.2960 C   0  0  0  0  0  0  0  0  0  0  0  0
    0.6050   11.1820   -6.8840 C   0  0  0  0  0  0  0  0  0  0  0  0
   -0.2660   14.6550   -2.1240 C   0  0  0  0  0  0  0  0  0  0  0  0
    1.7170   11.5370   -7.1850 O   0  0  0  0  0  0  0  0  0  0  0  0
   -0.3030   10.5340   -7.7160 N   0  0  0  0  0  0  0  0  0  0  0  0
   -0.8220   15.1910   -3.4460 C   0  0  0  0  0  0  0  0  0  0  0  0
   -2.2700   15.2350   -3.5100 O   0  0  0  0  0  0  0  0  0  0  0  0
    0.0170    9.5420   -8.7570 C   0  0  0  0  0  0  0  0  0  0  0  0
    1.4870    9.2390   -8.8390 C   0  0  0  0  0  0  0  0  0  0  0  0
   -0.4340    9.9950  -10.1470 C   0  0  0  0  0  0  0  0  0  0  0  0
   -3.1390   15.0920   -2.4380 C   0  0  0  0  0  0  0  0  0  0  0  0
    1.8600    8.0550   -9.7260 C   0  0  0  0  0  0  0  0  0  0  0  0
    0.5580    9.5860  -11.2510 C   0  0  0  0  0  0  0  0  0  0  0  0
   -2.8620   14.9100   -1.0730 C   0  0  0  0  0  0  0  0  0  0  0  0
   -4.4700   15.1490   -2.8380 C   0  0  0  0  0  0  0  0  0  0  0  0
    1.1930    8.1980  -11.0830 C   0  0  0  0  0  0  0  0  0  0  0  0
   -3.9140   14.7890   -0.1390 C   0  0  0  0  0  0  0  0  0  0  0  0
   -5.5170   15.0330   -1.9180 C   0  0  0  0  0  0  0  0  0  0  0  0
   -5.2470   14.8490   -0.5590 C   0  0  0  0  0  0  0  0  0  0  0  0
   -6.4170   14.7230    0.3690 C   0  0  0  0  0  0  0  0  0  0  0  0
   -6.2380   14.8460    1.7240 N   0  0  0  0  0  0  0  0  0  0  0  0
   -7.5450   14.5210   -0.0660 O   0  0  0  0  0  0  0  0  0  0  0  0
  1  2  1  0
  2  3  2  3
  2  4  1  0
  4  5  1  0
  3  6  1  0
  5  7  1  0
  6  8  1  0
  7  9  2  0
  7 10  1  0
  8 11  1  0
 11 12  1  0
 10 13  1  0
 13 14  1  0
 13 15  1  0
 12 16  1  0
 14 17  1  0
 15 18  1  0
 16 19  2  0
 16 20  1  0
 17 21  1  0
 18 21  1  0
 19 22  1  0
 20 23  2  0
 22 24  2  0
 23 24  1  0
 24 25  1  0
 25 26  1  0
 25 27  2  0
M  END
