mac-x0124-diamond-x0587_0_A
     RDKit          3D

 23 25  0  0  0  0  0  0  0  0999 V2000
   -0.0370   14.9860   -3.1670 C   0  0  0  0  0  0  0  0  0  0  0  0
   -1.1820   14.8510   -2.2960 N   0  0  0  0  0  0  0  0  0  0  0  0
   -2.4760   14.7330   -2.6830 C   0  0  0  0  0  0  0  0  0  0  0  0
   -1.1100   14.8250   -0.9400 C   0  0  0  0  0  0  0  0  0  0  0  0
   -3.2890   14.6250   -1.5540 C   0  0  0  0  0  0  0  0  0  0  0  0
   -2.4010   14.6890   -0.4050 C   0  0  0  0  0  0  0  0  0  0  0  0
    0.0400   14.9230   -0.2800 N   0  0  0  0  0  0  0  0  0  0  0  0
   -2.4400   14.6570    1.0150 C   0  0  0  0  0  0  0  0  0  0  0  0
   -0.1530   14.8770    1.0330 C   0  0  0  0  0  0  0  0  0  0  0  0
   -4.7800   14.4640   -1.7260 C   0  0  0  0  0  0  0  0  0  0  0  0
   -3.5390   14.5440    1.8290 N   0  0  0  0  0  0  0  0  0  0  0  0
   -1.2970   14.7460    1.6970 N   0  0  0  0  0  0  0  0  0  0  0  0
   -4.9820   13.2560   -2.3210 F   0  0  0  0  0  0  0  0  0  0  0  0
   -5.1870   15.3520   -2.6730 F   0  0  0  0  0  0  0  0  0  0  0  0
   -5.6230   14.5900   -0.4470 C   0  0  0  0  0  0  0  0  0  0  0  0
   -6.9620   14.4220   -0.6220 N   0  0  0  0  0  0  0  0  0  0  0  0
   -5.0790   14.8490    0.7540 N   0  0  0  0  0  0  0  0  0  0  0  0
   -7.7620   14.5260    0.4610 C   0  0  0  0  0  0  0  0  0  0  0  0
   -5.9270   14.9410    1.8060 C   0  0  0  0  0  0  0  0  0  0  0  0
   -7.2920   14.7890    1.7240 C   0  0  0  0  0  0  0  0  0  0  0  0
   -8.2190   14.9050    2.8580 C   0  0  0  0  0  0  0  0  0  0  0  0
   -7.6810   14.8700    4.1090 N   0  0  0  0  0  0  0  0  0  0  0  0
   -9.4240   15.0400    2.6860 O   0  0  0  0  0  0  0  0  0  0  0  0
  1  2  1  0
  2  3  1  0
  2  4  1  0
  3  5  2  0
  4  6  2  0
  5  6  1  0
  4  7  1  0
  6  8  1  0
  7  9  2  0
  5 10  1  0
  8 11  1  0
  8 12  2  0
  9 12  1  0
 10 13  1  0
 10 14  1  0
 10 15  1  0
 15 16  2  0
 15 17  1  0
 16 18  1  0
 17 19  2  0
 18 20  2  0
 19 20  1  0
 20 21  1  0
 21 22  1  0
 21 23  2  0
M  END
