mac-x0223-mac-x0348
     RDKit          3D

 18 19  0  0  0  0  0  0  0  0999 V2000
    1.2650   18.4090   -5.8890 C   0  0  0  0  0  0  0  0  0  0  0  0
    0.1680   18.2850   -5.0210 O   0  0  0  0  0  0  0  0  0  0  0  0
   -0.2220   17.0070   -4.6960 C   0  0  0  0  0  0  0  0  0  0  0  0
   -1.6680   16.7570   -5.0050 C   0  0  2  0  0  0  0  0  0  0  0  0
    0.5240   16.0250   -4.1670 C   0  0  0  0  0  0  0  0  0  0  0  0
   -2.5540   17.4730   -4.1730 O   0  0  0  0  0  0  0  0  0  0  0  0
   -2.0560   15.2600   -5.0340 C   0  0  1  0  0  0  0  0  0  0  0  0
   -0.0040   14.7000   -3.8250 C   0  0  0  0  0  0  0  0  0  0  0  0
   -2.1200   17.4070   -6.2190 C   0  0  0  0  0  0  0  0  0  0  0  0
    0.9700   13.8640   -3.0370 C   0  0  1  0  0  0  0  0  0  0  0  0
   -1.2420   14.3320   -4.2030 C   0  0  0  0  0  0  0  0  0  0  0  0
   -3.5170   15.0820   -5.2570 C   0  0  0  0  0  0  0  0  0  0  0  0
   -3.2830   17.0040   -6.6950 C   0  0  0  0  0  0  0  0  0  0  0  0
    0.3510   12.5890   -2.4980 C   0  0  0  0  0  0  0  0  0  0  0  0
    2.2660   13.6350   -3.7710 C   0  0  0  0  0  0  0  0  0  0  0  0
   -4.0800   15.9570   -6.0950 C   0  0  0  0  0  0  0  0  0  0  0  0
    0.0150   11.5970   -3.1300 O   0  0  0  0  0  0  0  0  0  0  0  0
    0.1940   12.6330   -1.1630 O   0  0  0  0  0  0  0  0  0  0  0  0
  1  2  1  0
  2  3  1  0
  3  4  1  0
  3  5  2  0
  4  6  1  1
  4  7  1  0
  5  8  1  0
  4  9  1  0
  8 10  1  0
  7 11  1  1
  8 11  2  0
  7 12  1  0
  9 13  2  0
 10 14  1  0
 10 15  1  6
 12 16  2  0
 13 16  1  0
 14 17  2  0
 14 18  1  0
M  END
