mac-x0223-mac-x0385
     RDKit          3D

 24 25  0  0  0  0  0  0  0  0999 V2000
    1.2260   18.4530   -5.7750 C   0  0  0  0  0  0  0  0  0  0  0  0
    0.2330   18.2180   -4.8020 O   0  0  0  0  0  0  0  0  0  0  0  0
   -0.2220   16.9400   -4.7530 C   0  0  0  0  0  0  0  0  0  0  0  0
   -1.6030   16.8430   -4.7680 C   0  0  0  0  0  0  0  0  0  0  0  0
    0.5530   15.7810   -4.6930 C   0  0  0  0  0  0  0  0  0  0  0  0
   -2.3260   18.0070   -4.8240 O   0  0  0  0  0  0  0  0  0  0  0  0
   -2.2510   15.6200   -4.7210 C   0  0  0  0  0  0  0  0  0  0  0  0
   -0.0740   14.5210   -4.6470 C   0  0  0  0  0  0  0  0  0  0  0  0
    0.7670   13.2620   -4.5880 C   0  0  0  0  0  0  0  0  0  0  0  0
   -1.4800   14.4550   -4.6610 C   0  0  0  0  0  0  0  0  0  0  0  0
    0.8460   12.6010   -3.2250 C   0  0  0  0  0  0  0  0  0  0  0  0
    0.0830   11.7250   -2.8300 O   0  0  0  0  0  0  0  0  0  0  0  0
    1.9000   13.1080   -2.5170 O   0  0  0  0  0  0  0  0  0  0  0  0
    1.6010   14.1940   -1.6340 C   0  0  0  0  0  0  0  0  0  0  0  0
    0.4400   13.7140   -0.7970 C   0  0  0  0  0  0  0  0  0  0  0  0
    0.0690   14.4980    0.4700 C   0  0  0  0  0  0  0  0  0  0  0  0
   -1.3630   14.8130    0.3100 C   0  0  0  0  0  0  0  0  0  0  0  0
   -2.1430   15.1370    1.3560 N   0  0  0  0  0  0  0  0  0  0  0  0
   -1.7460   14.7270   -0.9650 N   0  0  0  0  0  0  0  0  0  0  0  0
   -3.4270   15.3950    1.0190 C   0  0  0  0  0  0  0  0  0  0  0  0
   -3.0140   14.9860   -1.2370 C   0  0  0  0  0  0  0  0  0  0  0  0
   -4.2790   15.7470    2.0590 N   0  0  0  0  0  0  0  0  0  0  0  0
   -3.9170   15.3300   -0.2810 C   0  0  0  0  0  0  0  0  0  0  0  0
   -5.3290   15.6090   -0.6560 C   0  0  0  0  0  0  0  0  0  0  0  0
  1  2  1  0
  2  3  1  0
  3  4  2  0
  3  5  1  0
  4  6  1  0
  4  7  1  0
  5  8  2  0
  8  9  1  0
  7 10  2  0
  8 10  1  0
  9 11  1  0
 11 12  2  0
 11 13  1  0
 13 14  1  0
 14 15  1  0
 15 16  1  0
 16 17  1  0
 17 18  2  0
 17 19  1  0
 18 20  1  0
 19 21  2  0
 20 22  1  0
 20 23  2  0
 21 23  1  0
 23 24  1  0
M  END
