mac-x0190-mac-x0271
     RDKit          3D

 12 13  0  0  0  0  0  0  0  0999 V2000
   -9.2560   15.1660    2.4400 O   0  0  0  0  0  0  0  0  0  0  0  0
   -9.0110   14.2100    1.4190 C   0  0  0  0  0  0  0  0  0  0  0  0
   -7.6610   14.4740    0.8730 C   0  0  0  0  0  0  0  0  0  0  0  0
   -7.4670   14.7210   -0.4590 N   0  0  0  0  0  0  0  0  0  0  0  0
   -6.5230   14.5060    1.5280 N   0  0  0  0  0  0  0  0  0  0  0  0
   -6.1320   14.9160   -0.6690 C   0  0  0  0  0  0  0  0  0  0  0  0
   -5.5560   14.7760    0.5880 C   0  0  0  0  0  0  0  0  0  0  0  0
   -5.4090   15.1900   -1.8230 C   0  0  0  0  0  0  0  0  0  0  0  0
   -4.1680   14.9170    0.7250 C   0  0  0  0  0  0  0  0  0  0  0  0
   -4.0360   15.3180   -1.6650 C   0  0  0  0  0  0  0  0  0  0  0  0
   -3.4100   15.1870   -0.4200 C   0  0  0  0  0  0  0  0  0  0  0  0
   -3.2570   15.5770   -2.7590 O   0  0  0  0  0  0  0  0  0  0  0  0
  1  2  1  0
  2  3  1  0
  3  4  1  0
  3  5  2  0
  4  6  1  0
  5  7  1  0
  6  7  2  0
  6  8  1  0
  7  9  1  0
  8 10  2  0
  9 11  2  0
 10 11  1  0
 10 12  1  0
M  END
