mac-x0360-diamond-x1012_0_A
     RDKit          3D

 25 26  0  0  0  0  0  0  0  0999 V2000
   -7.6770   11.6110    1.8040 Cl  0  0  0  0  0  0  0  0  0  0  0  0
   -6.4790   11.8460    0.5920 C   0  0  0  0  0  0  0  0  0  0  0  0
   -6.3170   10.8830   -0.4010 C   0  0  0  0  0  0  0  0  0  0  0  0
   -5.6820   12.9900    0.6160 C   0  0  0  0  0  0  0  0  0  0  0  0
   -4.7170   13.1590   -0.3810 C   0  0  0  0  0  0  0  0  0  0  0  0
   -5.3480   11.0630   -1.3830 C   0  0  0  0  0  0  0  0  0  0  0  0
   -5.1430    9.8660   -2.6050 Cl  0  0  0  0  0  0  0  0  0  0  0  0
   -3.6830   14.5960   -0.4110 S   0  0  0  0  0  0  0  0  0  0  0  0
   -4.5420   12.1960   -1.3800 C   0  0  0  0  0  0  0  0  0  0  0  0
   -2.4650   13.9940   -1.4160 N   0  0  0  0  0  0  0  0  0  0  0  0
   -4.3980   15.6710   -1.0590 O   0  0  0  0  0  0  0  0  0  0  0  0
   -3.0570   14.7760    0.8800 O   0  0  0  0  0  0  0  0  0  0  0  0
   -1.8150   14.8220   -2.4250 C   0  0  0  0  0  0  0  0  0  0  0  0
   -1.3790   13.9640   -3.6340 C   0  0  1  0  0  0  0  0  0  0  0  0
   -1.6400   14.7800   -4.9100 C   0  0  0  0  0  0  0  0  0  0  0  0
    0.1150   13.5420   -3.6770 C   0  0  2  0  0  0  0  0  0  0  0  0
    0.5500   12.5840   -2.5810 C   0  0  0  0  0  0  0  0  0  0  0  0
    1.0320   14.7810   -3.7210 C   0  0  0  0  0  0  0  0  0  0  0  0
   -0.7570   15.9490   -4.9740 N   0  0  0  0  0  0  0  0  0  0  0  0
   -1.3040   17.1990   -4.7950 C   0  0  0  0  0  0  0  0  0  0  0  0
    0.2810   11.2830   -2.8390 O   0  0  0  0  0  0  0  0  0  0  0  0
    1.0950   12.9290   -1.5530 O   0  0  0  0  0  0  0  0  0  0  0  0
    0.6830   15.6640   -4.9190 C   0  0  0  0  0  0  0  0  0  0  0  0
   -0.4390   18.2220   -4.6500 N   0  0  0  0  0  0  0  0  0  0  0  0
   -2.4990   17.4280   -4.7510 O   0  0  0  0  0  0  0  0  0  0  0  0
  1  2  1  0
  2  3  2  0
  2  4  1  0
  4  5  2  0
  3  6  1  0
  6  7  1  0
  5  8  1  0
  5  9  1  0
  6  9  2  0
  8 10  1  0
  8 11  2  0
  8 12  2  0
 10 13  1  0
 14 13  1  1
 14 15  1  0
 14 16  1  0
 16 17  1  1
 16 18  1  0
 15 19  1  0
 19 20  1  0
 17 21  1  0
 17 22  2  0
 18 23  1  0
 19 23  1  0
 20 24  1  0
 20 25  2  0
M  END
