mac-x0385-mac-x0346
     RDKit          3D

 13 13  0  0  0  0  0  0  0  0999 V2000
   -5.5120   15.1840   -0.7390 C   0  0  0  0  0  0  0  0  0  0  0  0
   -6.5800   15.0350    0.1430 N   0  0  0  0  0  0  0  0  0  0  0  0
   -6.6800   13.8660    0.9330 O   0  0  0  0  0  0  0  0  0  0  0  0
   -5.7950   15.3610   -1.9260 O   0  0  0  0  0  0  0  0  0  0  0  0
   -4.0630   15.0930   -0.3080 C   0  0  0  0  0  0  0  0  0  0  0  0
   -3.5800   15.3100    0.9900 C   0  0  0  0  0  0  0  0  0  0  0  0
   -3.0710   14.7750   -1.2100 C   0  0  0  0  0  0  0  0  0  0  0  0
   -4.4130   15.6760    2.0460 N   0  0  0  0  0  0  0  0  0  0  0  0
   -3.3840   14.5550   -2.5200 O   0  0  0  0  0  0  0  0  0  0  0  0
   -2.2660   15.1870    1.3200 N   0  0  0  0  0  0  0  0  0  0  0  0
   -1.7500   14.6470   -0.9370 N   0  0  0  0  0  0  0  0  0  0  0  0
   -1.4000   14.8580    0.3500 C   0  0  0  0  0  0  0  0  0  0  0  0
    0.0320   14.7260    0.7370 C   0  0  0  0  0  0  0  0  0  0  0  0
  1  2  1  0
  2  3  1  0
  1  4  2  0
  1  5  1  0
  5  6  2  0
  5  7  1  0
  6  8  1  0
  7  9  1  0
  6 10  1  0
  7 11  2  0
 10 12  2  0
 11 12  1  0
 12 13  1  0
M  END
