mac-x0546-mac-x0326
     RDKit          3D

 26 29  0  0  0  0  0  0  0  0999 V2000
   -4.5390   15.1610   -5.8800 C   0  0  0  0  0  0  0  0  0  0  0  0
   -3.7450   16.0630   -5.1220 O   0  0  0  0  0  0  0  0  0  0  0  0
   -2.4080   15.9840   -5.2870 C   0  0  0  0  0  0  0  0  0  0  0  0
   -1.6280   14.9210   -4.9840 C   0  0  0  0  0  0  0  0  0  0  0  0
   -1.8730   17.2090   -5.8690 C   0  0  0  0  0  0  0  0  0  0  0  0
   -0.1640   14.9750   -5.2710 C   0  0  1  0  0  0  0  0  0  0  0  0
   -0.5710   17.4820   -5.8770 C   0  0  0  0  0  0  0  0  0  0  0  0
    0.2320   16.4510   -5.2340 C   0  0  0  0  0  0  0  0  0  0  0  0
    0.9310   14.5210   -4.3800 C   0  0  0  0  0  0  0  0  0  0  0  0
    1.2350   13.1890   -3.7980 C   0  0  2  0  0  0  0  0  0  0  0  0
    1.2750   16.7430   -4.6010 N   0  0  0  0  0  0  0  0  0  0  0  0
    1.6850   15.5650   -4.0980 C   0  0  0  0  0  0  0  0  0  0  0  0
    0.3020   12.0260   -3.5010 C   0  0  0  0  0  0  0  0  0  0  0  0
    1.3640   13.7000   -2.3990 C   0  0  0  0  0  0  0  0  0  0  0  0
   -0.1210   11.8270   -2.3700 O   0  0  0  0  0  0  0  0  0  0  0  0
   -0.0310   11.1830   -4.4770 O   0  0  0  0  0  0  0  0  0  0  0  0
   -0.0130   14.1260   -1.9450 C   0  0  0  0  0  0  0  0  0  0  0  0
   -1.0980   14.2700   -2.7100 N   0  0  0  0  0  0  0  0  0  0  0  0
   -0.2410   14.4360   -0.2870 S   0  0  0  0  0  0  0  0  0  0  0  0
   -2.1950   14.6280   -1.9320 C   0  0  0  0  0  0  0  0  0  0  0  0
   -1.9020   14.7590   -0.5720 C   0  0  0  0  0  0  0  0  0  0  0  0
   -3.5310   14.8570   -2.3610 C   0  0  0  0  0  0  0  0  0  0  0  0
   -2.8690   15.1060    0.3760 C   0  0  0  0  0  0  0  0  0  0  0  0
   -4.4970   15.1980   -1.3990 C   0  0  0  0  0  0  0  0  0  0  0  0
   -4.1680   15.3230   -0.0600 C   0  0  0  0  0  0  0  0  0  0  0  0
   -6.1370   15.4650   -1.8410 Cl  0  0  0  0  0  0  0  0  0  0  0  0
  1  2  1  0
  2  3  1  0
  3  4  2  0
  3  5  1  0
  6  4  1  1
  5  7  2  0
  6  8  1  0
  7  8  1  0
  6  9  1  0
  9 10  1  0
  8 11  2  0
  9 12  2  0
 11 12  1  0
 10 13  1  0
 10 14  1  1
 13 15  2  0
 13 16  1  0
 14 17  1  0
 17 18  2  0
 17 19  1  0
 18 20  1  0
 19 21  1  0
 20 21  2  0
 20 22  1  0
 21 23  1  0
 22 24  2  0
 23 25  2  0
 24 25  1  0
 24 26  1  0
M  END
