mac-x0354-mac-x0527
     RDKit          3D

 31 34  0  0  0  0  0  0  0  0999 V2000
    0.9590   10.7640   -8.4040 C   0  0  0  0  0  0  0  0  0  0  0  0
    1.0840   11.3460   -7.0800 N   0  0  0  0  0  0  0  0  0  0  0  0
    1.9800   12.3060   -6.8090 N   0  0  0  0  0  0  0  0  0  0  0  0
    0.3490   11.0110   -6.0000 C   0  0  0  0  0  0  0  0  0  0  0  0
    1.8220   12.6040   -5.5410 C   0  0  0  0  0  0  0  0  0  0  0  0
    0.8110   11.8300   -4.9710 C   0  0  0  0  0  0  0  0  0  0  0  0
   -0.6830    9.9780   -6.0360 C   0  0  0  0  0  0  0  0  0  0  0  0
    0.3200   11.8780   -3.5970 C   0  0  0  0  0  0  0  0  0  0  0  0
   -0.7090    9.0520   -7.0850 C   0  0  0  0  0  0  0  0  0  0  0  0
   -1.6590    9.8850   -5.0310 C   0  0  0  0  0  0  0  0  0  0  0  0
    1.0040   12.8200   -2.7840 O   0  0  0  0  0  0  0  0  0  0  0  0
    0.2640   10.6370   -2.9060 O   0  0  0  0  0  0  0  0  0  0  0  0
   -1.6880    8.0630   -7.1300 C   0  0  0  0  0  0  0  0  0  0  0  0
   -2.6390    8.8950   -5.0820 C   0  0  0  0  0  0  0  0  0  0  0  0
   -0.9890   12.2960   -4.2240 C   0  0  0  0  0  0  0  0  0  0  0  0
   -2.6540    7.9840   -6.1310 C   0  0  0  0  0  0  0  0  0  0  0  0
   -1.6190   11.2840   -4.9620 C   0  0  0  0  0  0  0  0  0  0  0  0
   -1.6050   13.5510   -4.1760 C   0  0  0  0  0  0  0  0  0  0  0  0
   -1.0530   14.7310   -3.4400 C   0  0  0  0  0  0  0  0  0  0  0  0
   -2.8220   13.7220   -4.8660 C   0  0  0  0  0  0  0  0  0  0  0  0
   -2.8100   11.4640   -5.6350 C   0  0  0  0  0  0  0  0  0  0  0  0
   -1.8440   14.9210   -2.2670 N   0  0  0  0  0  0  0  0  0  0  0  0
   -3.4180   12.6940   -5.5850 C   0  0  0  0  0  0  0  0  0  0  0  0
   -3.1720   15.2490   -2.3740 C   0  0  0  0  0  0  0  0  0  0  0  0
   -3.7130   15.6210   -3.4030 O   0  0  0  0  0  0  0  0  0  0  0  0
   -3.9100   15.1250   -1.1020 C   0  0  0  0  0  0  0  0  0  0  0  0
   -5.2900   15.1410   -1.0970 C   0  0  0  0  0  0  0  0  0  0  0  0
   -3.1540   14.9980    0.0280 N   0  0  0  0  0  0  0  0  0  0  0  0
   -5.9940   15.0230    0.0530 N   0  0  0  0  0  0  0  0  0  0  0  0
   -3.8640   14.8850    1.1680 C   0  0  0  0  0  0  0  0  0  0  0  0
   -5.2500   14.8960    1.1800 C   0  0  0  0  0  0  0  0  0  0  0  0
  1  2  1  0
  2  3  1  0
  2  4  1  0
  3  5  2  0
  4  6  2  0
  5  6  1  0
  4  7  1  0
  6  8  1  0
  7  9  2  0
  7 10  1  0
  8 11  1  0
  8 12  1  0
  9 13  1  0
 10 14  2  0
  8 15  1  0
 13 16  2  0
 14 16  1  0
 15 17  2  0
 15 18  1  0
 18 19  1  0
 18 20  2  0
 17 21  1  0
 19 22  1  0
 20 23  1  0
 21 23  2  0
 22 24  1  0
 24 25  2  0
 24 26  1  0
 26 27  2  0
 26 28  1  0
 27 29  1  0
 28 30  2  0
 29 31  2  0
 30 31  1  0
M  END
