mac-x0305-mac-x0397
     RDKit          3D

 15 16  0  0  0  0  0  0  0  0999 V2000
    0.4460   13.3910   -0.6850 O   0  0  0  0  0  0  0  0  0  0  0  0
   -0.2020   14.2850   -1.5160 C   0  0  0  0  0  0  0  0  0  0  0  0
    0.3620   14.7270   -2.4980 O   0  0  0  0  0  0  0  0  0  0  0  0
   -1.6030   14.5440   -1.0380 C   0  0  0  0  0  0  0  0  0  0  0  0
   -1.8690   14.6700    0.3250 C   0  0  0  0  0  0  0  0  0  0  0  0
   -2.5830   14.6220   -2.0070 N   0  0  0  0  0  0  0  0  0  0  0  0
   -0.9760   14.6290    1.3810 O   0  0  0  0  0  0  0  0  0  0  0  0
   -3.1960   14.8320    0.6330 C   0  0  0  0  0  0  0  0  0  0  0  0
   -3.8800   14.7980   -1.6080 C   0  0  0  0  0  0  0  0  0  0  0  0
   -5.1620   14.8930   -2.7240 Cl  0  0  0  0  0  0  0  0  0  0  0  0
   -4.2370   14.8900   -0.2760 C   0  0  0  0  0  0  0  0  0  0  0  0
   -3.8130   14.9710    2.1740 S   0  0  0  0  0  0  0  0  0  0  0  0
   -5.4020   15.0430    1.5940 C   0  0  0  0  0  0  0  0  0  0  0  0
   -5.5180   15.0210    0.2960 N   0  0  0  0  0  0  0  0  0  0  0  0
   -6.4190   15.1040    2.4650 N   0  0  0  0  0  0  0  0  0  0  0  0
  1  2  1  0
  2  3  2  0
  2  4  1  0
  4  5  2  0
  4  6  1  0
  5  7  1  0
  5  8  1  0
  6  9  2  0
  9 10  1  0
  8 11  2  0
  9 11  1  0
  8 12  1  0
 12 13  1  0
 11 14  1  0
 13 14  2  0
 13 15  1  0
M  END
