mac-x0439-mac-x0344
     RDKit          3D

 23 25  0  0  0  0  0  0  0  0999 V2000
   -3.1320   15.8030   -5.3760 Cl  0  0  0  0  0  0  0  0  0  0  0  0
   -1.6580   16.7190   -5.4170 C   0  0  0  0  0  0  0  0  0  0  0  0
   -0.3960   16.0510   -5.1370 C   0  0  2  0  0  0  0  0  0  0  0  0
   -1.6100   18.0280   -5.7170 C   0  0  0  0  0  0  0  0  0  0  0  0
   -0.2480   14.7980   -4.5020 C   0  0  0  0  0  0  0  0  0  0  0  0
    0.7120   16.8500   -4.6910 C   0  0  0  0  0  0  0  0  0  0  0  0
   -0.3710   18.7640   -5.7460 C   0  0  0  0  0  0  0  0  0  0  0  0
    0.8780   14.8220   -3.8030 C   0  0  0  0  0  0  0  0  0  0  0  0
    1.4240   16.1240   -3.9330 N   0  0  0  0  0  0  0  0  0  0  0  0
    0.7480   18.2160   -5.2420 C   0  0  0  0  0  0  0  0  0  0  0  0
    1.3890   13.3880   -2.9540 S   0  0  0  0  0  0  0  0  0  0  0  0
    2.6380   13.2030   -3.6380 O   0  0  0  0  0  0  0  0  0  0  0  0
    1.9010   13.3990   -1.6550 O   0  0  0  0  0  0  0  0  0  0  0  0
   -0.0330   13.2390   -2.4140 O   0  0  0  0  0  0  0  0  0  0  0  0
    0.6360   11.8900   -3.8470 C   0  0  0  0  0  0  0  0  0  0  0  0
    0.3800   10.9560   -3.0600 O   0  0  0  0  0  0  0  0  0  0  0  0
    0.3600   11.8740   -5.2290 N   0  0  0  0  0  0  0  0  0  0  0  0
   -0.4650   10.9110   -5.9010 C   0  0  0  0  0  0  0  0  0  0  0  0
   -0.1690   10.3260   -7.1180 C   0  0  0  0  0  0  0  0  0  0  0  0
   -1.6790   10.5040   -5.3070 C   0  0  0  0  0  0  0  0  0  0  0  0
   -1.0290    9.3970   -7.6930 C   0  0  0  0  0  0  0  0  0  0  0  0
   -2.5220    9.5840   -5.8880 C   0  0  0  0  0  0  0  0  0  0  0  0
   -2.2030    9.0210   -7.0880 C   0  0  0  0  0  0  0  0  0  0  0  0
  1  2  1  0
  2  3  1  0
  2  4  2  0
  3  5  1  1
  3  6  1  0
  4  7  1  0
  5  8  2  0
  6  9  2  0
  8  9  1  0
  6 10  1  0
  7 10  2  0
  8 11  1  0
 11 12  1  0
 11 13  2  0
 11 14  1  0
 11 15  1  0
 15 16  2  0
 15 17  1  0
 17 18  1  0
 18 19  2  0
 18 20  1  0
 19 21  1  0
 20 22  2  0
 21 23  2  0
 22 23  1  0
M  END
