mac-x0271-mac-x0347
     RDKit          3D

 20 22  0  0  0  0  0  0  0  0999 V2000
   -4.1010   14.1560   -3.6100 O   0  0  0  0  0  0  0  0  0  0  0  0
   -4.4920   14.9030   -2.4590 C   0  0  2  0  0  0  0  0  0  0  0  0
   -3.4050   14.7430   -1.3530 C   0  0  1  0  0  0  0  0  0  0  0  0
   -5.9680   14.6120   -2.1500 C   0  0  0  0  0  0  0  0  0  0  0  0
   -6.3690   14.7190   -0.7220 C   0  0  0  0  0  0  0  0  0  0  0  0
   -3.9880   14.9380    0.1120 C   0  0  0  0  0  0  0  0  0  0  0  0
   -2.4060   13.5350   -1.5200 C   0  0  0  0  0  0  0  0  0  0  0  0
   -2.4590   15.8470   -1.7310 C   0  0  0  0  0  0  0  0  0  0  0  0
   -5.5090   14.8600    0.2850 C   0  0  0  0  0  0  0  0  0  0  0  0
   -7.7750   14.6470   -0.5280 O   0  0  0  0  0  0  0  0  0  0  0  0
   -1.3880   13.6530   -2.7220 C   0  0  2  0  0  0  0  0  0  0  0  0
   -2.3150   15.9440   -3.1870 N   0  0  0  0  0  0  0  0  0  0  0  0
    0.0920   13.7710   -2.3530 C   0  0  0  0  0  0  0  0  0  0  0  0
   -6.0720   14.9280    1.6140 C   0  0  0  0  0  0  0  0  0  0  0  0
   -8.3380   14.7140    0.7140 C   0  0  0  0  0  0  0  0  0  0  0  0
   -1.7280   14.7380   -3.7420 C   0  0  0  0  0  0  0  0  0  0  0  0
   -9.5530   14.6930    0.9000 O   0  0  0  0  0  0  0  0  0  0  0  0
    0.8420   14.2650   -3.3640 O   0  0  0  0  0  0  0  0  0  0  0  0
    0.6440   13.4750   -1.3130 O   0  0  0  0  0  0  0  0  0  0  0  0
   -7.3980   14.8450    1.8350 C   0  0  0  0  0  0  0  0  0  0  0  0
  2  1  1  6
  2  3  1  0
  2  4  1  0
  4  5  1  0
  3  6  1  1
  3  7  1  0
  3  8  1  0
  5  9  2  0
  6  9  1  0
  5 10  1  0
  7 11  1  0
  8 12  1  0
 11 13  1  1
  9 14  1  0
 10 15  1  0
 11 16  1  0
 12 16  1  0
 15 17  2  0
 13 18  1  0
 13 19  2  0
 14 20  2  0
 15 20  1  0
M  END
