mac-x0131-diamond-x0962_1_A
     RDKit          3D

 24 27  0  0  0  0  0  0  0  0999 V2000
   -3.4040   14.7870   -4.1230 C   0  0  0  0  0  0  0  0  0  0  0  0
   -2.8440   14.8200   -2.7390 C   0  0  0  0  0  0  0  0  0  0  0  0
   -3.5160   14.8340   -1.5190 C   0  0  0  0  0  0  0  0  0  0  0  0
   -1.4960   14.8200   -2.4700 N   0  0  0  0  0  0  0  0  0  0  0  0
   -4.9920   14.7780   -1.4350 C   0  0  2  0  0  0  0  0  0  0  0  0
   -0.4160   14.7700   -3.4490 C   0  0  0  0  0  0  0  0  0  0  0  0
   -2.5380   14.8900   -0.4830 C   0  0  0  0  0  0  0  0  0  0  0  0
   -1.2990   14.8600   -1.1100 C   0  0  0  0  0  0  0  0  0  0  0  0
   -5.4840   15.5470   -2.5290 N   0  0  0  0  0  0  0  0  0  0  0  0
   -2.5280   14.9600    0.9200 C   0  0  0  0  0  0  0  0  0  0  0  0
   -0.1060   14.8690   -0.5030 N   0  0  0  0  0  0  0  0  0  0  0  0
   -0.2910   13.3320   -3.7860 C   0  0  0  0  0  0  0  0  0  0  0  0
   -5.7490   15.0570   -0.1340 C   0  0  2  0  0  0  0  0  0  0  0  0
   -3.6570   15.0470    1.7070 N   0  0  0  0  0  0  0  0  0  0  0  0
   -1.3600   14.9630    1.5640 N   0  0  0  0  0  0  0  0  0  0  0  0
   -0.2410   14.9210    0.8320 C   0  0  0  0  0  0  0  0  0  0  0  0
    0.5240   12.3060   -3.3520 C   0  0  0  0  0  0  0  0  0  0  0  0
   -1.1690   12.8590   -4.7180 O   0  0  0  0  0  0  0  0  0  0  0  0
   -5.6160   14.1010    0.9840 N   0  0  0  0  0  0  0  0  0  0  0  0
   -7.2510   15.0520   -0.3810 C   0  0  0  0  0  0  0  0  0  0  0  0
   -0.9220   11.5370   -4.8700 C   0  0  0  0  0  0  0  0  0  0  0  0
    0.0970   11.1480   -4.0530 C   0  0  0  0  0  0  0  0  0  0  0  0
   -6.7690   14.3610    1.8160 C   0  0  0  0  0  0  0  0  0  0  0  0
   -7.8530   14.6930    0.9120 N   0  0  0  0  0  0  0  0  0  0  0  0
  1  2  1  0
  2  3  2  0
  2  4  1  0
  3  5  1  0
  4  6  1  0
  3  7  1  0
  4  8  1  0
  7  8  2  0
  5  9  1  6
  7 10  1  0
  8 11  1  0
  6 12  1  0
  5 13  1  0
 10 14  1  0
 10 15  2  0
 11 16  2  0
 15 16  1  0
 12 17  2  0
 12 18  1  0
 13 19  1  0
 13 20  1  6
 18 21  1  0
 17 22  1  0
 21 22  2  0
 19 23  1  0
 20 24  1  0
 23 24  1  0
M  END
