mac-x0404-mac-x0333
     RDKit          3D

 25 28  0  0  0  0  0  0  0  0999 V2000
    1.2140   13.0520   -2.1490 O   0  0  0  0  0  0  0  0  0  0  0  0
    1.1150   12.1800   -3.1740 C   0  0  0  0  0  0  0  0  0  0  0  0
    0.5020   11.1400   -3.0030 O   0  0  0  0  0  0  0  0  0  0  0  0
    1.8270   12.6440   -4.4500 C   0  0  0  0  0  0  0  0  0  0  0  0
    1.5550   13.9660   -4.9330 O   0  0  0  0  0  0  0  0  0  0  0  0
    0.2820   14.4050   -4.7030 C   0  0  0  0  0  0  0  0  0  0  0  0
   -0.0260   15.7570   -4.9370 C   0  0  0  0  0  0  0  0  0  0  0  0
   -0.6610   13.5020   -4.2440 C   0  0  0  0  0  0  0  0  0  0  0  0
   -1.3290   16.2120   -4.6820 C   0  0  0  0  0  0  0  0  0  0  0  0
   -1.9350   13.9360   -3.9740 C   0  0  0  0  0  0  0  0  0  0  0  0
    0.9350   16.6580   -5.4130 C   0  0  0  0  0  0  0  0  0  0  0  0
   -2.2660   15.2620   -4.1710 C   0  0  0  0  0  0  0  0  0  0  0  0
   -1.6050   17.5700   -4.9450 C   0  0  0  0  0  0  0  0  0  0  0  0
    0.6460   17.9920   -5.6550 C   0  0  0  0  0  0  0  0  0  0  0  0
   -3.5430   15.5920   -3.8240 O   0  0  0  0  0  0  0  0  0  0  0  0
   -0.6370   18.4480   -5.4240 C   0  0  0  0  0  0  0  0  0  0  0  0
   -3.9630   15.3660   -2.4870 C   0  0  0  0  0  0  0  0  0  0  0  0
   -5.3450   15.2820   -2.3410 C   0  0  0  0  0  0  0  0  0  0  0  0
   -3.1440   15.2270   -1.3270 C   0  0  0  0  0  0  0  0  0  0  0  0
   -5.8720   15.0850   -1.0940 C   0  0  0  0  0  0  0  0  0  0  0  0
   -3.7180   15.0270   -0.0510 C   0  0  0  0  0  0  0  0  0  0  0  0
   -5.0910   14.9650    0.0230 C   0  0  0  0  0  0  0  0  0  0  0  0
   -7.1970   14.9850   -0.8070 O   0  0  0  0  0  0  0  0  0  0  0  0
   -5.8450   14.7850    1.1390 O   0  0  0  0  0  0  0  0  0  0  0  0
   -7.1180   14.4940    0.5390 C   0  0  0  0  0  0  0  0  0  0  0  0
  1  2  1  0
  2  3  2  0
  2  4  1  0
  4  5  1  0
  5  6  1  0
  6  7  2  0
  6  8  1  0
  7  9  1  0
  8 10  2  0
  7 11  1  0
  9 12  2  0
 10 12  1  0
  9 13  1  0
 11 14  2  0
 12 15  1  0
 13 16  2  0
 14 16  1  0
 15 17  1  0
 17 18  2  0
 17 19  1  0
 18 20  1  0
 19 21  2  0
 20 22  2  0
 21 22  1  0
 20 23  1  0
 22 24  1  0
 23 25  1  0
 24 25  1  0
M  END
