mac-x0306-mac-x0301
     RDKit          3D

 18 20  0  0  0  0  0  0  0  0999 V2000
   -0.2610   14.7940   -2.5740 O   0  0  0  0  0  0  0  0  0  0  0  0
   -1.5310   14.5510   -2.9710 C   0  0  0  0  0  0  0  0  0  0  0  0
   -1.6670   14.2650   -4.1570 O   0  0  0  0  0  0  0  0  0  0  0  0
   -2.5780   14.6430   -2.0020 N   0  0  0  0  0  0  0  0  0  0  0  0
   -3.8570   14.8830   -2.5150 C   0  0  0  0  0  0  0  0  0  0  0  0
   -2.3380   14.7730   -0.5220 C   0  0  1  0  0  0  0  0  0  0  0  0
   -4.9410   15.2010   -1.7930 C   0  0  0  0  0  0  0  0  0  0  0  0
   -3.6500   14.8570    0.3540 C   0  0  0  0  0  0  0  0  0  0  0  0
   -1.6700   13.6080    0.0610 O   0  0  0  0  0  0  0  0  0  0  0  0
   -1.2880   15.8460   -0.2280 C   0  0  0  0  0  0  0  0  0  0  0  0
   -4.9570   15.3590   -0.3040 C   0  0  2  0  0  0  0  0  0  0  0  0
   -0.0410   15.1790   -0.0870 O   0  0  0  0  0  0  0  0  0  0  0  0
   -0.4530   14.0760    0.6610 C   0  0  0  0  0  0  0  0  0  0  0  0
   -6.2450   14.9110    0.3850 C   0  0  0  0  0  0  0  0  0  0  0  0
   -6.3680   14.5440    1.7150 N   0  0  0  0  0  0  0  0  0  0  0  0
   -7.4330   14.8250   -0.1980 N   0  0  0  0  0  0  0  0  0  0  0  0
   -8.3190   14.4110    0.7610 C   0  0  0  0  0  0  0  0  0  0  0  0
   -7.6760   14.2310    1.9560 C   0  0  0  0  0  0  0  0  0  0  0  0
  1  2  1  0
  2  3  2  0
  2  4  1  0
  4  5  1  0
  4  6  1  0
  5  7  2  0
  6  8  1  1
  6  9  1  0
  6 10  1  0
  7 11  1  0
  8 11  1  0
 10 12  1  0
  9 13  1  0
 12 13  1  0
 11 14  1  1
 14 15  1  0
 14 16  2  0
 16 17  1  0
 15 18  1  0
 17 18  2  0
M  END
