mac-x0178-mac-x0319
     RDKit          3D

 15 15  0  0  0  0  0  0  0  0999 V2000
   -0.3410   18.1590   -6.4590 N   0  0  0  0  0  0  0  0  0  0  0  0
   -1.6600   17.5230   -5.6300 S   0  0  0  0  0  0  0  0  0  0  0  0
   -2.5740   17.1120   -6.6740 O   0  0  0  0  0  0  0  0  0  0  0  0
   -1.9700   18.5500   -4.6710 O   0  0  0  0  0  0  0  0  0  0  0  0
   -1.0120   16.1100   -4.7770 C   0  0  0  0  0  0  0  0  0  0  0  0
    0.2350   16.1790   -4.1280 C   0  0  0  0  0  0  0  0  0  0  0  0
   -1.7460   14.9160   -4.7420 C   0  0  0  0  0  0  0  0  0  0  0  0
    0.9820   17.3280   -4.1460 O   0  0  0  0  0  0  0  0  0  0  0  0
    0.7280   15.0630   -3.4460 C   0  0  0  0  0  0  0  0  0  0  0  0
   -1.2500   13.8000   -4.0590 C   0  0  0  0  0  0  0  0  0  0  0  0
   -0.0140   13.8690   -3.4040 C   0  0  0  0  0  0  0  0  0  0  0  0
    0.5540   12.7200   -2.6540 C   0  0  0  0  0  0  0  0  0  0  0  0
    1.6300   12.7450   -2.0870 O   0  0  0  0  0  0  0  0  0  0  0  0
   -0.2790   11.6390   -2.6610 O   0  0  0  0  0  0  0  0  0  0  0  0
    0.5250   10.4250   -2.4290 O   0  0  0  0  0  0  0  0  0  0  0  0
  2  1  1  0
  2  3  2  0
  2  4  2  0
  2  5  1  0
  5  6  2  0
  5  7  1  0
  6  8  1  0
  6  9  1  0
  7 10  2  0
  9 11  2  0
 10 11  1  0
 11 12  1  0
 12 13  2  0
 12 14  1  0
 14 15  1  0
M  END
