mac-x0321-mac-x0546
     RDKit          3D

 26 28  0  0  0  0  0  0  0  0999 V2000
   -4.4330   15.5620    1.7110 Cl  0  0  0  0  0  0  0  0  0  0  0  0
   -4.3820   15.3510    0.0240 C   0  0  0  0  0  0  0  0  0  0  0  0
   -3.1770   15.0120   -0.5360 C   0  0  0  0  0  0  0  0  0  0  0  0
   -5.5190   15.5170   -0.7620 C   0  0  0  0  0  0  0  0  0  0  0  0
   -3.0800   14.8340   -1.9000 C   0  0  0  0  0  0  0  0  0  0  0  0
   -5.4320   15.3410   -2.1340 C   0  0  0  0  0  0  0  0  0  0  0  0
   -1.7520   14.4680   -2.4200 C   0  0  0  0  0  0  0  0  0  0  0  0
   -4.2110   15.0010   -2.7110 C   0  0  0  0  0  0  0  0  0  0  0  0
   -0.7850   14.7700   -1.5090 O   0  0  0  0  0  0  0  0  0  0  0  0
   -1.6080   13.9580   -3.5100 O   0  0  0  0  0  0  0  0  0  0  0  0
    0.5250   14.1890   -1.6780 C   0  0  0  0  0  0  0  0  0  0  0  0
    0.5600   12.7270   -1.6670 N   0  0  0  0  0  0  0  0  0  0  0  0
    0.4080   12.0850   -2.7750 C   0  0  0  0  0  0  0  0  0  0  0  0
    0.1820   12.6030   -4.1960 C   0  0  0  0  0  0  0  0  0  0  0  0
    0.4350   10.7360   -2.7010 O   0  0  0  0  0  0  0  0  0  0  0  0
    0.4810   14.0500   -4.4240 C   0  0  0  0  0  0  0  0  0  0  0  0
   -0.5380   15.1520   -4.3120 C   0  0  2  0  0  0  0  0  0  0  0  0
    1.6360   14.6090   -4.7310 C   0  0  0  0  0  0  0  0  0  0  0  0
   -1.8170   15.1860   -5.0720 C   0  0  0  0  0  0  0  0  0  0  0  0
    0.3470   16.2820   -4.7370 C   0  0  0  0  0  0  0  0  0  0  0  0
    1.5720   15.9660   -4.9230 N   0  0  0  0  0  0  0  0  0  0  0  0
   -2.3000   16.3680   -5.4880 C   0  0  0  0  0  0  0  0  0  0  0  0
   -0.2580   17.6200   -4.8680 C   0  0  0  0  0  0  0  0  0  0  0  0
   -3.4690   16.5530   -6.1650 O   0  0  0  0  0  0  0  0  0  0  0  0
   -1.5580   17.6060   -5.2340 C   0  0  0  0  0  0  0  0  0  0  0  0
   -4.3670   15.4410   -6.1830 C   0  0  0  0  0  0  0  0  0  0  0  0
  1  2  1  0
  2  3  2  0
  2  4  1  0
  3  5  1  0
  4  6  2  0
  5  7  1  0
  5  8  2  0
  6  8  1  0
  7  9  1  0
  7 10  2  0
  9 11  1  0
 11 12  1  0
 12 13  2  3
 13 14  1  0
 13 15  1  0
 14 16  1  0
 16 17  1  0
 16 18  2  0
 17 19  1  6
 17 20  1  0
 18 21  1  0
 20 21  2  0
 19 22  2  0
 20 23  1  0
 22 24  1  0
 22 25  1  0
 23 25  2  0
 24 26  1  0
M  END
