mac-x0124-diamond-x0962_1_A
     RDKit          3D

 17 19  0  0  0  0  0  0  0  0999 V2000
   -0.3200   14.4740   -3.1570 C   0  0  0  0  0  0  0  0  0  0  0  0
   -1.4110   14.7040   -2.2380 N   0  0  0  0  0  0  0  0  0  0  0  0
   -2.7100   14.9700   -2.5750 C   0  0  0  0  0  0  0  0  0  0  0  0
   -1.2820   14.6930   -0.8790 C   0  0  0  0  0  0  0  0  0  0  0  0
   -3.4470   15.1480   -1.4050 C   0  0  0  0  0  0  0  0  0  0  0  0
   -2.5280   14.9690   -0.3150 C   0  0  0  0  0  0  0  0  0  0  0  0
   -0.1400   14.4620   -0.2200 N   0  0  0  0  0  0  0  0  0  0  0  0
   -2.5710   15.0130    1.0860 C   0  0  0  0  0  0  0  0  0  0  0  0
   -0.3310   14.5210    1.1060 C   0  0  0  0  0  0  0  0  0  0  0  0
   -4.9060   15.4780   -1.3810 C   0  0  0  0  0  0  0  0  0  0  0  0
   -3.6980   15.3040    1.8420 N   0  0  0  0  0  0  0  0  0  0  0  0
   -1.4570   14.7730    1.7740 N   0  0  0  0  0  0  0  0  0  0  0  0
   -5.8060   14.9690   -0.3120 C   0  0  0  0  0  0  0  0  0  0  0  0
   -5.5000   14.8100    1.0160 N   0  0  0  0  0  0  0  0  0  0  0  0
   -7.1170   14.5700   -0.4010 C   0  0  0  0  0  0  0  0  0  0  0  0
   -6.6140   14.3380    1.6500 C   0  0  0  0  0  0  0  0  0  0  0  0
   -7.6120   14.1830    0.8120 N   0  0  0  0  0  0  0  0  0  0  0  0
  1  2  1  0
  2  3  1  0
  2  4  1  0
  3  5  2  0
  4  6  2  0
  5  6  1  0
  4  7  1  0
  6  8  1  0
  7  9  2  0
  5 10  1  0
  8 11  1  0
  8 12  2  0
  9 12  1  0
 10 13  1  0
 13 14  1  0
 13 15  2  0
 14 16  1  0
 15 17  1  0
 16 17  2  0
M  END
