mac-x0417-mac-x0439
     RDKit          3D

 25 28  0  0  0  0  0  0  0  0999 V2000
    1.7210   12.6930   -2.8840 N   0  0  0  0  0  0  0  0  0  0  0  0
    0.7660   12.0220   -3.5800 C   0  0  0  0  0  0  0  0  0  0  0  0
    0.3290   10.9340   -3.2050 O   0  0  0  0  0  0  0  0  0  0  0  0
    1.8200   13.9790   -2.9490 C   0  0  0  0  0  0  0  0  0  0  0  0
    0.3030   12.6740   -4.8660 C   0  0  0  0  0  0  0  0  0  0  0  0
    2.8030   14.6070   -2.2590 O   0  0  0  0  0  0  0  0  0  0  0  0
    1.0150   15.0130   -3.6850 C   0  0  0  0  0  0  0  0  0  0  0  0
    0.2800   11.6860   -5.9560 C   0  0  0  0  0  0  0  0  0  0  0  0
   -0.3220   15.1100   -3.7770 C   0  0  0  0  0  0  0  0  0  0  0  0
    1.6710   16.0240   -4.3490 N   0  0  0  0  0  0  0  0  0  0  0  0
    1.2970   11.6020   -6.8120 N   0  0  0  0  0  0  0  0  0  0  0  0
   -0.7210   10.7450   -6.2440 C   0  0  0  0  0  0  0  0  0  0  0  0
   -0.6200   16.3680   -4.5250 C   0  0  1  0  0  0  0  0  0  0  0  0
    0.7540   16.7870   -4.8610 C   0  0  0  0  0  0  0  0  0  0  0  0
    0.9560   10.5780   -7.6940 O   0  0  0  0  0  0  0  0  0  0  0  0
   -0.2520   10.0680   -7.3430 C   0  0  0  0  0  0  0  0  0  0  0  0
   -1.9470   10.3960   -5.7050 C   0  0  0  0  0  0  0  0  0  0  0  0
   -1.6640   16.6820   -5.5170 C   0  0  0  0  0  0  0  0  0  0  0  0
    0.9000   18.0370   -5.6490 C   0  0  0  0  0  0  0  0  0  0  0  0
   -3.1180   15.7590   -5.5220 Cl  0  0  0  0  0  0  0  0  0  0  0  0
   -0.9420    9.0290   -7.9650 C   0  0  0  0  0  0  0  0  0  0  0  0
   -2.6800    9.3600   -6.2860 C   0  0  0  0  0  0  0  0  0  0  0  0
   -1.4490   17.7010   -6.3610 C   0  0  0  0  0  0  0  0  0  0  0  0
   -0.1910   18.4410   -6.3400 C   0  0  0  0  0  0  0  0  0  0  0  0
   -2.1810    8.6850   -7.4050 C   0  0  0  0  0  0  0  0  0  0  0  0
  1  2  1  0
  2  3  2  0
  1  4  2  3
  2  5  1  0
  4  6  1  0
  4  7  1  0
  5  8  1  0
  7  9  2  0
  7 10  1  0
  8 11  2  0
  8 12  1  0
 13  9  1  6
 10 14  2  0
 13 14  1  0
 11 15  1  0
 12 16  2  0
 15 16  1  0
 12 17  1  0
 13 18  1  0
 14 19  1  0
 18 20  1  0
 16 21  1  0
 17 22  2  0
 18 23  2  0
 19 24  2  0
 23 24  1  0
 21 25  2  0
 22 25  1  0
M  END
