mac-x0328-mac-x0358
     RDKit          3D

 22 23  0  0  0  0  0  0  0  0999 V2000
   -1.6840   14.9980   -3.3350 O   0  0  0  0  0  0  0  0  0  0  0  0
   -1.8390   14.7330   -2.0430 C   0  0  0  0  0  0  0  0  0  0  0  0
   -0.8060   14.4150   -1.3460 N   0  0  0  0  0  0  0  0  0  0  0  0
   -3.2510   14.8860   -1.6790 C   0  0  0  0  0  0  0  0  0  0  0  0
    0.5230   14.3590   -1.9850 C   0  0  0  0  0  0  0  0  0  0  0  0
   -3.5930   14.8640   -0.3260 C   0  0  0  0  0  0  0  0  0  0  0  0
   -4.2370   15.0520   -2.6570 C   0  0  0  0  0  0  0  0  0  0  0  0
    1.1740   13.0760   -2.0420 O   0  0  0  0  0  0  0  0  0  0  0  0
   -4.9200   15.0050    0.0590 C   0  0  0  0  0  0  0  0  0  0  0  0
   -5.5680   15.1940   -2.2680 C   0  0  0  0  0  0  0  0  0  0  0  0
    0.7980   12.2660   -3.0690 C   0  0  0  0  0  0  0  0  0  0  0  0
   -5.8990   15.1690   -0.9180 C   0  0  0  0  0  0  0  0  0  0  0  0
   -7.2140   15.3100   -0.5910 O   0  0  0  0  0  0  0  0  0  0  0  0
    0.4530   11.0980   -2.9250 O   0  0  0  0  0  0  0  0  0  0  0  0
    0.8640   12.9950   -4.4040 C   0  0  0  0  0  0  0  0  0  0  0  0
   -0.4910   13.4820   -4.8770 C   0  0  0  0  0  0  0  0  0  0  0  0
   -1.5140   12.6010   -5.2510 C   0  0  0  0  0  0  0  0  0  0  0  0
   -0.7570   14.8650   -4.9470 C   0  0  0  0  0  0  0  0  0  0  0  0
   -1.3470   11.2420   -5.2190 O   0  0  0  0  0  0  0  0  0  0  0  0
   -2.7590   13.0690   -5.6740 C   0  0  0  0  0  0  0  0  0  0  0  0
   -2.0100   15.3420   -5.3690 C   0  0  0  0  0  0  0  0  0  0  0  0
   -3.0080   14.4400   -5.7330 C   0  0  0  0  0  0  0  0  0  0  0  0
  1  2  1  0
  2  3  2  3
  2  4  1  0
  3  5  1  0
  4  6  2  0
  4  7  1  0
  5  8  1  0
  6  9  1  0
  7 10  2  0
  8 11  1  0
  9 12  2  0
 10 12  1  0
 12 13  1  0
 11 14  2  0
 11 15  1  0
 15 16  1  0
 16 17  2  0
 16 18  1  0
 17 19  1  0
 17 20  1  0
 18 21  2  0
 20 22  2  0
 21 22  1  0
M  END
