mac-x0301-mac-x0387
     RDKit          3D

 13 14  0  0  0  0  0  0  0  0999 V2000
    0.6090   14.6780   -2.9030 O   0  0  0  0  0  0  0  0  0  0  0  0
   -0.6490   14.6490   -3.3840 C   0  0  0  0  0  0  0  0  0  0  0  0
   -0.9260   14.4870   -4.5540 O   0  0  0  0  0  0  0  0  0  0  0  0
   -1.6530   14.8140   -2.3280 C   0  0  0  0  0  0  0  0  0  0  0  0
   -1.3630   14.6000   -0.9910 C   0  0  0  0  0  0  0  0  0  0  0  0
   -2.9620   15.1980   -2.6740 C   0  0  0  0  0  0  0  0  0  0  0  0
   -2.3560   14.7430   -0.0480 C   0  0  0  0  0  0  0  0  0  0  0  0
   -3.9460   15.3560   -1.6900 C   0  0  0  0  0  0  0  0  0  0  0  0
   -0.1770   14.2360   -0.3860 O   0  0  0  0  0  0  0  0  0  0  0  0
   -3.6370   15.1230   -0.3620 C   0  0  0  0  0  0  0  0  0  0  0  0
   -1.9140   14.4600    1.2140 N   0  0  0  0  0  0  0  0  0  0  0  0
   -0.4510   14.6330    0.9930 C   0  0  0  0  0  0  0  0  0  0  0  0
   -2.8020   14.9750    2.1660 N   0  0  0  0  0  0  0  0  0  0  0  0
  1  2  1  0
  2  3  2  0
  2  4  1  0
  4  5  2  0
  4  6  1  0
  5  7  1  0
  6  8  2  0
  5  9  1  0
  7 10  2  0
  8 10  1  0
  7 11  1  0
  9 12  1  0
 11 12  1  0
 11 13  1  0
M  END
