mac-x0283-mac-x0546
     RDKit          3D

 27 30  0  0  0  0  0  0  0  0999 V2000
   -6.8380   14.9110    2.3880 N   0  0  0  0  0  0  0  0  0  0  0  0
   -6.5590   14.6500    1.0900 C   0  0  0  0  0  0  0  0  0  0  0  0
   -7.4360   14.2690    0.1640 N   0  0  0  0  0  0  0  0  0  0  0  0
   -5.2500   14.7510    0.5710 C   0  0  0  0  0  0  0  0  0  0  0  0
   -6.6900   14.0910   -1.0010 O   0  0  0  0  0  0  0  0  0  0  0  0
   -5.3720   14.3720   -0.7550 C   0  0  0  0  0  0  0  0  0  0  0  0
   -3.9950   15.1080    1.0750 C   0  0  0  0  0  0  0  0  0  0  0  0
   -4.2770   14.2990   -1.6570 C   0  0  0  0  0  0  0  0  0  0  0  0
   -2.9030   15.0670    0.2190 C   0  0  0  0  0  0  0  0  0  0  0  0
   -4.3260   13.8590   -3.0980 C   0  0  0  0  0  0  0  0  0  0  0  0
   -3.0430   14.6710   -1.1090 C   0  0  0  0  0  0  0  0  0  0  0  0
   -4.7260   15.0350   -3.9390 C   0  0  0  0  0  0  0  0  0  0  0  0
   -3.8200   15.5100   -5.0590 N   0  0  0  0  0  0  0  0  0  0  0  0
   -4.3440   15.1550   -6.3660 C   0  0  0  0  0  0  0  0  0  0  0  0
   -2.4780   15.7540   -4.7940 C   0  0  0  0  0  0  0  0  0  0  0  0
   -1.7510   14.7300   -4.3640 C   0  0  0  0  0  0  0  0  0  0  0  0
   -1.8290   17.0890   -4.9280 C   0  0  0  0  0  0  0  0  0  0  0  0
   -0.3540   14.8880   -3.9670 C   0  0  2  0  0  0  0  0  0  0  0  0
   -0.4910   17.2920   -4.8480 C   0  0  0  0  0  0  0  0  0  0  0  0
    0.2950   16.0680   -4.6380 C   0  0  0  0  0  0  0  0  0  0  0  0
    0.7320   13.9120   -4.2040 C   0  0  0  0  0  0  0  0  0  0  0  0
    0.7350   12.4490   -3.9460 C   0  0  0  0  0  0  0  0  0  0  0  0
    1.5230   15.8910   -4.9600 N   0  0  0  0  0  0  0  0  0  0  0  0
    1.7540   14.5610   -4.6890 C   0  0  0  0  0  0  0  0  0  0  0  0
    0.2980   11.9940   -2.5810 C   0  0  0  0  0  0  0  0  0  0  0  0
    0.5160   12.5210   -1.4980 O   0  0  0  0  0  0  0  0  0  0  0  0
   -0.4000   10.8490   -2.6740 O   0  0  0  0  0  0  0  0  0  0  0  0
  1  2  1  0
  2  3  2  0
  2  4  1  0
  3  5  1  0
  4  6  2  0
  5  6  1  0
  4  7  1  0
  6  8  1  0
  7  9  2  0
  8 10  1  0
  8 11  2  0
  9 11  1  0
 10 12  1  0
 12 13  1  0
 13 14  1  0
 13 15  1  0
 15 16  2  0
 15 17  1  0
 18 16  1  6
 17 19  2  0
 18 20  1  0
 19 20  1  0
 18 21  1  0
 21 22  1  0
 20 23  2  0
 21 24  2  0
 23 24  1  0
 22 25  1  0
 25 26  2  0
 25 27  1  0
M  END
