mac-x0301-mac-x0348
     RDKit          3D

 25 28  0  0  0  0  0  0  0  0999 V2000
    0.1920   15.0320   -3.2260 O   0  0  0  0  0  0  0  0  0  0  0  0
   -0.6120   13.9040   -2.9480 C   0  0  1  0  0  0  0  0  0  0  0  0
   -1.3980   13.5560   -4.0920 O   0  0  0  0  0  0  0  0  0  0  0  0
    0.0580   15.5320   -4.5480 C   0  0  2  0  0  0  0  0  0  0  0  0
    0.3230   12.6750   -2.5700 C   0  0  0  0  0  0  0  0  0  0  0  0
   -1.5480   14.3980   -1.8470 C   0  0  0  0  0  0  0  0  0  0  0  0
    0.8620   16.8450   -4.6710 C   0  0  0  0  0  0  0  0  0  0  0  0
   -1.3680   15.9970   -4.8290 C   0  0  1  0  0  0  0  0  0  0  0  0
    1.4190   12.7000   -2.0360 O   0  0  0  0  0  0  0  0  0  0  0  0
   -0.2000   11.4600   -2.9000 O   0  0  0  0  0  0  0  0  0  0  0  0
   -1.1850   14.3760   -0.5180 C   0  0  0  0  0  0  0  0  0  0  0  0
   -2.8460   14.9180   -2.1140 C   0  0  0  0  0  0  0  0  0  0  0  0
   -0.0680   17.9490   -5.0250 N   0  0  0  0  0  0  0  0  0  0  0  0
   -1.0670   17.2080   -5.7390 C   0  0  2  0  0  0  0  0  0  0  0  0
   -2.4240   15.0810   -5.3950 C   0  0  0  0  0  0  0  0  0  0  0  0
    0.6570   18.7280   -6.0130 C   0  0  0  0  0  0  0  0  0  0  0  0
   -2.0060   14.8220    0.5030 C   0  0  0  0  0  0  0  0  0  0  0  0
   -3.6940   15.3740   -1.0750 C   0  0  0  0  0  0  0  0  0  0  0  0
   -0.0030   13.9230   -0.0450 O   0  0  0  0  0  0  0  0  0  0  0  0
   -3.3660   15.5820   -6.2040 C   0  0  0  0  0  0  0  0  0  0  0  0
   -2.3130   17.7950   -6.3160 C   0  0  0  0  0  0  0  0  0  0  0  0
   -3.2690   15.3260    0.2600 C   0  0  0  0  0  0  0  0  0  0  0  0
   -1.4100   14.7020    1.7290 O   0  0  0  0  0  0  0  0  0  0  0  0
   -0.0800   14.3690    1.3190 C   0  0  0  0  0  0  0  0  0  0  0  0
   -3.3760   16.9930   -6.5400 C   0  0  0  0  0  0  0  0  0  0  0  0
  2  1  1  0
  2  3  1  6
  4  1  1  1
  2  5  1  0
  2  6  1  0
  4  7  1  0
  4  8  1  0
  5  9  2  0
  5 10  1  0
  6 11  1  0
  6 12  2  0
  7 13  1  0
  8 14  1  0
 13 14  1  0
  8 15  1  6
 13 16  1  0
 11 17  2  0
 12 18  1  0
 11 19  1  0
 15 20  2  0
 14 21  1  1
 17 22  1  0
 18 22  2  0
 17 23  1  0
 19 24  1  0
 23 24  1  0
 20 25  1  0
 21 25  2  0
M  END
