mac-x0385-mac-x0123
     RDKit          3D

 21 24  0  0  0  0  0  0  0  0999 V2000
   -4.8770   15.9950   -0.9510 C   0  0  0  0  0  0  0  0  0  0  0  0
   -3.5000   15.7150   -0.4090 C   0  0  0  0  0  0  0  0  0  0  0  0
   -2.3770   15.8750   -1.1740 C   0  0  0  0  0  0  0  0  0  0  0  0
   -3.2990   15.2700    0.8840 C   0  0  0  0  0  0  0  0  0  0  0  0
   -4.4760   15.1070    1.6020 N   0  0  0  0  0  0  0  0  0  0  0  0
   -2.0970   14.9990    1.4000 N   0  0  0  0  0  0  0  0  0  0  0  0
   -1.1560   15.6160   -0.7240 N   0  0  0  0  0  0  0  0  0  0  0  0
   -1.0880   15.1870    0.5420 C   0  0  0  0  0  0  0  0  0  0  0  0
   -5.4760   14.5880    0.8000 C   0  0  0  0  0  0  0  0  0  0  0  0
    0.2390   14.8790    1.0220 C   0  0  0  0  0  0  0  0  0  0  0  0
   -5.1330   14.1900   -0.5450 N   0  0  0  0  0  0  0  0  0  0  0  0
   -6.7380   14.4390    1.1740 C   0  0  0  0  0  0  0  0  0  0  0  0
   -6.1060   13.7240   -1.4450 C   0  0  0  0  0  0  0  0  0  0  0  0
   -7.6810   13.9320    0.1450 C   0  0  0  0  0  0  0  0  0  0  0  0
   -7.5100   14.6810    2.4260 C   0  0  0  0  0  0  0  0  0  0  0  0
   -3.9190   14.1700   -1.1890 N   0  0  0  0  0  0  0  0  0  0  0  0
   -7.4190   13.6070   -1.0830 N   0  0  0  0  0  0  0  0  0  0  0  0
   -9.0480   13.8600    0.7370 C   0  0  0  0  0  0  0  0  0  0  0  0
   -8.7060   13.7590    2.2250 C   0  0  0  0  0  0  0  0  0  0  0  0
   -5.5380   13.4430   -2.6050 N   0  0  0  0  0  0  0  0  0  0  0  0
   -4.2290   13.7270   -2.3990 C   0  0  0  0  0  0  0  0  0  0  0  0
  1  2  1  0
  2  3  2  0
  2  4  1  0
  4  5  1  0
  4  6  2  0
  3  7  1  0
  6  8  1  0
  7  8  2  0
  5  9  1  0
  8 10  1  0
  9 11  1  0
  9 12  2  0
 11 13  1  0
 12 14  1  0
 12 15  1  0
 11 16  1  0
 13 17  1  0
 14 17  2  0
 14 18  1  0
 15 19  1  0
 18 19  1  0
 13 20  2  0
 16 21  2  0
 20 21  1  0
M  END
