mac-x0472-diamond-x0962_2_B
     RDKit          3D

 24 26  0  0  0  0  0  0  0  0999 V2000
   -4.3820   15.4660   -2.5490 O   0  0  0  0  0  0  0  0  0  0  0  0
   -3.3040   14.5080   -2.6390 S   0  0  0  0  0  0  0  0  0  0  0  0
   -2.4980   14.4180   -3.8370 O   0  0  0  0  0  0  0  0  0  0  0  0
   -2.2540   14.8050   -1.3470 N   0  0  0  0  0  0  0  0  0  0  0  0
   -4.0210   12.8820   -2.3810 C   0  0  0  0  0  0  0  0  0  0  0  0
   -2.9470   14.5850   -0.1150 C   0  0  0  0  0  0  0  0  0  0  0  0
   -3.2390   11.7360   -2.5850 C   0  0  0  0  0  0  0  0  0  0  0  0
   -5.3620   12.7560   -1.9810 C   0  0  0  0  0  0  0  0  0  0  0  0
   -2.3960   14.6360    1.0790 N   0  0  0  0  0  0  0  0  0  0  0  0
   -4.5850   14.2120   -0.1360 S   0  0  0  0  0  0  0  0  0  0  0  0
   -3.8020   10.4750   -2.3910 C   0  0  0  0  0  0  0  0  0  0  0  0
   -5.9140   11.4910   -1.7870 C   0  0  0  0  0  0  0  0  0  0  0  0
   -4.5360   14.0550    1.5460 C   0  0  0  0  0  0  0  0  0  0  0  0
   -3.3350   14.3240    2.0670 N   0  0  0  0  0  0  0  0  0  0  0  0
   -5.1380   10.3540   -1.9950 C   0  0  0  0  0  0  0  0  0  0  0  0
   -5.8410   13.6090    2.1700 C   0  0  0  0  0  0  0  0  0  0  0  0
   -6.3270   14.3560    3.3890 C   0  0  0  0  0  0  0  0  0  0  0  0
   -7.5820   15.0000    3.2980 N   0  0  0  0  0  0  0  0  0  0  0  0
   -8.1410   15.7150    4.3100 C   0  0  0  0  0  0  0  0  0  0  0  0
   -8.3890   15.0180    2.2270 C   0  0  0  0  0  0  0  0  0  0  0  0
   -9.4400   15.7840    2.6290 C   0  0  0  0  0  0  0  0  0  0  0  0
   -9.2900   16.2150    3.9290 N   0  0  0  0  0  0  0  0  0  0  0  0
  -10.5540   16.1140    1.8200 C   0  0  0  0  0  0  0  0  0  0  0  0
  -11.4220   16.3920    1.1090 N   0  0  0  0  0  0  0  0  0  0  0  0
  1  2  2  0
  2  3  2  0
  2  4  1  0
  2  5  1  0
  4  6  1  0
  5  7  2  0
  5  8  1  0
  6  9  2  0
  6 10  1  0
  7 11  1  0
  8 12  2  0
 10 13  1  0
  9 14  1  0
 13 14  2  0
 11 15  2  0
 12 15  1  0
 13 16  1  0
 16 17  1  0
 17 18  1  0
 18 19  1  0
 18 20  1  0
 20 21  2  0
 19 22  2  0
 21 22  1  0
 21 23  1  0
 23 24  3  0
M  END
