mac-x0415-mac-x0255
     RDKit          3D

 14 15  0  0  0  0  0  0  0  0999 V2000
   -0.0150   11.0990   -3.1450 O   0  0  0  0  0  0  0  0  0  0  0  0
    0.7890   12.1810   -3.1470 C   0  0  0  0  0  0  0  0  0  0  0  0
    1.2440   12.5950   -2.0980 O   0  0  0  0  0  0  0  0  0  0  0  0
    1.0060   12.7590   -4.5340 C   0  0  0  0  0  0  0  0  0  0  0  0
    0.7570   14.2120   -4.5030 C   0  0  0  0  0  0  0  0  0  0  0  0
    1.7750   15.2420   -4.3070 C   0  0  0  0  0  0  0  0  0  0  0  0
   -0.3200   14.9730   -4.6480 C   0  0  0  0  0  0  0  0  0  0  0  0
    1.4100   16.4870   -4.3140 N   0  0  0  0  0  0  0  0  0  0  0  0
   -0.0140   16.4040   -4.4370 C   0  0  1  0  0  0  0  0  0  0  0  0
   -1.6810   14.6430   -4.9320 C   0  0  0  0  0  0  0  0  0  0  0  0
   -0.7700   17.3530   -5.3010 C   0  0  0  0  0  0  0  0  0  0  0  0
   -2.4680   15.5920   -5.4840 C   0  0  0  0  0  0  0  0  0  0  0  0
   -4.2270   15.1760   -5.9170 Br  0  0  0  0  0  0  0  0  0  0  0  0
   -1.9620   16.9470   -5.7830 C   0  0  0  0  0  0  0  0  0  0  0  0
  1  2  1  0
  2  3  2  0
  2  4  1  0
  4  5  1  0
  5  6  1  0
  5  7  2  0
  6  8  2  0
  7  9  1  0
  8  9  1  0
  7 10  1  0
  9 11  1  6
 10 12  2  0
 12 13  1  0
 11 14  2  0
 12 14  1  0
M  END
