mac-x0588-diamond-x0587_0_A
     RDKit          3D

 28 31  0  0  0  0  0  0  0  0999 V2000
   -3.8070   14.6340    0.9870 N   0  0  0  0  0  0  0  0  0  0  0  0
   -3.3110   15.5800    0.0100 C   0  0  1  0  0  0  0  0  0  0  0  0
   -1.7940   15.5840    0.0350 C   0  0  2  0  0  0  0  0  0  0  0  0
   -3.8470   15.3890   -1.3140 N   0  0  0  0  0  0  0  0  0  0  0  0
   -2.8780   15.4740   -2.4010 C   0  0  0  0  0  0  0  0  0  0  0  0
   -1.2970   14.4820   -0.8570 C   0  0  1  0  0  0  0  0  0  0  0  0
   -1.2320   15.1400    1.3060 N   0  0  0  0  0  0  0  0  0  0  0  0
   -4.9980   14.5600   -1.5360 C   0  0  0  0  0  0  0  0  0  0  0  0
   -1.7290   14.5900   -2.2410 N   0  0  0  0  0  0  0  0  0  0  0  0
    0.1080   14.5550   -0.5510 N   0  0  0  0  0  0  0  0  0  0  0  0
    0.0860   14.7090    0.9010 C   0  0  0  0  0  0  0  0  0  0  0  0
   -4.5970   13.2890   -1.8720 F   0  0  0  0  0  0  0  0  0  0  0  0
   -5.5510   15.0290   -2.7000 F   0  0  0  0  0  0  0  0  0  0  0  0
   -6.0150   14.6010   -0.3830 C   0  0  0  0  0  0  0  0  0  0  0  0
   -0.6440   14.8280   -3.2300 C   0  0  0  0  0  0  0  0  0  0  0  0
   -7.3340   14.4350   -0.6070 N   0  0  0  0  0  0  0  0  0  0  0  0
   -5.5020   14.8250    0.8490 N   0  0  0  0  0  0  0  0  0  0  0  0
   -0.3250   16.2740   -3.6780 C   0  0  2  0  0  0  0  0  0  0  0  0
   -8.1460   14.5180    0.4760 C   0  0  0  0  0  0  0  0  0  0  0  0
   -6.3490   14.8960    1.8780 C   0  0  0  0  0  0  0  0  0  0  0  0
   -1.4330   17.0030   -4.2420 O   0  0  0  0  0  0  0  0  0  0  0  0
    0.7830   16.3380   -4.7130 C   0  0  0  0  0  0  0  0  0  0  0  0
   -7.6940   14.7560    1.7570 C   0  0  0  0  0  0  0  0  0  0  0  0
    0.6120   17.7280   -5.2590 C   0  0  0  0  0  0  0  0  0  0  0  0
   -0.8970   17.9240   -5.2120 C   0  0  0  0  0  0  0  0  0  0  0  0
   -8.6130   14.8590    2.8900 C   0  0  0  0  0  0  0  0  0  0  0  0
   -8.0920   14.9100    4.1530 N   0  0  0  0  0  0  0  0  0  0  0  0
   -9.8180   14.9170    2.7070 O   0  0  0  0  0  0  0  0  0  0  0  0
  2  1  1  1
  2  3  1  0
  2  4  1  0
  4  5  1  0
  3  6  1  0
  3  7  1  1
  4  8  1  0
  5  9  1  0
  6  9  1  0
  6 10  1  6
  7 11  1  0
 10 11  1  0
  8 12  1  0
  8 13  1  0
  8 14  1  0
  9 15  1  0
 14 16  2  0
 14 17  1  0
 18 15  1  6
 16 19  1  0
 17 20  2  0
 18 21  1  0
 18 22  1  0
 19 23  2  0
 20 23  1  0
 22 24  1  0
 21 25  1  0
 24 25  1  0
 23 26  1  0
 26 27  1  0
 26 28  2  0
M  END
