mac-x0565-mac-x0588
     RDKit          3D

 27 31  0  0  0  0  0  0  0  0999 V2000
   -4.9530   14.2220    0.3040 O   0  0  0  0  0  0  0  0  0  0  0  0
   -5.8610   14.0320   -0.6720 C   0  0  0  0  0  0  0  0  0  0  0  0
   -7.0720   13.9080   -0.5860 O   0  0  0  0  0  0  0  0  0  0  0  0
   -3.7040   14.5480   -0.3260 C   0  0  1  0  0  0  0  0  0  0  0  0
   -5.0510   14.0160   -1.9320 C   0  0  0  0  0  0  0  0  0  0  0  0
   -3.4770   15.9180   -0.4970 N   0  0  0  0  0  0  0  0  0  0  0  0
   -2.4080   13.9960    0.2760 C   0  0  1  0  0  0  0  0  0  0  0  0
   -3.8080   13.3530   -1.9650 C   0  0  0  0  0  0  0  0  0  0  0  0
   -5.5240   14.6740   -3.0850 C   0  0  0  0  0  0  0  0  0  0  0  0
   -2.3370   16.0970   -1.3710 C   0  0  0  0  0  0  0  0  0  0  0  0
   -1.2740   14.0740   -0.7920 C   0  0  1  0  0  0  0  0  0  0  0  0
   -1.8320   14.6320    1.4780 N   0  0  0  0  0  0  0  0  0  0  0  0
   -3.0810   13.3850   -3.1350 C   0  0  0  0  0  0  0  0  0  0  0  0
   -4.7540   14.6770   -4.2620 C   0  0  0  0  0  0  0  0  0  0  0  0
   -1.6350   14.9610   -1.8920 N   0  0  0  0  0  0  0  0  0  0  0  0
   -0.1380   14.6250   -0.0320 N   0  0  0  0  0  0  0  0  0  0  0  0
   -0.4400   14.2500    1.3310 C   0  0  0  0  0  0  0  0  0  0  0  0
   -0.4730   15.5380   -2.6270 C   0  0  0  0  0  0  0  0  0  0  0  0
   -3.5370   14.0310   -4.2530 C   0  0  0  0  0  0  0  0  0  0  0  0
   -1.8610   12.8090   -3.3310 O   0  0  0  0  0  0  0  0  0  0  0  0
   -2.6660   13.9480   -5.2930 O   0  0  0  0  0  0  0  0  0  0  0  0
   -1.5390   13.3160   -4.6440 C   0  0  0  0  0  0  0  0  0  0  0  0
   -0.7900   16.1910   -4.0140 C   0  0  1  0  0  0  0  0  0  0  0  0
   -1.3540   17.5390   -3.9950 O   0  0  0  0  0  0  0  0  0  0  0  0
    0.5030   16.3000   -4.8440 C   0  0  0  0  0  0  0  0  0  0  0  0
    0.5310   17.7360   -5.3370 C   0  0  0  0  0  0  0  0  0  0  0  0
   -0.9110   18.1540   -5.2000 C   0  0  0  0  0  0  0  0  0  0  0  0
  1  2  1  0
  2  3  2  0
  4  1  1  1
  2  5  1  0
  4  6  1  0
  4  7  1  0
  5  8  2  0
  5  9  1  0
  6 10  1  0
  7 11  1  0
  7 12  1  1
  8 13  1  0
  9 14  2  0
 10 15  1  0
 11 15  1  0
 11 16  1  1
 12 17  1  0
 16 17  1  0
 15 18  1  0
 13 19  2  0
 14 19  1  0
 13 20  1  0
 19 21  1  0
 20 22  1  0
 21 22  1  0
 23 18  1  1
 23 24  1  0
 23 25  1  0
 25 26  1  0
 24 27  1  0
 26 27  1  0
M  END
