mac-x0361-mac-x0385
     RDKit          3D

 18 19  0  0  0  0  0  0  0  0999 V2000
   -6.5830   15.0870    0.5370 N   0  0  0  0  0  0  0  0  0  0  0  0
   -5.4980   14.3340    0.0230 C   0  0  1  0  0  0  0  0  0  0  0  0
   -5.9310   13.0190    0.2440 O   0  0  0  0  0  0  0  0  0  0  0  0
   -5.0710   14.5860   -1.3580 C   0  0  0  0  0  0  0  0  0  0  0  0
   -4.0420   14.5640    0.4070 C   0  0  0  0  0  0  0  0  0  0  0  0
   -3.7190   14.8680   -1.2890 C   0  0  0  0  0  0  0  0  0  0  0  0
   -5.7160   14.5720   -2.5790 C   0  0  0  0  0  0  0  0  0  0  0  0
   -3.5120   15.1040    1.5340 C   0  0  0  0  0  0  0  0  0  0  0  0
   -3.0610   14.2030   -0.5190 C   0  0  0  0  0  0  0  0  0  0  0  0
   -4.3380   15.5790    2.5340 N   0  0  0  0  0  0  0  0  0  0  0  0
   -2.9600   15.1250   -2.3790 C   0  0  0  0  0  0  0  0  0  0  0  0
   -4.9350   14.8380   -3.7150 C   0  0  0  0  0  0  0  0  0  0  0  0
   -2.1780   15.2180    1.7260 N   0  0  0  0  0  0  0  0  0  0  0  0
   -1.7260   14.3280   -0.3830 N   0  0  0  0  0  0  0  0  0  0  0  0
   -3.5650   15.1090   -3.5890 C   0  0  0  0  0  0  0  0  0  0  0  0
   -1.3450   14.8280    0.7600 C   0  0  0  0  0  0  0  0  0  0  0  0
   -2.8180   15.3640   -4.6850 O   0  0  0  0  0  0  0  0  0  0  0  0
    0.1060   14.9560    0.9630 C   0  0  0  0  0  0  0  0  0  0  0  0
  2  1  1  1
  2  3  1  0
  2  4  1  0
  2  5  1  0
  4  6  2  0
  4  7  1  0
  5  8  2  0
  5  9  1  0
  8 10  1  0
  6 11  1  0
  7 12  2  0
  8 13  1  0
  9 14  2  0
 11 15  2  0
 12 15  1  0
 13 16  2  0
 14 16  1  0
 15 17  1  0
 16 18  1  0
M  END
