mac-x0380-mac-x0255
     RDKit          3D

 28 31  0  0  0  0  0  0  0  0999 V2000
   -2.7780   13.5890   -3.1580 O   0  0  0  0  0  0  0  0  0  0  0  0
   -2.5960   14.8500   -2.5760 C   0  0  0  0  0  0  0  0  0  0  0  0
   -3.0550   15.7090   -3.5980 O   0  0  0  0  0  0  0  0  0  0  0  0
   -1.0950   14.9270   -2.3040 C   0  0  0  0  0  0  0  0  0  0  0  0
   -3.4700   14.9220   -1.3610 C   0  0  0  0  0  0  0  0  0  0  0  0
   -4.8670   14.9510   -1.5060 C   0  0  0  0  0  0  0  0  0  0  0  0
   -2.9180   14.9510   -0.0700 C   0  0  0  0  0  0  0  0  0  0  0  0
   -0.3420   15.1230   -3.5710 C   0  0  0  0  0  0  0  0  0  0  0  0
   -5.7010   14.9900   -0.3920 C   0  0  0  0  0  0  0  0  0  0  0  0
   -3.7490   14.9910    1.0540 C   0  0  0  0  0  0  0  0  0  0  0  0
    0.5960   14.2960   -4.1610 C   0  0  0  0  0  0  0  0  0  0  0  0
   -0.6000   16.3180   -4.3320 C   0  0  0  0  0  0  0  0  0  0  0  0
    1.2430   12.9600   -3.8640 C   0  0  0  0  0  0  0  0  0  0  0  0
   -5.1410   15.0030    0.8920 C   0  0  0  0  0  0  0  0  0  0  0  0
   -7.4640   15.0100   -0.6460 S   0  0  0  0  0  0  0  0  0  0  0  0
    0.1150   16.4190   -5.4310 C   0  0  0  0  0  0  0  0  0  0  0  0
    1.0840   15.0320   -5.5510 S   0  0  0  0  0  0  0  0  0  0  0  0
   -1.4710   17.3620   -4.0950 C   0  0  0  0  0  0  0  0  0  0  0  0
    0.7090   12.2660   -2.6450 C   0  0  0  0  0  0  0  0  0  0  0  0
   -5.9390   15.0190    2.0590 N   0  0  0  0  0  0  0  0  0  0  0  0
   -7.8850   14.0760    0.8400 C   0  0  0  0  0  0  0  0  0  0  0  0
   -1.6110   18.4700   -4.9230 C   0  0  0  0  0  0  0  0  0  0  0  0
   -0.0010   17.5390   -6.2760 C   0  0  0  0  0  0  0  0  0  0  0  0
    0.9600   12.9680   -1.5310 O   0  0  0  0  0  0  0  0  0  0  0  0
    0.1170   11.2230   -2.5800 O   0  0  0  0  0  0  0  0  0  0  0  0
   -7.2580   14.6470    2.0930 C   0  0  0  0  0  0  0  0  0  0  0  0
   -0.8730   18.5570   -6.0140 C   0  0  0  0  0  0  0  0  0  0  0  0
   -7.9150   14.7850    3.1300 O   0  0  0  0  0  0  0  0  0  0  0  0
  2  1  1  0
  2  3  1  0
  2  4  1  0
  2  5  1  0
  5  6  2  0
  5  7  1  0
  4  8  1  0
  6  9  1  0
  7 10  2  0
  8 11  2  0
  8 12  1  0
 11 13  1  0
  9 14  2  0
 10 14  1  0
  9 15  1  0
 12 16  2  0
 11 17  1  0
 16 17  1  0
 12 18  1  0
 13 19  1  0
 14 20  1  0
 15 21  1  0
 18 22  2  0
 16 23  1  0
 19 24  1  0
 19 25  2  0
 20 26  1  0
 21 26  1  0
 22 27  1  0
 23 27  2  0
 26 28  2  0
M  END
