mac-x0277-mac-x0358
     RDKit          3D

 19 20  0  0  0  0  0  0  0  0999 V2000
   -0.6910   18.8520   -5.8780 Cl  0  0  0  0  0  0  0  0  0  0  0  0
   -0.3860   17.3440   -5.1260 C   0  0  0  0  0  0  0  0  0  0  0  0
   -1.3610   16.3830   -5.1200 C   0  0  0  0  0  0  0  0  0  0  0  0
    0.8520   17.0780   -4.5200 C   0  0  0  0  0  0  0  0  0  0  0  0
   -2.9110   16.5720   -5.8250 Cl  0  0  0  0  0  0  0  0  0  0  0  0
   -1.1160   15.1870   -4.5300 C   0  0  0  0  0  0  0  0  0  0  0  0
    1.1070   15.8240   -3.9120 C   0  0  0  0  0  0  0  0  0  0  0  0
    0.0850   14.8600   -3.9250 C   0  0  0  0  0  0  0  0  0  0  0  0
   -0.0630   13.4460   -3.4210 C   0  0  2  0  0  0  0  0  0  0  0  0
    1.0960   12.5270   -3.0260 C   0  0  0  0  0  0  0  0  0  0  0  0
   -1.0820   12.9660   -4.4590 C   0  0  0  0  0  0  0  0  0  0  0  0
    0.7220   11.2230   -2.9490 O   0  0  0  0  0  0  0  0  0  0  0  0
    2.2300   12.8780   -2.7730 O   0  0  0  0  0  0  0  0  0  0  0  0
   -1.4590   11.6530   -4.7650 C   0  0  0  0  0  0  0  0  0  0  0  0
   -1.7160   13.9910   -5.1910 C   0  0  0  0  0  0  0  0  0  0  0  0
   -0.8840   10.6050   -4.0990 O   0  0  0  0  0  0  0  0  0  0  0  0
   -2.4240   11.3990   -5.7450 C   0  0  0  0  0  0  0  0  0  0  0  0
   -2.6700   13.7440   -6.1610 C   0  0  0  0  0  0  0  0  0  0  0  0
   -3.0270   12.4460   -6.4380 C   0  0  0  0  0  0  0  0  0  0  0  0
  1  2  1  0
  2  3  2  0
  2  4  1  0
  3  5  1  0
  3  6  1  0
  4  7  2  0
  6  8  2  0
  7  8  1  0
  8  9  1  0
  9 10  1  6
  9 11  1  0
 10 12  1  0
 10 13  2  0
 11 14  2  0
 11 15  1  0
 14 16  1  0
 14 17  1  0
 15 18  2  0
 17 19  2  0
 18 19  1  0
M  END
