mac-x0115-mac-x0385
     RDKit          3D

 19 20  0  0  0  0  0  0  0  0999 V2000
   -1.4170   18.5580   -5.1540 C   0  0  0  0  0  0  0  0  0  0  0  0
   -0.4140   17.6070   -5.7790 C   0  0  0  0  0  0  0  0  0  0  0  0
    1.0070   18.0830   -5.5520 C   0  0  0  0  0  0  0  0  0  0  0  0
   -0.6620   16.3220   -5.1920 O   0  0  0  0  0  0  0  0  0  0  0  0
    0.4640   15.7060   -4.5470 C   0  0  0  0  0  0  0  0  0  0  0  0
   -0.0300   14.4390   -3.8230 C   0  0  0  0  0  0  0  0  0  0  0  0
   -0.2130   14.5630   -2.3450 N   0  0  0  0  0  0  0  0  0  0  0  0
    0.8720   14.3630   -1.5000 C   0  0  0  0  0  0  0  0  0  0  0  0
   -1.3180   15.4330   -1.8770 C   0  0  2  0  0  0  0  0  0  0  0  0
    2.4480   14.0240   -1.9640 S   0  0  0  0  0  0  0  0  0  0  0  0
    0.6150   14.4540   -0.1570 N   0  0  0  0  0  0  0  0  0  0  0  0
   -1.6190   15.4620   -0.3690 C   0  0  2  0  0  0  0  0  0  0  0  0
   -2.7020   15.2200   -2.5190 C   0  0  0  0  0  0  0  0  0  0  0  0
   -0.5530   14.7920    0.4830 C   0  0  0  0  0  0  0  0  0  0  0  0
   -2.8710   14.7050   -0.1390 N   0  0  0  0  0  0  0  0  0  0  0  0
   -3.6360   14.7210   -1.4010 C   0  0  1  0  0  0  0  0  0  0  0  0
   -0.7060   14.5540    1.6950 O   0  0  0  0  0  0  0  0  0  0  0  0
   -4.9190   15.5260   -1.2300 C   0  0  0  0  0  0  0  0  0  0  0  0
   -3.6420   15.2680    0.9820 N   0  0  0  0  0  0  0  0  0  0  0  0
  1  2  1  0
  2  3  1  0
  2  4  1  0
  4  5  1  0
  5  6  1  0
  6  7  1  0
  7  8  1  0
  7  9  1  0
  8 10  2  0
  8 11  1  0
  9 12  1  0
  9 13  1  6
 11 14  1  0
 12 14  1  1
 12 15  1  0
 13 16  1  0
 15 16  1  0
 14 17  2  0
 16 18  1  1
 15 19  1  0
M  END
