mac-x0412-mac-x0510
     RDKit          3D

 16 18  0  0  0  0  0  0  0  0999 V2000
   -7.9170   14.6060   -0.2960 O   0  0  0  0  0  0  0  0  0  0  0  0
   -6.8520   14.5740    0.3140 C   0  0  0  0  0  0  0  0  0  0  0  0
   -6.8680   14.6940    1.6660 N   0  0  0  0  0  0  0  0  0  0  0  0
   -5.4810   14.4300   -0.3270 C   0  0  2  0  0  0  0  0  0  0  0  0
   -4.3940   15.2130    0.3810 C   0  0  1  0  0  0  0  0  0  0  0  0
   -5.7960   15.0720    2.4050 C   0  0  0  0  0  0  0  0  0  0  0  0
   -5.4990   14.9950   -1.6940 C   0  0  0  0  0  0  0  0  0  0  0  0
   -6.5410   15.2450   -2.2240 O   0  0  0  0  0  0  0  0  0  0  0  0
   -4.5960   15.3130    1.8600 C   0  0  0  0  0  0  0  0  0  0  0  0
   -2.9600   14.9960   -0.2190 C   0  0  2  0  0  0  0  0  0  0  0  0
   -4.2030   15.2880   -2.3860 C   0  0  0  0  0  0  0  0  0  0  0  0
   -3.0470   15.2920   -1.7020 C   0  0  0  0  0  0  0  0  0  0  0  0
   -2.2230   13.7170   -0.1190 N   0  0  0  0  0  0  0  0  0  0  0  0
   -2.0200   15.9110    0.5200 C   0  0  0  0  0  0  0  0  0  0  0  0
   -1.2440   15.0370    1.3880 N   0  0  0  0  0  0  0  0  0  0  0  0
   -0.9160   14.0250    0.4470 C   0  0  0  0  0  0  0  0  0  0  0  0
  1  2  2  0
  2  3  1  0
  4  2  1  1
  4  5  1  0
  3  6  1  0
  4  7  1  0
  7  8  2  0
  5  9  1  1
  6  9  2  0
  5 10  1  0
  7 11  1  0
 10 12  1  6
 11 12  2  0
 10 13  1  0
 10 14  1  0
 14 15  1  0
 13 16  1  0
 15 16  1  0
M  END
