mac-x0587-mac-x0433
     RDKit          3D

 23 24  0  0  0  0  0  0  0  0999 V2000
    0.3070   15.8050   -4.2240 C   0  0  0  0  0  0  0  0  0  0  0  0
   -0.5820   14.6270   -3.8170 C   0  0  2  0  0  0  0  0  0  0  0  0
   -0.6870   13.2150   -4.9940 S   0  0  0  0  0  0  0  0  0  0  0  0
   -2.0120   15.0200   -3.4020 C   0  0  0  0  0  0  0  0  0  0  0  0
    0.6270   12.0610   -4.4740 C   0  0  0  0  0  0  0  0  0  0  0  0
   -2.7820   15.4490   -4.2790 O   0  0  0  0  0  0  0  0  0  0  0  0
   -2.4620   14.8980   -2.0870 N   0  0  0  0  0  0  0  0  0  0  0  0
    0.5760   11.6320   -3.0230 C   0  0  0  0  0  0  0  0  0  0  0  0
   -2.8500   13.5980   -1.5780 C   0  0  0  0  0  0  0  0  0  0  0  0
   -2.1000   15.5590   -0.8950 C   0  0  0  0  0  0  0  0  0  0  0  0
    0.2940   10.5050   -2.5990 O   0  0  0  0  0  0  0  0  0  0  0  0
    0.9150   12.6200   -2.1730 O   0  0  0  0  0  0  0  0  0  0  0  0
   -1.1450   16.2810   -0.7310 O   0  0  0  0  0  0  0  0  0  0  0  0
   -2.6860   13.7580   -0.0640 C   0  0  0  0  0  0  0  0  0  0  0  0
   -3.0800   15.0950    0.0090 N   0  0  0  0  0  0  0  0  0  0  0  0
   -4.4550   15.0760   -0.2750 C   0  0  0  0  0  0  0  0  0  0  0  0
   -4.8020   15.1800   -1.5540 N   0  0  0  0  0  0  0  0  0  0  0  0
   -5.4080   14.9070    0.7070 C   0  0  0  0  0  0  0  0  0  0  0  0
   -6.0830   15.1020   -1.8720 C   0  0  0  0  0  0  0  0  0  0  0  0
   -6.7280   14.8430    0.2830 C   0  0  0  0  0  0  0  0  0  0  0  0
   -7.8380   14.6510    1.2680 C   0  0  0  0  0  0  0  0  0  0  0  0
   -6.3890   15.1750   -3.2060 N   0  0  0  0  0  0  0  0  0  0  0  0
   -7.0740   14.9420   -1.0080 N   0  0  0  0  0  0  0  0  0  0  0  0
  2  1  1  6
  2  3  1  0
  2  4  1  0
  3  5  1  0
  4  6  2  0
  4  7  1  0
  5  8  1  0
  7  9  1  0
  7 10  1  0
  8 11  2  0
  8 12  1  0
 10 13  2  0
  9 14  1  0
 10 15  1  0
 14 15  1  0
 15 16  1  0
 16 17  2  0
 16 18  1  0
 17 19  1  0
 18 20  2  0
 20 21  1  0
 19 22  1  0
 19 23  2  0
 20 23  1  0
M  END
