mac-x0213-mac-x0546
     RDKit          3D

 15 16  0  0  0  0  0  0  0  0999 V2000
   -0.0210   11.4650   -2.9310 O   0  0  0  0  0  0  0  0  0  0  0  0
    0.2010   12.7590   -2.6210 C   0  0  0  0  0  0  0  0  0  0  0  0
    0.4700   13.0260   -1.4530 O   0  0  0  0  0  0  0  0  0  0  0  0
    0.0420   13.6930   -3.8360 C   0  0  1  0  0  0  0  0  0  0  0  0
    0.3520   12.8400   -5.0710 C   0  0  0  0  0  0  0  0  0  0  0  0
   -1.4150   14.2500   -3.8770 C   0  0  0  0  0  0  0  0  0  0  0  0
    0.9600   14.9530   -3.8140 C   0  0  0  0  0  0  0  0  0  0  0  0
   -1.2530   15.6070   -4.4990 C   0  0  0  0  0  0  0  0  0  0  0  0
    0.0900   15.9990   -4.4680 C   0  0  0  0  0  0  0  0  0  0  0  0
   -2.2420   16.4330   -5.0500 C   0  0  0  0  0  0  0  0  0  0  0  0
    0.4780   17.2200   -4.9960 C   0  0  0  0  0  0  0  0  0  0  0  0
   -3.5280   15.9710   -5.0160 O   0  0  0  0  0  0  0  0  0  0  0  0
   -1.8390   17.6580   -5.5790 C   0  0  0  0  0  0  0  0  0  0  0  0
   -0.4950   18.0490   -5.5540 C   0  0  0  0  0  0  0  0  0  0  0  0
   -4.0610   15.2480   -6.1140 C   0  0  0  0  0  0  0  0  0  0  0  0
  1  2  1  0
  2  3  2  0
  4  2  1  0
  4  5  1  6
  4  6  1  0
  4  7  1  0
  6  8  1  0
  7  9  1  0
  8  9  2  0
  8 10  1  0
  9 11  1  0
 10 12  1  0
 10 13  2  0
 11 14  2  0
 13 14  1  0
 12 15  1  0
M  END
