mac-x0115-mac-x0206
     RDKit          3D

 26 28  0  0  0  0  0  0  0  0999 V2000
   -1.4230   18.5870   -5.1820 C   0  0  0  0  0  0  0  0  0  0  0  0
   -0.4060   17.6620   -5.8160 C   0  0  0  0  0  0  0  0  0  0  0  0
    1.0090   18.1590   -5.5940 C   0  0  0  0  0  0  0  0  0  0  0  0
   -0.5940   16.3790   -5.2140 O   0  0  0  0  0  0  0  0  0  0  0  0
    0.6060   15.7540   -4.7360 C   0  0  0  0  0  0  0  0  0  0  0  0
    0.2080   14.5100   -3.9310 C   0  0  0  0  0  0  0  0  0  0  0  0
    0.0710   14.7940   -2.4710 N   0  0  0  0  0  0  0  0  0  0  0  0
    1.0760   14.3910   -1.5760 C   0  0  0  0  0  0  0  0  0  0  0  0
   -1.1840   15.0360   -1.9250 C   0  0  0  0  0  0  0  0  0  0  0  0
    2.6450   13.9580   -1.9790 S   0  0  0  0  0  0  0  0  0  0  0  0
    0.7270   14.3440   -0.2290 N   0  0  0  0  0  0  0  0  0  0  0  0
   -1.2680   15.6110   -0.5550 C   0  0  2  0  0  0  0  0  0  0  0  0
   -2.3970   14.8350   -2.4280 C   0  0  0  0  0  0  0  0  0  0  0  0
   -0.4520   14.7640    0.3690 C   0  0  0  0  0  0  0  0  0  0  0  0
   -2.7010   15.6980   -0.2250 N   0  0  0  0  0  0  0  0  0  0  0  0
   -3.2460   15.2620   -1.3120 C   0  0  0  0  0  0  0  0  0  0  0  0
   -0.7720   14.4740    1.5210 O   0  0  0  0  0  0  0  0  0  0  0  0
   -4.7110   15.1550   -1.4700 C   0  0  0  0  0  0  0  0  0  0  0  0
   -5.1230   15.2040   -2.6120 O   0  0  0  0  0  0  0  0  0  0  0  0
   -5.6420   14.9800   -0.3370 C   0  0  0  0  0  0  0  0  0  0  0  0
   -6.9910   14.7510   -0.5980 C   0  0  0  0  0  0  0  0  0  0  0  0
   -5.2000   15.0380    0.9920 C   0  0  0  0  0  0  0  0  0  0  0  0
   -7.4170   14.6960   -1.8910 O   0  0  0  0  0  0  0  0  0  0  0  0
   -7.9070   14.5770    0.4380 C   0  0  0  0  0  0  0  0  0  0  0  0
   -6.1210   14.8680    2.0300 C   0  0  0  0  0  0  0  0  0  0  0  0
   -7.4720   14.6340    1.7590 C   0  0  0  0  0  0  0  0  0  0  0  0
  1  2  1  0
  2  3  1  0
  2  4  1  0
  4  5  1  0
  5  6  1  0
  6  7  1  0
  7  8  1  0
  7  9  1  0
  8 10  2  0
  8 11  1  0
  9 12  1  0
  9 13  2  0
 11 14  1  0
 12 14  1  0
 12 15  1  1
 13 16  1  0
 15 16  2  0
 14 17  2  0
 16 18  1  0
 18 19  2  0
 18 20  1  0
 20 21  2  0
 20 22  1  0
 21 23  1  0
 21 24  1  0
 22 25  2  0
 24 26  2  0
 25 26  1  0
M  END
