mac-x0204-mac-x0132
     RDKit          3D

 22 24  0  0  0  0  0  0  0  0999 V2000
    0.0380   13.0310   -2.1910 O   0  0  0  0  0  0  0  0  0  0  0  0
   -0.3620   14.1670   -2.7920 C   0  0  0  0  0  0  0  0  0  0  0  0
   -0.0240   15.2480   -2.3520 O   0  0  0  0  0  0  0  0  0  0  0  0
   -1.1710   13.9130   -4.0180 C   0  0  0  0  0  0  0  0  0  0  0  0
   -2.3180   14.6200   -4.5100 C   0  0  0  0  0  0  0  0  0  0  0  0
   -0.7470   12.8430   -4.7880 C   0  0  0  0  0  0  0  0  0  0  0  0
   -3.0620   15.7550   -3.9350 C   0  0  0  0  0  0  0  0  0  0  0  0
   -2.8720   14.2320   -5.6990 C   0  0  0  0  0  0  0  0  0  0  0  0
   -1.3260   12.4510   -5.9450 N   0  0  0  0  0  0  0  0  0  0  0  0
   -3.9330   14.8990   -6.2350 O   0  0  0  0  0  0  0  0  0  0  0  0
   -2.3710   13.1660   -6.3790 C   0  0  0  0  0  0  0  0  0  0  0  0
   -3.7810   15.4350   -2.6290 C   0  0  0  0  0  0  0  0  0  0  0  0
   -5.1940   15.2760   -2.4830 C   0  0  0  0  0  0  0  0  0  0  0  0
   -2.9990   15.2970   -1.5060 C   0  0  0  0  0  0  0  0  0  0  0  0
   -5.7880   15.0170   -1.2460 C   0  0  0  0  0  0  0  0  0  0  0  0
   -3.5660   15.0510   -0.2870 C   0  0  0  0  0  0  0  0  0  0  0  0
   -4.9450   14.9200   -0.1590 C   0  0  0  0  0  0  0  0  0  0  0  0
   -7.1180   14.8730   -1.1080 N   0  0  0  0  0  0  0  0  0  0  0  0
   -5.5370   14.6900    1.0460 C   0  0  0  0  0  0  0  0  0  0  0  0
   -7.5810   14.6420    0.1320 C   0  0  0  0  0  0  0  0  0  0  0  0
   -4.7080   14.6140    2.1280 N   0  0  0  0  0  0  0  0  0  0  0  0
   -6.8480   14.5420    1.2450 N   0  0  0  0  0  0  0  0  0  0  0  0
  1  2  1  0
  2  3  2  0
  2  4  1  0
  4  5  2  0
  4  6  1  0
  5  7  1  0
  5  8  1  0
  6  9  2  0
  8 10  1  0
  8 11  2  0
  9 11  1  0
  7 12  1  0
 12 13  2  0
 12 14  1  0
 13 15  1  0
 14 16  2  0
 15 17  2  0
 16 17  1  0
 15 18  1  0
 17 19  1  0
 18 20  2  0
 19 21  1  0
 19 22  2  0
 20 22  1  0
M  END
