mac-x0546-diamond-x0849_0_A
     RDKit          3D

 27 30  0  0  0  0  0  0  0  0999 V2000
   -4.5350   15.1740   -5.8210 C   0  0  0  0  0  0  0  0  0  0  0  0
   -3.6770   15.6540   -4.7340 N   0  0  0  0  0  0  0  0  0  0  0  0
   -4.1120   15.1100   -3.4280 C   0  0  0  0  0  0  0  0  0  0  0  0
   -2.3220   15.8290   -4.9980 C   0  0  0  0  0  0  0  0  0  0  0  0
   -3.0370   15.3320   -2.5130 O   0  0  0  0  0  0  0  0  0  0  0  0
   -1.5130   14.7610   -4.9260 C   0  0  0  0  0  0  0  0  0  0  0  0
   -1.7190   17.1370   -5.3540 C   0  0  0  0  0  0  0  0  0  0  0  0
   -0.0640   14.8490   -5.1960 C   0  0  1  0  0  0  0  0  0  0  0  0
   -0.3930   17.3760   -5.2710 C   0  0  0  0  0  0  0  0  0  0  0  0
   -3.3010   15.2250   -1.1590 C   0  0  0  0  0  0  0  0  0  0  0  0
    0.3800   16.2260   -4.7890 C   0  0  0  0  0  0  0  0  0  0  0  0
    0.9450   14.0910   -4.4340 C   0  0  0  0  0  0  0  0  0  0  0  0
   -2.2160   14.8980   -0.3270 C   0  0  0  0  0  0  0  0  0  0  0  0
   -4.5560   15.4360   -0.6150 C   0  0  0  0  0  0  0  0  0  0  0  0
    1.0080   12.6040   -4.4120 C   0  0  0  0  0  0  0  0  0  0  0  0
    1.4080   16.2810   -4.0230 N   0  0  0  0  0  0  0  0  0  0  0  0
    1.7510   14.9620   -3.8210 C   0  0  0  0  0  0  0  0  0  0  0  0
   -2.4420   14.7990    1.0490 C   0  0  0  0  0  0  0  0  0  0  0  0
   -4.6620   15.3070    0.7550 C   0  0  0  0  0  0  0  0  0  0  0  0
   -0.9160   14.6760   -0.8120 C   0  0  0  0  0  0  0  0  0  0  0  0
    0.6890   12.0580   -3.0400 C   0  0  0  0  0  0  0  0  0  0  0  0
   -3.6420   15.0010    1.5650 N   0  0  0  0  0  0  0  0  0  0  0  0
   -1.4630   14.5020    1.8840 N   0  0  0  0  0  0  0  0  0  0  0  0
    0.0980   14.3700    0.0700 C   0  0  0  0  0  0  0  0  0  0  0  0
    1.0550   12.5320   -1.9820 O   0  0  0  0  0  0  0  0  0  0  0  0
   -0.0740   10.9480   -3.0570 O   0  0  0  0  0  0  0  0  0  0  0  0
   -0.2330   14.2950    1.4060 C   0  0  0  0  0  0  0  0  0  0  0  0
  1  2  1  0
  2  3  1  0
  2  4  1  0
  3  5  1  0
  4  6  2  0
  4  7  1  0
  8  6  1  1
  7  9  2  0
  5 10  1  0
  8 11  1  0
  9 11  1  0
  8 12  1  0
 10 13  1  0
 10 14  2  0
 12 15  1  0
 11 16  2  0
 12 17  2  0
 16 17  1  0
 13 18  2  0
 14 19  1  0
 13 20  1  0
 15 21  1  0
 18 22  1  0
 19 22  2  0
 18 23  1  0
 20 24  2  0
 21 25  2  0
 21 26  1  0
 23 27  2  0
 24 27  1  0
M  END
