mac-x0204-mac-x0263
     RDKit          3D

 27 29  0  0  0  0  0  0  0  0999 V2000
    1.2570   12.8710   -3.1040 O   0  0  0  0  0  0  0  0  0  0  0  0
    0.3630   13.8730   -2.7000 C   0  0  0  0  0  0  0  0  0  0  0  0
    1.1080   15.0790   -2.7140 O   0  0  0  0  0  0  0  0  0  0  0  0
   -0.0830   13.5700   -1.2670 C   0  0  0  0  0  0  0  0  0  0  0  0
   -0.8000   13.9720   -3.6860 C   0  0  0  0  0  0  0  0  0  0  0  0
   -0.8170   14.7390   -0.6540 C   0  0  0  0  0  0  0  0  0  0  0  0
   -1.1900   15.1940   -4.2720 C   0  0  0  0  0  0  0  0  0  0  0  0
   -1.5360   12.8430   -4.0610 C   0  0  0  0  0  0  0  0  0  0  0  0
   -2.2260   14.7890   -1.2480 C   0  0  0  0  0  0  0  0  0  0  0  0
   -2.2560   15.2310   -5.1720 C   0  0  0  0  0  0  0  0  0  0  0  0
   -2.5770   12.8540   -4.9340 N   0  0  0  0  0  0  0  0  0  0  0  0
   -2.6610   16.3930   -5.7640 O   0  0  0  0  0  0  0  0  0  0  0  0
   -2.9140   14.0480   -5.4700 C   0  0  0  0  0  0  0  0  0  0  0  0
   -3.2160   14.6360   -0.1600 C   0  0  0  0  0  0  0  0  0  0  0  0
   -3.9410   14.9500   -1.3850 C   0  0  0  0  0  0  0  0  0  0  0  0
   -4.3080   14.5230    0.7460 C   0  0  0  0  0  0  0  0  0  0  0  0
   -5.6750   14.6240    0.5430 C   0  0  0  0  0  0  0  0  0  0  0  0
   -5.3050   15.0960   -1.6860 C   0  0  0  0  0  0  0  0  0  0  0  0
   -6.1630   14.9050   -0.6710 C   0  0  0  0  0  0  0  0  0  0  0  0
   -6.6800   14.4610    1.4530 N   0  0  0  0  0  0  0  0  0  0  0  0
   -7.7870   14.6260    0.7810 C   0  0  0  0  0  0  0  0  0  0  0  0
   -7.5190   14.9160   -0.5300 N   0  0  0  0  0  0  0  0  0  0  0  0
   -9.1670   14.5180    1.3070 C   0  0  0  0  0  0  0  0  0  0  0  0
   -9.5430   15.6610    2.2250 C   0  0  0  0  0  0  0  0  0  0  0  0
  -10.8800   15.3870    2.8470 C   0  0  0  0  0  0  0  0  0  0  0  0
  -11.5260   14.3420    2.2960 O   0  0  0  0  0  0  0  0  0  0  0  0
  -11.4040   15.9860    3.7600 O   0  0  0  0  0  0  0  0  0  0  0  0
  2  1  1  0
  2  3  1  0
  2  4  1  0
  2  5  1  0
  4  6  1  0
  5  7  2  0
  5  8  1  0
  6  9  1  0
  7 10  1  0
  8 11  2  0
 10 12  1  0
 10 13  2  0
 11 13  1  0
  9 14  1  0
 14 15  2  0
 14 16  1  0
 16 17  2  0
 15 18  1  0
 17 19  1  0
 18 19  2  0
 17 20  1  0
 20 21  2  0
 19 22  1  0
 21 22  1  0
 21 23  1  0
 23 24  1  0
 24 25  1  0
 25 26  1  0
 25 27  2  0
M  END
