mac-x0302-mac-x0348
     RDKit          3D

 26 28  0  0  0  0  0  0  0  0999 V2000
   -0.5580   13.6250   -3.9380 O   0  0  0  0  0  0  0  0  0  0  0  0
    0.1200   14.5290   -3.1090 C   0  0  2  0  0  0  0  0  0  0  0  0
    1.1350   13.6200   -2.5770 N   0  0  0  0  0  0  0  0  0  0  0  0
   -0.8480   14.9550   -2.0000 C   0  0  0  0  0  0  0  0  0  0  0  0
    0.4440   15.5960   -4.1750 C   0  0  2  0  0  0  0  0  0  0  0  0
   -2.1480   14.4130   -2.2120 N   0  0  0  0  0  0  0  0  0  0  0  0
    0.4910   12.4980   -2.6020 C   0  0  0  0  0  0  0  0  0  0  0  0
    0.6010   17.0830   -3.8370 C   0  0  0  0  0  0  0  0  0  0  0  0
   -0.5870   15.5880   -5.2930 C   0  0  2  0  0  0  0  0  0  0  0  0
   -3.2320   15.2230   -2.3230 C   0  0  0  0  0  0  0  0  0  0  0  0
    0.9910   11.3360   -2.2260 O   0  0  0  0  0  0  0  0  0  0  0  0
   -0.0280   17.9380   -4.8670 N   0  0  0  0  0  0  0  0  0  0  0  0
   -0.6960   17.0610   -5.7910 C   0  0  2  0  0  0  0  0  0  0  0  0
   -1.9260   14.8840   -5.1570 C   0  0  0  0  0  0  0  0  0  0  0  0
   -3.5020   15.9230   -3.2870 O   0  0  0  0  0  0  0  0  0  0  0  0
    1.0270   18.5520   -5.6610 C   0  0  0  0  0  0  0  0  0  0  0  0
   -4.0850   15.1610   -1.1370 C   0  0  0  0  0  0  0  0  0  0  0  0
   -3.0860   15.4170   -5.5350 C   0  0  0  0  0  0  0  0  0  0  0  0
   -2.0730   17.5110   -6.2050 C   0  0  0  0  0  0  0  0  0  0  0  0
   -5.4620   14.9980   -1.2260 C   0  0  0  0  0  0  0  0  0  0  0  0
   -3.4500   15.2600    0.1050 C   0  0  0  0  0  0  0  0  0  0  0  0
   -3.1470   16.7240   -6.0910 C   0  0  0  0  0  0  0  0  0  0  0  0
   -6.1980   14.9230   -0.0580 C   0  0  0  0  0  0  0  0  0  0  0  0
   -4.1970   15.1850    1.2680 C   0  0  0  0  0  0  0  0  0  0  0  0
   -7.5480   14.7590   -0.1730 O   0  0  0  0  0  0  0  0  0  0  0  0
   -5.5770   15.0110    1.1910 C   0  0  0  0  0  0  0  0  0  0  0  0
  2  1  1  6
  2  3  1  0
  2  4  1  0
  2  5  1  0
  4  6  1  0
  3  7  2  3
  5  8  1  1
  5  9  1  0
  6 10  1  0
  7 11  1  0
  8 12  1  0
  9 13  1  0
 12 13  1  0
  9 14  1  1
 10 15  2  0
 12 16  1  0
 10 17  1  0
 14 18  2  0
 13 19  1  1
 17 20  2  0
 17 21  1  0
 18 22  1  0
 19 22  2  0
 20 23  1  0
 21 24  2  0
 23 25  1  0
 23 26  2  0
 24 26  1  0
M  END
