mac-x0306-diamond-x0962_1_A
     RDKit          3D

 13 14  0  0  0  0  0  0  0  0999 V2000
   -3.4310   15.2440    1.5640 N   0  0  0  0  0  0  0  0  0  0  0  0
   -4.5660   15.0480    1.4340 C   0  0  0  0  0  0  0  0  0  0  0  0
   -5.9740   14.7900    1.1230 N   0  0  0  0  0  0  0  0  0  0  0  0
   -7.0430   14.6290    1.9700 C   0  0  0  0  0  0  0  0  0  0  0  0
   -6.3890   14.6740   -0.1500 C   0  0  0  0  0  0  0  0  0  0  0  0
   -8.1130   14.4180    1.1270 C   0  0  0  0  0  0  0  0  0  0  0  0
   -7.7000   14.4480   -0.1860 N   0  0  0  0  0  0  0  0  0  0  0  0
   -5.4380   14.7920   -1.2650 C   0  0  0  0  0  0  0  0  0  0  0  0
   -5.6840   14.8560   -2.6220 C   0  0  0  0  0  0  0  0  0  0  0  0
   -4.0910   14.8390   -0.8600 C   0  0  0  0  0  0  0  0  0  0  0  0
   -4.5930   14.9570   -3.4840 C   0  0  0  0  0  0  0  0  0  0  0  0
   -3.0810   14.9440   -1.7820 C   0  0  0  0  0  0  0  0  0  0  0  0
   -3.3010   15.0040   -3.0980 N   0  0  0  0  0  0  0  0  0  0  0  0
  1  2  3  0
  2  3  1  0
  3  4  1  0
  3  5  1  0
  4  6  2  0
  5  7  2  0
  6  7  1  0
  5  8  1  0
  8  9  2  0
  8 10  1  0
  9 11  1  0
 10 12  2  0
 11 13  2  0
 12 13  1  0
M  END
