mac-x0439-diamond-x0895_0_A
     RDKit          3D

 23 25  0  0  0  0  0  0  0  0999 V2000
   -3.1570   15.7510   -5.4890 Cl  0  0  0  0  0  0  0  0  0  0  0  0
   -1.7840   16.7850   -5.3570 C   0  0  0  0  0  0  0  0  0  0  0  0
   -0.8730   16.6370   -4.1950 C   0  0  1  0  0  0  0  0  0  0  0  0
   -1.5300   17.7350   -6.2700 C   0  0  0  0  0  0  0  0  0  0  0  0
   -0.4730   15.3960   -3.4780 C   0  0  0  0  0  0  0  0  0  0  0  0
    0.5190   17.0830   -4.5590 C   0  0  0  0  0  0  0  0  0  0  0  0
   -0.3510   18.5850   -6.1800 C   0  0  0  0  0  0  0  0  0  0  0  0
    0.8710   15.3440   -3.4200 C   0  0  0  0  0  0  0  0  0  0  0  0
    1.4740   16.3550   -4.1030 N   0  0  0  0  0  0  0  0  0  0  0  0
    0.6800   18.2970   -5.3670 C   0  0  0  0  0  0  0  0  0  0  0  0
    1.6360   14.3040   -2.6830 C   0  0  0  0  0  0  0  0  0  0  0  0
    2.9140   14.2470   -3.0700 O   0  0  0  0  0  0  0  0  0  0  0  0
    1.1540   13.5830   -1.7660 N   0  0  0  0  0  0  0  0  0  0  0  0
   -0.2160   13.7520   -1.3190 C   0  0  0  0  0  0  0  0  0  0  0  0
   -0.2450   13.5980    0.1930 C   0  0  0  0  0  0  0  0  0  0  0  0
   -0.3750   14.8150    1.0790 C   0  0  0  0  0  0  0  0  0  0  0  0
   -1.6490   14.8190    1.7500 N   0  0  0  0  0  0  0  0  0  0  0  0
   -2.6670   14.9730    1.0130 C   0  0  0  0  0  0  0  0  0  0  0  0
   -4.0840   15.0200    1.5100 C   0  0  0  0  0  0  0  0  0  0  0  0
   -2.6810   15.1180   -0.3330 N   0  0  0  0  0  0  0  0  0  0  0  0
   -4.6890   15.6290    0.3740 N   0  0  0  0  0  0  0  0  0  0  0  0
   -3.9520   15.3390   -0.7330 C   0  0  0  0  0  0  0  0  0  0  0  0
   -4.3770   15.2920   -1.8680 O   0  0  0  0  0  0  0  0  0  0  0  0
  1  2  1  0
  2  3  1  0
  2  4  2  0
  3  5  1  6
  3  6  1  0
  4  7  1  0
  5  8  2  0
  6  9  2  0
  8  9  1  0
  6 10  1  0
  7 10  2  0
  8 11  1  0
 11 12  1  0
 11 13  2  3
 13 14  1  0
 14 15  1  0
 15 16  1  0
 16 17  1  0
 17 18  2  3
 18 19  1  0
 18 20  1  0
 19 21  1  0
 20 22  1  0
 21 22  1  0
 22 23  2  0
M  END
