mac-x0415-diamond-x0574_0_A
     RDKit          3D

 28 31  0  0  0  0  0  0  0  0999 V2000
    0.5850   11.2340   -2.9950 O   0  0  0  0  0  0  0  0  0  0  0  0
    0.8330   12.5030   -3.3870 C   0  0  0  0  0  0  0  0  0  0  0  0
    1.1090   13.5240   -2.6800 N   0  0  0  0  0  0  0  0  0  0  0  0
    0.7860   12.7800   -4.8460 C   0  0  0  0  0  0  0  0  0  0  0  0
    1.2500   13.5090   -1.2770 C   0  0  0  0  0  0  0  0  0  0  0  0
    0.6260   14.2350   -4.7340 C   0  0  0  0  0  0  0  0  0  0  0  0
    0.9570   14.7920   -0.5210 C   0  0  0  0  0  0  0  0  0  0  0  0
    1.6850   15.2220   -4.5090 C   0  0  0  0  0  0  0  0  0  0  0  0
   -0.4230   15.0220   -4.7930 C   0  0  0  0  0  0  0  0  0  0  0  0
    0.2650   14.5570    0.7470 N   0  0  0  0  0  0  0  0  0  0  0  0
    1.3530   16.4800   -4.4450 N   0  0  0  0  0  0  0  0  0  0  0  0
   -0.0870   16.4360   -4.5300 C   0  0  1  0  0  0  0  0  0  0  0  0
   -1.7790   14.6900   -5.0410 C   0  0  0  0  0  0  0  0  0  0  0  0
   -0.8520   17.3990   -5.3720 C   0  0  0  0  0  0  0  0  0  0  0  0
   -2.5690   15.6420   -5.5630 C   0  0  0  0  0  0  0  0  0  0  0  0
   -1.0180   14.6200    0.6450 C   0  0  0  0  0  0  0  0  0  0  0  0
   -4.3300   15.2100   -5.9720 Br  0  0  0  0  0  0  0  0  0  0  0  0
   -2.0550   17.0020   -5.8500 C   0  0  0  0  0  0  0  0  0  0  0  0
   -1.9350   14.6020    1.5740 N   0  0  0  0  0  0  0  0  0  0  0  0
   -1.4870   14.7470   -0.9790 S   0  0  0  0  0  0  0  0  0  0  0  0
   -3.1550   14.7040    0.9050 C   0  0  0  0  0  0  0  0  0  0  0  0
   -3.0880   14.7990   -0.4850 C   0  0  0  0  0  0  0  0  0  0  0  0
   -4.4260   14.7220    1.4790 C   0  0  0  0  0  0  0  0  0  0  0  0
   -4.1970   14.9150   -1.3100 C   0  0  0  0  0  0  0  0  0  0  0  0
   -5.5580   14.8290    0.6710 C   0  0  0  0  0  0  0  0  0  0  0  0
   -5.4360   14.9280   -0.7060 C   0  0  0  0  0  0  0  0  0  0  0  0
   -6.8490   14.8490    1.1160 O   0  0  0  0  0  0  0  0  0  0  0  0
   -7.0270   14.6610    2.5140 C   0  0  0  0  0  0  0  0  0  0  0  0
  1  2  1  0
  2  3  2  3
  2  4  1  0
  3  5  1  0
  4  6  1  0
  5  7  1  0
  6  8  1  0
  6  9  2  0
  7 10  1  0
  8 11  2  0
  9 12  1  0
 11 12  1  0
  9 13  1  0
 12 14  1  6
 13 15  2  0
 10 16  1  0
 15 17  1  0
 14 18  2  0
 15 18  1  0
 16 19  2  0
 16 20  1  0
 19 21  1  0
 20 22  1  0
 21 22  2  0
 21 23  1  0
 22 24  1  0
 23 25  2  0
 24 26  2  0
 25 26  1  0
 25 27  1  0
 27 28  1  0
M  END
