mac-x0357-mac-x0271
     RDKit          3D

 25 27  0  0  0  0  0  0  0  0999 V2000
    2.4220   13.1790   -4.5820 C   0  0  0  0  0  0  0  0  0  0  0  0
    1.1020   12.5200   -4.8670 C   0  0  0  0  0  0  0  0  0  0  0  0
    0.8660   11.8350   -6.0610 C   0  0  0  0  0  0  0  0  0  0  0  0
    0.0550   12.5680   -3.9390 C   0  0  0  0  0  0  0  0  0  0  0  0
    1.8570   11.7680   -6.9740 O   0  0  0  0  0  0  0  0  0  0  0  0
    0.2120   13.2780   -2.6580 C   0  0  0  0  0  0  0  0  0  0  0  0
   -1.1780   11.9460   -4.1970 C   0  0  0  0  0  0  0  0  0  0  0  0
   -0.3510   11.2150   -6.3350 C   0  0  0  0  0  0  0  0  0  0  0  0
   -0.3860   14.3820   -2.4150 N   0  0  0  0  0  0  0  0  0  0  0  0
    1.0370   12.6590   -1.7910 O   0  0  0  0  0  0  0  0  0  0  0  0
   -1.3770   11.2700   -5.4000 C   0  0  0  0  0  0  0  0  0  0  0  0
   -1.2410   14.9140   -3.4810 C   0  0  0  0  0  0  0  0  0  0  0  0
   -2.2650   15.8850   -2.8970 C   0  0  0  0  0  0  0  0  0  0  0  0
   -3.6010   15.3810   -2.9750 O   0  0  0  0  0  0  0  0  0  0  0  0
   -4.3580   15.2410   -1.8420 C   0  0  0  0  0  0  0  0  0  0  0  0
   -5.7470   15.1380   -1.8000 C   0  0  0  0  0  0  0  0  0  0  0  0
   -3.6280   15.2030   -0.6430 C   0  0  0  0  0  0  0  0  0  0  0  0
   -6.3790   14.9920   -0.5640 C   0  0  0  0  0  0  0  0  0  0  0  0
   -4.2740   15.0580    0.5900 C   0  0  0  0  0  0  0  0  0  0  0  0
   -5.6610   14.9500    0.6240 C   0  0  0  0  0  0  0  0  0  0  0  0
   -7.7890   14.8880   -0.5590 O   0  0  0  0  0  0  0  0  0  0  0  0
   -6.3880   14.7940    1.8730 C   0  0  0  0  0  0  0  0  0  0  0  0
   -8.5080   14.8680    0.6320 C   0  0  0  0  0  0  0  0  0  0  0  0
   -9.7300   14.9480    0.6710 O   0  0  0  0  0  0  0  0  0  0  0  0
   -7.7240   14.7520    1.8710 C   0  0  0  0  0  0  0  0  0  0  0  0
  1  2  1  0
  2  3  2  0
  2  4  1  0
  3  5  1  0
  4  6  1  0
  4  7  2  0
  3  8  1  0
  6  9  2  3
  6 10  1  0
  7 11  1  0
  8 11  2  0
  9 12  1  0
 12 13  1  0
 13 14  1  0
 14 15  1  0
 15 16  2  0
 15 17  1  0
 16 18  1  0
 17 19  2  0
 18 20  2  0
 19 20  1  0
 18 21  1  0
 20 22  1  0
 21 23  1  0
 23 24  2  0
 22 25  2  0
 23 25  1  0
M  END
