mac-x0226-diamond-x1012_0_A
     RDKit          3D

 23 25  0  0  0  0  0  0  0  0999 V2000
    0.2880   13.8960   -3.5640 O   0  0  0  0  0  0  0  0  0  0  0  0
    0.3120   12.5980   -3.5380 C   0  0  0  0  0  0  0  0  0  0  0  0
   -0.0160   12.3120   -2.4250 N   0  0  0  0  0  0  0  0  0  0  0  0
    0.6910   12.1740   -4.7900 C   0  0  0  0  0  0  0  0  0  0  0  0
    1.8380   12.4590   -5.5110 C   0  0  0  0  0  0  0  0  0  0  0  0
   -0.0620   11.3920   -5.6100 C   0  0  0  0  0  0  0  0  0  0  0  0
   -0.2980   13.6780   -1.9590 C   0  0  0  0  0  0  0  0  0  0  0  0
    1.8140   11.9150   -6.7020 N   0  0  0  0  0  0  0  0  0  0  0  0
    0.6350   11.2650   -6.7630 N   0  0  0  0  0  0  0  0  0  0  0  0
   -1.6940   14.0810   -2.5110 C   0  0  0  0  0  0  0  0  0  0  0  0
    0.8270   14.6690   -2.4720 C   0  0  0  0  0  0  0  0  0  0  0  0
    0.2410   10.5850   -7.9160 C   0  0  0  0  0  0  0  0  0  0  0  0
   -1.7250   14.6080   -3.9590 C   0  0  0  0  0  0  0  0  0  0  0  0
    0.5980   15.5080   -3.7830 C   0  0  0  0  0  0  0  0  0  0  0  0
   -0.8210    9.6900   -7.8410 C   0  0  0  0  0  0  0  0  0  0  0  0
    0.8820   10.8010   -9.1350 C   0  0  0  0  0  0  0  0  0  0  0  0
   -0.8050   15.7320   -4.1850 N   0  0  0  0  0  0  0  0  0  0  0  0
   -1.2100   17.0170   -4.5490 C   0  0  0  0  0  0  0  0  0  0  0  0
   -1.2340    9.0180   -8.9880 C   0  0  0  0  0  0  0  0  0  0  0  0
    0.4730   10.1320  -10.2720 C   0  0  0  0  0  0  0  0  0  0  0  0
   -0.2510   17.9660   -4.6830 N   0  0  0  0  0  0  0  0  0  0  0  0
   -2.3750   17.3630   -4.7300 O   0  0  0  0  0  0  0  0  0  0  0  0
   -0.5860    9.2390  -10.2010 C   0  0  0  0  0  0  0  0  0  0  0  0
  1  2  1  0
  2  3  2  3
  2  4  1  0
  4  5  1  0
  4  6  2  0
  3  7  1  0
  5  8  2  0
  6  9  1  0
  8  9  1  0
  7 10  1  0
  7 11  1  0
  9 12  1  0
 10 13  1  0
 11 14  1  0
 12 15  2  0
 12 16  1  0
 13 17  1  0
 14 17  1  0
 17 18  1  0
 15 19  1  0
 16 20  2  0
 18 21  1  0
 18 22  2  0
 19 23  2  0
 20 23  1  0
M  END
