mac-x0337-mac-x0346
     RDKit          3D

 21 22  0  0  0  0  0  0  0  0999 V2000
   -7.7720   14.6000    1.3360 O   0  0  0  0  0  0  0  0  0  0  0  0
   -8.4030   14.6050    0.0260 N   0  0  0  0  0  0  0  0  0  0  0  0
   -7.3740   14.5000   -1.0050 C   0  0  1  0  0  0  0  0  0  0  0  0
   -7.9930   14.4080   -2.2650 O   0  0  0  0  0  0  0  0  0  0  0  0
   -6.2930   15.5810   -1.0800 C   0  0  0  0  0  0  0  0  0  0  0  0
   -5.0800   15.4660   -0.1860 C   0  0  0  0  0  0  0  0  0  0  0  0
   -3.8480   15.3380   -0.7240 C   0  0  0  0  0  0  0  0  0  0  0  0
   -5.1080   15.4740    1.2160 C   0  0  0  0  0  0  0  0  0  0  0  0
   -3.5410   15.2640   -2.0830 N   0  0  0  0  0  0  0  0  0  0  0  0
   -2.6960   15.2270    0.0250 C   0  0  0  0  0  0  0  0  0  0  0  0
   -3.9460   15.3880    1.9670 C   0  0  0  0  0  0  0  0  0  0  0  0
   -2.6980   14.0480   -1.8940 S   0  0  0  0  0  0  0  0  0  0  0  0
   -2.7290   15.2580    1.3690 C   0  0  0  0  0  0  0  0  0  0  0  0
   -1.4340   13.7410   -2.4620 O   0  0  0  0  0  0  0  0  0  0  0  0
   -3.7700   12.6570   -1.8340 C   0  0  0  0  0  0  0  0  0  0  0  0
   -3.4460   11.6130   -2.6650 C   0  0  0  0  0  0  0  0  0  0  0  0
   -4.8890   12.6150   -0.9880 C   0  0  0  0  0  0  0  0  0  0  0  0
   -4.2480   10.4900   -2.6730 C   0  0  0  0  0  0  0  0  0  0  0  0
   -5.6940   11.4780   -1.0030 C   0  0  0  0  0  0  0  0  0  0  0  0
   -5.3750   10.4090   -1.8530 C   0  0  0  0  0  0  0  0  0  0  0  0
   -6.2180    9.1780   -1.8940 C   0  0  0  0  0  0  0  0  0  0  0  0
  1  2  1  0
  2  3  1  0
  3  4  1  6
  3  5  1  0
  5  6  1  0
  6  7  2  0
  6  8  1  0
  7  9  1  0
  7 10  1  0
  8 11  2  0
  9 12  2  0
 10 13  2  0
 11 13  1  0
 12 14  2  0
 12 15  1  0
 15 16  2  0
 15 17  1  0
 16 18  1  0
 17 19  2  0
 18 20  2  0
 19 20  1  0
 20 21  1  0
M  END
