mac-x0190-diamond-x0628_0_A
     RDKit          3D

 25 27  0  0  0  0  0  0  0  0999 V2000
   -9.0500   15.0960    2.5140 O   0  0  0  0  0  0  0  0  0  0  0  0
   -8.9540   14.3870    1.2780 C   0  0  0  0  0  0  0  0  0  0  0  0
   -7.5720   14.5570    0.7510 C   0  0  0  0  0  0  0  0  0  0  0  0
   -7.3260   14.6250   -0.5990 N   0  0  0  0  0  0  0  0  0  0  0  0
   -6.4500   14.6580    1.4340 N   0  0  0  0  0  0  0  0  0  0  0  0
   -5.9740   14.7690   -0.7890 C   0  0  0  0  0  0  0  0  0  0  0  0
   -5.4460   14.7890    0.4930 C   0  0  0  0  0  0  0  0  0  0  0  0
   -5.2020   14.8750   -1.9510 C   0  0  0  0  0  0  0  0  0  0  0  0
   -4.0580   14.9280    0.6540 C   0  0  0  0  0  0  0  0  0  0  0  0
   -3.8120   14.9980   -1.8010 C   0  0  0  0  0  0  0  0  0  0  0  0
   -3.2560   15.0290   -0.5000 C   0  0  0  0  0  0  0  0  0  0  0  0
   -2.9110   15.0910   -3.0360 C   0  0  0  0  0  0  0  0  0  0  0  0
   -3.0240   13.9050   -4.0450 C   0  0  0  0  0  0  0  0  0  0  0  0
   -2.2380   12.6100   -3.7110 C   0  0  0  0  0  0  0  0  0  0  0  0
   -1.5510   11.8420   -4.8220 C   0  0  0  0  0  0  0  0  0  0  0  0
   -1.9900   10.7170   -5.3850 N   0  0  0  0  0  0  0  0  0  0  0  0
   -0.3560   12.1690   -5.4300 N   0  0  0  0  0  0  0  0  0  0  0  0
    0.5340   13.2840   -5.1970 C   0  0  0  0  0  0  0  0  0  0  0  0
   -1.0310   10.4060   -6.3160 C   0  0  0  0  0  0  0  0  0  0  0  0
   -0.0160   11.2680   -6.3790 N   0  0  0  0  0  0  0  0  0  0  0  0
   -1.1000    9.2120   -7.1820 C   0  0  0  0  0  0  0  0  0  0  0  0
    1.6680   12.9470   -4.2370 C   0  0  0  0  0  0  0  0  0  0  0  0
    1.1160   12.2460   -3.0270 C   0  0  0  0  0  0  0  0  0  0  0  0
    0.6210   11.1320   -2.9970 O   0  0  0  0  0  0  0  0  0  0  0  0
    1.2140   12.9730   -1.8980 O   0  0  0  0  0  0  0  0  0  0  0  0
  1  2  1  0
  2  3  1  0
  3  4  1  0
  3  5  2  0
  4  6  1  0
  5  7  1  0
  6  7  2  0
  6  8  1  0
  7  9  1  0
  8 10  2  0
  9 11  2  0
 10 11  1  0
 10 12  1  0
 12 13  1  0
 13 14  1  0
 14 15  1  0
 15 16  2  0
 15 17  1  0
 17 18  1  0
 16 19  1  0
 17 20  1  0
 19 20  2  0
 19 21  1  0
 18 22  1  0
 22 23  1  0
 23 24  2  0
 23 25  1  0
M  END
