mac-x0190-mac-x1494
     RDKit          3D

 18 20  0  0  0  0  0  0  0  0999 V2000
   -9.4250   15.2280    2.8030 O   0  0  0  0  0  0  0  0  0  0  0  0
   -9.3890   14.4700    1.6090 C   0  0  0  0  0  0  0  0  0  0  0  0
   -8.0210   14.6020    1.0770 C   0  0  0  0  0  0  0  0  0  0  0  0
   -7.7860   14.5590   -0.2540 N   0  0  0  0  0  0  0  0  0  0  0  0
   -6.9100   14.7660    1.7480 N   0  0  0  0  0  0  0  0  0  0  0  0
   -6.4570   14.6890   -0.4400 C   0  0  0  0  0  0  0  0  0  0  0  0
   -5.9020   14.8210    0.8130 C   0  0  0  0  0  0  0  0  0  0  0  0
   -5.8640   14.6640   -1.8320 C   0  0  0  0  0  0  0  0  0  0  0  0
   -4.4290   15.0010    1.1750 C   0  0  0  0  0  0  0  0  0  0  0  0
   -4.1090   15.1330    2.3280 O   0  0  0  0  0  0  0  0  0  0  0  0
   -3.2480   15.0350    0.2760 C   0  0  0  0  0  0  0  0  0  0  0  0
   -4.3710   14.7580   -2.1390 C   0  0  0  0  0  0  0  0  0  0  0  0
   -3.2920   14.9040   -1.2440 C   0  0  0  0  0  0  0  0  0  0  0  0
   -4.1100   14.6690   -3.4900 C   0  0  0  0  0  0  0  0  0  0  0  0
   -2.8120   14.7050   -3.9250 C   0  0  0  0  0  0  0  0  0  0  0  0
   -2.0140   14.9360   -1.7160 C   0  0  0  0  0  0  0  0  0  0  0  0
   -2.4860   14.5780   -5.5840 Cl  0  0  0  0  0  0  0  0  0  0  0  0
   -1.7650   14.8360   -3.0530 C   0  0  0  0  0  0  0  0  0  0  0  0
  1  2  1  0
  2  3  1  0
  3  4  1  0
  3  5  2  0
  4  6  1  0
  5  7  1  0
  6  7  2  0
  6  8  1  0
  7  9  1  0
  9 10  2  0
  9 11  1  0
  8 12  2  0
 11 13  2  0
 12 13  1  0
 12 14  1  0
 14 15  2  0
 13 16  1  0
 15 17  1  0
 15 18  1  0
 16 18  2  0
M  END
