mac-x0357-diamond-x0895_0_A
     RDKit          3D

 20 21  0  0  0  0  0  0  0  0999 V2000
    2.3550   13.1590   -4.5590 C   0  0  0  0  0  0  0  0  0  0  0  0
    1.0420   12.4900   -4.8650 C   0  0  0  0  0  0  0  0  0  0  0  0
    0.8360   11.8300   -6.0800 C   0  0  0  0  0  0  0  0  0  0  0  0
   -0.0270   12.4940   -3.9540 C   0  0  0  0  0  0  0  0  0  0  0  0
    1.8470   11.8030   -6.9710 O   0  0  0  0  0  0  0  0  0  0  0  0
    0.0790   13.1660   -2.6470 C   0  0  0  0  0  0  0  0  0  0  0  0
   -1.2420   11.8600   -4.2530 C   0  0  0  0  0  0  0  0  0  0  0  0
   -0.3700   11.1980   -6.3900 C   0  0  0  0  0  0  0  0  0  0  0  0
   -0.8300   13.9480   -2.1830 N   0  0  0  0  0  0  0  0  0  0  0  0
    1.2270   12.8730   -2.0010 O   0  0  0  0  0  0  0  0  0  0  0  0
   -1.4110   11.2130   -5.4730 C   0  0  0  0  0  0  0  0  0  0  0  0
   -2.0440   14.1520   -2.9990 C   0  0  0  0  0  0  0  0  0  0  0  0
   -2.6910   15.5130   -2.7060 C   0  0  0  0  0  0  0  0  0  0  0  0
   -3.9010   15.4030   -1.8710 N   0  0  0  0  0  0  0  0  0  0  0  0
   -3.7270   15.2130   -0.6270 C   0  0  0  0  0  0  0  0  0  0  0  0
   -4.5810   15.1040    0.4270 N   0  0  0  0  0  0  0  0  0  0  0  0
   -2.4660   15.0910   -0.1600 N   0  0  0  0  0  0  0  0  0  0  0  0
   -3.8470   15.6380    1.5540 C   0  0  0  0  0  0  0  0  0  0  0  0
   -2.4860   15.0500    1.2010 C   0  0  0  0  0  0  0  0  0  0  0  0
   -1.6090   14.6290    1.9390 O   0  0  0  0  0  0  0  0  0  0  0  0
  1  2  1  0
  2  3  2  0
  2  4  1  0
  3  5  1  0
  4  6  1  0
  4  7  2  0
  3  8  1  0
  6  9  2  3
  6 10  1  0
  7 11  1  0
  8 11  2  0
  9 12  1  0
 12 13  1  0
 13 14  1  0
 14 15  2  3
 15 16  1  0
 15 17  1  0
 16 18  1  0
 17 19  1  0
 18 19  1  0
 19 20  2  0
M  END
