mac-x0159-mac-x0284
     RDKit          3D

 20 22  0  0  0  0  0  0  0  0999 V2000
   -4.5850   15.4450    0.5340 N   0  0  0  0  0  0  0  0  0  0  0  0
   -3.4090   15.4360   -0.3050 C   0  0  1  0  0  0  0  0  0  0  0  0
   -2.3000   14.5380    0.2400 C   0  0  1  0  0  0  0  0  0  0  0  0
   -3.8330   14.9480   -1.5900 N   0  0  0  0  0  0  0  0  0  0  0  0
   -2.8020   15.2730   -2.5510 C   0  0  2  0  0  0  0  0  0  0  0  0
   -1.4030   14.0550   -0.9120 C   0  0  1  0  0  0  0  0  0  0  0  0
   -1.4150   15.2980    1.1290 N   0  0  0  0  0  0  0  0  0  0  0  0
   -3.1870   14.9160   -3.8570 O   0  0  0  0  0  0  0  0  0  0  0  0
   -1.5410   14.6200   -2.2770 N   0  0  0  0  0  0  0  0  0  0  0  0
   -0.0240   14.2130   -0.4110 N   0  0  0  0  0  0  0  0  0  0  0  0
   -0.1180   14.6830    0.9660 C   0  0  0  0  0  0  0  0  0  0  0  0
   -0.3120   15.4550   -2.4940 C   0  0  1  0  0  0  0  0  0  0  0  0
    0.9050   14.5670   -2.6120 C   0  0  0  0  0  0  0  0  0  0  0  0
   -0.2060   16.3560   -3.7160 C   0  0  0  0  0  0  0  0  0  0  0  0
    1.3120   13.8290   -1.7270 O   0  0  0  0  0  0  0  0  0  0  0  0
    1.0030   16.6560   -4.3030 C   0  0  0  0  0  0  0  0  0  0  0  0
   -1.2990   16.9630   -4.3400 N   0  0  0  0  0  0  0  0  0  0  0  0
   -0.8760   17.6980   -5.3570 C   0  0  0  0  0  0  0  0  0  0  0  0
    0.8140   17.7070   -5.6270 S   0  0  0  0  0  0  0  0  0  0  0  0
   -1.7480   18.4980   -6.2540 C   0  0  0  0  0  0  0  0  0  0  0  0
  2  1  1  1
  2  3  1  0
  2  4  1  0
  4  5  1  0
  3  6  1  0
  3  7  1  1
  5  8  1  6
  5  9  1  0
  6  9  1  0
  6 10  1  1
  7 11  1  0
 10 11  1  0
  9 12  1  0
 12 13  1  6
 12 14  1  0
 13 15  2  0
 14 16  2  0
 14 17  1  0
 17 18  2  0
 16 19  1  0
 18 19  1  0
 18 20  1  0
M  END
