mac-x0358-mac-x0178
     RDKit          3D

 15 15  0  0  0  0  0  0  0  0999 V2000
    1.4090   12.8240   -2.0110 O   0  0  0  0  0  0  0  0  0  0  0  0
    0.8180   12.2130   -3.0600 C   0  0  0  0  0  0  0  0  0  0  0  0
    0.2520   11.1360   -2.9330 O   0  0  0  0  0  0  0  0  0  0  0  0
    0.9070   12.9950   -4.3500 C   0  0  0  0  0  0  0  0  0  0  0  0
   -0.4230   13.5800   -4.7840 C   0  0  0  0  0  0  0  0  0  0  0  0
   -1.5530   12.7800   -4.9940 C   0  0  0  0  0  0  0  0  0  0  0  0
   -0.5370   14.9670   -4.9850 C   0  0  0  0  0  0  0  0  0  0  0  0
   -1.5150   11.4240   -4.8220 O   0  0  0  0  0  0  0  0  0  0  0  0
   -2.7730   13.3350   -5.3890 C   0  0  0  0  0  0  0  0  0  0  0  0
   -1.7620   15.5320   -5.3870 C   0  0  0  0  0  0  0  0  0  0  0  0
   -1.8710   17.2960   -5.6750 S   0  0  0  0  0  0  0  0  0  0  0  0
   -2.8860   14.7150   -5.5880 C   0  0  0  0  0  0  0  0  0  0  0  0
   -0.2930   17.7240   -6.0480 N   0  0  0  0  0  0  0  0  0  0  0  0
   -2.6260   17.4940   -6.8780 O   0  0  0  0  0  0  0  0  0  0  0  0
   -2.1530   18.0290   -4.4900 O   0  0  0  0  0  0  0  0  0  0  0  0
  1  2  1  0
  2  3  2  0
  2  4  1  0
  4  5  1  0
  5  6  2  0
  5  7  1  0
  6  8  1  0
  6  9  1  0
  7 10  2  0
 10 11  1  0
  9 12  2  0
 10 12  1  0
 11 13  1  0
 11 14  2  0
 11 15  2  0
M  END
