mac-x0226-mac-x0392
     RDKit          3D

 26 28  0  0  0  0  0  0  0  0999 V2000
    0.7860   10.7480   -2.1320 O   0  0  0  0  0  0  0  0  0  0  0  0
    0.5140   11.9500   -2.8060 C   0  0  0  0  0  0  0  0  0  0  0  0
   -0.7910   12.1810   -2.3540 O   0  0  0  0  0  0  0  0  0  0  0  0
    1.5360   13.0170   -2.3490 C   0  0  0  0  0  0  0  0  0  0  0  0
    0.6140   11.8190   -4.2850 C   0  0  0  0  0  0  0  0  0  0  0  0
    1.0230   14.0810   -1.4050 C   0  0  0  0  0  0  0  0  0  0  0  0
    1.4880   12.5550   -5.1190 C   0  0  0  0  0  0  0  0  0  0  0  0
   -0.0660   11.0060   -5.1690 C   0  0  0  0  0  0  0  0  0  0  0  0
    0.2610   15.0420   -2.1380 O   0  0  0  0  0  0  0  0  0  0  0  0
    1.3770   12.2380   -6.3970 N   0  0  0  0  0  0  0  0  0  0  0  0
    0.4170   11.2770   -6.4290 N   0  0  0  0  0  0  0  0  0  0  0  0
   -1.0390   14.7080   -2.3420 C   0  0  0  0  0  0  0  0  0  0  0  0
    0.0350   10.6870   -7.6610 C   0  0  0  0  0  0  0  0  0  0  0  0
   -1.5350   14.4400   -3.4260 O   0  0  0  0  0  0  0  0  0  0  0  0
   -1.1020    9.8840   -7.7200 C   0  0  0  0  0  0  0  0  0  0  0  0
    0.7780   10.8920   -8.8200 C   0  0  0  0  0  0  0  0  0  0  0  0
   -1.8310   14.7360   -1.0800 C   0  0  0  0  0  0  0  0  0  0  0  0
   -1.4800    9.3010   -8.9330 C   0  0  0  0  0  0  0  0  0  0  0  0
    0.4070   10.3180  -10.0240 C   0  0  0  0  0  0  0  0  0  0  0  0
   -1.3660   14.4260    0.2200 C   0  0  0  0  0  0  0  0  0  0  0  0
   -3.1680   15.1270   -1.2640 C   0  0  0  0  0  0  0  0  0  0  0  0
   -0.0640   14.0220    0.5680 N   0  0  0  0  0  0  0  0  0  0  0  0
   -0.7230    9.5210  -10.0840 C   0  0  0  0  0  0  0  0  0  0  0  0
   -3.9970   15.2040   -0.1700 C   0  0  0  0  0  0  0  0  0  0  0  0
   -2.3080   14.5410    1.2320 C   0  0  0  0  0  0  0  0  0  0  0  0
   -3.5900   14.9190    1.0740 N   0  0  0  0  0  0  0  0  0  0  0  0
  2  1  1  0
  2  3  1  0
  2  4  1  0
  2  5  1  0
  4  6  1  0
  5  7  1  0
  5  8  2  0
  6  9  1  0
  7 10  2  0
  8 11  1  0
 10 11  1  0
  9 12  1  0
 11 13  1  0
 12 14  2  0
 13 15  2  0
 13 16  1  0
 12 17  1  0
 15 18  1  0
 16 19  2  0
 17 20  2  0
 17 21  1  0
 20 22  1  0
 18 23  2  0
 19 23  1  0
 21 24  2  0
 20 25  1  0
 24 26  1  0
 25 26  2  0
M  END
