mac-x0115-mac-x0510
     RDKit          3D

 18 19  0  0  0  0  0  0  0  0999 V2000
   -1.4350   18.6600   -5.2440 C   0  0  0  0  0  0  0  0  0  0  0  0
   -0.4330   17.6270   -5.7340 C   0  0  0  0  0  0  0  0  0  0  0  0
    0.9890   18.0600   -5.4550 C   0  0  0  0  0  0  0  0  0  0  0  0
   -0.6620   16.3690   -5.0840 O   0  0  0  0  0  0  0  0  0  0  0  0
    0.4900   15.7410   -4.5040 C   0  0  0  0  0  0  0  0  0  0  0  0
    0.0950   14.3690   -3.9180 C   0  0  0  0  0  0  0  0  0  0  0  0
   -0.2030   14.3880   -2.4530 N   0  0  0  0  0  0  0  0  0  0  0  0
    0.8300   14.3960   -1.5110 C   0  0  0  0  0  0  0  0  0  0  0  0
   -1.4970   14.6650   -2.0130 C   0  0  0  0  0  0  0  0  0  0  0  0
    2.4540   14.0890   -1.8290 S   0  0  0  0  0  0  0  0  0  0  0  0
    0.4880   14.6820   -0.1910 N   0  0  0  0  0  0  0  0  0  0  0  0
   -1.9450   14.3640   -0.5830 C   0  0  1  0  0  0  0  0  0  0  0  0
   -2.5280   15.1910   -2.6920 C   0  0  0  0  0  0  0  0  0  0  0  0
   -0.7990   14.7030    0.3950 C   0  0  0  0  0  0  0  0  0  0  0  0
   -3.3840   14.9260   -0.5710 C   0  0  0  0  0  0  0  0  0  0  0  0
   -3.6570   15.3500   -1.8120 C   0  0  0  0  0  0  0  0  0  0  0  0
   -0.9020   14.9520    1.6010 O   0  0  0  0  0  0  0  0  0  0  0  0
   -4.0740   14.9050    0.4940 O   0  0  0  0  0  0  0  0  0  0  0  0
  1  2  1  0
  2  3  1  0
  2  4  1  0
  4  5  1  0
  5  6  1  0
  6  7  1  0
  7  8  1  0
  7  9  1  0
  8 10  2  0
  8 11  1  0
  9 12  1  0
  9 13  2  0
 11 14  1  0
 12 14  1  1
 12 15  1  0
 13 16  1  0
 15 16  2  0
 14 17  2  0
 15 18  1  0
M  CHG  1  18  -1
M  END
