mac-x0392-mac-x0161
     RDKit          3D

 22 24  0  0  0  0  0  0  0  0999 V2000
   -0.1140   13.6750    1.4790 N   0  0  0  0  0  0  0  0  0  0  0  0
   -1.4140   14.3590    1.6180 C   0  0  0  0  0  0  0  0  0  0  0  0
   -2.1830   14.6810    0.3740 C   0  0  2  0  0  0  0  0  0  0  0  0
   -3.6470   14.7610    0.4390 N   0  0  0  0  0  0  0  0  0  0  0  0
   -1.6000   13.9100   -0.8060 C   0  0  1  0  0  0  0  0  0  0  0  0
   -1.7240   16.0040   -0.1140 C   0  0  0  0  0  0  0  0  0  0  0  0
   -4.2520   15.3250    1.5920 N   0  0  0  0  0  0  0  0  0  0  0  0
   -2.3660   14.1510   -2.0910 C   0  0  2  0  0  0  0  0  0  0  0  0
   -4.1330   15.2990   -0.7230 C   0  0  0  0  0  0  0  0  0  0  0  0
   -0.2590   14.5330   -0.8460 N   0  0  0  0  0  0  0  0  0  0  0  0
   -0.6020   15.8580   -0.8110 C   0  0  0  0  0  0  0  0  0  0  0  0
   -1.4040   14.4490   -3.2520 C   0  0  0  0  0  0  0  0  0  0  0  0
   -3.5790   15.0660   -1.9290 C   0  0  0  0  0  0  0  0  0  0  0  0
   -1.9990   15.1780   -4.3050 O   0  0  0  0  0  0  0  0  0  0  0  0
   -0.2420   15.1870   -2.8750 O   0  0  0  0  0  0  0  0  0  0  0  0
   -0.9510   13.1520   -3.7450 C   0  0  0  0  0  0  0  0  0  0  0  0
   -1.2420   12.3830   -4.8280 C   0  0  0  0  0  0  0  0  0  0  0  0
   -0.0370   12.5110   -2.9560 O   0  0  0  0  0  0  0  0  0  0  0  0
    0.2730   11.2930   -3.5200 N   0  0  0  0  0  0  0  0  0  0  0  0
   -0.4620   11.2450   -4.6310 C   0  0  0  0  0  0  0  0  0  0  0  0
   -0.4450   10.1880   -5.4620 O   0  0  0  0  0  0  0  0  0  0  0  0
   -1.6900    9.9950   -6.1230 C   0  0  0  0  0  0  0  0  0  0  0  0
  1  2  1  0
  3  2  1  1
  3  4  1  0
  3  5  1  0
  3  6  1  0
  4  7  1  0
  5  8  1  0
  4  9  1  0
  5 10  1  6
  6 11  2  0
 10 11  1  0
  8 12  1  6
  8 13  1  0
  9 13  2  0
 12 14  1  0
 12 15  1  0
 12 16  1  0
 16 17  2  0
 16 18  1  0
 18 19  1  0
 17 20  1  0
 19 20  2  0
 20 21  1  0
 21 22  1  0
M  END
