mac-x0338-diamond-x0626_0_A
     RDKit          3D

 18 19  0  0  0  0  0  0  0  0999 V2000
   -4.5300   16.0750    2.0260 N   0  0  0  0  0  0  0  0  0  0  0  0
   -4.7610   15.0000    1.0400 C   0  0  1  0  0  0  0  0  0  0  0  0
   -6.0080   14.0950    1.2030 C   0  0  0  0  0  0  0  0  0  0  0  0
   -4.7290   15.2000   -0.4420 C   0  0  0  0  0  0  0  0  0  0  0  0
   -3.4170   14.4240    0.8110 C   0  0  0  0  0  0  0  0  0  0  0  0
   -6.1790   13.1830    0.3870 O   0  0  0  0  0  0  0  0  0  0  0  0
   -7.0810   14.3640    2.2430 C   0  0  0  0  0  0  0  0  0  0  0  0
   -3.4620   15.2850   -0.9270 N   0  0  0  0  0  0  0  0  0  0  0  0
   -5.8230   15.2250   -1.2790 C   0  0  0  0  0  0  0  0  0  0  0  0
   -2.3610   14.6270    1.5620 N   0  0  0  0  0  0  0  0  0  0  0  0
   -3.1950   13.4860   -0.6220 S   0  0  0  0  0  0  0  0  0  0  0  0
   -8.4020   14.6600    1.5460 C   0  0  0  0  0  0  0  0  0  0  0  0
   -3.3220   15.3650   -2.2500 C   0  0  0  0  0  0  0  0  0  0  0  0
   -5.6770   15.3080   -2.6200 N   0  0  0  0  0  0  0  0  0  0  0  0
   -1.5600   13.3870   -0.2390 C   0  0  0  0  0  0  0  0  0  0  0  0
   -1.3130   14.0320    0.9400 C   0  0  0  0  0  0  0  0  0  0  0  0
   -0.0230   14.1140    1.5540 C   0  0  0  0  0  0  0  0  0  0  0  0
   -4.4030   15.3690   -3.0800 C   0  0  0  0  0  0  0  0  0  0  0  0
  2  1  1  1
  2  3  1  0
  2  4  1  0
  2  5  1  0
  3  6  2  0
  3  7  1  0
  4  8  2  0
  4  9  1  0
  5 10  2  0
  5 11  1  0
  7 12  1  0
  8 13  1  0
  9 14  2  0
 11 15  1  0
 10 16  1  0
 15 16  2  0
 16 17  1  0
 13 18  2  0
 14 18  1  0
M  END
