mac-x0441-mac-x0455
     RDKit          3D

 28 30  0  0  0  0  0  0  0  0999 V2000
    0.6050   10.5740   -3.0340 O   0  0  0  0  0  0  0  0  0  0  0  0
    0.6050   11.8970   -3.2880 C   0  0  0  0  0  0  0  0  0  0  0  0
    0.2670   12.7390   -2.3650 N   0  0  0  0  0  0  0  0  0  0  0  0
    1.0130   12.3660   -4.6730 C   0  0  0  0  0  0  0  0  0  0  0  0
    0.2630   14.0720   -2.7130 C   0  0  0  0  0  0  0  0  0  0  0  0
    0.5650   11.4780   -5.7510 N   0  0  0  0  0  0  0  0  0  0  0  0
   -1.0870   14.5230   -3.3950 C   0  0  1  0  0  0  0  0  0  0  0  0
    1.2150   14.8220   -2.4990 O   0  0  0  0  0  0  0  0  0  0  0  0
    1.1940   11.5590   -6.9630 N   0  0  0  0  0  0  0  0  0  0  0  0
   -0.4270   10.5290   -5.7530 C   0  0  0  0  0  0  0  0  0  0  0  0
   -2.1760   14.6500   -2.3240 C   0  0  0  0  0  0  0  0  0  0  0  0
   -0.9570   15.8220   -4.0030 O   0  0  0  0  0  0  0  0  0  0  0  0
    0.5810   10.6300   -7.7460 C   0  0  0  0  0  0  0  0  0  0  0  0
   -0.4330    9.9770   -7.0170 C   0  0  0  0  0  0  0  0  0  0  0  0
   -1.3340   10.1330   -4.6450 C   0  0  0  0  0  0  0  0  0  0  0  0
   -1.5490   13.5300   -4.4740 C   0  0  0  0  0  0  0  0  0  0  0  0
    0.8960   10.2930   -9.1930 C   0  0  0  0  0  0  0  0  0  0  0  0
   -1.3630    8.9000   -7.4420 C   0  0  0  0  0  0  0  0  0  0  0  0
   -2.4940    9.2660   -5.1930 C   0  0  0  0  0  0  0  0  0  0  0  0
   -2.7150   12.7690   -4.3040 C   0  0  0  0  0  0  0  0  0  0  0  0
   -0.8200   13.3550   -5.6620 C   0  0  0  0  0  0  0  0  0  0  0  0
    1.6080    9.1430   -9.3310 F   0  0  0  0  0  0  0  0  0  0  0  0
   -0.2420   10.1020   -9.9100 F   0  0  0  0  0  0  0  0  0  0  0  0
    1.5670   11.2450   -9.8720 F   0  0  0  0  0  0  0  0  0  0  0  0
   -2.0140    8.2310   -6.2230 C   0  0  0  0  0  0  0  0  0  0  0  0
   -3.1380   11.8670   -5.2850 C   0  0  0  0  0  0  0  0  0  0  0  0
   -1.2450   12.4490   -6.6380 C   0  0  0  0  0  0  0  0  0  0  0  0
   -2.3990   11.7080   -6.4510 C   0  0  0  0  0  0  0  0  0  0  0  0
  1  2  1  0
  2  3  2  3
  2  4  1  0
  3  5  1  0
  4  6  1  0
  5  7  1  0
  5  8  2  0
  6  9  1  0
  6 10  1  0
  7 11  1  1
  7 12  1  0
  9 13  2  0
 10 14  2  0
 13 14  1  0
 10 15  1  0
  7 16  1  0
 13 17  1  0
 14 18  1  0
 15 19  1  0
 16 20  2  0
 16 21  1  0
 17 22  1  0
 17 23  1  0
 17 24  1  0
 18 25  1  0
 19 25  1  0
 20 26  1  0
 21 27  2  0
 26 28  2  0
 27 28  1  0
M  END
