mac-x0576-mac-x0546
     RDKit          3D

 30 33  0  0  0  0  0  0  0  0999 V2000
    0.0570   14.2410    1.9990 N   0  0  0  0  0  0  0  0  0  0  0  0
   -0.9010   14.1510    0.9480 C   0  0  1  0  0  0  0  0  0  0  0  0
   -2.1430   14.3770    1.6400 N   0  0  0  0  0  0  0  0  0  0  0  0
   -0.6830   14.9140   -0.2050 N   0  0  0  0  0  0  0  0  0  0  0  0
   -1.6230   14.7360   -1.1640 C   0  0  0  0  0  0  0  0  0  0  0  0
   -3.1050   15.1530    0.8530 C   0  0  1  0  0  0  0  0  0  0  0  0
   -1.3740   14.3240   -2.3370 N   0  0  0  0  0  0  0  0  0  0  0  0
   -3.0670   15.0690   -0.6980 C   0  0  2  0  0  0  0  0  0  0  0  0
   -4.4030   14.8950    1.4220 N   0  0  0  0  0  0  0  0  0  0  0  0
   -2.3920   14.0820   -3.3350 C   0  0  0  0  0  0  0  0  0  0  0  0
   -5.5580   14.8810    0.6910 C   0  0  0  0  0  0  0  0  0  0  0  0
   -4.1730   14.2720   -1.2430 N   0  0  0  0  0  0  0  0  0  0  0  0
   -6.6510   14.8300    1.2510 O   0  0  0  0  0  0  0  0  0  0  0  0
   -2.0130   12.7570   -3.9920 C   0  0  0  0  0  0  0  0  0  0  0  0
   -5.4160   14.9300   -0.8230 C   0  0  0  0  0  0  0  0  0  0  0  0
   -1.1500   12.0350   -3.0410 N   0  0  0  0  0  0  0  0  0  0  0  0
    0.0840   11.9310   -3.3260 C   0  0  0  0  0  0  0  0  0  0  0  0
    0.6860   12.5260   -4.5800 C   0  0  0  0  0  0  0  0  0  0  0  0
    0.9080   11.2670   -2.5210 O   0  0  0  0  0  0  0  0  0  0  0  0
    0.8040   14.0070   -4.4600 C   0  0  0  0  0  0  0  0  0  0  0  0
   -0.0090   14.9620   -5.2580 C   0  0  1  0  0  0  0  0  0  0  0  0
    1.6300   14.7130   -3.6890 C   0  0  0  0  0  0  0  0  0  0  0  0
   -1.5000   15.0580   -5.2390 C   0  0  0  0  0  0  0  0  0  0  0  0
    0.5550   16.2310   -4.6800 C   0  0  0  0  0  0  0  0  0  0  0  0
    1.4780   16.0690   -3.8030 N   0  0  0  0  0  0  0  0  0  0  0  0
   -2.0830   16.2710   -5.3390 C   0  0  0  0  0  0  0  0  0  0  0  0
    0.0130   17.5250   -5.1370 C   0  0  0  0  0  0  0  0  0  0  0  0
   -3.4420   16.4280   -5.3540 O   0  0  0  0  0  0  0  0  0  0  0  0
   -1.2980   17.4890   -5.4480 C   0  0  0  0  0  0  0  0  0  0  0  0
   -4.1160   15.3100   -5.9340 C   0  0  0  0  0  0  0  0  0  0  0  0
  2  1  1  1
  2  3  1  0
  2  4  1  0
  4  5  1  0
  6  3  1  1
  5  7  2  3
  5  8  1  0
  6  8  1  0
  6  9  1  0
  7 10  1  0
  9 11  1  0
  8 12  1  1
 11 13  2  0
 10 14  1  0
 11 15  1  0
 12 15  1  0
 14 16  1  0
 16 17  2  3
 17 18  1  0
 17 19  1  0
 18 20  1  0
 20 21  1  0
 20 22  2  0
 21 23  1  1
 21 24  1  0
 22 25  1  0
 24 25  2  0
 23 26  2  0
 24 27  1  0
 26 28  1  0
 26 29  1  0
 27 29  2  0
 28 30  1  0
M  END
