mac-x0263-mac-x0148
     RDKit          3D

 28 32  0  0  0  0  0  0  0  0999 V2000
  -11.3940   14.2160    2.1600 O   0  0  0  0  0  0  0  0  0  0  0  0
  -10.7230   15.2700    2.6540 C   0  0  0  0  0  0  0  0  0  0  0  0
  -11.2580   15.9830    3.4920 O   0  0  0  0  0  0  0  0  0  0  0  0
   -9.3410   15.4310    2.0530 C   0  0  0  0  0  0  0  0  0  0  0  0
   -8.7550   14.1170    1.5190 C   0  0  0  0  0  0  0  0  0  0  0  0
   -7.4110   14.2890    0.8680 C   0  0  0  0  0  0  0  0  0  0  0  0
   -7.2230   15.0610   -0.2590 N   0  0  0  0  0  0  0  0  0  0  0  0
   -6.2630   13.7530    1.2560 N   0  0  0  0  0  0  0  0  0  0  0  0
   -5.8970   14.9960   -0.5620 C   0  0  0  0  0  0  0  0  0  0  0  0
   -5.3140   14.1920    0.3610 C   0  0  0  0  0  0  0  0  0  0  0  0
   -5.2790   15.6380   -1.6200 C   0  0  0  0  0  0  0  0  0  0  0  0
   -3.8440   13.8730    0.3380 C   0  0  0  0  0  0  0  0  0  0  0  0
   -3.9240   15.6130   -1.6210 C   0  0  0  0  0  0  0  0  0  0  0  0
   -3.0180   14.9050   -0.5610 C   0  0  1  0  0  0  0  0  0  0  0  0
   -2.4520   15.8760    0.4720 C   0  0  0  0  0  0  0  0  0  0  0  0
   -1.5780   14.5470   -1.2120 C   0  0  2  0  0  0  0  0  0  0  0  0
   -1.4250   13.7070   -2.4230 N   0  0  0  0  0  0  0  0  0  0  0  0
   -0.5060   14.1160   -0.2910 N   0  0  0  0  0  0  0  0  0  0  0  0
   -1.6660   15.1700    1.4800 N   0  0  0  0  0  0  0  0  0  0  0  0
   -1.6020   14.3400   -3.7430 C   0  0  2  0  0  0  0  0  0  0  0  0
   -0.1700   12.9140   -2.4450 C   0  0  0  0  0  0  0  0  0  0  0  0
   -0.3770   14.7790    0.9880 C   0  0  0  0  0  0  0  0  0  0  0  0
   -2.8230   15.1770   -4.1140 C   0  0  0  0  0  0  0  0  0  0  0  0
   -1.7730   13.1780   -4.7130 C   0  0  1  0  0  0  0  0  0  0  0  0
   -0.0610   11.9120   -3.6180 C   0  0  0  0  0  0  0  0  0  0  0  0
   -2.5840   13.7020   -5.8690 C   0  0  0  0  0  0  0  0  0  0  0  0
   -2.9170   15.0660   -5.5480 O   0  0  0  0  0  0  0  0  0  0  0  0
   -0.4360   12.5310   -4.9620 C   0  0  0  0  0  0  0  0  0  0  0  0
  1  2  1  0
  2  3  2  0
  2  4  1  0
  4  5  1  0
  5  6  1  0
  6  7  1  0
  6  8  2  0
  7  9  1  0
  8 10  1  0
  9 10  2  0
  9 11  1  0
 10 12  1  0
 11 13  2  0
 14 12  1  1
 14 13  1  0
 14 15  1  0
 14 16  1  0
 16 17  1  6
 16 18  1  0
 15 19  1  0
 17 20  1  0
 17 21  1  0
 18 22  1  0
 19 22  1  0
 20 23  1  1
 20 24  1  0
 21 25  1  0
 24 26  1  6
 23 27  1  0
 26 27  1  0
 24 28  1  0
 25 28  1  0
M  END
