mac-x0341-mac-x0326
     RDKit          3D

 20 22  0  0  0  0  0  0  0  0999 V2000
   -6.7550   14.7610    2.3480 N   0  0  0  0  0  0  0  0  0  0  0  0
   -6.0230   14.7920    1.2070 C   0  0  0  0  0  0  0  0  0  0  0  0
   -4.7330   14.8620    1.2820 N   0  0  0  0  0  0  0  0  0  0  0  0
   -6.6880   14.7500    0.0190 N   0  0  0  0  0  0  0  0  0  0  0  0
   -6.0550   15.0210   -1.1690 C   0  0  0  0  0  0  0  0  0  0  0  0
   -3.9820   14.8600    0.1030 C   0  0  0  0  0  0  0  0  0  0  0  0
   -6.6680   15.2960   -2.1860 O   0  0  0  0  0  0  0  0  0  0  0  0
   -4.5910   14.9380   -1.1410 C   0  0  0  0  0  0  0  0  0  0  0  0
   -2.5850   14.7640    0.1870 C   0  0  0  0  0  0  0  0  0  0  0  0
   -1.8440   14.7510   -1.0170 C   0  0  0  0  0  0  0  0  0  0  0  0
   -3.8630   14.9320   -2.3270 C   0  0  0  0  0  0  0  0  0  0  0  0
   -2.4670   14.8350   -2.2680 C   0  0  0  0  0  0  0  0  0  0  0  0
   -0.1390   14.6380   -1.2690 S   0  0  0  0  0  0  0  0  0  0  0  0
   -0.3730   14.7050   -2.9780 C   0  0  0  0  0  0  0  0  0  0  0  0
   -1.6230   14.8090   -3.3650 N   0  0  0  0  0  0  0  0  0  0  0  0
    0.7950   14.6450   -3.9270 C   0  0  0  0  0  0  0  0  0  0  0  0
    1.0350   13.2210   -4.4250 C   0  0  0  0  0  0  0  0  0  0  0  0
    1.1210   12.2810   -3.2580 C   0  0  0  0  0  0  0  0  0  0  0  0
    0.3360   11.1970   -3.3970 O   0  0  0  0  0  0  0  0  0  0  0  0
    1.8010   12.4270   -2.2650 O   0  0  0  0  0  0  0  0  0  0  0  0
  1  2  1  0
  2  3  2  0
  2  4  1  0
  4  5  1  0
  3  6  1  0
  5  7  2  0
  5  8  1  0
  6  8  2  0
  6  9  1  0
  9 10  2  0
  8 11  1  0
 10 12  1  0
 11 12  2  0
 10 13  1  0
 13 14  1  0
 12 15  1  0
 14 15  2  0
 14 16  1  0
 16 17  1  0
 17 18  1  0
 18 19  1  0
 18 20  2  0
M  END
