mac-x0572-mac-x1494
     RDKit          3D

 19 21  0  0  0  0  0  0  0  0999 V2000
   -8.0440   14.6340    3.3080 C   0  0  0  0  0  0  0  0  0  0  0  0
   -7.3290   14.7420    1.9830 C   0  0  0  0  0  0  0  0  0  0  0  0
   -5.9760   14.8820    2.1270 N   0  0  0  0  0  0  0  0  0  0  0  0
   -7.9560   14.7040    0.7920 C   0  0  0  0  0  0  0  0  0  0  0  0
   -9.3220   14.5550    0.6280 O   0  0  0  0  0  0  0  0  0  0  0  0
   -7.1400   14.8280   -0.4590 C   0  0  0  0  0  0  0  0  0  0  0  0
   -5.1930   14.9450    1.1050 C   0  0  0  0  0  0  0  0  0  0  0  0
   -7.6940   14.8550   -1.5480 O   0  0  0  0  0  0  0  0  0  0  0  0
   -5.6620   14.8990   -0.2870 C   0  0  0  0  0  0  0  0  0  0  0  0
   -3.7100   15.0710    1.3690 C   0  0  0  0  0  0  0  0  0  0  0  0
   -3.2800   15.1890    2.4940 O   0  0  0  0  0  0  0  0  0  0  0  0
   -2.8060   15.0200    0.2260 C   0  0  0  0  0  0  0  0  0  0  0  0
   -4.7630   14.9190   -1.2870 C   0  0  0  0  0  0  0  0  0  0  0  0
   -3.3060   14.9450   -1.0120 C   0  0  0  0  0  0  0  0  0  0  0  0
   -5.1560   14.9040   -2.7030 C   0  0  0  0  0  0  0  0  0  0  0  0
   -2.3710   14.8560   -2.1320 C   0  0  0  0  0  0  0  0  0  0  0  0
   -4.2400   14.8530   -3.6770 C   0  0  0  0  0  0  0  0  0  0  0  0
   -2.8300   14.8100   -3.3890 C   0  0  0  0  0  0  0  0  0  0  0  0
   -1.7460   14.6980   -4.7160 Cl  0  0  0  0  0  0  0  0  0  0  0  0
  1  2  1  0
  2  3  1  0
  2  4  2  0
  4  5  1  0
  4  6  1  0
  3  7  2  0
  6  8  2  0
  6  9  1  0
  7  9  1  0
  7 10  1  0
 10 11  2  0
 10 12  1  0
  9 13  2  0
 12 14  2  0
 13 14  1  0
 13 15  1  0
 14 16  1  0
 15 17  2  0
 16 18  2  0
 17 18  1  0
 18 19  1  0
M  END
