mac-x0338-diamond-x0910_0_A
     RDKit          3D

 14 15  0  0  0  0  0  0  0  0999 V2000
   -4.9680   15.2970    2.1690 N   0  0  0  0  0  0  0  0  0  0  0  0
   -5.7490   14.9410    1.1100 C   0  0  0  0  0  0  0  0  0  0  0  0
   -6.9280   14.6700    1.2710 O   0  0  0  0  0  0  0  0  0  0  0  0
   -5.0760   14.9230   -0.1940 C   0  0  0  0  0  0  0  0  0  0  0  0
   -3.7710   14.8560   -0.0430 N   0  0  0  0  0  0  0  0  0  0  0  0
   -5.6750   14.9670   -1.4430 C   0  0  0  0  0  0  0  0  0  0  0  0
   -3.0330   14.8320   -1.1270 C   0  0  0  0  0  0  0  0  0  0  0  0
   -4.9320   14.9390   -2.5910 N   0  0  0  0  0  0  0  0  0  0  0  0
   -3.5730   14.8720   -2.4110 C   0  0  0  0  0  0  0  0  0  0  0  0
   -1.6900   14.7690   -0.6510 C   0  0  0  0  0  0  0  0  0  0  0  0
   -1.5300   14.7910    0.7070 N   0  0  0  0  0  0  0  0  0  0  0  0
   -0.5150   14.7030   -1.2260 N   0  0  0  0  0  0  0  0  0  0  0  0
   -0.2510   14.7400    1.0560 N   0  0  0  0  0  0  0  0  0  0  0  0
    0.3270   14.6900   -0.1490 C   0  0  0  0  0  0  0  0  0  0  0  0
  1  2  1  0
  2  3  2  0
  2  4  1  0
  4  5  2  0
  4  6  1  0
  5  7  1  0
  6  8  2  0
  7  9  2  0
  8  9  1  0
  7 10  1  0
 10 11  1  0
 10 12  2  0
 11 13  1  0
 12 14  1  0
 13 14  2  0
M  END
