mac-x0451-mac-x0263
     RDKit          3D

 16 17  0  0  0  0  0  0  0  0999 V2000
   -6.6280   15.0860    3.1240 N   0  0  0  0  0  0  0  0  0  0  0  0
   -5.9800   14.4200    2.0460 C   0  0  1  0  0  0  0  0  0  0  0  0
   -6.6550   14.8100    0.8420 N   0  0  0  0  0  0  0  0  0  0  0  0
   -4.2370   14.9030    1.9490 S   0  0  0  0  0  0  0  0  0  0  0  0
   -8.1370   14.4830    0.8850 C   0  0  0  0  0  0  0  0  0  0  0  0
   -5.6510   14.4410   -0.1940 C   0  0  2  0  0  0  0  0  0  0  0  0
   -4.3590   15.1910    0.1880 C   0  0  2  0  0  0  0  0  0  0  0  0
   -9.0410   15.5640    1.5670 C   0  0  0  0  0  0  0  0  0  0  0  0
   -5.8900   14.7280   -1.6530 C   0  0  0  0  0  0  0  0  0  0  0  0
   -3.1720   14.6790   -0.6040 C   0  0  0  0  0  0  0  0  0  0  0  0
  -10.3150   15.1220    2.2820 C   0  0  0  0  0  0  0  0  0  0  0  0
   -4.8590   15.0220   -2.4820 C   0  0  0  0  0  0  0  0  0  0  0  0
   -3.4210   15.1230   -2.0400 C   0  0  2  0  0  0  0  0  0  0  0  0
   -2.5730   14.4580   -2.8760 F   0  0  0  0  0  0  0  0  0  0  0  0
  -10.8520   13.9480    1.9020 O   0  0  0  0  0  0  0  0  0  0  0  0
  -10.8420   15.8010    3.1640 O   0  0  0  0  0  0  0  0  0  0  0  0
  2  1  1  1
  2  3  1  0
  2  4  1  0
  3  5  1  0
  3  6  1  0
  4  7  1  0
  6  7  1  0
  5  8  1  0
  6  9  1  6
  7 10  1  6
  8 11  1  0
  9 12  2  0
 10 13  1  0
 12 13  1  0
 13 14  1  6
 11 15  1  0
 11 16  2  0
M  END
