mac-x0346-mac-x0223
     RDKit          3D

 26 27  0  0  0  0  0  0  0  0999 V2000
   -7.6790   14.0300    1.3900 O   0  0  0  0  0  0  0  0  0  0  0  0
   -7.8420   14.9010    0.2910 N   0  0  0  0  0  0  0  0  0  0  0  0
   -6.8660   14.9270   -0.6780 C   0  0  0  0  0  0  0  0  0  0  0  0
   -7.1760   14.8990   -1.8670 O   0  0  0  0  0  0  0  0  0  0  0  0
   -5.4230   14.9820   -0.3270 C   0  0  0  0  0  0  0  0  0  0  0  0
   -4.4680   14.8790   -1.3350 C   0  0  0  0  0  0  0  0  0  0  0  0
   -5.0510   15.1330    1.0180 C   0  0  0  0  0  0  0  0  0  0  0  0
   -5.0170   14.7250   -2.6010 O   0  0  0  0  0  0  0  0  0  0  0  0
   -3.1090   14.9330   -0.9670 C   0  0  0  0  0  0  0  0  0  0  0  0
   -3.7060   15.1830    1.3700 C   0  0  0  0  0  0  0  0  0  0  0  0
   -4.2500   14.8430   -3.7960 C   0  0  0  0  0  0  0  0  0  0  0  0
   -2.7380   15.0840    0.3810 C   0  0  0  0  0  0  0  0  0  0  0  0
   -3.2330   15.9030   -3.4560 C   0  0  0  0  0  0  0  0  0  0  0  0
   -2.8030   16.8330   -4.5130 O   0  0  0  0  0  0  0  0  0  0  0  0
   -1.6570   16.1720   -4.6250 C   0  0  0  0  0  0  0  0  0  0  0  0
   -0.3600   16.6800   -4.7840 C   0  0  0  0  0  0  0  0  0  0  0  0
   -1.9220   14.8360   -4.5210 C   0  0  0  0  0  0  0  0  0  0  0  0
   -0.1740   18.0300   -4.8950 O   0  0  0  0  0  0  0  0  0  0  0  0
   -0.9250   13.9350   -4.5400 C   0  0  0  0  0  0  0  0  0  0  0  0
    0.6760   15.7320   -4.8020 C   0  0  0  0  0  0  0  0  0  0  0  0
    1.0940   18.3680   -5.4490 C   0  0  0  0  0  0  0  0  0  0  0  0
    0.3740   14.3580   -4.6660 C   0  0  0  0  0  0  0  0  0  0  0  0
    1.3790   13.2620   -4.6250 C   0  0  0  0  0  0  0  0  0  0  0  0
    1.0290   12.4050   -3.4180 C   0  0  0  0  0  0  0  0  0  0  0  0
    0.4200   11.3480   -3.3860 O   0  0  0  0  0  0  0  0  0  0  0  0
    1.4580   12.9560   -2.2610 O   0  0  0  0  0  0  0  0  0  0  0  0
  1  2  1  0
  2  3  1  0
  3  4  2  0
  3  5  1  0
  5  6  2  0
  5  7  1  0
  6  8  1  0
  6  9  1  0
  7 10  2  0
  8 11  1  0
  9 12  2  0
 10 12  1  0
 11 13  1  0
 13 14  1  0
 14 15  1  0
 15 16  2  0
 15 17  1  0
 16 18  1  0
 17 19  2  0
 16 20  1  0
 18 21  1  0
 19 22  1  0
 20 22  2  0
 22 23  1  0
 23 24  1  0
 24 25  2  0
 24 26  1  0
M  END
