mac-x0180-mac-x0161
     RDKit          3D

 23 25  0  0  0  0  0  0  0  0999 V2000
   -7.8420   14.5090    1.2830 C   0  0  0  0  0  0  0  0  0  0  0  0
   -6.8450   14.7160    0.1710 C   0  0  0  0  0  0  0  0  0  0  0  0
   -7.1940   14.8040   -0.9970 O   0  0  0  0  0  0  0  0  0  0  0  0
   -5.5400   14.7970    0.5960 N   0  0  0  0  0  0  0  0  0  0  0  0
   -4.4620   14.2430   -0.1990 C   0  0  2  0  0  0  0  0  0  0  0  0
   -3.1100   14.3970    0.4910 C   0  0  0  0  0  0  0  0  0  0  0  0
   -4.5510   14.7920   -1.5950 C   0  0  0  0  0  0  0  0  0  0  0  0
   -1.8800   14.8760   -0.3350 C   0  0  0  0  0  0  0  0  0  0  0  0
   -3.5170   15.2790   -2.3000 C   0  0  0  0  0  0  0  0  0  0  0  0
   -2.0850   15.3780   -1.8010 C   0  0  2  0  0  0  0  0  0  0  0  0
   -1.1720   15.8300    0.5340 N   0  0  0  0  0  0  0  0  0  0  0  0
   -0.6890   14.0250   -0.1250 N   0  0  0  0  0  0  0  0  0  0  0  0
   -1.0010   15.0130   -2.8900 C   0  0  0  0  0  0  0  0  0  0  0  0
   -0.4080   14.7350    1.1110 C   0  0  0  0  0  0  0  0  0  0  0  0
   -1.3180   15.6760   -4.1050 O   0  0  0  0  0  0  0  0  0  0  0  0
    0.2780   15.4910   -2.5450 O   0  0  0  0  0  0  0  0  0  0  0  0
   -0.8140   13.5800   -3.3190 C   0  0  0  0  0  0  0  0  0  0  0  0
   -1.3490   12.7880   -4.3210 C   0  0  0  0  0  0  0  0  0  0  0  0
    0.0810   12.8280   -2.6130 O   0  0  0  0  0  0  0  0  0  0  0  0
    0.1490   11.5500   -3.1400 N   0  0  0  0  0  0  0  0  0  0  0  0
   -0.7100   11.5420   -4.1560 C   0  0  0  0  0  0  0  0  0  0  0  0
   -0.9000   10.4310   -4.9080 O   0  0  0  0  0  0  0  0  0  0  0  0
   -1.8130   10.5770   -5.9910 C   0  0  0  0  0  0  0  0  0  0  0  0
  1  2  1  0
  2  3  2  0
  2  4  1  0
  5  4  1  1
  5  6  1  0
  5  7  1  0
  6  8  1  0
  7  9  2  0
  8 10  1  0
  9 10  1  0
  8 11  1  0
  8 12  1  0
 10 13  1  6
 11 14  1  0
 12 14  1  0
 13 15  1  0
 13 16  1  0
 13 17  1  0
 17 18  2  0
 17 19  1  0
 19 20  1  0
 18 21  1  0
 20 21  2  0
 21 22  1  0
 22 23  1  0
M  END
