mac-x0398-mac-x0568
     RDKit          3D

 13 13  0  0  0  0  0  0  0  0999 V2000
   -6.3720   14.8500    2.2070 N   0  0  0  0  0  0  0  0  0  0  0  0
   -5.6720   14.9030    0.9990 C   0  0  0  0  0  0  0  0  0  0  0  0
   -4.2660   14.8800    1.0000 C   0  0  0  0  0  0  0  0  0  0  0  0
   -6.3710   14.9790   -0.2030 C   0  0  0  0  0  0  0  0  0  0  0  0
   -7.8880   14.9900   -0.1510 C   0  0  0  0  0  0  0  0  0  0  0  0
   -5.6330   15.0420   -1.4080 C   0  0  0  0  0  0  0  0  0  0  0  0
   -3.5240   14.9310   -0.1870 C   0  0  0  0  0  0  0  0  0  0  0  0
   -6.3500   15.1230   -2.5800 O   0  0  0  0  0  0  0  0  0  0  0  0
   -4.2160   15.0160   -1.4060 C   0  0  0  0  0  0  0  0  0  0  0  0
   -2.1170   14.8930   -0.0930 N   0  0  0  0  0  0  0  0  0  0  0  0
   -3.5060   15.0740   -2.7160 C   0  0  0  0  0  0  0  0  0  0  0  0
   -4.0690   15.1300   -3.7980 O   0  0  0  0  0  0  0  0  0  0  0  0
   -2.1600   15.0450   -2.6530 O   0  0  0  0  0  0  0  0  0  0  0  0
  1  2  1  0
  2  3  2  0
  2  4  1  0
  4  5  1  0
  4  6  2  0
  3  7  1  0
  6  8  1  0
  6  9  1  0
  7  9  2  0
  7 10  1  0
  9 11  1  0
 11 12  2  0
 11 13  1  0
M  END
