mac-x0568-mac-x0319
     RDKit          3D

 24 25  0  0  0  0  0  0  0  0999 V2000
   -8.4470   14.3700    1.4180 C   0  0  0  0  0  0  0  0  0  0  0  0
   -7.1090   14.5990    0.7870 C   0  0  0  0  0  0  0  0  0  0  0  0
   -5.9570   14.6100    1.5680 C   0  0  0  0  0  0  0  0  0  0  0  0
   -7.0760   14.7950   -0.5470 N   0  0  0  0  0  0  0  0  0  0  0  0
   -5.8610   15.0070   -1.1180 C   0  0  0  0  0  0  0  0  0  0  0  0
   -4.7190   14.8290    0.9600 C   0  0  0  0  0  0  0  0  0  0  0  0
   -4.6560   15.0340   -0.4180 C   0  0  0  0  0  0  0  0  0  0  0  0
   -3.3500   15.2670   -1.0930 C   0  0  0  0  0  0  0  0  0  0  0  0
   -3.2380   14.9310   -2.2660 O   0  0  0  0  0  0  0  0  0  0  0  0
   -2.3220   15.8820   -0.3960 N   0  0  0  0  0  0  0  0  0  0  0  0
   -1.3450   15.2500    0.4760 C   0  0  0  0  0  0  0  0  0  0  0  0
   -0.9450   13.8340    0.0590 C   0  0  0  0  0  0  0  0  0  0  0  0
    0.1240   13.7170   -1.0460 C   0  0  0  0  0  0  0  0  0  0  0  0
    0.2180   12.2870   -1.3500 N   0  0  0  0  0  0  0  0  0  0  0  0
    0.6540   11.7680   -2.4510 C   0  0  0  0  0  0  0  0  0  0  0  0
    0.5870   10.4160   -2.4510 O   0  0  0  0  0  0  0  0  0  0  0  0
    1.2010   12.4670   -3.6980 C   0  0  0  0  0  0  0  0  0  0  0  0
    0.5490   13.7830   -4.0430 C   0  0  0  0  0  0  0  0  0  0  0  0
    1.2600   14.9950   -3.9650 C   0  0  0  0  0  0  0  0  0  0  0  0
   -0.7950   13.8080   -4.4440 C   0  0  0  0  0  0  0  0  0  0  0  0
    0.6150   16.1930   -4.2810 C   0  0  0  0  0  0  0  0  0  0  0  0
   -1.4200   15.0150   -4.7590 C   0  0  0  0  0  0  0  0  0  0  0  0
    1.3090   17.3570   -4.1920 O   0  0  0  0  0  0  0  0  0  0  0  0
   -0.7150   16.2110   -4.6760 C   0  0  0  0  0  0  0  0  0  0  0  0
  1  2  1  0
  2  3  2  0
  2  4  1  0
  4  5  2  0
  3  6  1  0
  5  7  1  0
  6  7  2  0
  7  8  1  0
  8  9  2  0
  8 10  1  0
 10 11  1  0
 11 12  1  0
 12 13  1  0
 13 14  1  0
 14 15  2  3
 15 16  1  0
 15 17  1  0
 17 18  1  0
 18 19  2  0
 18 20  1  0
 19 21  1  0
 20 22  2  0
 21 23  1  0
 21 24  2  0
 22 24  1  0
M  END
