mac-x0567-diamond-x0438_0_A
     RDKit          3D

 19 21  0  0  0  0  0  0  0  0999 V2000
    0.2490   14.8180    0.2040 N   0  0  0  0  0  0  0  0  0  0  0  0
   -1.0660   14.7460    0.4870 C   0  0  0  0  0  0  0  0  0  0  0  0
   -1.5460   14.4980    1.7330 N   0  0  0  0  0  0  0  0  0  0  0  0
   -2.1740   14.8810   -0.3030 C   0  0  0  0  0  0  0  0  0  0  0  0
   -2.8990   14.4560    1.8120 N   0  0  0  0  0  0  0  0  0  0  0  0
   -3.2910   14.6830    0.5500 C   0  0  0  0  0  0  0  0  0  0  0  0
   -2.3170   15.1650   -1.7490 C   0  0  0  0  0  0  0  0  0  0  0  0
   -4.7410   14.7240    0.0420 C   0  0  2  0  0  0  0  0  0  0  0  0
   -3.7060   15.6580   -2.0590 C   0  0  0  0  0  0  0  0  0  0  0  0
   -4.7910   15.4870   -1.2660 C   0  0  0  0  0  0  0  0  0  0  0  0
   -5.7150   15.0870    1.1040 N   0  0  0  0  0  0  0  0  0  0  0  0
   -5.3510   13.3630   -0.2470 C   0  0  0  0  0  0  0  0  0  0  0  0
   -6.7970   13.6890   -0.4140 N   0  0  0  0  0  0  0  0  0  0  0  0
   -7.0670   14.6480    0.6550 C   0  0  1  0  0  0  0  0  0  0  0  0
   -7.9340   14.0550    1.7740 C   0  0  0  0  0  0  0  0  0  0  0  0
   -9.0930   15.1900    2.5410 S   0  0  0  0  0  0  0  0  0  0  0  0
   -8.2840   15.7610    4.0220 C   0  0  0  0  0  0  0  0  0  0  0  0
  -10.2780   14.4590    2.9610 O   0  0  0  0  0  0  0  0  0  0  0  0
   -9.2680   16.3300    1.6600 O   0  0  0  0  0  0  0  0  0  0  0  0
  1  2  1  0
  2  3  1  0
  2  4  2  0
  3  5  1  0
  4  6  1  0
  5  6  2  0
  4  7  1  0
  6  8  1  0
  7  9  1  0
  8 10  1  6
  9 10  2  0
  8 11  1  0
  8 12  1  0
 12 13  1  0
 11 14  1  0
 13 14  1  0
 14 15  1  1
 16 15  1  0
 16 17  1  0
 16 18  2  0
 16 19  2  0
M  END
