mac-x0411-diamond-x0967_0_A
     RDKit          3D

 25 27  0  0  0  0  0  0  0  0999 V2000
    0.5740    8.9590   -7.6850 Cl  0  0  0  0  0  0  0  0  0  0  0  0
   -0.6940    9.6570   -6.7310 C   0  0  0  0  0  0  0  0  0  0  0  0
   -0.5650   10.9000   -6.0670 C   0  0  0  0  0  0  0  0  0  0  0  0
   -1.8730    8.9280   -6.6490 C   0  0  0  0  0  0  0  0  0  0  0  0
    0.6400   11.5700   -6.1880 O   0  0  0  0  0  0  0  0  0  0  0  0
   -1.6650   11.4260   -5.3100 C   0  0  0  0  0  0  0  0  0  0  0  0
   -2.9440    9.4230   -5.9130 C   0  0  0  0  0  0  0  0  0  0  0  0
   -1.6510   12.7710   -4.5590 C   0  0  0  0  0  0  0  0  0  0  0  0
    0.9560   12.5320   -5.1710 C   0  0  0  0  0  0  0  0  0  0  0  0
   -2.8420   10.6510   -5.2570 C   0  0  0  0  0  0  0  0  0  0  0  0
    0.8700   11.9650   -3.7590 C   0  0  0  0  0  0  0  0  0  0  0  0
   -2.9530   13.1680   -3.8100 C   0  0  0  0  0  0  0  0  0  0  0  0
    1.3610   12.7800   -2.8020 O   0  0  0  0  0  0  0  0  0  0  0  0
    0.4160   10.8740   -3.4450 O   0  0  0  0  0  0  0  0  0  0  0  0
   -2.9100   14.5630   -3.1100 C   0  0  0  0  0  0  0  0  0  0  0  0
   -3.6710   14.6530   -1.7860 C   0  0  0  0  0  0  0  0  0  0  0  0
   -5.0230   14.5500   -1.8040 N   0  0  0  0  0  0  0  0  0  0  0  0
   -2.9690   14.8310   -0.5940 C   0  0  0  0  0  0  0  0  0  0  0  0
   -5.7190   14.6010   -0.6640 C   0  0  0  0  0  0  0  0  0  0  0  0
   -3.6780   14.8920    0.6000 C   0  0  0  0  0  0  0  0  0  0  0  0
   -7.0500   14.4830   -0.7280 N   0  0  0  0  0  0  0  0  0  0  0  0
   -5.0720   14.7690    0.5740 C   0  0  0  0  0  0  0  0  0  0  0  0
   -5.8410   14.8050    1.7420 C   0  0  0  0  0  0  0  0  0  0  0  0
   -7.7730   14.5170    0.4110 C   0  0  0  0  0  0  0  0  0  0  0  0
   -7.2200   14.6720    1.6670 C   0  0  0  0  0  0  0  0  0  0  0  0
  1  2  1  0
  2  3  2  0
  2  4  1  0
  3  5  1  0
  3  6  1  0
  4  7  2  0
  6  8  1  0
  5  9  1  0
  6 10  2  0
  7 10  1  0
  9 11  1  0
  8 12  1  0
 11 13  1  0
 11 14  2  0
 12 15  1  0
 15 16  1  0
 16 17  2  0
 16 18  1  0
 17 19  1  0
 18 20  2  0
 19 21  2  0
 19 22  1  0
 20 22  1  0
 22 23  2  0
 21 24  1  0
 23 25  1  0
 24 25  2  0
M  END
