mac-x0178-mac-x0226
     RDKit          3D

 25 27  0  0  0  0  0  0  0  0999 V2000
   -0.3310   18.1370   -6.4430 N   0  0  0  0  0  0  0  0  0  0  0  0
   -1.6980   17.5410   -5.6770 S   0  0  0  0  0  0  0  0  0  0  0  0
   -2.6070   17.1100   -6.7110 O   0  0  0  0  0  0  0  0  0  0  0  0
   -2.0430   18.5730   -4.7350 O   0  0  0  0  0  0  0  0  0  0  0  0
   -1.0690   16.1510   -4.7780 C   0  0  0  0  0  0  0  0  0  0  0  0
    0.1560   16.2750   -4.1110 C   0  0  0  0  0  0  0  0  0  0  0  0
   -1.7910   14.9530   -4.7250 C   0  0  0  0  0  0  0  0  0  0  0  0
    0.6480   15.2010   -3.3780 C   0  0  0  0  0  0  0  0  0  0  0  0
   -1.2900   13.8750   -3.9880 C   0  0  0  0  0  0  0  0  0  0  0  0
   -0.0720   14.0020   -3.3050 C   0  0  0  0  0  0  0  0  0  0  0  0
    0.5100   12.9170   -2.4790 C   0  0  0  0  0  0  0  0  0  0  0  0
    1.0230   13.1440   -1.4010 O   0  0  0  0  0  0  0  0  0  0  0  0
    0.5000   11.4820   -2.9110 C   0  0  0  0  0  0  0  0  0  0  0  0
    0.0200   10.6480   -2.1390 O   0  0  0  0  0  0  0  0  0  0  0  0
    1.0970   11.1450   -4.2500 C   0  0  2  0  0  0  0  0  0  0  0  0
    1.8690   12.2660   -4.9680 C   0  0  0  0  0  0  0  0  0  0  0  0
   -0.0180   10.7700   -5.2010 C   0  0  0  0  0  0  0  0  0  0  0  0
    1.3490   12.3020   -6.3480 N   0  0  0  0  0  0  0  0  0  0  0  0
    0.6260   11.1050   -6.4510 N   0  0  0  0  0  0  0  0  0  0  0  0
    0.1530   10.6050   -7.6650 C   0  0  0  0  0  0  0  0  0  0  0  0
   -0.9910    9.8030   -7.7240 C   0  0  0  0  0  0  0  0  0  0  0  0
    0.7900   10.8710   -8.8780 C   0  0  0  0  0  0  0  0  0  0  0  0
   -1.4610    9.3000   -8.9400 C   0  0  0  0  0  0  0  0  0  0  0  0
    0.3370   10.3790  -10.0930 C   0  0  0  0  0  0  0  0  0  0  0  0
   -0.7950    9.5870  -10.1260 C   0  0  0  0  0  0  0  0  0  0  0  0
  2  1  1  0
  2  3  2  0
  2  4  2  0
  2  5  1  0
  5  6  2  0
  5  7  1  0
  6  8  1  0
  7  9  2  0
  8 10  2  0
  9 10  1  0
 10 11  1  0
 11 12  2  0
 11 13  1  0
 13 14  2  0
 15 13  1  1
 15 16  1  0
 15 17  1  0
 16 18  1  0
 17 19  1  0
 18 19  1  0
 19 20  1  0
 20 21  2  0
 20 22  1  0
 21 23  1  0
 22 24  2  0
 23 25  2  0
 24 25  1  0
M  END
