mac-x0565-mac-x0584
     RDKit          3D

 23 27  0  0  0  0  0  0  0  0999 V2000
   -6.3610   14.2340    0.4750 O   0  0  0  0  0  0  0  0  0  0  0  0
   -6.4810   13.7440   -0.7760 C   0  0  0  0  0  0  0  0  0  0  0  0
   -7.5130   13.2330   -1.1460 O   0  0  0  0  0  0  0  0  0  0  0  0
   -5.2500   13.9460   -1.5900 C   0  0  0  0  0  0  0  0  0  0  0  0
   -3.9740   13.8080   -1.0230 C   0  0  0  0  0  0  0  0  0  0  0  0
   -5.3980   14.3070   -2.9490 C   0  0  0  0  0  0  0  0  0  0  0  0
   -2.8590   14.0670   -1.8160 C   0  0  0  0  0  0  0  0  0  0  0  0
   -4.2760   14.5520   -3.7500 C   0  0  0  0  0  0  0  0  0  0  0  0
   -3.0370   14.4390   -3.1610 C   0  0  0  0  0  0  0  0  0  0  0  0
   -1.4000   14.0950   -1.3940 C   0  0  2  0  0  0  0  0  0  0  0  0
   -1.8480   14.6820   -3.7710 O   0  0  0  0  0  0  0  0  0  0  0  0
   -0.9060   13.9710   -2.9190 C   0  0  0  0  0  0  0  0  0  0  0  0
   -0.5490   13.3910   -0.4000 N   0  0  0  0  0  0  0  0  0  0  0  0
   -2.3850   14.9140   -0.6540 C   0  0  0  0  0  0  0  0  0  0  0  0
    0.6240   14.1960   -3.2910 C   0  0  0  0  0  0  0  0  0  0  0  0
   -0.6630   12.5090   -3.4660 C   0  0  0  0  0  0  0  0  0  0  0  0
   -0.5860   13.6430    0.8750 C   0  0  0  0  0  0  0  0  0  0  0  0
   -2.2800   15.0110    0.7920 C   0  0  0  0  0  0  0  0  0  0  0  0
   -3.4830   15.5940   -1.0180 C   0  0  0  0  0  0  0  0  0  0  0  0
    0.8480   12.6710   -3.2530 C   0  0  0  0  0  0  0  0  0  0  0  0
   -1.4270   14.4620    1.5460 N   0  0  0  0  0  0  0  0  0  0  0  0
   -3.2970   15.7760    1.2610 N   0  0  0  0  0  0  0  0  0  0  0  0
   -3.9940   16.0780    0.2390 C   0  0  0  0  0  0  0  0  0  0  0  0
  1  2  1  0
  2  3  2  0
  2  4  1  0
  4  5  2  0
  4  6  1  0
  5  7  1  0
  6  8  2  0
  7  9  2  0
  8  9  1  0
  7 10  1  0
  9 11  1  0
 10 12  1  0
 12 11  1  0
 10 13  1  1
 10 14  1  0
 12 15  1  0
 12 16  1  0
 13 17  2  0
 14 18  1  0
 14 19  2  0
 15 20  1  0
 16 20  1  0
 17 21  1  0
 18 21  2  0
 18 22  1  0
 19 23  1  0
 22 23  2  0
M  END
