mac-x0433-mac-x0567
     RDKit          3D

 17 19  0  0  0  0  0  0  0  0999 V2000
   -4.1140   16.1550    0.8690 C   0  0  0  0  0  0  0  0  0  0  0  0
   -4.4350   14.8780    0.1270 C   0  0  1  0  0  0  0  0  0  0  0  0
   -5.7000   14.2460    0.7610 C   0  0  0  0  0  0  0  0  0  0  0  0
   -4.5820   15.1580   -1.3320 N   0  0  0  0  0  0  0  0  0  0  0  0
   -3.1850   14.0640    0.5230 C   0  0  2  0  0  0  0  0  0  0  0  0
   -5.8320   14.6790   -1.8700 C   0  0  2  0  0  0  0  0  0  0  0  0
   -7.0810   14.6350    0.1830 C   0  0  2  0  0  0  0  0  0  0  0  0
   -2.5590   14.5190    1.7810 N   0  0  0  0  0  0  0  0  0  0  0  0
   -2.0300   14.0550   -0.4970 C   0  0  2  0  0  0  0  0  0  0  0  0
   -3.4480   15.2830   -2.1140 C   0  0  0  0  0  0  0  0  0  0  0  0
   -8.0250   13.4570    0.2850 C   0  0  0  0  0  0  0  0  0  0  0  0
   -6.1570   14.9600   -3.2500 N   0  0  0  0  0  0  0  0  0  0  0  0
   -7.0260   15.0870   -1.2060 N   0  0  0  0  0  0  0  0  0  0  0  0
   -0.8020   14.5010    0.3210 C   0  0  1  0  0  0  0  0  0  0  0  0
   -1.1560   14.1180    1.6750 N   0  0  0  0  0  0  0  0  0  0  0  0
   -2.2550   14.8010   -1.7790 C   0  0  0  0  0  0  0  0  0  0  0  0
    0.3950   13.7590   -0.0250 N   0  0  0  0  0  0  0  0  0  0  0  0
  2  1  1  1
  2  3  1  0
  2  4  1  0
  2  5  1  0
  4  6  1  0
  3  7  1  0
  5  8  1  1
  5  9  1  0
  4 10  1  0
  7 11  1  6
  6 12  1  6
  6 13  1  0
  7 13  1  0
  9 14  1  0
  8 15  1  0
 14 15  1  0
  9 16  1  6
 10 16  2  0
 14 17  1  6
M  END
