mac-x0204-diamond-x0626_0_A
     RDKit          3D

 23 24  0  0  0  0  0  0  0  0999 V2000
    0.1880   12.7620   -2.4310 O   0  0  0  0  0  0  0  0  0  0  0  0
   -0.0490   14.0350   -2.8140 C   0  0  0  0  0  0  0  0  0  0  0  0
    0.5810   14.9520   -2.2150 N   0  0  0  0  0  0  0  0  0  0  0  0
   -1.0460   14.0890   -3.8650 C   0  0  0  0  0  0  0  0  0  0  0  0
    1.4160   14.4570   -1.1430 C   0  0  0  0  0  0  0  0  0  0  0  0
   -1.4460   15.3000   -4.4240 C   0  0  0  0  0  0  0  0  0  0  0  0
   -1.6120   12.9020   -4.3000 C   0  0  0  0  0  0  0  0  0  0  0  0
    0.3950   13.8390   -0.1810 C   0  0  0  0  0  0  0  0  0  0  0  0
   -2.4180   15.2590   -5.4080 C   0  0  0  0  0  0  0  0  0  0  0  0
   -2.5570   12.8420   -5.2600 N   0  0  0  0  0  0  0  0  0  0  0  0
   -2.8790   16.3910   -6.0130 O   0  0  0  0  0  0  0  0  0  0  0  0
   -0.2190   14.7650    0.8400 C   0  0  0  0  0  0  0  0  0  0  0  0
   -2.9400   14.0300   -5.7940 C   0  0  0  0  0  0  0  0  0  0  0  0
   -1.6520   14.8040    0.5280 C   0  0  0  0  0  0  0  0  0  0  0  0
   -2.6030   14.7810    1.5260 N   0  0  0  0  0  0  0  0  0  0  0  0
   -2.1330   14.8580   -0.7640 C   0  0  0  0  0  0  0  0  0  0  0  0
   -3.7820   14.8400    0.9370 C   0  0  0  0  0  0  0  0  0  0  0  0
   -3.8260   14.9080   -0.7670 S   0  0  0  0  0  0  0  0  0  0  0  0
   -5.0280   14.8510    1.4690 N   0  0  0  0  0  0  0  0  0  0  0  0
   -6.1510   14.6970    0.6970 C   0  0  0  0  0  0  0  0  0  0  0  0
   -6.2530   14.8140   -0.5210 O   0  0  0  0  0  0  0  0  0  0  0  0
   -7.3400   14.3470    1.5720 C   0  0  0  0  0  0  0  0  0  0  0  0
   -8.6670   14.6520    0.9000 C   0  0  0  0  0  0  0  0  0  0  0  0
  1  2  1  0
  2  3  2  3
  2  4  1  0
  3  5  1  0
  4  6  2  0
  4  7  1  0
  5  8  1  0
  6  9  1  0
  7 10  2  0
  9 11  1  0
  8 12  1  0
  9 13  2  0
 10 13  1  0
 12 14  1  0
 14 15  1  0
 14 16  2  0
 15 17  2  0
 16 18  1  0
 17 18  1  0
 17 19  1  0
 19 20  1  0
 20 21  2  0
 20 22  1  0
 22 23  1  0
M  END
