mac-x0441-diamond-x0681_0_A
     RDKit          3D

 31 34  0  0  0  0  0  0  0  0999 V2000
    0.3820   10.8080   -3.1300 O   0  0  0  0  0  0  0  0  0  0  0  0
    0.7780   12.0890   -3.3020 C   0  0  0  0  0  0  0  0  0  0  0  0
    1.4570   12.6200   -2.4370 O   0  0  0  0  0  0  0  0  0  0  0  0
    0.3030   12.7400   -4.5770 C   0  0  2  0  0  0  0  0  0  0  0  0
   -0.9200   13.6380   -4.2660 C   0  0  0  0  0  0  0  0  0  0  0  0
    0.0920   11.7760   -5.6700 N   0  0  0  0  0  0  0  0  0  0  0  0
   -1.4170   13.7770   -2.8000 C   0  0  0  0  0  0  0  0  0  0  0  0
    0.9380   11.7840   -6.7460 N   0  0  0  0  0  0  0  0  0  0  0  0
   -0.8700   10.8050   -5.8100 C   0  0  0  0  0  0  0  0  0  0  0  0
   -2.6100   14.5960   -2.9470 N   0  0  0  0  0  0  0  0  0  0  0  0
    0.4850   10.8020   -7.5650 C   0  0  0  0  0  0  0  0  0  0  0  0
   -0.6350   10.1740   -7.0090 C   0  0  0  0  0  0  0  0  0  0  0  0
   -1.9780   10.4500   -4.8870 C   0  0  0  0  0  0  0  0  0  0  0  0
    1.0650   10.4010   -8.8900 C   0  0  0  0  0  0  0  0  0  0  0  0
   -3.6000   14.9170   -2.1620 C   0  0  0  0  0  0  0  0  0  0  0  0
   -1.4470    9.0510   -7.5500 C   0  0  0  0  0  0  0  0  0  0  0  0
   -3.0580    9.6860   -5.6850 C   0  0  0  0  0  0  0  0  0  0  0  0
    1.6740    9.1840   -8.8420 F   0  0  0  0  0  0  0  0  0  0  0  0
    0.1030   10.3030   -9.8510 F   0  0  0  0  0  0  0  0  0  0  0  0
    1.9480   11.2470   -9.3900 F   0  0  0  0  0  0  0  0  0  0  0  0
   -4.6150   15.6990   -2.5990 N   0  0  0  0  0  0  0  0  0  0  0  0
   -2.4490    8.5370   -6.5060 C   0  0  0  0  0  0  0  0  0  0  0  0
   -3.9210   14.5570   -0.7010 C   0  0  1  0  0  0  0  0  0  0  0  0
   -4.8120   13.3750   -0.6050 C   0  0  0  0  0  0  0  0  0  0  0  0
   -2.9710   14.6820    0.4900 C   0  0  0  0  0  0  0  0  0  0  0  0
   -5.4980   13.2940    0.5300 N   0  0  0  0  0  0  0  0  0  0  0  0
   -3.7950   14.5290    1.7850 C   0  0  0  0  0  0  0  0  0  0  0  0
   -5.0780   12.3790   -1.4210 N   0  0  0  0  0  0  0  0  0  0  0  0
   -5.3090   14.3170    1.5230 C   0  0  0  0  0  0  0  0  0  0  0  0
   -6.2820   12.1900    0.5060 C   0  0  0  0  0  0  0  0  0  0  0  0
   -6.0060   11.6280   -0.7280 C   0  0  0  0  0  0  0  0  0  0  0  0
  1  2  1  0
  2  3  2  0
  2  4  1  0
  4  5  1  1
  4  6  1  0
  5  7  1  0
  6  8  1  0
  6  9  1  0
  7 10  1  0
  8 11  2  0
  9 12  2  0
 11 12  1  0
  9 13  1  0
 11 14  1  0
 10 15  2  3
 12 16  1  0
 13 17  1  0
 14 18  1  0
 14 19  1  0
 14 20  1  0
 15 21  1  0
 16 22  1  0
 17 22  1  0
 23 15  1  6
 23 24  1  0
 23 25  1  0
 24 26  1  0
 25 27  1  0
 24 28  2  0
 26 29  1  0
 27 29  1  0
 26 30  1  0
 28 31  1  0
 30 31  2  0
M  END
