mac-x0453-mac-x0510
     RDKit          3D

 12 13  0  0  0  0  0  0  0  0999 V2000
   -6.8240   14.1510    2.2110 N   0  0  0  0  0  0  0  0  0  0  0  0
   -5.8460   13.9720    1.1300 C   0  0  0  0  0  0  0  0  0  0  0  0
   -4.6850   14.9630    1.2970 C   0  0  0  0  0  0  0  0  0  0  0  0
   -3.8650   15.3980    0.0470 C   0  0  1  0  0  0  0  0  0  0  0  0
   -2.6270   14.5270   -0.2750 C   0  0  1  0  0  0  0  0  0  0  0  0
   -4.6540   15.3690   -1.2060 N   0  0  0  0  0  0  0  0  0  0  0  0
   -3.1030   13.6670   -1.3360 N   0  0  0  0  0  0  0  0  0  0  0  0
   -3.8780   14.5920   -2.1450 C   0  0  0  0  0  0  0  0  0  0  0  0
   -1.3240   14.9560   -0.7730 N   0  0  0  0  0  0  0  0  0  0  0  0
   -2.1160   13.8790    0.9750 C   0  0  0  0  0  0  0  0  0  0  0  0
   -1.3210   14.9560    1.5180 N   0  0  0  0  0  0  0  0  0  0  0  0
   -0.4440   15.1050    0.3930 C   0  0  0  0  0  0  0  0  0  0  0  0
  1  2  1  0
  2  3  1  0
  4  3  1  1
  4  5  1  0
  4  6  1  0
  5  7  1  0
  6  8  1  0
  7  8  1  0
  5  9  1  0
  5 10  1  1
 10 11  1  0
  9 12  1  0
 11 12  1  0
M  END
