mac-x0226-diamond-x0844_0_A
     RDKit          3D

 25 27  0  0  0  0  0  0  0  0999 V2000
    1.0720   12.5170   -1.9770 O   0  0  0  0  0  0  0  0  0  0  0  0
    0.2450   11.6560   -2.7290 C   0  0  0  0  0  0  0  0  0  0  0  0
    0.5400   10.3400   -2.2860 O   0  0  0  0  0  0  0  0  0  0  0  0
   -1.2280   11.8940   -2.3910 C   0  0  0  0  0  0  0  0  0  0  0  0
    0.5050   11.7300   -4.1990 C   0  0  0  0  0  0  0  0  0  0  0  0
   -1.4890   13.0610   -1.4440 C   0  0  0  0  0  0  0  0  0  0  0  0
    1.3860   12.5580   -4.9420 C   0  0  0  0  0  0  0  0  0  0  0  0
   -0.0950   10.9580   -5.1640 C   0  0  0  0  0  0  0  0  0  0  0  0
   -2.9890   13.2760   -1.3050 C   0  0  0  0  0  0  0  0  0  0  0  0
    1.3350   12.3120   -6.2550 N   0  0  0  0  0  0  0  0  0  0  0  0
    0.4130   11.3130   -6.3830 N   0  0  0  0  0  0  0  0  0  0  0  0
   -3.3740   14.4560   -2.0070 O   0  0  0  0  0  0  0  0  0  0  0  0
    0.0570   10.7400   -7.6360 C   0  0  0  0  0  0  0  0  0  0  0  0
   -1.0900    9.9450   -7.7080 C   0  0  0  0  0  0  0  0  0  0  0  0
    0.8030   10.9330   -8.7880 C   0  0  0  0  0  0  0  0  0  0  0  0
   -4.1590   15.3510   -1.2190 C   0  0  2  0  0  0  0  0  0  0  0  0
   -1.4660    9.3660   -8.9230 C   0  0  0  0  0  0  0  0  0  0  0  0
    0.4360   10.3610   -9.9990 C   0  0  0  0  0  0  0  0  0  0  0  0
   -3.6270   15.3400    0.1780 C   0  0  0  0  0  0  0  0  0  0  0  0
   -5.6320   14.9860   -1.3630 C   0  0  0  0  0  0  0  0  0  0  0  0
   -0.7030    9.5740  -10.0670 C   0  0  0  0  0  0  0  0  0  0  0  0
   -4.3890   15.1000    1.2340 C   0  0  0  0  0  0  0  0  0  0  0  0
   -6.4150   14.8620   -0.0710 C   0  0  0  0  0  0  0  0  0  0  0  0
   -7.6430   14.7910   -0.0620 O   0  0  0  0  0  0  0  0  0  0  0  0
   -5.7140   14.8340    1.1040 N   0  0  0  0  0  0  0  0  0  0  0  0
  2  1  1  0
  2  3  1  0
  2  4  1  0
  2  5  1  0
  4  6  1  0
  5  7  1  0
  5  8  2  0
  6  9  1  0
  7 10  2  0
  8 11  1  0
 10 11  1  0
  9 12  1  0
 11 13  1  0
 13 14  2  0
 13 15  1  0
 16 12  1  6
 14 17  1  0
 15 18  2  0
 16 19  1  0
 16 20  1  0
 17 21  2  0
 18 21  1  0
 19 22  2  0
 20 23  1  0
 23 24  2  0
 22 25  1  0
 23 25  1  0
M  END
