mac-x0178-mac-x0396
     RDKit          3D

 23 24  0  0  0  0  0  0  0  0999 V2000
   -0.4300   18.0770   -6.4600 N   0  0  0  0  0  0  0  0  0  0  0  0
   -1.7500   17.4620   -5.6390 S   0  0  0  0  0  0  0  0  0  0  0  0
   -2.6630   17.0150   -6.6590 O   0  0  0  0  0  0  0  0  0  0  0  0
   -2.0840   18.5030   -4.7010 O   0  0  0  0  0  0  0  0  0  0  0  0
   -1.0340   16.1110   -4.7320 C   0  0  0  0  0  0  0  0  0  0  0  0
    0.2910   15.7590   -4.9770 C   0  0  0  0  0  0  0  0  0  0  0  0
   -1.7870   15.4120   -3.7690 C   0  0  0  0  0  0  0  0  0  0  0  0
    0.8670   14.7110   -4.2680 C   0  0  0  0  0  0  0  0  0  0  0  0
   -1.2000   14.3570   -3.0300 C   0  0  0  0  0  0  0  0  0  0  0  0
   -1.9250   13.5900   -1.9370 C   0  0  0  0  0  0  0  0  0  0  0  0
    0.1290   14.0140   -3.3050 C   0  0  0  0  0  0  0  0  0  0  0  0
    0.7960   12.9130   -2.5790 C   0  0  0  0  0  0  0  0  0  0  0  0
   -3.3100   13.9550   -1.6110 N   0  0  0  0  0  0  0  0  0  0  0  0
    1.7190   13.0150   -1.8150 O   0  0  0  0  0  0  0  0  0  0  0  0
    0.2550   11.7080   -2.8520 O   0  0  0  0  0  0  0  0  0  0  0  0
   -3.7710   14.4590   -0.4980 C   0  0  0  0  0  0  0  0  0  0  0  0
   -2.9410   14.7710    0.5560 N   0  0  0  0  0  0  0  0  0  0  0  0
   -5.2140   14.6460   -0.3110 C   0  0  0  0  0  0  0  0  0  0  0  0
   -6.0300   15.0140   -1.3640 C   0  0  0  0  0  0  0  0  0  0  0  0
   -5.7750   14.4250    0.9370 C   0  0  0  0  0  0  0  0  0  0  0  0
   -7.3690   15.1640   -1.2300 N   0  0  0  0  0  0  0  0  0  0  0  0
   -7.1450   14.5730    1.1030 C   0  0  0  0  0  0  0  0  0  0  0  0
   -7.8960   14.9400   -0.0050 C   0  0  0  0  0  0  0  0  0  0  0  0
  2  1  1  0
  2  3  2  0
  2  4  2  0
  2  5  1  0
  5  6  2  0
  5  7  1  0
  6  8  1  0
  7  9  2  0
  9 10  1  0
  8 11  2  0
  9 11  1  0
 11 12  1  0
 10 13  1  0
 12 14  2  0
 12 15  1  0
 13 16  2  3
 16 17  1  0
 16 18  1  0
 18 19  2  0
 18 20  1  0
 19 21  1  0
 20 22  2  0
 21 23  2  0
 22 23  1  0
M  END
