mac-x0305-diamond-x0253_0_A
     RDKit          3D

 23 24  0  0  0  0  0  0  0  0999 V2000
   -0.1760   12.6310   -1.6200 N   0  0  0  0  0  0  0  0  0  0  0  0
   -0.3640   13.9960   -1.6020 C   0  0  0  0  0  0  0  0  0  0  0  0
    0.4490   14.7670   -2.0980 O   0  0  0  0  0  0  0  0  0  0  0  0
    0.3260   11.9380   -2.6280 C   0  0  0  0  0  0  0  0  0  0  0  0
    0.4550   10.5860   -2.5640 O   0  0  0  0  0  0  0  0  0  0  0  0
    0.8200   12.5510   -3.9720 C   0  0  0  0  0  0  0  0  0  0  0  0
   -1.6600   14.5250   -0.9680 C   0  0  0  0  0  0  0  0  0  0  0  0
    0.2660   11.8380   -5.1500 N   0  0  0  0  0  0  0  0  0  0  0  0
   -1.9320   14.7640    0.4170 C   0  0  0  0  0  0  0  0  0  0  0  0
   -2.6110   14.7720   -1.9270 N   0  0  0  0  0  0  0  0  0  0  0  0
   -1.0640   14.5610    1.4710 O   0  0  0  0  0  0  0  0  0  0  0  0
    1.0080   11.6700   -6.3320 C   0  0  0  0  0  0  0  0  0  0  0  0
   -3.2010   15.2580    0.7530 C   0  0  0  0  0  0  0  0  0  0  0  0
   -3.8110   15.2500   -1.5480 C   0  0  0  0  0  0  0  0  0  0  0  0
    2.0920   12.2040   -6.5130 O   0  0  0  0  0  0  0  0  0  0  0  0
   -4.1470   15.5050   -0.2370 C   0  0  0  0  0  0  0  0  0  0  0  0
    0.4120   10.7460   -7.3700 C   0  0  0  0  0  0  0  0  0  0  0  0
   -0.5780    9.8220   -7.0210 C   0  0  0  0  0  0  0  0  0  0  0  0
    0.8380   10.7900   -8.7110 C   0  0  0  0  0  0  0  0  0  0  0  0
   -1.1330    8.9610   -7.9840 C   0  0  0  0  0  0  0  0  0  0  0  0
    0.2930    9.9400   -9.6710 C   0  0  0  0  0  0  0  0  0  0  0  0
   -2.1940    7.9780   -7.5920 C   0  0  0  0  0  0  0  0  0  0  0  0
   -0.6890    9.0290   -9.3100 C   0  0  0  0  0  0  0  0  0  0  0  0
  1  2  1  0
  2  3  2  0
  1  4  2  3
  4  5  1  0
  4  6  1  0
  2  7  1  0
  6  8  1  0
  7  9  2  0
  7 10  1  0
  9 11  1  0
  8 12  1  0
  9 13  1  0
 10 14  2  0
 12 15  2  0
 13 16  2  0
 14 16  1  0
 12 17  1  0
 17 18  2  0
 17 19  1  0
 18 20  1  0
 19 21  2  0
 20 22  1  0
 20 23  2  0
 21 23  1  0
M  END
