mac-x0439-mac-x0397
     RDKit          3D

 26 29  0  0  0  0  0  0  0  0999 V2000
   -3.0760   15.7140   -5.3100 Cl  0  0  0  0  0  0  0  0  0  0  0  0
   -1.6110   16.6030   -5.4160 C   0  0  0  0  0  0  0  0  0  0  0  0
   -0.3110   15.8830   -5.2250 C   0  0  2  0  0  0  0  0  0  0  0  0
   -1.6140   17.9150   -5.6930 C   0  0  0  0  0  0  0  0  0  0  0  0
   -0.0480   14.7610   -4.3140 C   0  0  0  0  0  0  0  0  0  0  0  0
    0.7230   16.8300   -4.7130 C   0  0  0  0  0  0  0  0  0  0  0  0
   -0.3680   18.6500   -5.7970 C   0  0  0  0  0  0  0  0  0  0  0  0
    0.9880   15.0900   -3.5590 C   0  0  0  0  0  0  0  0  0  0  0  0
    1.4670   16.3530   -3.7850 N   0  0  0  0  0  0  0  0  0  0  0  0
    0.8000   18.1670   -5.3290 C   0  0  0  0  0  0  0  0  0  0  0  0
    1.5800   14.1850   -2.5530 C   0  0  0  0  0  0  0  0  0  0  0  0
    2.9180   14.4070   -2.4290 O   0  0  0  0  0  0  0  0  0  0  0  0
    0.9290   13.3040   -1.8920 N   0  0  0  0  0  0  0  0  0  0  0  0
   -0.5210   13.1850   -2.1290 C   0  0  0  0  0  0  0  0  0  0  0  0
   -1.1700   14.5580   -2.4020 C   0  0  0  0  0  0  0  0  0  0  0  0
   -2.5040   14.6940   -1.7150 C   0  0  0  0  0  0  0  0  0  0  0  0
   -3.7070   14.8530   -2.4190 C   0  0  0  0  0  0  0  0  0  0  0  0
   -2.5060   14.6510   -0.3250 C   0  0  0  0  0  0  0  0  0  0  0  0
   -3.7220   14.7570    0.3370 C   0  0  0  0  0  0  0  0  0  0  0  0
   -4.9060   14.9560   -1.7130 C   0  0  0  0  0  0  0  0  0  0  0  0
   -6.4330   15.1400   -2.4520 Cl  0  0  0  0  0  0  0  0  0  0  0  0
   -4.9340   14.9020   -0.3210 C   0  0  0  0  0  0  0  0  0  0  0  0
   -3.9990   14.7280    2.0100 S   0  0  0  0  0  0  0  0  0  0  0  0
   -5.6800   14.8900    1.7410 C   0  0  0  0  0  0  0  0  0  0  0  0
   -6.0430   14.9740    0.4990 N   0  0  0  0  0  0  0  0  0  0  0  0
   -6.5640   14.9280    2.7480 N   0  0  0  0  0  0  0  0  0  0  0  0
  1  2  1  0
  2  3  1  0
  2  4  2  0
  3  5  1  1
  3  6  1  0
  4  7  1  0
  5  8  2  0
  6  9  2  0
  8  9  1  0
  6 10  1  0
  7 10  2  0
  8 11  1  0
 11 12  1  0
 11 13  2  3
 13 14  1  0
 14 15  1  0
 15 16  1  0
 16 17  2  0
 16 18  1  0
 18 19  2  0
 17 20  1  0
 20 21  1  0
 19 22  1  0
 20 22  2  0
 19 23  1  0
 23 24  1  0
 22 25  1  0
 24 25  2  0
 24 26  1  0
M  END
