mac-x0392-mac-x0132
     RDKit          3D

 21 23  0  0  0  0  0  0  0  0999 V2000
    0.4930   15.0060   -0.0460 N   0  0  0  0  0  0  0  0  0  0  0  0
   -0.7200   14.2220    0.2090 C   0  0  1  0  0  0  0  0  0  0  0  0
   -1.7090   14.9540    1.1480 C   0  0  0  0  0  0  0  0  0  0  0  0
   -1.3210   13.6880   -1.1130 C   0  0  2  0  0  0  0  0  0  0  0  0
   -0.8770   14.4760   -2.3540 C   0  0  0  0  0  0  0  0  0  0  0  0
   -2.8080   13.5480   -1.1310 C   0  0  0  0  0  0  0  0  0  0  0  0
   -3.1030   14.4750    1.0850 N   0  0  0  0  0  0  0  0  0  0  0  0
   -1.5400   14.5740   -3.3800 O   0  0  0  0  0  0  0  0  0  0  0  0
    0.3400   15.0560   -2.2630 O   0  0  0  0  0  0  0  0  0  0  0  0
   -4.1030   15.1350    1.7820 N   0  0  0  0  0  0  0  0  0  0  0  0
   -3.5570   13.9140   -0.0910 C   0  0  0  0  0  0  0  0  0  0  0  0
   -5.2970   14.9840    1.0320 C   0  0  0  0  0  0  0  0  0  0  0  0
   -5.0880   15.0810   -0.3370 C   0  0  0  0  0  0  0  0  0  0  0  0
   -6.5190   14.7420    1.5780 N   0  0  0  0  0  0  0  0  0  0  0  0
   -6.2000   14.8950   -1.1410 C   0  0  0  0  0  0  0  0  0  0  0  0
   -7.5190   14.5920    0.6960 C   0  0  0  0  0  0  0  0  0  0  0  0
   -3.8260   15.3440   -0.9170 C   0  0  0  0  0  0  0  0  0  0  0  0
   -7.4150   14.6550   -0.6420 N   0  0  0  0  0  0  0  0  0  0  0  0
   -6.0130   14.9570   -2.5130 C   0  0  0  0  0  0  0  0  0  0  0  0
   -3.6640   15.4010   -2.2820 C   0  0  0  0  0  0  0  0  0  0  0  0
   -4.7620   15.1990   -3.0840 C   0  0  0  0  0  0  0  0  0  0  0  0
  2  1  1  6
  2  3  1  0
  2  4  1  0
  4  5  1  6
  4  6  1  0
  3  7  1  0
  5  8  2  0
  5  9  1  0
  7 10  1  0
  6 11  2  0
  7 11  1  0
 10 12  1  0
 12 13  1  0
 12 14  2  0
 13 15  2  0
 14 16  1  0
 13 17  1  0
 15 18  1  0
 16 18  2  0
 15 19  1  0
 17 20  2  0
 19 21  2  0
 20 21  1  0
M  END
