mac-x0283-diamond-x0855_0_A
     RDKit          3D

 23 25  0  0  0  0  0  0  0  0999 V2000
   -6.8250   14.6690    2.4250 N   0  0  0  0  0  0  0  0  0  0  0  0
   -6.6190   14.7500    1.0960 C   0  0  0  0  0  0  0  0  0  0  0  0
   -7.5840   14.6430    0.1820 N   0  0  0  0  0  0  0  0  0  0  0  0
   -5.3470   14.9680    0.4970 C   0  0  0  0  0  0  0  0  0  0  0  0
   -6.9540   14.7870   -1.0450 O   0  0  0  0  0  0  0  0  0  0  0  0
   -5.6200   14.9800   -0.8570 C   0  0  0  0  0  0  0  0  0  0  0  0
   -4.0190   15.1530    0.9190 C   0  0  0  0  0  0  0  0  0  0  0  0
   -4.6570   15.1600   -1.8530 C   0  0  0  0  0  0  0  0  0  0  0  0
   -3.0240   15.3360   -0.0510 C   0  0  0  0  0  0  0  0  0  0  0  0
   -3.3220   15.3380   -1.4240 C   0  0  0  0  0  0  0  0  0  0  0  0
   -2.2030   15.5260   -2.4320 C   0  0  0  0  0  0  0  0  0  0  0  0
   -0.8060   15.1470   -1.8990 C   0  0  0  0  0  0  0  0  0  0  0  0
    0.1360   14.6010   -2.9840 C   0  0  0  0  0  0  0  0  0  0  0  0
    0.9130   13.4680   -2.5140 O   0  0  0  0  0  0  0  0  0  0  0  0
    0.7890   12.3080   -3.2240 C   0  0  0  0  0  0  0  0  0  0  0  0
    0.7680   11.1900   -2.7140 O   0  0  0  0  0  0  0  0  0  0  0  0
    0.6530   12.5250   -4.7070 C   0  0  0  0  0  0  0  0  0  0  0  0
   -0.4040   11.6790   -5.2050 N   0  0  0  0  0  0  0  0  0  0  0  0
   -0.3110   10.7230   -6.1710 C   0  0  0  0  0  0  0  0  0  0  0  0
   -1.6490   11.7980   -4.6870 N   0  0  0  0  0  0  0  0  0  0  0  0
   -1.5620   10.1870   -6.2730 C   0  0  0  0  0  0  0  0  0  0  0  0
   -2.3550   10.8770   -5.3480 C   0  0  0  0  0  0  0  0  0  0  0  0
   -2.1350    8.8180   -7.3960 Br  0  0  0  0  0  0  0  0  0  0  0  0
  1  2  1  0
  2  3  2  0
  2  4  1  0
  3  5  1  0
  4  6  2  0
  5  6  1  0
  4  7  1  0
  6  8  1  0
  7  9  2  0
  8 10  2  0
  9 10  1  0
 10 11  1  0
 11 12  1  0
 12 13  1  0
 13 14  1  0
 14 15  1  0
 15 16  2  0
 15 17  1  0
 17 18  1  0
 18 19  1  0
 18 20  1  0
 19 21  2  0
 20 22  2  0
 21 22  1  0
 21 23  1  0
M  END
