mac-x0451-diamond-x0689_0_A
     RDKit          3D

 19 21  0  0  0  0  0  0  0  0999 V2000
   -7.1910   13.9910    1.9500 N   0  0  0  0  0  0  0  0  0  0  0  0
   -5.8170   14.3740    1.8990 C   0  0  2  0  0  0  0  0  0  0  0  0
   -5.6010   15.3360    0.8620 N   0  0  0  0  0  0  0  0  0  0  0  0
   -4.7410   12.9890    1.4300 S   0  0  0  0  0  0  0  0  0  0  0  0
   -4.3190   15.8960    1.2110 C   0  0  0  0  0  0  0  0  0  0  0  0
   -5.4320   14.6360   -0.3880 C   0  0  2  0  0  0  0  0  0  0  0  0
   -4.1290   13.9730    0.0150 C   0  0  2  0  0  0  0  0  0  0  0  0
   -3.4300   14.9250    1.7260 N   0  0  0  0  0  0  0  0  0  0  0  0
   -5.2960   15.4290   -1.6530 C   0  0  0  0  0  0  0  0  0  0  0  0
   -3.3680   13.3010   -1.1210 C   0  0  0  0  0  0  0  0  0  0  0  0
   -4.3210   15.2020   -2.5450 C   0  0  0  0  0  0  0  0  0  0  0  0
   -3.2690   14.1470   -2.4040 C   0  0  1  0  0  0  0  0  0  0  0  0
   -2.2120   14.7440    1.1500 C   0  0  0  0  0  0  0  0  0  0  0  0
   -2.0430   14.7320   -2.5080 F   0  0  0  0  0  0  0  0  0  0  0  0
   -2.0810   14.9150   -0.1730 N   0  0  0  0  0  0  0  0  0  0  0  0
   -1.2540   14.4020    1.9460 N   0  0  0  0  0  0  0  0  0  0  0  0
   -0.8620   14.7060   -0.6860 C   0  0  0  0  0  0  0  0  0  0  0  0
   -0.0870   14.2030    1.4130 C   0  0  0  0  0  0  0  0  0  0  0  0
    0.1970   14.3390    0.0760 C   0  0  0  0  0  0  0  0  0  0  0  0
  2  1  1  6
  2  3  1  0
  2  4  1  0
  3  5  1  0
  3  6  1  0
  4  7  1  0
  6  7  1  0
  5  8  1  0
  6  9  1  6
  7 10  1  6
  9 11  2  0
 10 12  1  0
 11 12  1  0
  8 13  1  0
 12 14  1  1
 13 15  2  0
 13 16  1  0
 15 17  1  0
 16 18  2  0
 17 19  2  0
 18 19  1  0
M  END
