mac-x0180-diamond-x0685_1_A
     RDKit          3D

 25 26  0  0  0  0  0  0  0  0999 V2000
   -7.6890   14.4910    1.5720 C   0  0  0  0  0  0  0  0  0  0  0  0
   -6.7470   14.7360    0.4170 C   0  0  0  0  0  0  0  0  0  0  0  0
   -7.1690   14.7840   -0.7300 O   0  0  0  0  0  0  0  0  0  0  0  0
   -5.4290   14.8900    0.8270 N   0  0  0  0  0  0  0  0  0  0  0  0
   -4.3430   14.8830   -0.0800 C   0  0  0  0  0  0  0  0  0  0  0  0
   -3.0610   14.6360    0.4320 C   0  0  0  0  0  0  0  0  0  0  0  0
   -4.4930   15.1030   -1.4500 C   0  0  0  0  0  0  0  0  0  0  0  0
   -1.9480   14.6010   -0.4250 C   0  0  0  0  0  0  0  0  0  0  0  0
   -3.3880   15.0690   -2.3090 C   0  0  0  0  0  0  0  0  0  0  0  0
   -2.1050   14.8130   -1.8060 C   0  0  0  0  0  0  0  0  0  0  0  0
   -0.9690   14.7790   -2.7730 C   0  0  0  0  0  0  0  0  0  0  0  0
   -0.9750   15.3300   -3.8660 O   0  0  0  0  0  0  0  0  0  0  0  0
    0.0720   14.0460   -2.2950 O   0  0  0  0  0  0  0  0  0  0  0  0
    0.5870   12.6500   -2.9610 S   0  0  0  0  0  0  0  0  0  0  0  0
    0.0190   12.6510   -4.6540 C   0  0  0  0  0  0  0  0  0  0  0  0
    2.1850   12.5400   -3.0510 O   0  0  0  0  0  0  0  0  0  0  0  0
   -0.0040   11.3130   -2.2830 O   0  0  0  0  0  0  0  0  0  0  0  0
   -1.3760   12.0470   -4.7910 C   0  0  0  0  0  0  0  0  0  0  0  0
   -1.2800   10.5900   -4.9580 N   0  0  0  0  0  0  0  0  0  0  0  0
   -1.4210   10.0780   -6.3350 C   0  0  0  0  0  0  0  0  0  0  0  0
   -0.2300    9.2140   -6.7450 C   0  0  0  0  0  0  0  0  0  0  0  0
   -1.5730   11.2100   -7.3550 C   0  0  0  0  0  0  0  0  0  0  0  0
   -0.4310    8.4460   -8.0400 C   0  0  0  0  0  0  0  0  0  0  0  0
   -1.1110   10.7810   -8.7580 C   0  0  0  0  0  0  0  0  0  0  0  0
   -1.2100    9.2760   -9.0460 C   0  0  0  0  0  0  0  0  0  0  0  0
  1  2  1  0
  2  3  2  0
  2  4  1  0
  4  5  1  0
  5  6  2  0
  5  7  1  0
  6  8  1  0
  7  9  2  0
  8 10  2  0
  9 10  1  0
 10 11  1  0
 11 12  2  0
 11 13  1  0
 14 13  1  0
 14 15  1  0
 14 16  1  0
 14 17  1  0
 15 18  1  0
 18 19  1  0
 19 20  1  0
 20 21  1  0
 20 22  1  0
 21 23  1  0
 22 24  1  0
 23 25  1  0
 24 25  1  0
M  END
