mac-x0441-mac-x0224
     RDKit          3D

 27 29  0  0  0  0  0  0  0  0999 V2000
    2.1180   12.1020   -2.9610 O   0  0  0  0  0  0  0  0  0  0  0  0
    0.8680   11.9430   -3.5750 C   0  0  1  0  0  0  0  0  0  0  0  0
   -0.2390   12.5430   -2.9200 N   0  0  0  0  0  0  0  0  0  0  0  0
    0.8660   12.6130   -4.9520 C   0  0  0  0  0  0  0  0  0  0  0  0
   -0.3470   13.7920   -2.6960 C   0  0  0  0  0  0  0  0  0  0  0  0
    0.4360   11.7020   -5.9950 N   0  0  0  0  0  0  0  0  0  0  0  0
    1.1570   11.6900   -7.1360 N   0  0  0  0  0  0  0  0  0  0  0  0
   -0.6100   10.8210   -6.0230 C   0  0  0  0  0  0  0  0  0  0  0  0
   -1.5470   14.3790   -2.1390 C   0  0  0  0  0  0  0  0  0  0  0  0
    0.5520   10.7730   -7.9180 C   0  0  0  0  0  0  0  0  0  0  0  0
   -0.5510   10.2090   -7.2500 C   0  0  0  0  0  0  0  0  0  0  0  0
   -1.6270   10.5430   -4.9710 C   0  0  0  0  0  0  0  0  0  0  0  0
   -1.7880   14.4930   -0.7790 C   0  0  0  0  0  0  0  0  0  0  0  0
   -2.4720   14.8130   -3.0780 C   0  0  0  0  0  0  0  0  0  0  0  0
    0.9770   10.3920   -9.3100 C   0  0  0  0  0  0  0  0  0  0  0  0
   -2.1900   14.6860   -4.4110 O   0  0  0  0  0  0  0  0  0  0  0  0
   -1.5060    9.1630   -7.7070 C   0  0  0  0  0  0  0  0  0  0  0  0
   -2.8130    9.7860   -5.6100 C   0  0  0  0  0  0  0  0  0  0  0  0
   -2.9920   15.0520   -0.3620 C   0  0  0  0  0  0  0  0  0  0  0  0
   -3.6680   15.3640   -2.6680 C   0  0  0  0  0  0  0  0  0  0  0  0
    1.6570    9.2130   -9.3210 F   0  0  0  0  0  0  0  0  0  0  0  0
   -0.1020   10.1960  -10.1030 F   0  0  0  0  0  0  0  0  0  0  0  0
    1.7180   11.2940   -9.9810 F   0  0  0  0  0  0  0  0  0  0  0  0
   -3.2830   15.1910    1.3780 S   0  0  0  0  0  0  0  0  0  0  0  0
   -2.3450    8.6440   -6.5260 C   0  0  0  0  0  0  0  0  0  0  0  0
   -3.9330   15.4860   -1.3070 C   0  0  0  0  0  0  0  0  0  0  0  0
   -5.0800   15.0070    1.3660 C   0  0  0  0  0  0  0  0  0  0  0  0
  2  1  1  1
  2  3  1  0
  2  4  1  0
  3  5  2  3
  4  6  1  0
  6  7  1  0
  6  8  1  0
  5  9  1  0
  7 10  2  0
  8 11  2  0
 10 11  1  0
  8 12  1  0
  9 13  2  0
  9 14  1  0
 10 15  1  0
 14 16  1  0
 11 17  1  0
 12 18  1  0
 13 19  1  0
 14 20  2  0
 15 21  1  0
 15 22  1  0
 15 23  1  0
 19 24  1  0
 17 25  1  0
 18 25  1  0
 19 26  2  0
 20 26  1  0
 24 27  1  0
M  END
