mac-x0282-mac-x0193
     RDKit          3D

 24 26  0  0  0  0  0  0  0  0999 V2000
    0.5220   11.2280   -3.0020 O   0  0  0  0  0  0  0  0  0  0  0  0
    0.7190   12.5000   -3.4390 C   0  0  0  0  0  0  0  0  0  0  0  0
    0.8780   13.5440   -2.7060 N   0  0  0  0  0  0  0  0  0  0  0  0
    0.7440   12.6610   -4.9450 C   0  0  0  0  0  0  0  0  0  0  0  0
    0.1720   11.5440   -5.6710 N   0  0  0  0  0  0  0  0  0  0  0  0
    0.8770   13.5090   -1.2600 C   0  0  0  0  0  0  0  0  0  0  0  0
    0.8180   11.2850   -6.8350 C   0  0  0  0  0  0  0  0  0  0  0  0
   -0.3390   14.0240   -0.5520 C   0  0  0  0  0  0  0  0  0  0  0  0
    1.9100   11.7520   -7.0140 O   0  0  0  0  0  0  0  0  0  0  0  0
    0.1500   10.4760   -7.7230 N   0  0  0  0  0  0  0  0  0  0  0  0
   -1.4430   14.4190   -1.2840 C   0  0  0  0  0  0  0  0  0  0  0  0
   -0.4080   14.1030    0.8530 C   0  0  0  0  0  0  0  0  0  0  0  0
   -2.5610   14.8540   -0.5900 C   0  0  0  0  0  0  0  0  0  0  0  0
   -1.4640   14.5240    1.5890 N   0  0  0  0  0  0  0  0  0  0  0  0
    0.8180   10.0040   -8.9370 C   0  0  0  0  0  0  0  0  0  0  0  0
   -3.8400   15.3140   -0.9640 C   0  0  0  0  0  0  0  0  0  0  0  0
   -2.4980   14.8740    0.8020 C   0  0  0  0  0  0  0  0  0  0  0  0
    1.4130    8.6120   -8.7290 C   0  0  0  0  0  0  0  0  0  0  0  0
   -0.0980   10.0020  -10.1640 C   0  0  0  0  0  0  0  0  0  0  0  0
   -4.5220   15.5890    0.1850 C   0  0  0  0  0  0  0  0  0  0  0  0
   -3.7020   15.3210    1.2510 N   0  0  0  0  0  0  0  0  0  0  0  0
    2.1240    8.0750   -9.9770 C   0  0  0  0  0  0  0  0  0  0  0  0
    0.6000    9.4930  -11.4330 C   0  0  0  0  0  0  0  0  0  0  0  0
    1.2660    8.1340  -11.2410 C   0  0  0  0  0  0  0  0  0  0  0  0
  1  2  1  0
  2  3  2  3
  2  4  1  0
  4  5  1  0
  3  6  1  0
  5  7  1  0
  6  8  1  0
  7  9  2  0
  7 10  1  0
  8 11  2  0
  8 12  1  0
 11 13  1  0
 12 14  2  0
 10 15  1  0
 13 16  1  0
 13 17  2  0
 14 17  1  0
 15 18  1  0
 15 19  1  0
 16 20  2  0
 17 21  1  0
 20 21  1  0
 18 22  1  0
 19 23  1  0
 22 24  1  0
 23 24  1  0
M  END
