mac-x0360-diamond-x0837_0_A
     RDKit          3D

 19 20  0  0  0  0  0  0  0  0999 V2000
   -7.3640   11.7170    1.7150 Cl  0  0  0  0  0  0  0  0  0  0  0  0
   -6.1420   11.8060    0.5020 C   0  0  0  0  0  0  0  0  0  0  0  0
   -6.1980   10.9180   -0.5690 C   0  0  0  0  0  0  0  0  0  0  0  0
   -5.1100   12.7470    0.5810 C   0  0  0  0  0  0  0  0  0  0  0  0
   -4.1290   12.7990   -0.4360 C   0  0  0  0  0  0  0  0  0  0  0  0
   -5.2190   10.9730   -1.5570 C   0  0  0  0  0  0  0  0  0  0  0  0
   -5.2800    9.8650   -2.8680 Cl  0  0  0  0  0  0  0  0  0  0  0  0
   -2.8050   14.0130   -0.3920 S   0  0  0  0  0  0  0  0  0  0  0  0
   -4.1870   11.9060   -1.5040 C   0  0  0  0  0  0  0  0  0  0  0  0
   -3.4830   14.9750   -1.5270 N   0  0  0  0  0  0  0  0  0  0  0  0
   -2.9770   14.7880    0.8020 O   0  0  0  0  0  0  0  0  0  0  0  0
   -1.5470   13.4950   -0.7950 O   0  0  0  0  0  0  0  0  0  0  0  0
   -4.6800   14.9970   -0.7600 C   0  0  1  0  0  0  0  0  0  0  0  0
   -4.2610   15.5160    0.5590 C   0  0  0  0  0  0  0  0  0  0  0  0
   -6.0210   15.4830   -1.1720 C   0  0  0  0  0  0  0  0  0  0  0  0
   -5.1240   15.3720    1.5250 C   0  0  0  0  0  0  0  0  0  0  0  0
   -6.9290   14.9850   -0.0540 C   0  0  0  0  0  0  0  0  0  0  0  0
   -8.1250   14.7630   -0.1990 O   0  0  0  0  0  0  0  0  0  0  0  0
   -6.3210   14.7930    1.1850 N   0  0  0  0  0  0  0  0  0  0  0  0
  1  2  1  0
  2  3  2  0
  2  4  1  0
  4  5  2  0
  3  6  1  0
  6  7  1  0
  5  8  1  0
  5  9  1  0
  6  9  2  0
  8 10  1  0
  8 11  2  0
  8 12  2  0
 13 10  1  6
 13 14  1  0
 13 15  1  0
 14 16  2  0
 15 17  1  0
 17 18  2  0
 16 19  1  0
 17 19  1  0
M  END
