mac-x0142-diamond-x0950_1_A
     RDKit          3D

 23 26  0  0  0  0  0  0  0  0999 V2000
    0.9320   12.6560   -5.6500 C   0  0  0  0  0  0  0  0  0  0  0  0
    2.0240   12.2310   -4.6900 C   0  0  2  0  0  0  0  0  0  0  0  0
    2.9430   11.3850   -5.3410 O   0  0  0  0  0  0  0  0  0  0  0  0
    0.0900   13.8130   -5.1010 C   0  0  2  0  0  0  0  0  0  0  0  0
    1.3830   11.6510   -3.4170 C   0  0  0  0  0  0  0  0  0  0  0  0
    0.7940   14.4840   -3.9230 C   0  0  0  0  0  0  0  0  0  0  0  0
   -1.3400   13.3790   -4.7000 C   0  0  0  0  0  0  0  0  0  0  0  0
    0.5860   10.7390   -3.3020 O   0  0  0  0  0  0  0  0  0  0  0  0
    1.8060   12.3150   -2.3170 O   0  0  0  0  0  0  0  0  0  0  0  0
    2.2870   14.6230   -3.9630 C   0  0  0  0  0  0  0  0  0  0  0  0
    1.6740   13.7520   -2.9280 C   0  0  0  0  0  0  0  0  0  0  0  0
   -2.0690   14.3580   -3.7570 C   0  0  0  0  0  0  0  0  0  0  0  0
   -0.0280   15.5450   -3.2950 C   0  0  0  0  0  0  0  0  0  0  0  0
   -1.1560   14.8380   -2.7210 N   0  0  0  0  0  0  0  0  0  0  0  0
   -1.3790   14.7910   -1.3420 C   0  0  0  0  0  0  0  0  0  0  0  0
   -0.3450   14.5840   -0.4350 N   0  0  0  0  0  0  0  0  0  0  0  0
   -2.5790   14.9620   -0.7820 C   0  0  0  0  0  0  0  0  0  0  0  0
   -0.5490   14.5350    0.9250 C   0  0  0  0  0  0  0  0  0  0  0  0
   -2.7270   14.9320    0.6950 C   0  0  0  0  0  0  0  0  0  0  0  0
   -3.9060   15.2170   -1.2440 C   0  0  0  0  0  0  0  0  0  0  0  0
   -1.6770   14.6880    1.5350 N   0  0  0  0  0  0  0  0  0  0  0  0
   -3.9490   15.1760    1.0590 N   0  0  0  0  0  0  0  0  0  0  0  0
   -4.6350   15.3390   -0.1320 C   0  0  0  0  0  0  0  0  0  0  0  0
  1  2  1  0
  2  3  1  6
  4  1  1  1
  2  5  1  0
  4  6  1  0
  4  7  1  0
  5  8  2  0
  5  9  1  0
  6 10  1  0
  6 11  1  0
 10 11  1  0
  7 12  1  0
  6 13  1  0
 12 14  1  0
 13 14  1  0
 14 15  1  0
 15 16  1  0
 15 17  2  0
 16 18  1  0
 17 19  1  0
 17 20  1  0
 18 21  2  0
 19 21  1  0
 19 22  2  0
 20 23  2  0
 22 23  1  0
M  END
