mac-x0584-mac-x0321
     RDKit          3D

 22 25  0  0  0  0  0  0  0  0999 V2000
   -4.4750   15.6900    2.1010 Cl  0  0  0  0  0  0  0  0  0  0  0  0
   -3.6720   15.3960    0.6600 N   0  0  0  0  0  0  0  0  0  0  0  0
   -2.3210   15.2550    0.5110 C   0  0  0  0  0  0  0  0  0  0  0  0
   -4.3400   15.2720   -0.5190 C   0  0  0  0  0  0  0  0  0  0  0  0
   -1.3430   15.2830    1.4230 N   0  0  0  0  0  0  0  0  0  0  0  0
   -2.1390   15.0800   -0.8170 C   0  0  0  0  0  0  0  0  0  0  0  0
   -3.3610   15.0490   -1.4670 C   0  0  0  0  0  0  0  0  0  0  0  0
   -3.3740   14.7950   -2.8850 C   0  0  0  0  0  0  0  0  0  0  0  0
   -0.1360   15.1230    0.8280 C   0  0  0  0  0  0  0  0  0  0  0  0
   -0.8800   14.9610   -1.3430 C   0  0  0  0  0  0  0  0  0  0  0  0
   -2.3450   13.9530   -3.1830 O   0  0  0  0  0  0  0  0  0  0  0  0
   -4.0870   15.1590   -3.7850 O   0  0  0  0  0  0  0  0  0  0  0  0
   -0.8140   14.8680   -2.7230 N   0  0  0  0  0  0  0  0  0  0  0  0
    0.1550   14.9690   -0.4850 N   0  0  0  0  0  0  0  0  0  0  0  0
    0.4110   14.6540   -3.5010 C   0  0  1  0  0  0  0  0  0  0  0  0
   -1.6230   15.8670   -3.4380 C   0  0  0  0  0  0  0  0  0  0  0  0
    0.5480   13.2130   -3.8950 C   0  0  0  0  0  0  0  0  0  0  0  0
    0.1610   15.4340   -4.8220 C   0  0  0  0  0  0  0  0  0  0  0  0
   -1.3480   15.5530   -4.8880 C   0  0  0  0  0  0  0  0  0  0  0  0
    1.8320   12.4610   -3.4770 C   0  0  0  0  0  0  0  0  0  0  0  0
   -0.1860   12.1690   -3.0120 C   0  0  0  0  0  0  0  0  0  0  0  0
    0.8930   11.2510   -3.5600 C   0  0  0  0  0  0  0  0  0  0  0  0
  1  2  1  0
  2  3  1  0
  2  4  1  0
  3  5  2  0
  3  6  1  0
  4  7  2  0
  6  7  1  0
  7  8  1  0
  5  9  1  0
  6 10  2  0
  8 11  1  0
  8 12  2  0
 10 13  1  0
  9 14  2  0
 10 14  1  0
 13 15  1  0
 13 16  1  0
 15 17  1  6
 15 18  1  0
 16 19  1  0
 18 19  1  0
 17 20  1  0
 17 21  1  0
 20 22  1  0
 21 22  1  0
M  END
