mac-x0555-mac-x0137
     RDKit          3D

 23 26  0  0  0  0  0  0  0  0999 V2000
   -7.6290   13.6800    2.7120 N   0  0  0  0  0  0  0  0  0  0  0  0
   -6.9990   14.0860    1.5390 C   0  0  0  0  0  0  0  0  0  0  0  0
   -7.6390   14.7850    0.5240 C   0  0  0  0  0  0  0  0  0  0  0  0
   -5.6550   13.7860    1.3470 C   0  0  0  0  0  0  0  0  0  0  0  0
   -5.0000   14.1930    0.1930 C   0  0  0  0  0  0  0  0  0  0  0  0
   -7.0400   15.2070   -0.6130 N   0  0  0  0  0  0  0  0  0  0  0  0
   -5.7280   14.9100   -0.7440 C   0  0  0  0  0  0  0  0  0  0  0  0
   -3.5400   13.8640   -0.0340 C   0  0  0  0  0  0  0  0  0  0  0  0
   -5.0690   15.3990   -1.9400 C   0  0  0  0  0  0  0  0  0  0  0  0
   -2.7990   14.9320   -0.8700 C   0  0  1  0  0  0  0  0  0  0  0  0
   -3.7180   15.4400   -2.0090 C   0  0  0  0  0  0  0  0  0  0  0  0
   -2.4200   15.9670    0.1740 C   0  0  0  0  0  0  0  0  0  0  0  0
   -1.3160   14.5940   -1.3300 C   0  0  2  0  0  0  0  0  0  0  0  0
   -1.1160   13.7570   -2.5150 N   0  0  0  0  0  0  0  0  0  0  0  0
   -0.5720   13.9570   -0.2460 N   0  0  0  0  0  0  0  0  0  0  0  0
   -1.7250   15.3090    1.2930 N   0  0  0  0  0  0  0  0  0  0  0  0
   -1.4140   14.3640   -3.7970 C   0  0  0  0  0  0  0  0  0  0  0  0
    0.2070   13.1120   -2.5960 C   0  0  0  0  0  0  0  0  0  0  0  0
   -0.4190   14.8040    0.9110 C   0  0  0  0  0  0  0  0  0  0  0  0
   -1.6370   13.2390   -4.8020 C   0  0  2  0  0  0  0  0  0  0  0  0
    0.2490   11.9610   -3.6120 C   0  0  0  0  0  0  0  0  0  0  0  0
   -2.7000   12.5230   -4.3280 F   0  0  0  0  0  0  0  0  0  0  0  0
   -0.4360   12.2950   -4.9450 C   0  0  0  0  0  0  0  0  0  0  0  0
  1  2  1  0
  2  3  2  0
  2  4  1  0
  4  5  2  0
  3  6  1  0
  5  7  1  0
  6  7  2  0
  5  8  1  0
  7  9  1  0
 10  8  1  1
  9 11  2  0
 10 11  1  0
 10 12  1  0
 10 13  1  0
 13 14  1  6
 13 15  1  0
 12 16  1  0
 14 17  1  0
 14 18  1  0
 15 19  1  0
 16 19  1  0
 17 20  1  0
 18 21  1  0
 20 22  1  1
 20 23  1  0
 21 23  1  0
M  END
