mac-x0346-mac-x0213
     RDKit          3D

 25 27  0  0  0  0  0  0  0  0999 V2000
   -7.5720   14.0540    1.0860 O   0  0  0  0  0  0  0  0  0  0  0  0
   -7.6460   14.9820    0.0160 N   0  0  0  0  0  0  0  0  0  0  0  0
   -6.6080   14.9690   -0.9000 C   0  0  0  0  0  0  0  0  0  0  0  0
   -6.8550   14.9150   -2.0960 O   0  0  0  0  0  0  0  0  0  0  0  0
   -5.1940   15.0240   -0.4000 C   0  0  0  0  0  0  0  0  0  0  0  0
   -4.0580   14.9260   -1.2440 C   0  0  0  0  0  0  0  0  0  0  0  0
   -5.0100   15.1800    0.9890 C   0  0  0  0  0  0  0  0  0  0  0  0
   -4.2380   14.7720   -2.6060 O   0  0  0  0  0  0  0  0  0  0  0  0
   -2.7880   14.9850   -0.6540 C   0  0  0  0  0  0  0  0  0  0  0  0
   -3.7330   15.2410    1.5410 C   0  0  0  0  0  0  0  0  0  0  0  0
   -3.8860   13.5140   -3.2300 C   0  0  0  0  0  0  0  0  0  0  0  0
   -2.6270   15.1430    0.7240 C   0  0  0  0  0  0  0  0  0  0  0  0
   -2.5820   13.6480   -4.0500 C   0  0  0  0  0  0  0  0  0  0  0  0
   -1.5400   14.6370   -3.5080 C   0  0  1  0  0  0  0  0  0  0  0  0
   -0.0950   14.2840   -3.0510 C   0  0  1  0  0  0  0  0  0  0  0  0
   -1.2790   15.8150   -4.4050 C   0  0  0  0  0  0  0  0  0  0  0  0
    0.2060   12.8940   -2.5510 C   0  0  0  0  0  0  0  0  0  0  0  0
    0.0810   15.9670   -4.6890 C   0  0  0  0  0  0  0  0  0  0  0  0
    0.9080   14.8850   -4.0530 C   0  0  0  0  0  0  0  0  0  0  0  0
   -2.2200   16.6930   -4.9100 C   0  0  0  0  0  0  0  0  0  0  0  0
    0.2010   11.9260   -3.4850 O   0  0  0  0  0  0  0  0  0  0  0  0
    0.4270   12.6390   -1.3720 O   0  0  0  0  0  0  0  0  0  0  0  0
   -1.7880   17.7530   -5.7040 C   0  0  0  0  0  0  0  0  0  0  0  0
    0.5200   17.0210   -5.4760 C   0  0  0  0  0  0  0  0  0  0  0  0
   -0.4250   17.9180   -5.9810 C   0  0  0  0  0  0  0  0  0  0  0  0
  1  2  1  0
  2  3  1  0
  3  4  2  0
  3  5  1  0
  5  6  2  0
  5  7  1  0
  6  8  1  0
  6  9  1  0
  7 10  2  0
  8 11  1  0
  9 12  2  0
 10 12  1  0
 11 13  1  0
 14 13  1  6
 14 15  1  0
 14 16  1  0
 15 17  1  6
 16 18  2  0
 15 19  1  0
 18 19  1  0
 16 20  1  0
 17 21  1  0
 17 22  2  0
 20 23  2  0
 18 24  1  0
 23 25  1  0
 24 25  2  0
M  END
