mac-x0357-mac-x0159
     RDKit          3D

 27 30  0  0  0  0  0  0  0  0999 V2000
    2.3080   13.4900   -4.3660 C   0  0  0  0  0  0  0  0  0  0  0  0
    1.0900   12.7690   -4.8760 C   0  0  0  0  0  0  0  0  0  0  0  0
    1.1420   12.0000   -6.0340 C   0  0  0  0  0  0  0  0  0  0  0  0
   -0.1570   12.8180   -4.2550 C   0  0  0  0  0  0  0  0  0  0  0  0
    2.2670   11.8860   -6.7260 O   0  0  0  0  0  0  0  0  0  0  0  0
   -0.6230   13.5200   -3.0730 C   0  0  0  0  0  0  0  0  0  0  0  0
   -1.2520   12.1040   -4.7890 C   0  0  0  0  0  0  0  0  0  0  0  0
    0.0620   11.3030   -6.5650 C   0  0  0  0  0  0  0  0  0  0  0  0
   -0.8350   14.8720   -2.9360 C   0  0  0  0  0  0  0  0  0  0  0  0
   -0.9210   12.6180   -2.0540 O   0  0  0  0  0  0  0  0  0  0  0  0
   -1.1520   11.3490   -5.9340 C   0  0  0  0  0  0  0  0  0  0  0  0
   -1.4810   15.4500   -1.8360 N   0  0  0  0  0  0  0  0  0  0  0  0
   -0.4700   15.8860   -3.9400 C   0  0  0  0  0  0  0  0  0  0  0  0
   -2.9430   15.4740   -1.9900 C   0  0  0  0  0  0  0  0  0  0  0  0
   -1.0790   15.2840   -0.4580 C   0  0  1  0  0  0  0  0  0  0  0  0
    0.8390   16.2510   -4.2160 C   0  0  0  0  0  0  0  0  0  0  0  0
   -1.4370   16.5780   -4.6650 N   0  0  0  0  0  0  0  0  0  0  0  0
   -3.8240   15.7470   -0.8600 N   0  0  0  0  0  0  0  0  0  0  0  0
   -2.0730   14.4390    0.3370 C   0  0  2  0  0  0  0  0  0  0  0  0
    0.1380   14.5770   -0.0710 N   0  0  0  0  0  0  0  0  0  0  0  0
   -0.8460   17.4530   -5.4600 C   0  0  0  0  0  0  0  0  0  0  0  0
    0.8640   17.4910   -5.3980 S   0  0  0  0  0  0  0  0  0  0  0  0
   -1.5510   18.3850   -6.3800 C   0  0  0  0  0  0  0  0  0  0  0  0
   -3.5440   14.8730    0.2340 C   0  0  1  0  0  0  0  0  0  0  0  0
   -1.4660   14.4930    1.6510 N   0  0  0  0  0  0  0  0  0  0  0  0
   -0.0800   14.2530    1.3280 C   0  0  0  0  0  0  0  0  0  0  0  0
   -4.0500   15.5860    1.3930 N   0  0  0  0  0  0  0  0  0  0  0  0
  1  2  1  0
  2  3  2  0
  2  4  1  0
  3  5  1  0
  4  6  1  0
  4  7  2  0
  3  8  1  0
  6  9  2  3
  6 10  1  0
  7 11  1  0
  8 11  2  0
  9 12  1  0
  9 13  1  0
 12 14  1  0
 12 15  1  0
 13 16  2  0
 13 17  1  0
 14 18  1  0
 15 19  1  0
 15 20  1  6
 17 21  2  0
 16 22  1  0
 21 22  1  0
 21 23  1  0
 18 24  1  0
 19 24  1  0
 19 25  1  1
 20 26  1  0
 25 26  1  0
 24 27  1  1
M  END
