mac-x0565-mac-x0472
     RDKit          3D

 26 29  0  0  0  0  0  0  0  0999 V2000
   -6.2950   15.1080    0.3610 O   0  0  0  0  0  0  0  0  0  0  0  0
   -6.7800   15.3260   -0.8800 C   0  0  0  0  0  0  0  0  0  0  0  0
   -7.9380   15.6180   -1.1010 O   0  0  0  0  0  0  0  0  0  0  0  0
   -5.7460   15.1470   -1.9190 C   0  0  0  0  0  0  0  0  0  0  0  0
   -4.4060   15.3060   -1.5930 C   0  0  0  0  0  0  0  0  0  0  0  0
   -6.1200   14.8030   -3.2340 C   0  0  0  0  0  0  0  0  0  0  0  0
   -3.4770   15.0990   -2.5820 C   0  0  0  0  0  0  0  0  0  0  0  0
   -5.1460   14.6170   -4.2280 C   0  0  0  0  0  0  0  0  0  0  0  0
   -3.8310   14.7730   -3.8660 C   0  0  0  0  0  0  0  0  0  0  0  0
   -2.1160   15.1520   -2.4490 N   0  0  0  0  0  0  0  0  0  0  0  0
   -2.7380   14.6320   -4.6880 O   0  0  0  0  0  0  0  0  0  0  0  0
   -1.6670   15.1420   -3.8450 C   0  0  0  0  0  0  0  0  0  0  0  0
   -1.6630   14.2170   -1.6050 N   0  0  0  0  0  0  0  0  0  0  0  0
   -1.5970   12.7480   -2.5120 S   0  0  0  0  0  0  0  0  0  0  0  0
   -2.1710   14.3090   -0.3290 C   0  0  0  0  0  0  0  0  0  0  0  0
   -0.5600   11.8380   -1.9700 O   0  0  0  0  0  0  0  0  0  0  0  0
   -1.5180   14.8380    0.6890 N   0  0  0  0  0  0  0  0  0  0  0  0
   -3.7600   13.7830    0.1600 S   0  0  0  0  0  0  0  0  0  0  0  0
   -3.2060   11.9230   -2.2570 C   0  0  0  0  0  0  0  0  0  0  0  0
   -3.4310   14.3530    1.7010 C   0  0  0  0  0  0  0  0  0  0  0  0
   -2.2440   14.8630    1.8480 N   0  0  0  0  0  0  0  0  0  0  0  0
   -3.2430   10.5560   -2.5070 C   0  0  0  0  0  0  0  0  0  0  0  0
   -4.3890   12.5550   -1.8410 C   0  0  0  0  0  0  0  0  0  0  0  0
   -4.4090    9.8240   -2.3510 C   0  0  0  0  0  0  0  0  0  0  0  0
   -5.5670   11.8170   -1.6770 C   0  0  0  0  0  0  0  0  0  0  0  0
   -5.5750   10.4520   -1.9320 C   0  0  0  0  0  0  0  0  0  0  0  0
  1  2  1  0
  2  3  2  0
  2  4  1  0
  4  5  2  0
  4  6  1  0
  5  7  1  0
  6  8  2  0
  7  9  2  0
  8  9  1  0
  7 10  1  0
  9 11  1  0
 10 12  1  0
 11 12  1  0
 10 13  1  0
 14 13  1  1
 13 15  1  0
 14 16  2  0
 15 17  2  0
 15 18  1  0
 14 19  1  0
 18 20  1  0
 17 21  1  0
 20 21  2  0
 19 22  2  0
 19 23  1  0
 22 24  1  0
 23 25  2  0
 24 26  2  0
 25 26  1  0
M  END
