mac-x0263-mac-x0321
     RDKit          3D

 18 19  0  0  0  0  0  0  0  0999 V2000
  -11.4140   14.2770    2.1740 O   0  0  0  0  0  0  0  0  0  0  0  0
  -10.7610   15.3260    2.7020 C   0  0  0  0  0  0  0  0  0  0  0  0
  -11.3010   15.9890    3.5720 O   0  0  0  0  0  0  0  0  0  0  0  0
   -9.3940   15.5550    2.0990 C   0  0  0  0  0  0  0  0  0  0  0  0
   -8.9820   14.4450    1.1320 C   0  0  0  0  0  0  0  0  0  0  0  0
   -7.5960   14.6050    0.5820 C   0  0  0  0  0  0  0  0  0  0  0  0
   -7.3060   14.6320   -0.7690 N   0  0  0  0  0  0  0  0  0  0  0  0
   -6.4990   14.7300    1.2830 N   0  0  0  0  0  0  0  0  0  0  0  0
   -5.9400   14.7680   -0.9290 C   0  0  0  0  0  0  0  0  0  0  0  0
   -5.4720   14.8310    0.3720 C   0  0  0  0  0  0  0  0  0  0  0  0
   -5.0730   14.8330   -2.0550 C   0  0  0  0  0  0  0  0  0  0  0  0
   -4.1050   14.9730    0.5480 C   0  0  0  0  0  0  0  0  0  0  0  0
   -3.5770   15.0640    2.1200 Cl  0  0  0  0  0  0  0  0  0  0  0  0
   -3.6750   14.9510   -1.7820 C   0  0  0  0  0  0  0  0  0  0  0  0
   -3.2170   15.0300   -0.4900 C   0  0  0  0  0  0  0  0  0  0  0  0
   -2.5820   14.9790   -2.8060 C   0  0  0  0  0  0  0  0  0  0  0  0
   -1.3540   14.8610   -2.2360 O   0  0  0  0  0  0  0  0  0  0  0  0
   -2.7460   15.0680   -4.0060 O   0  0  0  0  0  0  0  0  0  0  0  0
  1  2  1  0
  2  3  2  0
  2  4  1  0
  4  5  1  0
  5  6  1  0
  6  7  1  0
  6  8  2  0
  7  9  1  0
  8 10  1  0
  9 10  2  0
  9 11  1  0
 10 12  1  0
 12 13  1  0
 11 14  2  0
 12 15  2  0
 14 15  1  0
 14 16  1  0
 16 17  1  0
 16 18  2  0
M  END
