mac-x0455-diamond-x0849_0_A
     RDKit          3D

 22 24  0  0  0  0  0  0  0  0999 V2000
   -2.6820   14.7680   -2.8380 C   0  0  0  0  0  0  0  0  0  0  0  0
   -1.2590   14.3600   -3.4600 C   0  0  1  0  0  0  0  0  0  0  0  0
   -0.9990   15.4720   -4.3760 O   0  0  0  0  0  0  0  0  0  0  0  0
   -3.0130   14.9090   -1.3330 C   0  0  0  0  0  0  0  0  0  0  0  0
    0.0080   14.3960   -2.5620 C   0  0  0  0  0  0  0  0  0  0  0  0
   -1.2040   13.1010   -4.3380 C   0  0  0  0  0  0  0  0  0  0  0  0
   -2.0550   14.6650   -0.3580 C   0  0  0  0  0  0  0  0  0  0  0  0
   -4.2880   15.2850   -0.8740 C   0  0  0  0  0  0  0  0  0  0  0  0
    0.5910   15.4210   -2.2220 O   0  0  0  0  0  0  0  0  0  0  0  0
    0.5160   13.2060   -2.1710 O   0  0  0  0  0  0  0  0  0  0  0  0
   -2.2030   12.1120   -4.3300 C   0  0  0  0  0  0  0  0  0  0  0  0
   -0.1030   12.8920   -5.2050 C   0  0  0  0  0  0  0  0  0  0  0  0
   -2.3540   14.7770    1.0090 C   0  0  0  0  0  0  0  0  0  0  0  0
   -4.4920   15.3760    0.4950 C   0  0  0  0  0  0  0  0  0  0  0  0
   -0.7800   14.3030   -0.7120 C   0  0  0  0  0  0  0  0  0  0  0  0
   -2.1090   10.9750   -5.1440 C   0  0  0  0  0  0  0  0  0  0  0  0
   -0.0080   11.7580   -6.0160 C   0  0  0  0  0  0  0  0  0  0  0  0
   -3.5560   15.1300    1.4210 N   0  0  0  0  0  0  0  0  0  0  0  0
   -1.4420   14.5310    1.9300 N   0  0  0  0  0  0  0  0  0  0  0  0
    0.1610   14.0630    0.2250 C   0  0  0  0  0  0  0  0  0  0  0  0
   -1.0140   10.7980   -5.9850 C   0  0  0  0  0  0  0  0  0  0  0  0
   -0.2100   14.1870    1.5420 C   0  0  0  0  0  0  0  0  0  0  0  0
  1  2  1  0
  2  3  1  6
  1  4  1  0
  2  5  1  0
  2  6  1  0
  4  7  1  0
  4  8  2  0
  5  9  2  0
  5 10  1  0
  6 11  2  0
  6 12  1  0
  7 13  2  0
  8 14  1  0
  7 15  1  0
 11 16  1  0
 12 17  2  0
 13 18  1  0
 14 18  2  0
 13 19  1  0
 15 20  2  0
 16 21  2  0
 17 21  1  0
 19 22  2  0
 20 22  1  0
M  END
