mac-x0137-mac-x0180
     RDKit          3D

 23 25  0  0  0  0  0  0  0  0999 V2000
   -2.5120   12.8070   -3.9040 F   0  0  0  0  0  0  0  0  0  0  0  0
   -1.2580   13.1810   -4.3050 C   0  0  2  0  0  0  0  0  0  0  0  0
   -0.3640   11.9480   -4.2060 C   0  0  0  0  0  0  0  0  0  0  0  0
   -0.7740   14.3890   -3.4650 C   0  0  0  0  0  0  0  0  0  0  0  0
   -0.0550   14.0650   -2.2020 N   0  0  0  0  0  0  0  0  0  0  0  0
    0.2570   11.7770   -2.8190 C   0  0  0  0  0  0  0  0  0  0  0  0
    0.9670   13.0450   -2.3810 C   0  0  0  0  0  0  0  0  0  0  0  0
   -0.6460   14.2520   -0.9390 C   0  0  0  0  0  0  0  0  0  0  0  0
    0.1260   14.0340    0.1930 N   0  0  0  0  0  0  0  0  0  0  0  0
   -1.9170   14.6220   -0.6800 C   0  0  0  0  0  0  0  0  0  0  0  0
   -0.3740   14.1600    1.4560 C   0  0  0  0  0  0  0  0  0  0  0  0
   -2.3810   14.7370    0.7220 C   0  0  0  0  0  0  0  0  0  0  0  0
   -3.0840   14.9640   -1.4110 C   0  0  0  0  0  0  0  0  0  0  0  0
   -3.1340   15.0200   -2.8700 C   0  0  0  0  0  0  0  0  0  0  0  0
   -1.5690   14.4920    1.7780 N   0  0  0  0  0  0  0  0  0  0  0  0
   -3.6300   15.0680    0.8270 N   0  0  0  0  0  0  0  0  0  0  0  0
   -4.0670   15.1980   -0.4810 C   0  0  0  0  0  0  0  0  0  0  0  0
   -5.3730   15.5300   -0.7180 N   0  0  0  0  0  0  0  0  0  0  0  0
   -3.9640   14.5370   -3.5970 O   0  0  0  0  0  0  0  0  0  0  0  0
   -2.0890   15.6920   -3.3820 O   0  0  0  0  0  0  0  0  0  0  0  0
   -6.5400   14.9450   -0.2940 C   0  0  0  0  0  0  0  0  0  0  0  0
   -6.7250   14.4870    1.1340 C   0  0  0  0  0  0  0  0  0  0  0  0
   -7.4470   14.7910   -1.1100 O   0  0  0  0  0  0  0  0  0  0  0  0
  2  1  1  1
  2  3  1  0
  2  4  1  0
  4  5  1  0
  3  6  1  0
  5  7  1  0
  6  7  1  0
  5  8  1  0
  8  9  1  0
  8 10  2  0
  9 11  1  0
 10 12  1  0
 10 13  1  0
 13 14  1  0
 11 15  2  0
 12 15  1  0
 12 16  2  0
 13 17  2  0
 16 17  1  0
 17 18  1  0
 14 19  2  0
 14 20  1  0
 18 21  1  0
 21 22  1  0
 21 23  2  0
M  END
