mac-x0345-mac-x0231
     RDKit          3D

 26 28  0  0  0  0  0  0  0  0999 V2000
   -7.3550   14.6480    0.5330 C   0  0  0  0  0  0  0  0  0  0  0  0
   -6.2170   14.8870   -0.4250 C   0  0  0  0  0  0  0  0  0  0  0  0
   -6.5140   14.7180   -1.7420 N   0  0  0  0  0  0  0  0  0  0  0  0
   -4.9290   15.2550   -0.0330 C   0  0  0  0  0  0  0  0  0  0  0  0
   -4.3520   15.5420    1.7170 Br  0  0  0  0  0  0  0  0  0  0  0  0
   -3.9600   15.4360   -0.9820 C   0  0  0  0  0  0  0  0  0  0  0  0
   -5.5470   14.9070   -2.6700 C   0  0  0  0  0  0  0  0  0  0  0  0
   -5.9490   14.7130   -4.0030 N   0  0  0  0  0  0  0  0  0  0  0  0
   -4.2560   15.2660   -2.3170 C   0  0  0  0  0  0  0  0  0  0  0  0
   -4.9820   14.9980   -5.0890 C   0  0  0  0  0  0  0  0  0  0  0  0
   -4.1970   13.8980   -5.7230 C   0  0  0  0  0  0  0  0  0  0  0  0
   -2.7450   14.0370   -5.3810 C   0  0  0  0  0  0  0  0  0  0  0  0
   -2.0570   15.2780   -5.2150 C   0  0  0  0  0  0  0  0  0  0  0  0
   -2.0680   12.8510   -5.2220 C   0  0  0  0  0  0  0  0  0  0  0  0
   -0.6760   15.2680   -4.8860 C   0  0  0  0  0  0  0  0  0  0  0  0
   -0.7350   12.8500   -4.9000 C   0  0  0  0  0  0  0  0  0  0  0  0
   -0.0490   14.0420   -4.7320 C   0  0  0  0  0  0  0  0  0  0  0  0
    0.1490   16.4890   -4.6930 C   0  0  0  0  0  0  0  0  0  0  0  0
   -0.3220   17.6230   -4.7260 O   0  0  0  0  0  0  0  0  0  0  0  0
    1.3700   14.0250   -4.3750 C   0  0  0  0  0  0  0  0  0  0  0  0
    1.5000   16.2770   -4.4760 N   0  0  0  0  0  0  0  0  0  0  0  0
    1.9680   12.6810   -4.1100 C   0  0  0  0  0  0  0  0  0  0  0  0
    2.0950   15.0770   -4.2490 N   0  0  0  0  0  0  0  0  0  0  0  0
    1.2320   12.0410   -2.9710 C   0  0  0  0  0  0  0  0  0  0  0  0
    0.5830   10.9040   -3.3040 O   0  0  0  0  0  0  0  0  0  0  0  0
    1.1710   12.4570   -1.8350 O   0  0  0  0  0  0  0  0  0  0  0  0
  1  2  1  0
  2  3  2  0
  2  4  1  0
  4  5  1  0
  4  6  2  0
  3  7  1  0
  7  8  1  0
  6  9  1  0
  7  9  2  0
  8 10  1  0
 10 11  1  0
 11 12  1  0
 12 13  2  0
 12 14  1  0
 13 15  1  0
 14 16  2  0
 15 17  2  0
 16 17  1  0
 15 18  1  0
 18 19  2  0
 17 20  1  0
 18 21  1  0
 20 22  1  0
 20 23  2  0
 21 23  1  0
 22 24  1  0
 24 25  1  0
 24 26  2  0
M  END
