mac-x0453-diamond-x0465_0_A
     RDKit          3D

 23 24  0  0  0  0  0  0  0  0999 V2000
   -6.8310   13.5500    2.1890 N   0  0  0  0  0  0  0  0  0  0  0  0
   -5.8640   13.4760    1.0840 C   0  0  0  0  0  0  0  0  0  0  0  0
   -5.2400   14.8280    0.7180 C   0  0  0  0  0  0  0  0  0  0  0  0
   -3.9770   14.7690   -0.0720 C   0  0  0  0  0  0  0  0  0  0  0  0
   -2.6780   14.7510    0.3810 C   0  0  0  0  0  0  0  0  0  0  0  0
   -3.9990   14.7330   -1.4500 N   0  0  0  0  0  0  0  0  0  0  0  0
   -1.8740   14.7140   -0.7280 N   0  0  0  0  0  0  0  0  0  0  0  0
   -2.7260   14.6990   -1.8190 C   0  0  0  0  0  0  0  0  0  0  0  0
   -0.3870   14.7170   -0.6640 C   0  0  0  0  0  0  0  0  0  0  0  0
    0.5150   13.5960   -1.2220 C   0  0  0  0  0  0  0  0  0  0  0  0
    0.5420   13.5230   -2.6780 N   0  0  0  0  0  0  0  0  0  0  0  0
    0.5890   12.4240   -3.3540 C   0  0  0  0  0  0  0  0  0  0  0  0
    0.6330   12.5100   -4.8840 C   0  0  1  0  0  0  0  0  0  0  0  0
    0.6150   11.1840   -2.8040 O   0  0  0  0  0  0  0  0  0  0  0  0
    1.9510   13.1850   -5.1910 C   0  0  0  0  0  0  0  0  0  0  0  0
    0.6510   11.2790   -5.5990 O   0  0  0  0  0  0  0  0  0  0  0  0
   -0.5740   10.7280   -5.8550 C   0  0  0  0  0  0  0  0  0  0  0  0
   -0.6820    9.5750   -6.6320 C   0  0  0  0  0  0  0  0  0  0  0  0
   -1.7120   11.3140   -5.3420 C   0  0  0  0  0  0  0  0  0  0  0  0
    0.3980    8.9900   -7.1560 F   0  0  0  0  0  0  0  0  0  0  0  0
   -1.9210    9.0020   -6.8820 C   0  0  0  0  0  0  0  0  0  0  0  0
   -2.9620   10.7450   -5.5930 C   0  0  0  0  0  0  0  0  0  0  0  0
   -3.0660    9.5890   -6.3590 C   0  0  0  0  0  0  0  0  0  0  0  0
  1  2  1  0
  2  3  1  0
  3  4  1  0
  4  5  2  0
  4  6  1  0
  5  7  1  0
  6  8  2  0
  7  8  1  0
  7  9  1  0
  9 10  1  0
 10 11  1  0
 11 12  2  3
 12 13  1  0
 12 14  1  0
 13 15  1  1
 13 16  1  0
 16 17  1  0
 17 18  2  0
 17 19  1  0
 18 20  1  0
 18 21  1  0
 19 22  2  0
 21 23  2  0
 22 23  1  0
M  END
