mac-x0178-diamond-x0895_0_A
     RDKit          3D

 23 24  0  0  0  0  0  0  0  0999 V2000
   -0.3170   18.1290   -6.4420 N   0  0  0  0  0  0  0  0  0  0  0  0
   -1.6800   17.5330   -5.6710 S   0  0  0  0  0  0  0  0  0  0  0  0
   -2.6260   17.1260   -6.6850 O   0  0  0  0  0  0  0  0  0  0  0  0
   -1.9900   18.5260   -4.6770 O   0  0  0  0  0  0  0  0  0  0  0  0
   -1.0370   16.0950   -4.8450 C   0  0  0  0  0  0  0  0  0  0  0  0
    0.2030   16.1630   -4.1900 C   0  0  0  0  0  0  0  0  0  0  0  0
   -1.7790   14.9110   -4.8500 C   0  0  0  0  0  0  0  0  0  0  0  0
    0.6930   15.0330   -3.5290 C   0  0  0  0  0  0  0  0  0  0  0  0
   -1.2880   13.7820   -4.1890 C   0  0  0  0  0  0  0  0  0  0  0  0
   -0.0590   13.8470   -3.5290 C   0  0  0  0  0  0  0  0  0  0  0  0
    0.4410   12.6600   -2.8210 C   0  0  0  0  0  0  0  0  0  0  0  0
    0.7450   12.6910   -1.5830 N   0  0  0  0  0  0  0  0  0  0  0  0
    0.5300   11.5620   -3.5860 O   0  0  0  0  0  0  0  0  0  0  0  0
    0.5580   13.9920   -0.9460 C   0  0  0  0  0  0  0  0  0  0  0  0
   -0.1230   13.7050    0.3650 C   0  0  0  0  0  0  0  0  0  0  0  0
   -0.3350   14.8300    1.2940 C   0  0  0  0  0  0  0  0  0  0  0  0
   -1.6760   14.7970    1.8330 N   0  0  0  0  0  0  0  0  0  0  0  0
   -2.6610   14.8530    1.0290 C   0  0  0  0  0  0  0  0  0  0  0  0
   -4.0960   14.8770    1.4690 C   0  0  0  0  0  0  0  0  0  0  0  0
   -2.6440   14.9120   -0.3230 N   0  0  0  0  0  0  0  0  0  0  0  0
   -4.6480   15.5310    0.3320 N   0  0  0  0  0  0  0  0  0  0  0  0
   -3.8870   15.2280   -0.7590 C   0  0  0  0  0  0  0  0  0  0  0  0
   -4.2840   15.2370   -1.9060 O   0  0  0  0  0  0  0  0  0  0  0  0
  2  1  1  0
  2  3  2  0
  2  4  2  0
  2  5  1  0
  5  6  2  0
  5  7  1  0
  6  8  1  0
  7  9  2  0
  8 10  2  0
  9 10  1  0
 10 11  1  0
 11 12  2  3
 11 13  1  0
 12 14  1  0
 14 15  1  0
 15 16  1  0
 16 17  1  0
 17 18  2  3
 18 19  1  0
 18 20  1  0
 19 21  1  0
 20 22  1  0
 21 22  1  0
 22 23  2  0
M  END
