mac-x0510-mac-x0302
     RDKit          3D

 17 18  0  0  0  0  0  0  0  0999 V2000
   -6.0070   15.0840    0.7580 O   0  0  0  0  0  0  0  0  0  0  0  0
   -4.8260   15.0580    0.4480 C   0  0  0  0  0  0  0  0  0  0  0  0
   -4.5310   15.1190   -0.9060 N   0  0  0  0  0  0  0  0  0  0  0  0
   -3.8820   14.9390    1.4500 N   0  0  0  0  0  0  0  0  0  0  0  0
   -2.6700   14.8350    1.0850 C   0  0  0  0  0  0  0  0  0  0  0  0
   -3.3000   15.0180   -1.3090 C   0  0  0  0  0  0  0  0  0  0  0  0
   -2.9710   15.0550   -2.7730 C   0  0  0  0  0  0  0  0  0  0  0  0
   -2.2740   14.8590   -0.3040 C   0  0  0  0  0  0  0  0  0  0  0  0
   -1.5530   14.6960    1.8390 N   0  0  0  0  0  0  0  0  0  0  0  0
   -1.8900   14.2550   -3.0690 N   0  0  0  0  0  0  0  0  0  0  0  0
   -3.6130   15.7170   -3.5640 O   0  0  0  0  0  0  0  0  0  0  0  0
   -0.9890   14.7430   -0.3740 N   0  0  0  0  0  0  0  0  0  0  0  0
   -0.6060   14.6500    0.9560 C   0  0  0  0  0  0  0  0  0  0  0  0
   -0.6570   14.7730   -3.6460 C   0  0  0  0  0  0  0  0  0  0  0  0
    0.5540   14.1440   -2.9710 C   0  0  0  0  0  0  0  0  0  0  0  0
    1.6990   14.3680   -3.6430 O   0  0  0  0  0  0  0  0  0  0  0  0
    0.5650   13.4930   -1.9390 O   0  0  0  0  0  0  0  0  0  0  0  0
  1  2  2  0
  2  3  1  0
  2  4  1  0
  4  5  2  0
  3  6  2  0
  6  7  1  0
  5  8  1  0
  6  8  1  0
  5  9  1  0
  7 10  1  0
  7 11  2  0
  8 12  2  0
  9 13  2  0
 12 13  1  0
 10 14  1  0
 14 15  1  0
 15 16  1  0
 15 17  2  0
M  END
