mac-x0255-mac-x0375
     RDKit          3D

 20 22  0  0  0  0  0  0  0  0999 V2000
    0.9830   12.8950   -1.9880 O   0  0  0  0  0  0  0  0  0  0  0  0
    0.6810   12.0820   -3.0400 C   0  0  0  0  0  0  0  0  0  0  0  0
    0.1050   11.0180   -2.8700 O   0  0  0  0  0  0  0  0  0  0  0  0
    1.1380   12.6400   -4.4030 C   0  0  1  0  0  0  0  0  0  0  0  0
    0.8460   11.7240   -5.5060 O   0  0  0  0  0  0  0  0  0  0  0  0
    0.4850   13.9730   -4.6570 C   0  0  0  0  0  0  0  0  0  0  0  0
    1.1080   15.1970   -4.7890 C   0  0  0  0  0  0  0  0  0  0  0  0
   -1.2090   14.1320   -4.8300 S   0  0  0  0  0  0  0  0  0  0  0  0
   -0.3430   11.0300   -5.6720 C   0  0  0  0  0  0  0  0  0  0  0  0
    0.2040   16.2730   -5.0520 C   0  0  0  0  0  0  0  0  0  0  0  0
   -1.1180   15.8230   -5.1010 C   0  0  0  0  0  0  0  0  0  0  0  0
   -0.2800    9.9980   -6.6300 C   0  0  0  0  0  0  0  0  0  0  0  0
   -1.5470   11.2430   -5.0090 C   0  0  0  0  0  0  0  0  0  0  0  0
    0.4460   17.6480   -5.2620 C   0  0  0  0  0  0  0  0  0  0  0  0
   -2.1910   16.6960   -5.3520 C   0  0  0  0  0  0  0  0  0  0  0  0
   -1.3940    9.2000   -6.9080 C   0  0  0  0  0  0  0  0  0  0  0  0
   -2.6660   10.4440   -5.2900 C   0  0  0  0  0  0  0  0  0  0  0  0
   -0.6160   18.5070   -5.5190 C   0  0  0  0  0  0  0  0  0  0  0  0
   -1.9090   18.0450   -5.5630 C   0  0  0  0  0  0  0  0  0  0  0  0
   -2.5880    9.4230   -6.2380 C   0  0  0  0  0  0  0  0  0  0  0  0
  1  2  1  0
  2  3  2  0
  2  4  1  0
  4  5  1  6
  4  6  1  0
  6  7  2  0
  6  8  1  0
  5  9  1  0
  7 10  1  0
  8 11  1  0
 10 11  2  0
  9 12  2  0
  9 13  1  0
 10 14  1  0
 11 15  1  0
 12 16  1  0
 13 17  2  0
 14 18  2  0
 15 19  2  0
 18 19  1  0
 16 20  2  0
 17 20  1  0
M  END
