mac-x0301-mac-x0357
     RDKit          3D

 21 23  0  0  0  0  0  0  0  0999 V2000
   -0.1490   13.5130   -3.1400 N   0  0  0  0  0  0  0  0  0  0  0  0
   -1.0480   14.5390   -3.0230 C   0  0  0  0  0  0  0  0  0  0  0  0
   -1.2350   15.2560   -4.0100 O   0  0  0  0  0  0  0  0  0  0  0  0
    0.6150   13.1460   -1.9870 O   0  0  0  0  0  0  0  0  0  0  0  0
   -0.1120   12.6760   -4.2450 C   0  0  0  0  0  0  0  0  0  0  0  0
   -1.8390   14.7880   -1.8110 C   0  0  0  0  0  0  0  0  0  0  0  0
    0.9830   12.5310   -5.0830 C   0  0  0  0  0  0  0  0  0  0  0  0
   -1.2940   11.9650   -4.5100 C   0  0  0  0  0  0  0  0  0  0  0  0
    2.2860   13.2370   -4.8540 C   0  0  0  0  0  0  0  0  0  0  0  0
   -1.3010   14.6230   -0.5510 C   0  0  0  0  0  0  0  0  0  0  0  0
   -3.1750   15.2130   -1.9200 C   0  0  0  0  0  0  0  0  0  0  0  0
   -1.4050   11.1190   -5.6050 C   0  0  0  0  0  0  0  0  0  0  0  0
    0.8410   11.6890   -6.1860 C   0  0  0  0  0  0  0  0  0  0  0  0
    1.8880   11.5580   -7.0220 O   0  0  0  0  0  0  0  0  0  0  0  0
   -2.0570   14.8800    0.5800 C   0  0  0  0  0  0  0  0  0  0  0  0
   -3.9340   15.4660   -0.7670 C   0  0  0  0  0  0  0  0  0  0  0  0
   -0.0470   14.2200   -0.2380 O   0  0  0  0  0  0  0  0  0  0  0  0
   -0.3240   10.9850   -6.4570 C   0  0  0  0  0  0  0  0  0  0  0  0
   -3.3730   15.3010    0.5030 C   0  0  0  0  0  0  0  0  0  0  0  0
   -1.3580   14.6780    1.7310 O   0  0  0  0  0  0  0  0  0  0  0  0
   -0.0570   14.4050    1.1870 C   0  0  0  0  0  0  0  0  0  0  0  0
  1  2  1  0
  2  3  2  0
  1  4  1  0
  1  5  1  0
  2  6  1  0
  5  7  2  0
  5  8  1  0
  7  9  1  0
  6 10  1  0
  6 11  2  0
  8 12  2  0
  7 13  1  0
 13 14  1  0
 10 15  2  0
 11 16  1  0
 10 17  1  0
 12 18  1  0
 13 18  2  0
 15 19  1  0
 16 19  2  0
 15 20  1  0
 17 21  1  0
 20 21  1  0
M  END
