mac-x0306-mac-x0436
     RDKit          3D

 29 32  0  0  0  0  0  0  0  0999 V2000
    0.5710   11.2400   -3.1110 O   0  0  0  0  0  0  0  0  0  0  0  0
    1.2660   12.3910   -3.0460 C   0  0  0  0  0  0  0  0  0  0  0  0
    1.5340   12.8750   -1.9620 O   0  0  0  0  0  0  0  0  0  0  0  0
    1.6400   12.9700   -4.3850 C   0  0  0  0  0  0  0  0  0  0  0  0
    0.4440   13.2510   -5.2840 C   0  0  0  0  0  0  0  0  0  0  0  0
   -0.3350   11.9990   -5.6380 C   0  0  0  0  0  0  0  0  0  0  0  0
   -1.6580   11.7280   -4.8980 C   0  0  0  0  0  0  0  0  0  0  0  0
    0.1220   11.1930   -6.5480 N   0  0  0  0  0  0  0  0  0  0  0  0
   -1.9890   12.6890   -4.1170 N   0  0  0  0  0  0  0  0  0  0  0  0
   -2.2930   10.5360   -5.1590 N   0  0  0  0  0  0  0  0  0  0  0  0
   -0.6210   10.0460   -6.8650 C   0  0  0  0  0  0  0  0  0  0  0  0
   -3.1790   12.7260   -3.2860 C   0  0  0  0  0  0  0  0  0  0  0  0
   -1.8150    9.7050   -6.1910 C   0  0  0  0  0  0  0  0  0  0  0  0
   -0.1460    9.2260   -7.8860 C   0  0  0  0  0  0  0  0  0  0  0  0
   -2.7910   13.2230   -1.8840 C   0  0  0  0  0  0  0  0  0  0  0  0
   -0.8410    8.0710   -8.2490 C   0  0  0  0  0  0  0  0  0  0  0  0
   -2.5070    8.5450   -6.5590 C   0  0  0  0  0  0  0  0  0  0  0  0
   -3.1100   14.6480   -1.6380 N   0  0  0  0  0  0  0  0  0  0  0  0
   -2.0210    7.7330   -7.5850 C   0  0  0  0  0  0  0  0  0  0  0  0
   -4.2280   15.1820   -2.2830 C   0  0  0  0  0  0  0  0  0  0  0  0
   -3.0580   15.0040   -0.2940 C   0  0  0  0  0  0  0  0  0  0  0  0
   -5.4130   15.1570   -1.6640 C   0  0  0  0  0  0  0  0  0  0  0  0
   -4.1720   14.9700    0.4370 C   0  0  0  0  0  0  0  0  0  0  0  0
   -5.4270   14.5280   -0.2830 C   0  0  0  0  0  0  0  0  0  0  0  0
   -6.7020   14.6320    0.4980 C   0  0  0  0  0  0  0  0  0  0  0  0
   -6.7370   14.5460    1.8740 N   0  0  0  0  0  0  0  0  0  0  0  0
   -7.9180   14.8010    0.0120 N   0  0  0  0  0  0  0  0  0  0  0  0
   -8.7480   14.8260    1.1000 C   0  0  0  0  0  0  0  0  0  0  0  0
   -8.0350   14.6700    2.2630 C   0  0  0  0  0  0  0  0  0  0  0  0
  1  2  1  0
  2  3  2  0
  2  4  1  0
  4  5  1  0
  5  6  1  0
  6  7  1  0
  6  8  2  0
  7  9  2  3
  7 10  1  0
  8 11  1  0
  9 12  1  0
 10 13  1  0
 11 13  2  0
 11 14  1  0
 12 15  1  0
 14 16  2  0
 13 17  1  0
 15 18  1  0
 16 19  1  0
 17 19  2  0
 18 20  1  0
 18 21  1  0
 20 22  2  0
 21 23  2  0
 22 24  1  0
 23 24  1  0
 24 25  1  0
 25 26  1  0
 25 27  2  0
 27 28  1  0
 26 29  1  0
 28 29  2  0
M  END
