mac-x0116-diamond-x0104_0_A
     RDKit          3D

 32 36  0  0  0  0  0  0  0  0999 V2000
   -4.3150   15.6190    1.7500 N   0  0  0  0  0  0  0  0  0  0  0  0
   -3.4950   15.3000    0.6890 C   0  0  0  0  0  0  0  0  0  0  0  0
   -3.9080   15.4670   -0.5890 N   0  0  0  0  0  0  0  0  0  0  0  0
   -2.2610   14.8200    0.8000 C   0  0  0  0  0  0  0  0  0  0  0  0
   -3.1610   15.1240   -1.6890 C   0  0  0  0  0  0  0  0  0  0  0  0
   -1.4740   14.5280   -0.4020 C   0  0  0  0  0  0  0  0  0  0  0  0
   -1.4980   14.5210    1.8690 N   0  0  0  0  0  0  0  0  0  0  0  0
   -1.9560   14.6620   -1.6620 N   0  0  0  0  0  0  0  0  0  0  0  0
   -0.2930   14.1400   -0.0620 N   0  0  0  0  0  0  0  0  0  0  0  0
   -0.3850   14.1540    1.3260 C   0  0  0  0  0  0  0  0  0  0  0  0
   -3.8790   15.3250   -2.9840 C   0  0  0  0  0  0  0  0  0  0  0  0
   -5.1590   15.7580   -2.5830 O   0  0  0  0  0  0  0  0  0  0  0  0
   -5.6200   15.0820   -1.4820 C   0  0  0  0  0  0  0  0  0  0  0  0
   -4.8290   14.1320   -0.9780 N   0  0  0  0  0  0  0  0  0  0  0  0
   -6.8660   15.4170   -0.9750 C   0  0  0  0  0  0  0  0  0  0  0  0
   -5.3250   13.4670    0.0570 C   0  0  0  0  0  0  0  0  0  0  0  0
   -7.3790   14.7040    0.1320 C   0  0  0  0  0  0  0  0  0  0  0  0
   -6.5560   13.6890    0.6200 C   0  0  0  0  0  0  0  0  0  0  0  0
   -8.7660   15.0450    0.6860 C   0  0  0  0  0  0  0  0  0  0  0  0
   -6.8620   12.7760    1.6440 C   0  0  0  0  0  0  0  0  0  0  0  0
   -8.9720   15.1090    2.1670 N   0  0  0  0  0  0  0  0  0  0  0  0
   -7.0960   11.6010    1.0160 O   0  0  0  0  0  0  0  0  0  0  0  0
   -7.0050   12.6460    2.9940 C   0  0  0  0  0  0  0  0  0  0  0  0
   -7.9610   15.0490    2.9750 C   0  0  0  0  0  0  0  0  0  0  0  0
   -7.3510   11.2920    3.1960 C   0  0  0  0  0  0  0  0  0  0  0  0
   -7.3950   10.7130    1.9570 C   0  0  0  0  0  0  0  0  0  0  0  0
   -7.9840   15.0970    4.3570 N   0  0  0  0  0  0  0  0  0  0  0  0
   -9.0610   15.0880    5.2000 C   0  0  0  0  0  0  0  0  0  0  0  0
   -9.1180   15.1890    6.5810 C   0  0  0  0  0  0  0  0  0  0  0  0
  -10.6510   14.9300    4.5500 S   0  0  0  0  0  0  0  0  0  0  0  0
  -11.3840   14.9970    6.0930 C   0  0  0  0  0  0  0  0  0  0  0  0
  -10.4520   15.1360    7.0950 C   0  0  0  0  0  0  0  0  0  0  0  0
  1  2  1  0
  2  3  1  0
  2  4  2  0
  3  5  1  0
  4  6  1  0
  4  7  1  0
  5  8  2  0
  6  8  1  0
  6  9  2  0
  7 10  2  0
  9 10  1  0
  5 11  1  0
 11 12  1  0
 12 13  1  0
 13 14  2  0
 13 15  1  0
 14 16  1  0
 15 17  2  0
 16 18  2  0
 17 18  1  0
 17 19  1  0
 18 20  1  0
 19 21  1  0
 20 22  1  0
 20 23  2  0
 21 24  2  3
 23 25  1  0
 22 26  1  0
 25 26  2  0
 24 27  1  0
 27 28  1  0
 28 29  2  0
 28 30  1  0
 30 31  1  0
 29 32  1  0
 31 32  2  0
M  END
