mac-x0345-mac-x0180
     RDKit          3D

 20 22  0  0  0  0  0  0  0  0999 V2000
   -6.8070   13.8190    1.7060 C   0  0  0  0  0  0  0  0  0  0  0  0
   -5.3110   13.5550    1.6090 C   0  0  0  0  0  0  0  0  0  0  0  0
   -4.7790   12.5630    2.0390 O   0  0  0  0  0  0  0  0  0  0  0  0
   -6.9730   14.5450    0.4210 C   0  0  0  0  0  0  0  0  0  0  0  0
   -4.7510   14.6480    0.9170 N   0  0  0  0  0  0  0  0  0  0  0  0
   -5.7340   15.0110    0.0290 C   0  0  0  0  0  0  0  0  0  0  0  0
   -8.1240   14.7210   -0.2550 N   0  0  0  0  0  0  0  0  0  0  0  0
   -5.6270   15.7150   -1.1220 C   0  0  0  0  0  0  0  0  0  0  0  0
   -7.9870   15.4150   -1.3990 C   0  0  0  0  0  0  0  0  0  0  0  0
   -3.5120   14.6180    0.2550 C   0  0  0  0  0  0  0  0  0  0  0  0
   -9.0950   15.6610   -2.2020 N   0  0  0  0  0  0  0  0  0  0  0  0
   -6.7810   15.9050   -1.8340 C   0  0  0  0  0  0  0  0  0  0  0  0
   -2.2620   14.6780    0.8800 C   0  0  0  0  0  0  0  0  0  0  0  0
   -3.5490   14.5290   -1.1450 C   0  0  0  0  0  0  0  0  0  0  0  0
   -1.0810   14.6550    0.1080 C   0  0  0  0  0  0  0  0  0  0  0  0
   -2.4030   14.5070   -1.9100 C   0  0  0  0  0  0  0  0  0  0  0  0
   -1.1610   14.5720   -1.2990 C   0  0  0  0  0  0  0  0  0  0  0  0
    0.0560   14.5550   -2.1360 C   0  0  0  0  0  0  0  0  0  0  0  0
    0.0760   14.3270   -3.3330 O   0  0  0  0  0  0  0  0  0  0  0  0
    1.1860   14.8270   -1.4640 O   0  0  0  0  0  0  0  0  0  0  0  0
  1  2  1  0
  2  3  2  0
  1  4  1  0
  2  5  1  0
  4  6  2  0
  5  6  1  0
  4  7  1  0
  6  8  1  0
  7  9  2  0
  5 10  1  0
  9 11  1  0
  8 12  2  0
  9 12  1  0
 10 13  2  0
 10 14  1  0
 13 15  1  0
 14 16  2  0
 15 17  2  0
 16 17  1  0
 17 18  1  0
 18 19  2  0
 18 20  1  0
M  END
