mac-x0271-mac-x0142
     RDKit          3D

 25 29  0  0  0  0  0  0  0  0999 V2000
   -3.4350   16.0410   -2.9010 O   0  0  0  0  0  0  0  0  0  0  0  0
   -3.9740   14.9750   -2.1060 C   0  0  1  0  0  0  0  0  0  0  0  0
   -3.0430   14.7220   -0.8590 C   0  0  2  0  0  0  0  0  0  0  0  0
   -5.5130   15.1600   -1.9690 C   0  0  0  0  0  0  0  0  0  0  0  0
   -6.0880   14.9490   -0.6270 C   0  0  0  0  0  0  0  0  0  0  0  0
   -3.9170   13.9670    0.2270 C   0  0  0  0  0  0  0  0  0  0  0  0
   -2.5700   15.9400   -0.0630 C   0  0  0  0  0  0  0  0  0  0  0  0
   -1.6080   14.1250   -1.3490 C   0  0  1  0  0  0  0  0  0  0  0  0
   -5.3810   14.4300    0.3690 C   0  0  0  0  0  0  0  0  0  0  0  0
   -7.4570   15.3360   -0.4860 O   0  0  0  0  0  0  0  0  0  0  0  0
   -1.2370   14.4690   -2.7630 N   0  0  0  0  0  0  0  0  0  0  0  0
   -0.4410   14.5470   -0.5650 N   0  0  0  0  0  0  0  0  0  0  0  0
   -1.8210   15.5060    1.1310 N   0  0  0  0  0  0  0  0  0  0  0  0
   -6.0580   14.3020    1.6240 C   0  0  0  0  0  0  0  0  0  0  0  0
   -8.1830   14.9390    0.6060 C   0  0  0  0  0  0  0  0  0  0  0  0
   -2.1180   13.9790   -3.8370 C   0  0  0  0  0  0  0  0  0  0  0  0
    0.1610   14.7890   -3.1590 C   0  0  0  0  0  0  0  0  0  0  0  0
   -0.6640   14.6850    0.8460 C   0  0  0  0  0  0  0  0  0  0  0  0
   -9.4140   14.9220    0.6460 O   0  0  0  0  0  0  0  0  0  0  0  0
   -7.3750   14.5330    1.7660 C   0  0  0  0  0  0  0  0  0  0  0  0
    0.7640   13.6950   -4.0270 C   0  0  0  0  0  0  0  0  0  0  0  0
   -1.4690   12.8960   -4.7020 C   0  0  0  0  0  0  0  0  0  0  0  0
    2.2650   13.5070   -4.1450 C   0  0  0  0  0  0  0  0  0  0  0  0
    1.4620   12.5690   -3.2930 C   0  0  0  0  0  0  0  0  0  0  0  0
   -0.0970   13.3150   -5.2000 C   0  0  0  0  0  0  0  0  0  0  0  0
  2  1  1  1
  2  3  1  0
  2  4  1  0
  4  5  1  0
  3  6  1  1
  3  7  1  0
  3  8  1  0
  5  9  2  0
  6  9  1  0
  5 10  1  0
  8 11  1  6
  8 12  1  0
  7 13  1  0
  9 14  1  0
 10 15  1  0
 11 16  1  0
 11 17  1  0
 12 18  1  0
 13 18  1  0
 15 19  2  0
 14 20  2  0
 15 20  1  0
 21 17  1  0
 16 22  1  0
 21 23  1  0
 21 24  1  0
 23 24  1  0
 21 25  1  0
 22 25  1  0
M  END
