mac-x0354-mac-x0115
     RDKit          3D

 33 36  0  0  0  0  0  0  0  0999 V2000
    0.5200   11.2650   -8.0580 C   0  0  0  0  0  0  0  0  0  0  0  0
    0.8940   11.6620   -6.7130 N   0  0  0  0  0  0  0  0  0  0  0  0
    1.8850   12.5330   -6.4950 N   0  0  0  0  0  0  0  0  0  0  0  0
    0.3130   11.2100   -5.5670 C   0  0  0  0  0  0  0  0  0  0  0  0
    1.9510   12.6410   -5.1720 C   0  0  0  0  0  0  0  0  0  0  0  0
    0.9990   11.8380   -4.4960 C   0  0  0  0  0  0  0  0  0  0  0  0
   -0.7730   10.2550   -5.6760 C   0  0  0  0  0  0  0  0  0  0  0  0
    0.7960   11.6720   -3.0350 C   0  0  0  0  0  0  0  0  0  0  0  0
   -0.5680    9.0340   -6.3410 C   0  0  0  0  0  0  0  0  0  0  0  0
   -2.0250   10.5420   -5.1360 C   0  0  0  0  0  0  0  0  0  0  0  0
    1.2850   12.3100   -1.9910 N   0  0  0  0  0  0  0  0  0  0  0  0
   -0.0250   10.6330   -2.6990 O   0  0  0  0  0  0  0  0  0  0  0  0
   -1.6080    8.1130   -6.4620 C   0  0  0  0  0  0  0  0  0  0  0  0
   -3.0660    9.6180   -5.2580 C   0  0  0  0  0  0  0  0  0  0  0  0
    2.2340   13.4400   -1.8740 C   0  0  0  0  0  0  0  0  0  0  0  0
   -2.8580    8.4030   -5.9200 C   0  0  0  0  0  0  0  0  0  0  0  0
    2.0890   14.4370   -3.2650 S   0  0  0  0  0  0  0  0  0  0  0  0
    0.6920   14.5960   -2.1140 C   0  0  0  0  0  0  0  0  0  0  0  0
   -0.3040   15.3250   -2.6620 N   0  0  0  0  0  0  0  0  0  0  0  0
    0.5130   14.0690   -0.8050 N   0  0  0  0  0  0  0  0  0  0  0  0
   -0.4220   15.0020   -4.0880 C   0  0  0  0  0  0  0  0  0  0  0  0
   -0.5070   14.4970    0.0810 C   0  0  0  0  0  0  0  0  0  0  0  0
   -1.4770   15.3690   -1.9800 C   0  0  0  0  0  0  0  0  0  0  0  0
    0.3750   15.9430   -4.9640 C   0  0  0  0  0  0  0  0  0  0  0  0
   -0.6130   14.0780    1.2310 O   0  0  0  0  0  0  0  0  0  0  0  0
   -1.4300   15.5370   -0.5200 C   0  0  1  0  0  0  0  0  0  0  0  0
   -2.7180   15.2860   -2.4470 C   0  0  0  0  0  0  0  0  0  0  0  0
   -0.6100   16.5920   -5.7560 O   0  0  0  0  0  0  0  0  0  0  0  0
   -2.8600   15.5170   -0.0980 N   0  0  0  0  0  0  0  0  0  0  0  0
   -3.5010   15.3880   -1.2210 C   0  0  0  0  0  0  0  0  0  0  0  0
   -0.4020   17.9750   -5.9860 C   0  0  0  0  0  0  0  0  0  0  0  0
   -1.3980   18.7420   -5.1380 C   0  0  0  0  0  0  0  0  0  0  0  0
    1.0370   18.2890   -5.6320 C   0  0  0  0  0  0  0  0  0  0  0  0
  1  2  1  0
  2  3  1  0
  2  4  1  0
  3  5  2  0
  4  6  2  0
  5  6  1  0
  4  7  1  0
  6  8  1  0
  7  9  2  0
  7 10  1  0
  8 11  2  3
  8 12  1  0
  9 13  1  0
 10 14  2  0
 11 15  1  0
 13 16  2  0
 14 16  1  0
 15 17  1  0
 17 18  2  3
 18 19  1  0
 18 20  1  0
 19 21  1  0
 20 22  1  0
 19 23  1  0
 21 24  1  0
 22 25  2  0
 22 26  1  0
 23 26  1  0
 23 27  2  0
 24 28  1  0
 26 29  1  1
 27 30  1  0
 29 30  2  0
 28 31  1  0
 31 32  1  0
 31 33  1  0
M  END
