mac-x0555-diamond-x1012_0_A
     RDKit          3D

 25 27  0  0  0  0  0  0  0  0999 V2000
   -7.4070   14.5560    3.0350 N   0  0  0  0  0  0  0  0  0  0  0  0
   -6.9540   14.6290    1.7220 C   0  0  0  0  0  0  0  0  0  0  0  0
   -7.8100   14.5020    0.6440 C   0  0  0  0  0  0  0  0  0  0  0  0
   -5.6000   14.8410    1.4370 C   0  0  0  0  0  0  0  0  0  0  0  0
   -5.1640   14.9090    0.1020 C   0  0  0  0  0  0  0  0  0  0  0  0
   -7.4400   14.5620   -0.6520 N   0  0  0  0  0  0  0  0  0  0  0  0
   -6.1360   14.7580   -0.9020 C   0  0  0  0  0  0  0  0  0  0  0  0
   -3.8190   15.1130   -0.2550 C   0  0  0  0  0  0  0  0  0  0  0  0
   -5.7380   14.8010   -2.2100 C   0  0  0  0  0  0  0  0  0  0  0  0
   -3.4510   15.1460   -1.6070 C   0  0  0  0  0  0  0  0  0  0  0  0
   -4.4290   14.9790   -2.6080 C   0  0  0  0  0  0  0  0  0  0  0  0
   -4.1040   14.9720   -4.0820 C   0  0  0  0  0  0  0  0  0  0  0  0
   -3.3200   16.1030   -4.7250 C   0  0  0  0  0  0  0  0  0  0  0  0
   -2.0110   15.7280   -4.9270 N   0  0  0  0  0  0  0  0  0  0  0  0
   -0.9880   16.4340   -4.9590 C   0  0  0  0  0  0  0  0  0  0  0  0
   -0.7400   17.7720   -4.8370 N   0  0  0  0  0  0  0  0  0  0  0  0
    0.0700   15.6460   -5.1640 N   0  0  0  0  0  0  0  0  0  0  0  0
   -0.3860   14.2530   -5.4070 C   0  0  0  0  0  0  0  0  0  0  0  0
    1.2040   15.7470   -4.2290 C   0  0  0  0  0  0  0  0  0  0  0  0
   -0.6960   13.4990   -4.1370 C   0  0  0  0  0  0  0  0  0  0  0  0
    1.0760   14.7920   -3.0250 C   0  0  0  0  0  0  0  0  0  0  0  0
    0.6170   13.3790   -3.4230 C   0  0  0  0  0  0  0  0  0  0  0  0
    0.4740   12.4370   -2.2610 C   0  0  0  0  0  0  0  0  0  0  0  0
    0.1910   11.1720   -2.6360 O   0  0  0  0  0  0  0  0  0  0  0  0
    0.5780   12.7590   -1.0940 O   0  0  0  0  0  0  0  0  0  0  0  0
  1  2  1  0
  2  3  2  0
  2  4  1  0
  4  5  2  0
  3  6  1  0
  5  7  1  0
  6  7  2  0
  5  8  1  0
  7  9  1  0
  8 10  2  0
  9 11  2  0
 10 11  1  0
 11 12  1  0
 12 13  1  0
 13 14  1  0
 14 15  2  3
 15 16  1  0
 15 17  1  0
 17 18  1  0
 17 19  1  0
 18 20  1  0
 19 21  1  0
 20 22  1  0
 21 22  1  0
 22 23  1  0
 23 24  1  0
 23 25  2  0
M  END
