mac-x0319-diamond-x0591_0_A
     RDKit          3D

 24 25  0  0  0  0  0  0  0  0999 V2000
    0.5730   10.5130   -2.5100 O   0  0  0  0  0  0  0  0  0  0  0  0
    0.8670   11.8430   -2.3800 C   0  0  0  0  0  0  0  0  0  0  0  0
    0.6170   12.4250   -1.3380 O   0  0  0  0  0  0  0  0  0  0  0  0
    1.5110   12.4850   -3.6070 C   0  0  0  0  0  0  0  0  0  0  0  0
    0.8590   13.7900   -3.9660 C   0  0  0  0  0  0  0  0  0  0  0  0
    1.4820   15.0530   -3.8940 C   0  0  0  0  0  0  0  0  0  0  0  0
   -0.4470   13.7220   -4.3830 C   0  0  0  0  0  0  0  0  0  0  0  0
    0.7540   16.2030   -4.2430 C   0  0  0  0  0  0  0  0  0  0  0  0
   -1.1310   14.8630   -4.7200 C   0  0  0  0  0  0  0  0  0  0  0  0
    1.2890   17.4520   -4.1860 O   0  0  0  0  0  0  0  0  0  0  0  0
   -0.5600   16.1220   -4.6610 C   0  0  0  0  0  0  0  0  0  0  0  0
   -2.7710   14.5910   -5.2220 S   0  0  0  0  0  0  0  0  0  0  0  0
   -2.7840   13.2070   -5.6500 O   0  0  0  0  0  0  0  0  0  0  0  0
   -3.1600   15.6590   -6.1180 O   0  0  0  0  0  0  0  0  0  0  0  0
   -3.7400   14.6500   -3.7400 C   0  0  0  0  0  0  0  0  0  0  0  0
   -3.1710   14.5630   -2.4600 C   0  0  0  0  0  0  0  0  0  0  0  0
   -5.1020   14.7820   -3.9030 C   0  0  0  0  0  0  0  0  0  0  0  0
   -4.0140   14.6160   -1.3390 C   0  0  0  0  0  0  0  0  0  0  0  0
   -5.9310   14.8390   -2.7980 C   0  0  0  0  0  0  0  0  0  0  0  0
   -5.4020   14.7550   -1.5150 C   0  0  0  0  0  0  0  0  0  0  0  0
   -6.3250   14.8110   -0.3520 C   0  0  0  0  0  0  0  0  0  0  0  0
   -5.8020   14.6140    0.9010 N   0  0  0  0  0  0  0  0  0  0  0  0
   -7.5150   15.0170   -0.5480 O   0  0  0  0  0  0  0  0  0  0  0  0
   -6.7110   14.5200    2.0180 C   0  0  0  0  0  0  0  0  0  0  0  0
  1  2  1  0
  2  3  2  0
  2  4  1  0
  4  5  1  0
  5  6  2  0
  5  7  1  0
  6  8  1  0
  7  9  2  0
  8 10  1  0
  8 11  2  0
  9 11  1  0
 12  9  1  0
 12 13  2  0
 12 14  2  0
 12 15  1  0
 15 16  2  0
 15 17  1  0
 16 18  1  0
 17 19  2  0
 18 20  2  0
 19 20  1  0
 20 21  1  0
 21 22  1  0
 21 23  2  0
 22 24  1  0
M  END
