mac-x0338-diamond-x0290_0_A
     RDKit          3D

 19 20  0  0  0  0  0  0  0  0999 V2000
   -3.9040   15.1390    1.6510 N   0  0  0  0  0  0  0  0  0  0  0  0
   -5.0520   14.5770    0.9560 C   0  0  2  0  0  0  0  0  0  0  0  0
   -6.3500   15.0660    1.3890 O   0  0  0  0  0  0  0  0  0  0  0  0
   -2.6440   14.8130    1.1150 C   0  0  0  0  0  0  0  0  0  0  0  0
   -5.0990   13.1780    1.1280 O   0  0  0  0  0  0  0  0  0  0  0  0
   -4.8810   14.7800   -0.5420 C   0  0  0  0  0  0  0  0  0  0  0  0
   -1.6530   14.5560    1.9750 N   0  0  0  0  0  0  0  0  0  0  0  0
   -2.4140   14.7570   -0.2580 C   0  0  0  0  0  0  0  0  0  0  0  0
   -7.4270   14.0530    1.2470 N   0  0  0  0  0  0  0  0  0  0  0  0
   -3.6180   15.0580   -0.9820 N   0  0  0  0  0  0  0  0  0  0  0  0
   -5.9320   14.6750   -1.4280 C   0  0  0  0  0  0  0  0  0  0  0  0
   -0.4380   14.2570    1.4770 C   0  0  0  0  0  0  0  0  0  0  0  0
   -1.1530   14.4410   -0.7670 C   0  0  0  0  0  0  0  0  0  0  0  0
   -8.5910   14.8350    0.8280 C   0  0  0  0  0  0  0  0  0  0  0  0
   -0.8990   14.3740   -2.2470 C   0  0  0  0  0  0  0  0  0  0  0  0
   -3.4660   15.2130   -2.3080 C   0  0  0  0  0  0  0  0  0  0  0  0
   -5.7700   14.8270   -2.7630 N   0  0  0  0  0  0  0  0  0  0  0  0
   -0.1390   14.1880    0.1330 C   0  0  0  0  0  0  0  0  0  0  0  0
   -4.5150   15.0960   -3.1760 C   0  0  0  0  0  0  0  0  0  0  0  0
  1  2  1  0
  2  3  1  0
  1  4  1  0
  2  5  1  6
  2  6  1  0
  4  7  2  0
  4  8  1  0
  3  9  1  0
  6 10  2  0
  6 11  1  0
  7 12  1  0
  8 13  2  0
  9 14  1  0
 13 15  1  0
 10 16  1  0
 11 17  2  0
 12 18  2  0
 13 18  1  0
 16 19  2  0
 17 19  1  0
M  END
