mac-x0302-diamond-x0253_0_A
     RDKit          3D

 25 26  0  0  0  0  0  0  0  0999 V2000
    1.0420   13.0510   -4.3760 O   0  0  0  0  0  0  0  0  0  0  0  0
    0.2320   13.1900   -3.1930 C   0  0  0  0  0  0  0  0  0  0  0  0
    1.0080   13.6550   -2.1040 O   0  0  0  0  0  0  0  0  0  0  0  0
    0.3650   12.1980   -5.3360 N   0  0  0  0  0  0  0  0  0  0  0  0
   -0.9890   14.1220   -3.4970 C   0  0  0  0  0  0  0  0  0  0  0  0
    1.1180   11.7910   -6.4310 C   0  0  0  0  0  0  0  0  0  0  0  0
   -0.1980   11.9000   -2.7580 O   0  0  0  0  0  0  0  0  0  0  0  0
   -1.7250   14.5810   -2.3210 N   0  0  0  0  0  0  0  0  0  0  0  0
    2.2620   12.1720   -6.5890 O   0  0  0  0  0  0  0  0  0  0  0  0
    0.4780   10.8280   -7.4060 C   0  0  0  0  0  0  0  0  0  0  0  0
   -3.0010   15.0960   -2.4430 C   0  0  0  0  0  0  0  0  0  0  0  0
   -0.5080    9.9120   -6.9940 C   0  0  0  0  0  0  0  0  0  0  0  0
    0.8590   10.8170   -8.7630 C   0  0  0  0  0  0  0  0  0  0  0  0
   -3.4210   15.5480   -3.5040 O   0  0  0  0  0  0  0  0  0  0  0  0
   -3.8450   15.0770   -1.2180 C   0  0  0  0  0  0  0  0  0  0  0  0
   -1.0890    9.0220   -7.9150 C   0  0  0  0  0  0  0  0  0  0  0  0
    0.2860    9.9380   -9.6740 C   0  0  0  0  0  0  0  0  0  0  0  0
   -2.1440    8.0490   -7.4700 C   0  0  0  0  0  0  0  0  0  0  0  0
   -5.2390   15.0410   -1.3680 C   0  0  0  0  0  0  0  0  0  0  0  0
   -3.2830   15.0890    0.0650 C   0  0  0  0  0  0  0  0  0  0  0  0
   -0.6870    9.0410   -9.2530 C   0  0  0  0  0  0  0  0  0  0  0  0
   -6.0430   15.0110   -0.2370 C   0  0  0  0  0  0  0  0  0  0  0  0
   -4.1010   15.0610    1.1880 C   0  0  0  0  0  0  0  0  0  0  0  0
   -7.4040   14.9730   -0.3400 O   0  0  0  0  0  0  0  0  0  0  0  0
   -5.4820   15.0190    1.0380 C   0  0  0  0  0  0  0  0  0  0  0  0
  2  1  1  0
  2  3  1  0
  1  4  1  0
  2  5  1  0
  4  6  1  0
  2  7  1  0
  5  8  1  0
  6  9  2  0
  6 10  1  0
  8 11  1  0
 10 12  2  0
 10 13  1  0
 11 14  2  0
 11 15  1  0
 12 16  1  0
 13 17  2  0
 16 18  1  0
 15 19  2  0
 15 20  1  0
 16 21  2  0
 17 21  1  0
 19 22  1  0
 20 23  2  0
 22 24  1  0
 22 25  2  0
 23 25  1  0
M  END
