mac-x0116-diamond-x0711_0_A
     RDKit          3D

 23 26  0  0  0  0  0  0  0  0999 V2000
   -5.8710   14.6570    1.4830 C   0  0  1  0  0  0  0  0  0  0  0  0
   -4.4560   14.9770    1.7650 N   0  0  0  0  0  0  0  0  0  0  0  0
   -3.8390   14.2910    0.6580 C   0  0  1  0  0  0  0  0  0  0  0  0
   -5.9030   14.9310   -0.0280 C   0  0  0  0  0  0  0  0  0  0  0  0
   -6.3040   13.2400    1.6320 C   0  0  0  0  0  0  0  0  0  0  0  0
   -6.9010   15.0850   -0.7200 O   0  0  0  0  0  0  0  0  0  0  0  0
   -6.2670   12.4800    0.4960 O   0  0  0  0  0  0  0  0  0  0  0  0
   -6.7650   12.4850    2.6870 C   0  0  0  0  0  0  0  0  0  0  0  0
   -4.5440   14.9450   -0.4110 N   0  0  0  0  0  0  0  0  0  0  0  0
   -7.0250   11.2010    2.1720 C   0  0  0  0  0  0  0  0  0  0  0  0
   -6.7050   11.2510    0.8380 C   0  0  0  0  0  0  0  0  0  0  0  0
   -4.0340   14.9930   -1.7850 C   0  0  0  0  0  0  0  0  0  0  0  0
   -2.3190   14.3120    0.5330 C   0  0  1  0  0  0  0  0  0  0  0  0
   -2.5760   14.7000   -1.8250 N   0  0  0  0  0  0  0  0  0  0  0  0
   -1.9630   15.2060   -0.6200 C   0  0  2  0  0  0  0  0  0  0  0  0
   -1.4210   14.8720    1.5250 N   0  0  0  0  0  0  0  0  0  0  0  0
   -1.9070   15.2050   -2.9810 N   0  0  0  0  0  0  0  0  0  0  0  0
   -0.5030   15.1040   -0.6290 N   0  0  0  0  0  0  0  0  0  0  0  0
   -0.1750   14.7850    0.7700 C   0  0  0  0  0  0  0  0  0  0  0  0
   -0.5810   14.1400   -3.3400 S   0  0  0  0  0  0  0  0  0  0  0  0
   -1.4460   12.8880   -4.2550 C   0  0  0  0  0  0  0  0  0  0  0  0
    0.3240   14.8070   -4.2500 O   0  0  0  0  0  0  0  0  0  0  0  0
   -0.1240   13.5470   -2.0980 O   0  0  0  0  0  0  0  0  0  0  0  0
  1  2  1  0
  3  2  1  1
  1  4  1  0
  1  5  1  6
  4  6  2  0
  5  7  1  0
  5  8  2  0
  3  9  1  0
  4  9  1  0
  8 10  1  0
  7 11  1  0
 10 11  2  0
  9 12  1  0
  3 13  1  0
 12 14  1  0
 13 15  1  0
 14 15  1  0
 13 16  1  1
 14 17  1  0
 15 18  1  6
 16 19  1  0
 18 19  1  0
 20 17  1  0
 20 21  1  0
 20 22  2  0
 20 23  2  0
M  END
