mac-x0319-mac-x0402
     RDKit          3D

 22 24  0  0  0  0  0  0  0  0999 V2000
    0.5320   10.5120   -2.6150 O   0  0  0  0  0  0  0  0  0  0  0  0
    0.9240   11.8160   -2.5620 C   0  0  0  0  0  0  0  0  0  0  0  0
    0.8290   12.4280   -1.5050 O   0  0  0  0  0  0  0  0  0  0  0  0
    1.4560   12.4820   -3.8390 C   0  0  0  0  0  0  0  0  0  0  0  0
    0.8170   13.8300   -4.0220 C   0  0  0  0  0  0  0  0  0  0  0  0
    1.5040   15.0470   -4.1620 C   0  0  0  0  0  0  0  0  0  0  0  0
   -0.5540   13.8320   -4.0330 C   0  0  0  0  0  0  0  0  0  0  0  0
    0.7540   16.2220   -4.3010 C   0  0  0  0  0  0  0  0  0  0  0  0
   -1.2960   14.9970   -4.1560 C   0  0  0  0  0  0  0  0  0  0  0  0
    1.3030   17.4510   -4.4400 O   0  0  0  0  0  0  0  0  0  0  0  0
   -2.7890   14.9470   -4.1330 C   0  0  0  0  0  0  0  0  0  0  0  0
   -0.6230   16.1980   -4.2990 C   0  0  0  0  0  0  0  0  0  0  0  0
   -3.5430   14.9720   -2.7930 C   0  0  0  0  0  0  0  0  0  0  0  0
   -4.9160   14.9650   -2.9360 C   0  0  0  0  0  0  0  0  0  0  0  0
   -2.9840   15.0010   -1.4790 C   0  0  0  0  0  0  0  0  0  0  0  0
   -3.8850   15.0260   -0.3730 C   0  0  0  0  0  0  0  0  0  0  0  0
   -5.7720   14.9880   -1.8550 C   0  0  0  0  0  0  0  0  0  0  0  0
   -5.2620   15.0190   -0.5670 C   0  0  0  0  0  0  0  0  0  0  0  0
   -3.6070   15.0710    1.3300 S   0  0  0  0  0  0  0  0  0  0  0  0
   -5.3060   15.0930    1.6010 C   0  0  0  0  0  0  0  0  0  0  0  0
   -6.0470   15.0470    0.5480 N   0  0  0  0  0  0  0  0  0  0  0  0
   -5.8410   15.1670    2.8160 N   0  0  0  0  0  0  0  0  0  0  0  0
  1  2  1  0
  2  3  2  0
  2  4  1  0
  4  5  1  0
  5  6  2  0
  5  7  1  0
  6  8  1  0
  7  9  2  0
  8 10  1  0
  9 11  1  0
  8 12  2  0
  9 12  1  0
 11 13  1  0
 13 14  2  0
 13 15  1  0
 15 16  2  0
 14 17  1  0
 16 18  1  0
 17 18  2  0
 16 19  1  0
 19 20  1  0
 18 21  1  0
 20 21  2  0
 20 22  1  0
M  END
