mac-x0212-mac-x0223
     RDKit          3D

 26 27  0  0  0  0  0  0  0  0999 V2000
   -6.2860   12.8540    1.4370 C   0  0  0  0  0  0  0  0  0  0  0  0
   -6.7730   14.5330    1.0760 S   0  0  0  0  0  0  0  0  0  0  0  0
   -7.5400   15.0110    2.2080 O   0  0  0  0  0  0  0  0  0  0  0  0
   -7.3530   14.5690   -0.2510 O   0  0  0  0  0  0  0  0  0  0  0  0
   -5.2850   15.3500    1.0780 N   0  0  0  0  0  0  0  0  0  0  0  0
   -4.3910   14.8960    0.0870 C   0  0  0  0  0  0  0  0  0  0  0  0
   -3.2420   14.2140    0.4520 C   0  0  0  0  0  0  0  0  0  0  0  0
   -4.6910   15.1210   -1.2560 C   0  0  0  0  0  0  0  0  0  0  0  0
   -2.3880   13.7070   -0.5300 C   0  0  0  0  0  0  0  0  0  0  0  0
   -3.8360   14.6120   -2.2370 C   0  0  0  0  0  0  0  0  0  0  0  0
   -2.6820   13.8800   -1.8860 C   0  0  0  0  0  0  0  0  0  0  0  0
   -1.8220   13.2730   -2.9930 C   0  0  2  0  0  0  0  0  0  0  0  0
   -0.2590   12.9440   -2.9590 C   0  0  0  0  0  0  0  0  0  0  0  0
   -2.1540   13.9610   -4.2130 O   0  0  0  0  0  0  0  0  0  0  0  0
    0.4550   13.5510   -4.1880 C   0  0  0  0  0  0  0  0  0  0  0  0
    0.0050   11.5480   -2.8410 O   0  0  0  0  0  0  0  0  0  0  0  0
    0.3570   13.4830   -1.7810 O   0  0  0  0  0  0  0  0  0  0  0  0
   -0.2030   14.8490   -4.4740 C   0  0  0  0  0  0  0  0  0  0  0  0
   -1.5850   14.8220   -4.7040 C   0  0  0  0  0  0  0  0  0  0  0  0
    0.4740   16.0560   -4.4930 C   0  0  0  0  0  0  0  0  0  0  0  0
   -0.2410   17.2200   -4.7180 C   0  0  0  0  0  0  0  0  0  0  0  0
   -2.3010   15.9840   -4.9240 C   0  0  0  0  0  0  0  0  0  0  0  0
    0.2990   18.4440   -4.7580 O   0  0  0  0  0  0  0  0  0  0  0  0
   -1.6120   17.1760   -4.9170 C   0  0  0  0  0  0  0  0  0  0  0  0
    1.2590   18.5710   -5.7720 C   0  0  0  0  0  0  0  0  0  0  0  0
   -2.2790   18.3430   -5.0950 O   0  0  0  0  0  0  0  0  0  0  0  0
  1  2  1  0
  2  3  2  0
  2  4  2  0
  2  5  1  0
  5  6  1  0
  6  7  2  0
  6  8  1  0
  7  9  1  0
  8 10  2  0
  9 11  2  0
 10 11  1  0
 11 12  1  0
 12 13  1  0
 12 14  1  6
 13 15  1  0
 13 16  1  0
 13 17  1  0
 15 18  1  0
 18 19  2  0
 18 20  1  0
 20 21  2  0
 19 22  1  0
 21 23  1  0
 21 24  1  0
 22 24  2  0
 23 25  1  0
 24 26  1  0
M  END
