mac-x0587-diamond-x0950_0_A
     RDKit          3D

 17 17  0  0  0  0  0  0  0  0999 V2000
    0.0280   16.2350   -4.3170 C   0  0  0  0  0  0  0  0  0  0  0  0
   -0.5270   14.9410   -3.7300 C   0  0  2  0  0  0  0  0  0  0  0  0
    0.1280   13.5130   -4.6010 S   0  0  2  0  0  0  0  0  0  0  0  0
   -2.0530   14.9570   -3.4940 C   0  0  0  0  0  0  0  0  0  0  0  0
   -0.4530   12.0170   -3.8230 C   0  0  0  0  0  0  0  0  0  0  0  0
   -2.7940   15.1140   -4.4710 O   0  0  0  0  0  0  0  0  0  0  0  0
    1.8920   13.5830   -4.3160 C   0  0  0  0  0  0  0  0  0  0  0  0
   -2.5650   14.8180   -2.2120 N   0  0  0  0  0  0  0  0  0  0  0  0
    0.5270   11.3930   -2.8690 C   0  0  0  0  0  0  0  0  0  0  0  0
    2.6600   12.4200   -4.9120 C   0  0  0  0  0  0  0  0  0  0  0  0
   -3.9340   15.1070   -1.8070 C   0  0  0  0  0  0  0  0  0  0  0  0
   -1.7720   14.7460   -1.0470 C   0  0  0  0  0  0  0  0  0  0  0  0
    0.5290   10.2460   -2.4590 O   0  0  0  0  0  0  0  0  0  0  0  0
    1.4530   12.2720   -2.4340 O   0  0  0  0  0  0  0  0  0  0  0  0
   -0.5650   14.7900   -0.9120 O   0  0  0  0  0  0  0  0  0  0  0  0
   -3.9120   15.1700   -0.2880 C   0  0  0  0  0  0  0  0  0  0  0  0
   -2.6310   14.6250    0.0380 N   0  0  0  0  0  0  0  0  0  0  0  0
  2  1  1  6
  2  3  1  0
  2  4  1  0
  3  5  1  1
  4  6  2  0
  3  7  1  0
  4  8  1  0
  5  9  1  0
  7 10  1  0
  8 11  1  0
  8 12  1  0
  9 13  2  0
  9 14  1  0
 12 15  2  0
 11 16  1  0
 12 17  1  0
 16 17  1  0
M  END
