mac-x0116-mac-x0255
     RDKit          3D

 30 34  0  0  0  0  0  0  0  0999 V2000
   -5.9610   14.7240    1.7100 C   0  0  0  0  0  0  0  0  0  0  0  0
   -4.5440   15.0420    1.7620 N   0  0  0  0  0  0  0  0  0  0  0  0
   -3.8430   14.9660    0.5670 C   0  0  0  0  0  0  0  0  0  0  0  0
   -6.3540   13.2900    1.7080 C   0  0  0  0  0  0  0  0  0  0  0  0
   -6.2900   12.6290    0.5150 O   0  0  0  0  0  0  0  0  0  0  0  0
   -6.8020   12.4450    2.6970 C   0  0  0  0  0  0  0  0  0  0  0  0
   -7.0300   11.2020    2.0800 C   0  0  0  0  0  0  0  0  0  0  0  0
   -6.7040   11.3630    0.7530 C   0  0  0  0  0  0  0  0  0  0  0  0
   -4.4450   15.1410   -0.6400 N   0  0  0  0  0  0  0  0  0  0  0  0
   -2.4730   14.6930    0.5860 C   0  0  0  0  0  0  0  0  0  0  0  0
   -3.6930   15.0340   -1.7550 C   0  0  0  0  0  0  0  0  0  0  0  0
   -1.8260   14.6050   -0.6320 C   0  0  0  0  0  0  0  0  0  0  0  0
   -1.6090   14.4840    1.6360 N   0  0  0  0  0  0  0  0  0  0  0  0
   -2.3750   14.7640   -1.8480 N   0  0  0  0  0  0  0  0  0  0  0  0
   -0.5280   14.3240   -0.3070 N   0  0  0  0  0  0  0  0  0  0  0  0
   -0.4530   14.2670    1.0640 C   0  0  0  0  0  0  0  0  0  0  0  0
    0.5660   14.1200   -1.2330 C   0  0  0  0  0  0  0  0  0  0  0  0
    0.7300   12.6970   -1.4200 O   0  0  0  0  0  0  0  0  0  0  0  0
    0.6520   12.1610   -2.6820 C   0  0  0  0  0  0  0  0  0  0  0  0
    0.0370   11.1300   -2.9200 O   0  0  0  0  0  0  0  0  0  0  0  0
    1.4170   12.9330   -3.7500 C   0  0  0  0  0  0  0  0  0  0  0  0
    0.6840   14.1570   -4.2230 C   0  0  0  0  0  0  0  0  0  0  0  0
    1.2270   15.3940   -4.4790 C   0  0  0  0  0  0  0  0  0  0  0  0
   -1.0030   14.1560   -4.5180 S   0  0  0  0  0  0  0  0  0  0  0  0
    0.2680   16.3620   -4.9170 C   0  0  0  0  0  0  0  0  0  0  0  0
   -1.0160   15.8180   -4.9850 C   0  0  0  0  0  0  0  0  0  0  0  0
    0.4410   17.7190   -5.2720 C   0  0  0  0  0  0  0  0  0  0  0  0
   -2.1250   16.5890   -5.3920 C   0  0  0  0  0  0  0  0  0  0  0  0
   -0.6520   18.4830   -5.6780 C   0  0  0  0  0  0  0  0  0  0  0  0
   -1.9180   17.9280   -5.7380 C   0  0  0  0  0  0  0  0  0  0  0  0
  1  2  1  0
  2  3  1  0
  1  4  1  0
  4  5  1  0
  4  6  2  0
  6  7  1  0
  5  8  1  0
  7  8  2  0
  3  9  2  0
  3 10  1  0
  9 11  1  0
 10 12  2  0
 10 13  1  0
 11 14  2  0
 12 14  1  0
 12 15  1  0
 13 16  2  0
 15 16  1  0
 15 17  1  0
 17 18  1  0
 18 19  1  0
 19 20  2  0
 19 21  1  0
 21 22  1  0
 22 23  2  0
 22 24  1  0
 23 25  1  0
 24 26  1  0
 25 26  2  0
 25 27  1  0
 26 28  1  0
 27 29  2  0
 28 30  2  0
 29 30  1  0
M  END
