mac-x0226-mac-x0179
     RDKit          3D

 16 17  0  0  0  0  0  0  0  0999 V2000
    0.5900   12.3030   -1.5990 O   0  0  0  0  0  0  0  0  0  0  0  0
    0.3280   11.4960   -2.6590 C   0  0  0  0  0  0  0  0  0  0  0  0
    0.1700   10.2950   -2.4980 O   0  0  0  0  0  0  0  0  0  0  0  0
    0.1780   12.1660   -4.0120 C   0  0  1  0  0  0  0  0  0  0  0  0
    1.4730   12.6490   -4.6510 C   0  0  2  0  0  0  0  0  0  0  0  0
   -0.4460   11.2640   -5.0210 C   0  0  0  0  0  0  0  0  0  0  0  0
    1.4880   14.1650   -4.6100 C   0  0  0  0  0  0  0  0  0  0  0  0
   -1.4790   10.6650   -4.7870 O   0  0  0  0  0  0  0  0  0  0  0  0
    1.4520   12.1740   -6.0580 N   0  0  0  0  0  0  0  0  0  0  0  0
    0.3430   11.2950   -6.1820 N   0  0  0  0  0  0  0  0  0  0  0  0
    0.0190   10.7050   -7.4430 C   0  0  0  0  0  0  0  0  0  0  0  0
   -1.0970    9.8770   -7.6040 C   0  0  0  0  0  0  0  0  0  0  0  0
    0.7980   10.9280   -8.5670 C   0  0  0  0  0  0  0  0  0  0  0  0
   -1.4040    9.3080   -8.8480 C   0  0  0  0  0  0  0  0  0  0  0  0
    0.5090   10.3720   -9.8100 C   0  0  0  0  0  0  0  0  0  0  0  0
   -0.5960    9.5580   -9.9530 C   0  0  0  0  0  0  0  0  0  0  0  0
  1  2  1  0
  2  3  2  0
  4  2  1  1
  4  5  1  0
  4  6  1  0
  5  7  1  6
  6  8  2  0
  5  9  1  0
  6 10  1  0
  9 10  1  0
 10 11  1  0
 11 12  2  0
 11 13  1  0
 12 14  1  0
 13 15  2  0
 14 16  2  0
 15 16  1  0
M  END
