mac-x0226-mac-x0496
     RDKit          3D

 35 38  0  0  0  0  0  0  0  0999 V2000
    2.0470   12.2200   -2.2200 O   0  0  0  0  0  0  0  0  0  0  0  0
    0.7750   12.4050   -2.7350 C   0  0  0  0  0  0  0  0  0  0  0  0
   -0.0520   11.5090   -1.9710 O   0  0  0  0  0  0  0  0  0  0  0  0
    0.4750   13.8720   -2.4000 C   0  0  0  0  0  0  0  0  0  0  0  0
    0.7850   12.1110   -4.2150 C   0  0  0  0  0  0  0  0  0  0  0  0
   -0.8470   14.1950   -1.7710 C   0  0  0  0  0  0  0  0  0  0  0  0
    1.6610   12.7190   -5.1360 C   0  0  0  0  0  0  0  0  0  0  0  0
    0.0320   11.2540   -5.0130 C   0  0  0  0  0  0  0  0  0  0  0  0
   -1.7350   14.7480   -2.7530 N   0  0  0  0  0  0  0  0  0  0  0  0
    1.4920   12.3010   -6.3820 N   0  0  0  0  0  0  0  0  0  0  0  0
    0.4880   11.3930   -6.3210 N   0  0  0  0  0  0  0  0  0  0  0  0
   -2.9130   15.1020   -2.4880 C   0  0  0  0  0  0  0  0  0  0  0  0
    0.0640   10.7430   -7.5190 C   0  0  0  0  0  0  0  0  0  0  0  0
   -3.7650   15.6170   -3.3930 O   0  0  0  0  0  0  0  0  0  0  0  0
   -1.0760    9.9330   -7.5430 C   0  0  0  0  0  0  0  0  0  0  0  0
    0.7820   10.9050   -8.6990 C   0  0  0  0  0  0  0  0  0  0  0  0
   -3.5030   14.9840   -1.1310 C   0  0  0  0  0  0  0  0  0  0  0  0
   -1.4650    9.3130   -8.7370 C   0  0  0  0  0  0  0  0  0  0  0  0
    0.4040   10.2960   -9.8830 C   0  0  0  0  0  0  0  0  0  0  0  0
   -2.6680   14.9900    0.0080 C   0  0  0  0  0  0  0  0  0  0  0  0
   -4.8750   14.8620   -0.9690 C   0  0  0  0  0  0  0  0  0  0  0  0
   -0.7250    9.4960   -9.9050 C   0  0  0  0  0  0  0  0  0  0  0  0
   -3.2070   14.8800    1.2880 C   0  0  0  0  0  0  0  0  0  0  0  0
   -5.4050   14.7480    0.3120 C   0  0  0  0  0  0  0  0  0  0  0  0
   -6.8600   14.6070    0.5120 C   0  0  0  0  0  0  0  0  0  0  0  0
   -4.5780   14.7600    1.4340 C   0  0  0  0  0  0  0  0  0  0  0  0
   -7.3060   14.2550    1.7700 N   0  0  0  0  0  0  0  0  0  0  0  0
   -7.6180   14.7960   -0.4280 O   0  0  0  0  0  0  0  0  0  0  0  0
   -8.7260   14.0170    1.9370 C   0  0  0  0  0  0  0  0  0  0  0  0
   -9.3710   15.1910    2.5650 C   0  0  0  0  0  0  0  0  0  0  0  0
  -10.5350   15.6450    2.0070 O   0  0  0  0  0  0  0  0  0  0  0  0
   -8.9900   15.8840    3.6080 N   0  0  0  0  0  0  0  0  0  0  0  0
   -9.9750   16.8250    3.7090 C   0  0  0  0  0  0  0  0  0  0  0  0
  -10.9360   16.7350    2.7820 N   0  0  0  0  0  0  0  0  0  0  0  0
   -9.9720   17.8520    4.7640 C   0  0  0  0  0  0  0  0  0  0  0  0
  2  1  1  0
  2  3  1  0
  2  4  1  0
  2  5  1  0
  4  6  1  0
  5  7  1  0
  5  8  2  0
  6  9  1  0
  7 10  2  0
  8 11  1  0
 10 11  1  0
  9 12  2  3
 11 13  1  0
 12 14  1  0
 13 15  2  0
 13 16  1  0
 12 17  1  0
 15 18  1  0
 16 19  2  0
 17 20  2  0
 17 21  1  0
 18 22  2  0
 19 22  1  0
 20 23  1  0
 21 24  2  0
 24 25  1  0
 23 26  2  0
 24 26  1  0
 25 27  1  0
 25 28  2  0
 27 29  1  0
 29 30  1  0
 30 31  1  0
 30 32  2  0
 32 33  1  0
 31 34  1  0
 33 34  2  0
 33 35  1  0
M  END
