mac-x0375-mac-x0394
     RDKit          3D

 19 20  0  0  0  0  0  0  0  0999 V2000
    1.9230   13.1350   -2.8120 O   0  0  0  0  0  0  0  0  0  0  0  0
    1.0730   12.2060   -3.2930 C   0  0  0  0  0  0  0  0  0  0  0  0
    0.9690   11.1020   -2.7910 O   0  0  0  0  0  0  0  0  0  0  0  0
    0.2310   12.6400   -4.4880 C   0  0  2  0  0  0  0  0  0  0  0  0
    0.5980   11.9250   -5.6980 O   0  0  0  0  0  0  0  0  0  0  0  0
   -0.0930   14.1250   -4.6730 C   0  0  0  0  0  0  0  0  0  0  0  0
   -0.4160   11.0170   -5.9540 C   0  0  0  0  0  0  0  0  0  0  0  0
   -1.4160   14.3290   -5.0380 C   0  0  0  0  0  0  0  0  0  0  0  0
    0.7410   15.2770   -4.5220 C   0  0  0  0  0  0  0  0  0  0  0  0
   -0.2180    9.9500   -6.8310 C   0  0  0  0  0  0  0  0  0  0  0  0
   -1.6500   11.1810   -5.3180 C   0  0  0  0  0  0  0  0  0  0  0  0
   -1.9370   15.5760   -5.2510 C   0  0  0  0  0  0  0  0  0  0  0  0
    0.1630   16.5590   -4.7500 C   0  0  0  0  0  0  0  0  0  0  0  0
    1.0240   18.0280   -4.6050 Cl  0  0  0  0  0  0  0  0  0  0  0  0
   -3.5790   15.6790   -5.7040 Cl  0  0  0  0  0  0  0  0  0  0  0  0
   -1.2610    9.0470   -7.0630 C   0  0  0  0  0  0  0  0  0  0  0  0
   -2.6850   10.2780   -5.5540 C   0  0  0  0  0  0  0  0  0  0  0  0
   -1.1630   16.7030   -5.1120 C   0  0  0  0  0  0  0  0  0  0  0  0
   -2.4910    9.2120   -6.4250 C   0  0  0  0  0  0  0  0  0  0  0  0
  1  2  1  0
  2  3  2  0
  2  4  1  0
  4  5  1  6
  4  6  1  0
  5  7  1  0
  6  8  2  0
  6  9  1  0
  7 10  2  0
  7 11  1  0
  8 12  1  0
  9 13  2  0
 13 14  1  0
 12 15  1  0
 10 16  1  0
 11 17  2  0
 12 18  2  0
 13 18  1  0
 16 19  2  0
 17 19  1  0
M  END
