mac-x0567-diamond-x0711_0_A
     RDKit          3D

 18 19  0  0  0  0  0  0  0  0999 V2000
    0.1890   14.5310    0.1440 N   0  0  0  0  0  0  0  0  0  0  0  0
   -1.1440   14.5760    0.4210 C   0  0  0  0  0  0  0  0  0  0  0  0
   -1.6490   14.4430    1.6800 N   0  0  0  0  0  0  0  0  0  0  0  0
   -2.2630   14.7470   -0.3710 C   0  0  0  0  0  0  0  0  0  0  0  0
   -2.9960   14.5110    1.7620 N   0  0  0  0  0  0  0  0  0  0  0  0
   -3.4350   14.6980    0.4940 C   0  0  0  0  0  0  0  0  0  0  0  0
   -2.2750   14.9380   -1.7680 C   0  0  0  0  0  0  0  0  0  0  0  0
   -1.0920   14.9970   -2.5540 N   0  0  0  0  0  0  0  0  0  0  0  0
   -4.7470   14.8400   -0.0830 C   0  0  0  0  0  0  0  0  0  0  0  0
   -3.5700   15.0830   -2.2760 C   0  0  0  0  0  0  0  0  0  0  0  0
   -0.2840   13.7100   -3.2340 S   0  0  0  0  0  0  0  0  0  0  0  0
   -6.0850   14.8020    0.5610 C   0  0  0  0  0  0  0  0  0  0  0  0
   -4.7380   15.0360   -1.4810 C   0  0  0  0  0  0  0  0  0  0  0  0
   -1.5870   12.8190   -4.0500 C   0  0  0  0  0  0  0  0  0  0  0  0
    0.5240   14.3260   -4.2650 O   0  0  0  0  0  0  0  0  0  0  0  0
    0.3070   12.9010   -2.1950 O   0  0  0  0  0  0  0  0  0  0  0  0
   -6.2080   14.8430    1.9150 N   0  0  0  0  0  0  0  0  0  0  0  0
   -7.0980   14.7350   -0.1340 O   0  0  0  0  0  0  0  0  0  0  0  0
  1  2  1  0
  2  3  1  0
  2  4  2  0
  3  5  1  0
  4  6  1  0
  5  6  2  0
  4  7  1  0
  7  8  1  0
  6  9  1  0
  7 10  2  0
 11  8  1  0
  9 12  1  0
  9 13  2  0
 10 13  1  0
 11 14  1  0
 11 15  2  0
 11 16  2  0
 12 17  1  0
 12 18  2  0
M  END
