mac-x0396-diamond-x0689_0_A
     RDKit          3D

 14 15  0  0  0  0  0  0  0  0999 V2000
   -4.1040   15.0210   -0.1130 C   0  0  0  0  0  0  0  0  0  0  0  0
   -3.2260   14.6460   -0.9690 N   0  0  0  0  0  0  0  0  0  0  0  0
   -2.0190   14.9560   -0.5070 N   0  0  0  0  0  0  0  0  0  0  0  0
   -5.5390   14.8890   -0.0950 C   0  0  0  0  0  0  0  0  0  0  0  0
   -6.2520   15.0760   -1.2570 C   0  0  0  0  0  0  0  0  0  0  0  0
   -6.2090   14.5740    1.0740 C   0  0  0  0  0  0  0  0  0  0  0  0
   -7.5970   14.9580   -1.3080 N   0  0  0  0  0  0  0  0  0  0  0  0
   -7.5860   14.4510    1.0530 C   0  0  0  0  0  0  0  0  0  0  0  0
   -2.0030   15.1900    0.9510 C   0  0  0  0  0  0  0  0  0  0  0  0
   -0.8790   14.3970   -1.0110 C   0  0  0  0  0  0  0  0  0  0  0  0
   -8.2300   14.6520   -0.1540 C   0  0  0  0  0  0  0  0  0  0  0  0
    0.0820   13.9520   -0.1990 C   0  0  0  0  0  0  0  0  0  0  0  0
   -1.4250   14.1680    1.7500 N   0  0  0  0  0  0  0  0  0  0  0  0
   -0.0670   14.0460    1.2960 C   0  0  0  0  0  0  0  0  0  0  0  0
  1  2  2  3
  2  3  1  0
  1  4  1  0
  4  5  2  0
  4  6  1  0
  5  7  1  0
  6  8  2  0
  3  9  1  0
  3 10  1  0
  7 11  2  0
  8 11  1  0
 10 12  2  0
  9 13  1  0
 12 14  1  0
 13 14  1  0
M  END
