mac-x0415-diamond-x0837_0_A
     RDKit          3D

 24 26  0  0  0  0  0  0  0  0999 V2000
    0.2520   10.8560   -2.8160 O   0  0  0  0  0  0  0  0  0  0  0  0
    0.6960   12.1570   -2.9910 C   0  0  0  0  0  0  0  0  0  0  0  0
    1.0400   12.7780   -1.9430 O   0  0  0  0  0  0  0  0  0  0  0  0
    0.7580   12.7590   -4.2840 C   0  0  0  0  0  0  0  0  0  0  0  0
    0.7190   14.1890   -4.4290 C   0  0  0  0  0  0  0  0  0  0  0  0
    1.8470   15.0530   -4.0800 C   0  0  0  0  0  0  0  0  0  0  0  0
   -0.2560   15.0300   -4.8440 C   0  0  0  0  0  0  0  0  0  0  0  0
    1.5130   16.3000   -4.3220 N   0  0  0  0  0  0  0  0  0  0  0  0
    0.2710   16.3740   -4.8550 C   0  0  2  0  0  0  0  0  0  0  0  0
   -1.6330   14.8170   -5.2660 C   0  0  0  0  0  0  0  0  0  0  0  0
   -0.6480   17.4610   -4.8810 C   0  0  0  0  0  0  0  0  0  0  0  0
   -2.4520   15.8770   -5.4190 C   0  0  0  0  0  0  0  0  0  0  0  0
   -3.7620   15.7380   -5.8140 O   0  0  0  0  0  0  0  0  0  0  0  0
   -1.9360   17.2120   -5.1600 C   0  0  0  0  0  0  0  0  0  0  0  0
   -4.5440   14.6040   -5.7060 C   0  0  0  0  0  0  0  0  0  0  0  0
   -4.9330   14.2400   -4.2790 C   0  0  0  0  0  0  0  0  0  0  0  0
   -3.4450   14.8350   -2.8660 I   0  0  0  0  0  0  0  0  0  0  0  0
   -4.3300   14.4840   -0.9480 C   0  0  1  0  0  0  0  0  0  0  0  0
   -3.5400   15.0030    0.1610 C   0  0  0  0  0  0  0  0  0  0  0  0
   -5.6710   15.1180   -0.9400 C   0  0  0  0  0  0  0  0  0  0  0  0
   -4.1030   15.1440    1.3270 C   0  0  0  0  0  0  0  0  0  0  0  0
   -6.3480   14.7940    0.3500 C   0  0  0  0  0  0  0  0  0  0  0  0
   -7.5590   14.5600    0.4050 O   0  0  0  0  0  0  0  0  0  0  0  0
   -5.4780   14.7920    1.5170 N   0  0  0  0  0  0  0  0  0  0  0  0
  1  2  1  0
  2  3  2  0
  2  4  1  0
  4  5  1  0
  5  6  1  0
  5  7  2  0
  6  8  2  0
  7  9  1  0
  8  9  1  0
  7 10  1  0
  9 11  1  1
 10 12  2  0
 12 13  1  0
 11 14  2  0
 12 14  1  0
 13 15  1  0
 15 16  1  0
 16 17  1  0
 18 17  1  6
 18 19  1  0
 18 20  1  0
 19 21  2  0
 20 22  1  0
 22 23  2  0
 21 24  1  0
 22 24  1  0
M  END
