mac-x0439-diamond-x0844_0_A
     RDKit          3D

 22 24  0  0  0  0  0  0  0  0999 V2000
   -3.4180   15.8350   -5.0960 Cl  0  0  0  0  0  0  0  0  0  0  0  0
   -1.9120   16.6020   -5.2900 C   0  0  0  0  0  0  0  0  0  0  0  0
   -0.7670   15.8180   -4.8050 C   0  0  2  0  0  0  0  0  0  0  0  0
   -1.7570   17.8030   -5.8880 C   0  0  0  0  0  0  0  0  0  0  0  0
   -0.6010   14.9850   -3.5570 C   0  0  0  0  0  0  0  0  0  0  0  0
    0.5110   16.6030   -4.7550 C   0  0  0  0  0  0  0  0  0  0  0  0
   -0.4260   18.3660   -6.0980 C   0  0  0  0  0  0  0  0  0  0  0  0
   -1.6960   14.1370   -2.8920 C   0  0  0  0  0  0  0  0  0  0  0  0
    0.7180   15.1100   -3.2420 C   0  0  0  0  0  0  0  0  0  0  0  0
    1.3840   16.0970   -3.9540 N   0  0  0  0  0  0  0  0  0  0  0  0
    0.6970   17.8140   -5.5870 C   0  0  0  0  0  0  0  0  0  0  0  0
    1.4290   14.3470   -2.1870 C   0  0  0  0  0  0  0  0  0  0  0  0
   -2.9890   14.8420   -2.8160 O   0  0  0  0  0  0  0  0  0  0  0  0
    2.7770   14.4240   -2.3250 O   0  0  0  0  0  0  0  0  0  0  0  0
    0.9210   13.6810   -1.3110 O   0  0  0  0  0  0  0  0  0  0  0  0
   -3.6850   15.2210   -1.5550 C   0  0  2  0  0  0  0  0  0  0  0  0
   -3.1160   14.7210   -0.2540 C   0  0  0  0  0  0  0  0  0  0  0  0
   -5.1780   14.8430   -1.6760 C   0  0  0  0  0  0  0  0  0  0  0  0
   -3.8950   14.5840    0.8310 C   0  0  0  0  0  0  0  0  0  0  0  0
   -5.9610   14.9030   -0.3710 C   0  0  0  0  0  0  0  0  0  0  0  0
   -7.1940   14.9590   -0.3330 O   0  0  0  0  0  0  0  0  0  0  0  0
   -5.2260   14.8830    0.7880 N   0  0  0  0  0  0  0  0  0  0  0  0
  1  2  1  0
  3  2  1  1
  2  4  2  0
  3  5  1  0
  3  6  1  0
  4  7  1  0
  5  8  1  0
  5  9  2  0
  6 10  2  0
  9 10  1  0
  6 11  1  0
  7 11  2  0
  9 12  1  0
  8 13  1  0
 12 14  1  0
 12 15  2  0
 16 13  1  6
 16 17  1  0
 16 18  1  0
 17 19  2  0
 18 20  1  0
 20 21  2  0
 19 22  1  0
 20 22  1  0
M  END
