mac-x0397-diamond-x0766_0_A
     RDKit          3D

 18 20  0  0  0  0  0  0  0  0999 V2000
   -5.7660   14.8560   -2.8730 Cl  0  0  0  0  0  0  0  0  0  0  0  0
   -4.1750   14.5850   -2.2500 C   0  0  0  0  0  0  0  0  0  0  0  0
   -4.1500   14.1640   -0.8120 C   0  0  2  0  0  0  0  0  0  0  0  0
   -3.0190   14.7260   -3.0150 C   0  0  0  0  0  0  0  0  0  0  0  0
   -5.3000   14.5580    0.0650 N   0  0  0  0  0  0  0  0  0  0  0  0
   -2.8450   14.5270   -0.1900 C   0  0  0  0  0  0  0  0  0  0  0  0
   -1.5470   14.5140   -2.4730 C   0  0  1  0  0  0  0  0  0  0  0  0
   -4.8670   14.7870    1.2600 C   0  0  0  0  0  0  0  0  0  0  0  0
   -3.1210   14.6740    1.5270 S   0  0  0  0  0  0  0  0  0  0  0  0
   -1.6570   14.6880   -0.9040 C   0  0  0  0  0  0  0  0  0  0  0  0
   -0.5090   13.3980   -2.9130 C   0  0  1  0  0  0  0  0  0  0  0  0
   -0.5830   15.5480   -3.2620 C   0  0  0  0  0  0  0  0  0  0  0  0
   -5.6810   15.1050    2.3060 N   0  0  0  0  0  0  0  0  0  0  0  0
   -0.2510   12.1370   -2.1720 C   0  0  0  0  0  0  0  0  0  0  0  0
   -0.1970   13.4730   -4.3890 C   0  0  0  0  0  0  0  0  0  0  0  0
    0.3380   14.8740   -4.3240 C   0  0  0  0  0  0  0  0  0  0  0  0
    0.4330   12.2030   -1.1790 O   0  0  0  0  0  0  0  0  0  0  0  0
   -0.7480   10.9840   -2.6450 O   0  0  0  0  0  0  0  0  0  0  0  0
  1  2  1  0
  2  3  1  0
  2  4  2  0
  3  5  1  1
  3  6  1  0
  7  4  1  6
  5  8  2  0
  6  9  1  0
  8  9  1  0
  6 10  2  0
  7 10  1  0
  7 11  1  0
  7 12  1  0
  8 13  1  0
 11 14  1  6
 11 15  1  0
 12 16  1  0
 15 16  1  0
 14 17  2  0
 14 18  1  0
M  END
