mac-x0161-mac-x0379
     RDKit          3D

 20 22  0  0  0  0  0  0  0  0999 V2000
   -4.3430   15.5500    1.3060 N   0  0  0  0  0  0  0  0  0  0  0  0
   -3.7350   14.8770    0.1760 C   0  0  2  0  0  0  0  0  0  0  0  0
   -2.2400   14.5320    0.3820 C   0  0  1  0  0  0  0  0  0  0  0  0
   -3.9540   15.7550   -0.9670 N   0  0  0  0  0  0  0  0  0  0  0  0
   -3.3110   15.3230   -2.2120 C   0  0  0  0  0  0  0  0  0  0  0  0
   -1.4450   15.2470   -0.6770 C   0  0  2  0  0  0  0  0  0  0  0  0
   -1.4670   14.9460    1.5410 N   0  0  0  0  0  0  0  0  0  0  0  0
   -1.9160   14.9330   -1.9910 N   0  0  0  0  0  0  0  0  0  0  0  0
   -0.0670   14.8880   -0.3680 N   0  0  0  0  0  0  0  0  0  0  0  0
   -0.1250   14.6110    1.0760 C   0  0  0  0  0  0  0  0  0  0  0  0
   -1.0350   14.7940   -3.1240 C   0  0  0  0  0  0  0  0  0  0  0  0
   -1.5370   15.4480   -4.2590 O   0  0  0  0  0  0  0  0  0  0  0  0
    0.1990   15.4230   -2.8520 O   0  0  0  0  0  0  0  0  0  0  0  0
   -0.7420   13.3950   -3.5350 C   0  0  0  0  0  0  0  0  0  0  0  0
   -1.1560   12.6050   -4.5810 C   0  0  0  0  0  0  0  0  0  0  0  0
    0.1110   12.6730   -2.7530 O   0  0  0  0  0  0  0  0  0  0  0  0
    0.2600   11.4040   -3.2770 N   0  0  0  0  0  0  0  0  0  0  0  0
   -0.5090   11.3880   -4.3650 C   0  0  0  0  0  0  0  0  0  0  0  0
   -0.6240   10.2940   -5.1470 O   0  0  0  0  0  0  0  0  0  0  0  0
   -1.7550   10.3100   -6.0080 C   0  0  0  0  0  0  0  0  0  0  0  0
  2  1  1  1
  2  3  1  0
  2  4  1  0
  4  5  1  0
  3  6  1  0
  3  7  1  1
  5  8  1  0
  6  8  1  0
  6  9  1  6
  7 10  1  0
  9 10  1  0
  8 11  1  0
 11 12  1  0
 11 13  1  0
 11 14  1  0
 14 15  2  0
 14 16  1  0
 16 17  1  0
 15 18  1  0
 17 18  2  0
 18 19  1  0
 19 20  1  0
M  END
