mac-x0131-diamond-x0969_0_A
     RDKit          3D

 27 31  0  0  0  0  0  0  0  0999 V2000
   -3.9760   14.8320   -4.2230 C   0  0  0  0  0  0  0  0  0  0  0  0
   -3.1250   14.8200   -3.0040 C   0  0  0  0  0  0  0  0  0  0  0  0
   -3.3960   14.8700   -1.6540 C   0  0  0  0  0  0  0  0  0  0  0  0
   -1.7310   14.7420   -3.0290 N   0  0  0  0  0  0  0  0  0  0  0  0
   -0.8410   14.6380   -4.1540 C   0  0  0  0  0  0  0  0  0  0  0  0
   -2.2210   14.8270   -0.8880 C   0  0  0  0  0  0  0  0  0  0  0  0
   -1.2090   14.7610   -1.7660 C   0  0  0  0  0  0  0  0  0  0  0  0
   -4.4120   14.9540   -0.7610 C   0  0  0  0  0  0  0  0  0  0  0  0
   -1.8940   14.8390    0.5050 C   0  0  0  0  0  0  0  0  0  0  0  0
    0.0760   14.7220   -1.4600 N   0  0  0  0  0  0  0  0  0  0  0  0
   -0.5330   13.1990   -4.0850 C   0  0  0  0  0  0  0  0  0  0  0  0
   -5.8000   14.7080   -0.5730 C   0  0  0  0  0  0  0  0  0  0  0  0
   -3.6830   15.3110    0.2770 C   0  0  0  0  0  0  0  0  0  0  0  0
   -2.7740   14.8860    1.5920 N   0  0  0  0  0  0  0  0  0  0  0  0
   -0.6160   14.8110    0.8480 N   0  0  0  0  0  0  0  0  0  0  0  0
    0.2680   14.7630   -0.1460 C   0  0  0  0  0  0  0  0  0  0  0  0
    0.4250   12.4450   -3.4390 C   0  0  0  0  0  0  0  0  0  0  0  0
   -1.3730   12.3910   -4.7860 O   0  0  0  0  0  0  0  0  0  0  0  0
   -6.8590   14.3680   -1.2760 N   0  0  0  0  0  0  0  0  0  0  0  0
   -6.1780   14.8610    0.7450 N   0  0  0  0  0  0  0  0  0  0  0  0
   -4.1450   15.4680    1.5850 C   0  0  0  0  0  0  0  0  0  0  0  0
   -0.9560   11.1210   -4.5850 C   0  0  0  0  0  0  0  0  0  0  0  0
    0.1310   11.1020   -3.7640 C   0  0  0  0  0  0  0  0  0  0  0  0
   -7.4820   14.5970    0.8110 C   0  0  0  0  0  0  0  0  0  0  0  0
   -7.9260   14.2990   -0.3850 N   0  0  0  0  0  0  0  0  0  0  0  0
   -5.3820   15.2230    1.7880 C   0  0  0  0  0  0  0  0  0  0  0  0
   -8.1200   14.6670    1.9980 N   0  0  0  0  0  0  0  0  0  0  0  0
  1  2  1  0
  2  3  2  0
  2  4  1  0
  4  5  1  0
  3  6  1  0
  4  7  1  0
  6  7  2  0
  3  8  1  0
  6  9  1  0
  7 10  1  0
  5 11  1  0
  8 12  1  0
  8 13  2  0
  9 14  1  0
  9 15  2  0
 10 16  2  0
 15 16  1  0
 11 17  2  0
 11 18  1  0
 12 19  2  0
 12 20  1  0
 13 21  1  0
 18 22  1  0
 17 23  1  0
 22 23  2  0
 20 24  1  0
 19 25  1  0
 24 25  2  0
 20 26  1  0
 21 26  2  0
 24 27  1  0
M  END
