mac-x0584-diamond-x0128_0_A
     RDKit          3D

 33 38  0  0  0  0  0  0  0  0999 V2000
   -7.7070   14.4960    2.3890 N   0  0  0  0  0  0  0  0  0  0  0  0
   -8.3740   15.4970    3.0130 C   0  0  0  0  0  0  0  0  0  0  0  0
   -9.2150   16.1900    2.4730 O   0  0  0  0  0  0  0  0  0  0  0  0
   -6.8330   14.5790    1.3120 C   0  0  0  0  0  0  0  0  0  0  0  0
   -7.9670   15.6050    4.3270 N   0  0  0  0  0  0  0  0  0  0  0  0
   -7.1440   14.5170   -0.0420 C   0  0  0  0  0  0  0  0  0  0  0  0
   -5.5370   14.7270    1.7010 C   0  0  0  0  0  0  0  0  0  0  0  0
   -4.5240   14.7780    0.8390 C   0  0  0  0  0  0  0  0  0  0  0  0
   -6.1100   14.5760   -0.9800 C   0  0  0  0  0  0  0  0  0  0  0  0
   -8.6730   16.3220    5.3020 C   0  0  0  0  0  0  0  0  0  0  0  0
   -3.3470   14.8930    1.3970 N   0  0  0  0  0  0  0  0  0  0  0  0
   -4.7870   14.6880   -0.5220 C   0  0  0  0  0  0  0  0  0  0  0  0
   -9.3320   17.5140    5.0540 C   0  0  0  0  0  0  0  0  0  0  0  0
   -8.7250   15.8090    6.5960 C   0  0  0  0  0  0  0  0  0  0  0  0
   -2.2920   14.9020    0.6560 C   0  0  0  0  0  0  0  0  0  0  0  0
   -3.6750   14.7020   -1.3240 C   0  0  0  0  0  0  0  0  0  0  0  0
  -10.0230   18.2040    5.9920 N   0  0  0  0  0  0  0  0  0  0  0  0
   -9.4280   16.5030    7.5820 C   0  0  0  0  0  0  0  0  0  0  0  0
   -1.1610   15.0110    1.3040 N   0  0  0  0  0  0  0  0  0  0  0  0
   -2.3990   14.7930   -0.7290 C   0  0  0  0  0  0  0  0  0  0  0  0
  -10.0540   17.6850    7.2300 C   0  0  0  0  0  0  0  0  0  0  0  0
   -0.0770   15.0040    0.5440 C   0  0  0  0  0  0  0  0  0  0  0  0
   -1.2000   14.7750   -1.4270 C   0  0  0  0  0  0  0  0  0  0  0  0
   -1.2340   14.6280   -2.8340 N   0  0  0  0  0  0  0  0  0  0  0  0
   -0.0250   14.8820   -0.7900 N   0  0  0  0  0  0  0  0  0  0  0  0
   -0.0140   14.8510   -3.6080 C   0  0  1  0  0  0  0  0  0  0  0  0
   -2.4380   15.1040   -3.5450 C   0  0  0  0  0  0  0  0  0  0  0  0
    0.5020   13.5210   -4.1460 C   0  0  0  0  0  0  0  0  0  0  0  0
   -0.4740   15.7450   -4.7650 C   0  0  0  0  0  0  0  0  0  0  0  0
   -1.9490   15.4140   -4.9550 C   0  0  0  0  0  0  0  0  0  0  0  0
    1.8500   12.9610   -3.6190 C   0  0  0  0  0  0  0  0  0  0  0  0
   -0.1090   12.1660   -3.6820 C   0  0  0  0  0  0  0  0  0  0  0  0
    1.2750   11.5980   -4.0240 C   0  0  0  0  0  0  0  0  0  0  0  0
  1  2  1  0
  2  3  2  0
  1  4  1  0
  2  5  1  0
  4  6  2  0
  4  7  1  0
  7  8  2  0
  6  9  1  0
  5 10  1  0
  8 11  1  0
  8 12  1  0
  9 12  2  0
 10 13  2  0
 10 14  1  0
 11 15  2  0
 12 16  1  0
 13 17  1  0
 14 18  2  0
 15 19  1  0
 15 20  1  0
 16 20  2  0
 17 21  2  0
 18 21  1  0
 19 22  2  0
 20 23  1  0
 23 24  1  0
 22 25  1  0
 23 25  2  0
 24 26  1  0
 24 27  1  0
 26 28  1  6
 26 29  1  0
 27 30  1  0
 29 30  1  0
 28 31  1  0
 28 32  1  0
 31 33  1  0
 32 33  1  0
M  END
