mac-x0373-mac-x0178
     RDKit          3D

 27 29  0  0  0  0  0  0  0  0999 V2000
    0.5910   12.6120   -3.2330 O   0  0  0  0  0  0  0  0  0  0  0  0
    0.1400   13.6320   -2.2750 S   0  0  0  0  0  0  0  0  0  0  0  0
    1.4720   13.2980   -1.4250 O   0  0  0  0  0  0  0  0  0  0  0  0
   -1.4480   13.3500   -2.2110 C   0  0  0  0  0  0  0  0  0  0  0  0
    0.0650   14.5830   -1.1820 O   0  0  0  0  0  0  0  0  0  0  0  0
   -0.0430   14.8710   -3.3620 C   0  0  0  0  0  0  0  0  0  0  0  0
   -1.9240   12.3330   -3.1450 C   0  0  0  0  0  0  0  0  0  0  0  0
   -2.4050   14.1210   -1.3570 C   0  0  0  0  0  0  0  0  0  0  0  0
    0.8570   15.7920   -3.7340 C   0  0  0  0  0  0  0  0  0  0  0  0
   -1.3040   14.8780   -3.8430 C   0  0  0  0  0  0  0  0  0  0  0  0
   -1.3160   12.3490   -4.3990 C   0  0  0  0  0  0  0  0  0  0  0  0
   -2.8780   11.4200   -2.8900 C   0  0  0  0  0  0  0  0  0  0  0  0
   -3.4450   14.7910   -1.9630 C   0  0  0  0  0  0  0  0  0  0  0  0
   -2.3090   14.2230    0.0060 C   0  0  0  0  0  0  0  0  0  0  0  0
    0.4060   16.7750   -4.6080 C   0  0  0  0  0  0  0  0  0  0  0  0
   -1.7410   15.8020   -4.6730 C   0  0  0  0  0  0  0  0  0  0  0  0
   -1.6780   11.4540   -5.3560 C   0  0  0  0  0  0  0  0  0  0  0  0
   -3.2640   10.4990   -3.8470 C   0  0  0  0  0  0  0  0  0  0  0  0
   -4.3820   15.5460   -1.2590 C   0  0  0  0  0  0  0  0  0  0  0  0
   -3.2300   14.9680    0.7310 C   0  0  0  0  0  0  0  0  0  0  0  0
   -0.9060   16.7740   -5.0560 C   0  0  0  0  0  0  0  0  0  0  0  0
   -1.5100   17.9900   -6.0690 S   0  0  0  0  0  0  0  0  0  0  0  0
   -2.6540   10.5240   -5.0870 C   0  0  0  0  0  0  0  0  0  0  0  0
   -4.2580   15.6230    0.1010 C   0  0  0  0  0  0  0  0  0  0  0  0
   -0.2290   18.7180   -6.9440 N   0  0  0  0  0  0  0  0  0  0  0  0
   -2.5400   17.4230   -6.9760 O   0  0  0  0  0  0  0  0  0  0  0  0
   -2.2040   18.9370   -5.1230 O   0  0  0  0  0  0  0  0  0  0  0  0
  1  2  1  0
  2  3  2  0
  2  4  1  0
  2  5  1  0
  2  6  1  0
  4  7  1  0
  4  8  1  0
  6  9  2  0
  6 10  1  0
  7 11  2  0
  7 12  1  0
  8 13  2  0
  8 14  1  0
  9 15  1  0
 10 16  2  0
 11 17  1  0
 12 18  2  0
 13 19  1  0
 14 20  2  0
 15 21  2  0
 16 21  1  0
 21 22  1  0
 17 23  2  0
 18 23  1  0
 19 24  2  0
 20 24  1  0
 22 25  1  0
 22 26  2  0
 22 27  2  0
M  END
