mac-x0380-mac-x0305
     RDKit          3D

 17 19  0  0  0  0  0  0  0  0999 V2000
   -1.2350   14.6200   -2.3510 N   0  0  0  0  0  0  0  0  0  0  0  0
   -2.5040   14.8760   -2.8280 C   0  0  0  0  0  0  0  0  0  0  0  0
   -2.8510   15.0730   -3.9800 O   0  0  0  0  0  0  0  0  0  0  0  0
   -1.3590   14.5280   -1.0640 C   0  0  0  0  0  0  0  0  0  0  0  0
   -0.3140   14.2380   -0.2900 O   0  0  0  0  0  0  0  0  0  0  0  0
   -3.4490   14.8990   -1.7180 C   0  0  0  0  0  0  0  0  0  0  0  0
   -2.7310   14.7080   -0.5430 C   0  0  0  0  0  0  0  0  0  0  0  0
   -4.8040   15.0740   -1.7650 C   0  0  0  0  0  0  0  0  0  0  0  0
   -3.3920   14.7220    0.6960 C   0  0  0  0  0  0  0  0  0  0  0  0
   -2.6800   14.5530    1.8740 O   0  0  0  0  0  0  0  0  0  0  0  0
   -5.5030   15.0670   -0.5730 C   0  0  0  0  0  0  0  0  0  0  0  0
   -4.8300   14.9050    0.6690 C   0  0  0  0  0  0  0  0  0  0  0  0
   -5.6070   14.9180    1.8600 N   0  0  0  0  0  0  0  0  0  0  0  0
   -7.2690   15.2600   -0.6950 S   0  0  0  0  0  0  0  0  0  0  0  0
   -6.9630   14.6470    1.9450 C   0  0  0  0  0  0  0  0  0  0  0  0
   -7.6800   14.2000    0.7000 C   0  0  0  0  0  0  0  0  0  0  0  0
   -7.5740   14.7820    3.0130 O   0  0  0  0  0  0  0  0  0  0  0  0
  1  2  1  0
  2  3  2  0
  1  4  2  0
  4  5  1  0
  2  6  1  0
  4  7  1  0
  6  7  2  0
  6  8  1  0
  7  9  1  0
  9 10  1  0
  8 11  2  0
  9 12  2  0
 11 12  1  0
 12 13  1  0
 11 14  1  0
 13 15  1  0
 14 16  1  0
 15 16  1  0
 15 17  2  0
M  END
