mac-x0321-mac-x0282
     RDKit          3D

 15 16  0  0  0  0  0  0  0  0999 V2000
   -4.2160   15.7260    1.6580 Cl  0  0  0  0  0  0  0  0  0  0  0  0
   -4.2660   14.8960    0.0790 C   0  0  2  0  0  0  0  0  0  0  0  0
   -2.8570   14.8380   -0.6270 C   0  0  1  0  0  0  0  0  0  0  0  0
   -5.4180   15.4060   -0.7530 C   0  0  0  0  0  0  0  0  0  0  0  0
   -2.9830   15.0140   -2.1880 C   0  0  1  0  0  0  0  0  0  0  0  0
   -5.4560   15.2890   -2.0710 C   0  0  0  0  0  0  0  0  0  0  0  0
   -1.9190   15.9570   -0.2990 C   0  0  0  0  0  0  0  0  0  0  0  0
   -2.1170   13.5690   -0.1260 C   0  0  0  0  0  0  0  0  0  0  0  0
   -1.8500   14.4400   -3.0050 C   0  0  0  0  0  0  0  0  0  0  0  0
   -4.3340   14.6410   -2.8010 C   0  0  0  0  0  0  0  0  0  0  0  0
   -0.7500   15.8660    0.3510 C   0  0  0  0  0  0  0  0  0  0  0  0
   -1.3830   13.8080    1.1460 N   0  0  0  0  0  0  0  0  0  0  0  0
   -0.6930   14.3790   -2.3150 O   0  0  0  0  0  0  0  0  0  0  0  0
   -1.8850   14.0660   -4.1610 O   0  0  0  0  0  0  0  0  0  0  0  0
   -0.2270   14.5990    0.8630 C   0  0  0  0  0  0  0  0  0  0  0  0
  2  1  1  1
  2  3  1  0
  2  4  1  0
  3  5  1  0
  4  6  2  0
  3  7  1  1
  3  8  1  0
  5  9  1  6
  5 10  1  0
  6 10  1  0
  7 11  2  0
  8 12  1  0
  9 13  1  0
  9 14  2  0
 11 15  1  0
 12 15  1  0
M  END
