mac-x0116-mac-x0404
     RDKit          3D

 32 36  0  0  0  0  0  0  0  0999 V2000
   -5.9490   14.7260    1.7250 C   0  0  0  0  0  0  0  0  0  0  0  0
   -4.5330   15.0590    1.7670 N   0  0  0  0  0  0  0  0  0  0  0  0
   -3.8370   14.9760    0.5670 C   0  0  0  0  0  0  0  0  0  0  0  0
   -6.3360   13.2850    1.7130 C   0  0  0  0  0  0  0  0  0  0  0  0
   -6.2510   12.6230    0.5190 O   0  0  0  0  0  0  0  0  0  0  0  0
   -6.7940   12.4370    2.6930 C   0  0  0  0  0  0  0  0  0  0  0  0
   -7.0060   11.1930    2.0730 C   0  0  0  0  0  0  0  0  0  0  0  0
   -6.6600   11.3540    0.7550 C   0  0  0  0  0  0  0  0  0  0  0  0
   -4.4540   15.1540   -0.6320 N   0  0  0  0  0  0  0  0  0  0  0  0
   -2.4660   14.6970    0.5750 C   0  0  0  0  0  0  0  0  0  0  0  0
   -3.7140   15.0430   -1.7540 C   0  0  0  0  0  0  0  0  0  0  0  0
   -1.8340   14.6050   -0.6490 C   0  0  0  0  0  0  0  0  0  0  0  0
   -1.5890   14.4840    1.6140 N   0  0  0  0  0  0  0  0  0  0  0  0
   -2.3970   14.7650   -1.8590 N   0  0  0  0  0  0  0  0  0  0  0  0
   -0.5280   14.3140   -0.3450 N   0  0  0  0  0  0  0  0  0  0  0  0
   -0.4390   14.2590    1.0270 C   0  0  0  0  0  0  0  0  0  0  0  0
    0.5420   14.1030   -1.3090 C   0  0  0  0  0  0  0  0  0  0  0  0
    0.0140   13.2170   -2.3180 O   0  0  0  0  0  0  0  0  0  0  0  0
    0.7630   12.2430   -2.9060 C   0  0  0  0  0  0  0  0  0  0  0  0
    0.7870   11.0760   -2.5370 O   0  0  0  0  0  0  0  0  0  0  0  0
    1.5310   12.7810   -4.1080 C   0  0  0  0  0  0  0  0  0  0  0  0
    1.2830   14.1360   -4.4320 O   0  0  0  0  0  0  0  0  0  0  0  0
   -0.0110   14.5190   -4.7240 C   0  0  0  0  0  0  0  0  0  0  0  0
   -0.1840   15.8880   -5.0060 C   0  0  0  0  0  0  0  0  0  0  0  0
   -1.1170   13.6610   -4.7560 C   0  0  0  0  0  0  0  0  0  0  0  0
   -1.4590   16.3960   -5.3200 C   0  0  0  0  0  0  0  0  0  0  0  0
   -2.3810   14.1670   -5.0660 C   0  0  0  0  0  0  0  0  0  0  0  0
    0.8970   16.7610   -4.9830 C   0  0  0  0  0  0  0  0  0  0  0  0
   -2.5550   15.5260   -5.3460 C   0  0  0  0  0  0  0  0  0  0  0  0
   -1.6060   17.7590   -5.6070 C   0  0  0  0  0  0  0  0  0  0  0  0
    0.7520   18.1140   -5.2670 C   0  0  0  0  0  0  0  0  0  0  0  0
   -0.5080   18.6090   -5.5820 C   0  0  0  0  0  0  0  0  0  0  0  0
  1  2  1  0
  2  3  1  0
  1  4  1  0
  4  5  1  0
  4  6  2  0
  6  7  1  0
  5  8  1  0
  7  8  2  0
  3  9  2  0
  3 10  1  0
  9 11  1  0
 10 12  2  0
 10 13  1  0
 11 14  2  0
 12 14  1  0
 12 15  1  0
 13 16  2  0
 15 16  1  0
 15 17  1  0
 17 18  1  0
 18 19  1  0
 19 20  2  0
 19 21  1  0
 21 22  1  0
 22 23  1  0
 23 24  1  0
 23 25  2  0
 24 26  2  0
 25 27  1  0
 24 28  1  0
 26 29  1  0
 27 29  2  0
 26 30  1  0
 28 31  2  0
 30 32  2  0
 31 32  1  0
M  END
