mac-x0263-mac-x0587
     RDKit          3D

 24 25  0  0  0  0  0  0  0  0999 V2000
  -11.1880   14.3040    2.2700 O   0  0  0  0  0  0  0  0  0  0  0  0
  -10.5560   15.4360    2.6460 C   0  0  0  0  0  0  0  0  0  0  0  0
  -11.0500   16.1940    3.4640 O   0  0  0  0  0  0  0  0  0  0  0  0
   -9.2220   15.6660    1.9640 C   0  0  0  0  0  0  0  0  0  0  0  0
   -8.6520   14.4270    1.2690 C   0  0  0  0  0  0  0  0  0  0  0  0
   -7.2660   14.6480    0.6930 C   0  0  0  0  0  0  0  0  0  0  0  0
   -7.0950   14.7580   -0.6920 N   0  0  0  0  0  0  0  0  0  0  0  0
   -6.1640   14.7460    1.3940 N   0  0  0  0  0  0  0  0  0  0  0  0
   -5.8010   14.9200   -0.8480 C   0  0  0  0  0  0  0  0  0  0  0  0
   -5.1640   14.9170    0.4620 C   0  0  0  0  0  0  0  0  0  0  0  0
   -4.9690   15.0620   -2.0660 C   0  0  0  0  0  0  0  0  0  0  0  0
   -3.8410   15.0530    0.6120 C   0  0  0  0  0  0  0  0  0  0  0  0
   -3.6090   15.1770   -1.9410 C   0  0  0  0  0  0  0  0  0  0  0  0
   -2.9670   15.1940   -0.5970 C   0  0  0  0  0  0  0  0  0  0  0  0
   -2.7710   15.2550   -3.2260 C   0  0  0  0  0  0  0  0  0  0  0  0
   -1.7380   15.2970   -0.4960 O   0  0  0  0  0  0  0  0  0  0  0  0
   -1.2330   14.9830   -3.2110 C   0  0  2  0  0  0  0  0  0  0  0  0
   -3.3530   15.5080   -4.2730 O   0  0  0  0  0  0  0  0  0  0  0  0
   -0.4910   16.2990   -3.4730 C   0  0  0  0  0  0  0  0  0  0  0  0
   -0.6540   13.8390   -4.5430 S   0  0  0  0  0  0  0  0  0  0  0  0
   -0.8480   12.1740   -3.8140 C   0  0  0  0  0  0  0  0  0  0  0  0
    0.3440   11.6490   -3.0440 C   0  0  0  0  0  0  0  0  0  0  0  0
    0.5790   10.4870   -2.7660 O   0  0  0  0  0  0  0  0  0  0  0  0
    1.1950   12.6200   -2.6400 O   0  0  0  0  0  0  0  0  0  0  0  0
  1  2  1  0
  2  3  2  0
  2  4  1  0
  4  5  1  0
  5  6  1  0
  6  7  1  0
  6  8  2  0
  7  9  2  0
  8 10  1  0
  9 10  1  0
  9 11  1  0
 10 12  2  0
 11 13  2  0
 12 14  1  0
 13 14  1  0
 13 15  1  0
 14 16  2  0
 15 17  1  0
 15 18  2  0
 17 19  1  6
 17 20  1  0
 20 21  1  0
 21 22  1  0
 22 23  2  0
 22 24  1  0
M  END
