mac-x0394-mac-x0590
     RDKit          3D

 29 32  0  0  0  0  0  0  0  0999 V2000
    1.1100   18.4090   -5.1960 Cl  0  0  0  0  0  0  0  0  0  0  0  0
    0.1390   17.0340   -5.0130 C   0  0  0  0  0  0  0  0  0  0  0  0
   -1.1570   17.1080   -5.4970 C   0  0  0  0  0  0  0  0  0  0  0  0
    0.6400   15.8770   -4.4000 C   0  0  0  0  0  0  0  0  0  0  0  0
   -0.2080   14.7640   -4.2830 C   0  0  0  0  0  0  0  0  0  0  0  0
   -1.9570   15.9980   -5.3720 C   0  0  0  0  0  0  0  0  0  0  0  0
   -3.5660   15.9410   -5.9470 Cl  0  0  0  0  0  0  0  0  0  0  0  0
    0.0610   13.4090   -3.6820 C   0  0  1  0  0  0  0  0  0  0  0  0
   -1.4890   14.8720   -4.7850 C   0  0  0  0  0  0  0  0  0  0  0  0
    0.4590   13.2050   -2.2190 C   0  0  0  0  0  0  0  0  0  0  0  0
   -1.2760   12.6050   -3.7170 C   0  0  0  0  0  0  0  0  0  0  0  0
    1.2710   12.7870   -4.3090 C   0  0  1  0  0  0  0  0  0  0  0  0
    0.0680   11.9870   -1.7390 O   0  0  0  0  0  0  0  0  0  0  0  0
    1.0770   13.9530   -1.5020 O   0  0  0  0  0  0  0  0  0  0  0  0
   -2.4410   13.2410   -2.8850 C   0  0  0  0  0  0  0  0  0  0  0  0
    1.7660   11.6680   -3.4860 C   0  0  0  0  0  0  0  0  0  0  0  0
    1.4370   12.2500   -5.6790 C   0  0  0  0  0  0  0  0  0  0  0  0
   -2.1940   14.4680   -2.1070 N   0  0  0  0  0  0  0  0  0  0  0  0
    2.8820   11.8560   -5.4460 C   0  0  0  0  0  0  0  0  0  0  0  0
    3.0230   11.4330   -4.0780 O   0  0  0  0  0  0  0  0  0  0  0  0
   -3.3180   15.3960   -2.2260 C   0  0  0  0  0  0  0  0  0  0  0  0
   -1.7730   14.3550   -0.7160 C   0  0  2  0  0  0  0  0  0  0  0  0
   -4.3100   15.1750   -1.1830 N   0  0  0  0  0  0  0  0  0  0  0  0
   -2.2910   15.4170    0.2450 C   0  0  1  0  0  0  0  0  0  0  0  0
   -0.3560   14.4620   -0.4020 N   0  0  0  0  0  0  0  0  0  0  0  0
   -3.8300   15.5390    0.1290 C   0  0  2  0  0  0  0  0  0  0  0  0
   -1.6690   14.9700    1.4930 N   0  0  0  0  0  0  0  0  0  0  0  0
   -0.3400   14.5280    1.0590 C   0  0  0  0  0  0  0  0  0  0  0  0
   -4.6150   14.7600    1.0600 N   0  0  0  0  0  0  0  0  0  0  0  0
  1  2  1  0
  2  3  2  0
  2  4  1  0
  4  5  2  0
  3  6  1  0
  6  7  1  0
  5  8  1  0
  5  9  1  0
  6  9  2  0
  8 10  1  0
  8 11  1  1
  8 12  1  0
 10 13  1  0
 10 14  2  0
 11 15  1  0
 12 16  1  1
 12 17  1  0
 15 18  1  0
 17 19  1  0
 16 20  1  0
 19 20  1  0
 18 21  1  0
 18 22  1  0
 21 23  1  0
 22 24  1  0
 22 25  1  6
 23 26  1  0
 24 26  1  0
 24 27  1  1
 25 28  1  0
 27 28  1  0
 26 29  1  1
M  END
