mac-x0142-mac-x0394
     RDKit          3D

 23 26  0  0  0  0  0  0  0  0999 V2000
    0.6510   17.0670   -3.9380 Cl  0  0  0  0  0  0  0  0  0  0  0  0
   -0.0570   15.4170   -3.9970 C   0  0  1  0  0  0  0  0  0  0  0  0
    0.7940   14.1930   -3.8530 C   0  0  0  0  0  0  0  0  0  0  0  0
   -1.2800   15.1410   -3.1800 N   0  0  0  0  0  0  0  0  0  0  0  0
    2.2370   14.0840   -4.3050 C   0  0  0  0  0  0  0  0  0  0  0  0
    1.9250   13.9690   -2.8490 C   0  0  0  0  0  0  0  0  0  0  0  0
   -0.1800   13.0660   -3.9450 C   0  0  2  0  0  0  0  0  0  0  0  0
   -2.2250   14.4060   -4.0580 C   0  0  1  0  0  0  0  0  0  0  0  0
   -1.3240   14.9870   -1.7400 C   0  0  0  0  0  0  0  0  0  0  0  0
   -3.0750   15.4700   -5.2150 Cl  0  0  0  0  0  0  0  0  0  0  0  0
    0.5450   11.7830   -4.0480 C   0  0  0  0  0  0  0  0  0  0  0  0
   -1.4050   13.3590   -4.8260 C   0  0  0  0  0  0  0  0  0  0  0  0
   -0.2090   14.8310   -0.9190 N   0  0  0  0  0  0  0  0  0  0  0  0
   -2.4870   15.0300   -1.0470 C   0  0  0  0  0  0  0  0  0  0  0  0
    0.5210   11.3430   -2.6200 C   0  0  0  0  0  0  0  0  0  0  0  0
   -0.3070   14.7500    0.4620 C   0  0  0  0  0  0  0  0  0  0  0  0
   -2.5060   14.9340    0.4460 C   0  0  0  0  0  0  0  0  0  0  0  0
   -3.8630   15.1940   -1.3740 C   0  0  0  0  0  0  0  0  0  0  0  0
    0.2000   10.0590   -2.5150 O   0  0  0  0  0  0  0  0  0  0  0  0
    0.7330   12.0590   -1.6450 O   0  0  0  0  0  0  0  0  0  0  0  0
   -1.3790   14.7730    1.1920 N   0  0  0  0  0  0  0  0  0  0  0  0
   -3.7090   15.0570    0.9230 N   0  0  0  0  0  0  0  0  0  0  0  0
   -4.5070   15.2100   -0.1980 C   0  0  0  0  0  0  0  0  0  0  0  0
  2  1  1  1
  2  3  1  0
  2  4  1  0
  3  5  1  0
  3  6  1  0
  5  6  1  0
  3  7  1  0
  4  8  1  0
  4  9  1  0
  8 10  1  6
  7 11  1  6
  7 12  1  0
  8 12  1  0
  9 13  1  0
  9 14  2  0
 11 15  1  0
 13 16  1  0
 14 17  1  0
 14 18  1  0
 15 19  1  0
 15 20  2  0
 16 21  2  0
 17 21  1  0
 17 22  2  0
 18 23  2  0
 22 23  1  0
M  END
