mac-x0213-mac-x0567
     RDKit          3D

 23 26  0  0  0  0  0  0  0  0999 V2000
    0.0950   11.7750   -2.9040 O   0  0  0  0  0  0  0  0  0  0  0  0
    0.2260   13.1110   -3.0960 C   0  0  0  0  0  0  0  0  0  0  0  0
    0.5470   13.9650   -2.2320 N   0  0  0  0  0  0  0  0  0  0  0  0
   -0.0230   13.5900   -4.4770 C   0  0  0  0  0  0  0  0  0  0  0  0
    0.8210   13.5550   -0.9250 C   0  0  0  0  0  0  0  0  0  0  0  0
   -1.4650   14.1160   -4.6000 C   0  0  0  0  0  0  0  0  0  0  0  0
    0.9550   14.7510   -4.7460 C   0  0  0  0  0  0  0  0  0  0  0  0
    0.2710   14.3370    0.1470 N   0  0  0  0  0  0  0  0  0  0  0  0
   -1.2850   15.5690   -4.9140 C   0  0  0  0  0  0  0  0  0  0  0  0
    0.0630   15.9220   -4.9890 C   0  0  0  0  0  0  0  0  0  0  0  0
   -2.2690   16.5190   -5.1260 C   0  0  0  0  0  0  0  0  0  0  0  0
    0.4560   17.2150   -5.2680 C   0  0  0  0  0  0  0  0  0  0  0  0
   -1.0440   14.5360    0.4420 C   0  0  0  0  0  0  0  0  0  0  0  0
   -1.8760   17.8290   -5.4140 C   0  0  0  0  0  0  0  0  0  0  0  0
   -0.5250   18.1720   -5.4820 C   0  0  0  0  0  0  0  0  0  0  0  0
   -1.5290   14.5370    1.7100 N   0  0  0  0  0  0  0  0  0  0  0  0
   -2.1580   14.7800   -0.3280 C   0  0  0  0  0  0  0  0  0  0  0  0
   -2.8470   14.7710    1.8250 N   0  0  0  0  0  0  0  0  0  0  0  0
   -3.2740   14.9370    0.5720 C   0  0  0  0  0  0  0  0  0  0  0  0
   -2.2040   14.8720   -1.7140 C   0  0  0  0  0  0  0  0  0  0  0  0
   -4.5600   15.2190    0.0900 C   0  0  0  0  0  0  0  0  0  0  0  0
   -3.5080   15.1560   -2.1750 C   0  0  0  0  0  0  0  0  0  0  0  0
   -4.6360   15.3260   -1.3170 C   0  0  0  0  0  0  0  0  0  0  0  0
  1  2  1  0
  2  3  2  3
  2  4  1  0
  3  5  1  0
  4  6  1  0
  4  7  1  0
  5  8  1  0
  6  9  1  0
  7 10  1  0
  9 10  2  0
  9 11  1  0
 10 12  1  0
  8 13  1  0
 11 14  2  0
 12 15  2  0
 14 15  1  0
 13 16  1  0
 13 17  2  0
 16 18  1  0
 17 19  1  0
 18 19  2  0
 17 20  1  0
 19 21  1  0
 20 22  2  0
 21 23  2  0
 22 23  1  0
M  END
