mac-x0509-mac-x0148
     RDKit          3D

 30 35  0  0  0  0  0  0  0  0999 V2000
   -2.1270    7.9530   -5.5280 O   0  0  0  0  0  0  0  0  0  0  0  0
   -1.4090    8.3290   -6.4350 C   0  0  0  0  0  0  0  0  0  0  0  0
   -1.6550    9.5650   -7.3220 C   0  0  1  0  0  0  0  0  0  0  0  0
   -0.2330    7.7230   -6.8620 N   0  0  0  0  0  0  0  0  0  0  0  0
   -1.7250   10.8290   -6.4440 C   0  0  0  0  0  0  0  0  0  0  0  0
   -0.5080    9.4840   -8.2910 C   0  0  0  0  0  0  0  0  0  0  0  0
    0.2850    8.3800   -7.9700 C   0  0  0  0  0  0  0  0  0  0  0  0
   -0.4280   11.6420   -6.3380 C   0  0  0  0  0  0  0  0  0  0  0  0
   -0.1800   10.2920   -9.3640 C   0  0  0  0  0  0  0  0  0  0  0  0
    1.4070    8.0430   -8.6910 C   0  0  0  0  0  0  0  0  0  0  0  0
    0.9570    9.9700  -10.1080 C   0  0  0  0  0  0  0  0  0  0  0  0
    1.7430    8.8520   -9.7740 C   0  0  0  0  0  0  0  0  0  0  0  0
   -0.4230   12.7460   -5.2400 C   0  0  1  0  0  0  0  0  0  0  0  0
   -1.8310   13.2460   -4.8820 C   0  0  2  0  0  0  0  0  0  0  0  0
    0.2360   12.3120   -3.9430 C   0  0  0  0  0  0  0  0  0  0  0  0
   -2.6120   13.9570   -5.9630 C   0  0  0  0  0  0  0  0  0  0  0  0
   -1.9570   14.2040   -3.6750 C   0  0  2  0  0  0  0  0  0  0  0  0
    0.3630   13.4170   -2.9080 C   0  0  0  0  0  0  0  0  0  0  0  0
   -2.6280   15.3580   -5.6750 O   0  0  0  0  0  0  0  0  0  0  0  0
   -2.2330   15.5640   -4.3060 C   0  0  0  0  0  0  0  0  0  0  0  0
   -0.8500   14.2300   -2.6610 N   0  0  0  0  0  0  0  0  0  0  0  0
   -1.1440   14.4860   -1.2990 C   0  0  0  0  0  0  0  0  0  0  0  0
   -0.1300   14.4430   -0.3530 N   0  0  0  0  0  0  0  0  0  0  0  0
   -2.3620   14.7790   -0.7860 C   0  0  0  0  0  0  0  0  0  0  0  0
   -0.3650   14.6230    0.9870 C   0  0  0  0  0  0  0  0  0  0  0  0
   -2.5160   15.0030    0.6770 C   0  0  0  0  0  0  0  0  0  0  0  0
   -3.6970   14.9660   -1.2640 C   0  0  0  0  0  0  0  0  0  0  0  0
   -1.4830   14.8910    1.5470 N   0  0  0  0  0  0  0  0  0  0  0  0
   -3.7300   15.3130    1.0140 N   0  0  0  0  0  0  0  0  0  0  0  0
   -4.4240   15.2790   -0.1810 C   0  0  0  0  0  0  0  0  0  0  0  0
  1  2  2  0
  2  3  1  0
  2  4  1  0
  3  5  1  1
  3  6  1  0
  4  7  1  0
  6  7  2  0
  5  8  1  0
  6  9  1  0
  7 10  1  0
  9 11  2  0
 10 12  2  0
 11 12  1  0
 13  8  1  6
 13 14  1  0
 13 15  1  0
 14 16  1  6
 14 17  1  0
 15 18  1  0
 16 19  1  0
 17 20  1  6
 19 20  1  0
 17 21  1  0
 18 21  1  0
 21 22  1  0
 22 23  1  0
 22 24  2  0
 23 25  1  0
 24 26  1  0
 24 27  1  0
 25 28  2  0
 26 28  1  0
 26 29  2  0
 27 30  2  0
 29 30  1  0
M  END
