mac-x0346-mac-x0124
     RDKit          3D

 21 23  0  0  0  0  0  0  0  0999 V2000
   -7.5740   14.7940    2.0920 O   0  0  0  0  0  0  0  0  0  0  0  0
   -7.9320   14.1860    0.8750 N   0  0  0  0  0  0  0  0  0  0  0  0
   -7.3570   14.7530   -0.2180 C   0  0  0  0  0  0  0  0  0  0  0  0
   -8.0100   15.1380   -1.1870 O   0  0  0  0  0  0  0  0  0  0  0  0
   -5.9060   14.8950   -0.2870 C   0  0  0  0  0  0  0  0  0  0  0  0
   -5.5140   15.3450   -1.5430 C   0  0  0  0  0  0  0  0  0  0  0  0
   -4.9420   14.6170    0.7340 C   0  0  0  0  0  0  0  0  0  0  0  0
   -6.3530   15.6140   -2.5620 O   0  0  0  0  0  0  0  0  0  0  0  0
   -4.2470   15.5450   -1.8610 C   0  0  0  0  0  0  0  0  0  0  0  0
   -3.6250   14.8220    0.3220 C   0  0  0  0  0  0  0  0  0  0  0  0
   -3.3530   15.2780   -0.9330 C   0  0  0  0  0  0  0  0  0  0  0  0
   -2.2870   14.7360    0.6690 C   0  0  0  0  0  0  0  0  0  0  0  0
   -1.8140   14.7470   -0.6200 C   0  0  0  0  0  0  0  0  0  0  0  0
   -1.5040   14.6660    1.7480 N   0  0  0  0  0  0  0  0  0  0  0  0
   -2.4730   14.7970   -1.8930 C   0  0  0  0  0  0  0  0  0  0  0  0
   -0.4980   14.7100   -0.8440 C   0  0  0  0  0  0  0  0  0  0  0  0
   -0.1880   14.6240    1.3800 C   0  0  0  0  0  0  0  0  0  0  0  0
   -0.3130   14.7520   -2.2180 N   0  0  0  0  0  0  0  0  0  0  0  0
   -1.5170   14.8010   -2.8610 C   0  0  0  0  0  0  0  0  0  0  0  0
    0.3880   14.6480    0.1330 N   0  0  0  0  0  0  0  0  0  0  0  0
    0.9620   14.7460   -2.8790 C   0  0  0  0  0  0  0  0  0  0  0  0
  1  2  1  0
  2  3  1  0
  3  4  2  0
  3  5  1  0
  5  6  2  0
  5  7  1  0
  6  8  1  0
  6  9  1  0
  7 10  2  0
  9 11  2  0
 10 11  1  0
 10 12  1  0
 12 13  1  0
 12 14  2  0
 13 15  1  0
 13 16  2  0
 14 17  1  0
 16 18  1  0
 15 19  2  0
 18 19  1  0
 16 20  1  0
 17 20  2  0
 18 21  1  0
M  END
