mac-x0567-diamond-x0900_0_A
     RDKit          3D

 11 12  0  0  0  0  0  0  0  0999 V2000
    0.1960   13.9560   -0.1410 N   0  0  0  0  0  0  0  0  0  0  0  0
   -1.0320   14.3220    0.3820 C   0  0  0  0  0  0  0  0  0  0  0  0
   -1.3360   14.3980    1.7230 N   0  0  0  0  0  0  0  0  0  0  0  0
   -2.1380   14.6620   -0.3180 C   0  0  0  0  0  0  0  0  0  0  0  0
   -2.4880   14.9060    1.8780 N   0  0  0  0  0  0  0  0  0  0  0  0
   -3.1190   14.9420    0.6800 C   0  0  0  0  0  0  0  0  0  0  0  0
   -2.4400   14.7760   -1.7160 C   0  0  0  0  0  0  0  0  0  0  0  0
   -4.3940   15.1770    0.3920 C   0  0  0  0  0  0  0  0  0  0  0  0
   -3.7200   15.0090   -2.0740 C   0  0  0  0  0  0  0  0  0  0  0  0
   -4.8010   15.1270   -1.0340 C   0  0  0  0  0  0  0  0  0  0  0  0
   -5.9980   15.1450   -1.3370 O   0  0  0  0  0  0  0  0  0  0  0  0
  1  2  1  0
  2  3  1  0
  2  4  2  0
  3  5  2  0
  4  6  1  0
  5  6  1  0
  4  7  1  0
  6  8  2  0
  7  9  2  0
  8 10  1  0
  9 10  1  0
 10 11  2  0
M  END
