mac-x0567-mac-x0381
     RDKit          3D

 26 29  0  0  0  0  0  0  0  0999 V2000
    0.0220   13.8750    0.2350 N   0  0  0  0  0  0  0  0  0  0  0  0
   -1.2360   14.2910    0.5520 C   0  0  0  0  0  0  0  0  0  0  0  0
   -1.7170   14.4580    1.7860 N   0  0  0  0  0  0  0  0  0  0  0  0
   -2.2060   14.6050   -0.4260 C   0  0  0  0  0  0  0  0  0  0  0  0
   -2.9990   14.8760    1.5910 N   0  0  0  0  0  0  0  0  0  0  0  0
   -3.3360   14.9850    0.2870 C   0  0  0  0  0  0  0  0  0  0  0  0
   -2.2660   14.6160   -1.8320 C   0  0  0  0  0  0  0  0  0  0  0  0
   -3.9280   15.1780    2.6760 C   0  0  0  0  0  0  0  0  0  0  0  0
   -4.5270   15.3790   -0.3230 C   0  0  0  0  0  0  0  0  0  0  0  0
   -3.4540   15.0090   -2.4570 C   0  0  0  0  0  0  0  0  0  0  0  0
   -5.1580   14.2880    2.7400 C   0  0  0  0  0  0  0  0  0  0  0  0
   -4.5670   15.3840   -1.7130 C   0  0  0  0  0  0  0  0  0  0  0  0
   -5.9460   14.5600    4.0190 C   0  0  0  0  0  0  0  0  0  0  0  0
   -7.1810   15.2130    3.6760 N   0  0  0  0  0  0  0  0  0  0  0  0
   -8.2680   14.5530    3.7360 C   0  0  0  0  0  0  0  0  0  0  0  0
   -8.2160   13.2460    4.1430 N   0  0  0  0  0  0  0  0  0  0  0  0
   -9.5750   15.1190    3.3640 C   0  0  0  0  0  0  0  0  0  0  0  0
   -9.6850   15.7770    2.1400 C   0  0  0  0  0  0  0  0  0  0  0  0
  -10.6660   14.9890    4.2160 C   0  0  0  0  0  0  0  0  0  0  0  0
  -10.9070   16.3180    1.7440 C   0  0  0  0  0  0  0  0  0  0  0  0
  -11.8950   15.5270    3.8320 C   0  0  0  0  0  0  0  0  0  0  0  0
  -12.0250   16.1910    2.5980 C   0  0  0  0  0  0  0  0  0  0  0  0
  -11.0410   16.9800    0.5130 C   0  0  0  0  0  0  0  0  0  0  0  0
  -13.2560   16.7280    2.2000 C   0  0  0  0  0  0  0  0  0  0  0  0
  -12.2750   17.5060    0.1300 C   0  0  0  0  0  0  0  0  0  0  0  0
  -13.3790   17.3800    0.9730 C   0  0  0  0  0  0  0  0  0  0  0  0
  1  2  1  0
  2  3  2  0
  2  4  1  0
  3  5  1  0
  4  6  2  0
  5  6  1  0
  4  7  1  0
  5  8  1  0
  6  9  1  0
  7 10  2  0
  8 11  1  0
  9 12  2  0
 10 12  1  0
 11 13  1  0
 13 14  1  0
 14 15  2  3
 15 16  1  0
 15 17  1  0
 17 18  2  0
 17 19  1  0
 18 20  1  0
 19 21  2  0
 20 22  2  0
 21 22  1  0
 20 23  1  0
 22 24  1  0
 23 25  2  0
 24 26  2  0
 25 26  1  0
M  END
