mac-x0576-mac-x0455
     RDKit          3D

 24 26  0  0  0  0  0  0  0  0999 V2000
    0.0860   14.2330    1.8110 N   0  0  0  0  0  0  0  0  0  0  0  0
   -0.8910   14.1400    0.7630 C   0  0  1  0  0  0  0  0  0  0  0  0
   -2.1140   14.3540    1.4930 N   0  0  0  0  0  0  0  0  0  0  0  0
   -0.6970   14.8670   -0.4580 N   0  0  0  0  0  0  0  0  0  0  0  0
   -1.7360   14.9740   -1.3500 C   0  0  0  0  0  0  0  0  0  0  0  0
   -3.0850   15.2000    0.8200 C   0  0  1  0  0  0  0  0  0  0  0  0
   -1.7880   14.7680   -2.6400 N   0  0  0  0  0  0  0  0  0  0  0  0
   -3.0520   15.4290   -0.7180 C   0  0  2  0  0  0  0  0  0  0  0  0
   -4.3290   14.6380    1.2650 N   0  0  0  0  0  0  0  0  0  0  0  0
   -0.6580   14.3670   -3.5110 C   0  0  1  0  0  0  0  0  0  0  0  0
   -5.5250   14.9330    0.6740 C   0  0  0  0  0  0  0  0  0  0  0  0
   -4.2530   14.9580   -1.4450 N   0  0  0  0  0  0  0  0  0  0  0  0
   -6.5760   14.7980    1.2890 O   0  0  0  0  0  0  0  0  0  0  0  0
   -0.3180   15.4240   -4.4180 O   0  0  0  0  0  0  0  0  0  0  0  0
    0.5560   14.1390   -2.5490 C   0  0  0  0  0  0  0  0  0  0  0  0
   -5.4650   15.4290   -0.7650 C   0  0  0  0  0  0  0  0  0  0  0  0
   -0.8390   13.0900   -4.3550 C   0  0  0  0  0  0  0  0  0  0  0  0
    1.2230   15.0470   -2.0850 O   0  0  0  0  0  0  0  0  0  0  0  0
    0.7940   12.8230   -2.2990 O   0  0  0  0  0  0  0  0  0  0  0  0
   -1.9470   12.2250   -4.2400 C   0  0  0  0  0  0  0  0  0  0  0  0
    0.1540   12.7530   -5.3000 C   0  0  0  0  0  0  0  0  0  0  0  0
   -2.0500   11.0770   -5.0370 C   0  0  0  0  0  0  0  0  0  0  0  0
    0.0500   11.6100   -6.0930 C   0  0  0  0  0  0  0  0  0  0  0  0
   -1.0540   10.7710   -5.9610 C   0  0  0  0  0  0  0  0  0  0  0  0
  2  1  1  1
  2  3  1  0
  2  4  1  0
  4  5  1  0
  6  3  1  6
  5  7  2  3
  5  8  1  0
  6  8  1  0
  6  9  1  0
 10  7  1  0
  9 11  1  0
  8 12  1  6
 11 13  2  0
 10 14  1  6
 10 15  1  0
 11 16  1  0
 12 16  1  0
 10 17  1  0
 15 18  2  0
 15 19  1  0
 17 20  2  0
 17 21  1  0
 20 22  1  0
 21 23  2  0
 22 24  2  0
 23 24  1  0
M  END
