mac-x0132-mac-x0397
     RDKit          3D

 13 14  0  0  0  0  0  0  0  0999 V2000
   -3.9370   14.8810    2.1050 N   0  0  0  0  0  0  0  0  0  0  0  0
   -5.0850   14.8870    1.2240 C   0  0  2  0  0  0  0  0  0  0  0  0
   -6.2980   14.3100    1.8560 N   0  0  0  0  0  0  0  0  0  0  0  0
   -4.6120   14.2200   -0.0600 C   0  0  1  0  0  0  0  0  0  0  0  0
   -6.7110   14.9740    3.0970 N   0  0  0  0  0  0  0  0  0  0  0  0
   -5.8430   13.9120   -0.9240 C   0  0  1  0  0  0  0  0  0  0  0  0
   -7.4340   14.1470    0.9570 C   0  0  0  0  0  0  0  0  0  0  0  0
   -3.5170   15.1140   -0.6640 C   0  0  0  0  0  0  0  0  0  0  0  0
   -7.0600   14.5450   -0.3790 N   0  0  0  0  0  0  0  0  0  0  0  0
   -5.7930   14.3720   -2.3840 C   0  0  1  0  0  0  0  0  0  0  0  0
   -3.4610   15.1880   -2.1520 C   0  0  0  0  0  0  0  0  0  0  0  0
   -6.9900   15.6660   -2.3110 Cl  0  0  0  0  0  0  0  0  0  0  0  0
   -4.4820   14.8610   -2.9210 C   0  0  0  0  0  0  0  0  0  0  0  0
  2  1  1  1
  2  3  1  0
  2  4  1  0
  3  5  1  0
  4  6  1  0
  3  7  1  0
  4  8  1  6
  6  9  1  1
  7  9  1  0
  6 10  1  0
  8 11  1  0
 10 12  1  1
 10 13  1  0
 11 13  2  0
M  END
