mac-x0565-mac-x0282
     RDKit          3D

 21 24  0  0  0  0  0  0  0  0999 V2000
   -6.3890   13.8470    0.0390 O   0  0  0  0  0  0  0  0  0  0  0  0
   -5.7430   14.9500   -0.5300 C   0  0  0  0  0  0  0  0  0  0  0  0
   -6.5750   16.0540   -0.6290 O   0  0  0  0  0  0  0  0  0  0  0  0
   -5.0370   14.8220   -1.8440 C   0  0  0  0  0  0  0  0  0  0  0  0
   -4.3540   15.0100   -0.0390 C   0  0  0  0  0  0  0  0  0  0  0  0
   -3.6510   14.7110   -1.6210 C   0  0  0  0  0  0  0  0  0  0  0  0
   -5.5110   14.8220   -3.1610 C   0  0  0  0  0  0  0  0  0  0  0  0
   -3.3580   15.4920   -0.8580 C   0  0  0  0  0  0  0  0  0  0  0  0
   -3.7670   14.5990    1.1440 N   0  0  0  0  0  0  0  0  0  0  0  0
   -2.7820   14.6230   -2.6550 C   0  0  0  0  0  0  0  0  0  0  0  0
   -4.5850   14.7260   -4.2300 C   0  0  0  0  0  0  0  0  0  0  0  0
   -2.1360   15.3240   -0.2300 C   0  0  0  0  0  0  0  0  0  0  0  0
   -2.4030   14.7710    1.0130 C   0  0  0  0  0  0  0  0  0  0  0  0
   -3.2270   14.6350   -3.9340 C   0  0  0  0  0  0  0  0  0  0  0  0
   -1.4270   14.5220   -2.5490 O   0  0  0  0  0  0  0  0  0  0  0  0
   -0.8150   15.5730   -0.5980 C   0  0  0  0  0  0  0  0  0  0  0  0
   -1.4960   14.4430    1.9230 N   0  0  0  0  0  0  0  0  0  0  0  0
   -2.1830   14.5520   -4.8060 O   0  0  0  0  0  0  0  0  0  0  0  0
   -1.0840   14.8290   -3.9060 C   0  0  0  0  0  0  0  0  0  0  0  0
    0.1560   15.2190    0.3110 C   0  0  0  0  0  0  0  0  0  0  0  0
   -0.2360   14.6730    1.5150 C   0  0  0  0  0  0  0  0  0  0  0  0
  2  1  1  0
  2  3  1  0
  2  4  1  0
  2  5  1  0
  4  6  2  0
  4  7  1  0
  5  8  2  0
  5  9  1  0
  6 10  1  0
  7 11  2  0
  8 12  1  0
  9 13  1  0
 12 13  2  0
 10 14  2  0
 11 14  1  0
 10 15  1  0
 12 16  1  0
 13 17  1  0
 14 18  1  0
 15 19  1  0
 18 19  1  0
 16 20  2  0
 17 21  2  0
 20 21  1  0
M  END
