mac-x0138-mac-x0137
     RDKit          3D

 18 20  0  0  0  0  0  0  0  0999 V2000
   -1.2080   15.4850   -3.8490 C   0  0  0  0  0  0  0  0  0  0  0  0
   -2.1410   15.8430   -2.7890 N   0  0  0  0  0  0  0  0  0  0  0  0
   -3.5200   15.3810   -2.9420 C   0  0  0  0  0  0  0  0  0  0  0  0
   -1.7850   15.4690   -1.4090 C   0  0  1  0  0  0  0  0  0  0  0  0
   -4.1280   15.7210   -1.6660 N   0  0  0  0  0  0  0  0  0  0  0  0
   -3.1280   15.1180   -0.7900 C   0  0  2  0  0  0  0  0  0  0  0  0
   -0.8740   14.2300   -1.1540 C   0  0  1  0  0  0  0  0  0  0  0  0
   -3.0680   15.3100    0.7170 C   0  0  1  0  0  0  0  0  0  0  0  0
   -0.7840   14.4440    0.4540 C   0  0  2  0  0  0  0  0  0  0  0  0
   -1.7500   13.0910   -1.7850 C   0  0  0  0  0  0  0  0  0  0  0  0
    0.4930   14.0860   -1.9410 C   0  0  0  0  0  0  0  0  0  0  0  0
   -4.3470   14.9590    1.3190 N   0  0  0  0  0  0  0  0  0  0  0  0
    0.0060   13.5590    1.2360 N   0  0  0  0  0  0  0  0  0  0  0  0
   -2.0510   14.4250    1.2220 N   0  0  0  0  0  0  0  0  0  0  0  0
   -1.7450   13.0010   -3.3190 C   0  0  2  0  0  0  0  0  0  0  0  0
    0.6750   12.7670   -2.7550 C   0  0  0  0  0  0  0  0  0  0  0  0
   -2.7260   12.1660   -3.7440 F   0  0  0  0  0  0  0  0  0  0  0  0
   -0.3970   12.5360   -3.8280 C   0  0  0  0  0  0  0  0  0  0  0  0
  1  2  1  0
  2  3  1  0
  4  2  1  6
  3  5  1  0
  4  6  1  0
  6  5  1  6
  4  7  1  0
  6  8  1  0
  7  9  1  0
  7 10  1  1
  7 11  1  0
  8 12  1  1
  9 13  1  1
  8 14  1  0
  9 14  1  0
 10 15  1  0
 11 16  1  0
 15 17  1  1
 15 18  1  0
 16 18  1  0
M  END
