mac-x0379-diamond-x0837_0_A
     RDKit          3D

 16 17  0  0  0  0  0  0  0  0999 V2000
   -3.8550   16.2000    1.3880 C   0  0  0  0  0  0  0  0  0  0  0  0
   -3.3680   15.7370    0.1020 C   0  0  0  0  0  0  0  0  0  0  0  0
   -4.1280   15.0540   -0.5420 N   0  0  0  0  0  0  0  0  0  0  0  0
   -1.8510   16.0030   -0.6350 S   0  0  0  0  0  0  0  0  0  0  0  0
   -3.6180   14.6470   -1.6810 C   0  0  0  0  0  0  0  0  0  0  0  0
   -2.3290   15.0620   -2.0060 C   0  0  0  0  0  0  0  0  0  0  0  0
   -1.3690   14.8950   -3.0790 C   0  0  0  0  0  0  0  0  0  0  0  0
   -4.7580   13.8640   -2.0640 C   0  0  1  0  0  0  0  0  0  0  0  0
   -1.5430   14.6500   -4.2650 O   0  0  0  0  0  0  0  0  0  0  0  0
   -0.0990   15.0570   -2.6420 O   0  0  0  0  0  0  0  0  0  0  0  0
   -4.5750   12.9220   -0.8720 C   0  0  0  0  0  0  0  0  0  0  0  0
   -6.0570   14.6950   -1.8990 C   0  0  0  0  0  0  0  0  0  0  0  0
   -5.0350   13.2380    0.3620 C   0  0  0  0  0  0  0  0  0  0  0  0
   -6.5790   14.7830   -0.4570 C   0  0  0  0  0  0  0  0  0  0  0  0
   -7.7150   15.1510   -0.1660 O   0  0  0  0  0  0  0  0  0  0  0  0
   -5.7080   14.3960    0.5260 N   0  0  0  0  0  0  0  0  0  0  0  0
  1  2  1  0
  2  3  2  0
  2  4  1  0
  3  5  1  0
  4  6  1  0
  5  6  2  0
  6  7  1  0
  8  5  1  1
  7  9  2  0
  7 10  1  0
  8 11  1  0
  8 12  1  0
 11 13  2  0
 12 14  1  0
 14 15  2  0
 13 16  1  0
 14 16  1  0
M  END
