mac-x0451-mac-x0277
     RDKit          3D

 24 26  0  0  0  0  0  0  0  0999 V2000
   -6.5640   15.0440    2.8710 N   0  0  0  0  0  0  0  0  0  0  0  0
   -5.8540   15.0330    1.7350 C   0  0  0  0  0  0  0  0  0  0  0  0
   -6.4430   14.8760    0.6050 N   0  0  0  0  0  0  0  0  0  0  0  0
   -4.1350   15.2330    1.6730 S   0  0  0  0  0  0  0  0  0  0  0  0
   -5.5210   14.9040   -0.3910 C   0  0  0  0  0  0  0  0  0  0  0  0
   -4.1880   15.0730   -0.0160 C   0  0  0  0  0  0  0  0  0  0  0  0
   -5.8420   14.7730   -1.7270 C   0  0  0  0  0  0  0  0  0  0  0  0
   -3.1570   15.0920   -0.9510 C   0  0  0  0  0  0  0  0  0  0  0  0
   -4.8440   14.7980   -2.6570 C   0  0  0  0  0  0  0  0  0  0  0  0
   -3.5310   14.9470   -2.2830 C   0  0  0  0  0  0  0  0  0  0  0  0
   -2.5980   14.9530   -3.2240 O   0  0  0  0  0  0  0  0  0  0  0  0
   -3.2480   14.7870   -4.4940 C   0  0  0  0  0  0  0  0  0  0  0  0
   -2.6320   15.7340   -5.4730 C   0  0  0  0  0  0  0  0  0  0  0  0
   -1.1920   15.7520   -5.1020 C   0  0  0  0  0  0  0  0  0  0  0  0
   -0.5770   14.5140   -4.8640 C   0  0  0  0  0  0  0  0  0  0  0  0
   -0.4540   16.9170   -4.9740 C   0  0  0  0  0  0  0  0  0  0  0  0
   -1.1680   18.4610   -5.2590 Cl  0  0  0  0  0  0  0  0  0  0  0  0
    0.7620   14.4200   -4.4960 C   0  0  0  0  0  0  0  0  0  0  0  0
    0.8830   16.8460   -4.6060 C   0  0  0  0  0  0  0  0  0  0  0  0
    1.3950   13.0680   -4.2410 C   0  0  0  0  0  0  0  0  0  0  0  0
    1.4900   15.6060   -4.3660 C   0  0  0  0  0  0  0  0  0  0  0  0
    1.0130   12.4670   -2.9040 C   0  0  0  0  0  0  0  0  0  0  0  0
    0.4920   11.2250   -3.0110 O   0  0  0  0  0  0  0  0  0  0  0  0
    1.1260   12.9640   -1.8030 O   0  0  0  0  0  0  0  0  0  0  0  0
  1  2  1  0
  2  3  2  0
  2  4  1  0
  3  5  1  0
  4  6  1  0
  5  6  2  0
  5  7  1  0
  6  8  1  0
  7  9  2  0
  8 10  2  0
  9 10  1  0
 10 11  1  0
 11 12  1  0
 12 13  1  0
 13 14  1  0
 14 15  2  0
 14 16  1  0
 16 17  1  0
 15 18  1  0
 16 19  2  0
 18 20  1  0
 18 21  2  0
 19 21  1  0
 20 22  1  0
 22 23  1  0
 22 24  2  0
M  END
