mac-x0380-diamond-x0421_0_A
     RDKit          3D

 14 15  0  0  0  0  0  0  0  0999 V2000
   -1.3560   14.7010   -2.5020 O   0  0  0  0  0  0  0  0  0  0  0  0
   -2.6510   14.9750   -2.7620 C   0  0  0  0  0  0  0  0  0  0  0  0
   -3.0800   15.1970   -3.8820 O   0  0  0  0  0  0  0  0  0  0  0  0
   -3.5170   14.9830   -1.5540 C   0  0  0  0  0  0  0  0  0  0  0  0
   -4.9080   15.0370   -1.6650 C   0  0  0  0  0  0  0  0  0  0  0  0
   -2.9250   14.9300   -0.2840 C   0  0  0  0  0  0  0  0  0  0  0  0
   -5.7020   15.0310   -0.5140 C   0  0  0  0  0  0  0  0  0  0  0  0
   -3.7170   14.9280    0.8660 C   0  0  0  0  0  0  0  0  0  0  0  0
   -5.1110   14.9760    0.7520 C   0  0  0  0  0  0  0  0  0  0  0  0
   -7.4670   15.0870   -0.7080 S   0  0  0  0  0  0  0  0  0  0  0  0
   -5.8740   14.9610    1.9330 N   0  0  0  0  0  0  0  0  0  0  0  0
   -7.8820   14.1220    0.7610 C   0  0  0  0  0  0  0  0  0  0  0  0
   -7.2050   14.6350    2.0050 C   0  0  0  0  0  0  0  0  0  0  0  0
   -7.8280   14.7700    3.0640 O   0  0  0  0  0  0  0  0  0  0  0  0
  1  2  1  0
  2  3  2  0
  2  4  1  0
  4  5  2  0
  4  6  1  0
  5  7  1  0
  6  8  2  0
  7  9  2  0
  8  9  1  0
  7 10  1  0
  9 11  1  0
 10 12  1  0
 11 13  1  0
 12 13  1  0
 13 14  2  0
M  END
