mac-x0124-mac-x0328
     RDKit          3D

 20 22  0  0  0  0  0  0  0  0999 V2000
   -1.1770   14.6040   -3.0210 C   0  0  0  0  0  0  0  0  0  0  0  0
   -2.1880   14.2640   -3.7560 C   0  0  0  0  0  0  0  0  0  0  0  0
   -2.1760   13.8960   -5.0700 O   0  0  0  0  0  0  0  0  0  0  0  0
   -1.7700   14.8630   -1.8700 N   0  0  0  0  0  0  0  0  0  0  0  0
   -3.0550   15.3610   -1.9620 C   0  0  0  0  0  0  0  0  0  0  0  0
   -1.4400   14.7240   -0.5570 C   0  0  0  0  0  0  0  0  0  0  0  0
   -3.4910   14.3390   -2.9880 C   0  0  0  0  0  0  0  0  0  0  0  0
   -3.5740   15.5350   -0.7440 C   0  0  0  0  0  0  0  0  0  0  0  0
   -2.5790   15.1300    0.1370 C   0  0  0  0  0  0  0  0  0  0  0  0
   -0.2910   14.2850   -0.0250 N   0  0  0  0  0  0  0  0  0  0  0  0
   -3.5920   13.8290   -1.6480 C   0  0  0  0  0  0  0  0  0  0  0  0
   -4.6370   14.9260   -3.5170 C   0  0  0  0  0  0  0  0  0  0  0  0
   -2.5600   15.0800    1.4640 C   0  0  0  0  0  0  0  0  0  0  0  0
   -0.4010   14.2870    1.3100 C   0  0  0  0  0  0  0  0  0  0  0  0
   -4.7800   13.9350   -0.8920 C   0  0  0  0  0  0  0  0  0  0  0  0
   -5.8230   15.0280   -2.7570 C   0  0  0  0  0  0  0  0  0  0  0  0
   -3.6740   15.4700    2.1710 N   0  0  0  0  0  0  0  0  0  0  0  0
   -1.4530   14.6510    2.0570 N   0  0  0  0  0  0  0  0  0  0  0  0
   -5.8910   14.5460   -1.4590 C   0  0  0  0  0  0  0  0  0  0  0  0
   -7.0700   14.6940   -0.7810 O   0  0  0  0  0  0  0  0  0  0  0  0
  1  2  2  3
  2  3  1  0
  1  4  1  0
  4  5  1  0
  4  6  1  0
  2  7  1  0
  5  8  2  0
  6  9  2  0
  8  9  1  0
  6 10  1  0
  7 11  2  0
  7 12  1  0
  9 13  1  0
 10 14  2  0
 11 15  1  0
 12 16  2  0
 13 17  1  0
 13 18  2  0
 14 18  1  0
 15 19  2  0
 16 19  1  0
 19 20  1  0
M  END
