mac-x0301-mac-x0568
     RDKit          3D

 22 24  0  0  0  0  0  0  0  0999 V2000
    1.3300   14.4180   -3.2160 O   0  0  0  0  0  0  0  0  0  0  0  0
    0.0680   14.0720   -3.4980 C   0  0  0  0  0  0  0  0  0  0  0  0
   -0.2270   13.5420   -4.5460 O   0  0  0  0  0  0  0  0  0  0  0  0
   -0.8680   14.4180   -2.4390 C   0  0  0  0  0  0  0  0  0  0  0  0
   -0.6030   14.3820   -1.0590 C   0  0  0  0  0  0  0  0  0  0  0  0
   -2.1140   14.8070   -2.8750 C   0  0  0  0  0  0  0  0  0  0  0  0
   -1.5700   14.7390   -0.1760 C   0  0  0  0  0  0  0  0  0  0  0  0
   -3.0490   15.1530   -1.9690 C   0  0  0  0  0  0  0  0  0  0  0  0
    0.5070   14.0370   -0.3840 O   0  0  0  0  0  0  0  0  0  0  0  0
   -2.7490   15.1150   -0.6350 C   0  0  0  0  0  0  0  0  0  0  0  0
   -1.2440   14.6870    1.1390 O   0  0  0  0  0  0  0  0  0  0  0  0
    0.1270   14.4080    0.9680 C   0  0  0  0  0  0  0  0  0  0  0  0
   -3.6880   15.4780    0.1490 N   0  0  0  0  0  0  0  0  0  0  0  0
   -4.7030   15.5460   -0.6840 C   0  0  0  0  0  0  0  0  0  0  0  0
   -4.6950   15.8730   -1.8630 O   0  0  0  0  0  0  0  0  0  0  0  0
   -5.8750   15.1150   -0.0910 C   0  0  0  0  0  0  0  0  0  0  0  0
   -7.0450   15.0530   -0.7750 C   0  0  0  0  0  0  0  0  0  0  0  0
   -5.7850   14.7580    1.2370 C   0  0  0  0  0  0  0  0  0  0  0  0
   -8.1760   14.6480   -0.1960 N   0  0  0  0  0  0  0  0  0  0  0  0
   -6.9260   14.3410    1.8580 C   0  0  0  0  0  0  0  0  0  0  0  0
   -8.0930   14.3050    1.1120 C   0  0  0  0  0  0  0  0  0  0  0  0
   -9.3500   13.8660    1.7650 C   0  0  0  0  0  0  0  0  0  0  0  0
  1  2  1  0
  2  3  2  0
  2  4  1  0
  4  5  2  0
  4  6  1  0
  5  7  1  0
  6  8  2  0
  5  9  1  0
  7 10  2  0
  8 10  1  0
  7 11  1  0
  9 12  1  0
 11 12  1  0
 10 13  1  0
 13 14  1  0
 14 15  2  0
 14 16  1  0
 16 17  2  0
 16 18  1  0
 17 19  1  0
 18 20  2  0
 19 21  2  0
 20 21  1  0
 21 22  1  0
M  END
