mac-x0451-mac-x0123
     RDKit          3D

 15 17  0  0  0  0  0  0  0  0999 V2000
   -5.8290   15.2100    3.1130 N   0  0  0  0  0  0  0  0  0  0  0  0
   -5.6750   14.1140    2.2010 C   0  0  2  0  0  0  0  0  0  0  0  0
   -3.9950   14.0480    1.5300 S   0  0  0  0  0  0  0  0  0  0  0  0
   -6.7480   14.3170    1.2720 C   0  0  0  0  0  0  0  0  0  0  0  0
   -6.5980   14.9690    0.0820 N   0  0  0  0  0  0  0  0  0  0  0  0
   -4.0770   15.4350    0.3380 C   0  0  2  0  0  0  0  0  0  0  0  0
   -8.0600   13.9340    1.4130 C   0  0  0  0  0  0  0  0  0  0  0  0
   -5.3770   15.5720   -0.5090 C   0  0  1  0  0  0  0  0  0  0  0  0
   -2.7810   15.4440   -0.4960 C   0  0  0  0  0  0  0  0  0  0  0  0
   -7.8190   14.9890   -0.5050 C   0  0  0  0  0  0  0  0  0  0  0  0
   -8.7380   14.3560    0.2980 C   0  0  0  0  0  0  0  0  0  0  0  0
   -5.2620   15.2460   -1.9730 C   0  0  0  0  0  0  0  0  0  0  0  0
   -2.8380   14.6870   -1.8200 C   0  0  2  0  0  0  0  0  0  0  0  0
   -1.8190   15.1380   -2.6030 F   0  0  0  0  0  0  0  0  0  0  0  0
   -4.1290   14.8570   -2.5530 C   0  0  0  0  0  0  0  0  0  0  0  0
  2  1  1  1
  2  3  1  0
  2  4  1  0
  4  5  1  0
  3  6  1  0
  4  7  2  0
  5  8  1  0
  6  8  1  0
  6  9  1  6
  5 10  1  0
  7 11  1  0
 10 11  2  0
  8 12  1  6
  9 13  1  0
 13 14  1  6
 12 15  2  0
 13 15  1  0
M  END
