mac-x0333-mac-x0204
     RDKit          3D

 22 24  0  0  0  0  0  0  0  0999 V2000
   -2.8400   14.8700   -2.6840 O   0  0  0  0  0  0  0  0  0  0  0  0
   -3.6230   14.8680   -1.5680 C   0  0  0  0  0  0  0  0  0  0  0  0
   -2.8760   14.6880   -0.3190 C   0  0  0  0  0  0  0  0  0  0  0  0
   -4.9680   15.0390   -1.8740 C   0  0  0  0  0  0  0  0  0  0  0  0
   -1.9530   14.6510   -1.4920 C   0  0  0  0  0  0  0  0  0  0  0  0
   -5.8170   15.0500   -0.8700 C   0  0  0  0  0  0  0  0  0  0  0  0
   -3.9790   14.7570    0.6100 C   0  0  0  0  0  0  0  0  0  0  0  0
   -0.4550   14.5190   -1.2630 C   0  0  0  0  0  0  0  0  0  0  0  0
   -5.3230   14.9130    0.3540 C   0  0  0  0  0  0  0  0  0  0  0  0
   -7.1660   15.1820   -0.9030 O   0  0  0  0  0  0  0  0  0  0  0  0
    0.2290   14.1620   -2.5860 C   0  0  0  0  0  0  0  0  0  0  0  0
   -6.3130   14.9440    1.2860 O   0  0  0  0  0  0  0  0  0  0  0  0
   -7.4370   14.6990    0.4220 C   0  0  0  0  0  0  0  0  0  0  0  0
    0.9770   12.9690   -2.4930 O   0  0  0  0  0  0  0  0  0  0  0  0
    1.1680   15.1890   -2.8620 O   0  0  0  0  0  0  0  0  0  0  0  0
   -0.8260   14.1050   -3.6900 C   0  0  0  0  0  0  0  0  0  0  0  0
   -1.2960   15.2750   -4.3220 C   0  0  0  0  0  0  0  0  0  0  0  0
   -1.3870   12.9000   -4.1180 C   0  0  0  0  0  0  0  0  0  0  0  0
   -2.2730   15.1850   -5.3110 C   0  0  0  0  0  0  0  0  0  0  0  0
   -2.3390   12.7850   -5.0840 N   0  0  0  0  0  0  0  0  0  0  0  0
   -2.7650   16.2870   -5.9520 O   0  0  0  0  0  0  0  0  0  0  0  0
   -2.7590   13.9350   -5.6550 C   0  0  0  0  0  0  0  0  0  0  0  0
  1  2  1  0
  2  3  2  0
  2  4  1  0
  3  5  1  0
  4  6  2  0
  3  7  1  0
  5  8  1  0
  6  9  1  0
  7  9  2  0
  6 10  1  0
  8 11  1  0
  9 12  1  0
 10 13  1  0
 12 13  1  0
 11 14  1  0
 11 15  1  0
 11 16  1  0
 16 17  2  0
 16 18  1  0
 17 19  1  0
 18 20  2  0
 19 21  1  0
 19 22  2  0
 20 22  1  0
M  END
