mac-x0139-mac-x0206
     RDKit          3D

 25 27  0  0  0  0  0  0  0  0999 V2000
   -2.4880   15.1480   -3.2670 C   0  0  0  0  0  0  0  0  0  0  0  0
   -1.3200   14.6390   -2.5150 N   0  0  0  0  0  0  0  0  0  0  0  0
   -0.0440   14.8300   -3.2730 C   0  0  0  0  0  0  0  0  0  0  0  0
   -1.2610   14.8000   -1.1160 C   0  0  0  0  0  0  0  0  0  0  0  0
    0.4070   13.5540   -3.9820 C   0  0  0  0  0  0  0  0  0  0  0  0
   -2.3340   14.8520   -0.2730 C   0  0  0  0  0  0  0  0  0  0  0  0
    0.0150   14.9800   -0.6010 N   0  0  0  0  0  0  0  0  0  0  0  0
    0.9470   12.5150   -3.0330 C   0  0  0  0  0  0  0  0  0  0  0  0
   -2.0340   14.9770    1.1760 C   0  0  0  0  0  0  0  0  0  0  0  0
    0.1500   15.1130    0.6650 C   0  0  0  0  0  0  0  0  0  0  0  0
   -3.7440   14.8350   -0.2030 C   0  0  0  0  0  0  0  0  0  0  0  0
    1.8210   12.6480   -2.2030 O   0  0  0  0  0  0  0  0  0  0  0  0
    0.3400   11.3170   -3.1700 O   0  0  0  0  0  0  0  0  0  0  0  0
   -0.8110   14.9910    1.5690 N   0  0  0  0  0  0  0  0  0  0  0  0
   -3.0240   15.0330    1.9450 N   0  0  0  0  0  0  0  0  0  0  0  0
   -4.0680   14.9640    1.0850 C   0  0  0  0  0  0  0  0  0  0  0  0
   -4.8530   14.7660   -1.0800 C   0  0  0  0  0  0  0  0  0  0  0  0
   -4.7980   14.7430   -2.3050 O   0  0  0  0  0  0  0  0  0  0  0  0
   -6.0660   14.7420   -0.2490 C   0  0  0  0  0  0  0  0  0  0  0  0
   -7.3370   14.8050   -0.7610 C   0  0  0  0  0  0  0  0  0  0  0  0
   -5.8820   14.6520    1.1510 C   0  0  0  0  0  0  0  0  0  0  0  0
   -7.5200   14.8870   -2.1060 O   0  0  0  0  0  0  0  0  0  0  0  0
   -8.4370   14.7830    0.1040 C   0  0  0  0  0  0  0  0  0  0  0  0
   -6.9740   14.6310    2.0140 C   0  0  0  0  0  0  0  0  0  0  0  0
   -8.2550   14.6980    1.4910 C   0  0  0  0  0  0  0  0  0  0  0  0
  1  2  1  0
  2  3  1  0
  2  4  1  0
  3  5  1  0
  4  6  2  0
  4  7  1  0
  5  8  1  0
  6  9  1  0
  7 10  2  0
  6 11  1  0
  8 12  2  0
  8 13  1  0
  9 14  1  0
 10 14  1  0
  9 15  2  0
 11 16  2  0
 15 16  1  0
 11 17  1  0
 17 18  2  0
 17 19  1  0
 19 20  2  0
 19 21  1  0
 20 22  1  0
 20 23  1  0
 21 24  2  0
 23 25  2  0
 24 25  1  0
M  END
