mac-x0193-mac-x0223
     RDKit          3D

 23 24  0  0  0  0  0  0  0  0999 V2000
    0.5310   11.0060   -3.2700 O   0  0  0  0  0  0  0  0  0  0  0  0
    0.8340   12.2460   -3.7150 C   0  0  0  0  0  0  0  0  0  0  0  0
    1.8050   12.8280   -3.2620 O   0  0  0  0  0  0  0  0  0  0  0  0
   -0.1920   12.7530   -4.7570 C   0  0  2  0  0  0  0  0  0  0  0  0
   -0.1140   12.2810   -6.1590 N   0  0  0  0  0  0  0  0  0  0  0  0
   -0.5950   14.2440   -4.7470 C   0  0  0  0  0  0  0  0  0  0  0  0
    0.8570   11.5610   -6.8020 C   0  0  0  0  0  0  0  0  0  0  0  0
   -1.9730   14.4900   -4.8370 C   0  0  0  0  0  0  0  0  0  0  0  0
    0.2810   15.3730   -4.6610 C   0  0  0  0  0  0  0  0  0  0  0  0
    2.0440   11.7950   -6.6930 O   0  0  0  0  0  0  0  0  0  0  0  0
    0.2910   10.5620   -7.5960 N   0  0  0  0  0  0  0  0  0  0  0  0
   -0.2680   16.6830   -4.6700 C   0  0  0  0  0  0  0  0  0  0  0  0
   -2.5000   15.7710   -4.8480 C   0  0  0  0  0  0  0  0  0  0  0  0
    0.3850   17.8820   -4.5910 O   0  0  0  0  0  0  0  0  0  0  0  0
    0.8590   10.0990   -8.8720 C   0  0  0  0  0  0  0  0  0  0  0  0
   -1.6470   16.8460   -4.7650 C   0  0  0  0  0  0  0  0  0  0  0  0
    1.1690   18.2470   -5.7060 C   0  0  0  0  0  0  0  0  0  0  0  0
   -2.1840   18.1100   -4.7710 O   0  0  0  0  0  0  0  0  0  0  0  0
    1.4010    8.6790   -8.7100 C   0  0  0  0  0  0  0  0  0  0  0  0
   -0.1310   10.1630  -10.0440 C   0  0  0  0  0  0  0  0  0  0  0  0
    2.0830    8.1600   -9.9720 C   0  0  0  0  0  0  0  0  0  0  0  0
    0.5140    9.6590  -11.3370 C   0  0  0  0  0  0  0  0  0  0  0  0
    1.1610    8.2780  -11.1830 C   0  0  0  0  0  0  0  0  0  0  0  0
  1  2  1  0
  2  3  2  0
  2  4  1  0
  4  5  1  6
  4  6  1  0
  5  7  1  0
  6  8  2  0
  6  9  1  0
  7 10  2  0
  7 11  1  0
  9 12  2  0
  8 13  1  0
 12 14  1  0
 11 15  1  0
 12 16  1  0
 13 16  2  0
 14 17  1  0
 16 18  1  0
 15 19  1  0
 15 20  1  0
 19 21  1  0
 20 22  1  0
 21 23  1  0
 22 23  1  0
M  END
