mac-x0161-mac-x0341
     RDKit          3D

 24 27  0  0  0  0  0  0  0  0999 V2000
   -4.1050   16.3960    0.9770 N   0  0  0  0  0  0  0  0  0  0  0  0
   -3.6890   15.2490    0.2470 C   0  0  2  0  0  0  0  0  0  0  0  0
   -2.1300   15.3110    0.4120 C   0  0  2  0  0  0  0  0  0  0  0  0
   -4.2120   15.3340   -1.0880 N   0  0  0  0  0  0  0  0  0  0  0  0
   -4.4110   14.2110    0.9350 N   0  0  0  0  0  0  0  0  0  0  0  0
   -3.3430   15.1100   -2.2530 C   0  0  0  0  0  0  0  0  0  0  0  0
   -1.4200   14.8430   -0.8300 C   0  0  1  0  0  0  0  0  0  0  0  0
   -1.4040   14.5710    1.4400 N   0  0  0  0  0  0  0  0  0  0  0  0
   -5.7590   14.6460    1.1140 C   0  0  2  0  0  0  0  0  0  0  0  0
   -5.5870   15.1840   -1.2550 C   0  0  0  0  0  0  0  0  0  0  0  0
   -6.5680   13.6980    1.7960 N   0  0  0  0  0  0  0  0  0  0  0  0
   -6.1580   15.2360   -2.3360 O   0  0  0  0  0  0  0  0  0  0  0  0
   -1.9150   15.4160   -2.0400 N   0  0  0  0  0  0  0  0  0  0  0  0
   -0.1120   15.2580   -0.4200 N   0  0  0  0  0  0  0  0  0  0  0  0
   -0.0450   14.6180    0.8940 C   0  0  0  0  0  0  0  0  0  0  0  0
   -6.3310   14.9520   -0.1280 N   0  0  0  0  0  0  0  0  0  0  0  0
   -1.0650   15.1100   -3.2100 C   0  0  0  0  0  0  0  0  0  0  0  0
   -0.8110   13.6620   -3.5280 C   0  0  0  0  0  0  0  0  0  0  0  0
   -1.1910   12.8150   -4.5490 C   0  0  0  0  0  0  0  0  0  0  0  0
   -0.0310   12.9560   -2.6540 O   0  0  0  0  0  0  0  0  0  0  0  0
    0.1080   11.6470   -3.0870 N   0  0  0  0  0  0  0  0  0  0  0  0
   -0.5940   11.5860   -4.2220 C   0  0  0  0  0  0  0  0  0  0  0  0
   -0.6900   10.4460   -4.9420 O   0  0  0  0  0  0  0  0  0  0  0  0
   -1.8750   10.3330   -5.7210 C   0  0  0  0  0  0  0  0  0  0  0  0
  2  1  1  1
  2  3  1  0
  2  4  1  0
  2  5  1  0
  4  6  1  0
  3  7  1  0
  3  8  1  1
  5  9  1  0
  4 10  1  0
  9 11  1  6
 10 12  2  0
  6 13  1  0
  7 13  1  0
  7 14  1  1
  8 15  1  0
 14 15  1  0
  9 16  1  0
 10 16  1  0
 13 17  1  0
 17 18  1  0
 18 19  2  0
 18 20  1  0
 20 21  1  0
 19 22  1  0
 21 22  2  0
 22 23  1  0
 23 24  1  0
M  END
