mac-x0319-mac-x0212
     RDKit          3D

 26 27  0  0  0  0  0  0  0  0999 V2000
    0.6390   10.4090   -2.4120 O   0  0  0  0  0  0  0  0  0  0  0  0
    0.6490   11.7690   -2.4330 C   0  0  0  0  0  0  0  0  0  0  0  0
    0.1910   12.4810   -1.4590 N   0  0  0  0  0  0  0  0  0  0  0  0
    1.2480   12.3510   -3.7200 C   0  0  0  0  0  0  0  0  0  0  0  0
    0.1580   13.9320   -1.4990 C   0  0  0  0  0  0  0  0  0  0  0  0
    0.6560   13.6780   -4.1450 C   0  0  0  0  0  0  0  0  0  0  0  0
   -0.5290   14.2550   -2.7470 N   0  0  0  0  0  0  0  0  0  0  0  0
    1.3130   14.9050   -3.8970 C   0  0  0  0  0  0  0  0  0  0  0  0
   -0.5850   13.6980   -4.8010 C   0  0  0  0  0  0  0  0  0  0  0  0
   -1.7720   14.5900   -2.8110 C   0  0  0  0  0  0  0  0  0  0  0  0
    0.7120   16.1050   -4.2940 C   0  0  0  0  0  0  0  0  0  0  0  0
   -1.1620   14.9070   -5.1890 C   0  0  0  0  0  0  0  0  0  0  0  0
    1.3420   17.2830   -4.0450 O   0  0  0  0  0  0  0  0  0  0  0  0
   -2.3910   14.8720   -3.9770 O   0  0  0  0  0  0  0  0  0  0  0  0
   -0.5150   16.1120   -4.9340 C   0  0  0  0  0  0  0  0  0  0  0  0
   -2.7060   14.7170   -1.6990 C   0  0  0  0  0  0  0  0  0  0  0  0
   -2.4130   14.2470   -0.4220 C   0  0  0  0  0  0  0  0  0  0  0  0
   -3.9260   15.3360   -1.9700 C   0  0  0  0  0  0  0  0  0  0  0  0
   -3.3580   14.3950    0.5860 C   0  0  0  0  0  0  0  0  0  0  0  0
   -4.8700   15.4840   -0.9590 C   0  0  0  0  0  0  0  0  0  0  0  0
   -4.5800   15.0040    0.3180 C   0  0  0  0  0  0  0  0  0  0  0  0
   -5.4950   15.0940    1.3950 N   0  0  0  0  0  0  0  0  0  0  0  0
   -7.0200   14.4290    1.1510 S   0  0  0  0  0  0  0  0  0  0  0  0
   -6.6630   12.6980    1.3960 C   0  0  0  0  0  0  0  0  0  0  0  0
   -7.9320   14.8800    2.1760 O   0  0  0  0  0  0  0  0  0  0  0  0
   -7.3300   14.6200   -0.2500 O   0  0  0  0  0  0  0  0  0  0  0  0
  1  2  1  0
  2  3  2  3
  2  4  1  0
  3  5  1  0
  4  6  1  0
  5  7  1  0
  6  8  2  0
  6  9  1  0
  7 10  2  3
  8 11  1  0
  9 12  2  0
 11 13  1  0
 10 14  1  0
 11 15  2  0
 12 15  1  0
 10 16  1  0
 16 17  2  0
 16 18  1  0
 17 19  1  0
 18 20  2  0
 19 21  2  0
 20 21  1  0
 21 22  1  0
 23 22  1  0
 23 24  1  0
 23 25  2  0
 23 26  2  0
M  END
