mac-x0453-mac-x0193
     RDKit          3D

 25 26  0  0  0  0  0  0  0  0999 V2000
   -6.9400   14.1380    2.3260 N   0  0  0  0  0  0  0  0  0  0  0  0
   -5.9470   13.8160    1.3000 C   0  0  0  0  0  0  0  0  0  0  0  0
   -4.7400   14.7680    1.3300 C   0  0  0  0  0  0  0  0  0  0  0  0
   -3.9900   14.8140    0.0430 C   0  0  0  0  0  0  0  0  0  0  0  0
   -2.6680   14.4910   -0.1870 C   0  0  0  0  0  0  0  0  0  0  0  0
   -4.5960   15.2100   -1.1290 N   0  0  0  0  0  0  0  0  0  0  0  0
   -2.4790   14.6960   -1.5260 N   0  0  0  0  0  0  0  0  0  0  0  0
   -3.6650   15.1280   -2.0490 C   0  0  0  0  0  0  0  0  0  0  0  0
   -1.2510   14.4960   -2.2920 C   0  0  0  0  0  0  0  0  0  0  0  0
    0.0470   14.6660   -1.4860 C   0  0  0  0  0  0  0  0  0  0  0  0
    1.2180   13.9420   -2.1580 C   0  0  0  0  0  0  0  0  0  0  0  0
    0.8670   12.5380   -2.1610 N   0  0  0  0  0  0  0  0  0  0  0  0
    0.6850   11.8250   -3.2180 C   0  0  0  0  0  0  0  0  0  0  0  0
    0.3410   10.5260   -3.1490 O   0  0  0  0  0  0  0  0  0  0  0  0
    0.8210   12.3560   -4.6530 C   0  0  0  0  0  0  0  0  0  0  0  0
    0.1200   11.4810   -5.5970 N   0  0  0  0  0  0  0  0  0  0  0  0
    0.6900   11.2370   -6.8300 C   0  0  0  0  0  0  0  0  0  0  0  0
    1.7830   11.6360   -7.1210 O   0  0  0  0  0  0  0  0  0  0  0  0
   -0.1500   10.4910   -7.6440 N   0  0  0  0  0  0  0  0  0  0  0  0
    0.2410    9.7000   -8.8300 C   0  0  0  0  0  0  0  0  0  0  0  0
    1.3240    8.6650   -8.5160 C   0  0  0  0  0  0  0  0  0  0  0  0
    0.6110   10.5430  -10.0470 C   0  0  0  0  0  0  0  0  0  0  0  0
    2.0340    8.0930   -9.7580 C   0  0  0  0  0  0  0  0  0  0  0  0
    0.8040    9.6780  -11.3030 C   0  0  0  0  0  0  0  0  0  0  0  0
    1.1950    8.2240  -11.0190 C   0  0  0  0  0  0  0  0  0  0  0  0
  1  2  1  0
  2  3  1  0
  3  4  1  0
  4  5  2  0
  4  6  1  0
  5  7  1  0
  6  8  2  0
  7  8  1  0
  7  9  1  0
  9 10  1  0
 10 11  1  0
 11 12  1  0
 12 13  2  3
 13 14  1  0
 13 15  1  0
 15 16  1  0
 16 17  1  0
 17 18  2  0
 17 19  1  0
 19 20  1  0
 20 21  1  0
 20 22  1  0
 21 23  1  0
 22 24  1  0
 23 25  1  0
 24 25  1  0
M  END
