mac-x0182-mac-x0394
     RDKit          3D

 23 25  0  0  0  0  0  0  0  0999 V2000
    1.7080   11.7650   -6.9550 O   0  0  0  0  0  0  0  0  0  0  0  0
    0.6430   11.5560   -6.4190 C   0  0  0  0  0  0  0  0  0  0  0  0
    0.0650   12.3000   -5.4370 N   0  0  0  0  0  0  0  0  0  0  0  0
   -0.2230   10.4020   -6.7190 C   0  0  0  0  0  0  0  0  0  0  0  0
   -0.8860   11.3410   -4.4370 S   0  0  2  0  0  0  0  0  0  0  0  0
   -1.1210   10.1510   -5.6900 C   0  0  0  0  0  0  0  0  0  0  0  0
   -0.2080    9.6130   -7.8560 C   0  0  0  0  0  0  0  0  0  0  0  0
   -2.1190   12.0620   -4.3060 O   0  0  0  0  0  0  0  0  0  0  0  0
    0.1370   11.0810   -3.3550 N   0  0  0  0  0  0  0  0  0  0  0  0
   -2.0370    9.1170   -5.7280 C   0  0  0  0  0  0  0  0  0  0  0  0
   -1.1290    8.5600   -7.9240 C   0  0  0  0  0  0  0  0  0  0  0  0
    0.6710   12.2510   -2.7560 C   0  0  0  0  0  0  0  0  0  0  0  0
   -2.0320    8.3150   -6.8720 C   0  0  0  0  0  0  0  0  0  0  0  0
    0.6220   12.4790   -1.5370 O   0  0  0  0  0  0  0  0  0  0  0  0
    1.3570   13.2750   -3.6960 C   0  0  0  0  0  0  0  0  0  0  0  0
    0.4890   14.4450   -4.1920 C   0  0  0  0  0  0  0  0  0  0  0  0
   -0.9050   14.3410   -4.4060 C   0  0  0  0  0  0  0  0  0  0  0  0
    1.0910   15.6870   -4.4570 C   0  0  0  0  0  0  0  0  0  0  0  0
   -1.6480   15.4410   -4.8660 C   0  0  0  0  0  0  0  0  0  0  0  0
    0.3200   16.7680   -4.9150 C   0  0  0  0  0  0  0  0  0  0  0  0
    1.0210   18.2840   -5.2470 Cl  0  0  0  0  0  0  0  0  0  0  0  0
   -3.3400   15.3050   -5.1310 Cl  0  0  0  0  0  0  0  0  0  0  0  0
   -1.0360   16.6520   -5.1190 C   0  0  0  0  0  0  0  0  0  0  0  0
  1  2  2  0
  2  3  1  0
  2  4  1  0
  5  3  1  6
  4  6  2  0
  5  6  1  0
  4  7  1  0
  5  8  2  0
  5  9  2  0
  6 10  1  0
  7 11  2  0
  9 12  1  0
 10 13  2  0
 11 13  1  0
 12 14  2  0
 12 15  1  0
 15 16  1  0
 16 17  2  0
 16 18  1  0
 17 19  1  0
 18 20  2  0
 20 21  1  0
 19 22  1  0
 19 23  2  0
 20 23  1  0
M  END
