mac-x0224-mac-x0587
     RDKit          3D

 18 19  0  0  0  0  0  0  0  0999 V2000
   -5.0310   15.0500    1.4560 C   0  0  0  0  0  0  0  0  0  0  0  0
   -3.2250   15.1620    1.4560 S   0  0  0  0  0  0  0  0  0  0  0  0
   -2.9740   15.0540   -0.2830 C   0  0  0  0  0  0  0  0  0  0  0  0
   -1.8030   14.4630   -0.7460 C   0  0  0  0  0  0  0  0  0  0  0  0
   -3.9200   15.5430   -1.1920 C   0  0  0  0  0  0  0  0  0  0  0  0
   -1.6180   14.3800   -2.1220 C   0  0  0  0  0  0  0  0  0  0  0  0
   -3.6970   15.4430   -2.5610 C   0  0  0  0  0  0  0  0  0  0  0  0
   -0.4540   13.7440   -2.7080 C   0  0  0  0  0  0  0  0  0  0  0  0
   -2.5380   14.8610   -3.0370 C   0  0  0  0  0  0  0  0  0  0  0  0
   -2.3050   14.7540   -4.3840 N   0  0  0  0  0  0  0  0  0  0  0  0
   -0.4270   12.5360   -2.3210 N   0  0  0  0  0  0  0  0  0  0  0  0
    0.3440   14.3530   -3.6540 N   0  0  0  0  0  0  0  0  0  0  0  0
    0.4210   15.8090   -3.8510 C   0  0  0  0  0  0  0  0  0  0  0  0
    0.3230   13.4830   -5.0710 S   0  0  0  0  0  0  0  0  0  0  0  0
    0.4350   11.6600   -2.8920 C   0  0  0  0  0  0  0  0  0  0  0  0
   -3.1800   15.3440   -5.0180 O   0  0  0  0  0  0  0  0  0  0  0  0
    0.9680   11.9810   -4.2900 C   0  0  0  0  0  0  0  0  0  0  0  0
    0.7190   10.5860   -2.3310 O   0  0  0  0  0  0  0  0  0  0  0  0
  1  2  1  0
  2  3  1  0
  3  4  2  0
  3  5  1  0
  4  6  1  0
  5  7  2  0
  6  8  1  0
  6  9  2  0
  7  9  1  0
  9 10  1  0
  8 11  2  0
  8 12  1  0
 12 13  1  0
 12 14  1  0
 11 15  1  0
 10 16  2  0
 14 17  1  0
 15 17  1  0
 15 18  2  0
M  END
