mac-x0441-mac-x0123
     RDKit          3D

 33 37  0  0  0  0  0  0  0  0999 V2000
    0.4420   10.8700   -3.3220 O   0  0  0  0  0  0  0  0  0  0  0  0
    0.6980   12.1890   -3.4660 C   0  0  0  0  0  0  0  0  0  0  0  0
    1.0290   12.8770   -2.5080 O   0  0  0  0  0  0  0  0  0  0  0  0
    0.5450   12.7840   -4.8610 C   0  0  2  0  0  0  0  0  0  0  0  0
   -0.4730   13.9490   -4.8310 C   0  0  0  0  0  0  0  0  0  0  0  0
    0.2380   11.8040   -5.9100 N   0  0  0  0  0  0  0  0  0  0  0  0
   -1.2780   14.0760   -3.5160 C   0  0  0  0  0  0  0  0  0  0  0  0
    1.0120   11.7950   -7.0370 N   0  0  0  0  0  0  0  0  0  0  0  0
   -0.7430   10.8520   -5.9600 C   0  0  0  0  0  0  0  0  0  0  0  0
   -2.5170   14.9830   -3.6640 C   0  0  0  0  0  0  0  0  0  0  0  0
    0.4890   10.8120   -7.8150 C   0  0  0  0  0  0  0  0  0  0  0  0
   -0.6010   10.2060   -7.1660 C   0  0  0  0  0  0  0  0  0  0  0  0
   -1.7870   10.5300   -4.9500 C   0  0  0  0  0  0  0  0  0  0  0  0
    0.9560   10.3780   -9.1900 C   0  0  0  0  0  0  0  0  0  0  0  0
   -1.4700    9.0900   -7.6270 C   0  0  0  0  0  0  0  0  0  0  0  0
   -2.9310    9.7650   -5.6480 C   0  0  0  0  0  0  0  0  0  0  0  0
   -3.5050   14.8870   -2.5430 C   0  0  0  0  0  0  0  0  0  0  0  0
    1.6450    9.2070   -9.1840 F   0  0  0  0  0  0  0  0  0  0  0  0
   -0.1030   10.1710  -10.0100 F   0  0  0  0  0  0  0  0  0  0  0  0
    1.6900   11.2830   -9.8630 F   0  0  0  0  0  0  0  0  0  0  0  0
   -2.4010    8.6020   -6.5040 C   0  0  0  0  0  0  0  0  0  0  0  0
   -4.8320   14.7190   -2.8090 N   0  0  0  0  0  0  0  0  0  0  0  0
   -3.1860   14.9550   -1.2420 N   0  0  0  0  0  0  0  0  0  0  0  0
   -4.4090   14.8160   -0.6450 N   0  0  0  0  0  0  0  0  0  0  0  0
   -5.4010   14.6740   -1.6280 C   0  0  0  0  0  0  0  0  0  0  0  0
   -4.7330   14.7960    0.7350 C   0  0  0  0  0  0  0  0  0  0  0  0
   -6.7240   14.5120   -1.3180 N   0  0  0  0  0  0  0  0  0  0  0  0
   -3.7040   14.9510    1.6510 N   0  0  0  0  0  0  0  0  0  0  0  0
   -7.0000   14.4830   -0.0580 C   0  0  0  0  0  0  0  0  0  0  0  0
   -6.0330   14.6130    1.0620 C   0  0  0  0  0  0  0  0  0  0  0  0
   -6.7990   14.5010    2.3370 C   0  0  0  0  0  0  0  0  0  0  0  0
   -8.3970   14.3130    0.4630 C   0  0  0  0  0  0  0  0  0  0  0  0
   -8.2640   14.6660    1.9440 C   0  0  0  0  0  0  0  0  0  0  0  0
  1  2  1  0
  2  3  2  0
  2  4  1  0
  4  5  1  1
  4  6  1  0
  5  7  1  0
  6  8  1  0
  6  9  1  0
  7 10  1  0
  8 11  2  0
  9 12  2  0
 11 12  1  0
  9 13  1  0
 11 14  1  0
 12 15  1  0
 13 16  1  0
 10 17  1  0
 14 18  1  0
 14 19  1  0
 14 20  1  0
 15 21  1  0
 16 21  1  0
 17 22  1  0
 17 23  2  0
 23 24  1  0
 22 25  2  0
 24 25  1  0
 24 26  1  0
 25 27  1  0
 26 28  1  0
 27 29  2  0
 26 30  2  0
 29 30  1  0
 30 31  1  0
 29 32  1  0
 31 33  1  0
 32 33  1  0
M  END
