mac-x0415-mac-x0365
     RDKit          3D

 26 28  0  0  0  0  0  0  0  0999 V2000
    0.5580   10.8720   -2.8410 O   0  0  0  0  0  0  0  0  0  0  0  0
    0.6840   12.2110   -2.8770 C   0  0  0  0  0  0  0  0  0  0  0  0
    0.5510   12.7860   -1.7180 N   0  0  0  0  0  0  0  0  0  0  0  0
    0.9460   12.7530   -4.2940 C   0  0  0  0  0  0  0  0  0  0  0  0
    0.6020   14.2310   -1.4810 C   0  0  0  0  0  0  0  0  0  0  0  0
    0.7240   14.2150   -4.3810 C   0  0  0  0  0  0  0  0  0  0  0  0
   -0.6470   14.8460   -1.0820 O   0  0  0  0  0  0  0  0  0  0  0  0
    1.7610   15.2460   -4.2330 C   0  0  0  0  0  0  0  0  0  0  0  0
   -0.3360   14.9870   -4.6320 C   0  0  0  0  0  0  0  0  0  0  0  0
   -1.6300   14.7370   -2.0170 C   0  0  0  0  0  0  0  0  0  0  0  0
    1.4210   16.4930   -4.3400 N   0  0  0  0  0  0  0  0  0  0  0  0
   -0.0030   16.4230   -4.4860 C   0  0  1  0  0  0  0  0  0  0  0  0
   -1.6970   14.6610   -4.9570 C   0  0  0  0  0  0  0  0  0  0  0  0
   -1.4460   14.5550   -3.1930 O   0  0  0  0  0  0  0  0  0  0  0  0
   -0.7610   17.3710   -5.3540 C   0  0  0  0  0  0  0  0  0  0  0  0
   -2.4720   15.6130   -5.5320 C   0  0  0  0  0  0  0  0  0  0  0  0
   -3.0100   14.8510   -1.4690 C   0  0  0  0  0  0  0  0  0  0  0  0
   -4.2250   15.1980   -6.0050 Br  0  0  0  0  0  0  0  0  0  0  0  0
   -1.9570   16.9660   -5.8280 C   0  0  0  0  0  0  0  0  0  0  0  0
   -4.1180   14.9720   -2.3190 C   0  0  0  0  0  0  0  0  0  0  0  0
   -3.1980   14.8290   -0.0750 C   0  0  0  0  0  0  0  0  0  0  0  0
   -5.3910   15.0600   -1.7740 C   0  0  0  0  0  0  0  0  0  0  0  0
   -4.4840   14.9180    0.4630 C   0  0  0  0  0  0  0  0  0  0  0  0
   -6.4460   15.1690   -2.5980 F   0  0  0  0  0  0  0  0  0  0  0  0
   -5.5810   15.0300   -0.3980 C   0  0  0  0  0  0  0  0  0  0  0  0
   -6.8550   15.1090    0.0790 O   0  0  0  0  0  0  0  0  0  0  0  0
  1  2  1  0
  2  3  2  3
  2  4  1  0
  3  5  1  0
  4  6  1  0
  5  7  1  0
  6  8  1  0
  6  9  2  0
  7 10  1  0
  8 11  2  0
  9 12  1  0
 11 12  1  0
  9 13  1  0
 10 14  2  0
 12 15  1  6
 13 16  2  0
 10 17  1  0
 16 18  1  0
 15 19  2  0
 16 19  1  0
 17 20  2  0
 17 21  1  0
 20 22  1  0
 21 23  2  0
 22 24  1  0
 22 25  2  0
 23 25  1  0
 25 26  1  0
M  END
