mac-x0397-mac-x0387
     RDKit          3D

 17 19  0  0  0  0  0  0  0  0999 V2000
   -6.7890   15.5390   -2.1920 Cl  0  0  0  0  0  0  0  0  0  0  0  0
   -5.2860   14.6320   -1.9460 C   0  0  2  0  0  0  0  0  0  0  0  0
   -5.1250   14.4600   -0.4820 C   0  0  0  0  0  0  0  0  0  0  0  0
   -4.0820   15.3260   -2.5490 C   0  0  0  0  0  0  0  0  0  0  0  0
   -6.2080   14.3010    0.3740 N   0  0  0  0  0  0  0  0  0  0  0  0
   -3.8980   14.4650    0.1120 C   0  0  0  0  0  0  0  0  0  0  0  0
   -2.8710   15.3670   -1.9590 C   0  0  0  0  0  0  0  0  0  0  0  0
   -5.7800   14.1820    1.6040 C   0  0  0  0  0  0  0  0  0  0  0  0
   -4.0750   14.2260    1.7730 S   0  0  0  0  0  0  0  0  0  0  0  0
   -2.5810   14.7060   -0.6020 C   0  0  1  0  0  0  0  0  0  0  0  0
   -6.6090   14.0400    2.6550 N   0  0  0  0  0  0  0  0  0  0  0  0
   -2.1050   15.7360    0.4720 C   0  0  1  0  0  0  0  0  0  0  0  0
   -1.4530   13.7020   -0.8180 C   0  0  0  0  0  0  0  0  0  0  0  0
   -3.2850   16.3400    1.0710 N   0  0  0  0  0  0  0  0  0  0  0  0
   -0.3670   13.6690   -0.0240 C   0  0  0  0  0  0  0  0  0  0  0  0
   -1.4580   15.0790    1.5750 N   0  0  0  0  0  0  0  0  0  0  0  0
   -0.1840   14.5580    1.1520 C   0  0  0  0  0  0  0  0  0  0  0  0
  2  1  1  1
  2  3  1  0
  2  4  1  0
  3  5  1  0
  3  6  2  0
  4  7  2  0
  5  8  2  0
  6  9  1  0
  8  9  1  0
  6 10  1  0
 10  7  1  6
  8 11  1  0
 10 12  1  0
 10 13  1  0
 12 14  1  1
 13 15  2  0
 12 16  1  0
 15 17  1  0
 16 17  1  0
M  END
