mac-x0224-diamond-x0837_0_A
     RDKit          3D

 19 20  0  0  0  0  0  0  0  0999 V2000
   -4.0250   15.6630    1.8580 C   0  0  0  0  0  0  0  0  0  0  0  0
   -2.2850   15.1420    1.7470 S   0  0  0  0  0  0  0  0  0  0  0  0
   -2.1660   14.8560    0.0390 C   0  0  0  0  0  0  0  0  0  0  0  0
   -0.9900   14.7850   -0.6730 C   0  0  0  0  0  0  0  0  0  0  0  0
   -3.3120   14.6930   -0.5690 C   0  0  0  0  0  0  0  0  0  0  0  0
   -1.0390   14.5530   -2.0550 C   0  0  0  0  0  0  0  0  0  0  0  0
   -3.4470   14.4570   -1.8690 C   0  0  0  0  0  0  0  0  0  0  0  0
    0.2460   14.4720   -2.7570 C   0  0  0  0  0  0  0  0  0  0  0  0
   -2.2980   14.3910   -2.7070 C   0  0  0  0  0  0  0  0  0  0  0  0
   -4.9120   14.2940   -1.9860 C   0  0  1  0  0  0  0  0  0  0  0  0
   -2.4120   14.1630   -4.0600 O   0  0  0  0  0  0  0  0  0  0  0  0
    1.3070   14.3560   -2.1660 O   0  0  0  0  0  0  0  0  0  0  0  0
    0.1750   14.5140   -4.0900 O   0  0  0  0  0  0  0  0  0  0  0  0
   -4.8890   13.2810   -0.8280 C   0  0  0  0  0  0  0  0  0  0  0  0
   -5.8270   15.4750   -1.6150 C   0  0  0  0  0  0  0  0  0  0  0  0
   -5.3960   13.4940    0.4030 C   0  0  0  0  0  0  0  0  0  0  0  0
   -6.6800   15.1900   -0.3920 C   0  0  0  0  0  0  0  0  0  0  0  0
   -7.8870   15.3930   -0.3190 O   0  0  0  0  0  0  0  0  0  0  0  0
   -6.0130   14.6510    0.6450 N   0  0  0  0  0  0  0  0  0  0  0  0
  1  2  1  0
  2  3  1  0
  3  4  2  0
  3  5  1  0
  4  6  1  0
  5  7  2  0
  6  8  1  0
  6  9  2  0
  7  9  1  0
 10  7  1  1
  9 11  1  0
  8 12  2  0
  8 13  1  0
 10 14  1  0
 10 15  1  0
 14 16  2  0
 15 17  1  0
 17 18  2  0
 16 19  1  0
 17 19  1  0
M  END
