mac-x0213-mac-x0321
     RDKit          3D

 21 23  0  0  0  0  0  0  0  0999 V2000
    0.1500   11.5280   -3.4930 O   0  0  0  0  0  0  0  0  0  0  0  0
    0.5470   12.7680   -3.1450 C   0  0  0  0  0  0  0  0  0  0  0  0
    1.1590   12.9420   -2.1060 O   0  0  0  0  0  0  0  0  0  0  0  0
    0.1270   13.8090   -4.1710 C   0  0  1  0  0  0  0  0  0  0  0  0
   -1.3250   14.2960   -3.9360 C   0  0  2  0  0  0  0  0  0  0  0  0
    0.9940   15.0720   -3.9990 C   0  0  0  0  0  0  0  0  0  0  0  0
   -1.2550   15.6730   -4.5710 C   0  0  0  0  0  0  0  0  0  0  0  0
    0.0830   16.1050   -4.5930 C   0  0  0  0  0  0  0  0  0  0  0  0
   -1.7290   14.1780   -2.4540 C   0  0  1  0  0  0  0  0  0  0  0  0
   -2.2580   16.4800   -5.0840 C   0  0  0  0  0  0  0  0  0  0  0  0
    0.4340   17.3370   -5.1150 C   0  0  0  0  0  0  0  0  0  0  0  0
   -0.7940   14.9200   -1.6630 O   0  0  0  0  0  0  0  0  0  0  0  0
   -3.0740   14.6770   -1.9760 C   0  0  0  0  0  0  0  0  0  0  0  0
   -1.9020   17.7240   -5.6160 C   0  0  0  0  0  0  0  0  0  0  0  0
   -0.5700   18.1490   -5.6290 C   0  0  0  0  0  0  0  0  0  0  0  0
   -3.1930   14.8970   -0.6060 C   0  0  0  0  0  0  0  0  0  0  0  0
   -4.1850   14.9170   -2.7980 C   0  0  0  0  0  0  0  0  0  0  0  0
   -4.3750   15.3380   -0.0620 C   0  0  0  0  0  0  0  0  0  0  0  0
   -5.3850   15.3630   -2.2370 C   0  0  0  0  0  0  0  0  0  0  0  0
   -4.4230   15.5760    1.6300 Cl  0  0  0  0  0  0  0  0  0  0  0  0
   -5.4820   15.5740   -0.8660 C   0  0  0  0  0  0  0  0  0  0  0  0
  1  2  1  0
  2  3  2  0
  4  2  1  1
  4  5  1  0
  4  6  1  0
  5  7  1  1
  6  8  1  0
  7  8  2  0
  5  9  1  0
  7 10  1  0
  8 11  1  0
  9 12  1  1
  9 13  1  0
 10 14  2  0
 11 15  2  0
 14 15  1  0
 13 16  2  0
 13 17  1  0
 16 18  1  0
 17 19  2  0
 18 20  1  0
 18 21  2  0
 19 21  1  0
M  END
