mac-x0148-mac-x0206
     RDKit          3D

 27 31  0  0  0  0  0  0  0  0999 V2000
   -5.0060   14.9990   -0.7890 C   0  0  0  0  0  0  0  0  0  0  0  0
   -4.3520   15.1390   -1.8760 N   0  0  0  0  0  0  0  0  0  0  0  0
   -3.4560   15.1940   -0.9260 C   0  0  0  0  0  0  0  0  0  0  0  0
   -6.2530   14.8290   -0.1060 C   0  0  0  0  0  0  0  0  0  0  0  0
   -7.4730   14.7690   -0.7190 C   0  0  0  0  0  0  0  0  0  0  0  0
   -6.1380   14.7330    1.2880 C   0  0  0  0  0  0  0  0  0  0  0  0
   -7.5560   14.8560   -2.0780 O   0  0  0  0  0  0  0  0  0  0  0  0
   -8.6090   14.6180    0.0720 C   0  0  0  0  0  0  0  0  0  0  0  0
   -7.2530   14.5820    2.0780 C   0  0  0  0  0  0  0  0  0  0  0  0
   -2.1300   14.7780   -0.6460 C   0  0  0  0  0  0  0  0  0  0  0  0
   -3.9400   15.7200    0.2060 C   0  0  0  0  0  0  0  0  0  0  0  0
   -8.4990   14.5260    1.4690 C   0  0  0  0  0  0  0  0  0  0  0  0
   -2.1440   15.0080    0.8450 C   0  0  0  0  0  0  0  0  0  0  0  0
   -0.9980   14.3270   -1.2130 C   0  0  0  0  0  0  0  0  0  0  0  0
   -3.1540   15.6490    1.2930 N   0  0  0  0  0  0  0  0  0  0  0  0
   -0.7290   14.0640   -2.5640 N   0  0  0  0  0  0  0  0  0  0  0  0
    0.0190   14.1080   -0.3050 N   0  0  0  0  0  0  0  0  0  0  0  0
   -1.1930   14.5820    1.6590 N   0  0  0  0  0  0  0  0  0  0  0  0
   -1.7690   14.0360   -3.6230 C   0  0  1  0  0  0  0  0  0  0  0  0
    0.3440   13.0660   -2.7900 C   0  0  0  0  0  0  0  0  0  0  0  0
   -0.1970   14.1380    1.0520 C   0  0  0  0  0  0  0  0  0  0  0  0
   -2.4090   15.3400   -4.0880 C   0  0  0  0  0  0  0  0  0  0  0  0
   -1.2330   13.5990   -4.9830 C   0  0  2  0  0  0  0  0  0  0  0  0
   -0.2200   11.8570   -3.5320 C   0  0  0  0  0  0  0  0  0  0  0  0
   -2.5010   13.7380   -5.7770 C   0  0  0  0  0  0  0  0  0  0  0  0
   -2.9910   15.0390   -5.3900 O   0  0  0  0  0  0  0  0  0  0  0  0
   -0.5530   12.2400   -4.9710 C   0  0  0  0  0  0  0  0  0  0  0  0
  1  2  2  3
  2  3  1  0
  1  4  1  0
  4  5  2  0
  4  6  1  0
  5  7  1  0
  5  8  1  0
  6  9  2  0
  3 10  1  0
  3 11  2  0
  8 12  2  0
  9 12  1  0
 10 13  1  0
 10 14  2  0
 11 15  1  0
 13 15  2  0
 14 16  1  0
 14 17  1  0
 13 18  1  0
 16 19  1  0
 16 20  1  0
 17 21  1  0
 18 21  2  0
 19 22  1  6
 19 23  1  0
 20 24  1  0
 23 25  1  6
 22 26  1  0
 25 26  1  0
 23 27  1  0
 24 27  1  0
M  END
