mac-x0148-diamond-x0465_0_A
     RDKit          3D

 31 35  0  0  0  0  0  0  0  0999 V2000
    1.2020   13.6620   -5.1390 C   0  0  0  0  0  0  0  0  0  0  0  0
    0.6080   12.2800   -4.7800 C   0  0  1  0  0  0  0  0  0  0  0  0
    0.5210   11.3870   -5.8870 O   0  0  0  0  0  0  0  0  0  0  0  0
    1.3060   11.8420   -3.4610 C   0  0  0  0  0  0  0  0  0  0  0  0
   -0.8700   12.2720   -4.2510 C   0  0  2  0  0  0  0  0  0  0  0  0
    2.1740   12.4770   -2.8840 O   0  0  0  0  0  0  0  0  0  0  0  0
    0.8560   10.6690   -2.9510 O   0  0  0  0  0  0  0  0  0  0  0  0
   -1.8580   13.4500   -4.3650 C   0  0  2  0  0  0  0  0  0  0  0  0
   -0.7380   12.1330   -2.7420 C   0  0  0  0  0  0  0  0  0  0  0  0
   -0.6140   10.6460   -5.9990 C   0  0  0  0  0  0  0  0  0  0  0  0
   -2.5550   13.8610   -5.6280 C   0  0  0  0  0  0  0  0  0  0  0  0
   -1.3590   14.7540   -3.7600 C   0  0  1  0  0  0  0  0  0  0  0  0
    0.1070   13.3210   -2.3350 C   0  0  0  0  0  0  0  0  0  0  0  0
   -0.6490    9.5040   -6.7840 C   0  0  0  0  0  0  0  0  0  0  0  0
   -1.7670   11.0360   -5.3120 C   0  0  0  0  0  0  0  0  0  0  0  0
    0.4400    9.1110   -7.4550 F   0  0  0  0  0  0  0  0  0  0  0  0
   -3.0660   15.1810   -5.3470 O   0  0  0  0  0  0  0  0  0  0  0  0
   -2.5950   15.5980   -4.0400 C   0  0  0  0  0  0  0  0  0  0  0  0
   -0.7330   14.5190   -2.3960 N   0  0  0  0  0  0  0  0  0  0  0  0
   -1.8110    8.7500   -6.8890 C   0  0  0  0  0  0  0  0  0  0  0  0
   -2.9380   10.2850   -5.4110 C   0  0  0  0  0  0  0  0  0  0  0  0
   -1.1790   14.6790   -1.0990 C   0  0  0  0  0  0  0  0  0  0  0  0
   -2.9580    9.1410   -6.1990 C   0  0  0  0  0  0  0  0  0  0  0  0
   -0.2090   14.5990   -0.1210 N   0  0  0  0  0  0  0  0  0  0  0  0
   -2.4270   14.8890   -0.6620 C   0  0  0  0  0  0  0  0  0  0  0  0
   -0.5010   14.5880    1.2010 C   0  0  0  0  0  0  0  0  0  0  0  0
   -2.6560   14.9790    0.8000 C   0  0  0  0  0  0  0  0  0  0  0  0
   -3.7260   15.0760   -1.2150 C   0  0  0  0  0  0  0  0  0  0  0  0
   -1.6630   14.7570    1.7110 N   0  0  0  0  0  0  0  0  0  0  0  0
   -3.8900   15.2660    1.0850 N   0  0  0  0  0  0  0  0  0  0  0  0
   -4.5160   15.3130   -0.1560 C   0  0  0  0  0  0  0  0  0  0  0  0
  2  1  1  6
  2  3  1  0
  2  4  1  0
  2  5  1  0
  4  6  2  0
  4  7  1  0
  5  8  1  0
  5  9  1  1
  3 10  1  0
  8 11  1  6
  8 12  1  0
  9 13  1  0
 10 14  2  0
 10 15  1  0
 14 16  1  0
 11 17  1  0
 12 18  1  1
 17 18  1  0
 12 19  1  0
 13 19  1  0
 14 20  1  0
 15 21  2  0
 19 22  1  0
 20 23  2  0
 21 23  1  0
 22 24  1  0
 22 25  2  0
 24 26  1  0
 25 27  1  0
 25 28  1  0
 26 29  2  0
 27 29  1  0
 27 30  2  0
 28 31  2  0
 30 31  1  0
M  END
