mac-x0305-diamond-x0933_0_A
     RDKit          3D

 11 11  0  0  0  0  0  0  0  0999 V2000
    0.3790   13.2880   -0.4200 O   0  0  0  0  0  0  0  0  0  0  0  0
   -0.2990   14.1070   -1.2820 C   0  0  0  0  0  0  0  0  0  0  0  0
    0.1280   14.4980   -2.3640 O   0  0  0  0  0  0  0  0  0  0  0  0
   -1.6470   14.4510   -0.7400 C   0  0  0  0  0  0  0  0  0  0  0  0
   -1.8670   14.6290    0.6360 C   0  0  0  0  0  0  0  0  0  0  0  0
   -2.6330   14.5640   -1.6950 N   0  0  0  0  0  0  0  0  0  0  0  0
   -0.9390   14.5450    1.6430 O   0  0  0  0  0  0  0  0  0  0  0  0
   -3.1550   14.9110    1.0520 C   0  0  0  0  0  0  0  0  0  0  0  0
   -3.8770   14.8460   -1.2190 C   0  0  0  0  0  0  0  0  0  0  0  0
   -4.1900   15.0170    0.1410 C   0  0  0  0  0  0  0  0  0  0  0  0
   -5.4710   15.2800    0.6350 N   0  0  0  0  0  0  0  0  0  0  0  0
  1  2  1  0
  2  3  2  0
  2  4  1  0
  4  5  2  0
  4  6  1  0
  5  7  1  0
  5  8  1  0
  6  9  2  0
  8 10  2  0
  9 10  1  0
 10 11  1  0
M  END
