mac-x0321-diamond-x0805_0_A
     RDKit          3D

 26 28  0  0  0  0  0  0  0  0999 V2000
   -3.8230   15.5140    1.0570 C   0  0  0  0  0  0  0  0  0  0  0  0
   -2.5580   14.8670    0.9000 O   0  0  0  0  0  0  0  0  0  0  0  0
   -2.4070   14.2530   -0.3310 C   0  0  0  0  0  0  0  0  0  0  0  0
   -4.4610   15.3710   -0.2870 C   0  0  0  0  0  0  0  0  0  0  0  0
   -3.6040   15.3280   -1.3800 C   0  0  0  0  0  0  0  0  0  0  0  0
   -5.8290   15.2660   -0.4990 C   0  0  0  0  0  0  0  0  0  0  0  0
   -4.0740   15.1770   -2.6710 C   0  0  0  0  0  0  0  0  0  0  0  0
   -6.3170   15.1180   -1.7940 C   0  0  0  0  0  0  0  0  0  0  0  0
   -3.4170   13.3290   -0.6450 C   0  0  0  0  0  0  0  0  0  0  0  0
   -1.3780   14.4660   -1.2680 C   0  0  0  0  0  0  0  0  0  0  0  0
   -3.0810   15.1370   -3.7700 C   0  0  0  0  0  0  0  0  0  0  0  0
   -5.4420   15.0690   -2.8750 C   0  0  0  0  0  0  0  0  0  0  0  0
   -3.4150   12.6400   -1.8590 C   0  0  0  0  0  0  0  0  0  0  0  0
   -1.3570   13.7780   -2.5050 C   0  0  0  0  0  0  0  0  0  0  0  0
   -1.8880   15.6040   -3.4070 O   0  0  0  0  0  0  0  0  0  0  0  0
   -3.2760   14.7320   -4.8970 O   0  0  0  0  0  0  0  0  0  0  0  0
   -2.3930   12.8660   -2.7810 C   0  0  0  0  0  0  0  0  0  0  0  0
   -0.2590   13.9820   -3.5560 C   0  0  2  0  0  0  0  0  0  0  0  0
    1.0020   13.2080   -3.1880 C   0  0  1  0  0  0  0  0  0  0  0  0
    0.2220   15.4130   -3.8000 C   0  0  0  0  0  0  0  0  0  0  0  0
    0.6260   12.0140   -2.3750 C   0  0  0  0  0  0  0  0  0  0  0  0
    1.8230   12.9170   -4.4300 C   0  0  0  0  0  0  0  0  0  0  0  0
    1.5870   15.3310   -4.4790 C   0  0  0  0  0  0  0  0  0  0  0  0
    0.4090   10.8820   -3.0780 O   0  0  0  0  0  0  0  0  0  0  0  0
    0.4920   12.0510   -1.1780 O   0  0  0  0  0  0  0  0  0  0  0  0
    1.8080   14.1030   -5.2100 O   0  0  0  0  0  0  0  0  0  0  0  0
  1  2  1  0
  2  3  1  0
  1  4  1  0
  4  5  2  0
  4  6  1  0
  5  7  1  0
  6  8  2  0
  3  9  2  0
  3 10  1  0
  7 11  1  0
  7 12  2  0
  8 12  1  0
  9 13  1  0
 10 14  2  0
 11 15  1  0
 11 16  2  0
 13 17  2  0
 14 17  1  0
 18 14  1  1
 18 19  1  0
 18 20  1  0
 19 21  1  6
 19 22  1  0
 20 23  1  0
 21 24  1  0
 21 25  2  0
 22 26  1  0
 23 26  1  0
M  END
