mac-x0564-diamond-x0104_0_A
     RDKit          3D

 30 34  0  0  0  0  0  0  0  0999 V2000
    0.6210   13.5350   -0.9670 O   0  0  0  0  0  0  0  0  0  0  0  0
   -0.0080   13.9630   -1.9210 C   0  0  0  0  0  0  0  0  0  0  0  0
    0.5070   13.9420   -3.2010 N   0  0  0  0  0  0  0  0  0  0  0  0
   -1.3940   14.5840   -1.8740 C   0  0  1  0  0  0  0  0  0  0  0  0
   -2.2520   13.8580   -2.9060 C   0  0  2  0  0  0  0  0  0  0  0  0
   -0.2810   13.6380   -4.3690 C   0  0  0  0  0  0  0  0  0  0  0  0
   -2.2630   14.8490   -0.7630 O   0  0  0  0  0  0  0  0  0  0  0  0
   -1.6680   14.0550   -4.2430 N   0  0  0  0  0  0  0  0  0  0  0  0
   -3.4580   15.3580   -1.4150 C   0  0  1  0  0  0  0  0  0  0  0  0
   -3.6460   14.4700   -2.6560 C   0  0  2  0  0  0  0  0  0  0  0  0
   -4.9830   13.8360   -2.2940 C   0  0  2  0  0  0  0  0  0  0  0  0
   -4.7590   15.6680   -0.6140 C   0  0  0  0  0  0  0  0  0  0  0  0
   -3.7890   15.2990   -3.9350 C   0  0  0  0  0  0  0  0  0  0  0  0
   -6.0120   14.8850   -2.5620 C   0  0  0  0  0  0  0  0  0  0  0  0
   -5.9010   15.8240   -1.6280 C   0  0  0  0  0  0  0  0  0  0  0  0
   -5.3810   13.9370   -0.8480 C   0  0  0  0  0  0  0  0  0  0  0  0
   -4.4660   13.8650    0.1500 N   0  0  0  0  0  0  0  0  0  0  0  0
   -6.7390   14.1580   -0.6060 C   0  0  0  0  0  0  0  0  0  0  0  0
   -4.9390   14.0390    1.4180 C   0  0  0  0  0  0  0  0  0  0  0  0
   -7.1830   14.3250    0.6800 C   0  0  0  0  0  0  0  0  0  0  0  0
   -6.2820   14.2750    1.7220 C   0  0  0  0  0  0  0  0  0  0  0  0
   -6.8220   14.4670    2.9950 N   0  0  0  0  0  0  0  0  0  0  0  0
   -8.0060   15.0710    3.3490 C   0  0  0  0  0  0  0  0  0  0  0  0
   -8.0030   15.1540    4.7210 N   0  0  0  0  0  0  0  0  0  0  0  0
   -8.8900   15.4520    2.5850 O   0  0  0  0  0  0  0  0  0  0  0  0
   -9.1390   15.1300    5.4960 C   0  0  0  0  0  0  0  0  0  0  0  0
   -9.3440   15.2140    6.8490 C   0  0  0  0  0  0  0  0  0  0  0  0
  -10.5960   14.9620    4.6230 S   0  0  0  0  0  0  0  0  0  0  0  0
  -11.5260   15.0000    6.0640 C   0  0  0  0  0  0  0  0  0  0  0  0
  -10.7310   15.1390    7.1820 C   0  0  0  0  0  0  0  0  0  0  0  0
  1  2  2  0
  2  3  1  0
  2  4  1  0
  4  5  1  0
  3  6  1  0
  4  7  1  1
  5  8  1  6
  6  8  1  0
  7  9  1  0
  5 10  1  0
  9 10  1  0
 10 11  1  0
  9 12  1  1
 10 13  1  6
 11 14  1  0
 12 15  1  0
 14 15  2  0
 11 16  1  1
 16 17  2  0
 16 18  1  0
 17 19  1  0
 18 20  2  0
 19 21  2  0
 20 21  1  0
 21 22  1  0
 22 23  1  0
 23 24  1  0
 23 25  2  0
 24 26  1  0
 26 27  2  0
 26 28  1  0
 28 29  1  0
 27 30  1  0
 29 30  2  0
M  END
