mac-x0333-diamond-x0128_0_A
     RDKit          3D

 20 22  0  0  0  0  0  0  0  0999 V2000
   -2.5710   15.3420   -2.7050 O   0  0  0  0  0  0  0  0  0  0  0  0
   -3.4630   15.1430   -1.6850 C   0  0  0  0  0  0  0  0  0  0  0  0
   -3.0370   14.9730   -0.3530 C   0  0  0  0  0  0  0  0  0  0  0  0
   -4.8060   15.1120   -2.0190 C   0  0  0  0  0  0  0  0  0  0  0  0
   -5.7080   14.8970   -1.0010 C   0  0  0  0  0  0  0  0  0  0  0  0
   -3.9790   14.7580    0.6660 C   0  0  0  0  0  0  0  0  0  0  0  0
   -5.3210   14.7170    0.3210 C   0  0  0  0  0  0  0  0  0  0  0  0
   -7.0670   14.8340   -1.1710 O   0  0  0  0  0  0  0  0  0  0  0  0
   -6.4710   14.4990    1.1270 N   0  0  0  0  0  0  0  0  0  0  0  0
   -7.5780   14.6470    0.1720 C   0  0  0  0  0  0  0  0  0  0  0  0
   -6.5430   14.9780    2.4560 N   0  0  0  0  0  0  0  0  0  0  0  0
   -7.7510   15.2230    3.0790 C   0  0  0  0  0  0  0  0  0  0  0  0
   -8.8350   15.3540    2.5000 O   0  0  0  0  0  0  0  0  0  0  0  0
   -7.7190   15.3490    4.4380 N   0  0  0  0  0  0  0  0  0  0  0  0
   -8.5050   16.0850    5.3420 C   0  0  0  0  0  0  0  0  0  0  0  0
   -9.1580   17.2310    4.8870 C   0  0  0  0  0  0  0  0  0  0  0  0
   -8.6820   15.7490    6.6780 C   0  0  0  0  0  0  0  0  0  0  0  0
   -9.9440   18.0230    5.6510 N   0  0  0  0  0  0  0  0  0  0  0  0
   -9.4870   16.5490    7.4930 C   0  0  0  0  0  0  0  0  0  0  0  0
  -10.0890   17.6660    6.9380 C   0  0  0  0  0  0  0  0  0  0  0  0
  1  2  1  0
  2  3  2  0
  2  4  1  0
  4  5  2  0
  3  6  1  0
  5  7  1  0
  6  7  2  0
  5  8  1  0
  7  9  1  0
  8 10  1  0
  9 10  1  0
  9 11  1  0
 11 12  1  0
 12 13  2  0
 12 14  1  0
 14 15  1  0
 15 16  2  0
 15 17  1  0
 16 18  1  0
 17 19  2  0
 18 20  2  0
 19 20  1  0
M  END
