mac-x0115-mac-x0565
     RDKit          3D

 24 26  0  0  0  0  0  0  0  0999 V2000
   -1.4370   18.6040   -5.2110 C   0  0  0  0  0  0  0  0  0  0  0  0
   -0.4330   17.6420   -5.8060 C   0  0  0  0  0  0  0  0  0  0  0  0
    0.9940   18.0980   -5.5550 C   0  0  0  0  0  0  0  0  0  0  0  0
   -0.6050   16.3490   -5.2170 O   0  0  0  0  0  0  0  0  0  0  0  0
    0.5840   15.7550   -4.6730 C   0  0  0  0  0  0  0  0  0  0  0  0
    0.1760   14.5090   -3.8740 C   0  0  0  0  0  0  0  0  0  0  0  0
   -0.0720   14.7660   -2.4220 N   0  0  0  0  0  0  0  0  0  0  0  0
    0.9430   14.4110   -1.5180 C   0  0  0  0  0  0  0  0  0  0  0  0
   -1.4700   14.6090   -1.9160 C   0  0  1  0  0  0  0  0  0  0  0  0
    2.5300   14.0340   -1.9110 S   0  0  0  0  0  0  0  0  0  0  0  0
    0.6120   14.3510   -0.1760 N   0  0  0  0  0  0  0  0  0  0  0  0
   -1.6360   15.1000   -0.4920 C   0  0  2  0  0  0  0  0  0  0  0  0
   -2.6140   15.4960   -2.4800 C   0  0  2  0  0  0  0  0  0  0  0  0
   -0.5820   14.6240    0.4490 C   0  0  0  0  0  0  0  0  0  0  0  0
   -3.0150   14.6790   -0.2230 N   0  0  0  0  0  0  0  0  0  0  0  0
   -3.6180   15.5130   -1.2740 C   0  0  2  0  0  0  0  0  0  0  0  0
   -3.1750   15.0060   -3.7830 C   0  0  0  0  0  0  0  0  0  0  0  0
   -0.7610   14.5000    1.6740 O   0  0  0  0  0  0  0  0  0  0  0  0
   -5.1200   15.3260   -1.5960 C   0  0  2  0  0  0  0  0  0  0  0  0
   -4.4200   14.5550   -3.9340 C   0  0  0  0  0  0  0  0  0  0  0  0
   -5.9870   14.9260   -0.4210 C   0  0  0  0  0  0  0  0  0  0  0  0
   -5.4260   14.4650   -2.8200 C   0  0  0  0  0  0  0  0  0  0  0  0
   -5.3640   15.0130    0.7690 O   0  0  0  0  0  0  0  0  0  0  0  0
   -7.1540   14.5650   -0.4690 O   0  0  0  0  0  0  0  0  0  0  0  0
  1  2  1  0
  2  3  1  0
  2  4  1  0
  4  5  1  0
  5  6  1  0
  6  7  1  0
  7  8  1  0
  9  7  1  6
  8 10  2  0
  8 11  1  0
  9 12  1  0
  9 13  1  0
 11 14  1  0
 12 14  1  0
 12 15  1  1
 13 16  1  0
 16 15  1  1
 13 17  1  6
 14 18  2  0
 16 19  1  0
 17 20  2  0
 19 21  1  1
 19 22  1  0
 20 22  1  0
 21 23  1  0
 21 24  2  0
M  END
