mac-x0437-mac-x0567
     RDKit          3D

 26 29  0  0  0  0  0  0  0  0999 V2000
    2.7230   12.5710   -2.6320 O   0  0  0  0  0  0  0  0  0  0  0  0
    1.4860   12.6990   -3.2590 C   0  0  0  0  0  0  0  0  0  0  0  0
    0.8740   11.4230   -3.1650 O   0  0  0  0  0  0  0  0  0  0  0  0
    1.6080   13.0620   -4.7430 C   0  0  0  0  0  0  0  0  0  0  0  0
    0.6560   13.6990   -2.4630 C   0  0  0  0  0  0  0  0  0  0  0  0
    0.3000   13.2460   -5.5110 C   0  0  0  0  0  0  0  0  0  0  0  0
   -0.0540   12.9790   -1.3390 C   0  0  0  0  0  0  0  0  0  0  0  0
    0.0200   13.6870   -0.0630 N   0  0  0  0  0  0  0  0  0  0  0  0
   -0.4990   12.0470   -5.6660 N   0  0  0  0  0  0  0  0  0  0  0  0
   -1.6170   11.7320   -4.9470 C   0  0  0  0  0  0  0  0  0  0  0  0
   -0.2680   11.0350   -6.5580 C   0  0  0  0  0  0  0  0  0  0  0  0
   -1.1470   14.2070    0.3720 C   0  0  0  0  0  0  0  0  0  0  0  0
   -2.1240   10.5780   -5.3200 N   0  0  0  0  0  0  0  0  0  0  0  0
   -1.2960   10.1290   -6.3200 C   0  0  0  0  0  0  0  0  0  0  0  0
    0.7130   10.8240   -7.5280 C   0  0  0  0  0  0  0  0  0  0  0  0
   -1.4740   14.3980    1.6770 N   0  0  0  0  0  0  0  0  0  0  0  0
   -2.2420   14.6420   -0.3200 C   0  0  0  0  0  0  0  0  0  0  0  0
   -1.3630    8.9500   -7.0750 C   0  0  0  0  0  0  0  0  0  0  0  0
    0.6350    9.6450   -8.2720 C   0  0  0  0  0  0  0  0  0  0  0  0
   -2.7000   14.9200    1.8760 N   0  0  0  0  0  0  0  0  0  0  0  0
   -3.2050   15.0830    0.6480 C   0  0  0  0  0  0  0  0  0  0  0  0
   -2.3910   14.6520   -1.7040 C   0  0  0  0  0  0  0  0  0  0  0  0
   -0.3870    8.7190   -8.0520 C   0  0  0  0  0  0  0  0  0  0  0  0
   -4.4430   15.5840    0.2390 C   0  0  0  0  0  0  0  0  0  0  0  0
   -3.6440   15.1640   -2.0870 C   0  0  0  0  0  0  0  0  0  0  0  0
   -4.6320   15.6110   -1.1580 C   0  0  0  0  0  0  0  0  0  0  0  0
  2  1  1  0
  2  3  1  0
  2  4  1  0
  2  5  1  0
  4  6  1  0
  5  7  1  0
  7  8  1  0
  6  9  1  0
  9 10  1  0
  9 11  1  0
  8 12  1  0
 10 13  2  0
 11 14  2  0
 13 14  1  0
 11 15  1  0
 12 16  1  0
 12 17  2  0
 14 18  1  0
 15 19  2  0
 16 20  1  0
 17 21  1  0
 20 21  2  0
 17 22  1  0
 18 23  2  0
 19 23  1  0
 21 24  1  0
 22 25  2  0
 24 26  2  0
 25 26  1  0
M  END
