mac-x0139-mac-x0116
     RDKit          3D

 23 25  0  0  0  0  0  0  0  0999 V2000
   -1.9540   15.3800   -3.3230 C   0  0  0  0  0  0  0  0  0  0  0  0
   -0.7650   15.6160   -2.4960 N   0  0  0  0  0  0  0  0  0  0  0  0
    0.4750   14.9890   -3.0140 C   0  0  0  0  0  0  0  0  0  0  0  0
   -1.0420   15.3580   -1.1390 C   0  0  0  0  0  0  0  0  0  0  0  0
    0.2240   13.6650   -3.7430 C   0  0  0  0  0  0  0  0  0  0  0  0
   -2.3490   15.3320   -0.6480 C   0  0  0  0  0  0  0  0  0  0  0  0
   -0.0430   15.1220   -0.2600 N   0  0  0  0  0  0  0  0  0  0  0  0
    0.9040   12.5220   -3.0440 C   0  0  0  0  0  0  0  0  0  0  0  0
   -2.5200   15.0570    0.7000 C   0  0  0  0  0  0  0  0  0  0  0  0
   -0.3480   14.8710    1.0290 C   0  0  0  0  0  0  0  0  0  0  0  0
   -3.6460   15.5260   -1.2030 C   0  0  0  0  0  0  0  0  0  0  0  0
    1.7250   12.5980   -2.1530 O   0  0  0  0  0  0  0  0  0  0  0  0
    0.5100   11.3180   -3.5000 O   0  0  0  0  0  0  0  0  0  0  0  0
   -1.5540   14.8130    1.6060 N   0  0  0  0  0  0  0  0  0  0  0  0
   -3.8670   15.0750    0.9300 N   0  0  0  0  0  0  0  0  0  0  0  0
   -4.5550   15.3610   -0.2010 C   0  0  0  0  0  0  0  0  0  0  0  0
   -4.5180   14.8310    2.1420 N   0  0  0  0  0  0  0  0  0  0  0  0
   -5.9500   14.6260    1.9390 C   0  0  0  0  0  0  0  0  0  0  0  0
   -6.3650   13.2060    1.8290 C   0  0  0  0  0  0  0  0  0  0  0  0
   -6.2750   12.6210    0.5970 O   0  0  0  0  0  0  0  0  0  0  0  0
   -6.8540   12.3060    2.7470 C   0  0  0  0  0  0  0  0  0  0  0  0
   -7.0820   11.1080    2.0450 C   0  0  0  0  0  0  0  0  0  0  0  0
   -6.7130   11.3470    0.7430 C   0  0  0  0  0  0  0  0  0  0  0  0
  1  2  1  0
  2  3  1  0
  2  4  1  0
  3  5  1  0
  4  6  2  0
  4  7  1  0
  5  8  1  0
  6  9  1  0
  7 10  2  0
  6 11  1  0
  8 12  2  0
  8 13  1  0
  9 14  2  0
 10 14  1  0
  9 15  1  0
 11 16  2  0
 15 16  1  0
 15 17  1  0
 17 18  1  0
 18 19  1  0
 19 20  1  0
 19 21  2  0
 21 22  1  0
 20 23  1  0
 22 23  2  0
M  END
