mac-x0263-diamond-x0421_0_A
     RDKit          3D

 17 18  0  0  0  0  0  0  0  0999 V2000
  -11.5360   14.3150    2.2290 O   0  0  0  0  0  0  0  0  0  0  0  0
  -10.8810   15.3420    2.7950 C   0  0  0  0  0  0  0  0  0  0  0  0
  -11.4070   15.9690    3.6930 O   0  0  0  0  0  0  0  0  0  0  0  0
   -9.5330   15.5870    2.1800 C   0  0  0  0  0  0  0  0  0  0  0  0
   -9.0410   14.3690    1.4210 C   0  0  0  0  0  0  0  0  0  0  0  0
   -7.6650   14.5640    0.8970 C   0  0  0  0  0  0  0  0  0  0  0  0
   -7.3800   14.6290   -0.4400 N   0  0  0  0  0  0  0  0  0  0  0  0
   -6.5840   14.6950    1.6210 N   0  0  0  0  0  0  0  0  0  0  0  0
   -6.0310   14.8020   -0.5730 C   0  0  0  0  0  0  0  0  0  0  0  0
   -5.5560   14.8440    0.7320 C   0  0  0  0  0  0  0  0  0  0  0  0
   -5.2020   14.9160   -1.6840 C   0  0  0  0  0  0  0  0  0  0  0  0
   -4.1920   15.0170    0.9780 C   0  0  0  0  0  0  0  0  0  0  0  0
   -3.8340   15.0640   -1.4160 C   0  0  0  0  0  0  0  0  0  0  0  0
   -3.3390   15.1220   -0.1120 C   0  0  0  0  0  0  0  0  0  0  0  0
   -2.8460   15.1450   -2.4970 C   0  0  0  0  0  0  0  0  0  0  0  0
   -3.3190   15.3910   -3.7470 N   0  0  0  0  0  0  0  0  0  0  0  0
   -1.6520   14.9730   -2.2920 O   0  0  0  0  0  0  0  0  0  0  0  0
  1  2  1  0
  2  3  2  0
  2  4  1  0
  4  5  1  0
  5  6  1  0
  6  7  1  0
  6  8  2  0
  7  9  1  0
  8 10  1  0
  9 10  2  0
  9 11  1  0
 10 12  1  0
 11 13  2  0
 12 14  2  0
 13 14  1  0
 13 15  1  0
 15 16  1  0
 15 17  2  0
M  END
