mac-x0178-mac-x0188
     RDKit          3D

 20 21  0  0  0  0  0  0  0  0999 V2000
   -0.2930   18.0260   -6.4000 N   0  0  0  0  0  0  0  0  0  0  0  0
   -1.7380   17.5560   -5.7080 S   0  0  0  0  0  0  0  0  0  0  0  0
   -2.6470   17.3260   -6.8010 O   0  0  0  0  0  0  0  0  0  0  0  0
   -1.9870   18.5420   -4.6890 O   0  0  0  0  0  0  0  0  0  0  0  0
   -1.3640   15.9750   -4.9350 C   0  0  1  0  0  0  0  0  0  0  0  0
    0.1010   15.5750   -4.9370 C   0  0  0  0  0  0  0  0  0  0  0  0
   -1.8270   16.0830   -3.5020 C   0  0  0  0  0  0  0  0  0  0  0  0
    0.1680   14.1470   -4.4050 C   0  0  1  0  0  0  0  0  0  0  0  0
   -1.7190   14.8120   -2.6430 C   0  0  0  0  0  0  0  0  0  0  0  0
    1.5460   13.5390   -4.7320 C   0  0  0  0  0  0  0  0  0  0  0  0
   -0.2460   14.2160   -2.9050 C   0  0  1  0  0  0  0  0  0  0  0  0
   -3.0410   14.0850   -2.9400 C   0  0  0  0  0  0  0  0  0  0  0  0
   -1.8030   15.3390   -1.1920 C   0  0  0  0  0  0  0  0  0  0  0  0
    0.3530   13.1430   -1.9700 C   0  0  0  0  0  0  0  0  0  0  0  0
   -4.1940   14.3390   -2.2460 C   0  0  0  0  0  0  0  0  0  0  0  0
   -2.9480   15.5660   -0.5180 C   0  0  0  0  0  0  0  0  0  0  0  0
    1.6310   12.7360   -2.3470 O   0  0  0  0  0  0  0  0  0  0  0  0
   -0.3090   11.9330   -1.7820 O   0  0  0  0  0  0  0  0  0  0  0  0
    0.5520   13.7250   -0.7240 O   0  0  0  0  0  0  0  0  0  0  0  0
   -4.2930   15.3260   -1.1190 C   0  0  0  0  0  0  0  0  0  0  0  0
  2  1  1  0
  2  3  2  0
  2  4  2  0
  5  2  1  1
  5  6  1  0
  5  7  1  0
  6  8  1  0
  7  9  1  0
  8 10  1  1
  8 11  1  0
  9 11  1  0
  9 12  1  0
  9 13  1  0
 11 14  1  6
 12 15  2  0
 13 16  2  0
 14 17  1  0
 14 18  1  0
 14 19  1  0
 15 20  1  0
 16 20  1  0
M  END
