mac-x0441-diamond-x0591_0_A
     RDKit          3D

 32 34  0  0  0  0  0  0  0  0999 V2000
    0.4510   10.7580   -3.2760 O   0  0  0  0  0  0  0  0  0  0  0  0
    0.7920   12.0540   -3.4410 C   0  0  0  0  0  0  0  0  0  0  0  0
    1.0930   12.7580   -2.4840 O   0  0  0  0  0  0  0  0  0  0  0  0
    0.7680   12.6030   -4.8530 C   0  0  2  0  0  0  0  0  0  0  0  0
   -0.0420   13.8840   -4.9390 C   0  0  0  0  0  0  0  0  0  0  0  0
    0.3890   11.6800   -5.9180 N   0  0  0  0  0  0  0  0  0  0  0  0
   -1.5090   13.5980   -5.0200 N   0  0  0  0  0  0  0  0  0  0  0  0
    1.1170   11.6620   -7.0590 N   0  0  0  0  0  0  0  0  0  0  0  0
   -0.6500   10.7780   -5.9660 C   0  0  0  0  0  0  0  0  0  0  0  0
   -2.4220   14.8180   -5.0230 S   0  0  1  0  0  0  0  0  0  0  0  0
    0.5330   10.7370   -7.8500 C   0  0  0  0  0  0  0  0  0  0  0  0
   -0.5680   10.1620   -7.1950 C   0  0  0  0  0  0  0  0  0  0  0  0
   -1.6900   10.4770   -4.9440 C   0  0  0  0  0  0  0  0  0  0  0  0
    0.9710   10.3520   -9.2420 C   0  0  0  0  0  0  0  0  0  0  0  0
   -1.2830   16.0190   -4.8100 N   0  0  0  0  0  0  0  0  0  0  0  0
   -3.1730   15.3080   -6.1510 O   0  0  0  0  0  0  0  0  0  0  0  0
   -1.5060    9.1060   -7.6670 C   0  0  0  0  0  0  0  0  0  0  0  0
   -2.8830    9.7850   -5.6330 C   0  0  0  0  0  0  0  0  0  0  0  0
   -3.4800   14.7700   -3.6130 C   0  0  0  0  0  0  0  0  0  0  0  0
    1.6830    9.1950   -9.2830 F   0  0  0  0  0  0  0  0  0  0  0  0
   -0.0950   10.1650  -10.0520 F   0  0  0  0  0  0  0  0  0  0  0  0
    1.6940   11.2830   -9.8980 F   0  0  0  0  0  0  0  0  0  0  0  0
   -2.4220    8.6240   -6.5290 C   0  0  0  0  0  0  0  0  0  0  0  0
   -2.9820   14.6370   -2.3120 C   0  0  0  0  0  0  0  0  0  0  0  0
   -4.8380   14.8730   -3.8370 C   0  0  0  0  0  0  0  0  0  0  0  0
   -3.8790   14.6190   -1.2340 C   0  0  0  0  0  0  0  0  0  0  0  0
   -5.7250   14.8610   -2.7700 C   0  0  0  0  0  0  0  0  0  0  0  0
   -5.2590   14.7350   -1.4610 C   0  0  0  0  0  0  0  0  0  0  0  0
   -6.2750   14.7320   -0.3790 C   0  0  0  0  0  0  0  0  0  0  0  0
   -5.8290   14.5580    0.9090 N   0  0  0  0  0  0  0  0  0  0  0  0
   -7.4580   14.8770   -0.6600 O   0  0  0  0  0  0  0  0  0  0  0  0
   -6.7650   14.5000    2.0000 C   0  0  0  0  0  0  0  0  0  0  0  0
  1  2  1  0
  2  3  2  0
  2  4  1  0
  4  5  1  1
  4  6  1  0
  5  7  1  0
  6  8  1  0
  6  9  1  0
  7 10  2  0
  8 11  2  0
  9 12  2  0
 11 12  1  0
  9 13  1  0
 11 14  1  0
 10 15  1  1
 10 16  2  0
 12 17  1  0
 13 18  1  0
 10 19  1  0
 14 20  1  0
 14 21  1  0
 14 22  1  0
 17 23  1  0
 18 23  1  0
 19 24  2  0
 19 25  1  0
 24 26  1  0
 25 27  2  0
 26 28  2  0
 27 28  1  0
 28 29  1  0
 29 30  1  0
 29 31  2  0
 30 32  1  0
M  END
