mac-x0527-mac-x0567
     RDKit          3D

 21 23  0  0  0  0  0  0  0  0999 V2000
   -3.7560   15.4980   -3.5970 O   0  0  0  0  0  0  0  0  0  0  0  0
   -3.1050   15.0470   -2.6620 C   0  0  0  0  0  0  0  0  0  0  0  0
   -1.7920   14.6350   -2.8060 N   0  0  0  0  0  0  0  0  0  0  0  0
   -3.6510   14.8680   -1.2230 C   0  0  2  0  0  0  0  0  0  0  0  0
   -1.1030   14.7100   -4.0680 C   0  0  0  0  0  0  0  0  0  0  0  0
   -5.1110   15.3440   -1.1510 C   0  0  0  0  0  0  0  0  0  0  0  0
   -2.7030   15.4830   -0.2770 N   0  0  0  0  0  0  0  0  0  0  0  0
   -0.9740   13.3390   -4.6840 C   0  0  0  0  0  0  0  0  0  0  0  0
   -5.7780   14.8430    0.0430 N   0  0  0  0  0  0  0  0  0  0  0  0
   -2.8160   15.2750    1.0880 N   0  0  0  0  0  0  0  0  0  0  0  0
   -1.2780   15.5380   -0.5510 C   0  0  0  0  0  0  0  0  0  0  0  0
   -1.8870   12.3260   -4.3530 C   0  0  0  0  0  0  0  0  0  0  0  0
    0.0550   13.0570   -5.5960 C   0  0  0  0  0  0  0  0  0  0  0  0
   -5.2710   14.9590    1.3100 C   0  0  0  0  0  0  0  0  0  0  0  0
   -4.0180   15.1420    1.7310 C   0  0  0  0  0  0  0  0  0  0  0  0
   -0.6450   14.8450    0.6620 C   0  0  1  0  0  0  0  0  0  0  0  0
   -1.7460   14.4580    1.5380 N   0  0  0  0  0  0  0  0  0  0  0  0
    0.0940   13.6580    0.2970 N   0  0  0  0  0  0  0  0  0  0  0  0
   -1.7750   11.0560   -4.9220 C   0  0  0  0  0  0  0  0  0  0  0  0
    0.1660   11.7870   -6.1620 C   0  0  0  0  0  0  0  0  0  0  0  0
   -0.7480   10.7870   -5.8270 C   0  0  0  0  0  0  0  0  0  0  0  0
  1  2  2  0
  2  3  1  0
  4  2  1  6
  3  5  1  0
  4  6  1  0
  4  7  1  0
  5  8  1  0
  6  9  1  0
  7 10  1  0
  7 11  1  0
  8 12  2  0
  8 13  1  0
  9 14  1  0
 10 15  1  0
 14 15  2  0
 11 16  1  0
 10 17  1  0
 16 17  1  0
 16 18  1  6
 12 19  1  0
 13 20  2  0
 19 21  2  0
 20 21  1  0
M  END
