mac-x0385-mac-x0282
     RDKit          3D

 13 14  0  0  0  0  0  0  0  0999 V2000
   -5.5060   15.6080   -1.0970 C   0  0  0  0  0  0  0  0  0  0  0  0
   -4.2460   14.8860   -0.6340 C   0  0  1  0  0  0  0  0  0  0  0  0
   -3.1260   14.9530   -1.6990 C   0  0  0  0  0  0  0  0  0  0  0  0
   -3.6580   15.5520    0.6240 C   0  0  1  0  0  0  0  0  0  0  0  0
   -4.5700   15.3380    1.7630 N   0  0  0  0  0  0  0  0  0  0  0  0
   -1.9080   15.0560   -0.9400 N   0  0  0  0  0  0  0  0  0  0  0  0
   -2.1690   15.0400    0.5240 C   0  0  2  0  0  0  0  0  0  0  0  0
   -1.4910   13.9660    1.2430 N   0  0  0  0  0  0  0  0  0  0  0  0
   -0.6150   14.7830   -1.2900 C   0  0  0  0  0  0  0  0  0  0  0  0
   -0.1520   14.3100    1.5700 C   0  0  0  0  0  0  0  0  0  0  0  0
   -0.1660   13.7430   -0.6680 C   0  0  0  0  0  0  0  0  0  0  0  0
   -1.0530   13.1430    0.1770 N   0  0  0  0  0  0  0  0  0  0  0  0
    0.4610   15.5000    0.8650 C   0  0  0  0  0  0  0  0  0  0  0  0
  2  1  1  6
  2  3  1  0
  2  4  1  0
  4  5  1  1
  3  6  1  0
  4  7  1  0
  6  7  1  0
  7  8  1  6
  6  9  1  0
  8 10  1  0
  9 11  2  0
  8 12  1  0
 11 12  1  0
 10 13  1  0
M  END
