mac-x0223-diamond-x0864_0_A
     RDKit          3D

 21 22  0  0  0  0  0  0  0  0999 V2000
    1.2020   18.3450   -5.7520 C   0  0  0  0  0  0  0  0  0  0  0  0
    0.2980   18.0990   -4.6950 O   0  0  0  0  0  0  0  0  0  0  0  0
   -0.2510   16.8530   -4.6880 C   0  0  0  0  0  0  0  0  0  0  0  0
   -1.6360   16.8690   -4.7810 C   0  0  0  0  0  0  0  0  0  0  0  0
    0.4170   15.6240   -4.5970 C   0  0  0  0  0  0  0  0  0  0  0  0
   -2.2800   18.0710   -4.8590 O   0  0  0  0  0  0  0  0  0  0  0  0
   -2.3780   15.7030   -4.7860 C   0  0  0  0  0  0  0  0  0  0  0  0
   -0.3200   14.4100   -4.5970 C   0  0  0  0  0  0  0  0  0  0  0  0
    0.3900   13.0510   -4.4890 C   0  0  1  0  0  0  0  0  0  0  0  0
   -1.7200   14.4780   -4.6940 C   0  0  0  0  0  0  0  0  0  0  0  0
    0.4760   12.4660   -3.0590 C   0  0  0  0  0  0  0  0  0  0  0  0
   -0.2200   12.0300   -5.4090 N   0  0  0  0  0  0  0  0  0  0  0  0
    0.0320   11.3730   -2.7330 O   0  0  0  0  0  0  0  0  0  0  0  0
    1.0860   13.2520   -2.1400 O   0  0  0  0  0  0  0  0  0  0  0  0
   -1.2440   11.2450   -4.8990 C   0  0  0  0  0  0  0  0  0  0  0  0
    0.5820   11.5390   -6.4410 C   0  0  0  0  0  0  0  0  0  0  0  0
    1.7320   11.9270   -6.6080 O   0  0  0  0  0  0  0  0  0  0  0  0
   -1.8490   10.3240   -5.6430 C   0  0  0  0  0  0  0  0  0  0  0  0
   -0.0070   10.4770   -7.3580 C   0  0  0  0  0  0  0  0  0  0  0  0
   -1.4530   10.1070   -7.0590 C   0  0  1  0  0  0  0  0  0  0  0  0
   -1.7450    8.2280   -7.5000 Br  0  0  0  0  0  0  0  0  0  0  0  0
  1  2  1  0
  2  3  1  0
  3  4  2  0
  3  5  1  0
  4  6  1  0
  4  7  1  0
  5  8  2  0
  8  9  1  0
  7 10  2  0
  8 10  1  0
  9 11  1  1
  9 12  1  0
 11 13  2  0
 11 14  1  0
 12 15  1  0
 12 16  1  0
 16 17  2  0
 15 18  2  0
 16 19  1  0
 18 20  1  0
 19 20  1  0
 20 21  1  1
M  END
