mac-x0576-diamond-x0962_1_A
     RDKit          3D

 19 21  0  0  0  0  0  0  0  0999 V2000
    0.1790   13.5360    1.2880 N   0  0  0  0  0  0  0  0  0  0  0  0
   -0.4870   14.6270    0.7520 C   0  0  2  0  0  0  0  0  0  0  0  0
   -1.6460   14.5960    1.5490 N   0  0  0  0  0  0  0  0  0  0  0  0
   -0.7170   14.2050   -0.5670 N   0  0  0  0  0  0  0  0  0  0  0  0
   -1.6740   14.8190   -1.3100 C   0  0  0  0  0  0  0  0  0  0  0  0
   -2.7930   15.1970    0.9350 C   0  0  1  0  0  0  0  0  0  0  0  0
   -1.7570   14.6530   -2.5230 O   0  0  0  0  0  0  0  0  0  0  0  0
   -2.5870   15.7270   -0.5280 C   0  0  2  0  0  0  0  0  0  0  0  0
   -3.9950   14.4040    1.0660 N   0  0  0  0  0  0  0  0  0  0  0  0
   -5.0870   14.9310    0.4180 C   0  0  0  0  0  0  0  0  0  0  0  0
   -3.8670   15.9440   -1.2400 N   0  0  0  0  0  0  0  0  0  0  0  0
   -4.8400   16.2240   -0.1750 C   0  0  0  0  0  0  0  0  0  0  0  0
   -6.2030   14.3390    0.2380 C   0  0  0  0  0  0  0  0  0  0  0  0
   -6.1100   13.0770    0.6160 N   0  0  0  0  0  0  0  0  0  0  0  0
   -7.2040   14.8720   -0.4860 N   0  0  0  0  0  0  0  0  0  0  0  0
   -6.6200   12.7260   -0.5150 C   0  0  0  0  0  0  0  0  0  0  0  0
   -7.3930   13.8240   -1.1510 C   0  0  0  0  0  0  0  0  0  0  0  0
   -6.4580   11.4320   -0.9590 C   0  0  0  0  0  0  0  0  0  0  0  0
   -6.1940   10.4320   -1.4320 N   0  0  0  0  0  0  0  0  0  0  0  0
  2  1  1  1
  2  3  1  0
  2  4  1  0
  4  5  1  0
  6  3  1  6
  5  7  2  0
  5  8  1  0
  6  8  1  0
  6  9  1  0
  9 10  1  0
  8 11  1  6
 10 12  1  0
 11 12  1  0
 10 13  2  3
 13 14  1  0
 13 15  1  0
 14 16  2  0
 15 17  2  0
 16 17  1  0
 16 18  1  0
 18 19  3  0
M  END
