mac-x0226-mac-x0115
     RDKit          3D

 32 35  0  0  0  0  0  0  0  0999 V2000
    0.8230   10.8010   -2.3430 O   0  0  0  0  0  0  0  0  0  0  0  0
    0.2410   11.8160   -3.1300 C   0  0  0  0  0  0  0  0  0  0  0  0
   -1.0810   11.8260   -2.6800 O   0  0  0  0  0  0  0  0  0  0  0  0
    1.0250   13.0750   -2.8780 C   0  0  0  0  0  0  0  0  0  0  0  0
    0.4460   11.6740   -4.5660 C   0  0  0  0  0  0  0  0  0  0  0  0
    0.5970   14.4930   -3.3800 C   0  0  1  0  0  0  0  0  0  0  0  0
    1.4090   12.3870   -5.3130 C   0  0  0  0  0  0  0  0  0  0  0  0
   -0.1840   10.8940   -5.4830 C   0  0  0  0  0  0  0  0  0  0  0  0
    0.2230   14.8620   -4.8590 C   0  0  0  0  0  0  0  0  0  0  0  0
    1.3910   12.0820   -6.5890 N   0  0  0  0  0  0  0  0  0  0  0  0
    0.4040   11.1640   -6.6880 N   0  0  0  0  0  0  0  0  0  0  0  0
    0.0240   15.1050   -2.1910 N   0  0  0  0  0  0  0  0  0  0  0  0
   -0.7070   15.9840   -4.9650 O   0  0  0  0  0  0  0  0  0  0  0  0
    0.0730   10.5950   -7.9190 C   0  0  0  0  0  0  0  0  0  0  0  0
    0.9270   14.8470   -1.1560 C   0  0  0  0  0  0  0  0  0  0  0  0
   -1.3270   14.8880   -1.8760 C   0  0  0  0  0  0  0  0  0  0  0  0
   -0.2330   17.3460   -4.8260 C   0  0  0  0  0  0  0  0  0  0  0  0
    2.5260   14.3750   -1.4000 S   0  0  0  0  0  0  0  0  0  0  0  0
   -1.0350    9.7590   -7.9800 C   0  0  0  0  0  0  0  0  0  0  0  0
    0.8170   10.8480   -9.0620 C   0  0  0  0  0  0  0  0  0  0  0  0
    0.4820   14.9490    0.1430 N   0  0  0  0  0  0  0  0  0  0  0  0
   -1.6810   14.2500   -0.5740 C   0  0  1  0  0  0  0  0  0  0  0  0
   -2.4420   15.1650   -2.5730 C   0  0  0  0  0  0  0  0  0  0  0  0
   -1.3830   18.3000   -5.1520 C   0  0  0  0  0  0  0  0  0  0  0  0
    0.9280   17.6270   -5.7690 C   0  0  0  0  0  0  0  0  0  0  0  0
   -1.3910    9.1820   -9.1940 C   0  0  0  0  0  0  0  0  0  0  0  0
    0.4660   10.2770  -10.2710 C   0  0  0  0  0  0  0  0  0  0  0  0
   -0.8230   14.7520    0.5620 C   0  0  0  0  0  0  0  0  0  0  0  0
   -3.1560   14.3420   -0.4690 N   0  0  0  0  0  0  0  0  0  0  0  0
   -3.4990   14.8140   -1.6300 C   0  0  0  0  0  0  0  0  0  0  0  0
   -1.1890   14.9340    1.7170 O   0  0  0  0  0  0  0  0  0  0  0  0
   -0.6390    9.4430  -10.3370 C   0  0  0  0  0  0  0  0  0  0  0  0
  2  1  1  0
  2  3  1  0
  2  4  1  0
  2  5  1  0
  6  4  1  1
  5  7  1  0
  5  8  2  0
  6  9  1  0
  7 10  2  0
  8 11  1  0
 10 11  1  0
  6 12  1  0
  9 13  1  0
 11 14  1  0
 12 15  1  0
 12 16  1  0
 13 17  1  0
 15 18  2  0
 14 19  2  0
 14 20  1  0
 15 21  1  0
 16 22  1  0
 16 23  2  0
 17 24  1  0
 17 25  1  0
 19 26  1  0
 20 27  2  0
 21 28  1  0
 22 28  1  0
 22 29  1  1
 23 30  1  0
 29 30  2  0
 28 31  2  0
 26 32  2  0
 27 32  1  0
M  END
