mac-x0588-mac-x0371
     RDKit          3D

 27 30  0  0  0  0  0  0  0  0999 V2000
   -4.2830   15.6060    1.5000 N   0  0  0  0  0  0  0  0  0  0  0  0
   -3.8290   14.8570    0.3360 C   0  0  2  0  0  0  0  0  0  0  0  0
   -2.3180   14.5560    0.2640 C   0  0  1  0  0  0  0  0  0  0  0  0
   -4.3100   15.5480   -0.8380 N   0  0  0  0  0  0  0  0  0  0  0  0
   -3.8340   14.9750   -2.0960 C   0  0  0  0  0  0  0  0  0  0  0  0
   -1.7330   15.2310   -0.9430 C   0  0  2  0  0  0  0  0  0  0  0  0
   -1.4630   15.1100    1.3200 N   0  0  0  0  0  0  0  0  0  0  0  0
   -2.3950   14.8130   -2.1640 N   0  0  0  0  0  0  0  0  0  0  0  0
   -0.3120   14.8840   -0.7500 N   0  0  0  0  0  0  0  0  0  0  0  0
   -0.1450   14.8940    0.7160 C   0  0  0  0  0  0  0  0  0  0  0  0
   -1.8180   15.0420   -3.5090 C   0  0  1  0  0  0  0  0  0  0  0  0
   -1.4010   16.5310   -3.8970 C   0  0  2  0  0  0  0  0  0  0  0  0
   -0.4290   14.7080   -3.7640 C   0  0  0  0  0  0  0  0  0  0  0  0
   -2.3280   17.4250   -4.5230 O   0  0  0  0  0  0  0  0  0  0  0  0
   -0.2010   16.5050   -4.8770 C   0  0  0  0  0  0  0  0  0  0  0  0
    0.3630   13.5550   -3.9630 C   0  0  0  0  0  0  0  0  0  0  0  0
    0.0960   15.9840   -3.7900 C   0  0  0  0  0  0  0  0  0  0  0  0
   -0.1090   12.1060   -3.9610 C   0  0  0  0  0  0  0  0  0  0  0  0
   -0.1420   17.8960   -5.4240 C   0  0  0  0  0  0  0  0  0  0  0  0
   -1.6060   18.2680   -5.4480 C   0  0  0  0  0  0  0  0  0  0  0  0
    1.3630   16.2340   -4.0070 C   0  0  0  0  0  0  0  0  0  0  0  0
    1.7090   13.8800   -4.1840 C   0  0  0  0  0  0  0  0  0  0  0  0
    2.9750   12.7820   -4.4580 Cl  0  0  0  0  0  0  0  0  0  0  0  0
    0.0690   11.3480   -2.6590 C   0  0  0  0  0  0  0  0  0  0  0  0
    2.1490   15.1750   -4.2010 C   0  0  0  0  0  0  0  0  0  0  0  0
    0.3370   12.1210   -1.5800 O   0  0  0  0  0  0  0  0  0  0  0  0
   -0.0040   10.1410   -2.5160 O   0  0  0  0  0  0  0  0  0  0  0  0
  2  1  1  1
  2  3  1  0
  2  4  1  0
  4  5  1  0
  3  6  1  0
  3  7  1  1
  5  8  1  0
  6  8  1  0
  6  9  1  6
  7 10  1  0
  9 10  1  0
  8 11  1  0
 11 12  1  0
 11 13  1  1
 12 14  1  0
 12 15  1  6
 13 16  2  0
 13 17  1  0
 16 18  1  0
 15 19  1  0
 14 20  1  0
 19 20  1  0
 17 21  2  0
 16 22  1  0
 22 23  1  0
 18 24  1  0
 21 25  1  0
 22 25  2  0
 24 26  1  0
 24 27  2  0
M  END
