mac-x0576-diamond-x0592_0_A
     RDKit          3D

 17 19  0  0  0  0  0  0  0  0999 V2000
    0.2140   14.2930    1.9630 N   0  0  0  0  0  0  0  0  0  0  0  0
   -0.8020   13.9930    1.0470 C   0  0  1  0  0  0  0  0  0  0  0  0
   -2.0160   14.2530    1.7720 N   0  0  0  0  0  0  0  0  0  0  0  0
   -0.6270   14.6160   -0.2190 N   0  0  0  0  0  0  0  0  0  0  0  0
   -1.7920   14.2340   -0.9460 C   0  0  2  0  0  0  0  0  0  0  0  0
   -3.2630   14.1000    1.0470 C   0  0  2  0  0  0  0  0  0  0  0  0
   -1.8780   14.9330   -2.2130 N   0  0  0  0  0  0  0  0  0  0  0  0
   -3.0220   14.7890   -0.2640 C   0  0  2  0  0  0  0  0  0  0  0  0
   -4.4910   14.6870    1.5580 N   0  0  0  0  0  0  0  0  0  0  0  0
   -3.0910   15.6250   -1.9000 C   0  0  1  0  0  0  0  0  0  0  0  0
   -5.5530   14.8310    0.6610 C   0  0  0  0  0  0  0  0  0  0  0  0
   -3.9810   14.7200   -1.3280 N   0  0  0  0  0  0  0  0  0  0  0  0
   -6.8110   14.6290    0.8830 N   0  0  0  0  0  0  0  0  0  0  0  0
   -2.6680   16.2080   -0.6750 N   0  0  0  0  0  0  0  0  0  0  0  0
   -5.2300   15.2850   -0.7930 C   0  0  0  0  0  0  0  0  0  0  0  0
   -7.3510   14.1980    2.1630 C   0  0  0  0  0  0  0  0  0  0  0  0
   -7.1660   15.0560    3.2770 O   0  0  0  0  0  0  0  0  0  0  0  0
  2  1  1  1
  2  3  1  0
  2  4  1  0
  5  4  1  1
  6  3  1  1
  5  7  1  0
  5  8  1  0
  6  8  1  0
  6  9  1  0
  7 10  1  0
  9 11  1  0
  8 12  1  6
 10 12  1  0
 11 13  2  3
 10 14  1  1
 11 15  1  0
 12 15  1  0
 13 16  1  0
 16 17  1  0
M  END
