mac-x0361-mac-x0394
     RDKit          3D

 23 24  0  0  0  0  0  0  0  0999 V2000
   -6.4080   14.8640    2.0090 N   0  0  0  0  0  0  0  0  0  0  0  0
   -6.6730   14.7180    0.6750 C   0  0  0  0  0  0  0  0  0  0  0  0
   -7.8160   14.5150    0.2880 O   0  0  0  0  0  0  0  0  0  0  0  0
   -5.5620   14.8210   -0.2950 C   0  0  0  0  0  0  0  0  0  0  0  0
   -4.2060   14.7590    0.0520 C   0  0  0  0  0  0  0  0  0  0  0  0
   -5.9400   14.9830   -1.6180 C   0  0  0  0  0  0  0  0  0  0  0  0
   -3.2290   14.8510   -0.9470 C   0  0  0  0  0  0  0  0  0  0  0  0
   -4.9780   15.0690   -2.5860 C   0  0  0  0  0  0  0  0  0  0  0  0
   -3.6360   15.0010   -2.2680 C   0  0  0  0  0  0  0  0  0  0  0  0
   -2.9060   15.0920   -3.3750 O   0  0  0  0  0  0  0  0  0  0  0  0
   -3.6450   14.7470   -4.5440 C   0  0  0  0  0  0  0  0  0  0  0  0
   -2.9860   15.4110   -5.6970 C   0  0  0  0  0  0  0  0  0  0  0  0
   -1.5520   15.5040   -5.3020 C   0  0  0  0  0  0  0  0  0  0  0  0
   -0.8280   14.3430   -4.9800 C   0  0  0  0  0  0  0  0  0  0  0  0
   -0.9340   16.7330   -5.2560 C   0  0  0  0  0  0  0  0  0  0  0  0
    0.5220   14.4170   -4.6120 C   0  0  0  0  0  0  0  0  0  0  0  0
    0.3890   16.8070   -4.8970 C   0  0  0  0  0  0  0  0  0  0  0  0
    1.0870   18.3430   -4.8700 Cl  0  0  0  0  0  0  0  0  0  0  0  0
    1.2990   13.1660   -4.2670 C   0  0  0  0  0  0  0  0  0  0  0  0
    1.1310   15.6700   -4.5730 C   0  0  0  0  0  0  0  0  0  0  0  0
    0.8310   12.4970   -2.9950 C   0  0  0  0  0  0  0  0  0  0  0  0
    0.2020   11.3260   -3.2350 O   0  0  0  0  0  0  0  0  0  0  0  0
    0.9590   12.8840   -1.8490 O   0  0  0  0  0  0  0  0  0  0  0  0
  1  2  1  0
  2  3  2  0
  2  4  1  0
  4  5  2  0
  4  6  1  0
  5  7  1  0
  6  8  2  0
  7  9  2  0
  8  9  1  0
  9 10  1  0
 10 11  1  0
 11 12  1  0
 12 13  1  0
 13 14  2  0
 13 15  1  0
 14 16  1  0
 15 17  2  0
 17 18  1  0
 16 19  1  0
 16 20  2  0
 17 20  1  0
 19 21  1  0
 21 22  1  0
 21 23  2  0
M  END
