mac-x0397-mac-x0305
     RDKit          3D

 15 16  0  0  0  0  0  0  0  0999 V2000
   -6.0510   15.1440   -2.2670 Cl  0  0  0  0  0  0  0  0  0  0  0  0
   -4.5870   14.9210   -1.4130 C   0  0  0  0  0  0  0  0  0  0  0  0
   -4.7120   14.8540   -0.0090 C   0  0  0  0  0  0  0  0  0  0  0  0
   -3.3360   14.8040   -2.0560 C   0  0  0  0  0  0  0  0  0  0  0  0
   -5.8640   14.9350    0.7700 N   0  0  0  0  0  0  0  0  0  0  0  0
   -3.5420   14.6800    0.7260 C   0  0  0  0  0  0  0  0  0  0  0  0
   -2.1770   14.6160   -1.2690 C   0  0  0  0  0  0  0  0  0  0  0  0
   -0.7900   14.4500   -1.8090 C   0  0  0  0  0  0  0  0  0  0  0  0
   -5.5660   14.8260    2.0450 C   0  0  0  0  0  0  0  0  0  0  0  0
   -3.9150   14.6320    2.3980 S   0  0  0  0  0  0  0  0  0  0  0  0
   -2.2820   14.5630    0.1340 C   0  0  0  0  0  0  0  0  0  0  0  0
   -6.4740   14.8590    3.0330 N   0  0  0  0  0  0  0  0  0  0  0  0
    0.0470   13.7210   -1.0330 O   0  0  0  0  0  0  0  0  0  0  0  0
   -0.4390   14.9200   -2.8760 O   0  0  0  0  0  0  0  0  0  0  0  0
   -1.1950   14.3930    0.9760 O   0  0  0  0  0  0  0  0  0  0  0  0
  1  2  1  0
  2  3  2  0
  2  4  1  0
  3  5  1  0
  3  6  1  0
  4  7  2  0
  7  8  1  0
  5  9  2  0
  6 10  1  0
  9 10  1  0
  6 11  2  0
  7 11  1  0
  9 12  1  0
  8 13  1  0
  8 14  2  0
 11 15  1  0
M  END
