mac-x0455-mac-x0206
     RDKit          3D

 24 25  0  0  0  0  0  0  0  0999 V2000
   -2.4010   14.3180   -2.9800 C   0  0  0  0  0  0  0  0  0  0  0  0
   -0.9320   14.1020   -3.3830 C   0  0  1  0  0  0  0  0  0  0  0  0
   -0.5010   15.2500   -4.1420 O   0  0  0  0  0  0  0  0  0  0  0  0
   -0.0010   13.9530   -2.0790 C   0  0  0  0  0  0  0  0  0  0  0  0
   -0.8760   12.9300   -4.3860 C   0  0  0  0  0  0  0  0  0  0  0  0
    0.7430   15.1420   -1.8400 O   0  0  0  0  0  0  0  0  0  0  0  0
    0.9100   12.8700   -2.2340 O   0  0  0  0  0  0  0  0  0  0  0  0
   -0.8180   13.6030   -0.8010 C   0  0  0  0  0  0  0  0  0  0  0  0
   -1.9300   11.9880   -4.3820 C   0  0  0  0  0  0  0  0  0  0  0  0
    0.1630   12.7270   -5.3120 C   0  0  0  0  0  0  0  0  0  0  0  0
   -1.7860   14.7080   -0.3930 C   0  0  0  0  0  0  0  0  0  0  0  0
   -1.9460   10.9010   -5.2540 C   0  0  0  0  0  0  0  0  0  0  0  0
    0.1470   11.6400   -6.1860 C   0  0  0  0  0  0  0  0  0  0  0  0
   -3.1520   14.2980   -0.1580 N   0  0  0  0  0  0  0  0  0  0  0  0
   -0.9030   10.7270   -6.1590 C   0  0  0  0  0  0  0  0  0  0  0  0
   -4.2530   14.8970   -0.7540 C   0  0  0  0  0  0  0  0  0  0  0  0
   -4.2260   15.4440   -1.8520 O   0  0  0  0  0  0  0  0  0  0  0  0
   -5.5420   14.8280   -0.0060 C   0  0  0  0  0  0  0  0  0  0  0  0
   -6.8040   14.7220   -0.6040 C   0  0  0  0  0  0  0  0  0  0  0  0
   -5.4760   14.8700    1.3940 C   0  0  0  0  0  0  0  0  0  0  0  0
   -6.9330   14.6800   -1.9660 O   0  0  0  0  0  0  0  0  0  0  0  0
   -7.9660   14.6520    0.1690 C   0  0  0  0  0  0  0  0  0  0  0  0
   -6.6440   14.7980    2.1690 C   0  0  0  0  0  0  0  0  0  0  0  0
   -7.8840   14.6880    1.5550 C   0  0  0  0  0  0  0  0  0  0  0  0
  2  1  1  1
  2  3  1  0
  2  4  1  0
  2  5  1  0
  4  6  1  0
  4  7  1  0
  4  8  1  0
  5  9  2  0
  5 10  1  0
  8 11  1  0
  9 12  1  0
 10 13  2  0
 11 14  1  0
 12 15  2  0
 13 15  1  0
 14 16  1  0
 16 17  2  0
 16 18  1  0
 18 19  2  0
 18 20  1  0
 19 21  1  0
 19 22  1  0
 20 23  2  0
 22 24  2  0
 23 24  1  0
M  END
