mac-x0360-mac-x0255
     RDKit          3D

 27 29  0  0  0  0  0  0  0  0999 V2000
   -7.6520   11.6200    1.7260 Cl  0  0  0  0  0  0  0  0  0  0  0  0
   -6.4460   11.8840    0.5260 C   0  0  0  0  0  0  0  0  0  0  0  0
   -6.2680   10.9440   -0.4840 C   0  0  0  0  0  0  0  0  0  0  0  0
   -5.6600   13.0330    0.5740 C   0  0  0  0  0  0  0  0  0  0  0  0
   -4.6840   13.2360   -0.4070 C   0  0  0  0  0  0  0  0  0  0  0  0
   -5.2910   11.1490   -1.4520 C   0  0  0  0  0  0  0  0  0  0  0  0
   -5.0720    9.9720   -2.6910 Cl  0  0  0  0  0  0  0  0  0  0  0  0
   -3.6770   14.7090   -0.3660 S   0  0  0  0  0  0  0  0  0  0  0  0
   -4.4900   12.2910   -1.4250 C   0  0  0  0  0  0  0  0  0  0  0  0
   -2.5320   14.4170   -1.5610 N   0  0  0  0  0  0  0  0  0  0  0  0
   -4.5140   15.8050   -0.7940 O   0  0  0  0  0  0  0  0  0  0  0  0
   -2.9760   14.7490    0.8940 O   0  0  0  0  0  0  0  0  0  0  0  0
   -1.0980   14.6170   -1.2550 C   0  0  0  0  0  0  0  0  0  0  0  0
   -0.3970   13.2750   -1.0210 C   0  0  0  0  0  0  0  0  0  0  0  0
    0.8080   13.1190   -1.8060 O   0  0  0  0  0  0  0  0  0  0  0  0
    0.7820   12.2080   -2.8170 C   0  0  0  0  0  0  0  0  0  0  0  0
    0.3630   11.0610   -2.7010 O   0  0  0  0  0  0  0  0  0  0  0  0
    1.3460   12.7980   -4.0910 C   0  0  0  0  0  0  0  0  0  0  0  0
    0.6560   14.0800   -4.4430 C   0  0  0  0  0  0  0  0  0  0  0  0
    1.2220   15.3230   -4.6180 C   0  0  0  0  0  0  0  0  0  0  0  0
   -1.0320   14.1300   -4.6890 S   0  0  0  0  0  0  0  0  0  0  0  0
    0.2720   16.3340   -4.9690 C   0  0  0  0  0  0  0  0  0  0  0  0
   -1.0230   15.8160   -5.0420 C   0  0  0  0  0  0  0  0  0  0  0  0
    0.4550   17.7080   -5.2390 C   0  0  0  0  0  0  0  0  0  0  0  0
   -2.1270   16.6240   -5.3740 C   0  0  0  0  0  0  0  0  0  0  0  0
   -0.6360   18.5050   -5.5730 C   0  0  0  0  0  0  0  0  0  0  0  0
   -1.9070   17.9760   -5.6410 C   0  0  0  0  0  0  0  0  0  0  0  0
  1  2  1  0
  2  3  2  0
  2  4  1  0
  4  5  2  0
  3  6  1  0
  6  7  1  0
  5  8  1  0
  5  9  1  0
  6  9  2  0
  8 10  1  0
  8 11  2  0
  8 12  2  0
 10 13  1  0
 13 14  1  0
 14 15  1  0
 15 16  1  0
 16 17  2  0
 16 18  1  0
 18 19  1  0
 19 20  2  0
 19 21  1  0
 20 22  1  0
 21 23  1  0
 22 23  2  0
 22 24  1  0
 23 25  1  0
 24 26  2  0
 25 27  2  0
 26 27  1  0
M  END
