mac-x0381-diamond-x0742_0_A
     RDKit          3D

 32 36  0  0  0  0  0  0  0  0999 V2000
   -8.2620   13.3110    4.4130 N   0  0  0  0  0  0  0  0  0  0  0  0
   -8.1900   14.5250    3.6380 C   0  0  0  0  0  0  0  0  0  0  0  0
   -7.5620   15.3830    4.5900 N   0  0  0  0  0  0  0  0  0  0  0  0
   -7.2240   14.2270    2.4600 C   0  0  0  0  0  0  0  0  0  0  0  0
   -9.5220   14.9050    3.0430 C   0  0  0  0  0  0  0  0  0  0  0  0
   -7.8290   14.1140    1.0470 C   0  0  0  0  0  0  0  0  0  0  0  0
   -9.5420   15.9190    2.0860 C   0  0  0  0  0  0  0  0  0  0  0  0
  -10.7280   14.2880    3.3650 C   0  0  0  0  0  0  0  0  0  0  0  0
   -7.5250   12.8440    0.2520 C   0  0  0  0  0  0  0  0  0  0  0  0
  -10.6900   16.3220    1.4250 C   0  0  0  0  0  0  0  0  0  0  0  0
  -11.9000   14.6690    2.7130 C   0  0  0  0  0  0  0  0  0  0  0  0
   -6.1190   12.2690    0.4260 C   0  0  0  0  0  0  0  0  0  0  0  0
  -11.8880   15.6810    1.7270 C   0  0  0  0  0  0  0  0  0  0  0  0
  -10.6650   17.3420    0.4630 C   0  0  0  0  0  0  0  0  0  0  0  0
   -5.1450   12.7290   -0.6510 C   0  0  0  0  0  0  0  0  0  0  0  0
  -13.0400   16.0720    1.0240 C   0  0  0  0  0  0  0  0  0  0  0  0
  -11.8230   17.7260   -0.2060 C   0  0  0  0  0  0  0  0  0  0  0  0
   -4.6380   11.9060   -1.4260 O   0  0  0  0  0  0  0  0  0  0  0  0
  -13.0130   17.0840    0.0750 C   0  0  0  0  0  0  0  0  0  0  0  0
   -4.8100   14.2400   -0.8030 C   0  0  2  0  0  0  0  0  0  0  0  0
   -4.9590   15.0130    0.5230 C   0  0  0  0  0  0  0  0  0  0  0  0
   -5.6540   14.7510   -1.9800 C   0  0  0  0  0  0  0  0  0  0  0  0
   -3.4620   14.6510   -1.3690 C   0  0  2  0  0  0  0  0  0  0  0  0
   -3.4620   13.9430   -2.7190 C   0  0  0  0  0  0  0  0  0  0  0  0
   -2.3020   14.4530   -0.4410 C   0  0  0  0  0  0  0  0  0  0  0  0
   -3.8830   14.5860    1.5330 C   0  0  0  0  0  0  0  0  0  0  0  0
   -4.8810   14.2520   -3.2140 C   0  0  0  0  0  0  0  0  0  0  0  0
   -1.0010   14.2980   -0.9220 C   0  0  0  0  0  0  0  0  0  0  0  0
   -2.5070   14.4360    0.9370 C   0  0  0  0  0  0  0  0  0  0  0  0
   -1.5020   14.2880    1.8190 N   0  0  0  0  0  0  0  0  0  0  0  0
    0.0410   14.1390   -0.0210 C   0  0  0  0  0  0  0  0  0  0  0  0
   -0.2670   14.1420    1.3300 C   0  0  0  0  0  0  0  0  0  0  0  0
  2  1  1  0
  2  3  1  0
  2  4  1  0
  2  5  1  0
  4  6  1  0
  5  7  2  0
  5  8  1  0
  6  9  1  0
  7 10  1  0
  8 11  2  0
  9 12  1  0
 10 13  2  0
 11 13  1  0
 10 14  1  0
 12 15  1  0
 13 16  1  0
 14 17  2  0
 15 18  2  0
 16 19  2  0
 17 19  1  0
 20 15  1  1
 20 21  1  0
 20 22  1  0
 20 23  1  0
 23 24  1  6
 23 25  1  0
 21 26  1  0
 22 27  1  0
 24 27  1  0
 25 28  1  0
 25 29  2  0
 26 29  1  0
 29 30  1  0
 28 31  2  0
 30 32  2  0
 31 32  1  0
M  END
