mac-x1493-mac-x0116
     RDKit          3D

 24 27  0  0  0  0  0  0  0  0999 V2000
   -1.0780   14.9570   -2.0370 O   0  0  0  0  0  0  0  0  0  0  0  0
   -2.3040   15.1460   -2.5700 C   0  0  0  0  0  0  0  0  0  0  0  0
   -2.4100   15.5530   -3.7170 O   0  0  0  0  0  0  0  0  0  0  0  0
   -3.4220   14.7820   -1.6150 C   0  0  1  0  0  0  0  0  0  0  0  0
   -3.1260   14.9350   -0.0800 C   0  0  1  0  0  0  0  0  0  0  0  0
   -4.7210   15.4490   -2.0380 C   0  0  0  0  0  0  0  0  0  0  0  0
   -4.5250   14.9050    0.7340 C   0  0  2  0  0  0  0  0  0  0  0  0
   -5.9500   14.8840   -1.4770 N   0  0  0  0  0  0  0  0  0  0  0  0
   -2.2110   13.7880    0.3150 C   0  0  0  0  0  0  0  0  0  0  0  0
   -2.1250   15.9880    0.3360 N   0  0  0  0  0  0  0  0  0  0  0  0
   -4.0900   13.9290    1.6730 N   0  0  0  0  0  0  0  0  0  0  0  0
   -5.6950   14.2460   -0.1720 C   0  0  2  0  0  0  0  0  0  0  0  0
   -4.9580   15.4950    2.0310 C   0  0  0  0  0  0  0  0  0  0  0  0
   -0.9070   14.1420   -0.2130 N   0  0  0  0  0  0  0  0  0  0  0  0
   -0.7790   15.4160    0.4070 C   0  0  0  0  0  0  0  0  0  0  0  0
   -4.4780   12.5960    1.6750 C   0  0  0  0  0  0  0  0  0  0  0  0
   -6.9860   14.0080    0.5700 C   0  0  0  0  0  0  0  0  0  0  0  0
   -6.1840   15.2140    2.5300 C   0  0  0  0  0  0  0  0  0  0  0  0
   -7.1800   14.4480    1.8220 C   0  0  0  0  0  0  0  0  0  0  0  0
   -5.8770   12.1940    1.7270 C   0  0  0  0  0  0  0  0  0  0  0  0
   -6.3920   11.7950    0.5390 O   0  0  0  0  0  0  0  0  0  0  0  0
   -6.7970   12.0970    2.7310 C   0  0  0  0  0  0  0  0  0  0  0  0
   -7.9580   11.5950    2.1220 C   0  0  0  0  0  0  0  0  0  0  0  0
   -7.6590   11.4290    0.7910 C   0  0  0  0  0  0  0  0  0  0  0  0
  1  2  1  0
  2  3  2  0
  4  2  1  6
  4  5  1  0
  4  6  1  0
  5  7  1  0
  6  8  1  0
  5  9  1  1
  5 10  1  0
  7 11  1  1
  7 12  1  0
  8 12  1  0
  7 13  1  0
  9 14  1  0
 10 15  1  0
 14 15  1  0
 11 16  1  0
 12 17  1  1
 13 18  2  0
 17 19  2  0
 18 19  1  0
 16 20  1  0
 20 21  1  0
 20 22  2  0
 22 23  1  0
 21 24  1  0
 23 24  2  0
M  END
