mac-x0131-mac-x0302
     RDKit          3D

 30 34  0  0  0  0  0  0  0  0999 V2000
   -3.8040   14.7310   -2.8760 C   0  0  0  0  0  0  0  0  0  0  0  0
   -3.6500   14.7240   -4.1160 C   0  0  0  0  0  0  0  0  0  0  0  0
   -2.2050   14.8000   -4.1720 N   0  0  0  0  0  0  0  0  0  0  0  0
   -3.0650   14.7770   -1.8150 C   0  0  0  0  0  0  0  0  0  0  0  0
   -3.5160   15.0880   -0.6150 C   0  0  0  0  0  0  0  0  0  0  0  0
   -1.7760   14.4700   -1.8460 N   0  0  0  0  0  0  0  0  0  0  0  0
   -4.8320   14.5790   -3.1650 C   0  0  0  0  0  0  0  0  0  0  0  0
   -4.8700   15.5290   -0.1940 C   0  0  0  0  0  0  0  0  0  0  0  0
   -1.2140   14.1820   -3.1600 C   0  0  2  0  0  0  0  0  0  0  0  0
   -2.4630   14.8860    0.1970 C   0  0  0  0  0  0  0  0  0  0  0  0
   -1.3430   14.5070   -0.5460 C   0  0  0  0  0  0  0  0  0  0  0  0
   -6.1740   14.9390   -3.2400 C   0  0  0  0  0  0  0  0  0  0  0  0
   -4.4250   13.9490   -1.9410 C   0  0  0  0  0  0  0  0  0  0  0  0
    0.2010   14.8320   -3.2830 C   0  0  0  0  0  0  0  0  0  0  0  0
   -2.4150   15.0000    1.5030 C   0  0  0  0  0  0  0  0  0  0  0  0
   -0.1490   14.2490   -0.0200 N   0  0  0  0  0  0  0  0  0  0  0  0
   -0.9450   12.7050   -3.3520 C   0  0  0  0  0  0  0  0  0  0  0  0
   -7.0340   14.7060   -2.1430 C   0  0  0  0  0  0  0  0  0  0  0  0
   -5.2930   13.7100   -0.8620 C   0  0  0  0  0  0  0  0  0  0  0  0
   -3.5360   15.3780    2.2130 N   0  0  0  0  0  0  0  0  0  0  0  0
    0.6310   15.0710   -4.5520 O   0  0  0  0  0  0  0  0  0  0  0  0
    0.9480   15.1080   -2.3540 O   0  0  0  0  0  0  0  0  0  0  0  0
   -8.3200   15.1120   -2.2950 O   0  0  0  0  0  0  0  0  0  0  0  0
   -1.2830   14.7300    2.0810 N   0  0  0  0  0  0  0  0  0  0  0  0
   -0.2450   14.3880    1.3210 C   0  0  0  0  0  0  0  0  0  0  0  0
    0.1360   11.8920   -3.0400 C   0  0  0  0  0  0  0  0  0  0  0  0
   -1.9150   11.9510   -3.9550 O   0  0  0  0  0  0  0  0  0  0  0  0
   -6.6120   14.1020   -0.9630 C   0  0  0  0  0  0  0  0  0  0  0  0
   -1.4520   10.6820   -4.0200 C   0  0  0  0  0  0  0  0  0  0  0  0
   -0.1990   10.5960   -3.4720 C   0  0  0  0  0  0  0  0  0  0  0  0
  1  2  2  0
  2  3  1  0
  1  4  1  0
  4  5  2  0
  4  6  1  0
  2  7  1  0
  5  8  1  0
  3  9  1  0
  6  9  1  0
  5 10  1  0
  6 11  1  0
 10 11  2  0
  7 12  2  0
  7 13  1  0
  9 14  1  1
 10 15  1  0
 11 16  1  0
  9 17  1  0
 12 18  1  0
 13 19  2  0
 15 20  1  0
 14 21  1  0
 14 22  2  0
 18 23  1  0
 15 24  2  0
 16 25  2  0
 24 25  1  0
 17 26  2  0
 17 27  1  0
 18 28  2  0
 19 28  1  0
 27 29  1  0
 26 30  1  0
 29 30  2  0
M  END
