mac-x0116-diamond-x0969_0_A
     RDKit          3D

 19 22  0  0  0  0  0  0  0  0999 V2000
   -4.1890   13.7650    1.7940 N   0  0  0  0  0  0  0  0  0  0  0  0
   -3.6430   14.4100    0.6780 C   0  0  0  0  0  0  0  0  0  0  0  0
   -4.5790   14.8270   -0.4510 C   0  0  1  0  0  0  0  0  0  0  0  0
   -2.3670   14.6980    0.5920 C   0  0  0  0  0  0  0  0  0  0  0  0
   -3.8440   15.6400   -1.5300 C   0  0  0  0  0  0  0  0  0  0  0  0
   -1.8020   15.3740   -0.5590 C   0  0  0  0  0  0  0  0  0  0  0  0
   -1.3660   14.4530    1.4810 N   0  0  0  0  0  0  0  0  0  0  0  0
   -5.2880   13.8070   -1.3120 N   0  0  0  0  0  0  0  0  0  0  0  0
   -5.6780   15.3330    0.3550 N   0  0  0  0  0  0  0  0  0  0  0  0
   -2.5540   15.8480   -1.5830 N   0  0  0  0  0  0  0  0  0  0  0  0
   -0.5240   15.4540   -0.4180 N   0  0  0  0  0  0  0  0  0  0  0  0
   -0.3330   14.8990    0.8380 C   0  0  0  0  0  0  0  0  0  0  0  0
   -6.1060   13.9700    0.3840 C   0  0  2  0  0  0  0  0  0  0  0  0
   -6.6690   13.8350   -0.8760 N   0  0  0  0  0  0  0  0  0  0  0  0
   -6.6170   13.0750    1.4180 C   0  0  0  0  0  0  0  0  0  0  0  0
   -6.8040   11.8440    0.8600 O   0  0  0  0  0  0  0  0  0  0  0  0
   -6.9550   13.0520    2.7400 C   0  0  0  0  0  0  0  0  0  0  0  0
   -7.3680   11.7180    3.0010 C   0  0  0  0  0  0  0  0  0  0  0  0
   -7.2570   11.0330    1.8190 C   0  0  0  0  0  0  0  0  0  0  0  0
  1  2  1  0
  3  2  1  0
  2  4  2  0
  3  5  1  6
  4  6  1  0
  4  7  1  0
  3  8  1  0
  3  9  1  0
  5 10  2  0
  6 10  1  0
  6 11  2  0
  7 12  2  0
 11 12  1  0
  9 13  1  0
  8 14  1  0
 13 14  1  0
 13 15  1  1
 15 16  1  0
 15 17  2  0
 17 18  1  0
 16 19  1  0
 18 19  2  0
M  END
