mac-x0341-diamond-x0805_0_A
     RDKit          3D

 21 23  0  0  0  0  0  0  0  0999 V2000
   -6.5250   14.6250    1.7520 N   0  0  0  0  0  0  0  0  0  0  0  0
   -5.6380   14.2970    0.6630 C   0  0  2  0  0  0  0  0  0  0  0  0
   -4.2670   14.6830    0.9320 N   0  0  0  0  0  0  0  0  0  0  0  0
   -6.1000   14.9680   -0.4770 N   0  0  0  0  0  0  0  0  0  0  0  0
   -5.4330   14.8750   -1.6740 C   0  0  0  0  0  0  0  0  0  0  0  0
   -3.5540   15.4010   -0.1670 C   0  0  2  0  0  0  0  0  0  0  0  0
   -4.1410   15.5360    2.0900 C   0  0  0  0  0  0  0  0  0  0  0  0
   -6.0240   14.5380   -2.6880 O   0  0  0  0  0  0  0  0  0  0  0  0
   -3.9440   15.2490   -1.6450 C   0  0  1  0  0  0  0  0  0  0  0  0
   -2.0580   15.3200    0.0250 C   0  0  0  0  0  0  0  0  0  0  0  0
   -1.1240   15.0300   -0.9250 C   0  0  0  0  0  0  0  0  0  0  0  0
   -2.9530   14.4190   -2.5780 C   0  0  0  0  0  0  0  0  0  0  0  0
   -1.3610   14.6950   -2.4100 C   0  0  2  0  0  0  0  0  0  0  0  0
   -0.2710   13.6010   -2.8550 C   0  0  1  0  0  0  0  0  0  0  0  0
   -0.7700   15.8470   -3.3260 C   0  0  0  0  0  0  0  0  0  0  0  0
   -0.1050   12.3210   -2.1200 C   0  0  0  0  0  0  0  0  0  0  0  0
    0.1000   13.4980   -4.3380 C   0  0  0  0  0  0  0  0  0  0  0  0
    0.7280   15.6850   -3.7760 C   0  0  0  0  0  0  0  0  0  0  0  0
   -0.1680   11.1870   -2.8520 O   0  0  0  0  0  0  0  0  0  0  0  0
    0.0990   12.2890   -0.9440 O   0  0  0  0  0  0  0  0  0  0  0  0
    0.9710   14.5710   -4.6480 O   0  0  0  0  0  0  0  0  0  0  0  0
  2  1  1  1
  2  3  1  0
  2  4  1  0
  4  5  1  0
  3  6  1  0
  3  7  1  0
  5  8  2  0
  5  9  1  0
  6  9  1  0
  6 10  1  6
 10 11  2  0
  9 12  1  1
 13 11  1  1
 12 13  1  0
 13 14  1  0
 13 15  1  0
 14 16  1  6
 14 17  1  0
 15 18  1  0
 16 19  1  0
 16 20  2  0
 17 21  1  0
 18 21  1  0
M  END
