mac-x0328-diamond-x0711_0_A
     RDKit          3D

 14 14  0  0  0  0  0  0  0  0999 V2000
   -1.2550   14.3710   -3.7490 C   0  0  0  0  0  0  0  0  0  0  0  0
   -1.6890   14.7140   -2.3470 C   0  0  0  0  0  0  0  0  0  0  0  0
   -0.7930   14.8590   -1.5280 O   0  0  0  0  0  0  0  0  0  0  0  0
   -1.8850   13.1530   -4.3520 C   0  0  0  0  0  0  0  0  0  0  0  0
   -0.4070   15.0510   -4.3210 O   0  0  0  0  0  0  0  0  0  0  0  0
   -3.1090   14.8600   -1.9270 C   0  0  0  0  0  0  0  0  0  0  0  0
   -3.3440   14.8290   -0.5460 C   0  0  0  0  0  0  0  0  0  0  0  0
   -4.1930   15.0190   -2.8010 C   0  0  0  0  0  0  0  0  0  0  0  0
   -4.6320   14.9460   -0.0460 C   0  0  0  0  0  0  0  0  0  0  0  0
   -5.4920   15.1360   -2.2860 C   0  0  0  0  0  0  0  0  0  0  0  0
   -5.7100   15.0950   -0.9110 C   0  0  0  0  0  0  0  0  0  0  0  0
   -6.9860   15.1930   -0.3630 N   0  0  0  0  0  0  0  0  0  0  0  0
   -7.1940   14.5420    0.7310 C   0  0  0  0  0  0  0  0  0  0  0  0
   -6.3650   13.7350    1.4580 N   0  0  0  0  0  0  0  0  0  0  0  0
  1  2  1  0
  2  3  2  0
  1  4  1  0
  1  5  2  0
  2  6  1  0
  6  7  2  0
  6  8  1  0
  7  9  1  0
  8 10  2  0
  9 11  2  0
 10 11  1  0
 11 12  1  0
 12 13  2  3
 13 14  1  0
M  END
