mac-x0346-diamond-x0910_1_A
     RDKit          3D

 11 11  0  0  0  0  0  0  0  0999 V2000
   -7.5590   14.0380    1.1650 O   0  0  0  0  0  0  0  0  0  0  0  0
   -7.6760   14.9860    0.1190 N   0  0  0  0  0  0  0  0  0  0  0  0
   -6.6630   14.9970   -0.8220 C   0  0  0  0  0  0  0  0  0  0  0  0
   -6.9050   14.9610   -2.0210 O   0  0  0  0  0  0  0  0  0  0  0  0
   -5.2700   15.0460   -0.3150 C   0  0  0  0  0  0  0  0  0  0  0  0
   -4.2130   15.0160   -1.2180 C   0  0  0  0  0  0  0  0  0  0  0  0
   -5.0020   15.1170    1.0600 C   0  0  0  0  0  0  0  0  0  0  0  0
   -4.4580   14.9520   -2.5580 O   0  0  0  0  0  0  0  0  0  0  0  0
   -2.8990   15.0500   -0.7630 C   0  0  0  0  0  0  0  0  0  0  0  0
   -3.6840   15.1550    1.5080 C   0  0  0  0  0  0  0  0  0  0  0  0
   -2.6340   15.1200    0.6050 C   0  0  0  0  0  0  0  0  0  0  0  0
  1  2  1  0
  2  3  1  0
  3  4  2  0
  3  5  1  0
  5  6  2  0
  5  7  1  0
  6  8  1  0
  6  9  1  0
  7 10  2  0
  9 11  2  0
 10 11  1  0
M  END
