mac-x0178-diamond-x0727_0_A
     RDKit          3D

 24 25  0  0  0  0  0  0  0  0999 V2000
   -0.2980   18.1670   -6.4180 N   0  0  0  0  0  0  0  0  0  0  0  0
   -1.7020   17.6390   -5.6690 S   0  0  0  0  0  0  0  0  0  0  0  0
   -2.6130   17.1750   -6.6880 O   0  0  0  0  0  0  0  0  0  0  0  0
   -2.0360   18.6790   -4.7330 O   0  0  0  0  0  0  0  0  0  0  0  0
   -1.1210   16.2640   -4.7190 C   0  0  0  0  0  0  0  0  0  0  0  0
    0.1340   16.3310   -4.0920 C   0  0  0  0  0  0  0  0  0  0  0  0
   -1.9280   15.1350   -4.6040 C   0  0  0  0  0  0  0  0  0  0  0  0
    0.5760   15.2440   -3.3390 C   0  0  0  0  0  0  0  0  0  0  0  0
   -1.4810   14.0570   -3.8540 C   0  0  0  0  0  0  0  0  0  0  0  0
   -0.2350   14.1040   -3.2220 C   0  0  0  0  0  0  0  0  0  0  0  0
    0.2260   12.9440   -2.4520 C   0  0  0  0  0  0  0  0  0  0  0  0
    0.4340   12.9170   -1.2370 O   0  0  0  0  0  0  0  0  0  0  0  0
    0.4270   11.7400   -3.2950 C   0  0  0  0  0  0  0  0  0  0  0  0
    0.8430   12.0750   -4.7390 C   0  0  1  0  0  0  0  0  0  0  0  0
    0.2530   10.6220   -2.8200 O   0  0  0  0  0  0  0  0  0  0  0  0
    0.1200   11.1930   -5.6430 N   0  0  0  0  0  0  0  0  0  0  0  0
    0.6060   13.5100   -5.1800 C   0  0  0  0  0  0  0  0  0  0  0  0
    0.6960   10.9680   -6.8630 C   0  0  0  0  0  0  0  0  0  0  0  0
    1.6060   11.6560   -7.2520 O   0  0  0  0  0  0  0  0  0  0  0  0
    0.1200    9.7930   -7.6360 C   0  0  0  0  0  0  0  0  0  0  0  0
   -1.1870   10.2140   -8.3270 C   0  0  0  0  0  0  0  0  0  0  0  0
   -0.2290    8.6040   -6.7300 C   0  0  0  0  0  0  0  0  0  0  0  0
   -2.1980    9.1140   -8.0180 C   0  0  0  0  0  0  0  0  0  0  0  0
   -1.7430    8.5140   -6.7020 C   0  0  0  0  0  0  0  0  0  0  0  0
  2  1  1  0
  2  3  2  0
  2  4  2  0
  2  5  1  0
  5  6  2  0
  5  7  1  0
  6  8  1  0
  7  9  2  0
  8 10  2  0
  9 10  1  0
 10 11  1  0
 11 12  2  0
 11 13  1  0
 13 14  1  0
 13 15  2  0
 14 16  1  0
 14 17  1  6
 16 18  1  0
 18 19  2  0
 18 20  1  0
 20 21  1  0
 20 22  1  0
 21 23  1  0
 22 24  1  0
 23 24  1  0
M  END
