mac-x0354-mac-x0204
     RDKit          3D

 24 26  0  0  0  0  0  0  0  0999 V2000
    0.5860   11.1760   -8.1690 C   0  0  0  0  0  0  0  0  0  0  0  0
    0.8680   11.5950   -6.8070 N   0  0  0  0  0  0  0  0  0  0  0  0
    1.8200   12.4970   -6.5300 N   0  0  0  0  0  0  0  0  0  0  0  0
    0.2240   11.1340   -5.6970 C   0  0  0  0  0  0  0  0  0  0  0  0
    1.7840   12.6140   -5.2010 C   0  0  0  0  0  0  0  0  0  0  0  0
    0.8020   11.7810   -4.5930 C   0  0  0  0  0  0  0  0  0  0  0  0
   -0.8250   10.1480   -5.8330 C   0  0  0  0  0  0  0  0  0  0  0  0
    0.5130   11.6500   -3.1520 C   0  0  0  0  0  0  0  0  0  0  0  0
   -0.5660    8.9350   -6.4870 C   0  0  0  0  0  0  0  0  0  0  0  0
   -2.0920   10.3980   -5.3210 C   0  0  0  0  0  0  0  0  0  0  0  0
    0.2810   12.6710   -2.3910 N   0  0  0  0  0  0  0  0  0  0  0  0
    0.5070   10.3600   -2.6870 O   0  0  0  0  0  0  0  0  0  0  0  0
   -1.5740    7.9870   -6.6200 C   0  0  0  0  0  0  0  0  0  0  0  0
   -3.0990    9.4500   -5.4550 C   0  0  0  0  0  0  0  0  0  0  0  0
    0.2310   13.9470   -2.8920 C   0  0  0  0  0  0  0  0  0  0  0  0
   -2.8400    8.2450   -6.1030 C   0  0  0  0  0  0  0  0  0  0  0  0
    1.0220   14.8580   -2.6380 O   0  0  0  0  0  0  0  0  0  0  0  0
   -0.9290   14.1520   -3.8020 C   0  0  0  0  0  0  0  0  0  0  0  0
   -1.1880   15.3710   -4.4400 C   0  0  0  0  0  0  0  0  0  0  0  0
   -1.8050   13.1040   -4.0440 C   0  0  0  0  0  0  0  0  0  0  0  0
   -2.3000   15.4670   -5.2780 C   0  0  0  0  0  0  0  0  0  0  0  0
   -2.8930   13.1770   -4.8570 N   0  0  0  0  0  0  0  0  0  0  0  0
   -2.5410   16.6570   -5.8960 O   0  0  0  0  0  0  0  0  0  0  0  0
   -3.1130   14.3600   -5.4550 C   0  0  0  0  0  0  0  0  0  0  0  0
  1  2  1  0
  2  3  1  0
  2  4  1  0
  3  5  2  0
  4  6  2  0
  5  6  1  0
  4  7  1  0
  6  8  1  0
  7  9  2  0
  7 10  1  0
  8 11  2  3
  8 12  1  0
  9 13  1  0
 10 14  2  0
 11 15  1  0
 13 16  2  0
 14 16  1  0
 15 17  2  0
 15 18  1  0
 18 19  2  0
 18 20  1  0
 19 21  1  0
 20 22  2  0
 21 23  1  0
 21 24  2  0
 22 24  1  0
M  END
