mac-x0375-mac-x0360
     RDKit          3D

 26 27  0  0  0  0  0  0  0  0999 V2000
    2.3740   12.3120   -3.2120 O   0  0  0  0  0  0  0  0  0  0  0  0
    0.9760   12.2560   -3.3110 C   0  0  0  0  0  0  0  0  0  0  0  0
    0.5990   10.9040   -3.1040 O   0  0  0  0  0  0  0  0  0  0  0  0
    0.5750   12.7450   -4.7320 C   0  0  0  0  0  0  0  0  0  0  0  0
    0.4130   13.0560   -2.1380 C   0  0  0  0  0  0  0  0  0  0  0  0
    0.6850   11.6700   -5.6790 O   0  0  0  0  0  0  0  0  0  0  0  0
   -1.1030   13.1310   -2.0600 C   0  0  0  0  0  0  0  0  0  0  0  0
   -1.5060   14.5490   -1.6960 C   0  0  0  0  0  0  0  0  0  0  0  0
   -0.3880   10.8480   -5.9110 C   0  0  0  0  0  0  0  0  0  0  0  0
   -2.9540   14.6720   -1.8120 N   0  0  0  0  0  0  0  0  0  0  0  0
   -0.3690    9.7230   -6.7380 C   0  0  0  0  0  0  0  0  0  0  0  0
   -1.5750   11.1880   -5.2550 C   0  0  0  0  0  0  0  0  0  0  0  0
   -3.8530   14.7860   -0.4030 S   0  0  0  0  0  0  0  0  0  0  0  0
   -1.5210    8.9490   -6.9020 C   0  0  0  0  0  0  0  0  0  0  0  0
   -2.7250   10.4150   -5.4210 C   0  0  0  0  0  0  0  0  0  0  0  0
   -4.7730   15.8830   -0.5650 O   0  0  0  0  0  0  0  0  0  0  0  0
   -2.9170   14.7330    0.6990 O   0  0  0  0  0  0  0  0  0  0  0  0
   -2.6980    9.2940   -6.2450 C   0  0  0  0  0  0  0  0  0  0  0  0
   -4.7850   13.2740   -0.4290 C   0  0  0  0  0  0  0  0  0  0  0  0
   -4.5500   12.3280   -1.4380 C   0  0  0  0  0  0  0  0  0  0  0  0
   -5.7500   13.0450    0.5560 C   0  0  0  0  0  0  0  0  0  0  0  0
   -5.3020   11.1530   -1.4480 C   0  0  0  0  0  0  0  0  0  0  0  0
   -6.4880   11.8650    0.5220 C   0  0  0  0  0  0  0  0  0  0  0  0
   -7.6810   11.5680    1.7250 Cl  0  0  0  0  0  0  0  0  0  0  0  0
   -5.0410    9.9690   -2.6700 Cl  0  0  0  0  0  0  0  0  0  0  0  0
   -6.2720   10.9210   -0.4750 C   0  0  0  0  0  0  0  0  0  0  0  0
  2  1  1  0
  2  3  1  0
  2  4  1  0
  2  5  1  0
  4  6  1  0
  5  7  1  0
  7  8  1  0
  6  9  1  0
  8 10  1  0
  9 11  2  0
  9 12  1  0
 13 10  1  0
 11 14  1  0
 12 15  2  0
 13 16  2  0
 13 17  2  0
 14 18  2  0
 15 18  1  0
 13 19  1  0
 19 20  2  0
 19 21  1  0
 20 22  1  0
 21 23  2  0
 23 24  1  0
 22 25  1  0
 22 26  2  0
 23 26  1  0
M  END
