mac-x0565-mac-x0567
     RDKit          3D

 17 19  0  0  0  0  0  0  0  0999 V2000
   -5.5670   14.8210    1.1580 O   0  0  0  0  0  0  0  0  0  0  0  0
   -5.8150   14.8310   -0.1570 C   0  0  0  0  0  0  0  0  0  0  0  0
   -6.9050   14.4550   -0.5810 O   0  0  0  0  0  0  0  0  0  0  0  0
   -4.6750   15.3690   -1.0090 C   0  0  1  0  0  0  0  0  0  0  0  0
   -3.1530   15.0310   -0.6010 C   0  0  1  0  0  0  0  0  0  0  0  0
   -5.0890   15.2150   -2.4670 C   0  0  0  0  0  0  0  0  0  0  0  0
   -2.2490   14.9720   -1.8650 C   0  0  1  0  0  0  0  0  0  0  0  0
   -4.2820   14.8080   -3.4410 C   0  0  0  0  0  0  0  0  0  0  0  0
   -2.6960   15.9930    0.4430 N   0  0  0  0  0  0  0  0  0  0  0  0
   -2.8300   13.7820    0.2310 C   0  0  0  0  0  0  0  0  0  0  0  0
   -2.8640   14.4360   -3.1780 C   0  0  1  0  0  0  0  0  0  0  0  0
   -1.5520   16.1170   -2.2890 O   0  0  0  0  0  0  0  0  0  0  0  0
   -1.4370   14.0630    0.8620 C   0  0  2  0  0  0  0  0  0  0  0  0
   -1.4920   15.4750    1.0760 N   0  0  0  0  0  0  0  0  0  0  0  0
   -0.2500   13.8400    0.0390 N   0  0  0  0  0  0  0  0  0  0  0  0
   -1.9420   14.8630   -4.1910 O   0  0  0  0  0  0  0  0  0  0  0  0
   -0.9310   15.5860   -3.4610 C   0  0  0  0  0  0  0  0  0  0  0  0
  1  2  1  0
  2  3  2  0
  4  2  1  1
  4  5  1  0
  4  6  1  0
  5  7  1  0
  6  8  2  0
  5  9  1  0
  5 10  1  1
  7 11  1  0
 11  8  1  6
  7 12  1  6
 10 13  1  0
  9 14  1  0
 13 14  1  0
 13 15  1  6
 11 16  1  0
 12 17  1  0
 16 17  1  0
M  END
