mac-x0148-mac-x0375
     RDKit          3D

 29 33  0  0  0  0  0  0  0  0999 V2000
    2.3070   12.4910   -3.2170 O   0  0  0  0  0  0  0  0  0  0  0  0
    1.5160   11.6450   -3.9100 C   0  0  0  0  0  0  0  0  0  0  0  0
    1.4490   10.4560   -3.6620 O   0  0  0  0  0  0  0  0  0  0  0  0
    0.6390   12.2950   -4.9760 C   0  0  1  0  0  0  0  0  0  0  0  0
    0.6230   11.5480   -6.1840 O   0  0  0  0  0  0  0  0  0  0  0  0
   -0.7500   12.2250   -4.3180 C   0  0  2  0  0  0  0  0  0  0  0  0
   -1.7880   13.3500   -4.3850 C   0  0  2  0  0  0  0  0  0  0  0  0
   -0.4400   12.1180   -2.8350 C   0  0  0  0  0  0  0  0  0  0  0  0
   -0.4050   10.6560   -6.2750 C   0  0  0  0  0  0  0  0  0  0  0  0
   -2.5250   13.7570   -5.6310 C   0  0  0  0  0  0  0  0  0  0  0  0
   -1.3420   14.6800   -3.7850 C   0  0  1  0  0  0  0  0  0  0  0  0
    0.3020   13.3980   -2.4800 C   0  0  0  0  0  0  0  0  0  0  0  0
   -0.2920    9.3260   -6.6490 C   0  0  0  0  0  0  0  0  0  0  0  0
   -1.6610   11.1780   -5.9490 C   0  0  0  0  0  0  0  0  0  0  0  0
   -3.0860   15.0460   -5.3080 O   0  0  0  0  0  0  0  0  0  0  0  0
   -2.7020   15.3510   -3.9450 C   0  0  0  0  0  0  0  0  0  0  0  0
   -0.6850   14.4780   -2.4470 N   0  0  0  0  0  0  0  0  0  0  0  0
   -1.4330    8.5210   -6.6920 C   0  0  0  0  0  0  0  0  0  0  0  0
   -2.7960   10.3760   -5.9890 C   0  0  0  0  0  0  0  0  0  0  0  0
   -1.1590   14.6420   -1.1440 C   0  0  0  0  0  0  0  0  0  0  0  0
   -2.6840    9.0470   -6.3600 C   0  0  0  0  0  0  0  0  0  0  0  0
   -0.1960   14.5370   -0.1530 N   0  0  0  0  0  0  0  0  0  0  0  0
   -2.4030   14.8810   -0.6850 C   0  0  0  0  0  0  0  0  0  0  0  0
   -0.4780   14.5470    1.1750 C   0  0  0  0  0  0  0  0  0  0  0  0
   -2.6190   14.9680    0.7850 C   0  0  0  0  0  0  0  0  0  0  0  0
   -3.7140   15.1080   -1.2070 C   0  0  0  0  0  0  0  0  0  0  0  0
   -1.6290   14.7380    1.6920 N   0  0  0  0  0  0  0  0  0  0  0  0
   -3.8430   15.2690    1.0880 N   0  0  0  0  0  0  0  0  0  0  0  0
   -4.4840   15.3440   -0.1330 C   0  0  0  0  0  0  0  0  0  0  0  0
  1  2  1  0
  2  3  2  0
  2  4  1  0
  4  5  1  6
  4  6  1  0
  6  7  1  0
  6  8  1  1
  5  9  1  0
  7 10  1  6
  7 11  1  0
  8 12  1  0
  9 13  2  0
  9 14  1  0
 10 15  1  0
 11 16  1  1
 15 16  1  0
 11 17  1  0
 12 17  1  0
 13 18  1  0
 14 19  2  0
 17 20  1  0
 18 21  2  0
 19 21  1  0
 20 22  1  0
 20 23  2  0
 22 24  1  0
 23 25  1  0
 23 26  1  0
 24 27  2  0
 25 27  1  0
 25 28  2  0
 26 29  2  0
 28 29  1  0
M  END
