mac-x0417-mac-x0306
     RDKit          3D

 27 30  0  0  0  0  0  0  0  0999 V2000
    1.4930   12.8510   -2.6120 O   0  0  0  0  0  0  0  0  0  0  0  0
    0.6810   11.9410   -3.1900 C   0  0  0  0  0  0  0  0  0  0  0  0
    0.6720   10.7940   -2.7820 O   0  0  0  0  0  0  0  0  0  0  0  0
   -0.1540   12.5060   -4.3110 C   0  0  1  0  0  0  0  0  0  0  0  0
   -0.1590   14.0540   -4.2720 C   0  0  0  0  0  0  0  0  0  0  0  0
    0.0210   11.7100   -5.5870 C   0  0  0  0  0  0  0  0  0  0  0  0
   -0.7050   14.6860   -2.9550 C   0  0  0  0  0  0  0  0  0  0  0  0
    1.0480   11.8360   -6.4440 N   0  0  0  0  0  0  0  0  0  0  0  0
   -0.8780   10.7100   -6.0250 C   0  0  0  0  0  0  0  0  0  0  0  0
   -1.9430   15.5970   -3.0630 C   0  0  0  0  0  0  0  0  0  0  0  0
    0.8120   10.9080   -7.4590 O   0  0  0  0  0  0  0  0  0  0  0  0
   -0.3400   10.2370   -7.2000 C   0  0  0  0  0  0  0  0  0  0  0  0
   -2.0790   10.1590   -5.5540 C   0  0  0  0  0  0  0  0  0  0  0  0
   -0.9160    9.2260   -7.9710 C   0  0  0  0  0  0  0  0  0  0  0  0
   -2.6870    9.1450   -6.2990 C   0  0  0  0  0  0  0  0  0  0  0  0
   -3.0360   15.2070   -2.1240 N   0  0  0  0  0  0  0  0  0  0  0  0
   -2.1150    8.6860   -7.4860 C   0  0  0  0  0  0  0  0  0  0  0  0
   -4.3330   15.1930   -2.6280 C   0  0  0  0  0  0  0  0  0  0  0  0
   -2.9600   15.5030   -0.7510 C   0  0  0  0  0  0  0  0  0  0  0  0
   -5.4030   14.8870   -1.8810 C   0  0  0  0  0  0  0  0  0  0  0  0
   -3.9650   15.2100    0.1100 C   0  0  0  0  0  0  0  0  0  0  0  0
   -5.2140   14.5210   -0.4210 C   0  0  0  0  0  0  0  0  0  0  0  0
   -6.4910   14.6290    0.3930 C   0  0  0  0  0  0  0  0  0  0  0  0
   -6.5250   14.5360    1.7720 N   0  0  0  0  0  0  0  0  0  0  0  0
   -7.7140   14.8100   -0.0770 N   0  0  0  0  0  0  0  0  0  0  0  0
   -8.5400   14.8330    1.0110 C   0  0  0  0  0  0  0  0  0  0  0  0
   -7.8260   14.6660    2.1710 C   0  0  0  0  0  0  0  0  0  0  0  0
  1  2  1  0
  2  3  2  0
  2  4  1  0
  4  5  1  6
  4  6  1  0
  5  7  1  0
  6  8  2  0
  6  9  1  0
  7 10  1  0
  8 11  1  0
  9 12  2  0
 11 12  1  0
  9 13  1  0
 12 14  1  0
 13 15  2  0
 10 16  1  0
 14 17  2  0
 15 17  1  0
 16 18  1  0
 16 19  1  0
 18 20  2  0
 19 21  2  0
 20 22  1  0
 21 22  1  0
 22 23  1  0
 23 24  1  0
 23 25  2  0
 25 26  1  0
 24 27  1  0
 26 27  2  0
M  END
