mac-x0212-diamond-x0689_0_A
     RDKit          3D

 21 22  0  0  0  0  0  0  0  0999 V2000
   -6.2320   12.6900    1.4880 C   0  0  0  0  0  0  0  0  0  0  0  0
   -6.6360   14.3790    1.0990 S   0  0  0  0  0  0  0  0  0  0  0  0
   -7.3120   14.9660    2.2420 O   0  0  0  0  0  0  0  0  0  0  0  0
   -7.3250   14.3970   -0.1780 O   0  0  0  0  0  0  0  0  0  0  0  0
   -5.0800   15.0770    0.9100 N   0  0  0  0  0  0  0  0  0  0  0  0
   -3.9230   14.7810    1.8210 N   0  0  0  0  0  0  0  0  0  0  0  0
   -4.4200   14.9350   -0.3030 C   0  0  0  0  0  0  0  0  0  0  0  0
   -3.4410   13.9460   -0.2620 C   0  0  0  0  0  0  0  0  0  0  0  0
   -4.6360   15.6630   -1.4520 C   0  0  0  0  0  0  0  0  0  0  0  0
   -2.5710   14.7060    1.3130 C   0  0  0  0  0  0  0  0  0  0  0  0
   -2.6500   13.6930   -1.3600 C   0  0  0  0  0  0  0  0  0  0  0  0
   -3.8320   15.4080   -2.5750 C   0  0  0  0  0  0  0  0  0  0  0  0
   -2.3810   14.9140   -0.0050 N   0  0  0  0  0  0  0  0  0  0  0  0
   -1.5370   14.4330    2.1050 N   0  0  0  0  0  0  0  0  0  0  0  0
   -2.8290   14.4260   -2.5190 C   0  0  0  0  0  0  0  0  0  0  0  0
   -1.1240   14.8260   -0.5060 C   0  0  0  0  0  0  0  0  0  0  0  0
   -0.3090   14.3540    1.5690 C   0  0  0  0  0  0  0  0  0  0  0  0
   -1.9160   14.1100   -3.6370 C   0  0  0  0  0  0  0  0  0  0  0  0
   -0.0340   14.5440    0.2490 C   0  0  0  0  0  0  0  0  0  0  0  0
   -0.8060   13.6200   -3.5110 O   0  0  0  0  0  0  0  0  0  0  0  0
   -2.4110   14.4200   -4.8430 O   0  0  0  0  0  0  0  0  0  0  0  0
  1  2  1  0
  2  3  2  0
  2  4  2  0
  2  5  1  0
  5  6  1  0
  5  7  1  0
  7  8  2  0
  7  9  1  0
  6 10  1  0
  8 11  1  0
  9 12  2  0
 10 13  2  0
 10 14  1  0
 11 15  2  0
 12 15  1  0
 13 16  1  0
 14 17  2  0
 15 18  1  0
 16 19  2  0
 17 19  1  0
 18 20  2  0
 18 21  1  0
M  END
