mac-x0132-mac-x0439
     RDKit          3D

 26 29  0  0  0  0  0  0  0  0999 V2000
   -4.3950   15.2570    2.1620 N   0  0  0  0  0  0  0  0  0  0  0  0
   -5.3800   14.9970    1.2160 C   0  0  0  0  0  0  0  0  0  0  0  0
   -6.6230   14.8060    1.6900 N   0  0  0  0  0  0  0  0  0  0  0  0
   -5.0700   14.9410   -0.1350 C   0  0  0  0  0  0  0  0  0  0  0  0
   -6.1580   14.6700   -0.9610 C   0  0  0  0  0  0  0  0  0  0  0  0
   -7.5750   14.5580    0.7970 C   0  0  0  0  0  0  0  0  0  0  0  0
   -3.7790   15.1280   -0.6920 C   0  0  0  0  0  0  0  0  0  0  0  0
   -7.4010   14.4830   -0.5180 N   0  0  0  0  0  0  0  0  0  0  0  0
   -5.9480   14.5840   -2.3060 C   0  0  0  0  0  0  0  0  0  0  0  0
   -3.5980   15.0290   -2.0700 C   0  0  0  0  0  0  0  0  0  0  0  0
   -4.7020   14.7480   -2.8810 C   0  0  0  0  0  0  0  0  0  0  0  0
   -4.6390   14.6010   -4.3620 C   0  0  0  0  0  0  0  0  0  0  0  0
   -3.8020   15.6570   -5.0180 C   0  0  0  0  0  0  0  0  0  0  0  0
   -2.5130   15.1890   -5.5180 C   0  0  0  0  0  0  0  0  0  0  0  0
   -1.4440   16.2270   -5.4890 C   0  0  0  0  0  0  0  0  0  0  0  0
   -0.0820   15.7140   -5.2760 C   0  0  2  0  0  0  0  0  0  0  0  0
   -1.6200   17.5600   -5.6710 C   0  0  0  0  0  0  0  0  0  0  0  0
    0.2150   14.5630   -4.4120 C   0  0  0  0  0  0  0  0  0  0  0  0
    0.7460   16.7330   -4.6060 C   0  0  0  0  0  0  0  0  0  0  0  0
   -0.4800   18.4670   -5.6470 C   0  0  0  0  0  0  0  0  0  0  0  0
    1.1010   14.9550   -3.5220 C   0  0  0  0  0  0  0  0  0  0  0  0
    1.4130   16.2780   -3.6270 N   0  0  0  0  0  0  0  0  0  0  0  0
    0.7110   18.1060   -5.1330 C   0  0  0  0  0  0  0  0  0  0  0  0
    1.6970   14.0540   -2.5080 C   0  0  0  0  0  0  0  0  0  0  0  0
    3.0060   14.3360   -2.3000 O   0  0  0  0  0  0  0  0  0  0  0  0
    1.0940   13.1640   -1.9390 O   0  0  0  0  0  0  0  0  0  0  0  0
  1  2  1  0
  2  3  2  0
  2  4  1  0
  4  5  2  0
  3  6  1  0
  4  7  1  0
  5  8  1  0
  6  8  2  0
  5  9  1  0
  7 10  2  0
  9 11  2  0
 10 11  1  0
 11 12  1  0
 12 13  1  0
 13 14  1  0
 14 15  1  0
 15 16  1  0
 15 17  2  0
 16 18  1  1
 16 19  1  0
 17 20  1  0
 18 21  2  0
 19 22  2  0
 21 22  1  0
 19 23  1  0
 20 23  2  0
 21 24  1  0
 24 25  1  0
 24 26  2  0
M  END
