mac-x0116-mac-x0360
     RDKit          3D

 27 30  0  0  0  0  0  0  0  0999 V2000
   -5.0440   14.7430    1.8200 C   0  0  0  0  0  0  0  0  0  0  0  0
   -4.3840   14.4880    0.4950 C   0  0  0  0  0  0  0  0  0  0  0  0
   -4.6120   13.3440   -0.7530 S   0  0  0  0  0  0  0  0  0  0  0  0
   -5.8530   13.5290    2.1090 C   0  0  0  0  0  0  0  0  0  0  0  0
   -5.6150   12.4540    1.3230 O   0  0  0  0  0  0  0  0  0  0  0  0
   -6.8380   13.2190    3.0240 C   0  0  0  0  0  0  0  0  0  0  0  0
   -3.2610   15.1260   -0.1220 C   0  0  0  0  0  0  0  0  0  0  0  0
   -3.9930   12.9220   -2.2440 N   0  0  0  0  0  0  0  0  0  0  0  0
   -3.3710   14.0510   -1.5480 O   0  0  0  0  0  0  0  0  0  0  0  0
   -7.2180   11.8850    2.7780 C   0  0  0  0  0  0  0  0  0  0  0  0
   -6.4520   11.4720    1.7360 C   0  0  0  0  0  0  0  0  0  0  0  0
   -3.4680   15.7360   -1.3260 N   0  0  0  0  0  0  0  0  0  0  0  0
   -2.0650   15.0170    0.4020 C   0  0  0  0  0  0  0  0  0  0  0  0
   -5.7030   12.0870   -0.8230 C   0  0  0  0  0  0  0  0  0  0  0  0
   -2.3960   16.0630   -2.0800 C   0  0  0  0  0  0  0  0  0  0  0  0
   -0.9810   15.4980   -0.4340 C   0  0  0  0  0  0  0  0  0  0  0  0
   -1.5420   14.4970    1.5510 N   0  0  0  0  0  0  0  0  0  0  0  0
   -5.3410   11.0170   -1.6060 C   0  0  0  0  0  0  0  0  0  0  0  0
   -6.8820   12.1380   -0.1120 C   0  0  0  0  0  0  0  0  0  0  0  0
   -1.1640   15.9890   -1.6980 N   0  0  0  0  0  0  0  0  0  0  0  0
    0.1300   15.2980    0.1790 N   0  0  0  0  0  0  0  0  0  0  0  0
   -0.2770   14.6890    1.3600 C   0  0  0  0  0  0  0  0  0  0  0  0
   -6.1920    9.9490   -1.6770 C   0  0  0  0  0  0  0  0  0  0  0  0
   -7.7250   11.0550   -0.1830 C   0  0  0  0  0  0  0  0  0  0  0  0
   -9.1900   11.0880    0.7120 Cl  0  0  0  0  0  0  0  0  0  0  0  0
   -5.7400    8.6080   -2.6500 Cl  0  0  0  0  0  0  0  0  0  0  0  0
   -7.3940    9.9490   -0.9670 C   0  0  0  0  0  0  0  0  0  0  0  0
  1  2  1  0
  2  3  2  0
  1  4  1  0
  4  5  1  0
  4  6  2  0
  2  7  1  0
  3  8  1  0
  3  9  2  0
  6 10  1  0
  5 11  1  0
 10 11  2  0
  7 12  1  0
  7 13  2  0
  3 14  1  0
 12 15  1  0
 13 16  1  0
 13 17  1  0
 14 18  2  0
 14 19  1  0
 15 20  2  0
 16 20  1  0
 16 21  2  0
 17 22  2  0
 21 22  1  0
 18 23  1  0
 19 24  2  0
 24 25  1  0
 23 26  1  0
 23 27  2  0
 24 27  1  0
M  END
