mac-x0303-mac-x0337
     RDKit          3D

 24 26  0  0  0  0  0  0  0  0999 V2000
   -8.2170   13.0300    3.0940 N   0  0  0  0  0  0  0  0  0  0  0  0
   -8.6690   14.4600    2.3320 S   0  0  0  0  0  0  0  0  0  0  0  0
   -8.4450   15.5460    3.2510 O   0  0  0  0  0  0  0  0  0  0  0  0
   -9.9100   14.2820    1.6210 O   0  0  0  0  0  0  0  0  0  0  0  0
   -7.4850   14.7090    1.0660 C   0  0  0  0  0  0  0  0  0  0  0  0
   -7.8140   14.7630   -0.2630 N   0  0  0  0  0  0  0  0  0  0  0  0
   -6.1960   14.8710    1.2630 N   0  0  0  0  0  0  0  0  0  0  0  0
   -6.6670   14.9740   -0.9690 C   0  0  0  0  0  0  0  0  0  0  0  0
   -5.6980   15.0420    0.0020 C   0  0  0  0  0  0  0  0  0  0  0  0
   -6.3830   15.1060   -2.3270 C   0  0  0  0  0  0  0  0  0  0  0  0
   -4.4170   15.2590   -0.4040 C   0  0  0  0  0  0  0  0  0  0  0  0
   -3.3990   15.3200    0.4710 N   0  0  0  0  0  0  0  0  0  0  0  0
   -5.0540   15.3150   -2.6790 C   0  0  0  0  0  0  0  0  0  0  0  0
   -4.0850   15.3970   -1.7310 C   0  0  0  0  0  0  0  0  0  0  0  0
   -2.4000   14.2580   -0.3440 S   0  0  0  0  0  0  0  0  0  0  0  0
   -2.0020   14.9330   -1.5650 O   0  0  0  0  0  0  0  0  0  0  0  0
   -1.4370   13.7630    0.5820 O   0  0  0  0  0  0  0  0  0  0  0  0
   -3.5140   12.9280   -0.8640 C   0  0  0  0  0  0  0  0  0  0  0  0
   -3.1480   12.1540   -1.9710 C   0  0  0  0  0  0  0  0  0  0  0  0
   -4.7200   12.6460   -0.1950 C   0  0  0  0  0  0  0  0  0  0  0  0
   -3.9650   11.1060   -2.4020 C   0  0  0  0  0  0  0  0  0  0  0  0
   -5.5380   11.5940   -0.6380 C   0  0  0  0  0  0  0  0  0  0  0  0
   -5.1630   10.8160   -1.7390 C   0  0  0  0  0  0  0  0  0  0  0  0
   -6.0330    9.6820   -2.1940 C   0  0  0  0  0  0  0  0  0  0  0  0
  2  1  1  0
  2  3  2  0
  2  4  2  0
  2  5  1  0
  5  6  1  0
  5  7  2  0
  6  8  1  0
  7  9  1  0
  8  9  2  0
  8 10  1  0
  9 11  1  0
 11 12  1  0
 10 13  2  0
 11 14  2  0
 13 14  1  0
 15 12  1  0
 15 16  2  0
 15 17  2  0
 15 18  1  0
 18 19  2  0
 18 20  1  0
 19 21  1  0
 20 22  2  0
 21 23  2  0
 22 23  1  0
 23 24  1  0
M  END
