mac-x0188-mac-x0190
     RDKit          3D

 21 23  0  0  0  0  0  0  0  0999 V2000
    1.4220   13.5600   -5.0160 C   0  0  0  0  0  0  0  0  0  0  0  0
    0.0380   13.7050   -4.5120 C   0  0  0  0  0  0  0  0  0  0  0  0
   -0.9450   13.7190   -5.4440 O   0  0  0  0  0  0  0  0  0  0  0  0
   -0.5110   13.8350   -3.2490 C   0  0  0  0  0  0  0  0  0  0  0  0
    0.2780   13.8600   -2.0370 C   0  0  0  0  0  0  0  0  0  0  0  0
   -2.1660   13.8500   -4.8240 N   0  0  0  0  0  0  0  0  0  0  0  0
   -1.9210   13.9160   -3.5040 C   0  0  0  0  0  0  0  0  0  0  0  0
    0.7220   14.9030   -1.5790 O   0  0  0  0  0  0  0  0  0  0  0  0
    0.5150   12.6560   -1.4400 O   0  0  0  0  0  0  0  0  0  0  0  0
   -3.1140   14.0370   -2.5860 C   0  0  2  0  0  0  0  0  0  0  0  0
   -3.8860   15.3340   -2.5110 C   0  0  0  0  0  0  0  0  0  0  0  0
   -2.8160   13.5150   -1.2100 C   0  0  0  0  0  0  0  0  0  0  0  0
   -4.6950   15.5960   -1.4500 C   0  0  0  0  0  0  0  0  0  0  0  0
   -3.6180   13.7780   -0.1780 C   0  0  0  0  0  0  0  0  0  0  0  0
   -4.8550   14.6320   -0.2930 C   0  0  2  0  0  0  0  0  0  0  0  0
   -6.1280   13.8520   -0.3610 N   0  0  0  0  0  0  0  0  0  0  0  0
   -4.9540   15.3000    1.0750 C   0  0  0  0  0  0  0  0  0  0  0  0
   -7.0730   14.5960    0.4710 C   0  0  2  0  0  0  0  0  0  0  0  0
   -6.2560   14.8640    1.6360 N   0  0  0  0  0  0  0  0  0  0  0  0
   -8.3940   13.8850    0.8660 C   0  0  0  0  0  0  0  0  0  0  0  0
   -9.0470   14.5870    1.9380 O   0  0  0  0  0  0  0  0  0  0  0  0
  1  2  1  0
  2  3  1  0
  2  4  2  0
  4  5  1  0
  3  6  1  0
  4  7  1  0
  6  7  2  0
  5  8  2  0
  5  9  1  0
 10  7  1  1
 10 11  1  0
 10 12  1  0
 11 13  2  0
 12 14  2  0
 15 13  1  6
 14 15  1  0
 15 16  1  0
 15 17  1  0
 16 18  1  0
 17 19  1  0
 18 19  1  0
 18 20  1  1
 20 21  1  0
M  END
