mac-x0394-mac-x0451
     RDKit          3D

 25 27  0  0  0  0  0  0  0  0999 V2000
    1.0530   18.3600   -5.0140 Cl  0  0  0  0  0  0  0  0  0  0  0  0
    0.3520   16.8230   -4.9610 C   0  0  0  0  0  0  0  0  0  0  0  0
   -1.0030   16.7320   -5.2090 C   0  0  0  0  0  0  0  0  0  0  0  0
    1.1340   15.7030   -4.6780 C   0  0  0  0  0  0  0  0  0  0  0  0
    0.5490   14.4420   -4.6480 C   0  0  0  0  0  0  0  0  0  0  0  0
   -1.6020   15.4880   -5.1840 C   0  0  0  0  0  0  0  0  0  0  0  0
   -3.0650   15.2990   -5.4450 C   0  0  0  0  0  0  0  0  0  0  0  0
    1.3630   13.2060   -4.3470 C   0  0  0  0  0  0  0  0  0  0  0  0
   -0.8190   14.3550   -4.9070 C   0  0  0  0  0  0  0  0  0  0  0  0
    0.9300   12.5120   -3.0740 C   0  0  0  0  0  0  0  0  0  0  0  0
   -3.4490   13.9390   -4.8950 C   0  0  0  0  0  0  0  0  0  0  0  0
    0.2790   11.3510   -3.2980 O   0  0  0  0  0  0  0  0  0  0  0  0
    1.1190   12.9150   -1.9380 O   0  0  0  0  0  0  0  0  0  0  0  0
   -2.4400   13.5170   -3.8130 C   0  0  0  0  0  0  0  0  0  0  0  0
   -2.1320   14.5770   -2.9010 O   0  0  0  0  0  0  0  0  0  0  0  0
   -3.1890   14.7510   -2.1070 C   0  0  0  0  0  0  0  0  0  0  0  0
   -4.4210   15.1540   -2.5720 C   0  0  0  0  0  0  0  0  0  0  0  0
   -2.9700   14.4670   -0.7660 C   0  0  0  0  0  0  0  0  0  0  0  0
   -4.0570   14.5820    0.0880 C   0  0  0  0  0  0  0  0  0  0  0  0
   -5.4960   15.2700   -1.7090 C   0  0  0  0  0  0  0  0  0  0  0  0
   -5.3110   14.9690   -0.3610 C   0  0  0  0  0  0  0  0  0  0  0  0
   -4.1430   14.2990    1.7590 S   0  0  0  0  0  0  0  0  0  0  0  0
   -5.8120   14.6950    1.7530 C   0  0  0  0  0  0  0  0  0  0  0  0
   -6.2970   15.0200    0.5920 N   0  0  0  0  0  0  0  0  0  0  0  0
   -6.5880   14.6820    2.8550 N   0  0  0  0  0  0  0  0  0  0  0  0
  1  2  1  0
  2  3  2  0
  2  4  1  0
  4  5  2  0
  3  6  1  0
  6  7  1  0
  5  8  1  0
  5  9  1  0
  6  9  2  0
  8 10  1  0
  7 11  1  0
 10 12  1  0
 10 13  2  0
 11 14  1  0
 14 15  1  0
 15 16  1  0
 16 17  2  0
 16 18  1  0
 18 19  2  0
 17 20  1  0
 19 21  1  0
 20 21  2  0
 19 22  1  0
 22 23  1  0
 21 24  1  0
 23 24  2  0
 23 25  1  0
M  END
