mac-x0472-mac-x0231
     RDKit          3D

 30 33  0  0  0  0  0  0  0  0999 V2000
   -5.3070   15.4130   -2.0040 O   0  0  0  0  0  0  0  0  0  0  0  0
   -4.3400   14.6090   -2.6930 S   0  0  1  0  0  0  0  0  0  0  0  0
   -4.0410   14.7720   -4.2090 N   0  0  0  0  0  0  0  0  0  0  0  0
   -2.9000   14.9610   -1.8780 N   0  0  0  0  0  0  0  0  0  0  0  0
   -4.6700   12.8960   -2.3850 C   0  0  0  0  0  0  0  0  0  0  0  0
   -2.9570   14.9300   -0.5180 C   0  0  0  0  0  0  0  0  0  0  0  0
   -3.7100   11.9130   -2.6710 C   0  0  0  0  0  0  0  0  0  0  0  0
   -5.9060   12.5510   -1.8520 C   0  0  0  0  0  0  0  0  0  0  0  0
   -2.6780   14.5610   -4.3900 C   0  0  0  0  0  0  0  0  0  0  0  0
   -2.0500   14.5110    0.3550 N   0  0  0  0  0  0  0  0  0  0  0  0
   -4.3920   15.5050    0.2530 S   0  0  0  0  0  0  0  0  0  0  0  0
   -4.0070   10.5760   -2.4270 C   0  0  0  0  0  0  0  0  0  0  0  0
   -6.1940   11.2120   -1.6090 C   0  0  0  0  0  0  0  0  0  0  0  0
   -1.8360   15.6440   -4.4270 C   0  0  0  0  0  0  0  0  0  0  0  0
   -2.2450   13.2570   -4.4820 C   0  0  0  0  0  0  0  0  0  0  0  0
   -3.6760   15.1300    1.7480 C   0  0  0  0  0  0  0  0  0  0  0  0
   -2.4650   14.6250    1.6680 N   0  0  0  0  0  0  0  0  0  0  0  0
   -5.2530   10.2330   -1.9000 C   0  0  0  0  0  0  0  0  0  0  0  0
   -0.4900   15.3950   -4.5080 C   0  0  0  0  0  0  0  0  0  0  0  0
   -0.9020   13.0080   -4.5620 C   0  0  0  0  0  0  0  0  0  0  0  0
   -0.0270   14.0840   -4.5500 C   0  0  0  0  0  0  0  0  0  0  0  0
    0.4660   16.5010   -4.5270 C   0  0  0  0  0  0  0  0  0  0  0  0
    0.1120   17.6680   -4.6570 O   0  0  0  0  0  0  0  0  0  0  0  0
    1.4100   13.8770   -4.5410 C   0  0  0  0  0  0  0  0  0  0  0  0
    1.7640   16.1190   -4.3890 N   0  0  0  0  0  0  0  0  0  0  0  0
    1.9150   12.4660   -4.5220 C   0  0  0  0  0  0  0  0  0  0  0  0
    2.2440   14.8490   -4.4410 N   0  0  0  0  0  0  0  0  0  0  0  0
    1.4750   11.9190   -3.1920 C   0  0  0  0  0  0  0  0  0  0  0  0
    0.9260   10.6970   -3.2350 O   0  0  0  0  0  0  0  0  0  0  0  0
    1.5670   12.4930   -2.1230 O   0  0  0  0  0  0  0  0  0  0  0  0
  1  2  2  0
  2  3  2  0
  2  4  1  1
  2  5  1  0
  4  6  1  0
  5  7  2  0
  5  8  1  0
  3  9  1  0
  6 10  2  0
  6 11  1  0
  7 12  1  0
  8 13  2  0
  9 14  2  0
  9 15  1  0
 11 16  1  0
 10 17  1  0
 16 17  2  0
 12 18  2  0
 13 18  1  0
 14 19  1  0
 15 20  2  0
 19 21  2  0
 20 21  1  0
 19 22  1  0
 22 23  2  0
 21 24  1  0
 22 25  1  0
 24 26  1  0
 24 27  2  0
 25 27  1  0
 26 28  1  0
 28 29  1  0
 28 30  2  0
M  END
