mac-x0193-mac-x0510
     RDKit          3D

 27 29  0  0  0  0  0  0  0  0999 V2000
    0.2300   11.1310   -2.8720 O   0  0  0  0  0  0  0  0  0  0  0  0
    0.8900   12.1920   -3.4000 C   0  0  0  0  0  0  0  0  0  0  0  0
    1.1590   13.2830   -2.8000 N   0  0  0  0  0  0  0  0  0  0  0  0
    1.3430   12.0620   -4.8200 C   0  0  0  0  0  0  0  0  0  0  0  0
    0.2710   11.5930   -5.6900 N   0  0  0  0  0  0  0  0  0  0  0  0
    0.7390   13.5240   -1.4340 C   0  0  0  0  0  0  0  0  0  0  0  0
    0.8040   11.4030   -6.9210 C   0  0  0  0  0  0  0  0  0  0  0  0
   -0.1610   14.7490   -1.4220 C   0  0  0  0  0  0  0  0  0  0  0  0
    1.9270   11.7560   -7.0660 O   0  0  0  0  0  0  0  0  0  0  0  0
    0.0300   10.7950   -7.8880 N   0  0  0  0  0  0  0  0  0  0  0  0
   -1.0680   14.7530   -0.3120 N   0  0  0  0  0  0  0  0  0  0  0  0
    0.6800   10.3170   -9.1220 C   0  0  0  0  0  0  0  0  0  0  0  0
   -2.4240   14.9190   -0.3150 C   0  0  0  0  0  0  0  0  0  0  0  0
   -0.6780   14.5860    0.9900 C   0  0  0  0  0  0  0  0  0  0  0  0
    1.2970    8.9470   -8.9050 C   0  0  0  0  0  0  0  0  0  0  0  0
   -0.2550   10.2360  -10.3310 C   0  0  0  0  0  0  0  0  0  0  0  0
   -2.7630   14.8360    1.0010 C   0  0  0  0  0  0  0  0  0  0  0  0
   -3.4020   15.1440   -1.3360 C   0  0  0  0  0  0  0  0  0  0  0  0
   -1.7000   14.6300    1.8100 N   0  0  0  0  0  0  0  0  0  0  0  0
   -3.1880   15.2920   -2.5380 O   0  0  0  0  0  0  0  0  0  0  0  0
    2.0320    8.3720  -10.1100 C   0  0  0  0  0  0  0  0  0  0  0  0
    0.4450    9.6610  -11.5710 C   0  0  0  0  0  0  0  0  0  0  0  0
   -4.0510   14.9540    1.4100 N   0  0  0  0  0  0  0  0  0  0  0  0
   -4.6810   15.1950   -0.8340 N   0  0  0  0  0  0  0  0  0  0  0  0
    1.1050    8.3070  -11.3100 C   0  0  0  0  0  0  0  0  0  0  0  0
   -5.0460   15.0220    0.4780 C   0  0  0  0  0  0  0  0  0  0  0  0
   -6.2290   14.9230    0.7850 O   0  0  0  0  0  0  0  0  0  0  0  0
  1  2  1  0
  2  3  2  3
  2  4  1  0
  4  5  1  0
  3  6  1  0
  5  7  1  0
  6  8  1  0
  7  9  2  0
  7 10  1  0
  8 11  1  0
 10 12  1  0
 11 13  1  0
 11 14  1  0
 12 15  1  0
 12 16  1  0
 13 17  2  0
 13 18  1  0
 14 19  2  0
 17 19  1  0
 18 20  2  0
 15 21  1  0
 16 22  1  0
 17 23  1  0
 18 24  1  0
 21 25  1  0
 22 25  1  0
 23 26  1  0
 24 26  1  0
 26 27  2  0
M  END
