mac-x0361-mac-x0404
     RDKit          3D

 25 27  0  0  0  0  0  0  0  0999 V2000
   -6.1080   14.8670    1.8240 N   0  0  0  0  0  0  0  0  0  0  0  0
   -6.4540   14.5920    0.5310 C   0  0  0  0  0  0  0  0  0  0  0  0
   -7.5800   14.1730    0.2890 O   0  0  0  0  0  0  0  0  0  0  0  0
   -5.5110   14.8280   -0.5980 C   0  0  0  0  0  0  0  0  0  0  0  0
   -4.1180   15.0000   -0.5170 C   0  0  0  0  0  0  0  0  0  0  0  0
   -6.1340   14.8770   -1.8310 C   0  0  0  0  0  0  0  0  0  0  0  0
   -3.3850   15.2350   -1.7010 C   0  0  0  0  0  0  0  0  0  0  0  0
   -5.4180   15.1010   -2.9770 C   0  0  0  0  0  0  0  0  0  0  0  0
   -4.0560   15.2960   -2.9420 C   0  0  0  0  0  0  0  0  0  0  0  0
   -3.5350   15.5440   -4.2070 O   0  0  0  0  0  0  0  0  0  0  0  0
   -2.2620   15.2120   -4.4210 C   0  0  0  0  0  0  0  0  0  0  0  0
   -1.3040   16.1670   -4.8170 C   0  0  0  0  0  0  0  0  0  0  0  0
   -1.9690   13.8890   -4.2170 C   0  0  0  0  0  0  0  0  0  0  0  0
    0.0080   15.7140   -4.9700 C   0  0  0  0  0  0  0  0  0  0  0  0
   -0.6850   13.4510   -4.3760 C   0  0  0  0  0  0  0  0  0  0  0  0
   -1.5910   17.5270   -5.0570 C   0  0  0  0  0  0  0  0  0  0  0  0
    0.3050   14.3490   -4.7380 C   0  0  0  0  0  0  0  0  0  0  0  0
   -0.6030   18.4300   -5.4350 C   0  0  0  0  0  0  0  0  0  0  0  0
    0.9820   16.6430   -5.3470 C   0  0  0  0  0  0  0  0  0  0  0  0
    1.6020   13.9740   -4.8800 O   0  0  0  0  0  0  0  0  0  0  0  0
    0.6970   17.9840   -5.5780 C   0  0  0  0  0  0  0  0  0  0  0  0
    1.9720   12.7110   -4.3660 C   0  0  0  0  0  0  0  0  0  0  0  0
    1.2060   12.1850   -3.1450 C   0  0  0  0  0  0  0  0  0  0  0  0
    1.2260   12.9950   -2.0730 O   0  0  0  0  0  0  0  0  0  0  0  0
    0.6050   11.1200   -3.0810 O   0  0  0  0  0  0  0  0  0  0  0  0
  1  2  1  0
  2  3  2  0
  2  4  1  0
  4  5  2  0
  4  6  1  0
  5  7  1  0
  6  8  2  0
  7  9  2  0
  8  9  1  0
  9 10  1  0
 10 11  1  0
 11 12  1  0
 11 13  2  0
 12 14  2  0
 13 15  1  0
 12 16  1  0
 14 17  1  0
 15 17  2  0
 16 18  2  0
 14 19  1  0
 17 20  1  0
 18 21  1  0
 19 21  2  0
 20 22  1  0
 22 23  1  0
 23 24  1  0
 23 25  2  0
M  END
