mac-x0436-mac-x0338
     RDKit          3D

 27 29  0  0  0  0  0  0  0  0999 V2000
    0.7460   11.2360   -3.0690 O   0  0  0  0  0  0  0  0  0  0  0  0
    1.2940   12.4640   -3.0510 C   0  0  0  0  0  0  0  0  0  0  0  0
    1.4100   13.0560   -1.9940 O   0  0  0  0  0  0  0  0  0  0  0  0
    1.7330   12.9760   -4.4040 C   0  0  0  0  0  0  0  0  0  0  0  0
    0.5750   13.1990   -5.3720 C   0  0  0  0  0  0  0  0  0  0  0  0
   -0.1910   11.9290   -5.6870 C   0  0  0  0  0  0  0  0  0  0  0  0
   -1.3520   11.5800   -4.7620 C   0  0  0  0  0  0  0  0  0  0  0  0
    0.1300   11.1870   -6.6950 N   0  0  0  0  0  0  0  0  0  0  0  0
   -1.3280   12.3380   -3.7350 N   0  0  0  0  0  0  0  0  0  0  0  0
   -2.1930   10.5600   -5.1470 N   0  0  0  0  0  0  0  0  0  0  0  0
   -0.6270   10.0300   -6.9350 C   0  0  0  0  0  0  0  0  0  0  0  0
   -2.2460   12.3160   -2.6340 C   0  0  0  0  0  0  0  0  0  0  0  0
   -1.7800    9.7020   -6.1840 C   0  0  0  0  0  0  0  0  0  0  0  0
   -0.2070    9.1880   -7.9620 C   0  0  0  0  0  0  0  0  0  0  0  0
   -2.0420   13.6660   -1.9380 C   0  0  0  0  0  0  0  0  0  0  0  0
   -0.9160    8.0250   -8.2560 C   0  0  0  0  0  0  0  0  0  0  0  0
   -2.4870    8.5320   -6.4850 C   0  0  0  0  0  0  0  0  0  0  0  0
   -2.0530    7.6980   -7.5200 C   0  0  0  0  0  0  0  0  0  0  0  0
   -3.3420   14.3170   -1.6420 C   0  0  0  0  0  0  0  0  0  0  0  0
   -3.6500   14.4480   -0.3450 N   0  0  0  0  0  0  0  0  0  0  0  0
   -4.1920   14.7460   -2.6530 C   0  0  0  0  0  0  0  0  0  0  0  0
   -4.8510   15.0100   -0.0980 C   0  0  0  0  0  0  0  0  0  0  0  0
   -5.3890   15.3120   -2.4050 N   0  0  0  0  0  0  0  0  0  0  0  0
   -5.2020   15.1380    1.3210 C   0  0  0  0  0  0  0  0  0  0  0  0
   -5.7060   15.4360   -1.0970 C   0  0  0  0  0  0  0  0  0  0  0  0
   -4.1480   15.4620    2.1140 N   0  0  0  0  0  0  0  0  0  0  0  0
   -6.3390   14.9590    1.7350 O   0  0  0  0  0  0  0  0  0  0  0  0
  1  2  1  0
  2  3  2  0
  2  4  1  0
  4  5  1  0
  5  6  1  0
  6  7  1  0
  6  8  2  0
  7  9  2  3
  7 10  1  0
  8 11  1  0
  9 12  1  0
 10 13  1  0
 11 13  2  0
 11 14  1  0
 12 15  1  0
 14 16  2  0
 13 17  1  0
 16 18  1  0
 17 18  2  0
 15 19  1  0
 19 20  2  0
 19 21  1  0
 20 22  1  0
 21 23  2  0
 22 24  1  0
 22 25  2  0
 23 25  1  0
 24 26  1  0
 24 27  2  0
M  END
