mac-x0394-mac-x0354
     RDKit          3D

 25 27  0  0  0  0  0  0  0  0999 V2000
    0.9760   18.4390   -5.3580 Cl  0  0  0  0  0  0  0  0  0  0  0  0
    0.2930   16.9290   -4.9970 C   0  0  0  0  0  0  0  0  0  0  0  0
   -1.0320   16.6920   -5.2990 C   0  0  0  0  0  0  0  0  0  0  0  0
    1.0820   15.9630   -4.4070 C   0  0  0  0  0  0  0  0  0  0  0  0
    0.5780   14.7190   -4.1120 C   0  0  0  0  0  0  0  0  0  0  0  0
   -1.5650   15.4470   -5.0140 C   0  0  0  0  0  0  0  0  0  0  0  0
   -3.2190   15.1510   -5.3980 Cl  0  0  0  0  0  0  0  0  0  0  0  0
    1.5350   13.7420   -3.4580 C   0  0  0  0  0  0  0  0  0  0  0  0
   -0.7670   14.4490   -4.4300 C   0  0  0  0  0  0  0  0  0  0  0  0
    0.8870   12.6320   -2.6620 C   0  0  0  0  0  0  0  0  0  0  0  0
    0.4190   11.6710   -3.5090 N   0  0  0  0  0  0  0  0  0  0  0  0
    0.8320   12.6710   -1.4280 O   0  0  0  0  0  0  0  0  0  0  0  0
    0.2450   10.3740   -2.9800 O   0  0  0  0  0  0  0  0  0  0  0  0
    0.7410   11.7300   -4.8610 C   0  0  0  0  0  0  0  0  0  0  0  0
    1.7630   12.5140   -5.4470 C   0  0  0  0  0  0  0  0  0  0  0  0
    0.1850   11.0640   -5.9340 C   0  0  0  0  0  0  0  0  0  0  0  0
    0.8720   11.4710   -7.0330 N   0  0  0  0  0  0  0  0  0  0  0  0
    1.8370   12.3520   -6.7510 N   0  0  0  0  0  0  0  0  0  0  0  0
   -0.8840   10.1070   -6.0270 C   0  0  0  0  0  0  0  0  0  0  0  0
    0.6370   11.0360   -8.3920 C   0  0  0  0  0  0  0  0  0  0  0  0
   -0.6340    8.7800   -6.3780 C   0  0  0  0  0  0  0  0  0  0  0  0
   -2.1760   10.5250   -5.7620 C   0  0  0  0  0  0  0  0  0  0  0  0
   -1.6860    7.8730   -6.4560 C   0  0  0  0  0  0  0  0  0  0  0  0
   -3.2310    9.6200   -5.8390 C   0  0  0  0  0  0  0  0  0  0  0  0
   -2.9840    8.2960   -6.1850 C   0  0  0  0  0  0  0  0  0  0  0  0
  1  2  1  0
  2  3  2  0
  2  4  1  0
  4  5  2  0
  3  6  1  0
  6  7  1  0
  5  8  1  0
  5  9  1  0
  6  9  2  0
  8 10  1  0
 10 11  1  0
 10 12  2  0
 11 13  1  0
 11 14  1  0
 14 15  1  0
 14 16  2  0
 16 17  1  0
 15 18  2  0
 17 18  1  0
 16 19  1  0
 17 20  1  0
 19 21  2  0
 19 22  1  0
 21 23  1  0
 22 24  2  0
 23 25  2  0
 24 25  1  0
M  END
