mac-x0321-diamond-x0662_0_A
     RDKit          3D

 30 32  0  0  0  0  0  0  0  0999 V2000
   -4.3830   15.5370    1.6490 Cl  0  0  0  0  0  0  0  0  0  0  0  0
   -4.3850   15.3520   -0.0500 C   0  0  0  0  0  0  0  0  0  0  0  0
   -3.1940   15.0460   -0.6710 C   0  0  0  0  0  0  0  0  0  0  0  0
   -5.5620   15.5070   -0.7840 C   0  0  0  0  0  0  0  0  0  0  0  0
   -3.1690   14.8940   -2.0510 C   0  0  0  0  0  0  0  0  0  0  0  0
   -5.5370   15.3560   -2.1610 C   0  0  0  0  0  0  0  0  0  0  0  0
   -1.9090   14.5640   -2.7270 C   0  0  0  0  0  0  0  0  0  0  0  0
   -4.3370   15.0500   -2.8030 C   0  0  0  0  0  0  0  0  0  0  0  0
   -0.8490   14.5200   -1.9000 O   0  0  0  0  0  0  0  0  0  0  0  0
   -1.8300   14.3290   -3.9780 N   0  0  0  0  0  0  0  0  0  0  0  0
   -0.4880   13.9760   -4.4640 C   0  0  0  0  0  0  0  0  0  0  0  0
   -0.1490   12.5490   -4.0080 C   0  0  0  0  0  0  0  0  0  0  0  0
   -0.5180   11.6260   -5.0710 N   0  0  0  0  0  0  0  0  0  0  0  0
    0.2940   11.4780   -6.0470 C   0  0  0  0  0  0  0  0  0  0  0  0
    1.3970   12.0330   -6.1980 O   0  0  0  0  0  0  0  0  0  0  0  0
    0.0720   10.5840   -7.2270 C   0  0  0  0  0  0  0  0  0  0  0  0
   -0.8800    9.5650   -7.1930 C   0  0  0  0  0  0  0  0  0  0  0  0
    0.8310   10.7810   -8.3770 C   0  0  0  0  0  0  0  0  0  0  0  0
   -1.0600    8.7580   -8.3160 C   0  0  0  0  0  0  0  0  0  0  0  0
    0.6610    9.9820   -9.5090 C   0  0  0  0  0  0  0  0  0  0  0  0
    1.4640   10.2440  -10.6360 N   0  0  0  0  0  0  0  0  0  0  0  0
   -0.2920    8.9670   -9.4710 C   0  0  0  0  0  0  0  0  0  0  0  0
    2.2420    9.3450  -11.3350 C   0  0  0  0  0  0  0  0  0  0  0  0
    2.4210    8.1670  -11.0460 O   0  0  0  0  0  0  0  0  0  0  0  0
    2.9080    9.9230  -12.5260 C   0  0  0  0  0  0  0  0  0  0  0  0
    2.7000   11.1940  -13.1350 C   0  0  0  0  0  0  0  0  0  0  0  0
    3.8570    9.2270  -13.1830 N   0  0  0  0  0  0  0  0  0  0  0  0
    4.2380   10.0420  -14.1760 N   0  0  0  0  0  0  0  0  0  0  0  0
    3.5730   11.2360  -14.1950 C   0  0  0  0  0  0  0  0  0  0  0  0
    5.2670    9.5950  -15.0820 C   0  0  0  0  0  0  0  0  0  0  0  0
  1  2  1  0
  2  3  2  0
  2  4  1  0
  3  5  1  0
  4  6  2  0
  5  7  1  0
  5  8  2  0
  6  8  1  0
  7  9  1  0
  7 10  2  3
 10 11  1  0
 11 12  1  0
 12 13  1  0
 13 14  2  3
 14 15  1  0
 14 16  1  0
 16 17  2  0
 16 18  1  0
 17 19  1  0
 18 20  2  0
 20 21  1  0
 19 22  2  0
 20 22  1  0
 21 23  1  0
 23 24  2  0
 23 25  1  0
 25 26  1  0
 25 27  2  0
 27 28  1  0
 26 29  2  0
 28 29  1  0
 28 30  1  0
M  CHG  1  15  -1
M  END
