mac-x0441-mac-x0587
     RDKit          3D

 28 30  0  0  0  0  0  0  0  0999 V2000
    1.5280   11.1710   -3.7470 O   0  0  0  0  0  0  0  0  0  0  0  0
    1.0960   12.4370   -3.5990 C   0  0  0  0  0  0  0  0  0  0  0  0
    1.7040   13.1500   -2.8290 O   0  0  0  0  0  0  0  0  0  0  0  0
   -0.1460   12.7700   -4.4220 C   0  0  2  0  0  0  0  0  0  0  0  0
   -0.5680   14.3300   -4.4420 C   0  0  2  0  0  0  0  0  0  0  0  0
   -1.0950   12.0650   -3.4170 C   0  0  0  0  0  0  0  0  0  0  0  0
   -0.2160   11.9320   -5.6950 N   0  0  0  0  0  0  0  0  0  0  0  0
    0.4710   15.3450   -3.9160 C   0  0  0  0  0  0  0  0  0  0  0  0
   -1.9720   14.7440   -3.8220 C   0  0  0  0  0  0  0  0  0  0  0  0
    0.7140   11.9850   -6.7420 N   0  0  0  0  0  0  0  0  0  0  0  0
   -1.1860   11.0010   -5.9840 C   0  0  0  0  0  0  0  0  0  0  0  0
   -2.7810   15.2370   -4.6110 O   0  0  0  0  0  0  0  0  0  0  0  0
    0.2800   11.0520   -7.6750 C   0  0  0  0  0  0  0  0  0  0  0  0
   -0.8890   10.4550   -7.2080 C   0  0  0  0  0  0  0  0  0  0  0  0
   -2.3700   10.5960   -5.1660 C   0  0  0  0  0  0  0  0  0  0  0  0
   -2.3660   14.6090   -2.4700 N   0  0  0  0  0  0  0  0  0  0  0  0
    0.8400   10.5920   -9.0290 C   0  0  0  0  0  0  0  0  0  0  0  0
   -1.7000    9.3980   -7.8630 C   0  0  0  0  0  0  0  0  0  0  0  0
   -3.2870    9.6170   -5.9280 C   0  0  0  0  0  0  0  0  0  0  0  0
   -3.7290   14.9220   -2.0150 C   0  0  0  0  0  0  0  0  0  0  0  0
   -1.5350   14.7390   -1.3280 C   0  0  0  0  0  0  0  0  0  0  0  0
    1.5190    9.4170   -8.9640 F   0  0  0  0  0  0  0  0  0  0  0  0
   -0.1720   10.3460   -9.8980 F   0  0  0  0  0  0  0  0  0  0  0  0
    1.6190   11.4140   -9.7470 F   0  0  0  0  0  0  0  0  0  0  0  0
   -0.3400   14.9180   -1.2280 O   0  0  0  0  0  0  0  0  0  0  0  0
   -2.5000    8.6340   -6.8050 C   0  0  0  0  0  0  0  0  0  0  0  0
   -3.6750   15.0490   -0.5010 C   0  0  0  0  0  0  0  0  0  0  0  0
   -2.3460   14.6410   -0.1940 N   0  0  0  0  0  0  0  0  0  0  0  0
  1  2  1  0
  2  3  2  0
  4  2  1  0
  4  5  1  0
  4  6  1  1
  4  7  1  0
  5  8  1  1
  5  9  1  0
  7 10  1  0
  7 11  1  0
  9 12  2  0
 10 13  2  0
 11 14  2  0
 13 14  1  0
 11 15  1  0
  9 16  1  0
 13 17  1  0
 14 18  1  0
 15 19  1  0
 16 20  1  0
 16 21  1  0
 17 22  1  0
 17 23  1  0
 17 24  1  0
 21 25  2  0
 18 26  1  0
 19 26  1  0
 20 27  1  0
 21 28  1  0
 27 28  1  0
M  END
