mac-x0206-mac-x0124
     RDKit          3D

 22 24  0  0  0  0  0  0  0  0999 V2000
   -4.3290   15.9450   -0.5960 N   0  0  0  0  0  0  0  0  0  0  0  0
   -4.9180   14.6470   -0.3670 C   0  0  1  0  0  0  0  0  0  0  0  0
   -4.9180   13.9870   -1.6220 O   0  0  0  0  0  0  0  0  0  0  0  0
   -4.2270   13.9180    0.8130 C   0  0  0  0  0  0  0  0  0  0  0  0
   -6.2470   14.7490    0.2400 C   0  0  0  0  0  0  0  0  0  0  0  0
   -3.4730   14.8840    1.5730 N   0  0  0  0  0  0  0  0  0  0  0  0
   -7.4310   14.8280   -0.4630 C   0  0  0  0  0  0  0  0  0  0  0  0
   -6.2700   14.7560    1.6380 C   0  0  0  0  0  0  0  0  0  0  0  0
   -7.4020   14.8200   -1.8320 O   0  0  0  0  0  0  0  0  0  0  0  0
   -8.6340   14.9130    0.2320 C   0  0  0  0  0  0  0  0  0  0  0  0
   -7.4500   14.8360    2.3380 C   0  0  0  0  0  0  0  0  0  0  0  0
   -2.2840   15.0030    0.9150 C   0  0  0  0  0  0  0  0  0  0  0  0
   -8.6400   14.9150    1.6320 C   0  0  0  0  0  0  0  0  0  0  0  0
   -2.1830   15.1890   -0.4940 C   0  0  0  0  0  0  0  0  0  0  0  0
   -1.1770   14.9270    1.6220 N   0  0  0  0  0  0  0  0  0  0  0  0
   -3.0690   15.3260   -1.6110 C   0  0  0  0  0  0  0  0  0  0  0  0
   -0.9120   15.2650   -1.0180 C   0  0  0  0  0  0  0  0  0  0  0  0
   -0.0280   15.0320    0.9760 C   0  0  0  0  0  0  0  0  0  0  0  0
   -1.0030   15.4280   -2.3740 N   0  0  0  0  0  0  0  0  0  0  0  0
   -2.3130   15.4700   -2.7490 C   0  0  0  0  0  0  0  0  0  0  0  0
    0.2190   15.1920   -0.3310 N   0  0  0  0  0  0  0  0  0  0  0  0
    0.1330   15.5370   -3.2530 C   0  0  0  0  0  0  0  0  0  0  0  0
  2  1  1  6
  2  3  1  0
  2  4  1  0
  2  5  1  0
  4  6  1  0
  5  7  2  0
  5  8  1  0
  7  9  1  0
  7 10  1  0
  8 11  2  0
  6 12  1  0
 10 13  2  0
 11 13  1  0
 12 14  1  0
 12 15  2  0
 14 16  1  0
 14 17  2  0
 15 18  1  0
 17 19  1  0
 16 20  2  0
 19 20  1  0
 17 21  1  0
 18 21  2  0
 19 22  1  0
M  END
