mac-x0397-mac-x0188
     RDKit          3D

 19 21  0  0  0  0  0  0  0  0999 V2000
   -6.2770   15.4210   -2.4820 Cl  0  0  0  0  0  0  0  0  0  0  0  0
   -4.7680   14.6010   -2.0520 C   0  0  2  0  0  0  0  0  0  0  0  0
   -4.7380   14.5410   -0.5940 C   0  0  0  0  0  0  0  0  0  0  0  0
   -3.3660   15.1620   -2.5200 C   0  0  0  0  0  0  0  0  0  0  0  0
   -5.7440   14.9690    0.2520 N   0  0  0  0  0  0  0  0  0  0  0  0
   -3.6420   14.0210   -0.0330 C   0  0  0  0  0  0  0  0  0  0  0  0
   -2.3060   13.9800   -2.3100 C   0  0  1  0  0  0  0  0  0  0  0  0
   -5.3630   14.7610    1.4870 C   0  0  0  0  0  0  0  0  0  0  0  0
   -3.7890   14.0630    1.6500 S   0  0  0  0  0  0  0  0  0  0  0  0
   -2.4880   13.4760   -0.8240 C   0  0  0  0  0  0  0  0  0  0  0  0
   -2.7370   13.0980   -3.4390 N   0  0  0  0  0  0  0  0  0  0  0  0
   -0.7770   13.7820   -2.6570 C   0  0  2  0  0  0  0  0  0  0  0  0
   -6.1330   15.0560    2.5460 N   0  0  0  0  0  0  0  0  0  0  0  0
    0.3520   14.3890   -1.8730 C   0  0  0  0  0  0  0  0  0  0  0  0
   -0.5870   13.5200   -4.1420 C   0  0  1  0  0  0  0  0  0  0  0  0
   -1.9290   13.5380   -4.6170 O   0  0  0  0  0  0  0  0  0  0  0  0
    0.4170   14.3180   -4.9660 C   0  0  0  0  0  0  0  0  0  0  0  0
    0.6620   15.5530   -1.8220 O   0  0  0  0  0  0  0  0  0  0  0  0
    1.0570   13.4460   -1.1910 O   0  0  0  0  0  0  0  0  0  0  0  0
  2  1  1  1
  2  3  1  0
  2  4  1  0
  3  5  1  0
  3  6  2  0
  7  4  1  1
  5  8  2  0
  6  9  1  0
  8  9  1  0
  6 10  1  0
  7 10  1  0
  7 11  1  0
  7 12  1  0
  8 13  1  0
 12 14  1  6
 12 15  1  0
 11 16  1  0
 15 16  1  0
 15 17  1  6
 14 18  2  0
 14 19  1  0
M  END
