mac-x0373-mac-x0333
     RDKit          3D

 20 22  0  0  0  0  0  0  0  0999 V2000
    0.6620   12.8830   -0.9130 O   0  0  0  0  0  0  0  0  0  0  0  0
    0.1090   13.7520   -1.7820 C   0  0  0  0  0  0  0  0  0  0  0  0
    0.7890   14.6070   -2.3330 O   0  0  0  0  0  0  0  0  0  0  0  0
   -1.3820   13.4990   -1.9240 C   0  0  2  0  0  0  0  0  0  0  0  0
   -1.7190   12.7530   -3.2030 C   0  0  0  0  0  0  0  0  0  0  0  0
   -2.0720   14.8140   -1.5470 C   0  0  1  0  0  0  0  0  0  0  0  0
   -1.0260   12.9090   -4.4190 C   0  0  0  0  0  0  0  0  0  0  0  0
   -2.7800   11.8490   -3.1340 C   0  0  0  0  0  0  0  0  0  0  0  0
   -3.3180   15.3080   -2.2940 C   0  0  0  0  0  0  0  0  0  0  0  0
   -2.3120   14.8350   -0.0400 C   0  0  0  0  0  0  0  0  0  0  0  0
   -1.4010   12.1550   -5.5350 C   0  0  0  0  0  0  0  0  0  0  0  0
   -3.1510   11.1020   -4.2420 C   0  0  0  0  0  0  0  0  0  0  0  0
   -4.5410   15.3290   -1.7310 C   0  0  0  0  0  0  0  0  0  0  0  0
   -3.5330   14.8430    0.5030 C   0  0  0  0  0  0  0  0  0  0  0  0
   -2.4600   11.2540   -5.4440 C   0  0  0  0  0  0  0  0  0  0  0  0
   -4.7820   14.8230   -0.3370 C   0  0  1  0  0  0  0  0  0  0  0  0
   -5.8170   15.5210    0.3330 O   0  0  0  0  0  0  0  0  0  0  0  0
   -5.4100   13.4530   -0.4560 C   0  0  0  0  0  0  0  0  0  0  0  0
   -6.7600   13.7540   -0.8170 O   0  0  0  0  0  0  0  0  0  0  0  0
   -7.0350   14.8340    0.0480 C   0  0  0  0  0  0  0  0  0  0  0  0
  1  2  1  0
  2  3  2  0
  4  2  1  6
  4  5  1  0
  4  6  1  0
  5  7  2  0
  5  8  1  0
  6  9  1  6
  6 10  1  0
  7 11  1  0
  8 12  2  0
  9 13  2  0
 10 14  2  0
 11 15  2  0
 12 15  1  0
 16 13  1  6
 14 16  1  0
 16 17  1  0
 16 18  1  0
 18 19  1  0
 17 20  1  0
 19 20  1  0
M  END
