mac-x0527-mac-x1493
     RDKit          3D

 21 23  0  0  0  0  0  0  0  0999 V2000
   -3.7180   15.4590   -3.6790 O   0  0  0  0  0  0  0  0  0  0  0  0
   -3.0840   15.0140   -2.7230 C   0  0  0  0  0  0  0  0  0  0  0  0
   -1.7720   14.5370   -2.8770 N   0  0  0  0  0  0  0  0  0  0  0  0
   -3.6500   14.9340   -1.3450 C   0  0  0  0  0  0  0  0  0  0  0  0
   -1.0400   14.7220   -4.1290 C   0  0  0  0  0  0  0  0  0  0  0  0
   -0.9380   14.8860   -1.7560 O   0  0  0  0  0  0  0  0  0  0  0  0
   -4.9780   15.1360   -1.1900 C   0  0  0  0  0  0  0  0  0  0  0  0
   -2.7930   14.6520   -0.2970 N   0  0  0  0  0  0  0  0  0  0  0  0
   -0.8910   13.4300   -4.8920 C   0  0  0  0  0  0  0  0  0  0  0  0
   -5.5610   15.0710    0.0670 N   0  0  0  0  0  0  0  0  0  0  0  0
   -3.2620   14.8580    0.8910 C   0  0  0  0  0  0  0  0  0  0  0  0
   -2.0150   12.6220   -5.0810 C   0  0  0  0  0  0  0  0  0  0  0  0
    0.3340   13.0100   -5.4110 C   0  0  0  0  0  0  0  0  0  0  0  0
   -4.6400   15.4050    1.1860 C   0  0  2  0  0  0  0  0  0  0  0  0
   -6.8850   14.7320    0.3290 C   0  0  0  0  0  0  0  0  0  0  0  0
   -1.9250   11.4080   -5.7590 C   0  0  0  0  0  0  0  0  0  0  0  0
    0.4260   11.7970   -6.0980 C   0  0  0  0  0  0  0  0  0  0  0  0
   -7.3310   14.4840    1.5740 C   0  0  0  0  0  0  0  0  0  0  0  0
   -5.1580   14.9830    2.5250 C   0  0  0  0  0  0  0  0  0  0  0  0
   -0.7030   10.9960   -6.2660 C   0  0  0  0  0  0  0  0  0  0  0  0
   -6.4170   14.5590    2.6960 C   0  0  0  0  0  0  0  0  0  0  0  0
  1  2  2  0
  2  3  1  0
  2  4  1  0
  3  5  1  0
  3  6  1  0
  4  7  2  0
  4  8  1  0
  5  9  1  0
  7 10  1  0
  8 11  2  0
  9 12  2  0
  9 13  1  0
 10 14  1  0
 14 11  1  6
 10 15  1  0
 12 16  1  0
 13 17  2  0
 15 18  2  0
 14 19  1  0
 16 20  2  0
 17 20  1  0
 18 21  1  0
 19 21  2  0
M  END
