mac-x0228-mac-x0510
     RDKit          3D

 22 25  0  0  0  0  0  0  0  0999 V2000
   -2.1020   13.1850   -3.0040 O   0  0  0  0  0  0  0  0  0  0  0  0
   -2.6100   14.4430   -2.6500 C   0  0  0  0  0  0  0  0  0  0  0  0
   -2.0980   15.5000   -3.4570 O   0  0  0  0  0  0  0  0  0  0  0  0
   -4.1080   14.4160   -2.4960 C   0  0  0  0  0  0  0  0  0  0  0  0
   -2.6510   14.8230   -1.2020 C   0  0  0  0  0  0  0  0  0  0  0  0
   -4.5040   14.0750   -1.1900 C   0  0  0  0  0  0  0  0  0  0  0  0
   -5.0990   14.7120   -3.4490 C   0  0  0  0  0  0  0  0  0  0  0  0
   -1.7060   14.4410   -0.1960 C   0  0  0  0  0  0  0  0  0  0  0  0
   -3.7110   15.4370   -0.7950 N   0  0  0  0  0  0  0  0  0  0  0  0
   -5.8140   14.0490   -0.8380 C   0  0  0  0  0  0  0  0  0  0  0  0
   -6.4600   14.6760   -3.0760 C   0  0  0  0  0  0  0  0  0  0  0  0
   -3.9410   15.6660    0.5260 C   0  0  0  0  0  0  0  0  0  0  0  0
   -2.0270   14.8010    1.1730 C   0  0  0  0  0  0  0  0  0  0  0  0
   -0.5910   13.8170   -0.2130 N   0  0  0  0  0  0  0  0  0  0  0  0
   -5.0280   16.0350    0.8180 O   0  0  0  0  0  0  0  0  0  0  0  0
   -6.7820   14.3470   -1.7610 C   0  0  0  0  0  0  0  0  0  0  0  0
   -6.4150   13.7340    0.4760 C   0  0  0  0  0  0  0  0  0  0  0  0
   -3.0770   15.3950    1.5220 N   0  0  0  0  0  0  0  0  0  0  0  0
   -1.0600   14.3870    1.9700 N   0  0  0  0  0  0  0  0  0  0  0  0
   -0.2680   13.8050    1.1440 C   0  0  0  0  0  0  0  0  0  0  0  0
   -8.0480   14.2780   -1.2330 O   0  0  0  0  0  0  0  0  0  0  0  0
   -7.8250   14.2430    0.2030 C   0  0  0  0  0  0  0  0  0  0  0  0
  2  1  1  0
  2  3  1  0
  2  4  1  0
  2  5  1  0
  4  6  2  0
  4  7  1  0
  5  8  1  0
  5  9  2  0
  6 10  1  0
  7 11  2  0
  9 12  1  0
  8 13  1  0
  8 14  2  0
 12 15  2  0
 10 16  2  0
 11 16  1  0
 10 17  1  0
 12 18  1  0
 13 18  2  0
 13 19  1  0
 14 20  1  0
 19 20  2  0
 16 21  1  0
 17 22  1  0
 21 22  1  0
M  END
