mac-x0404-mac-x0137
     RDKit          3D

 31 35  0  0  0  0  0  0  0  0999 V2000
    1.8280   12.3080   -2.4550 O   0  0  0  0  0  0  0  0  0  0  0  0
    1.0630   12.1020   -3.6310 C   0  0  0  0  0  0  0  0  0  0  0  0
    0.5520   10.7790   -3.6040 O   0  0  0  0  0  0  0  0  0  0  0  0
    1.8050   12.5720   -4.8950 C   0  0  0  0  0  0  0  0  0  0  0  0
   -0.0870   12.9820   -3.5450 C   0  0  2  0  0  0  0  0  0  0  0  0
    1.5270   14.0010   -5.0110 O   0  0  0  0  0  0  0  0  0  0  0  0
    0.2440   14.1610   -2.6730 C   0  0  0  0  0  0  0  0  0  0  0  0
   -1.4090   12.2810   -3.3130 C   0  0  0  0  0  0  0  0  0  0  0  0
    0.1950   14.3910   -5.2120 C   0  0  0  0  0  0  0  0  0  0  0  0
   -2.4760   13.2600   -3.7110 C   0  0  1  0  0  0  0  0  0  0  0  0
   -0.9910   14.7170   -2.2350 N   0  0  0  0  0  0  0  0  0  0  0  0
   -3.6410   12.9000   -3.1330 F   0  0  0  0  0  0  0  0  0  0  0  0
   -0.0810   15.7680   -5.1970 C   0  0  0  0  0  0  0  0  0  0  0  0
   -0.8420   13.4760   -5.4280 C   0  0  0  0  0  0  0  0  0  0  0  0
   -2.0690   14.6730   -3.2600 C   0  0  0  0  0  0  0  0  0  0  0  0
   -1.2970   14.6990   -0.9110 C   0  0  0  0  0  0  0  0  0  0  0  0
   -1.4050   16.2340   -5.3960 C   0  0  0  0  0  0  0  0  0  0  0  0
   -2.1590   13.9400   -5.6180 C   0  0  0  0  0  0  0  0  0  0  0  0
    0.9290   16.6900   -5.0000 C   0  0  0  0  0  0  0  0  0  0  0  0
   -0.3130   14.4150    0.0180 N   0  0  0  0  0  0  0  0  0  0  0  0
   -2.5020   14.9610   -0.4260 C   0  0  0  0  0  0  0  0  0  0  0  0
   -2.4400   15.3110   -5.5970 C   0  0  0  0  0  0  0  0  0  0  0  0
   -1.6480   17.6010   -5.4010 C   0  0  0  0  0  0  0  0  0  0  0  0
    0.6840   18.0520   -5.0060 C   0  0  0  0  0  0  0  0  0  0  0  0
   -0.5680   14.3660    1.3440 C   0  0  0  0  0  0  0  0  0  0  0  0
   -2.7010   14.9380    1.0280 C   0  0  0  0  0  0  0  0  0  0  0  0
   -3.7910   15.3150   -0.9290 C   0  0  0  0  0  0  0  0  0  0  0  0
   -0.6200   18.5010   -5.2140 C   0  0  0  0  0  0  0  0  0  0  0  0
   -1.7030   14.6070    1.8910 N   0  0  0  0  0  0  0  0  0  0  0  0
   -3.9100   15.2730    1.3580 N   0  0  0  0  0  0  0  0  0  0  0  0
   -4.5460   15.4890    0.1510 C   0  0  0  0  0  0  0  0  0  0  0  0
  2  1  1  0
  2  3  1  0
  2  4  1  0
  5  2  1  1
  4  6  1  0
  5  7  1  0
  5  8  1  0
  6  9  1  0
  8 10  1  0
  7 11  1  0
 10 12  1  1
  9 13  1  0
  9 14  2  0
 10 15  1  0
 11 15  1  0
 11 16  1  0
 13 17  2  0
 14 18  1  0
 13 19  1  0
 16 20  1  0
 16 21  2  0
 17 22  1  0
 18 22  2  0
 17 23  1  0
 19 24  2  0
 20 25  1  0
 21 26  1  0
 21 27  1  0
 23 28  2  0
 24 28  1  0
 25 29  2  0
 26 29  1  0
 26 30  2  0
 27 31  2  0
 30 31  1  0
M  END
