mac-x0345-mac-x0402
     RDKit          3D

 15 17  0  0  0  0  0  0  0  0999 V2000
   -8.0960   14.9880    0.0160 C   0  0  0  0  0  0  0  0  0  0  0  0
   -6.8310   14.1660   -0.2540 C   0  0  1  0  0  0  0  0  0  0  0  0
   -6.5610   14.1350   -1.6760 N   0  0  0  0  0  0  0  0  0  0  0  0
   -5.5780   14.4870    0.6510 C   0  0  2  0  0  0  0  0  0  0  0  0
   -4.5400   15.4520    0.0380 C   0  0  2  0  0  0  0  0  0  0  0  0
   -5.7380   15.1820   -2.1960 C   0  0  2  0  0  0  0  0  0  0  0  0
   -4.7160   13.3160    0.9740 C   0  0  1  0  0  0  0  0  0  0  0  0
   -6.0810   14.6400    2.0790 C   0  0  0  0  0  0  0  0  0  0  0  0
   -5.7680   14.8820   -3.5990 N   0  0  0  0  0  0  0  0  0  0  0  0
   -4.3620   15.3520   -1.4870 C   0  0  2  0  0  0  0  0  0  0  0  0
   -6.6000   13.2820    2.3460 N   0  0  0  0  0  0  0  0  0  0  0  0
   -2.9020   15.5550    1.0340 S   0  0  0  0  0  0  0  0  0  0  0  0
   -3.4840   13.8830    1.5250 C   0  0  0  0  0  0  0  0  0  0  0  0
   -5.6360   12.3640    1.6950 C   0  0  0  0  0  0  0  0  0  0  0  0
   -2.9950   14.3610   -2.1350 Cl  0  0  0  0  0  0  0  0  0  0  0  0
  2  1  1  6
  2  3  1  0
  2  4  1  0
  4  5  1  0
  3  6  1  0
  4  7  1  0
  4  8  1  1
  6  9  1  6
  5 10  1  0
  6 10  1  0
  8 11  1  0
  5 12  1  1
  7 13  1  1
 12 13  2  0
  7 14  1  0
 11 14  1  0
 10 15  1  1
M  END
