mac-x0124-diamond-x0950_1_A
     RDKit          3D

 18 19  0  0  0  0  0  0  0  0999 V2000
   -0.3700   15.8500   -3.5540 C   0  0  0  0  0  0  0  0  0  0  0  0
   -1.4150   15.3820   -2.6710 N   0  0  0  0  0  0  0  0  0  0  0  0
   -2.7560   15.6560   -2.8700 C   0  0  0  0  0  0  0  0  0  0  0  0
   -1.1640   15.4290   -1.2250 C   0  0  1  0  0  0  0  0  0  0  0  0
   -3.4700   15.4040   -1.7660 C   0  0  0  0  0  0  0  0  0  0  0  0
   -2.5190   14.8870   -0.7130 C   0  0  2  0  0  0  0  0  0  0  0  0
   -0.0770   14.6870   -0.5990 N   0  0  0  0  0  0  0  0  0  0  0  0
    0.0660   13.3490   -1.1520 C   0  0  0  0  0  0  0  0  0  0  0  0
   -2.6000   15.3140    0.7280 C   0  0  1  0  0  0  0  0  0  0  0  0
   -0.1570   14.6680    0.8730 C   0  0  0  0  0  0  0  0  0  0  0  0
   -3.8050   14.9090    1.4180 N   0  0  0  0  0  0  0  0  0  0  0  0
    0.9880   13.2570   -2.2580 O   0  0  0  0  0  0  0  0  0  0  0  0
   -1.4980   14.8160    1.5110 N   0  0  0  0  0  0  0  0  0  0  0  0
    0.8860   12.0980   -2.9860 C   0  0  0  0  0  0  0  0  0  0  0  0
    1.4470   12.2900   -4.4100 C   0  0  2  0  0  0  0  0  0  0  0  0
    0.4110   11.0480   -2.5580 O   0  0  0  0  0  0  0  0  0  0  0  0
    1.3280   13.7210   -4.9200 C   0  0  0  0  0  0  0  0  0  0  0  0
    0.8290   11.4260   -5.3660 O   0  0  0  0  0  0  0  0  0  0  0  0
  1  2  1  0
  2  3  1  0
  4  2  1  6
  3  5  2  0
  4  6  1  0
  6  5  1  6
  4  7  1  0
  7  8  1  0
  6  9  1  0
  7 10  1  0
  9 11  1  1
  8 12  1  0
  9 13  1  0
 10 13  1  0
 12 14  1  0
 14 15  1  0
 14 16  2  0
 15 17  1  6
 15 18  1  0
M  END
