mac-x0223-diamond-x0805_0_A
     RDKit          3D

 27 29  0  0  0  0  0  0  0  0999 V2000
    1.3220   18.4550   -6.0010 C   0  0  0  0  0  0  0  0  0  0  0  0
   -0.0120   18.4570   -5.5860 O   0  0  0  0  0  0  0  0  0  0  0  0
   -0.3800   17.3560   -4.8940 C   0  0  0  0  0  0  0  0  0  0  0  0
   -1.7110   17.0110   -5.0780 C   0  0  0  0  0  0  0  0  0  0  0  0
    0.4380   16.5890   -4.0580 C   0  0  0  0  0  0  0  0  0  0  0  0
   -2.4890   17.7790   -5.8980 O   0  0  0  0  0  0  0  0  0  0  0  0
   -2.2650   15.9170   -4.4520 C   0  0  0  0  0  0  0  0  0  0  0  0
   -0.0850   15.4620   -3.3900 C   0  0  0  0  0  0  0  0  0  0  0  0
    0.8260   14.6410   -2.4650 C   0  0  0  0  0  0  0  0  0  0  0  0
   -1.4540   15.1440   -3.6080 C   0  0  0  0  0  0  0  0  0  0  0  0
    0.7130   13.0880   -2.3300 C   0  0  0  0  0  0  0  0  0  0  0  0
    1.9980   12.5750   -2.0560 O   0  0  0  0  0  0  0  0  0  0  0  0
   -0.1320   12.6480   -1.2730 O   0  0  0  0  0  0  0  0  0  0  0  0
    0.3730   12.4320   -3.6530 C   0  0  2  0  0  0  0  0  0  0  0  0
    1.6290   12.5320   -4.5240 C   0  0  0  0  0  0  0  0  0  0  0  0
   -0.8260   13.2060   -4.2630 C   0  0  1  0  0  0  0  0  0  0  0  0
   -1.9960   13.4420   -3.2740 C   0  0  0  0  0  0  0  0  0  0  0  0
    2.0040   13.8880   -4.6040 O   0  0  0  0  0  0  0  0  0  0  0  0
   -0.3550   14.5380   -4.8630 C   0  0  0  0  0  0  0  0  0  0  0  0
   -3.2390   12.8590   -3.5540 C   0  0  0  0  0  0  0  0  0  0  0  0
   -1.8910   14.2260   -2.0870 C   0  0  0  0  0  0  0  0  0  0  0  0
    1.0590   14.5480   -5.4080 C   0  0  0  0  0  0  0  0  0  0  0  0
   -2.9800   14.4160   -1.2340 C   0  0  0  0  0  0  0  0  0  0  0  0
   -4.3260   13.0470   -2.7000 C   0  0  0  0  0  0  0  0  0  0  0  0
   -2.9600   15.1570   -0.0760 O   0  0  0  0  0  0  0  0  0  0  0  0
   -4.1980   13.8220   -1.5470 C   0  0  0  0  0  0  0  0  0  0  0  0
   -4.2000   15.6090    0.4580 C   0  0  0  0  0  0  0  0  0  0  0  0
  1  2  1  0
  2  3  1  0
  3  4  2  0
  3  5  1  0
  4  6  1  0
  4  7  1  0
  5  8  2  0
  8  9  1  0
  7 10  2  0
  8 10  1  0
  9 11  1  0
 11 12  1  0
 11 13  1  0
 14 11  1  1
 14 15  1  0
 14 16  1  0
 16 17  1  1
 15 18  1  0
 16 19  1  0
 17 20  2  0
 17 21  1  0
 18 22  1  0
 19 22  1  0
 21 23  2  0
 20 24  1  0
 23 25  1  0
 23 26  1  0
 24 26  2  0
 25 27  1  0
M  END
