mac-x0123-mac-x0223
     RDKit          3D

 28 31  0  0  0  0  0  0  0  0999 V2000
   -3.9060   15.2070    1.8560 N   0  0  0  0  0  0  0  0  0  0  0  0
   -4.9260   14.9150    0.9540 C   0  0  0  0  0  0  0  0  0  0  0  0
   -6.2390   14.7220    1.2370 C   0  0  0  0  0  0  0  0  0  0  0  0
   -4.5700   14.8320   -0.4220 N   0  0  0  0  0  0  0  0  0  0  0  0
   -5.5230   14.5540   -1.4150 C   0  0  0  0  0  0  0  0  0  0  0  0
   -7.1460   14.4130    0.0980 C   0  0  0  0  0  0  0  0  0  0  0  0
   -7.1310   14.7320    2.4420 C   0  0  0  0  0  0  0  0  0  0  0  0
   -3.3450   15.0060   -1.0020 N   0  0  0  0  0  0  0  0  0  0  0  0
   -6.8380   14.3320   -1.1450 N   0  0  0  0  0  0  0  0  0  0  0  0
   -8.5320   14.1820    0.6150 C   0  0  0  0  0  0  0  0  0  0  0  0
   -8.1950   13.7360    2.0340 C   0  0  0  0  0  0  0  0  0  0  0  0
   -4.9410   14.5520   -2.5760 N   0  0  0  0  0  0  0  0  0  0  0  0
   -3.6450   14.8310   -2.2940 C   0  0  0  0  0  0  0  0  0  0  0  0
   -2.7050   14.9350   -3.4230 C   0  0  0  0  0  0  0  0  0  0  0  0
   -3.3750   15.9550   -4.3440 C   0  0  0  0  0  0  0  0  0  0  0  0
   -2.4690   16.9220   -4.9070 O   0  0  0  0  0  0  0  0  0  0  0  0
   -1.4090   16.1660   -4.8330 C   0  0  0  0  0  0  0  0  0  0  0  0
   -0.1080   16.6480   -4.7050 C   0  0  0  0  0  0  0  0  0  0  0  0
   -1.6920   14.8240   -4.8670 C   0  0  0  0  0  0  0  0  0  0  0  0
    0.0770   18.0000   -4.7030 O   0  0  0  0  0  0  0  0  0  0  0  0
   -0.7050   13.9100   -4.7460 C   0  0  0  0  0  0  0  0  0  0  0  0
    0.9100   15.6940   -4.5800 C   0  0  0  0  0  0  0  0  0  0  0  0
    1.1490   18.4180   -5.5220 C   0  0  0  0  0  0  0  0  0  0  0  0
    0.5910   14.3210   -4.5910 C   0  0  0  0  0  0  0  0  0  0  0  0
    1.5820   13.2250   -4.4220 C   0  0  0  0  0  0  0  0  0  0  0  0
    1.0880   12.3590   -3.2740 C   0  0  0  0  0  0  0  0  0  0  0  0
    0.4390   11.3300   -3.3120 O   0  0  0  0  0  0  0  0  0  0  0  0
    1.4300   12.8710   -2.0720 O   0  0  0  0  0  0  0  0  0  0  0  0
  1  2  1  0
  2  3  2  0
  2  4  1  0
  4  5  1  0
  3  6  1  0
  3  7  1  0
  4  8  1  0
  5  9  1  0
  6  9  2  0
  6 10  1  0
  7 11  1  0
 10 11  1  0
  5 12  2  0
  8 13  2  0
 12 13  1  0
 13 14  1  0
 14 15  1  0
 15 16  1  0
 16 17  1  0
 17 18  2  0
 17 19  1  0
 18 20  1  0
 19 21  2  0
 18 22  1  0
 20 23  1  0
 21 24  1  0
 22 24  2  0
 24 25  1  0
 25 26  1  0
 26 27  2  0
 26 28  1  0
M  END
