mac-x0131-mac-x0338
     RDKit          3D

 20 22  0  0  0  0  0  0  0  0999 V2000
   -3.5070   15.0950   -4.2500 C   0  0  0  0  0  0  0  0  0  0  0  0
   -3.0180   15.0160   -2.8430 C   0  0  0  0  0  0  0  0  0  0  0  0
   -3.7150   15.1250   -1.6420 C   0  0  0  0  0  0  0  0  0  0  0  0
   -1.6850   14.8090   -2.5390 N   0  0  0  0  0  0  0  0  0  0  0  0
   -5.1790   15.3580   -1.4790 C   0  0  0  0  0  0  0  0  0  0  0  0
   -0.5840   14.6390   -3.4870 C   0  0  0  0  0  0  0  0  0  0  0  0
   -2.7600   14.9730   -0.5820 C   0  0  0  0  0  0  0  0  0  0  0  0
   -1.5190   14.7800   -1.1730 C   0  0  0  0  0  0  0  0  0  0  0  0
   -2.7770   14.9760    0.8230 C   0  0  0  0  0  0  0  0  0  0  0  0
   -0.3510   14.6010   -0.5310 N   0  0  0  0  0  0  0  0  0  0  0  0
   -0.3990   13.1940   -3.7320 C   0  0  0  0  0  0  0  0  0  0  0  0
   -3.9730   15.1750    1.4930 N   0  0  0  0  0  0  0  0  0  0  0  0
   -1.6250   14.7880    1.5110 N   0  0  0  0  0  0  0  0  0  0  0  0
   -0.4950   14.6190    0.8060 C   0  0  0  0  0  0  0  0  0  0  0  0
    0.4270   12.2280   -3.1960 C   0  0  0  0  0  0  0  0  0  0  0  0
   -1.2030   12.6380   -4.6810 O   0  0  0  0  0  0  0  0  0  0  0  0
   -5.0940   14.4360    1.2830 C   0  0  0  0  0  0  0  0  0  0  0  0
   -0.8920   11.3210   -4.7490 C   0  0  0  0  0  0  0  0  0  0  0  0
    0.0930   11.0210   -3.8530 C   0  0  0  0  0  0  0  0  0  0  0  0
   -6.2140   14.9240    1.1830 O   0  0  0  0  0  0  0  0  0  0  0  0
  1  2  1  0
  2  3  2  0
  2  4  1  0
  3  5  1  0
  4  6  1  0
  3  7  1  0
  4  8  1  0
  7  8  2  0
  7  9  1  0
  8 10  1  0
  6 11  1  0
  9 12  1  0
  9 13  2  0
 10 14  2  0
 13 14  1  0
 11 15  2  0
 11 16  1  0
 12 17  1  0
 16 18  1  0
 15 19  1  0
 18 19  2  0
 17 20  2  0
M  END
