mac-x0212-mac-x0496
     RDKit          3D

 22 24  0  0  0  0  0  0  0  0999 V2000
   -6.1900   12.5260    0.9850 C   0  0  0  0  0  0  0  0  0  0  0  0
   -6.7230   14.2100    0.8540 S   0  0  2  0  0  0  0  0  0  0  0  0
   -7.5370   14.5280    2.0750 N   0  0  0  0  0  0  0  0  0  0  0  0
   -7.1640   14.4470   -0.5000 O   0  0  0  0  0  0  0  0  0  0  0  0
   -5.3740   15.2100    0.9480 N   0  0  0  0  0  0  0  0  0  0  0  0
   -8.9750   14.3430    1.9190 C   0  0  0  0  0  0  0  0  0  0  0  0
   -4.3440   15.0040    0.0390 C   0  0  0  0  0  0  0  0  0  0  0  0
   -3.1210   14.4420    0.4330 C   0  0  0  0  0  0  0  0  0  0  0  0
   -4.5490   15.3510   -1.3110 C   0  0  0  0  0  0  0  0  0  0  0  0
   -9.6670   15.4320    2.6100 C   0  0  0  0  0  0  0  0  0  0  0  0
   -2.1040   14.2100   -0.4890 C   0  0  0  0  0  0  0  0  0  0  0  0
   -3.5260   15.1110   -2.2140 C   0  0  0  0  0  0  0  0  0  0  0  0
  -10.9130   15.7830    2.1920 O   0  0  0  0  0  0  0  0  0  0  0  0
   -9.2150   16.1360    3.6140 N   0  0  0  0  0  0  0  0  0  0  0  0
   -3.4310   15.3510   -3.6590 C   0  0  0  0  0  0  0  0  0  0  0  0
   -2.3460   14.5510   -1.8000 C   0  0  0  0  0  0  0  0  0  0  0  0
  -10.2440   16.9840    3.8480 C   0  0  0  0  0  0  0  0  0  0  0  0
  -11.3000   16.8220    3.0380 N   0  0  0  0  0  0  0  0  0  0  0  0
   -1.4650   14.3950   -2.9490 C   0  0  0  0  0  0  0  0  0  0  0  0
   -2.2150   14.6870   -4.0450 O   0  0  0  0  0  0  0  0  0  0  0  0
  -10.1890   17.9920    4.9200 C   0  0  0  0  0  0  0  0  0  0  0  0
   -0.3020   14.0600   -2.9260 O   0  0  0  0  0  0  0  0  0  0  0  0
  2  1  1  6
  2  3  2  0
  2  4  2  0
  2  5  1  0
  3  6  1  0
  5  7  1  0
  7  8  2  0
  7  9  1  0
  6 10  1  0
  8 11  1  0
  9 12  2  0
 10 13  1  0
 10 14  2  0
 12 15  1  0
 11 16  2  0
 12 16  1  0
 14 17  1  0
 13 18  1  0
 17 18  2  0
 16 19  1  0
 15 20  1  0
 19 20  1  0
 17 21  1  0
 19 22  2  0
M  END
