mac-x0345-diamond-x0895_1_A
     RDKit          3D

 10 10  0  0  0  0  0  0  0  0999 V2000
   -7.0390   14.2050    0.8390 C   0  0  0  0  0  0  0  0  0  0  0  0
   -6.2620   14.9920   -0.2300 C   0  0  2  0  0  0  0  0  0  0  0  0
   -6.1340   14.2950   -1.4950 N   0  0  0  0  0  0  0  0  0  0  0  0
   -4.9050   15.6070    0.1870 C   0  0  1  0  0  0  0  0  0  0  0  0
   -4.4520   15.4250    2.0280 Br  0  0  0  0  0  0  0  0  0  0  0  0
   -3.7140   15.1040   -0.5720 C   0  0  0  0  0  0  0  0  0  0  0  0
   -5.3510   15.0390   -2.4250 C   0  0  2  0  0  0  0  0  0  0  0  0
   -5.5840   14.5410   -3.7490 N   0  0  0  0  0  0  0  0  0  0  0  0
   -2.6630   14.6930   -0.0300 O   0  0  0  0  0  0  0  0  0  0  0  0
   -3.8780   15.1480   -2.0630 C   0  0  0  0  0  0  0  0  0  0  0  0
  2  1  1  1
  2  3  1  0
  2  4  1  0
  4  5  1  1
  4  6  1  0
  3  7  1  0
  7  8  1  6
  6  9  2  0
  6 10  1  0
  7 10  1  0
M  END
