mac-x0223-diamond-x0591_0_A
     RDKit          3D

 27 28  0  0  0  0  0  0  0  0999 V2000
    1.2570   18.6480   -5.6370 C   0  0  0  0  0  0  0  0  0  0  0  0
    0.7040   18.3380   -4.3790 O   0  0  0  0  0  0  0  0  0  0  0  0
    0.2740   17.0850   -4.4680 C   0  0  0  0  0  0  0  0  0  0  0  0
   -1.0540   17.0020   -4.7880 C   0  0  0  0  0  0  0  0  0  0  0  0
    1.0370   15.9280   -4.2910 C   0  0  0  0  0  0  0  0  0  0  0  0
   -1.8560   18.1280   -4.9490 O   0  0  0  0  0  0  0  0  0  0  0  0
   -1.5930   15.7780   -4.9520 C   0  0  0  0  0  0  0  0  0  0  0  0
    0.4530   14.6650   -4.4490 C   0  0  0  0  0  0  0  0  0  0  0  0
    1.2350   13.3870   -4.2680 C   0  0  0  0  0  0  0  0  0  0  0  0
   -2.8950   15.7350   -5.3050 N   0  0  0  0  0  0  0  0  0  0  0  0
   -0.8750   14.6110   -4.7860 C   0  0  0  0  0  0  0  0  0  0  0  0
    0.7460   12.5490   -3.1060 C   0  0  0  0  0  0  0  0  0  0  0  0
   -3.4090   14.1700   -5.3500 S   0  0  0  0  0  0  0  0  0  0  0  0
    0.1880   11.4640   -3.1260 O   0  0  0  0  0  0  0  0  0  0  0  0
    1.0010   13.1540   -1.9300 O   0  0  0  0  0  0  0  0  0  0  0  0
   -2.3440   13.1920   -5.2940 O   0  0  0  0  0  0  0  0  0  0  0  0
   -4.3980   14.1760   -6.3880 O   0  0  0  0  0  0  0  0  0  0  0  0
   -4.1720   14.3290   -3.7800 C   0  0  0  0  0  0  0  0  0  0  0  0
   -3.4680   14.1140   -2.5860 C   0  0  0  0  0  0  0  0  0  0  0  0
   -5.4970   14.6890   -3.7870 C   0  0  0  0  0  0  0  0  0  0  0  0
   -4.1450   14.2680   -1.3730 C   0  0  0  0  0  0  0  0  0  0  0  0
   -6.1600   14.8430   -2.5980 C   0  0  0  0  0  0  0  0  0  0  0  0
   -5.5030   14.6340   -1.3960 C   0  0  0  0  0  0  0  0  0  0  0  0
   -6.3370   14.8180   -0.1960 C   0  0  0  0  0  0  0  0  0  0  0  0
   -5.7470   14.6600    1.0230 N   0  0  0  0  0  0  0  0  0  0  0  0
   -7.5230   15.0860   -0.3390 O   0  0  0  0  0  0  0  0  0  0  0  0
   -6.5970   14.5620    2.1780 C   0  0  0  0  0  0  0  0  0  0  0  0
  1  2  1  0
  2  3  1  0
  3  4  2  0
  3  5  1  0
  4  6  1  0
  4  7  1  0
  5  8  2  0
  8  9  1  0
  7 10  1  0
  7 11  2  0
  8 11  1  0
  9 12  1  0
 13 10  1  0
 12 14  2  0
 12 15  1  0
 13 16  2  0
 13 17  2  0
 13 18  1  0
 18 19  2  0
 18 20  1  0
 19 21  1  0
 20 22  2  0
 21 23  2  0
 22 23  1  0
 23 24  1  0
 24 25  1  0
 24 26  2  0
 25 27  1  0
M  END
