mac-x0555-mac-x1493
     RDKit          3D

 14 15  0  0  0  0  0  0  0  0999 V2000
   -7.4300   14.3400    2.9070 N   0  0  0  0  0  0  0  0  0  0  0  0
   -6.9560   14.5300    1.6090 C   0  0  0  0  0  0  0  0  0  0  0  0
   -7.8150   14.7250    0.5390 C   0  0  0  0  0  0  0  0  0  0  0  0
   -5.5850   14.5360    1.3300 C   0  0  0  0  0  0  0  0  0  0  0  0
   -5.1280   14.7320    0.0130 C   0  0  0  0  0  0  0  0  0  0  0  0
   -7.4210   14.9220   -0.7340 N   0  0  0  0  0  0  0  0  0  0  0  0
   -6.1080   14.9260   -0.9860 C   0  0  0  0  0  0  0  0  0  0  0  0
   -3.7570   14.7330   -0.3300 C   0  0  0  0  0  0  0  0  0  0  0  0
   -5.7000   15.1250   -2.2900 C   0  0  0  0  0  0  0  0  0  0  0  0
   -3.3910   14.9220   -1.6760 C   0  0  0  0  0  0  0  0  0  0  0  0
   -2.0030   14.9100   -2.1730 C   0  0  0  0  0  0  0  0  0  0  0  0
   -4.3590   15.1240   -2.6430 C   0  0  0  0  0  0  0  0  0  0  0  0
   -1.0730   14.7340   -1.2170 O   0  0  0  0  0  0  0  0  0  0  0  0
   -1.7460   15.0510   -3.3580 O   0  0  0  0  0  0  0  0  0  0  0  0
  1  2  1  0
  2  3  2  0
  2  4  1  0
  4  5  2  0
  3  6  1  0
  5  7  1  0
  6  7  2  0
  5  8  1  0
  7  9  1  0
  8 10  2  0
 10 11  1  0
  9 12  2  0
 10 12  1  0
 11 13  1  0
 11 14  2  0
M  END
