mac-x0576-diamond-x0910_1_A
     RDKit          3D

 13 14  0  0  0  0  0  0  0  0999 V2000
   -0.0450   13.8710    1.4900 N   0  0  0  0  0  0  0  0  0  0  0  0
   -0.5940   14.9230    0.7300 C   0  0  2  0  0  0  0  0  0  0  0  0
   -1.8970   15.1520    1.2650 N   0  0  0  0  0  0  0  0  0  0  0  0
   -0.6160   14.4320   -0.5870 N   0  0  0  0  0  0  0  0  0  0  0  0
   -1.6550   14.6520   -1.4430 C   0  0  0  0  0  0  0  0  0  0  0  0
   -2.9850   14.4230    0.6690 C   0  0  2  0  0  0  0  0  0  0  0  0
   -1.4200   14.9550   -2.6100 O   0  0  0  0  0  0  0  0  0  0  0  0
   -3.0510   14.5050   -0.8600 C   0  0  1  0  0  0  0  0  0  0  0  0
   -4.1840   14.8460    1.3410 N   0  0  0  0  0  0  0  0  0  0  0  0
   -5.3650   15.0080    0.6650 C   0  0  0  0  0  0  0  0  0  0  0  0
   -3.9600   15.5620   -1.3450 N   0  0  0  0  0  0  0  0  0  0  0  0
   -6.4250   14.8210    1.2560 O   0  0  0  0  0  0  0  0  0  0  0  0
   -5.3220   15.4210   -0.8110 C   0  0  0  0  0  0  0  0  0  0  0  0
  2  1  1  1
  2  3  1  0
  2  4  1  0
  4  5  1  0
  6  3  1  1
  5  7  2  0
  5  8  1  0
  6  8  1  0
  6  9  1  0
  9 10  1  0
  8 11  1  1
 10 12  2  0
 10 13  1  0
 11 13  1  0
M  END
