mac-x0231-diamond-x1018_0_A
     RDKit          3D

 26 29  0  0  0  0  0  0  0  0999 V2000
    0.5860   10.9150   -3.2080 O   0  0  0  0  0  0  0  0  0  0  0  0
    1.3490   12.0180   -3.1390 C   0  0  0  0  0  0  0  0  0  0  0  0
    1.6070   12.4940   -2.0500 O   0  0  0  0  0  0  0  0  0  0  0  0
    1.8200   12.6000   -4.4400 C   0  0  0  0  0  0  0  0  0  0  0  0
    1.3280   14.0000   -4.5030 C   0  0  0  0  0  0  0  0  0  0  0  0
   -0.1070   14.1750   -4.4830 C   0  0  0  0  0  0  0  0  0  0  0  0
    2.1610   14.9720   -4.4770 N   0  0  0  0  0  0  0  0  0  0  0  0
   -0.5910   15.4680   -4.4890 C   0  0  0  0  0  0  0  0  0  0  0  0
    1.6640   16.2330   -4.4740 N   0  0  0  0  0  0  0  0  0  0  0  0
   -0.9520   13.0740   -4.4260 C   0  0  0  0  0  0  0  0  0  0  0  0
    0.3540   16.5870   -4.5740 C   0  0  0  0  0  0  0  0  0  0  0  0
   -1.9520   15.6790   -4.3930 C   0  0  0  0  0  0  0  0  0  0  0  0
   -2.3070   13.2780   -4.3280 C   0  0  0  0  0  0  0  0  0  0  0  0
   -0.0120   17.7480   -4.7190 O   0  0  0  0  0  0  0  0  0  0  0  0
   -2.7950   14.5710   -4.2890 C   0  0  0  0  0  0  0  0  0  0  0  0
   -4.2380   14.7870   -4.0930 C   0  0  0  0  0  0  0  0  0  0  0  0
   -4.3450   15.4390   -2.7430 N   0  0  0  0  0  0  0  0  0  0  0  0
   -3.4310   14.9090   -1.7000 N   0  0  0  0  0  0  0  0  0  0  0  0
   -5.6660   15.2730   -2.2680 N   0  0  0  0  0  0  0  0  0  0  0  0
   -5.6190   14.3210   -1.2860 N   0  0  0  0  0  0  0  0  0  0  0  0
   -4.2840   14.2340   -0.7090 C   0  0  2  0  0  0  0  0  0  0  0  0
   -6.7680   14.2780   -0.5740 N   0  0  0  0  0  0  0  0  0  0  0  0
   -4.2790   14.7920    0.6790 C   0  0  0  0  0  0  0  0  0  0  0  0
   -6.6830   14.5810    0.6710 C   0  0  0  0  0  0  0  0  0  0  0  0
   -5.4210   14.9620    1.3660 C   0  0  0  0  0  0  0  0  0  0  0  0
   -8.1790   14.5260    1.5330 Cl  0  0  0  0  0  0  0  0  0  0  0  0
  1  2  1  0
  2  3  2  0
  2  4  1  0
  4  5  1  0
  5  6  1  0
  5  7  2  0
  6  8  2  0
  7  9  1  0
  6 10  1  0
  8 11  1  0
  9 11  1  0
  8 12  1  0
 10 13  2  0
 11 14  2  0
 12 15  2  0
 13 15  1  0
 15 16  1  0
 16 17  1  0
 17 18  1  0
 17 19  1  0
 19 20  1  0
 18 21  1  0
 20 21  1  0
 20 22  1  0
 21 23  1  1
 22 24  2  0
 23 25  2  0
 24 25  1  0
 24 26  1  0
M  END
