mac-x0385-mac-x0412
     RDKit          3D

 19 21  0  0  0  0  0  0  0  0999 V2000
   -4.5430   15.9150   -1.0970 C   0  0  0  0  0  0  0  0  0  0  0  0
   -3.2490   15.6090   -0.4180 C   0  0  0  0  0  0  0  0  0  0  0  0
   -2.0580   15.8680   -0.9820 C   0  0  0  0  0  0  0  0  0  0  0  0
   -3.2500   15.0230    0.8160 C   0  0  0  0  0  0  0  0  0  0  0  0
   -2.1910   14.6940    1.5340 N   0  0  0  0  0  0  0  0  0  0  0  0
   -0.9430   15.5520   -0.3680 N   0  0  0  0  0  0  0  0  0  0  0  0
   -4.6160   14.8040    1.0580 C   0  0  0  0  0  0  0  0  0  0  0  0
   -1.0790   14.9810    0.8430 C   0  0  0  0  0  0  0  0  0  0  0  0
   -4.9470   14.3310   -0.0870 C   0  0  0  0  0  0  0  0  0  0  0  0
   -5.6620   15.0100    2.0650 C   0  0  0  0  0  0  0  0  0  0  0  0
    0.1540   14.6110    1.4470 C   0  0  0  0  0  0  0  0  0  0  0  0
   -6.3230   14.0070   -0.5200 C   0  0  1  0  0  0  0  0  0  0  0  0
   -6.9370   14.8960    1.7990 N   0  0  0  0  0  0  0  0  0  0  0  0
   -3.8700   14.1250   -1.0590 C   0  0  0  0  0  0  0  0  0  0  0  0
   -7.3390   14.6100    0.4830 C   0  0  0  0  0  0  0  0  0  0  0  0
   -4.0860   14.2740   -2.3570 C   0  0  0  0  0  0  0  0  0  0  0  0
   -6.4650   14.5130   -1.9570 C   0  0  0  0  0  0  0  0  0  0  0  0
   -8.4820   14.8510    0.1210 O   0  0  0  0  0  0  0  0  0  0  0  0
   -5.4070   14.6330   -2.8040 C   0  0  0  0  0  0  0  0  0  0  0  0
  1  2  1  0
  2  3  2  0
  2  4  1  0
  4  5  2  0
  3  6  1  0
  4  7  1  0
  5  8  1  0
  6  8  2  0
  7  9  2  0
  7 10  1  0
  8 11  1  0
  9 12  1  0
 10 13  2  0
  9 14  1  0
 12 15  1  0
 13 15  1  0
 14 16  2  0
 12 17  1  6
 15 18  2  0
 16 19  1  0
 17 19  2  0
M  END
