mac-x0347-mac-x0361
     RDKit          3D

 24 26  0  0  0  0  0  0  0  0999 V2000
    0.3210   14.5030    0.2750 O   0  0  0  0  0  0  0  0  0  0  0  0
    0.0320   13.9060   -0.8920 C   0  0  0  0  0  0  0  0  0  0  0  0
    0.1510   12.6970   -1.0650 O   0  0  0  0  0  0  0  0  0  0  0  0
   -0.4560   14.8730   -1.9140 C   0  0  0  0  0  0  0  0  0  0  0  0
    0.4320   15.3500   -2.9070 C   0  0  0  0  0  0  0  0  0  0  0  0
   -1.9190   15.5170   -2.1240 C   0  0  0  0  0  0  0  0  0  0  0  0
   -0.6340   15.8780   -3.1400 C   0  0  0  0  0  0  0  0  0  0  0  0
   -2.3400   16.4650   -3.1860 N   0  0  0  0  0  0  0  0  0  0  0  0
   -3.1820   15.3150   -1.3290 C   0  0  0  0  0  0  0  0  0  0  0  0
   -1.2750   16.6560   -3.8880 C   0  0  0  0  0  0  0  0  0  0  0  0
   -1.3240   15.2320   -1.9850 C   0  0  0  0  0  0  0  0  0  0  0  0
   -3.3540   15.7030    0.0230 C   0  0  0  0  0  0  0  0  0  0  0  0
   -4.2880   14.7020   -1.9570 C   0  0  0  0  0  0  0  0  0  0  0  0
   -1.1690   15.7740   -0.6760 C   0  0  0  0  0  0  0  0  0  0  0  0
   -2.1130   14.0500   -2.1080 C   0  0  0  0  0  0  0  0  0  0  0  0
   -4.5570   15.4740    0.7030 C   0  0  0  0  0  0  0  0  0  0  0  0
   -5.4900   14.4740   -1.2810 C   0  0  0  0  0  0  0  0  0  0  0  0
   -1.7660   15.1670    0.4480 C   0  0  0  0  0  0  0  0  0  0  0  0
   -2.7070   13.4480   -0.9750 C   0  0  0  0  0  0  0  0  0  0  0  0
   -5.6290   14.8540    0.0550 C   0  0  0  0  0  0  0  0  0  0  0  0
   -6.8920   14.6180    0.8110 C   0  0  0  0  0  0  0  0  0  0  0  0
   -2.5310   14.0080    0.2980 C   0  0  0  0  0  0  0  0  0  0  0  0
   -6.8510   14.6820    2.1810 N   0  0  0  0  0  0  0  0  0  0  0  0
   -7.9470   14.3790    0.2350 O   0  0  0  0  0  0  0  0  0  0  0  0
  1  2  1  0
  2  3  2  0
  2  4  1  0
  4  5  2  0
  4  6  1  0
  5  7  1  0
  6  8  2  0
  6  9  1  0
  7 10  2  0
  8 10  1  0
  7 11  1  0
  9 12  2  0
  9 13  1  0
 11 14  2  0
 11 15  1  0
 12 16  1  0
 13 17  2  0
 14 18  1  0
 15 19  2  0
 16 20  2  0
 17 20  1  0
 20 21  1  0
 18 22  2  0
 19 22  1  0
 21 23  1  0
 21 24  2  0
M  END
