mac-x0283-diamond-x0967_0_A
     RDKit          3D

 10 11  0  0  0  0  0  0  0  0999 V2000
   -6.8800   14.5970    2.4640 N   0  0  0  0  0  0  0  0  0  0  0  0
   -6.7190   14.7230    1.1320 C   0  0  0  0  0  0  0  0  0  0  0  0
   -7.7270   14.7210    0.2600 N   0  0  0  0  0  0  0  0  0  0  0  0
   -5.4630   14.8830    0.4880 C   0  0  0  0  0  0  0  0  0  0  0  0
   -7.1440   14.8860   -0.9860 O   0  0  0  0  0  0  0  0  0  0  0  0
   -5.7980   14.9810   -0.8500 C   0  0  0  0  0  0  0  0  0  0  0  0
   -4.1060   14.9590    0.8530 C   0  0  0  0  0  0  0  0  0  0  0  0
   -4.8780   15.1510   -1.8810 C   0  0  0  0  0  0  0  0  0  0  0  0
   -3.1550   15.1250   -0.1590 C   0  0  0  0  0  0  0  0  0  0  0  0
   -3.5360   15.2200   -1.5030 C   0  0  0  0  0  0  0  0  0  0  0  0
  1  2  1  0
  2  3  2  0
  2  4  1  0
  3  5  1  0
  4  6  2  0
  5  6  1  0
  4  7  1  0
  6  8  1  0
  7  9  2  0
  8 10  2  0
  9 10  1  0
M  END
