mac-x0402-mac-x0392
     RDKit          3D

 20 22  0  0  0  0  0  0  0  0999 V2000
   -2.2240   14.5960   -3.1120 N   0  0  0  0  0  0  0  0  0  0  0  0
   -1.0350   15.1130   -2.4730 C   0  0  2  0  0  0  0  0  0  0  0  0
    0.0910   14.3450   -2.8570 O   0  0  0  0  0  0  0  0  0  0  0  0
   -3.3200   14.6500   -2.2460 C   0  0  0  0  0  0  0  0  0  0  0  0
   -4.5480   15.1390   -2.6780 C   0  0  0  0  0  0  0  0  0  0  0  0
   -3.2130   14.2400   -0.9050 C   0  0  0  0  0  0  0  0  0  0  0  0
   -1.3850   15.0890   -1.0080 C   0  0  0  0  0  0  0  0  0  0  0  0
   -4.3110   14.3510   -0.0390 C   0  0  0  0  0  0  0  0  0  0  0  0
   -5.6540   15.2440   -1.8120 C   0  0  0  0  0  0  0  0  0  0  0  0
   -0.6350   14.4130   -0.0370 C   0  0  0  0  0  0  0  0  0  0  0  0
   -2.5460   15.7660   -0.5880 C   0  0  0  0  0  0  0  0  0  0  0  0
    0.5360   13.7170   -0.3530 N   0  0  0  0  0  0  0  0  0  0  0  0
   -5.5310   14.8490   -0.4670 C   0  0  0  0  0  0  0  0  0  0  0  0
   -4.4240   13.9460    1.6290 S   0  0  0  0  0  0  0  0  0  0  0  0
   -2.9120   15.7290    0.7400 C   0  0  0  0  0  0  0  0  0  0  0  0
   -1.0940   14.4400    1.2690 C   0  0  0  0  0  0  0  0  0  0  0  0
   -6.0480   14.4750    1.6510 C   0  0  0  0  0  0  0  0  0  0  0  0
   -6.5130   14.9060    0.5050 N   0  0  0  0  0  0  0  0  0  0  0  0
   -2.2050   15.0650    1.6820 N   0  0  0  0  0  0  0  0  0  0  0  0
   -6.7910   14.4510    2.7770 N   0  0  0  0  0  0  0  0  0  0  0  0
  1  2  1  0
  2  3  1  1
  1  4  1  0
  4  5  2  0
  4  6  1  0
  2  7  1  0
  6  8  2  0
  5  9  1  0
  7 10  2  0
  7 11  1  0
 10 12  1  0
  8 13  1  0
  9 13  2  0
  8 14  1  0
 11 15  2  0
 10 16  1  0
 14 17  1  0
 13 18  1  0
 17 18  2  0
 15 19  1  0
 16 19  2  0
 17 20  1  0
M  END
