mac-x0380-mac-x0338
     RDKit          3D

 17 18  0  0  0  0  0  0  0  0999 V2000
   -1.6230   14.7980   -2.6280 O   0  0  0  0  0  0  0  0  0  0  0  0
   -2.8900   15.0870   -2.9730 C   0  0  0  0  0  0  0  0  0  0  0  0
   -3.1920   15.3420   -4.1240 O   0  0  0  0  0  0  0  0  0  0  0  0
   -3.8330   15.0520   -1.8260 C   0  0  0  0  0  0  0  0  0  0  0  0
   -5.2320   14.9640   -1.9710 C   0  0  0  0  0  0  0  0  0  0  0  0
   -3.2960   15.1100   -0.5470 C   0  0  0  0  0  0  0  0  0  0  0  0
   -6.0690   14.9190   -0.8300 C   0  0  0  0  0  0  0  0  0  0  0  0
   -4.1670   15.0680    0.5290 C   0  0  0  0  0  0  0  0  0  0  0  0
   -3.8000   15.1280    1.8870 C   0  0  0  0  0  0  0  0  0  0  0  0
   -5.5060   14.9630    0.4260 C   0  0  0  0  0  0  0  0  0  0  0  0
   -7.8330   14.8030   -1.0060 S   0  0  0  0  0  0  0  0  0  0  0  0
   -2.7870   14.3610    2.2600 N   0  0  0  0  0  0  0  0  0  0  0  0
   -4.4420   15.8510    2.6290 O   0  0  0  0  0  0  0  0  0  0  0  0
   -6.2340   14.9010    1.6480 N   0  0  0  0  0  0  0  0  0  0  0  0
   -8.2180   13.9790    0.5600 C   0  0  0  0  0  0  0  0  0  0  0  0
   -7.5420   14.5770    1.7620 C   0  0  0  0  0  0  0  0  0  0  0  0
   -8.1460   14.7670    2.8220 O   0  0  0  0  0  0  0  0  0  0  0  0
  1  2  1  0
  2  3  2  0
  2  4  1  0
  4  5  2  0
  4  6  1  0
  5  7  1  0
  6  8  2  0
  8  9  1  0
  7 10  2  0
  8 10  1  0
  7 11  1  0
  9 12  1  0
  9 13  2  0
 10 14  1  0
 11 15  1  0
 14 16  1  0
 15 16  1  0
 16 17  2  0
M  END
