mac-x0392-mac-x0381
     RDKit          3D

 26 28  0  0  0  0  0  0  0  0999 V2000
    0.1800   13.6280   -0.1840 N   0  0  0  0  0  0  0  0  0  0  0  0
   -0.8340   14.7190   -0.1610 C   0  0  2  0  0  0  0  0  0  0  0  0
   -1.6890   14.6270    1.1360 C   0  0  0  0  0  0  0  0  0  0  0  0
   -1.7570   14.6760   -1.4260 C   0  0  1  0  0  0  0  0  0  0  0  0
   -1.0240   14.5590   -2.7510 C   0  0  0  0  0  0  0  0  0  0  0  0
   -2.7970   13.6230   -1.3270 C   0  0  0  0  0  0  0  0  0  0  0  0
   -3.1210   14.4110    0.8240 N   0  0  0  0  0  0  0  0  0  0  0  0
   -1.5420   14.4730   -3.8530 O   0  0  0  0  0  0  0  0  0  0  0  0
    0.3190   14.5660   -2.6630 O   0  0  0  0  0  0  0  0  0  0  0  0
   -4.1120   15.3880    1.2550 C   0  0  0  0  0  0  0  0  0  0  0  0
   -3.4380   13.5490   -0.1840 C   0  0  0  0  0  0  0  0  0  0  0  0
   -5.5020   14.7520    1.2240 C   0  0  0  0  0  0  0  0  0  0  0  0
   -6.1060   14.6350    2.6130 C   0  0  0  0  0  0  0  0  0  0  0  0
   -7.4760   15.0280    2.6570 N   0  0  0  0  0  0  0  0  0  0  0  0
   -8.3240   14.5460    3.4690 C   0  0  0  0  0  0  0  0  0  0  0  0
   -8.1120   13.5940    4.4280 N   0  0  0  0  0  0  0  0  0  0  0  0
   -9.6640   15.1240    3.2360 C   0  0  0  0  0  0  0  0  0  0  0  0
   -9.7940   15.9240    2.1080 C   0  0  0  0  0  0  0  0  0  0  0  0
  -10.7540   14.8900    4.0710 C   0  0  0  0  0  0  0  0  0  0  0  0
  -11.0070   16.5010    1.7770 C   0  0  0  0  0  0  0  0  0  0  0  0
  -11.9860   15.4620    3.7540 C   0  0  0  0  0  0  0  0  0  0  0  0
  -12.1270   16.2660    2.6080 C   0  0  0  0  0  0  0  0  0  0  0  0
  -11.1330   17.3020    0.6390 C   0  0  0  0  0  0  0  0  0  0  0  0
  -13.3520   16.8420    2.2640 C   0  0  0  0  0  0  0  0  0  0  0  0
  -12.3590   17.8710    0.3130 C   0  0  0  0  0  0  0  0  0  0  0  0
  -13.4690   17.6380    1.1240 C   0  0  0  0  0  0  0  0  0  0  0  0
  2  1  1  6
  2  3  1  0
  2  4  1  0
  4  5  1  6
  4  6  1  0
  3  7  1  0
  5  8  2  0
  5  9  1  0
  7 10  1  0
  6 11  2  0
  7 11  1  0
 10 12  1  0
 12 13  1  0
 13 14  1  0
 14 15  2  3
 15 16  1  0
 15 17  1  0
 17 18  2  0
 17 19  1  0
 18 20  1  0
 19 21  2  0
 20 22  2  0
 21 22  1  0
 20 23  1  0
 22 24  1  0
 23 25  2  0
 24 26  2  0
 25 26  1  0
M  END
