mac-x0116-mac-x0302
     RDKit          3D

 24 26  0  0  0  0  0  0  0  0999 V2000
   -6.0900   14.6020    1.8700 C   0  0  0  0  0  0  0  0  0  0  0  0
   -4.6620   14.9020    1.8170 N   0  0  0  0  0  0  0  0  0  0  0  0
   -3.9500   14.6190    0.5820 C   0  0  1  0  0  0  0  0  0  0  0  0
   -6.4630   13.1750    1.8160 C   0  0  0  0  0  0  0  0  0  0  0  0
   -6.3880   12.5450    0.6020 O   0  0  0  0  0  0  0  0  0  0  0  0
   -6.9030   12.3030    2.7790 C   0  0  0  0  0  0  0  0  0  0  0  0
   -7.1160   11.0760    2.1290 C   0  0  0  0  0  0  0  0  0  0  0  0
   -6.7870   11.2710    0.8100 C   0  0  0  0  0  0  0  0  0  0  0  0
   -4.5450   15.3410   -0.5480 N   0  0  0  0  0  0  0  0  0  0  0  0
   -2.4640   14.9600    0.6250 C   0  0  2  0  0  0  0  0  0  0  0  0
   -5.9780   14.9840   -0.5920 O   0  0  0  0  0  0  0  0  0  0  0  0
   -3.9560   14.9460   -1.8390 C   0  0  0  0  0  0  0  0  0  0  0  0
   -1.8720   14.4130   -0.6590 C   0  0  1  0  0  0  0  0  0  0  0  0
   -1.5530   14.3960    1.6210 N   0  0  0  0  0  0  0  0  0  0  0  0
   -2.4640   14.9010   -1.8890 N   0  0  0  0  0  0  0  0  0  0  0  0
   -0.4700   14.7440   -0.4590 N   0  0  0  0  0  0  0  0  0  0  0  0
   -0.2460   14.4370    0.9520 C   0  0  0  0  0  0  0  0  0  0  0  0
   -1.8270   14.3430   -3.0770 N   0  0  0  0  0  0  0  0  0  0  0  0
   -0.5440   14.9130   -3.5150 C   0  0  0  0  0  0  0  0  0  0  0  0
   -2.7620   14.2850   -4.1950 C   0  0  0  0  0  0  0  0  0  0  0  0
    0.6010   14.0810   -2.9520 C   0  0  0  0  0  0  0  0  0  0  0  0
   -3.4530   15.5140   -4.2520 O   0  0  0  0  0  0  0  0  0  0  0  0
    1.7530   14.2250   -3.6560 O   0  0  0  0  0  0  0  0  0  0  0  0
    0.5150   13.3570   -1.9750 O   0  0  0  0  0  0  0  0  0  0  0  0
  1  2  1  0
  3  2  1  1
  1  4  1  0
  4  5  1  0
  4  6  2  0
  6  7  1  0
  5  8  1  0
  7  8  2  0
  3  9  1  0
  3 10  1  0
  9 11  1  0
  9 12  1  0
 10 13  1  0
 10 14  1  1
 12 15  1  0
 13 15  1  0
 13 16  1  6
 14 17  1  0
 16 17  1  0
 15 18  1  0
 18 19  1  0
 18 20  1  0
 19 21  1  0
 20 22  1  0
 21 23  1  0
 21 24  2  0
M  END
