mac-x0588-mac-x0411
     RDKit          3D

 30 33  0  0  0  0  0  0  0  0999 V2000
   -4.6490   14.8520    0.8630 N   0  0  0  0  0  0  0  0  0  0  0  0
   -3.6170   15.5290    0.1060 C   0  0  1  0  0  0  0  0  0  0  0  0
   -2.2490   14.8560    0.1700 C   0  0  1  0  0  0  0  0  0  0  0  0
   -4.1600   15.5630   -1.2470 N   0  0  0  0  0  0  0  0  0  0  0  0
   -3.3550   14.8440   -2.2500 C   0  0  0  0  0  0  0  0  0  0  0  0
   -1.3700   15.3860   -0.9470 C   0  0  2  0  0  0  0  0  0  0  0  0
   -1.3880   15.0950    1.3300 N   0  0  0  0  0  0  0  0  0  0  0  0
   -1.9370   15.1730   -2.2600 N   0  0  0  0  0  0  0  0  0  0  0  0
   -0.1830   14.6240   -0.6300 N   0  0  0  0  0  0  0  0  0  0  0  0
   -0.0840   14.6650    0.8240 C   0  0  0  0  0  0  0  0  0  0  0  0
   -1.1560   14.8170   -3.5050 C   0  0  1  0  0  0  0  0  0  0  0  0
   -1.8820   13.6970   -4.3570 C   0  0  0  0  0  0  0  0  0  0  0  0
   -0.7310   15.9490   -4.5090 C   0  0  1  0  0  0  0  0  0  0  0  0
   -1.5470   12.2320   -4.0320 C   0  0  0  0  0  0  0  0  0  0  0  0
   -1.4380   17.1830   -4.2860 O   0  0  0  0  0  0  0  0  0  0  0  0
    0.7280   16.4000   -4.5440 C   0  0  0  0  0  0  0  0  0  0  0  0
    0.6560   17.7490   -5.2290 C   0  0  0  0  0  0  0  0  0  0  0  0
   -0.8210   18.1010   -5.1850 C   0  0  0  0  0  0  0  0  0  0  0  0
   -1.5540   11.1140   -5.0810 C   0  0  0  0  0  0  0  0  0  0  0  0
   -0.4760   10.7920   -5.9690 C   0  0  0  0  0  0  0  0  0  0  0  0
   -2.7190   10.3270   -5.1640 C   0  0  0  0  0  0  0  0  0  0  0  0
    0.7130   11.4990   -5.9870 O   0  0  0  0  0  0  0  0  0  0  0  0
   -2.8360    9.2660   -6.0620 C   0  0  0  0  0  0  0  0  0  0  0  0
   -0.6170    9.7090   -6.8670 C   0  0  0  0  0  0  0  0  0  0  0  0
    0.6450    9.2500   -7.9590 Cl  0  0  0  0  0  0  0  0  0  0  0  0
    0.9240   12.4690   -4.9640 C   0  0  0  0  0  0  0  0  0  0  0  0
   -1.7840    8.9570   -6.9090 C   0  0  0  0  0  0  0  0  0  0  0  0
    0.9630   11.8610   -3.5720 C   0  0  0  0  0  0  0  0  0  0  0  0
    1.6350   12.6260   -2.6930 O   0  0  0  0  0  0  0  0  0  0  0  0
    0.4800   10.8030   -3.2020 O   0  0  0  0  0  0  0  0  0  0  0  0
  2  1  1  1
  2  3  1  0
  2  4  1  0
  4  5  1  0
  3  6  1  0
  3  7  1  1
  5  8  1  0
  6  8  1  0
  6  9  1  6
  7 10  1  0
  9 10  1  0
  8 11  1  0
 11 12  1  6
 11 13  1  0
 12 14  1  0
 13 15  1  0
 13 16  1  1
 16 17  1  0
 15 18  1  0
 17 18  1  0
 14 19  1  0
 19 20  2  0
 19 21  1  0
 20 22  1  0
 21 23  2  0
 20 24  1  0
 24 25  1  0
 22 26  1  0
 23 27  1  0
 24 27  2  0
 26 28  1  0
 28 29  1  0
 28 30  2  0
M  END
