mac-x0142-mac-x0223
     RDKit          3D

 24 27  0  0  0  0  0  0  0  0999 V2000
    0.9480   17.8440   -4.8280 C   0  0  0  0  0  0  0  0  0  0  0  0
    0.8120   17.0510   -3.6430 O   0  0  0  0  0  0  0  0  0  0  0  0
    0.0530   15.8490   -3.8620 C   0  0  1  0  0  0  0  0  0  0  0  0
    0.7300   14.4740   -3.7470 C   0  0  0  0  0  0  0  0  0  0  0  0
   -1.1700   15.6930   -3.0320 N   0  0  0  0  0  0  0  0  0  0  0  0
    2.1310   14.2570   -4.2900 C   0  0  0  0  0  0  0  0  0  0  0  0
    1.9070   14.1300   -2.8270 C   0  0  0  0  0  0  0  0  0  0  0  0
   -0.3480   13.4340   -3.9540 C   0  0  2  0  0  0  0  0  0  0  0  0
   -2.1550   15.1360   -3.9540 C   0  0  1  0  0  0  0  0  0  0  0  0
   -1.2670   15.4820   -1.6000 C   0  0  0  0  0  0  0  0  0  0  0  0
    0.1830   12.0650   -4.2690 C   0  0  0  0  0  0  0  0  0  0  0  0
   -2.4900   16.2120   -4.8360 O   0  0  0  0  0  0  0  0  0  0  0  0
   -1.5550   13.9530   -4.7550 C   0  0  0  0  0  0  0  0  0  0  0  0
   -0.1750   15.2950   -0.7570 N   0  0  0  0  0  0  0  0  0  0  0  0
   -2.4320   15.4400   -0.9240 C   0  0  0  0  0  0  0  0  0  0  0  0
    0.4240   11.3840   -2.9480 C   0  0  0  0  0  0  0  0  0  0  0  0
   -0.2710   15.1080    0.6040 C   0  0  0  0  0  0  0  0  0  0  0  0
   -2.4700   15.2230    0.5580 C   0  0  0  0  0  0  0  0  0  0  0  0
   -3.8190   15.5620   -1.2400 C   0  0  0  0  0  0  0  0  0  0  0  0
    0.0350   10.2760   -2.6410 O   0  0  0  0  0  0  0  0  0  0  0  0
    1.1230   12.1620   -2.0920 O   0  0  0  0  0  0  0  0  0  0  0  0
   -1.3520   15.0420    1.3120 N   0  0  0  0  0  0  0  0  0  0  0  0
   -3.6810   15.2440    1.0320 N   0  0  0  0  0  0  0  0  0  0  0  0
   -4.4730   15.4460   -0.0810 C   0  0  0  0  0  0  0  0  0  0  0  0
  1  2  1  0
  3  2  1  1
  3  4  1  0
  3  5  1  0
  4  6  1  0
  4  7  1  0
  6  7  1  0
  4  8  1  0
  5  9  1  0
  5 10  1  0
  8 11  1  6
  9 12  1  6
  8 13  1  0
  9 13  1  0
 10 14  1  0
 10 15  2  0
 11 16  1  0
 14 17  1  0
 15 18  1  0
 15 19  1  0
 16 20  2  0
 16 21  1  0
 17 22  2  0
 18 22  1  0
 18 23  2  0
 19 24  2  0
 23 24  1  0
M  END
