mac-x0415-mac-x0439
     RDKit          3D

 16 18  0  0  0  0  0  0  0  0999 V2000
   -0.0190   11.2440   -2.1670 O   0  0  0  0  0  0  0  0  0  0  0  0
    0.7340   12.1720   -2.7830 C   0  0  0  0  0  0  0  0  0  0  0  0
    1.6450   12.7910   -2.1480 N   0  0  0  0  0  0  0  0  0  0  0  0
    0.4080   12.4080   -4.2130 C   0  0  0  0  0  0  0  0  0  0  0  0
    2.4650   13.7800   -2.8810 C   0  0  2  0  0  0  0  0  0  0  0  0
    0.4910   13.8560   -4.3850 C   0  0  0  0  0  0  0  0  0  0  0  0
    3.2030   14.5380   -1.9690 O   0  0  0  0  0  0  0  0  0  0  0  0
    1.5630   14.6340   -3.7810 C   0  0  0  0  0  0  0  0  0  0  0  0
   -0.2360   14.7730   -4.9220 C   0  0  0  0  0  0  0  0  0  0  0  0
    1.5740   15.9320   -4.0020 N   0  0  0  0  0  0  0  0  0  0  0  0
    0.4240   16.1160   -4.9070 C   0  0  2  0  0  0  0  0  0  0  0  0
   -1.5120   14.5850   -5.4820 C   0  0  0  0  0  0  0  0  0  0  0  0
   -0.5820   17.1970   -4.6970 C   0  0  0  0  0  0  0  0  0  0  0  0
   -2.3290   15.6370   -5.4980 C   0  0  0  0  0  0  0  0  0  0  0  0
   -4.0470   15.4100   -6.1720 Br  0  0  0  0  0  0  0  0  0  0  0  0
   -1.8850   16.9490   -4.9920 C   0  0  0  0  0  0  0  0  0  0  0  0
  1  2  1  0
  2  3  2  0
  2  4  1  0
  3  5  1  0
  4  6  1  0
  5  7  1  1
  5  8  1  0
  6  8  1  0
  6  9  2  0
  8 10  2  0
  9 11  1  0
 10 11  1  0
  9 12  1  0
 11 13  1  1
 12 14  2  0
 14 15  1  0
 13 16  2  0
 14 16  1  0
M  END
