mac-x0283-mac-x0338
     RDKit          3D

 12 14  0  0  0  0  0  0  0  0999 V2000
   -6.0650   14.9070    1.9850 N   0  0  0  0  0  0  0  0  0  0  0  0
   -4.7570   15.1010    1.7270 C   0  0  0  0  0  0  0  0  0  0  0  0
   -3.7970   15.2850    2.6290 N   0  0  0  0  0  0  0  0  0  0  0  0
   -6.6070   14.8040    0.6910 C   0  0  0  0  0  0  0  0  0  0  0  0
   -7.7660   14.6330    0.0780 N   0  0  0  0  0  0  0  0  0  0  0  0
   -5.5850   14.9380   -0.1640 C   0  0  0  0  0  0  0  0  0  0  0  0
   -4.3590   15.1180    0.3190 C   0  0  0  0  0  0  0  0  0  0  0  0
   -7.3660   14.6740   -1.3400 O   0  0  0  0  0  0  0  0  0  0  0  0
   -5.9960   14.8630   -1.4220 C   0  0  0  0  0  0  0  0  0  0  0  0
   -3.3530   15.2300   -0.5880 C   0  0  0  0  0  0  0  0  0  0  0  0
   -5.0520   14.9810   -2.4250 C   0  0  0  0  0  0  0  0  0  0  0  0
   -3.7030   15.1650   -1.9630 C   0  0  0  0  0  0  0  0  0  0  0  0
  1  2  2  0
  2  3  1  0
  1  4  1  0
  4  5  2  0
  4  6  1  0
  2  7  1  0
  6  7  2  0
  5  8  1  0
  6  9  1  0
  8  9  1  0
  7 10  1  0
  9 11  2  0
 10 12  2  0
 11 12  1  0
M  END
