mac-x0436-mac-x0178
     RDKit          3D

 26 28  0  0  0  0  0  0  0  0999 V2000
    0.0110   11.7700   -2.5430 O   0  0  0  0  0  0  0  0  0  0  0  0
    0.7550   12.9380   -2.8390 C   0  0  0  0  0  0  0  0  0  0  0  0
    1.4590   13.3170   -1.6810 O   0  0  0  0  0  0  0  0  0  0  0  0
    1.6650   12.7480   -4.0360 C   0  0  0  0  0  0  0  0  0  0  0  0
    0.0060   14.0780   -3.4990 C   0  0  0  0  0  0  0  0  0  0  0  0
    0.8870   12.8800   -5.3650 C   0  0  0  0  0  0  0  0  0  0  0  0
    0.7570   15.2450   -3.7300 C   0  0  0  0  0  0  0  0  0  0  0  0
   -1.3350   14.0460   -3.9260 C   0  0  0  0  0  0  0  0  0  0  0  0
   -0.0580   11.7250   -5.6610 C   0  0  0  0  0  0  0  0  0  0  0  0
    0.2080   16.3320   -4.3780 C   0  0  0  0  0  0  0  0  0  0  0  0
   -1.8960   15.1380   -4.5820 C   0  0  0  0  0  0  0  0  0  0  0  0
   -1.3120   11.4380   -4.8030 C   0  0  0  0  0  0  0  0  0  0  0  0
    0.2530   10.9900   -6.6800 N   0  0  0  0  0  0  0  0  0  0  0  0
   -1.1120   16.2690   -4.8110 C   0  0  0  0  0  0  0  0  0  0  0  0
   -1.5100   11.9720   -3.7280 O   0  0  0  0  0  0  0  0  0  0  0  0
   -1.7700   17.6590   -5.6730 S   0  0  0  0  0  0  0  0  0  0  0  0
   -2.1900   10.5270   -5.3350 N   0  0  0  0  0  0  0  0  0  0  0  0
   -0.5690    9.9030   -6.9930 C   0  0  0  0  0  0  0  0  0  0  0  0
   -0.3800   18.2610   -6.4000 N   0  0  0  0  0  0  0  0  0  0  0  0
   -2.6390   17.1820   -6.7190 O   0  0  0  0  0  0  0  0  0  0  0  0
   -2.1670   18.6660   -4.7330 O   0  0  0  0  0  0  0  0  0  0  0  0
   -1.7830    9.6530   -6.3400 C   0  0  0  0  0  0  0  0  0  0  0  0
   -0.1500    9.0410   -7.9980 C   0  0  0  0  0  0  0  0  0  0  0  0
   -0.9310    7.9410   -8.3490 C   0  0  0  0  0  0  0  0  0  0  0  0
   -2.5710    8.5570   -6.6800 C   0  0  0  0  0  0  0  0  0  0  0  0
   -2.1380    7.6980   -7.6920 C   0  0  0  0  0  0  0  0  0  0  0  0
  2  1  1  0
  2  3  1  0
  2  4  1  0
  2  5  1  0
  4  6  1  0
  5  7  2  0
  5  8  1  0
  6  9  1  0
  7 10  1  0
  8 11  2  0
  9 12  1  0
  9 13  2  0
 10 14  2  0
 11 14  1  0
 12 15  2  0
 14 16  1  0
 12 17  1  0
 13 18  1  0
 16 19  1  0
 16 20  2  0
 16 21  2  0
 17 22  1  0
 18 22  2  0
 18 23  1  0
 23 24  2  0
 22 25  1  0
 24 26  1  0
 25 26  2  0
M  END
