mac-x0417-diamond-x0282_0_A
     RDKit          3D

 29 32  0  0  0  0  0  0  0  0999 V2000
    1.9000   12.5380   -3.1580 O   0  0  0  0  0  0  0  0  0  0  0  0
    0.7050   12.2610   -3.8700 C   0  0  0  0  0  0  0  0  0  0  0  0
    0.5150   10.8640   -3.6980 O   0  0  0  0  0  0  0  0  0  0  0  0
    0.8330   12.6960   -5.3150 C   0  0  0  0  0  0  0  0  0  0  0  0
   -0.4390   12.8560   -3.1370 C   0  0  0  0  0  0  0  0  0  0  0  0
   -0.4030   12.3810   -1.7370 C   0  0  0  0  0  0  0  0  0  0  0  0
    0.4920   11.6070   -6.2440 C   0  0  0  0  0  0  0  0  0  0  0  0
    1.3580   11.3330   -7.2010 N   0  0  0  0  0  0  0  0  0  0  0  0
   -0.6410   10.7530   -6.2940 C   0  0  0  0  0  0  0  0  0  0  0  0
   -0.6250   13.4520   -0.7710 C   0  0  0  0  0  0  0  0  0  0  0  0
    0.8180   10.2970   -7.9260 O   0  0  0  0  0  0  0  0  0  0  0  0
   -0.3700    9.9450   -7.3840 C   0  0  0  0  0  0  0  0  0  0  0  0
   -1.8390   10.5450   -5.5860 C   0  0  0  0  0  0  0  0  0  0  0  0
   -1.8830   13.7570   -0.6460 N   0  0  0  0  0  0  0  0  0  0  0  0
    0.3690   14.0420   -0.0940 C   0  0  0  0  0  0  0  0  0  0  0  0
   -1.2040    8.9300   -7.8410 C   0  0  0  0  0  0  0  0  0  0  0  0
   -2.7030    9.5270   -6.0180 C   0  0  0  0  0  0  0  0  0  0  0  0
   -0.0180   14.9970    0.7900 C   0  0  0  0  0  0  0  0  0  0  0  0
   -2.1960   14.6840    0.2050 C   0  0  0  0  0  0  0  0  0  0  0  0
   -2.3890    8.7350   -7.1290 C   0  0  0  0  0  0  0  0  0  0  0  0
   -3.5140   14.9320    0.2540 N   0  0  0  0  0  0  0  0  0  0  0  0
   -1.3060   15.3320    0.9610 N   0  0  0  0  0  0  0  0  0  0  0  0
   -4.0960   14.3780    1.4060 C   0  0  0  0  0  0  0  0  0  0  0  0
   -4.2150   14.7250   -1.0060 C   0  0  0  0  0  0  0  0  0  0  0  0
   -5.4310   15.0480    1.5610 C   0  0  0  0  0  0  0  0  0  0  0  0
   -5.6890   15.1300   -0.9460 C   0  0  0  0  0  0  0  0  0  0  0  0
   -6.3730   14.7780    0.3820 C   0  0  0  0  0  0  0  0  0  0  0  0
   -7.0390   13.4130    0.4100 C   0  0  0  0  0  0  0  0  0  0  0  0
   -8.4260   13.6090    0.1440 O   0  0  0  0  0  0  0  0  0  0  0  0
  2  1  1  0
  2  3  1  0
  2  4  1  0
  2  5  1  0
  5  6  1  0
  4  7  1  0
  7  8  2  0
  7  9  1  0
  6 10  1  0
  8 11  1  0
  9 12  2  0
 11 12  1  0
  9 13  1  0
 10 14  2  0
 10 15  1  0
 12 16  1  0
 13 17  2  0
 15 18  2  0
 14 19  1  0
 16 20  2  0
 17 20  1  0
 19 21  1  0
 18 22  1  0
 19 22  2  0
 21 23  1  0
 21 24  1  0
 23 25  1  0
 24 26  1  0
 25 27  1  0
 26 27  1  0
 27 28  1  0
 28 29  1  0
M  END
