mac-x0345-mac-x0404
     RDKit          3D

 26 28  0  0  0  0  0  0  0  0999 V2000
   -7.3290   14.6750    0.5470 C   0  0  0  0  0  0  0  0  0  0  0  0
   -6.1840   14.9100   -0.4060 C   0  0  0  0  0  0  0  0  0  0  0  0
   -6.4750   14.7570   -1.7230 N   0  0  0  0  0  0  0  0  0  0  0  0
   -4.8980   15.2620   -0.0050 C   0  0  0  0  0  0  0  0  0  0  0  0
   -4.3280   15.5380    1.7430 Br  0  0  0  0  0  0  0  0  0  0  0  0
   -3.9170   15.4410   -0.9430 C   0  0  0  0  0  0  0  0  0  0  0  0
   -5.4970   14.9480   -2.6380 C   0  0  0  0  0  0  0  0  0  0  0  0
   -5.8750   14.7790   -3.9670 N   0  0  0  0  0  0  0  0  0  0  0  0
   -4.2130   15.2850   -2.2740 C   0  0  0  0  0  0  0  0  0  0  0  0
   -4.9310   14.2620   -4.9870 C   0  0  0  0  0  0  0  0  0  0  0  0
   -4.0010   15.2470   -5.7720 C   0  0  0  0  0  0  0  0  0  0  0  0
   -2.5370   15.1170   -5.3980 C   0  0  0  0  0  0  0  0  0  0  0  0
   -1.5400   16.1530   -5.3040 C   0  0  0  0  0  0  0  0  0  0  0  0
   -2.1750   13.7980   -5.1320 C   0  0  0  0  0  0  0  0  0  0  0  0
   -0.2190   15.7700   -4.9370 C   0  0  0  0  0  0  0  0  0  0  0  0
   -0.8910   13.4510   -4.7790 C   0  0  0  0  0  0  0  0  0  0  0  0
   -1.7500   17.5330   -5.5550 C   0  0  0  0  0  0  0  0  0  0  0  0
    0.0860   14.4210   -4.6790 C   0  0  0  0  0  0  0  0  0  0  0  0
   -0.7210   18.4760   -5.4490 C   0  0  0  0  0  0  0  0  0  0  0  0
    0.7890   16.7370   -4.8350 C   0  0  0  0  0  0  0  0  0  0  0  0
    1.3790   14.1380   -4.3350 O   0  0  0  0  0  0  0  0  0  0  0  0
    0.5550   18.0760   -5.0870 C   0  0  0  0  0  0  0  0  0  0  0  0
    1.7150   12.7790   -4.1820 C   0  0  0  0  0  0  0  0  0  0  0  0
    1.1550   12.1280   -2.9280 C   0  0  0  0  0  0  0  0  0  0  0  0
    1.2250   12.9150   -1.8390 O   0  0  0  0  0  0  0  0  0  0  0  0
    0.6760   11.0090   -2.8470 O   0  0  0  0  0  0  0  0  0  0  0  0
  1  2  1  0
  2  3  2  0
  2  4  1  0
  4  5  1  0
  4  6  2  0
  3  7  1  0
  7  8  1  0
  6  9  1  0
  7  9  2  0
  8 10  1  0
 10 11  1  0
 11 12  1  0
 12 13  1  0
 12 14  2  0
 13 15  2  0
 14 16  1  0
 13 17  1  0
 15 18  1  0
 16 18  2  0
 17 19  2  0
 15 20  1  0
 18 21  1  0
 19 22  1  0
 20 22  2  0
 21 23  1  0
 23 24  1  0
 24 25  1  0
 24 26  2  0
M  END
