mac-x0576-mac-x0381
     RDKit          3D

 28 31  0  0  0  0  0  0  0  0999 V2000
    0.0630   13.9230    1.4760 N   0  0  0  0  0  0  0  0  0  0  0  0
   -0.7810   14.8130    0.7750 C   0  0  2  0  0  0  0  0  0  0  0  0
   -2.0550   14.6350    1.3500 N   0  0  0  0  0  0  0  0  0  0  0  0
   -0.7590   14.4600   -0.5800 N   0  0  0  0  0  0  0  0  0  0  0  0
   -1.7430   14.7570   -1.4660 C   0  0  0  0  0  0  0  0  0  0  0  0
   -3.2300   15.0750    0.6130 C   0  0  1  0  0  0  0  0  0  0  0  0
   -1.4820   14.7370   -2.6660 O   0  0  0  0  0  0  0  0  0  0  0  0
   -3.1360   15.1350   -0.9380 C   0  0  2  0  0  0  0  0  0  0  0  0
   -4.4600   14.3880    0.9110 N   0  0  0  0  0  0  0  0  0  0  0  0
   -5.6250   14.7460    0.2590 C   0  0  0  0  0  0  0  0  0  0  0  0
   -4.2130   14.4500   -1.6940 N   0  0  0  0  0  0  0  0  0  0  0  0
   -6.7420   14.8760    0.8520 N   0  0  0  0  0  0  0  0  0  0  0  0
   -5.5180   14.9780   -1.2510 C   0  0  0  0  0  0  0  0  0  0  0  0
   -6.4320   14.6030    2.2170 C   0  0  0  0  0  0  0  0  0  0  0  0
   -7.2430   15.2580    3.3170 C   0  0  0  0  0  0  0  0  0  0  0  0
   -7.6800   14.2100    4.1500 N   0  0  0  0  0  0  0  0  0  0  0  0
   -8.8910   14.0080    4.2780 C   0  0  0  0  0  0  0  0  0  0  0  0
   -9.1910   12.9530    5.0750 N   0  0  0  0  0  0  0  0  0  0  0  0
   -9.9980   14.7700    3.6590 C   0  0  0  0  0  0  0  0  0  0  0  0
   -9.8580   15.4260    2.4180 C   0  0  0  0  0  0  0  0  0  0  0  0
  -11.1960   14.8070    4.3490 C   0  0  0  0  0  0  0  0  0  0  0  0
  -10.9520   16.1180    1.8650 C   0  0  0  0  0  0  0  0  0  0  0  0
  -12.2770   15.4850    3.8150 C   0  0  0  0  0  0  0  0  0  0  0  0
  -12.1750   16.1360    2.5810 C   0  0  0  0  0  0  0  0  0  0  0  0
  -10.8790   16.7840    0.6290 C   0  0  0  0  0  0  0  0  0  0  0  0
  -13.2820   16.8010    2.0500 C   0  0  0  0  0  0  0  0  0  0  0  0
  -11.9960   17.4410    0.1110 C   0  0  0  0  0  0  0  0  0  0  0  0
  -13.1970   17.4450    0.8220 C   0  0  0  0  0  0  0  0  0  0  0  0
  2  1  1  1
  2  3  1  0
  2  4  1  0
  4  5  1  0
  6  3  1  6
  5  7  2  0
  5  8  1  0
  6  8  1  0
  6  9  1  0
  9 10  1  0
  8 11  1  6
 10 12  2  3
 10 13  1  0
 11 13  1  0
 12 14  1  0
 14 15  1  0
 15 16  1  0
 16 17  2  3
 17 18  1  0
 17 19  1  0
 19 20  2  0
 19 21  1  0
 20 22  1  0
 21 23  2  0
 22 24  2  0
 23 24  1  0
 22 25  1  0
 24 26  1  0
 25 27  2  0
 26 28  2  0
 27 28  1  0
M  END
