mac-x0358-mac-x0204
     RDKit          3D

 13 13  0  0  0  0  0  0  0  0999 V2000
    2.2220   12.6280   -2.4540 O   0  0  0  0  0  0  0  0  0  0  0  0
    0.9120   12.9030   -2.8680 C   0  0  0  0  0  0  0  0  0  0  0  0
    0.1420   11.7910   -2.4860 O   0  0  0  0  0  0  0  0  0  0  0  0
    0.8250   13.0900   -4.4040 C   0  0  0  0  0  0  0  0  0  0  0  0
    0.5090   14.0630   -2.1680 O   0  0  0  0  0  0  0  0  0  0  0  0
   -0.5520   13.4990   -4.8740 C   0  0  0  0  0  0  0  0  0  0  0  0
   -1.5110   12.5440   -5.2250 C   0  0  0  0  0  0  0  0  0  0  0  0
   -0.9050   14.8630   -4.9650 C   0  0  0  0  0  0  0  0  0  0  0  0
   -1.1770   11.2190   -5.1330 O   0  0  0  0  0  0  0  0  0  0  0  0
   -2.7850   12.9130   -5.6560 C   0  0  0  0  0  0  0  0  0  0  0  0
   -2.1830   15.2280   -5.3970 C   0  0  0  0  0  0  0  0  0  0  0  0
   -2.5020   16.5510   -5.4800 O   0  0  0  0  0  0  0  0  0  0  0  0
   -3.1230   14.2640   -5.7430 C   0  0  0  0  0  0  0  0  0  0  0  0
  2  1  1  0
  2  3  1  0
  2  4  1  0
  2  5  1  0
  4  6  1  0
  6  7  2  0
  6  8  1  0
  7  9  1  0
  7 10  1  0
  8 11  2  0
 11 12  1  0
 10 13  2  0
 11 13  1  0
M  END
