mac-x0576-mac-x0555
     RDKit          3D

 18 20  0  0  0  0  0  0  0  0999 V2000
    0.1700   13.7930    1.6470 N   0  0  0  0  0  0  0  0  0  0  0  0
   -0.8930   14.2270    0.9810 C   0  0  0  0  0  0  0  0  0  0  0  0
   -1.9180   14.4900    1.6570 N   0  0  0  0  0  0  0  0  0  0  0  0
   -0.8060   14.3410   -0.3800 N   0  0  0  0  0  0  0  0  0  0  0  0
   -1.8690   14.7700   -1.1320 C   0  0  0  0  0  0  0  0  0  0  0  0
   -3.0170   14.8720    0.9910 C   0  0  0  0  0  0  0  0  0  0  0  0
   -1.7980   14.9340   -2.3510 O   0  0  0  0  0  0  0  0  0  0  0  0
   -3.1140   15.0340   -0.3460 C   0  0  0  0  0  0  0  0  0  0  0  0
   -4.1330   15.0790    1.7210 N   0  0  0  0  0  0  0  0  0  0  0  0
   -5.3650   14.5820    1.1980 C   0  0  1  0  0  0  0  0  0  0  0  0
   -4.3420   15.4040   -0.9410 N   0  0  0  0  0  0  0  0  0  0  0  0
   -6.3820   15.2740    1.8330 O   0  0  0  0  0  0  0  0  0  0  0  0
   -5.4680   14.6190   -0.4010 C   0  0  2  0  0  0  0  0  0  0  0  0
   -5.7470   13.2140    1.5900 C   0  0  0  0  0  0  0  0  0  0  0  0
   -7.2650   13.3760    1.5560 C   0  0  1  0  0  0  0  0  0  0  0  0
   -6.8750   14.8590   -0.7010 N   0  0  0  0  0  0  0  0  0  0  0  0
   -7.6980   13.9190    2.8570 N   0  0  0  0  0  0  0  0  0  0  0  0
   -7.7840   14.2900    0.3500 C   0  0  0  0  0  0  0  0  0  0  0  0
  1  2  1  0
  2  3  2  0
  2  4  1  0
  4  5  1  0
  3  6  1  0
  5  7  2  0
  5  8  1  0
  6  8  2  0
  6  9  1  0
  9 10  1  0
  8 11  1  0
 10 12  1  1
 10 13  1  0
 13 11  1  1
 10 14  1  0
 14 15  1  0
 13 16  1  0
 15 17  1  1
 15 18  1  0
 16 18  1  0
M  END
