mac-x0347-mac-x0402
     RDKit          3D

 22 24  0  0  0  0  0  0  0  0999 V2000
    1.5080   14.5220   -3.0900 O   0  0  0  0  0  0  0  0  0  0  0  0
    0.7980   14.0740   -2.0390 C   0  0  0  0  0  0  0  0  0  0  0  0
    1.3310   13.8630   -0.9850 O   0  0  0  0  0  0  0  0  0  0  0  0
   -0.6190   13.8820   -2.3580 C   0  0  0  0  0  0  0  0  0  0  0  0
   -1.6850   13.7960   -1.4250 C   0  0  0  0  0  0  0  0  0  0  0  0
   -0.8920   13.7850   -3.7100 C   0  0  0  0  0  0  0  0  0  0  0  0
   -2.9920   13.6160   -1.9260 C   0  0  0  0  0  0  0  0  0  0  0  0
   -2.1100   13.6070   -4.2140 N   0  0  0  0  0  0  0  0  0  0  0  0
   -3.1040   13.5290   -3.3160 C   0  0  0  0  0  0  0  0  0  0  0  0
   -4.3650   13.5380   -1.2030 C   0  0  2  0  0  0  0  0  0  0  0  0
   -4.9950   12.4090   -0.4110 C   0  0  0  0  0  0  0  0  0  0  0  0
   -4.9910   13.4460   -2.5600 C   0  0  0  0  0  0  0  0  0  0  0  0
   -4.4860   14.9260   -0.6570 C   0  0  0  0  0  0  0  0  0  0  0  0
   -4.9620   15.4370    0.4600 C   0  0  0  0  0  0  0  0  0  0  0  0
   -5.6400   12.4220    0.7760 C   0  0  0  0  0  0  0  0  0  0  0  0
   -3.9250   15.7650   -1.6320 C   0  0  0  0  0  0  0  0  0  0  0  0
   -4.7800   14.4400   -3.4080 C   0  0  0  0  0  0  0  0  0  0  0  0
   -5.3490   14.4340   -5.0220 Cl  0  0  0  0  0  0  0  0  0  0  0  0
   -5.6080   14.7810    1.5560 C   0  0  0  0  0  0  0  0  0  0  0  0
   -5.9250   13.4990    1.6980 C   0  0  0  0  0  0  0  0  0  0  0  0
   -4.0370   15.5510   -2.9420 C   0  0  0  0  0  0  0  0  0  0  0  0
   -6.6120   13.0930    2.8110 N   0  0  0  0  0  0  0  0  0  0  0  0
  1  2  1  0
  2  3  2  0
  2  4  1  0
  4  5  2  0
  4  6  1  0
  5  7  1  0
  6  8  2  0
  7  9  2  0
  8  9  1  0
 10  7  1  6
 10 11  1  0
 10 12  1  0
 10 13  1  0
 13 14  2  0
 11 15  2  0
 13 16  1  0
 12 17  2  0
 17 18  1  0
 14 19  1  0
 15 20  1  0
 19 20  2  0
 16 21  2  0
 17 21  1  0
 20 22  1  0
M  END
