mac-x0380-diamond-x0253_0_A
     RDKit          3D

 31 33  0  0  0  0  0  0  0  0999 V2000
   -1.3570   15.1950   -2.6930 O   0  0  0  0  0  0  0  0  0  0  0  0
   -2.6840   14.7700   -2.8590 C   0  0  0  0  0  0  0  0  0  0  0  0
   -3.2260   15.6230   -3.8500 O   0  0  0  0  0  0  0  0  0  0  0  0
   -2.6640   13.3360   -3.4200 C   0  0  0  0  0  0  0  0  0  0  0  0
   -3.5040   14.8550   -1.5780 C   0  0  0  0  0  0  0  0  0  0  0  0
   -1.9790   12.3140   -2.5030 C   0  0  0  0  0  0  0  0  0  0  0  0
   -4.9030   14.9290   -1.6550 C   0  0  0  0  0  0  0  0  0  0  0  0
   -2.9120   14.8500   -0.2990 C   0  0  0  0  0  0  0  0  0  0  0  0
   -0.5880   12.7920   -2.0770 C   0  0  0  0  0  0  0  0  0  0  0  0
   -5.6890   14.9830   -0.5020 C   0  0  0  0  0  0  0  0  0  0  0  0
   -3.6930   14.9060    0.8600 C   0  0  0  0  0  0  0  0  0  0  0  0
    0.5890   12.2340   -2.9000 C   0  0  0  0  0  0  0  0  0  0  0  0
   -5.0880   14.9660    0.7560 C   0  0  0  0  0  0  0  0  0  0  0  0
   -7.4540   15.0580   -0.6880 S   0  0  0  0  0  0  0  0  0  0  0  0
    1.8010   12.5110   -2.2200 O   0  0  0  0  0  0  0  0  0  0  0  0
    0.4420   10.8250   -2.9620 O   0  0  0  0  0  0  0  0  0  0  0  0
    0.7440   12.8030   -4.3460 C   0  0  0  0  0  0  0  0  0  0  0  0
   -5.8430   15.0000    1.9450 N   0  0  0  0  0  0  0  0  0  0  0  0
   -7.8580   14.1220    0.7990 C   0  0  0  0  0  0  0  0  0  0  0  0
    0.3020   11.9020   -5.4060 N   0  0  0  0  0  0  0  0  0  0  0  0
   -7.1720   14.6640    2.0260 C   0  0  0  0  0  0  0  0  0  0  0  0
   -7.7920   14.8180    3.0850 O   0  0  0  0  0  0  0  0  0  0  0  0
    1.0790   11.6680   -6.5120 C   0  0  0  0  0  0  0  0  0  0  0  0
    2.1950   12.1430   -6.5990 O   0  0  0  0  0  0  0  0  0  0  0  0
    0.5070   10.7730   -7.5750 C   0  0  0  0  0  0  0  0  0  0  0  0
   -0.4670    9.8560   -7.1620 C   0  0  0  0  0  0  0  0  0  0  0  0
    0.8770   10.7940   -8.9310 C   0  0  0  0  0  0  0  0  0  0  0  0
   -1.0680    8.9770   -8.0730 C   0  0  0  0  0  0  0  0  0  0  0  0
    0.2830    9.9210   -9.8420 C   0  0  0  0  0  0  0  0  0  0  0  0
   -2.1110    8.0090   -7.6010 C   0  0  0  0  0  0  0  0  0  0  0  0
   -0.6840    9.0180   -9.4190 C   0  0  0  0  0  0  0  0  0  0  0  0
  2  1  1  0
  2  3  1  0
  2  4  1  0
  2  5  1  0
  4  6  1  0
  5  7  2  0
  5  8  1  0
  6  9  1  0
  7 10  1  0
  8 11  2  0
  9 12  1  0
 10 13  2  0
 11 13  1  0
 10 14  1  0
 12 15  1  0
 12 16  1  0
 12 17  1  0
 13 18  1  0
 14 19  1  0
 17 20  1  0
 18 21  1  0
 19 21  1  0
 21 22  2  0
 20 23  1  0
 23 24  2  0
 23 25  1  0
 25 26  2  0
 25 27  1  0
 26 28  1  0
 27 29  2  0
 28 30  1  0
 28 31  2  0
 29 31  1  0
M  END
