mac-x0282-diamond-x0844_0_A
     RDKit          3D

 11 12  0  0  0  0  0  0  0  0999 V2000
   -5.7990   15.0470   -0.2040 O   0  0  0  0  0  0  0  0  0  0  0  0
   -4.5700   14.9640   -0.0360 C   0  0  0  0  0  0  0  0  0  0  0  0
   -3.5420   14.8990   -1.1280 C   0  0  0  0  0  0  0  0  0  0  0  0
   -3.8980   14.8930    1.1670 N   0  0  0  0  0  0  0  0  0  0  0  0
   -3.8890   14.9600   -2.9160 Br  0  0  0  0  0  0  0  0  0  0  0  0
   -2.3500   14.7820   -0.5630 C   0  0  0  0  0  0  0  0  0  0  0  0
   -2.6530   14.7730    0.8520 C   0  0  0  0  0  0  0  0  0  0  0  0
   -1.0080   14.6820   -1.0520 C   0  0  0  0  0  0  0  0  0  0  0  0
   -1.6310   14.6310    1.7390 N   0  0  0  0  0  0  0  0  0  0  0  0
   -0.0240   14.5620   -0.1570 C   0  0  0  0  0  0  0  0  0  0  0  0
   -0.4280   14.5370    1.2730 C   0  0  0  0  0  0  0  0  0  0  0  0
  1  2  2  0
  2  3  1  0
  2  4  1  0
  3  5  1  0
  3  6  2  0
  4  7  2  0
  6  7  1  0
  6  8  1  0
  7  9  1  0
  8 10  2  0
  9 11  2  0
 10 11  1  0
M  END
