mac-x0496-diamond-x0852_0_B
     RDKit          3D

 22 23  0  0  0  0  0  0  0  0999 V2000
   -9.7910   17.4900    5.3440 C   0  0  0  0  0  0  0  0  0  0  0  0
   -9.7830   16.8230    4.0860 C   0  0  0  0  0  0  0  0  0  0  0  0
  -10.4590   17.1800    3.0130 N   0  0  0  0  0  0  0  0  0  0  0  0
   -9.7860   17.9680    6.4100 N   0  0  0  0  0  0  0  0  0  0  0  0
   -9.0460   15.6950    3.8450 N   0  0  0  0  0  0  0  0  0  0  0  0
   -8.2190   15.0570    4.7920 O   0  0  0  0  0  0  0  0  0  0  0  0
  -10.1360   16.2590    2.0630 C   0  0  0  0  0  0  0  0  0  0  0  0
   -9.2520   15.3030    2.5400 C   0  0  0  0  0  0  0  0  0  0  0  0
   -8.6200   14.1230    1.9090 C   0  0  0  0  0  0  0  0  0  0  0  0
  -10.8710   16.3950    0.3450 Br  0  0  0  0  0  0  0  0  0  0  0  0
   -7.2130   14.3830    1.7130 N   0  0  0  0  0  0  0  0  0  0  0  0
   -6.7390   14.6440    0.4360 C   0  0  0  0  0  0  0  0  0  0  0  0
   -7.4650   14.7780   -0.5420 O   0  0  0  0  0  0  0  0  0  0  0  0
   -5.2610   14.7640    0.3000 C   0  0  0  0  0  0  0  0  0  0  0  0
   -4.4580   14.8720    1.4350 C   0  0  0  0  0  0  0  0  0  0  0  0
   -4.6730   14.7660   -0.9750 C   0  0  0  0  0  0  0  0  0  0  0  0
   -3.0780   14.9680    1.3160 C   0  0  0  0  0  0  0  0  0  0  0  0
   -3.2780   14.8660   -1.0940 C   0  0  0  0  0  0  0  0  0  0  0  0
   -2.6530   14.8660   -2.4430 C   0  0  0  0  0  0  0  0  0  0  0  0
   -2.4900   14.9620    0.0600 C   0  0  0  0  0  0  0  0  0  0  0  0
   -1.4560   14.8190   -2.6640 O   0  0  0  0  0  0  0  0  0  0  0  0
   -3.5310   14.9310   -3.4560 O   0  0  0  0  0  0  0  0  0  0  0  0
  1  2  1  0
  2  3  2  0
  1  4  3  0
  2  5  1  0
  5  6  1  0
  3  7  1  0
  5  8  1  0
  7  8  2  0
  8  9  1  0
  7 10  1  0
  9 11  1  0
 11 12  1  0
 12 13  2  0
 12 14  1  0
 14 15  2  0
 14 16  1  0
 15 17  1  0
 16 18  2  0
 18 19  1  0
 17 20  2  0
 18 20  1  0
 19 21  2  0
 19 22  1  0
M  END
