mac-x0115-diamond-x0837_0_A
     RDKit          3D

 24 26  0  0  0  0  0  0  0  0999 V2000
   -1.3980   18.6000   -5.1610 C   0  0  0  0  0  0  0  0  0  0  0  0
   -0.4300   17.6160   -5.7810 C   0  0  0  0  0  0  0  0  0  0  0  0
    1.0030   17.9290   -5.3970 C   0  0  0  0  0  0  0  0  0  0  0  0
   -0.7440   16.2850   -5.3380 O   0  0  0  0  0  0  0  0  0  0  0  0
    0.1850   15.6590   -4.4400 C   0  0  0  0  0  0  0  0  0  0  0  0
   -0.4940   14.3640   -3.9310 C   0  0  0  0  0  0  0  0  0  0  0  0
   -0.4650   14.1840   -2.4530 N   0  0  0  0  0  0  0  0  0  0  0  0
    0.8310   14.0530   -1.8160 C   0  0  0  0  0  0  0  0  0  0  0  0
   -1.4630   14.7470   -1.5910 C   0  0  0  0  0  0  0  0  0  0  0  0
    2.3510   13.8360   -2.4940 S   0  0  0  0  0  0  0  0  0  0  0  0
    0.8220   14.1320   -0.4370 N   0  0  0  0  0  0  0  0  0  0  0  0
   -0.8590   15.7150   -0.6570 C   0  0  2  0  0  0  0  0  0  0  0  0
   -2.8030   14.6970   -1.2180 C   0  0  0  0  0  0  0  0  0  0  0  0
   -0.0840   14.8470    0.2650 C   0  0  0  0  0  0  0  0  0  0  0  0
   -1.8870   16.2800    0.1390 N   0  0  0  0  0  0  0  0  0  0  0  0
   -2.8960   15.6980   -0.2120 C   0  0  0  0  0  0  0  0  0  0  0  0
   -4.1770   14.1910   -1.2570 C   0  0  1  0  0  0  0  0  0  0  0  0
   -0.2430   14.7550    1.4780 O   0  0  0  0  0  0  0  0  0  0  0  0
   -4.2870   13.1850   -0.1740 C   0  0  0  0  0  0  0  0  0  0  0  0
   -5.5010   14.7880   -1.7450 C   0  0  0  0  0  0  0  0  0  0  0  0
   -5.1410   13.4460    0.8040 C   0  0  0  0  0  0  0  0  0  0  0  0
   -6.4250   14.9290   -0.5160 C   0  0  0  0  0  0  0  0  0  0  0  0
   -7.5920   15.2920   -0.5740 O   0  0  0  0  0  0  0  0  0  0  0  0
   -5.8670   14.5880    0.6990 N   0  0  0  0  0  0  0  0  0  0  0  0
  1  2  1  0
  2  3  1  0
  2  4  1  0
  4  5  1  0
  5  6  1  0
  6  7  1  0
  7  8  1  0
  7  9  1  0
  8 10  2  0
  8 11  1  0
  9 12  1  0
  9 13  2  0
 11 14  1  0
 12 14  1  0
 12 15  1  1
 13 16  1  0
 15 16  2  0
 17 13  1  1
 14 18  2  0
 17 19  1  0
 17 20  1  0
 19 21  2  0
 20 22  1  0
 22 23  2  0
 21 24  1  0
 22 24  1  0
M  END
