mac-x0412-mac-x0402
     RDKit          3D

 12 13  0  0  0  0  0  0  0  0999 V2000
   -7.8050   14.2690   -0.5660 O   0  0  0  0  0  0  0  0  0  0  0  0
   -6.8980   14.7800    0.0760 C   0  0  0  0  0  0  0  0  0  0  0  0
   -6.9540   14.8690    1.4520 N   0  0  0  0  0  0  0  0  0  0  0  0
   -5.6440   15.4060   -0.6030 C   0  0  1  0  0  0  0  0  0  0  0  0
   -4.3940   15.0480    0.1910 C   0  0  0  0  0  0  0  0  0  0  0  0
   -5.8350   14.9090    2.0880 C   0  0  0  0  0  0  0  0  0  0  0  0
   -5.5260   15.1140   -2.0710 C   0  0  0  0  0  0  0  0  0  0  0  0
   -4.4780   14.8190    1.5050 C   0  0  0  0  0  0  0  0  0  0  0  0
   -3.1320   14.9600   -0.5360 C   0  0  0  0  0  0  0  0  0  0  0  0
   -4.3500   14.8700   -2.6530 C   0  0  0  0  0  0  0  0  0  0  0  0
   -3.1260   14.8680   -1.8870 C   0  0  0  0  0  0  0  0  0  0  0  0
   -1.6680   14.7280   -2.8010 Cl  0  0  0  0  0  0  0  0  0  0  0  0
  1  2  2  0
  2  3  1  0
  2  4  1  0
  4  5  1  0
  3  6  2  0
  4  7  1  6
  5  8  2  0
  6  8  1  0
  5  9  1  0
  7 10  2  0
  9 11  2  0
 10 11  1  0
 11 12  1  0
M  END
