mac-x0333-mac-x0305
     RDKit          3D

 14 15  0  0  0  0  0  0  0  0999 V2000
   -2.6420   14.9180   -3.3110 O   0  0  0  0  0  0  0  0  0  0  0  0
   -3.2940   14.8710   -2.1060 C   0  0  0  0  0  0  0  0  0  0  0  0
   -2.5420   14.5710   -0.9360 C   0  0  0  0  0  0  0  0  0  0  0  0
   -4.6710   15.1200   -2.1120 C   0  0  0  0  0  0  0  0  0  0  0  0
   -1.0320   14.2760   -1.1050 C   0  0  0  0  0  0  0  0  0  0  0  0
   -5.3290   15.0770   -0.9210 C   0  0  0  0  0  0  0  0  0  0  0  0
   -3.2680   14.5600    0.3050 C   0  0  0  0  0  0  0  0  0  0  0  0
   -0.4130   13.4750   -0.1770 O   0  0  0  0  0  0  0  0  0  0  0  0
   -0.3650   14.6710   -2.0580 O   0  0  0  0  0  0  0  0  0  0  0  0
   -2.6660   14.3010    1.5240 O   0  0  0  0  0  0  0  0  0  0  0  0
   -4.6620   14.8150    0.2560 C   0  0  0  0  0  0  0  0  0  0  0  0
   -6.6640   15.2700   -0.7310 O   0  0  0  0  0  0  0  0  0  0  0  0
   -5.5530   14.8390    1.2970 O   0  0  0  0  0  0  0  0  0  0  0  0
   -6.7690   14.6210    0.5500 C   0  0  0  0  0  0  0  0  0  0  0  0
  1  2  1  0
  2  3  2  0
  2  4  1  0
  3  5  1  0
  4  6  2  0
  3  7  1  0
  5  8  1  0
  5  9  2  0
  7 10  1  0
  6 11  1  0
  7 11  2  0
  6 12  1  0
 11 13  1  0
 12 14  1  0
 13 14  1  0
M  END
