mac-x0142-mac-x0588
     RDKit          3D

 23 27  0  0  0  0  0  0  0  0999 V2000
   -2.6450   15.7110   -3.2690 C   0  0  0  0  0  0  0  0  0  0  0  0
   -1.3740   16.5740   -3.6560 C   0  0  2  0  0  0  0  0  0  0  0  0
   -1.8490   17.8180   -4.2340 O   0  0  0  0  0  0  0  0  0  0  0  0
   -2.8580   15.5680   -1.7660 C   0  0  0  0  0  0  0  0  0  0  0  0
   -1.8350   15.1050   -0.9480 C   0  0  0  0  0  0  0  0  0  0  0  0
   -3.8850   15.8020   -0.9010 C   0  0  0  0  0  0  0  0  0  0  0  0
   -0.4310   16.0440   -4.7430 C   0  0  0  0  0  0  0  0  0  0  0  0
   -2.3380   15.1730    0.4330 C   0  0  0  0  0  0  0  0  0  0  0  0
   -0.6520   14.6510   -1.2340 C   0  0  0  0  0  0  0  0  0  0  0  0
   -3.5870   15.5640    0.4580 N   0  0  0  0  0  0  0  0  0  0  0  0
    0.2080   17.3160   -5.2430 C   0  0  0  0  0  0  0  0  0  0  0  0
   -1.0310   18.1600   -5.3610 C   0  0  0  0  0  0  0  0  0  0  0  0
   -0.3360   14.5470   -2.5890 N   0  0  0  0  0  0  0  0  0  0  0  0
    0.1330   14.3000   -0.1640 N   0  0  0  0  0  0  0  0  0  0  0  0
   -1.5420   14.8040    1.4870 N   0  0  0  0  0  0  0  0  0  0  0  0
   -1.4310   14.0530   -3.4850 C   0  0  0  0  0  0  0  0  0  0  0  0
    0.9970   14.7750   -3.1620 C   0  0  0  0  0  0  0  0  0  0  0  0
   -0.3600   14.4010    1.1250 C   0  0  0  0  0  0  0  0  0  0  0  0
    1.2980   13.6140   -4.0670 C   0  0  0  0  0  0  0  0  0  0  0  0
   -1.0270   13.1890   -4.6880 C   0  0  0  0  0  0  0  0  0  0  0  0
    2.6800   13.0240   -4.1420 C   0  0  0  0  0  0  0  0  0  0  0  0
    1.6080   12.3290   -3.3560 C   0  0  0  0  0  0  0  0  0  0  0  0
    0.3650   13.4780   -5.2270 C   0  0  0  0  0  0  0  0  0  0  0  0
  2  1  1  6
  2  3  1  0
  1  4  1  0
  4  5  1  0
  4  6  2  0
  2  7  1  0
  5  8  1  0
  5  9  2  0
  6 10  1  0
  8 10  2  0
  7 11  1  0
  3 12  1  0
 11 12  1  0
  9 13  1  0
  9 14  1  0
  8 15  1  0
 13 16  1  0
 13 17  1  0
 14 18  1  0
 15 18  2  0
 19 17  1  0
 16 20  1  0
 19 21  1  0
 19 22  1  0
 21 22  1  0
 19 23  1  0
 20 23  1  0
M  END
