mac-x0116-mac-x0341
     RDKit          3D

 20 23  0  0  0  0  0  0  0  0999 V2000
   -4.4060   15.9070    1.6610 N   0  0  0  0  0  0  0  0  0  0  0  0
   -3.8720   15.1520    0.5690 C   0  0  1  0  0  0  0  0  0  0  0  0
   -4.4600   15.5420   -0.7080 N   0  0  0  0  0  0  0  0  0  0  0  0
   -2.3040   15.2880    0.6460 C   0  0  2  0  0  0  0  0  0  0  0  0
   -4.3380   13.8560    0.9450 N   0  0  0  0  0  0  0  0  0  0  0  0
   -3.6700   15.4000   -1.9240 C   0  0  0  0  0  0  0  0  0  0  0  0
   -1.6600   15.1250   -0.7220 C   0  0  2  0  0  0  0  0  0  0  0  0
   -1.5360   14.3360    1.4810 N   0  0  0  0  0  0  0  0  0  0  0  0
   -5.6350   13.5530    0.4020 C   0  0  1  0  0  0  0  0  0  0  0  0
   -5.7980   15.3790   -0.9110 C   0  0  0  0  0  0  0  0  0  0  0  0
   -6.4470   15.7160   -1.8930 O   0  0  0  0  0  0  0  0  0  0  0  0
   -6.3990   12.5860    1.1950 C   0  0  0  0  0  0  0  0  0  0  0  0
   -2.5300   14.5370   -1.6890 N   0  0  0  0  0  0  0  0  0  0  0  0
   -0.5150   14.2360   -0.5360 N   0  0  0  0  0  0  0  0  0  0  0  0
   -0.2310   14.3330    0.8870 C   0  0  0  0  0  0  0  0  0  0  0  0
   -6.3550   14.7120    0.0890 N   0  0  0  0  0  0  0  0  0  0  0  0
   -6.7340   11.4910    0.4690 O   0  0  0  0  0  0  0  0  0  0  0  0
   -6.8750   12.4750    2.4800 C   0  0  0  0  0  0  0  0  0  0  0  0
   -7.5320   11.2330    2.5380 C   0  0  0  0  0  0  0  0  0  0  0  0
   -7.4180   10.6800    1.2870 C   0  0  0  0  0  0  0  0  0  0  0  0
  2  1  1  1
  2  3  1  0
  2  4  1  0
  2  5  1  0
  3  6  1  0
  4  7  1  0
  4  8  1  1
  5  9  1  0
  3 10  1  0
 10 11  2  0
  9 12  1  1
  6 13  1  0
  7 13  1  6
  7 14  1  0
  8 15  1  0
 14 15  1  0
  9 16  1  0
 10 16  1  0
 12 17  1  0
 12 18  2  0
 18 19  1  0
 17 20  1  0
 19 20  2  0
M  END
