mac-x0131-mac-x0345
     RDKit          3D

 26 29  0  0  0  0  0  0  0  0999 V2000
   -2.9800   15.0270   -4.2620 C   0  0  0  0  0  0  0  0  0  0  0  0
   -2.5760   14.9510   -2.8290 C   0  0  0  0  0  0  0  0  0  0  0  0
   -3.3740   14.9790   -1.7170 C   0  0  0  0  0  0  0  0  0  0  0  0
   -1.2820   14.8330   -2.3990 N   0  0  0  0  0  0  0  0  0  0  0  0
   -4.8450   15.0890   -1.8100 C   0  0  0  0  0  0  0  0  0  0  0  0
   -0.1190   14.7540   -3.2520 C   0  0  0  0  0  0  0  0  0  0  0  0
   -2.5330   14.8790   -0.5340 C   0  0  0  0  0  0  0  0  0  0  0  0
   -1.2380   14.7860   -1.0190 C   0  0  0  0  0  0  0  0  0  0  0  0
   -2.7090   14.8570    0.8850 C   0  0  0  0  0  0  0  0  0  0  0  0
   -0.1300   14.6700   -0.2770 N   0  0  0  0  0  0  0  0  0  0  0  0
    0.1330   13.3180   -3.4190 C   0  0  0  0  0  0  0  0  0  0  0  0
   -4.0140   14.9760    1.3810 N   0  0  0  0  0  0  0  0  0  0  0  0
   -1.6030   14.7230    1.6540 N   0  0  0  0  0  0  0  0  0  0  0  0
   -0.4050   14.6450    1.0390 C   0  0  0  0  0  0  0  0  0  0  0  0
    1.0650   12.4660   -2.8850 C   0  0  0  0  0  0  0  0  0  0  0  0
   -0.7060   12.6420   -4.2520 O   0  0  0  0  0  0  0  0  0  0  0  0
   -0.3070   11.3500   -4.2430 C   0  0  0  0  0  0  0  0  0  0  0  0
    0.7780   11.1970   -3.4130 C   0  0  0  0  0  0  0  0  0  0  0  0
   -5.0430   15.0150    0.4550 C   0  0  0  0  0  0  0  0  0  0  0  0
   -6.3820   14.5860    0.5950 C   0  0  0  0  0  0  0  0  0  0  0  0
   -4.7030   15.5260   -0.7740 C   0  0  0  0  0  0  0  0  0  0  0  0
   -6.9350   14.0150    1.8620 C   0  0  0  0  0  0  0  0  0  0  0  0
   -5.6170   15.5880   -1.8030 C   0  0  0  0  0  0  0  0  0  0  0  0
   -7.2910   14.6510   -0.4200 N   0  0  0  0  0  0  0  0  0  0  0  0
   -6.8870   15.1400   -1.5910 C   0  0  0  0  0  0  0  0  0  0  0  0
   -7.8170   15.1730   -2.6080 N   0  0  0  0  0  0  0  0  0  0  0  0
  1  2  1  0
  2  3  2  0
  2  4  1  0
  3  5  1  0
  4  6  1  0
  3  7  1  0
  4  8  1  0
  7  8  2  0
  7  9  1  0
  8 10  1  0
  6 11  1  0
  9 12  1  0
  9 13  2  0
 10 14  2  0
 13 14  1  0
 11 15  2  0
 11 16  1  0
 16 17  1  0
 15 18  1  0
 17 18  2  0
 12 19  1  0
 19 20  2  0
 19 21  1  0
 20 22  1  0
 21 23  2  0
 20 24  1  0
 23 25  1  0
 24 25  2  0
 25 26  1  0
M  END
