mac-x0159-diamond-x0662_0_A
     RDKit          3D

 37 41  0  0  0  0  0  0  0  0999 V2000
   -4.2630   14.7800    0.9610 N   0  0  0  0  0  0  0  0  0  0  0  0
   -3.4890   15.4250   -0.0760 C   0  0  1  0  0  0  0  0  0  0  0  0
   -1.9710   15.4060    0.1790 C   0  0  2  0  0  0  0  0  0  0  0  0
   -3.8710   14.7880   -1.3250 N   0  0  0  0  0  0  0  0  0  0  0  0
   -3.0490   15.1610   -2.4880 C   0  0  0  0  0  0  0  0  0  0  0  0
   -1.3950   14.5080   -0.8870 C   0  0  1  0  0  0  0  0  0  0  0  0
   -1.4680   14.7680    1.4000 N   0  0  0  0  0  0  0  0  0  0  0  0
   -1.6190   15.1160   -2.1740 N   0  0  0  0  0  0  0  0  0  0  0  0
   -0.0230   14.4250   -0.4450 N   0  0  0  0  0  0  0  0  0  0  0  0
   -0.0830   14.4840    1.0060 C   0  0  0  0  0  0  0  0  0  0  0  0
   -0.7380   14.7790   -3.3250 C   0  0  1  0  0  0  0  0  0  0  0  0
   -1.1810   13.6120   -4.2350 C   0  0  0  0  0  0  0  0  0  0  0  0
   -0.3670   16.0110   -4.1540 C   0  0  0  0  0  0  0  0  0  0  0  0
   -0.5800   12.2580   -3.8350 C   0  0  0  0  0  0  0  0  0  0  0  0
    0.9210   16.5090   -4.2900 C   0  0  0  0  0  0  0  0  0  0  0  0
   -1.3240   16.7490   -4.8500 N   0  0  0  0  0  0  0  0  0  0  0  0
   -0.7490   11.3890   -4.9970 N   0  0  0  0  0  0  0  0  0  0  0  0
   -0.7660   17.7570   -5.4800 C   0  0  0  0  0  0  0  0  0  0  0  0
    0.9250   17.8980   -5.2880 S   0  0  0  0  0  0  0  0  0  0  0  0
   -1.4950   18.7430   -6.3210 C   0  0  0  0  0  0  0  0  0  0  0  0
    0.1800   11.4450   -5.8920 C   0  0  0  0  0  0  0  0  0  0  0  0
    1.2290   12.1130   -5.9540 O   0  0  0  0  0  0  0  0  0  0  0  0
    0.0070   10.5540   -7.1200 C   0  0  0  0  0  0  0  0  0  0  0  0
   -0.8990    9.4920   -7.2020 C   0  0  0  0  0  0  0  0  0  0  0  0
    0.8050   10.8250   -8.2370 C   0  0  0  0  0  0  0  0  0  0  0  0
   -0.9990    8.7320   -8.3710 C   0  0  0  0  0  0  0  0  0  0  0  0
    0.7210   10.0800   -9.4230 C   0  0  0  0  0  0  0  0  0  0  0  0
    1.4960   10.3160  -10.5810 N   0  0  0  0  0  0  0  0  0  0  0  0
   -0.1930    9.0280   -9.4740 C   0  0  0  0  0  0  0  0  0  0  0  0
    2.2290    9.4550  -11.3820 C   0  0  0  0  0  0  0  0  0  0  0  0
    2.2930    8.2650  -11.0550 O   0  0  0  0  0  0  0  0  0  0  0  0
    2.9320    9.9520  -12.5710 C   0  0  0  0  0  0  0  0  0  0  0  0
    2.7580   11.2120  -13.2170 C   0  0  0  0  0  0  0  0  0  0  0  0
    3.8710    9.2220  -13.1980 N   0  0  0  0  0  0  0  0  0  0  0  0
    4.2850   10.0020  -14.2110 N   0  0  0  0  0  0  0  0  0  0  0  0
    3.6440   11.2100  -14.2670 C   0  0  0  0  0  0  0  0  0  0  0  0
    5.3140    9.5140  -15.0930 C   0  0  0  0  0  0  0  0  0  0  0  0
  2  1  1  1
  2  3  1  0
  2  4  1  0
  4  5  1  0
  3  6  1  0
  3  7  1  1
  5  8  1  0
  6  8  1  0
  6  9  1  1
  7 10  1  0
  9 10  1  0
  8 11  1  0
 11 12  1  6
 11 13  1  0
 12 14  1  0
 13 15  2  0
 13 16  1  0
 14 17  1  0
 16 18  2  0
 15 19  1  0
 18 19  1  0
 18 20  1  0
 17 21  2  3
 21 22  1  0
 21 23  1  0
 23 24  2  0
 23 25  1  0
 24 26  1  0
 25 27  2  0
 27 28  1  0
 26 29  2  0
 27 29  1  0
 28 30  1  0
 30 31  2  0
 30 32  1  0
 32 33  1  0
 32 34  2  0
 34 35  1  0
 33 36  2  0
 35 36  1  0
 35 37  1  0
M  CHG  1  22  -1
M  END
