mac-x0436-mac-x0417
     RDKit          3D

 16 17  0  0  0  0  0  0  0  0999 V2000
    0.7530   11.1410   -2.9480 O   0  0  0  0  0  0  0  0  0  0  0  0
    1.2340   12.3980   -2.9490 C   0  0  0  0  0  0  0  0  0  0  0  0
    1.3690   13.0010   -1.9060 O   0  0  0  0  0  0  0  0  0  0  0  0
    1.5570   12.9250   -4.3290 C   0  0  0  0  0  0  0  0  0  0  0  0
    0.3000   13.2370   -5.1240 C   0  0  0  0  0  0  0  0  0  0  0  0
   -0.4280   11.9720   -5.5330 C   0  0  0  0  0  0  0  0  0  0  0  0
   -1.7320   11.6290   -4.7990 C   0  0  0  0  0  0  0  0  0  0  0  0
    0.0610   11.2270   -6.4810 N   0  0  0  0  0  0  0  0  0  0  0  0
   -2.1660   12.3450   -3.9090 O   0  0  0  0  0  0  0  0  0  0  0  0
   -2.3610   10.4800   -5.2090 N   0  0  0  0  0  0  0  0  0  0  0  0
   -0.6350   10.0630   -6.8450 C   0  0  0  0  0  0  0  0  0  0  0  0
   -1.8360    9.6790   -6.2260 C   0  0  0  0  0  0  0  0  0  0  0  0
   -0.1140    9.2610   -7.8580 C   0  0  0  0  0  0  0  0  0  0  0  0
   -0.7800    8.0950   -8.2500 C   0  0  0  0  0  0  0  0  0  0  0  0
   -2.5060    8.5180   -6.6080 C   0  0  0  0  0  0  0  0  0  0  0  0
   -1.9730    7.7260   -7.6260 C   0  0  0  0  0  0  0  0  0  0  0  0
  1  2  1  0
  2  3  2  0
  2  4  1  0
  4  5  1  0
  5  6  1  0
  6  7  1  0
  6  8  2  0
  7  9  2  0
  7 10  1  0
  8 11  1  0
 10 12  1  0
 11 12  2  0
 11 13  1  0
 13 14  2  0
 12 15  1  0
 14 16  1  0
 15 16  2  0
M  END
