mac-x0115-mac-x0263
     RDKit          3D

 29 32  0  0  0  0  0  0  0  0999 V2000
   -1.4240   18.6170   -5.1640 C   0  0  0  0  0  0  0  0  0  0  0  0
   -0.4170   17.6760   -5.7960 C   0  0  0  0  0  0  0  0  0  0  0  0
    1.0060   18.1440   -5.5590 C   0  0  0  0  0  0  0  0  0  0  0  0
   -0.6320   16.3910   -5.2060 O   0  0  0  0  0  0  0  0  0  0  0  0
    0.5360   15.7800   -4.6450 C   0  0  0  0  0  0  0  0  0  0  0  0
    0.1000   14.5290   -3.8710 C   0  0  0  0  0  0  0  0  0  0  0  0
   -0.1520   14.7880   -2.4270 N   0  0  0  0  0  0  0  0  0  0  0  0
    0.8430   14.4660   -1.4930 C   0  0  0  0  0  0  0  0  0  0  0  0
   -1.4870   14.8320   -1.9470 C   0  0  0  0  0  0  0  0  0  0  0  0
    2.4430   14.0760   -1.8560 S   0  0  0  0  0  0  0  0  0  0  0  0
    0.4850   14.4610   -0.1580 N   0  0  0  0  0  0  0  0  0  0  0  0
   -1.7900   14.7430   -0.5960 C   0  0  0  0  0  0  0  0  0  0  0  0
   -2.7090   14.9640   -2.6530 C   0  0  0  0  0  0  0  0  0  0  0  0
   -0.7740   14.6130    0.4070 C   0  0  0  0  0  0  0  0  0  0  0  0
   -3.1740   14.7970   -0.4450 N   0  0  0  0  0  0  0  0  0  0  0  0
   -3.7350   14.9390   -1.7260 C   0  0  0  0  0  0  0  0  0  0  0  0
   -0.9410   14.6390    1.6350 O   0  0  0  0  0  0  0  0  0  0  0  0
   -5.1680   15.0110   -1.8540 C   0  0  0  0  0  0  0  0  0  0  0  0
   -3.9780   14.7130    0.7120 C   0  0  0  0  0  0  0  0  0  0  0  0
   -5.9250   14.8820   -0.7510 C   0  0  0  0  0  0  0  0  0  0  0  0
   -5.3170   14.7220    0.5640 C   0  0  0  0  0  0  0  0  0  0  0  0
   -7.2640   14.8610   -0.5040 N   0  0  0  0  0  0  0  0  0  0  0  0
   -6.3210   14.5720    1.5140 N   0  0  0  0  0  0  0  0  0  0  0  0
   -7.4500   14.6110    0.8350 C   0  0  0  0  0  0  0  0  0  0  0  0
   -8.8020   14.3920    1.4690 C   0  0  0  0  0  0  0  0  0  0  0  0
   -9.3870   15.6530    2.0850 C   0  0  0  0  0  0  0  0  0  0  0  0
  -10.7480   15.3850    2.6860 C   0  0  0  0  0  0  0  0  0  0  0  0
  -11.3820   14.3320    2.1450 O   0  0  0  0  0  0  0  0  0  0  0  0
  -11.2870   16.0070    3.5830 O   0  0  0  0  0  0  0  0  0  0  0  0
  1  2  1  0
  2  3  1  0
  2  4  1  0
  4  5  1  0
  5  6  1  0
  6  7  1  0
  7  8  1  0
  7  9  1  0
  8 10  2  0
  8 11  1  0
  9 12  2  0
  9 13  1  0
 11 14  1  0
 12 14  1  0
 12 15  1  0
 13 16  2  0
 15 16  1  0
 14 17  2  0
 16 18  1  0
 15 19  1  0
 18 20  2  0
 19 21  2  0
 20 21  1  0
 20 22  1  0
 21 23  1  0
 22 24  1  0
 23 24  2  0
 24 25  1  0
 25 26  1  0
 26 27  1  0
 27 28  1  0
 27 29  2  0
M  END
