mac-x0204-mac-x0348
     RDKit          3D

 23 25  0  0  0  0  0  0  0  0999 V2000
    0.2860   12.8770   -2.3990 C   0  0  0  0  0  0  0  0  0  0  0  0
    0.6070   13.8600   -3.8740 S   0  0  0  0  0  0  0  0  0  0  0  0
    1.5990   14.4120   -3.0670 O   0  0  0  0  0  0  0  0  0  0  0  0
    0.3120   13.1840   -1.2240 O   0  0  0  0  0  0  0  0  0  0  0  0
    0.0250   11.5460   -2.6740 O   0  0  0  0  0  0  0  0  0  0  0  0
    1.6390   12.9560   -4.8710 C   0  0  0  0  0  0  0  0  0  0  0  0
   -0.8730   13.4790   -4.4860 C   0  0  0  0  0  0  0  0  0  0  0  0
    0.1290   15.2720   -4.5220 C   0  0  2  0  0  0  0  0  0  0  0  0
   -1.4720   14.3750   -5.3240 C   0  0  0  0  0  0  0  0  0  0  0  0
   -1.6680   12.3480   -4.2880 C   0  0  0  0  0  0  0  0  0  0  0  0
    1.0260   16.4680   -4.6720 C   0  0  0  0  0  0  0  0  0  0  0  0
   -1.1900   15.9660   -4.3200 C   0  0  1  0  0  0  0  0  0  0  0  0
   -2.6950   14.1900   -5.8950 C   0  0  0  0  0  0  0  0  0  0  0  0
   -2.8560   12.1300   -4.8230 N   0  0  0  0  0  0  0  0  0  0  0  0
    0.2170   17.2590   -5.6490 N   0  0  0  0  0  0  0  0  0  0  0  0
   -1.0460   17.2880   -5.0130 C   0  0  1  0  0  0  0  0  0  0  0  0
   -2.5030   15.3020   -4.5040 C   0  0  0  0  0  0  0  0  0  0  0  0
   -3.2230   15.1930   -6.7500 O   0  0  0  0  0  0  0  0  0  0  0  0
    0.7970   18.4940   -5.9770 C   0  0  0  0  0  0  0  0  0  0  0  0
   -3.3570   13.0640   -5.6260 C   0  0  0  0  0  0  0  0  0  0  0  0
   -3.4390   15.6630   -5.3490 C   0  0  0  0  0  0  0  0  0  0  0  0
   -2.0800   17.5240   -6.0260 C   0  0  0  0  0  0  0  0  0  0  0  0
   -3.1710   16.8030   -6.2060 C   0  0  0  0  0  0  0  0  0  0  0  0
  1  2  1  0
  2  3  2  0
  1  4  2  0
  1  5  1  0
  2  6  1  0
  2  7  1  0
  8  2  1  1
  7  9  2  0
  7 10  1  0
  8 11  1  0
  8 12  1  0
  9 13  1  0
 10 14  2  0
 11 15  1  0
 12 16  1  0
 15 16  1  0
 12 17  1  6
 13 18  1  0
 15 19  1  0
 13 20  2  0
 14 20  1  0
 17 21  2  0
 16 22  1  6
 21 23  1  0
 22 23  2  0
M  END
