mac-x0190-mac-x0228
     RDKit          3D

 14 15  0  0  0  0  0  0  0  0999 V2000
   -9.0940   15.0150    2.3930 O   0  0  0  0  0  0  0  0  0  0  0  0
   -8.9800   14.4650    1.0850 C   0  0  0  0  0  0  0  0  0  0  0  0
   -7.5610   14.6010    0.6690 C   0  0  0  0  0  0  0  0  0  0  0  0
   -7.1840   14.6100   -0.6530 N   0  0  0  0  0  0  0  0  0  0  0  0
   -6.5130   14.7240    1.4510 N   0  0  0  0  0  0  0  0  0  0  0  0
   -5.8130   14.7370   -0.7170 C   0  0  0  0  0  0  0  0  0  0  0  0
   -5.4260   14.8090    0.6180 C   0  0  0  0  0  0  0  0  0  0  0  0
   -4.9070   14.7870   -1.7890 C   0  0  0  0  0  0  0  0  0  0  0  0
   -4.0660   14.9470    0.9280 C   0  0  0  0  0  0  0  0  0  0  0  0
   -3.5370   14.9060   -1.4520 C   0  0  0  0  0  0  0  0  0  0  0  0
   -3.1320   14.9920   -0.1100 C   0  0  0  0  0  0  0  0  0  0  0  0
   -2.4520   14.9300   -2.4850 C   0  0  0  0  0  0  0  0  0  0  0  0
   -1.2200   14.8070   -1.9390 O   0  0  0  0  0  0  0  0  0  0  0  0
   -2.6290   15.0300   -3.6890 O   0  0  0  0  0  0  0  0  0  0  0  0
  1  2  1  0
  2  3  1  0
  3  4  1  0
  3  5  2  0
  4  6  1  0
  5  7  1  0
  6  7  2  0
  6  8  1  0
  7  9  1  0
  8 10  2  0
  9 11  2  0
 10 11  1  0
 10 12  1  0
 12 13  1  0
 12 14  2  0
M  END
