mac-x0354-diamond-x0282_0_A
     RDKit          3D

 30 33  0  0  0  0  0  0  0  0999 V2000
    0.6860   11.0270   -8.4810 C   0  0  0  0  0  0  0  0  0  0  0  0
    0.9330   11.4920   -7.1310 N   0  0  0  0  0  0  0  0  0  0  0  0
    1.9000   12.3790   -6.8510 N   0  0  0  0  0  0  0  0  0  0  0  0
    0.2590   11.1140   -6.0290 C   0  0  0  0  0  0  0  0  0  0  0  0
    1.8430   12.5720   -5.5630 C   0  0  0  0  0  0  0  0  0  0  0  0
    0.8340   11.8010   -4.9900 C   0  0  0  0  0  0  0  0  0  0  0  0
   -0.8220   10.1610   -6.0540 C   0  0  0  0  0  0  0  0  0  0  0  0
    0.4850   11.7390   -3.6360 C   0  0  0  0  0  0  0  0  0  0  0  0
   -0.6100    8.8950   -6.6070 C   0  0  0  0  0  0  0  0  0  0  0  0
   -2.0660   10.4970   -5.5290 C   0  0  0  0  0  0  0  0  0  0  0  0
    0.4360   12.7920   -2.9790 N   0  0  0  0  0  0  0  0  0  0  0  0
    0.2040   10.5140   -3.1050 O   0  0  0  0  0  0  0  0  0  0  0  0
   -1.6460    7.9710   -6.6300 C   0  0  0  0  0  0  0  0  0  0  0  0
   -3.1030    9.5700   -5.5540 C   0  0  0  0  0  0  0  0  0  0  0  0
    0.0360   12.4180   -1.6830 C   0  0  0  0  0  0  0  0  0  0  0  0
   -2.8920    8.3060   -6.1040 C   0  0  0  0  0  0  0  0  0  0  0  0
   -0.3940   13.5020   -0.7640 C   0  0  0  0  0  0  0  0  0  0  0  0
   -1.6940   13.6380   -0.5540 N   0  0  0  0  0  0  0  0  0  0  0  0
    0.5220   14.2810   -0.1740 C   0  0  0  0  0  0  0  0  0  0  0  0
    0.0370   15.2030    0.6910 C   0  0  0  0  0  0  0  0  0  0  0  0
   -2.1030   14.5570    0.2830 C   0  0  0  0  0  0  0  0  0  0  0  0
   -3.4390   14.6520    0.4450 N   0  0  0  0  0  0  0  0  0  0  0  0
   -1.2690   15.3580    0.9430 N   0  0  0  0  0  0  0  0  0  0  0  0
   -3.9480   14.2700    1.7290 C   0  0  0  0  0  0  0  0  0  0  0  0
   -4.2500   14.6680   -0.7840 C   0  0  0  0  0  0  0  0  0  0  0  0
   -5.2890   14.9280    1.8620 C   0  0  0  0  0  0  0  0  0  0  0  0
   -5.7340   14.9700   -0.5440 C   0  0  0  0  0  0  0  0  0  0  0  0
   -6.1810   14.3580    0.7850 C   0  0  0  0  0  0  0  0  0  0  0  0
   -7.6740   14.4500    1.1160 C   0  0  0  0  0  0  0  0  0  0  0  0
   -8.4690   14.6110   -0.0530 O   0  0  0  0  0  0  0  0  0  0  0  0
  1  2  1  0
  2  3  1  0
  2  4  1  0
  3  5  2  0
  4  6  2  0
  5  6  1  0
  4  7  1  0
  6  8  1  0
  7  9  2  0
  7 10  1  0
  8 11  2  3
  8 12  1  0
  9 13  1  0
 10 14  2  0
 11 15  1  0
 13 16  2  0
 14 16  1  0
 15 17  1  0
 17 18  2  0
 17 19  1  0
 19 20  2  0
 18 21  1  0
 21 22  1  0
 20 23  1  0
 21 23  2  0
 22 24  1  0
 22 25  1  0
 24 26  1  0
 25 27  1  0
 26 28  1  0
 27 28  1  0
 28 29  1  0
 29 30  1  0
M  END
