mac-x0392-diamond-x1012_0_A
     RDKit          3D

 21 22  0  0  0  0  0  0  0  0999 V2000
    0.2500   14.3250    0.1280 N   0  0  0  0  0  0  0  0  0  0  0  0
   -1.1090   14.6860    0.0790 C   0  0  0  0  0  0  0  0  0  0  0  0
   -1.9290   14.5100    1.1860 C   0  0  0  0  0  0  0  0  0  0  0  0
   -1.6990   15.2300   -1.0700 C   0  0  0  0  0  0  0  0  0  0  0  0
   -0.9540   15.4870   -2.3450 C   0  0  0  0  0  0  0  0  0  0  0  0
   -3.0620   15.5580   -1.0420 C   0  0  0  0  0  0  0  0  0  0  0  0
   -3.2470   14.8260    1.2320 N   0  0  0  0  0  0  0  0  0  0  0  0
    0.4280   15.1490   -2.2460 O   0  0  0  0  0  0  0  0  0  0  0  0
   -3.7830   15.3410    0.1140 C   0  0  0  0  0  0  0  0  0  0  0  0
    0.9240   14.5840   -3.4600 C   0  0  1  0  0  0  0  0  0  0  0  0
    0.1970   13.2450   -3.6730 C   0  0  1  0  0  0  0  0  0  0  0  0
    0.7020   15.5380   -4.6450 C   0  0  0  0  0  0  0  0  0  0  0  0
    0.3520   12.3100   -2.4860 C   0  0  0  0  0  0  0  0  0  0  0  0
   -1.3040   13.4760   -3.9610 C   0  0  0  0  0  0  0  0  0  0  0  0
   -0.7220   15.8240   -4.8100 N   0  0  0  0  0  0  0  0  0  0  0  0
   -1.2860   17.0800   -4.6870 C   0  0  0  0  0  0  0  0  0  0  0  0
    0.2900   11.0040   -2.8220 O   0  0  0  0  0  0  0  0  0  0  0  0
    0.5190   12.6260   -1.3200 O   0  0  0  0  0  0  0  0  0  0  0  0
   -1.6190   14.6580   -4.9080 C   0  0  0  0  0  0  0  0  0  0  0  0
   -0.4240   18.1240   -4.6300 N   0  0  0  0  0  0  0  0  0  0  0  0
   -2.4880   17.3020   -4.6310 O   0  0  0  0  0  0  0  0  0  0  0  0
  1  2  1  0
  2  3  2  0
  2  4  1  0
  4  5  1  0
  4  6  2  0
  3  7  1  0
  5  8  1  0
  6  9  1  0
  7  9  2  0
 10  8  1  1
 10 11  1  0
 10 12  1  0
 11 13  1  1
 11 14  1  0
 12 15  1  0
 15 16  1  0
 13 17  1  0
 13 18  2  0
 14 19  1  0
 15 19  1  0
 16 20  1  0
 16 21  2  0
M  END
