mac-x0417-mac-x0365
     RDKit          3D

 26 28  0  0  0  0  0  0  0  0999 V2000
    1.5970   12.7820   -2.7060 O   0  0  0  0  0  0  0  0  0  0  0  0
    0.7610   11.9810   -3.3940 C   0  0  0  0  0  0  0  0  0  0  0  0
    0.5840   10.8420   -2.9990 O   0  0  0  0  0  0  0  0  0  0  0  0
    0.1160   12.5940   -4.6230 C   0  0  1  0  0  0  0  0  0  0  0  0
    0.5320   14.0530   -4.8120 C   0  0  0  0  0  0  0  0  0  0  0  0
    0.1920   11.6750   -5.8050 C   0  0  0  0  0  0  0  0  0  0  0  0
    0.1840   14.9670   -3.6300 C   0  0  0  0  0  0  0  0  0  0  0  0
    1.2190   11.6810   -6.6610 N   0  0  0  0  0  0  0  0  0  0  0  0
   -0.7710   10.7030   -6.1620 C   0  0  0  0  0  0  0  0  0  0  0  0
   -1.2780   14.9670   -3.4200 N   0  0  0  0  0  0  0  0  0  0  0  0
    0.9270   10.6970   -7.6000 O   0  0  0  0  0  0  0  0  0  0  0  0
   -0.2610   10.1130   -7.2960 C   0  0  0  0  0  0  0  0  0  0  0  0
   -1.9980   10.2600   -5.6610 C   0  0  0  0  0  0  0  0  0  0  0  0
   -1.7060   14.9090   -2.2110 C   0  0  0  0  0  0  0  0  0  0  0  0
   -0.8950    9.0860   -7.9900 C   0  0  0  0  0  0  0  0  0  0  0  0
   -2.6680    9.2310   -6.3240 C   0  0  0  0  0  0  0  0  0  0  0  0
   -0.7840   14.8250   -1.2430 O   0  0  0  0  0  0  0  0  0  0  0  0
   -2.1230    8.6540   -7.4720 C   0  0  0  0  0  0  0  0  0  0  0  0
   -3.0530   14.9410   -1.6210 C   0  0  0  0  0  0  0  0  0  0  0  0
   -4.1580   15.0320   -2.4650 C   0  0  0  0  0  0  0  0  0  0  0  0
   -3.2250   14.8900   -0.2270 C   0  0  0  0  0  0  0  0  0  0  0  0
   -5.4230   15.0690   -1.9050 C   0  0  0  0  0  0  0  0  0  0  0  0
   -4.5090   14.9300    0.3220 C   0  0  0  0  0  0  0  0  0  0  0  0
   -6.4990   15.1540   -2.6930 F   0  0  0  0  0  0  0  0  0  0  0  0
   -5.6050   15.0200   -0.5320 C   0  0  0  0  0  0  0  0  0  0  0  0
   -6.8650   15.0590   -0.0120 O   0  0  0  0  0  0  0  0  0  0  0  0
  1  2  1  0
  2  3  2  0
  2  4  1  0
  4  5  1  6
  4  6  1  0
  5  7  1  0
  6  8  2  0
  6  9  1  0
  7 10  1  0
  8 11  1  0
  9 12  2  0
 11 12  1  0
  9 13  1  0
 10 14  2  3
 12 15  1  0
 13 16  2  0
 14 17  1  0
 15 18  2  0
 16 18  1  0
 14 19  1  0
 19 20  2  0
 19 21  1  0
 20 22  1  0
 21 23  2  0
 22 24  1  0
 22 25  2  0
 23 25  1  0
 25 26  1  0
M  END
