mac-x0357-mac-x0373
     RDKit          3D

 24 26  0  0  0  0  0  0  0  0999 V2000
    2.1400   13.1110   -4.4320 C   0  0  0  0  0  0  0  0  0  0  0  0
    0.8260   12.8340   -5.0100 C   0  0  0  0  0  0  0  0  0  0  0  0
    0.8280   12.2940   -6.3010 C   0  0  0  0  0  0  0  0  0  0  0  0
   -0.3150   13.0640   -4.3470 C   0  0  0  0  0  0  0  0  0  0  0  0
    2.0170   12.1100   -6.8420 O   0  0  0  0  0  0  0  0  0  0  0  0
   -0.4840   13.6840   -2.5850 S   0  0  0  0  0  0  0  0  0  0  0  0
   -1.4910   12.7270   -5.0840 C   0  0  0  0  0  0  0  0  0  0  0  0
   -0.3390   12.0070   -6.8940 C   0  0  0  0  0  0  0  0  0  0  0  0
   -0.4510   13.7990   -0.7730 N   0  0  0  0  0  0  0  0  0  0  0  0
    1.0260   13.0690   -1.3270 O   0  0  0  0  0  0  0  0  0  0  0  0
   -1.5350   12.2000   -6.3520 C   0  0  0  0  0  0  0  0  0  0  0  0
   -1.6310   12.2240   -2.8960 C   0  0  0  0  0  0  0  0  0  0  0  0
   -2.0890   14.5500   -1.8680 C   0  0  0  0  0  0  0  0  0  0  0  0
    0.2290   14.4990   -0.2370 O   0  0  0  0  0  0  0  0  0  0  0  0
   -1.0690   11.5920   -3.9730 C   0  0  0  0  0  0  0  0  0  0  0  0
   -2.7320   11.7200   -2.4210 C   0  0  0  0  0  0  0  0  0  0  0  0
   -3.1140   15.0270   -2.6250 C   0  0  0  0  0  0  0  0  0  0  0  0
   -2.2380   14.6750   -0.5140 C   0  0  0  0  0  0  0  0  0  0  0  0
   -1.6060   10.4880   -4.5620 C   0  0  0  0  0  0  0  0  0  0  0  0
   -3.3540   10.5810   -2.9670 C   0  0  0  0  0  0  0  0  0  0  0  0
   -4.2620   15.6110   -2.0070 C   0  0  0  0  0  0  0  0  0  0  0  0
   -3.3310   15.2410    0.1590 C   0  0  0  0  0  0  0  0  0  0  0  0
   -2.7580   10.0050   -4.0330 C   0  0  0  0  0  0  0  0  0  0  0  0
   -4.2990   15.6840   -0.6580 C   0  0  0  0  0  0  0  0  0  0  0  0
  1  2  1  0
  2  3  2  0
  2  4  1  0
  3  5  1  0
  4  6  1  0
  4  7  2  0
  3  8  1  0
  6  9  1  0
  6 10  1  0
  7 11  1  0
  8 11  2  0
  6 12  1  0
  6 13  1  0
  9 14  2  0
 12 15  2  0
 12 16  1  0
 13 17  2  0
 13 18  1  0
 15 19  1  0
 16 20  2  0
 17 21  1  0
 18 22  2  0
 19 23  2  0
 20 23  1  0
 21 24  2  0
 22 24  1  0
M  END
