mac-x0306-diamond-x0465_0_A
     RDKit          3D

 27 29  0  0  0  0  0  0  0  0999 V2000
    2.0340   13.2310   -4.8860 C   0  0  0  0  0  0  0  0  0  0  0  0
    0.6820   12.5880   -4.5870 C   0  0  1  0  0  0  0  0  0  0  0  0
    0.6420   11.4440   -5.4450 O   0  0  0  0  0  0  0  0  0  0  0  0
    0.6680   12.1980   -3.1010 C   0  0  0  0  0  0  0  0  0  0  0  0
    0.7410   12.9540   -2.0650 N   0  0  0  0  0  0  0  0  0  0  0  0
    0.5560   10.8620   -2.8750 O   0  0  0  0  0  0  0  0  0  0  0  0
   -0.5110   10.7430   -5.6900 C   0  0  0  0  0  0  0  0  0  0  0  0
    0.8500   14.4080   -2.1770 C   0  0  0  0  0  0  0  0  0  0  0  0
   -0.6690    9.6950   -6.6000 C   0  0  0  0  0  0  0  0  0  0  0  0
   -1.6190   11.1390   -4.9340 C   0  0  0  0  0  0  0  0  0  0  0  0
    0.3420    9.2550   -7.3610 F   0  0  0  0  0  0  0  0  0  0  0  0
   -0.3690   15.0890   -1.5420 C   0  0  0  0  0  0  0  0  0  0  0  0
   -1.8950    9.0540   -6.7570 C   0  0  0  0  0  0  0  0  0  0  0  0
   -2.8540   10.4990   -5.0870 C   0  0  0  0  0  0  0  0  0  0  0  0
   -1.5670   15.2690   -2.4970 C   0  0  0  0  0  0  0  0  0  0  0  0
   -2.9910    9.4550   -5.9990 C   0  0  0  0  0  0  0  0  0  0  0  0
   -2.8660   15.1760   -1.7850 N   0  0  0  0  0  0  0  0  0  0  0  0
   -4.0850   15.0700   -2.4710 C   0  0  0  0  0  0  0  0  0  0  0  0
   -2.8910   14.8920   -0.4210 C   0  0  0  0  0  0  0  0  0  0  0  0
   -5.2690   15.1520   -1.8410 C   0  0  0  0  0  0  0  0  0  0  0  0
   -4.0060   14.9660    0.3100 C   0  0  0  0  0  0  0  0  0  0  0  0
   -5.3050   15.3800   -0.3430 C   0  0  0  0  0  0  0  0  0  0  0  0
   -6.5500   14.8820    0.3580 C   0  0  0  0  0  0  0  0  0  0  0  0
   -6.5620   14.4830    1.6860 N   0  0  0  0  0  0  0  0  0  0  0  0
   -7.7620   14.7700   -0.1550 N   0  0  0  0  0  0  0  0  0  0  0  0
   -8.5580   14.3030    0.8530 C   0  0  0  0  0  0  0  0  0  0  0  0
   -7.8350   14.1210    2.0010 C   0  0  0  0  0  0  0  0  0  0  0  0
  2  1  1  1
  2  3  1  0
  2  4  1  0
  4  5  2  3
  4  6  1  0
  3  7  1  0
  5  8  1  0
  7  9  2  0
  7 10  1  0
  9 11  1  0
  8 12  1  0
  9 13  1  0
 10 14  2  0
 12 15  1  0
 13 16  2  0
 14 16  1  0
 15 17  1  0
 17 18  1  0
 17 19  1  0
 18 20  2  0
 19 21  2  0
 20 22  1  0
 21 22  1  0
 22 23  1  0
 23 24  1  0
 23 25  2  0
 25 26  1  0
 24 27  1  0
 26 27  2  0
M  END
