mac-x0193-mac-x0115
     RDKit          3D

 32 34  0  0  0  0  0  0  0  0999 V2000
    0.1980   10.8470   -3.0870 O   0  0  0  0  0  0  0  0  0  0  0  0
    1.0820   11.8500   -3.3020 C   0  0  0  0  0  0  0  0  0  0  0  0
    1.9230   12.2280   -2.3900 N   0  0  0  0  0  0  0  0  0  0  0  0
    0.9700   12.4360   -4.7130 C   0  0  0  0  0  0  0  0  0  0  0  0
    0.2230   11.4910   -5.5570 N   0  0  0  0  0  0  0  0  0  0  0  0
    2.9080   13.2780   -2.4910 C   0  0  0  0  0  0  0  0  0  0  0  0
    0.6210   11.2050   -6.8300 C   0  0  0  0  0  0  0  0  0  0  0  0
    1.9000   14.5310   -3.0780 S   0  0  0  0  0  0  0  0  0  0  0  0
    1.7040   11.5320   -7.2460 O   0  0  0  0  0  0  0  0  0  0  0  0
   -0.2520   10.5200   -7.6460 N   0  0  0  0  0  0  0  0  0  0  0  0
    0.5660   14.9040   -1.9760 C   0  0  0  0  0  0  0  0  0  0  0  0
    0.0180    9.5400   -8.7280 C   0  0  0  0  0  0  0  0  0  0  0  0
   -0.3970   15.7320   -2.4210 N   0  0  0  0  0  0  0  0  0  0  0  0
    0.4720   14.3190   -0.6910 N   0  0  0  0  0  0  0  0  0  0  0  0
   -0.6200   15.5660   -3.8620 C   0  0  0  0  0  0  0  0  0  0  0  0
    1.4820    9.2130   -8.8320 C   0  0  0  0  0  0  0  0  0  0  0  0
   -0.4280   10.0470  -10.1050 C   0  0  0  0  0  0  0  0  0  0  0  0
   -0.5540   14.5890    0.2250 C   0  0  0  0  0  0  0  0  0  0  0  0
   -1.5740   15.5780   -1.7700 C   0  0  0  0  0  0  0  0  0  0  0  0
    0.4760   16.0710   -4.7840 C   0  0  0  0  0  0  0  0  0  0  0  0
   -0.5890   14.0960    1.3500 O   0  0  0  0  0  0  0  0  0  0  0  0
    1.8350    8.0460   -9.7480 C   0  0  0  0  0  0  0  0  0  0  0  0
    0.5470    9.6300  -11.2250 C   0  0  0  0  0  0  0  0  0  0  0  0
   -1.5750   15.5570   -0.3000 C   0  0  1  0  0  0  0  0  0  0  0  0
   -2.7950   15.4330   -2.2830 C   0  0  0  0  0  0  0  0  0  0  0  0
   -0.2340   16.5690   -5.9040 O   0  0  0  0  0  0  0  0  0  0  0  0
    1.1510    8.2210  -11.0890 C   0  0  0  0  0  0  0  0  0  0  0  0
   -2.9950   15.3450    0.0770 N   0  0  0  0  0  0  0  0  0  0  0  0
   -3.5990   15.3000   -1.0770 C   0  0  0  0  0  0  0  0  0  0  0  0
   -0.3180   17.9760   -5.9940 C   0  0  0  0  0  0  0  0  0  0  0  0
   -1.3120   18.5330   -4.9910 C   0  0  0  0  0  0  0  0  0  0  0  0
    1.1040   18.4360   -5.7460 C   0  0  0  0  0  0  0  0  0  0  0  0
  1  2  1  0
  2  3  2  3
  2  4  1  0
  4  5  1  0
  3  6  1  0
  5  7  1  0
  6  8  1  0
  7  9  2  0
  7 10  1  0
  8 11  2  3
 10 12  1  0
 11 13  1  0
 11 14  1  0
 13 15  1  0
 12 16  1  0
 12 17  1  0
 14 18  1  0
 13 19  1  0
 15 20  1  0
 18 21  2  0
 16 22  1  0
 17 23  1  0
 18 24  1  0
 19 24  1  0
 19 25  2  0
 20 26  1  0
 22 27  1  0
 23 27  1  0
 24 28  1  6
 25 29  1  0
 28 29  2  0
 26 30  1  0
 30 31  1  0
 30 32  1  0
M  END
