mac-x0302-mac-x0301
     RDKit          3D

 24 26  0  0  0  0  0  0  0  0999 V2000
    1.0480   14.0100   -3.7440 O   0  0  0  0  0  0  0  0  0  0  0  0
    0.1650   13.7160   -2.7450 C   0  0  0  0  0  0  0  0  0  0  0  0
    0.4600   12.9710   -1.8290 O   0  0  0  0  0  0  0  0  0  0  0  0
   -1.2220   14.4460   -2.9010 C   0  0  2  0  0  0  0  0  0  0  0  0
   -2.3130   13.6230   -3.2830 N   0  0  0  0  0  0  0  0  0  0  0  0
   -1.1010   15.5100   -3.8360 O   0  0  0  0  0  0  0  0  0  0  0  0
   -1.8790   14.8610   -1.6310 C   0  0  0  0  0  0  0  0  0  0  0  0
   -3.5680   14.2050   -3.0980 C   0  0  0  0  0  0  0  0  0  0  0  0
   -1.3190   14.6610   -0.3810 C   0  0  0  0  0  0  0  0  0  0  0  0
   -3.1580   15.4730   -1.6480 C   0  0  0  0  0  0  0  0  0  0  0  0
   -4.1180   14.7310   -4.0590 O   0  0  0  0  0  0  0  0  0  0  0  0
   -4.2520   14.2530   -1.7390 C   0  0  0  0  0  0  0  0  0  0  0  0
   -1.9750   15.0370    0.7780 C   0  0  0  0  0  0  0  0  0  0  0  0
   -3.8140   15.8500   -0.4650 C   0  0  0  0  0  0  0  0  0  0  0  0
   -0.1170   14.0920   -0.1190 O   0  0  0  0  0  0  0  0  0  0  0  0
   -5.5600   14.7790   -1.6940 C   0  0  0  0  0  0  0  0  0  0  0  0
   -3.6690   13.8130   -0.5250 C   0  0  0  0  0  0  0  0  0  0  0  0
   -3.2200   15.6320    0.7730 C   0  0  0  0  0  0  0  0  0  0  0  0
   -1.2600   14.7520    1.8890 O   0  0  0  0  0  0  0  0  0  0  0  0
   -0.0210   14.3920    1.2830 C   0  0  0  0  0  0  0  0  0  0  0  0
   -6.2430   14.8570   -0.4810 C   0  0  0  0  0  0  0  0  0  0  0  0
   -4.3730   13.9070    0.6860 C   0  0  0  0  0  0  0  0  0  0  0  0
   -7.5100   15.3540   -0.4240 O   0  0  0  0  0  0  0  0  0  0  0  0
   -5.6620   14.4300    0.7100 C   0  0  0  0  0  0  0  0  0  0  0  0
  1  2  1  0
  2  3  2  0
  2  4  1  0
  4  5  1  0
  4  6  1  6
  4  7  1  0
  5  8  1  0
  7  9  1  0
  7 10  2  0
  8 11  2  0
  8 12  1  0
  9 13  2  0
 10 14  1  0
  9 15  1  0
 12 16  2  0
 12 17  1  0
 13 18  1  0
 14 18  2  0
 13 19  1  0
 15 20  1  0
 19 20  1  0
 16 21  1  0
 17 22  2  0
 21 23  1  0
 21 24  2  0
 22 24  1  0
M  END
