mac-x0509-mac-x0348
     RDKit          3D

 27 30  0  0  0  0  0  0  0  0999 V2000
   -2.3140    8.0350   -5.7600 O   0  0  0  0  0  0  0  0  0  0  0  0
   -1.5410    8.7110   -6.4210 C   0  0  0  0  0  0  0  0  0  0  0  0
   -1.8970    9.7080   -7.5200 C   0  0  0  0  0  0  0  0  0  0  0  0
   -0.1520    8.7660   -6.3640 N   0  0  0  0  0  0  0  0  0  0  0  0
    0.4770    9.5980   -5.3240 C   0  0  0  0  0  0  0  0  0  0  0  0
   -0.7400    9.4680   -8.4370 C   0  0  0  0  0  0  0  0  0  0  0  0
    0.2890    8.8730   -7.7020 C   0  0  0  0  0  0  0  0  0  0  0  0
   -0.4130   10.5710   -4.5460 C   0  0  0  0  0  0  0  0  0  0  0  0
   -0.6100    9.7440   -9.7840 C   0  0  0  0  0  0  0  0  0  0  0  0
    1.4780    8.5150   -8.3170 C   0  0  0  0  0  0  0  0  0  0  0  0
    0.1400   10.8260   -3.2140 O   0  0  0  0  0  0  0  0  0  0  0  0
    0.5890    9.3990  -10.4080 C   0  0  0  0  0  0  0  0  0  0  0  0
    1.6230    8.7850   -9.6820 C   0  0  0  0  0  0  0  0  0  0  0  0
    0.5990   12.0800   -2.8680 C   0  0  0  0  0  0  0  0  0  0  0  0
    0.3090   13.1380   -3.8940 C   0  0  0  0  0  0  0  0  0  0  0  0
    1.1750   12.3150   -1.8240 O   0  0  0  0  0  0  0  0  0  0  0  0
    0.5320   14.5290   -3.2970 C   0  0  0  0  0  0  0  0  0  0  0  0
    0.0350   15.6100   -4.1940 C   0  0  0  0  0  0  0  0  0  0  0  0
    0.7520   16.6830   -4.6390 C   0  0  0  0  0  0  0  0  0  0  0  0
   -1.2590   15.7240   -4.7490 C   0  0  0  0  0  0  0  0  0  0  0  0
   -0.0370   17.4410   -5.4490 N   0  0  0  0  0  0  0  0  0  0  0  0
   -1.2890   16.8820   -5.5310 C   0  0  0  0  0  0  0  0  0  0  0  0
   -2.4050   14.9250   -4.6450 C   0  0  0  0  0  0  0  0  0  0  0  0
    0.4150   18.6440   -6.1040 C   0  0  0  0  0  0  0  0  0  0  0  0
   -3.5520   15.2940   -5.3180 C   0  0  0  0  0  0  0  0  0  0  0  0
   -2.4470   17.2670   -6.2140 C   0  0  0  0  0  0  0  0  0  0  0  0
   -3.5660   16.4350   -6.0800 C   0  0  0  0  0  0  0  0  0  0  0  0
  1  2  2  0
  2  3  1  0
  2  4  1  0
  4  5  1  0
  3  6  1  0
  4  7  1  0
  6  7  2  0
  5  8  1  0
  6  9  1  0
  7 10  1  0
  8 11  1  0
  9 12  2  0
 10 13  2  0
 12 13  1  0
 11 14  1  0
 14 15  1  0
 14 16  2  0
 15 17  1  0
 17 18  1  0
 18 19  2  0
 18 20  1  0
 19 21  1  0
 20 22  2  0
 21 22  1  0
 20 23  1  0
 21 24  1  0
 23 25  2  0
 22 26  1  0
 25 27  1  0
 26 27  2  0
M  END
