mac-x0354-mac-x0163
     RDKit          3D

 32 36  0  0  0  0  0  0  0  0999 V2000
    0.5300   11.1960   -8.2160 C   0  0  0  0  0  0  0  0  0  0  0  0
    0.8370   11.5750   -6.8500 N   0  0  0  0  0  0  0  0  0  0  0  0
    1.8060   12.4540   -6.5700 N   0  0  0  0  0  0  0  0  0  0  0  0
    0.2040   11.0940   -5.7430 C   0  0  0  0  0  0  0  0  0  0  0  0
    1.7960   12.5330   -5.2440 C   0  0  0  0  0  0  0  0  0  0  0  0
    0.8130   11.6960   -4.6330 C   0  0  0  0  0  0  0  0  0  0  0  0
   -0.8620   10.1330   -5.8850 C   0  0  0  0  0  0  0  0  0  0  0  0
    0.6010   11.5660   -3.1170 C   0  0  0  0  0  0  0  0  0  0  0  0
   -0.5860    8.8530   -6.3840 C   0  0  0  0  0  0  0  0  0  0  0  0
   -2.1630   10.4690   -5.5320 C   0  0  0  0  0  0  0  0  0  0  0  0
    1.7200   12.0880   -2.4410 O   0  0  0  0  0  0  0  0  0  0  0  0
    0.4460   10.2070   -2.7160 O   0  0  0  0  0  0  0  0  0  0  0  0
   -1.6110    7.9250   -6.5190 C   0  0  0  0  0  0  0  0  0  0  0  0
   -3.1870    9.5380   -5.6660 C   0  0  0  0  0  0  0  0  0  0  0  0
   -0.5680   12.3800   -2.6260 C   0  0  1  0  0  0  0  0  0  0  0  0
   -2.9090    8.2670   -6.1590 C   0  0  0  0  0  0  0  0  0  0  0  0
   -0.7310   13.7940   -3.2530 C   0  0  1  0  0  0  0  0  0  0  0  0
   -1.9650   12.0150   -3.1790 C   0  0  0  0  0  0  0  0  0  0  0  0
    0.4790   14.4500   -3.8840 C   0  0  0  0  0  0  0  0  0  0  0  0
   -1.7400   13.1000   -4.2420 C   0  0  0  0  0  0  0  0  0  0  0  0
   -1.4790   14.7660   -2.4930 N   0  0  0  0  0  0  0  0  0  0  0  0
   -1.5100   14.8090   -1.0650 C   0  0  0  0  0  0  0  0  0  0  0  0
   -1.4360   16.1160   -3.0870 C   0  0  0  0  0  0  0  0  0  0  0  0
   -0.0340   15.2640   -5.0350 C   0  0  0  0  0  0  0  0  0  0  0  0
   -2.7130   15.0890   -0.4320 C   0  0  0  0  0  0  0  0  0  0  0  0
   -0.3750   14.5670   -0.3650 N   0  0  0  0  0  0  0  0  0  0  0  0
   -1.2940   16.0260   -4.6150 C   0  0  0  0  0  0  0  0  0  0  0  0
   -4.1540   15.3950   -1.3310 Cl  0  0  0  0  0  0  0  0  0  0  0  0
   -2.7100   15.1090    0.9530 C   0  0  0  0  0  0  0  0  0  0  0  0
   -0.4870   14.6070    0.9760 C   0  0  0  0  0  0  0  0  0  0  0  0
   -3.8690   15.3930    1.6800 N   0  0  0  0  0  0  0  0  0  0  0  0
   -1.6030   14.8610    1.6720 N   0  0  0  0  0  0  0  0  0  0  0  0
  1  2  1  0
  2  3  1  0
  2  4  1  0
  3  5  2  0
  4  6  2  0
  5  6  1  0
  4  7  1  0
  6  8  1  0
  7  9  2  0
  7 10  1  0
  8 11  1  0
  8 12  1  0
  9 13  1  0
 10 14  2  0
 15  8  1  6
 13 16  2  0
 14 16  1  0
 15 17  1  0
 15 18  1  0
 17 19  1  6
 17 20  1  0
 18 20  1  0
 17 21  1  0
 21 22  1  0
 21 23  1  0
 19 24  1  0
 22 25  2  0
 22 26  1  0
 23 27  1  0
 24 27  1  0
 25 28  1  0
 25 29  1  0
 26 30  2  0
 29 31  1  0
 29 32  2  0
 30 32  1  0
M  END
