mac-x0321-diamond-x0864_0_A
     RDKit          3D

 23 24  0  0  0  0  0  0  0  0999 V2000
   -4.3720   15.4580    1.6650 Cl  0  0  0  0  0  0  0  0  0  0  0  0
   -4.3620   15.3200   -0.0380 C   0  0  0  0  0  0  0  0  0  0  0  0
   -3.1600   15.0790   -0.6690 C   0  0  0  0  0  0  0  0  0  0  0  0
   -5.5420   15.4490   -0.7630 C   0  0  0  0  0  0  0  0  0  0  0  0
   -3.1160   14.9690   -2.0590 C   0  0  0  0  0  0  0  0  0  0  0  0
   -5.5080   15.3370   -2.1480 C   0  0  0  0  0  0  0  0  0  0  0  0
   -1.7970   14.7210   -2.6910 C   0  0  0  0  0  0  0  0  0  0  0  0
   -4.2970   15.1000   -2.7960 C   0  0  0  0  0  0  0  0  0  0  0  0
   -0.8080   14.8660   -1.7670 O   0  0  0  0  0  0  0  0  0  0  0  0
   -1.6650   14.4480   -3.8700 O   0  0  0  0  0  0  0  0  0  0  0  0
    0.4840   14.3420   -2.0990 C   0  0  0  0  0  0  0  0  0  0  0  0
    0.5850   12.8920   -1.9690 N   0  0  0  0  0  0  0  0  0  0  0  0
    0.5860   12.1760   -3.0260 C   0  0  0  0  0  0  0  0  0  0  0  0
    0.5250   12.6570   -4.4750 C   0  0  0  0  0  0  0  0  0  0  0  0
    0.6410   10.8420   -2.8410 O   0  0  0  0  0  0  0  0  0  0  0  0
   -0.1850   11.7440   -5.3720 N   0  0  0  0  0  0  0  0  0  0  0  0
   -1.3500   11.1370   -4.9330 C   0  0  0  0  0  0  0  0  0  0  0  0
    0.4930   11.3060   -6.5040 C   0  0  0  0  0  0  0  0  0  0  0  0
    1.5420   11.7920   -6.8930 O   0  0  0  0  0  0  0  0  0  0  0  0
   -1.8810   10.1100   -5.5970 C   0  0  0  0  0  0  0  0  0  0  0  0
   -0.1130   10.1750   -7.2410 C   0  0  0  0  0  0  0  0  0  0  0  0
   -1.2450    9.6160   -6.7940 C   0  0  0  0  0  0  0  0  0  0  0  0
   -2.0480    8.1850   -7.6750 Br  0  0  0  0  0  0  0  0  0  0  0  0
  1  2  1  0
  2  3  2  0
  2  4  1  0
  3  5  1  0
  4  6  2  0
  5  7  1  0
  5  8  2  0
  6  8  1  0
  7  9  1  0
  7 10  2  0
  9 11  1  0
 11 12  1  0
 12 13  2  3
 13 14  1  0
 13 15  1  0
 14 16  1  0
 16 17  1  0
 16 18  1  0
 18 19  2  0
 17 20  2  0
 18 21  1  0
 20 22  1  0
 21 22  2  0
 22 23  1  0
M  END
