mac-x0348-diamond-x0689_0_A
     RDKit          3D

 24 26  0  0  0  0  0  0  0  0999 V2000
   -0.0800   19.0160   -6.4170 C   0  0  0  0  0  0  0  0  0  0  0  0
   -0.2550   17.7210   -5.8320 N   0  0  0  0  0  0  0  0  0  0  0  0
    0.7420   17.0330   -5.2550 C   0  0  0  0  0  0  0  0  0  0  0  0
   -1.4060   17.0020   -5.7800 C   0  0  0  0  0  0  0  0  0  0  0  0
    0.2680   15.8320   -4.8190 C   0  0  0  0  0  0  0  0  0  0  0  0
   -1.1160   15.7960   -5.1380 C   0  0  0  0  0  0  0  0  0  0  0  0
   -2.6740   17.2950   -6.2510 C   0  0  0  0  0  0  0  0  0  0  0  0
    1.0980   14.7980   -4.1590 C   0  0  0  0  0  0  0  0  0  0  0  0
   -2.1450   14.8560   -4.9540 C   0  0  0  0  0  0  0  0  0  0  0  0
   -3.6670   16.3300   -6.0600 C   0  0  0  0  0  0  0  0  0  0  0  0
    0.6730   13.3550   -4.4540 C   0  0  0  0  0  0  0  0  0  0  0  0
   -3.4170   15.1410   -5.4240 C   0  0  0  0  0  0  0  0  0  0  0  0
    0.6270   12.8190   -3.0940 C   0  0  0  0  0  0  0  0  0  0  0  0
    0.7430   13.7620   -2.2660 N   0  0  0  0  0  0  0  0  0  0  0  0
    0.4920   11.4950   -2.8570 O   0  0  0  0  0  0  0  0  0  0  0  0
    0.7570   13.5230   -0.8970 C   0  0  0  0  0  0  0  0  0  0  0  0
   -0.4270   13.9980   -0.1760 C   0  0  0  0  0  0  0  0  0  0  0  0
   -1.5570   14.3920   -0.8330 C   0  0  0  0  0  0  0  0  0  0  0  0
   -0.4810   14.0670    1.1900 C   0  0  0  0  0  0  0  0  0  0  0  0
   -2.6600   14.8090   -0.2020 N   0  0  0  0  0  0  0  0  0  0  0  0
   -1.5580   14.4750    1.8630 N   0  0  0  0  0  0  0  0  0  0  0  0
   -2.6130   14.8270    1.1330 C   0  0  0  0  0  0  0  0  0  0  0  0
   -3.7120   15.2250    1.8620 N   0  0  0  0  0  0  0  0  0  0  0  0
   -4.9280   15.1360    1.1050 C   0  0  0  0  0  0  0  0  0  0  0  0
  1  2  1  0
  2  3  1  0
  2  4  1  0
  3  5  2  0
  4  6  2  0
  5  6  1  0
  4  7  1  0
  5  8  1  0
  6  9  1  0
  7 10  2  0
  8 11  1  0
  9 12  2  0
 10 12  1  0
 11 13  1  0
 13 14  2  3
 13 15  1  0
 14 16  1  0
 16 17  1  0
 17 18  2  0
 17 19  1  0
 18 20  1  0
 19 21  2  0
 20 22  2  0
 21 22  1  0
 22 23  1  0
 23 24  1  0
M  END
