mac-x0496-mac-x0565
     RDKit          3D

 29 32  0  0  0  0  0  0  0  0999 V2000
   -9.5090   17.4730    4.6510 C   0  0  0  0  0  0  0  0  0  0  0  0
   -9.6840   16.5730    3.4320 C   0  0  0  0  0  0  0  0  0  0  0  0
  -10.7680   16.4300    2.6480 N   0  0  0  0  0  0  0  0  0  0  0  0
   -8.7800   15.7530    2.9090 N   0  0  0  0  0  0  0  0  0  0  0  0
  -10.4990   15.5770    1.7110 O   0  0  0  0  0  0  0  0  0  0  0  0
   -9.3020   15.1470    1.8380 C   0  0  0  0  0  0  0  0  0  0  0  0
   -8.4840   14.1570    1.0310 C   0  0  0  0  0  0  0  0  0  0  0  0
   -7.2120   14.7380    0.6340 N   0  0  0  0  0  0  0  0  0  0  0  0
   -6.3930   14.3740   -0.4740 S   0  0  0  0  0  0  0  0  0  0  0  0
   -6.9680   13.0130   -0.7180 O   0  0  0  0  0  0  0  0  0  0  0  0
   -6.8910   15.9410   -0.9610 O   0  0  0  0  0  0  0  0  0  0  0  0
   -4.8210   14.5980    0.2200 C   0  0  0  0  0  0  0  0  0  0  0  0
   -5.6620   14.3950   -1.9870 C   0  0  0  0  0  0  0  0  0  0  0  0
   -4.5880   14.8240    1.5570 C   0  0  0  0  0  0  0  0  0  0  0  0
   -3.7300   14.5530   -0.5960 C   0  0  0  0  0  0  0  0  0  0  0  0
   -4.3210   14.2380   -2.0830 C   0  0  0  0  0  0  0  0  0  0  0  0
   -6.2740   14.5660   -3.2520 C   0  0  0  0  0  0  0  0  0  0  0  0
   -3.3320   14.9900    2.0320 C   0  0  0  0  0  0  0  0  0  0  0  0
   -2.4550   14.7190   -0.1270 C   0  0  0  0  0  0  0  0  0  0  0  0
   -3.6230   14.2490   -3.2450 C   0  0  0  0  0  0  0  0  0  0  0  0
   -5.6030   14.5810   -4.4540 C   0  0  0  0  0  0  0  0  0  0  0  0
   -1.2930   14.6680   -1.0110 C   0  0  0  0  0  0  0  0  0  0  0  0
   -2.2370   14.9430    1.2220 C   0  0  0  0  0  0  0  0  0  0  0  0
   -4.2580   14.4230   -4.4240 C   0  0  0  0  0  0  0  0  0  0  0  0
   -2.2400   14.1010   -3.5390 O   0  0  0  0  0  0  0  0  0  0  0  0
   -0.1960   14.2110   -0.6100 O   0  0  0  0  0  0  0  0  0  0  0  0
   -1.3140   15.1030   -2.3050 O   0  0  0  0  0  0  0  0  0  0  0  0
   -3.2470   14.3920   -5.4160 O   0  0  0  0  0  0  0  0  0  0  0  0
   -2.0160   14.8040   -4.7730 C   0  0  0  0  0  0  0  0  0  0  0  0
  1  2  1  0
  2  3  2  0
  2  4  1  0
  3  5  1  0
  4  6  2  0
  5  6  1  0
  6  7  1  0
  7  8  1  0
  8  9  1  0
  9 10  2  0
  9 11  1  0
  9 12  1  0
  9 13  1  0
 12 14  2  0
 12 15  1  0
 13 16  2  0
 13 17  1  0
 14 18  1  0
 15 19  2  0
 16 20  1  0
 17 21  2  0
 19 22  1  0
 18 23  2  0
 19 23  1  0
 20 24  2  0
 21 24  1  0
 20 25  1  0
 22 26  2  0
 22 27  1  0
 24 28  1  0
 25 29  1  0
 28 29  1  0
M  END
