mac-x0277-mac-x0576
     RDKit          3D

 27 29  0  0  0  0  0  0  0  0999 V2000
   -1.2130   18.4470   -5.1740 Cl  0  0  0  0  0  0  0  0  0  0  0  0
   -0.5020   16.8880   -4.9550 C   0  0  0  0  0  0  0  0  0  0  0  0
   -1.2590   15.7260   -5.0860 C   0  0  0  0  0  0  0  0  0  0  0  0
    0.8510   16.8120   -4.6430 C   0  0  0  0  0  0  0  0  0  0  0  0
   -2.7270   15.7670   -5.4100 C   0  0  0  0  0  0  0  0  0  0  0  0
   -0.6330   14.4770   -4.9090 C   0  0  0  0  0  0  0  0  0  0  0  0
    1.4620   15.5660   -4.4650 C   0  0  0  0  0  0  0  0  0  0  0  0
   -3.5040   15.4230   -4.1530 C   0  0  0  0  0  0  0  0  0  0  0  0
    0.7290   14.3870   -4.6000 C   0  0  0  0  0  0  0  0  0  0  0  0
    1.3900   13.0350   -4.4150 C   0  0  0  0  0  0  0  0  0  0  0  0
   -3.0020   14.1250   -3.5730 C   0  0  0  0  0  0  0  0  0  0  0  0
    1.0820   12.3710   -3.0940 C   0  0  0  0  0  0  0  0  0  0  0  0
   -1.8400   14.3060   -2.6980 N   0  0  0  0  0  0  0  0  0  0  0  0
    0.3840   11.2250   -3.2520 O   0  0  0  0  0  0  0  0  0  0  0  0
    1.3900   12.7440   -1.9790 O   0  0  0  0  0  0  0  0  0  0  0  0
   -1.9620   14.7530   -1.4960 C   0  0  0  0  0  0  0  0  0  0  0  0
   -0.8510   14.8470   -0.7220 N   0  0  0  0  0  0  0  0  0  0  0  0
   -3.2650   15.1810   -0.8300 C   0  0  2  0  0  0  0  0  0  0  0  0
   -0.8550   14.3080    0.5760 C   0  0  1  0  0  0  0  0  0  0  0  0
   -3.1490   15.1650    0.7250 C   0  0  2  0  0  0  0  0  0  0  0  0
   -4.4360   14.4750   -1.3520 N   0  0  0  0  0  0  0  0  0  0  0  0
    0.1080   14.8050    1.4790 N   0  0  0  0  0  0  0  0  0  0  0  0
   -2.0820   14.3750    1.3580 N   0  0  0  0  0  0  0  0  0  0  0  0
   -4.3870   14.8360    1.3720 N   0  0  0  0  0  0  0  0  0  0  0  0
   -5.6160   15.0980   -0.7510 C   0  0  0  0  0  0  0  0  0  0  0  0
   -5.6080   14.8970    0.7590 C   0  0  0  0  0  0  0  0  0  0  0  0
   -6.6410   14.7930    1.4070 O   0  0  0  0  0  0  0  0  0  0  0  0
  1  2  1  0
  2  3  2  0
  2  4  1  0
  3  5  1  0
  3  6  1  0
  4  7  2  0
  5  8  1  0
  6  9  2  0
  7  9  1  0
  9 10  1  0
  8 11  1  0
 10 12  1  0
 11 13  1  0
 12 14  1  0
 12 15  2  0
 13 16  2  3
 16 17  1  0
 16 18  1  0
 17 19  1  0
 18 20  1  0
 18 21  1  1
 19 22  1  1
 19 23  1  0
 20 23  1  6
 20 24  1  0
 21 25  1  0
 24 26  1  0
 25 26  1  0
 26 27  2  0
M  END
