mac-x0161-mac-x0338
     RDKit          3D

 20 22  0  0  0  0  0  0  0  0999 V2000
   -4.7360   15.0830    1.0970 C   0  0  0  0  0  0  0  0  0  0  0  0
   -4.1790   15.6060    2.2050 N   0  0  0  0  0  0  0  0  0  0  0  0
   -5.9600   15.0020    1.0030 O   0  0  0  0  0  0  0  0  0  0  0  0
   -3.7390   14.6090    0.0330 C   0  0  1  0  0  0  0  0  0  0  0  0
   -4.0520   15.2920   -1.2370 N   0  0  0  0  0  0  0  0  0  0  0  0
   -2.3130   14.9440    0.4520 C   0  0  2  0  0  0  0  0  0  0  0  0
   -3.1740   14.9360   -2.3300 C   0  0  0  0  0  0  0  0  0  0  0  0
   -1.4170   14.5270   -0.7200 C   0  0  1  0  0  0  0  0  0  0  0  0
   -1.6180   14.2960    1.5760 N   0  0  0  0  0  0  0  0  0  0  0  0
   -1.7470   15.0690   -2.0220 N   0  0  0  0  0  0  0  0  0  0  0  0
   -0.1360   14.8780   -0.1820 N   0  0  0  0  0  0  0  0  0  0  0  0
   -0.2020   14.3130    1.1510 C   0  0  0  0  0  0  0  0  0  0  0  0
   -0.8300   14.8860   -3.1550 C   0  0  0  0  0  0  0  0  0  0  0  0
   -0.6660   13.4620   -3.5370 C   0  0  0  0  0  0  0  0  0  0  0  0
   -1.0420   12.7000   -4.6130 C   0  0  0  0  0  0  0  0  0  0  0  0
    0.0080   12.6780   -2.6470 O   0  0  0  0  0  0  0  0  0  0  0  0
    0.0750   11.3810   -3.1290 N   0  0  0  0  0  0  0  0  0  0  0  0
   -0.5560   11.4240   -4.3050 C   0  0  0  0  0  0  0  0  0  0  0  0
   -0.6890   10.3210   -5.0770 O   0  0  0  0  0  0  0  0  0  0  0  0
   -1.7700   10.3790   -6.0030 C   0  0  0  0  0  0  0  0  0  0  0  0
  1  2  1  0
  1  3  2  0
  4  1  1  1
  4  5  1  0
  4  6  1  0
  5  7  1  0
  6  8  1  0
  6  9  1  1
  7 10  1  0
  8 10  1  0
  8 11  1  1
  9 12  1  0
 11 12  1  0
 10 13  1  0
 13 14  1  0
 14 15  2  0
 14 16  1  0
 16 17  1  0
 15 18  1  0
 17 18  2  0
 18 19  1  0
 19 20  1  0
M  END
