mac-x0139-mac-x0572
     RDKit          3D

 24 26  0  0  0  0  0  0  0  0999 V2000
   -2.3740   15.5110   -3.0320 C   0  0  0  0  0  0  0  0  0  0  0  0
   -1.1350   15.6560   -2.2660 N   0  0  0  0  0  0  0  0  0  0  0  0
    0.0930   15.1650   -2.9410 C   0  0  0  0  0  0  0  0  0  0  0  0
   -1.3280   15.3210   -0.9300 C   0  0  0  0  0  0  0  0  0  0  0  0
   -0.0340   13.7700   -3.5990 C   0  0  0  0  0  0  0  0  0  0  0  0
   -2.5080   15.0780   -0.2390 C   0  0  0  0  0  0  0  0  0  0  0  0
   -0.1730   15.2280   -0.2650 N   0  0  0  0  0  0  0  0  0  0  0  0
    0.7740   12.6980   -2.9070 C   0  0  0  0  0  0  0  0  0  0  0  0
   -2.3860   14.6930    1.0850 C   0  0  0  0  0  0  0  0  0  0  0  0
   -0.2100   14.8930    1.0250 C   0  0  0  0  0  0  0  0  0  0  0  0
   -3.9650   15.1170   -0.5680 C   0  0  0  0  0  0  0  0  0  0  0  0
    1.7120   12.8660   -2.1570 O   0  0  0  0  0  0  0  0  0  0  0  0
    0.3550   11.4460   -3.2040 O   0  0  0  0  0  0  0  0  0  0  0  0
   -1.2720   14.6030    1.7480 N   0  0  0  0  0  0  0  0  0  0  0  0
   -3.5920   14.3610    1.7030 N   0  0  0  0  0  0  0  0  0  0  0  0
   -4.6610   14.5540    0.7530 C   0  0  2  0  0  0  0  0  0  0  0  0
   -5.4710   13.3360    0.2850 C   0  0  0  0  0  0  0  0  0  0  0  0
   -5.6410   15.2950    1.5040 N   0  0  0  0  0  0  0  0  0  0  0  0
   -6.8750   14.5810    1.9290 C   0  0  1  0  0  0  0  0  0  0  0  0
   -6.7640   13.8970   -0.3220 C   0  0  0  0  0  0  0  0  0  0  0  0
   -7.6200   15.0580    3.1830 C   0  0  0  0  0  0  0  0  0  0  0  0
   -6.9990   13.8970   -1.5340 O   0  0  0  0  0  0  0  0  0  0  0  0
   -7.7430   14.4810    0.6800 C   0  0  1  0  0  0  0  0  0  0  0  0
   -8.8850   13.6550    0.8880 O   0  0  0  0  0  0  0  0  0  0  0  0
  1  2  1  0
  2  3  1  0
  2  4  1  0
  3  5  1  0
  4  6  2  0
  4  7  1  0
  5  8  1  0
  6  9  1  0
  7 10  2  0
  6 11  1  0
  8 12  2  0
  8 13  1  0
  9 14  2  0
 10 14  1  0
  9 15  1  0
 16 11  1  6
 16 15  1  0
 16 17  1  0
 16 18  1  0
 18 19  1  0
 17 20  1  0
 19 21  1  1
 20 22  2  0
 19 23  1  0
 20 23  1  0
 23 24  1  1
M  END
