mac-x0565-mac-x0178
     RDKit          3D

 19 20  0  0  0  0  0  0  0  0999 V2000
   -5.1940   14.8580    0.8280 O   0  0  0  0  0  0  0  0  0  0  0  0
   -5.6900   14.6010   -0.3930 C   0  0  0  0  0  0  0  0  0  0  0  0
   -6.8670   14.3100   -0.5460 O   0  0  0  0  0  0  0  0  0  0  0  0
   -4.6710   14.7520   -1.4780 C   0  0  0  0  0  0  0  0  0  0  0  0
   -3.2790   14.5340   -1.2350 C   0  0  0  0  0  0  0  0  0  0  0  0
   -5.0920   15.1160   -2.7570 C   0  0  0  0  0  0  0  0  0  0  0  0
   -2.3740   14.7300   -2.3060 C   0  0  0  0  0  0  0  0  0  0  0  0
   -4.1730   15.3070   -3.7880 C   0  0  0  0  0  0  0  0  0  0  0  0
   -2.8510   15.1460   -3.5530 C   0  0  0  0  0  0  0  0  0  0  0  0
   -0.9470   14.5880   -2.4220 N   0  0  0  0  0  0  0  0  0  0  0  0
   -0.1790   13.4840   -2.0770 C   0  0  0  0  0  0  0  0  0  0  0  0
   -1.8070   15.3920   -4.4980 N   0  0  0  0  0  0  0  0  0  0  0  0
   -0.5800   15.2780   -3.6690 C   0  0  0  0  0  0  0  0  0  0  0  0
   -1.8930   16.8500   -5.3980 S   0  0  0  0  0  0  0  0  0  0  0  0
    0.8350   13.4510   -1.4020 O   0  0  0  0  0  0  0  0  0  0  0  0
   -0.6030   12.3040   -2.5890 O   0  0  0  0  0  0  0  0  0  0  0  0
   -0.3240   17.1570   -5.8870 N   0  0  0  0  0  0  0  0  0  0  0  0
   -2.6580   16.6920   -6.6130 O   0  0  0  0  0  0  0  0  0  0  0  0
   -2.1760   17.9940   -4.5780 O   0  0  0  0  0  0  0  0  0  0  0  0
  1  2  1  0
  2  3  2  0
  2  4  1  0
  4  5  2  0
  4  6  1  0
  5  7  1  0
  6  8  2  0
  7  9  2  0
  8  9  1  0
  7 10  1  0
 10 11  1  0
  9 12  1  0
 10 13  1  0
 12 13  1  0
 12 14  1  0
 11 15  2  0
 11 16  1  0
 14 17  1  0
 14 18  2  0
 14 19  2  0
M  END
