mac-x0398-mac-x0161
     RDKit          3D

 28 31  0  0  0  0  0  0  0  0999 V2000
   -6.6290   14.8590    1.9710 N   0  0  0  0  0  0  0  0  0  0  0  0
   -6.1500   14.7940    0.6280 C   0  0  0  0  0  0  0  0  0  0  0  0
   -4.7860   14.8330    0.3780 C   0  0  0  0  0  0  0  0  0  0  0  0
   -6.9930   14.7040   -0.4910 C   0  0  0  0  0  0  0  0  0  0  0  0
   -6.4400   14.6420   -1.7950 C   0  0  0  0  0  0  0  0  0  0  0  0
   -4.2830   14.7450   -0.8750 C   0  0  0  0  0  0  0  0  0  0  0  0
   -3.8680   14.9900    1.2790 N   0  0  0  0  0  0  0  0  0  0  0  0
   -7.2550   14.5720   -2.8820 O   0  0  0  0  0  0  0  0  0  0  0  0
   -5.0670   14.6460   -1.9750 C   0  0  0  0  0  0  0  0  0  0  0  0
   -2.9470   15.7890    0.5210 C   0  0  2  0  0  0  0  0  0  0  0  0
   -4.3200   14.5530   -3.2580 C   0  0  0  0  0  0  0  0  0  0  0  0
   -3.3070   16.1330   -0.8700 N   0  0  0  0  0  0  0  0  0  0  0  0
   -1.5460   15.3180    0.6920 C   0  0  2  0  0  0  0  0  0  0  0  0
   -4.4330   15.2610   -4.2380 O   0  0  0  0  0  0  0  0  0  0  0  0
   -2.5210   15.6450   -2.0110 C   0  0  0  0  0  0  0  0  0  0  0  0
   -1.0880   14.5440   -0.5210 C   0  0  1  0  0  0  0  0  0  0  0  0
   -1.3160   14.3700    1.7160 N   0  0  0  0  0  0  0  0  0  0  0  0
   -1.1480   15.3540   -1.6980 N   0  0  0  0  0  0  0  0  0  0  0  0
    0.2370   14.2170   -0.0630 N   0  0  0  0  0  0  0  0  0  0  0  0
    0.0360   14.1100    1.4010 C   0  0  0  0  0  0  0  0  0  0  0  0
   -0.3230   14.9530   -2.8570 C   0  0  0  0  0  0  0  0  0  0  0  0
   -0.3810   13.5280   -3.3210 C   0  0  0  0  0  0  0  0  0  0  0  0
   -0.9030   12.8790   -4.4270 C   0  0  0  0  0  0  0  0  0  0  0  0
    0.2090   12.6030   -2.5150 O   0  0  0  0  0  0  0  0  0  0  0  0
    0.0860   11.3450   -3.0710 N   0  0  0  0  0  0  0  0  0  0  0  0
   -0.5770   11.5250   -4.2100 C   0  0  0  0  0  0  0  0  0  0  0  0
   -0.8660   10.4790   -5.0190 O   0  0  0  0  0  0  0  0  0  0  0  0
   -1.8820   10.7110   -5.9880 C   0  0  0  0  0  0  0  0  0  0  0  0
  1  2  1  0
  2  3  2  0
  2  4  1  0
  4  5  2  0
  3  6  1  0
  3  7  1  0
  5  8  1  0
  5  9  1  0
  6  9  2  0
 10  7  1  6
  9 11  1  0
 10 12  1  0
 10 13  1  0
 11 14  2  0
 12 15  1  0
 13 16  1  0
 13 17  1  1
 15 18  1  0
 16 18  1  0
 16 19  1  1
 17 20  1  0
 19 20  1  0
 18 21  1  0
 21 22  1  0
 22 23  2  0
 22 24  1  0
 24 25  1  0
 23 26  1  0
 25 26  2  0
 26 27  1  0
 27 28  1  0
M  END
