mac-x0346-mac-x0385
     RDKit          3D

 12 12  0  0  0  0  0  0  0  0999 V2000
   -7.4740   13.9830    1.1980 O   0  0  0  0  0  0  0  0  0  0  0  0
   -7.5600   14.9710    0.1940 N   0  0  0  0  0  0  0  0  0  0  0  0
   -6.5510   15.0380   -0.7470 C   0  0  0  0  0  0  0  0  0  0  0  0
   -6.8370   15.0970   -1.9390 O   0  0  0  0  0  0  0  0  0  0  0  0
   -5.1040   15.0210   -0.3190 C   0  0  0  0  0  0  0  0  0  0  0  0
   -4.0630   14.9900   -1.2550 C   0  0  0  0  0  0  0  0  0  0  0  0
   -4.7520   15.0270    1.0440 C   0  0  0  0  0  0  0  0  0  0  0  0
   -4.3380   14.9900   -2.5980 O   0  0  0  0  0  0  0  0  0  0  0  0
   -2.7200   14.9520   -0.8510 C   0  0  0  0  0  0  0  0  0  0  0  0
   -3.4030   14.9930    1.4470 C   0  0  0  0  0  0  0  0  0  0  0  0
   -2.3680   14.9500    0.5050 C   0  0  0  0  0  0  0  0  0  0  0  0
   -0.8970   14.9010    0.9150 C   0  0  0  0  0  0  0  0  0  0  0  0
  1  2  1  0
  2  3  1  0
  3  4  2  0
  3  5  1  0
  5  6  2  0
  5  7  1  0
  6  8  1  0
  6  9  1  0
  7 10  2  0
  9 11  2  0
 10 11  1  0
 11 12  1  0
M  END
