mac-x0303-mac-x0360
     RDKit          3D

 24 26  0  0  0  0  0  0  0  0999 V2000
   -7.6430   12.4980    1.8230 N   0  0  0  0  0  0  0  0  0  0  0  0
   -8.2790   14.0600    1.5280 S   0  0  0  0  0  0  0  0  0  0  0  0
   -8.0670   14.9580    2.6450 O   0  0  0  0  0  0  0  0  0  0  0  0
   -6.5280   12.3360    0.9060 C   0  0  0  0  0  0  0  0  0  0  0  0
   -9.5670   13.9220    0.8750 O   0  0  0  0  0  0  0  0  0  0  0  0
   -7.1400   14.4840    0.2510 C   0  0  0  0  0  0  0  0  0  0  0  0
   -6.5070   11.3860   -0.1240 C   0  0  0  0  0  0  0  0  0  0  0  0
   -5.4510   13.1960    1.0700 C   0  0  0  0  0  0  0  0  0  0  0  0
   -7.3860   14.1060   -1.0410 N   0  0  0  0  0  0  0  0  0  0  0  0
   -5.9860   15.1240    0.3530 N   0  0  0  0  0  0  0  0  0  0  0  0
   -4.3410   13.1430    0.2230 C   0  0  0  0  0  0  0  0  0  0  0  0
   -5.3920   11.3270   -0.9820 C   0  0  0  0  0  0  0  0  0  0  0  0
   -5.3670   10.1640   -2.2600 Cl  0  0  0  0  0  0  0  0  0  0  0  0
   -3.0200   14.3210    0.5180 S   0  0  0  0  0  0  0  0  0  0  0  0
   -6.3230   14.4930   -1.8030 C   0  0  0  0  0  0  0  0  0  0  0  0
   -5.4670   15.1230   -0.9150 C   0  0  0  0  0  0  0  0  0  0  0  0
   -4.3050   12.2010   -0.8170 C   0  0  0  0  0  0  0  0  0  0  0  0
   -2.1640   14.2930   -0.9370 N   0  0  0  0  0  0  0  0  0  0  0  0
   -3.6190   15.6250    0.6790 O   0  0  0  0  0  0  0  0  0  0  0  0
   -2.0940   13.8300    1.5010 O   0  0  0  0  0  0  0  0  0  0  0  0
   -6.0390   14.3440   -3.1570 C   0  0  0  0  0  0  0  0  0  0  0  0
   -4.2600   15.6350   -1.3870 C   0  0  0  0  0  0  0  0  0  0  0  0
   -4.8200   14.8540   -3.6020 C   0  0  0  0  0  0  0  0  0  0  0  0
   -3.9400   15.4910   -2.7350 C   0  0  0  0  0  0  0  0  0  0  0  0
  2  1  1  0
  2  3  2  0
  1  4  1  0
  2  5  2  0
  2  6  1  0
  4  7  2  0
  4  8  1  0
  6  9  1  0
  6 10  2  0
  8 11  2  0
  7 12  1  0
 12 13  1  0
 11 14  1  0
  9 15  1  0
 10 16  1  0
 15 16  2  0
 11 17  1  0
 12 17  2  0
 14 18  1  0
 14 19  2  0
 14 20  2  0
 15 21  1  0
 16 22  1  0
 21 23  2  0
 22 24  2  0
 23 24  1  0
M  END
