mac-x0415-diamond-x1015_0_A
     RDKit          3D

 27 30  0  0  0  0  0  0  0  0999 V2000
    2.3380   12.7230   -3.2880 C   0  0  0  0  0  0  0  0  0  0  0  0
    1.8640   12.6960   -2.1030 N   0  0  0  0  0  0  0  0  0  0  0  0
    0.5330   12.7910   -1.9820 N   0  0  0  0  0  0  0  0  0  0  0  0
    1.4230   12.8540   -4.4710 C   0  0  0  0  0  0  0  0  0  0  0  0
    1.0400   14.2760   -4.6190 C   0  0  0  0  0  0  0  0  0  0  0  0
    1.8620   15.3870   -4.1640 C   0  0  0  0  0  0  0  0  0  0  0  0
   -0.0310   14.9530   -5.0600 C   0  0  0  0  0  0  0  0  0  0  0  0
   -0.1920   11.6680   -2.5100 C   0  0  0  0  0  0  0  0  0  0  0  0
   -0.1080   13.9700   -2.3140 C   0  0  0  0  0  0  0  0  0  0  0  0
    1.4300   16.5980   -4.3180 N   0  0  0  0  0  0  0  0  0  0  0  0
    0.2300   16.4220   -5.0720 C   0  0  2  0  0  0  0  0  0  0  0  0
   -1.3180   14.5130   -5.5400 C   0  0  0  0  0  0  0  0  0  0  0  0
   -0.0720   15.0420   -1.7280 O   0  0  0  0  0  0  0  0  0  0  0  0
   -0.8760   13.6690   -3.5960 C   0  0  1  0  0  0  0  0  0  0  0  0
   -0.7430   12.2070   -3.7390 N   0  0  0  0  0  0  0  0  0  0  0  0
   -0.9190   17.2610   -4.7480 C   0  0  0  0  0  0  0  0  0  0  0  0
   -2.3380   15.4110   -5.4840 C   0  0  0  0  0  0  0  0  0  0  0  0
   -2.3160   14.0860   -3.3850 C   0  0  0  0  0  0  0  0  0  0  0  0
   -0.8940   11.4480   -4.8920 C   0  0  0  0  0  0  0  0  0  0  0  0
   -4.0630   15.0110   -6.0670 Br  0  0  0  0  0  0  0  0  0  0  0  0
   -2.1280   16.7560   -4.9580 C   0  0  0  0  0  0  0  0  0  0  0  0
   -0.2510   11.7410   -6.1230 C   0  0  0  0  0  0  0  0  0  0  0  0
   -1.7180   10.3190   -4.8880 C   0  0  0  0  0  0  0  0  0  0  0  0
   -0.4350   10.9470   -7.2640 C   0  0  0  0  0  0  0  0  0  0  0  0
   -1.9090    9.5210   -6.0160 C   0  0  0  0  0  0  0  0  0  0  0  0
   -1.2670    9.8390   -7.2010 C   0  0  0  0  0  0  0  0  0  0  0  0
   -1.5160    8.8530   -8.5880 Cl  0  0  0  0  0  0  0  0  0  0  0  0
  1  2  2  3
  2  3  1  0
  1  4  1  0
  4  5  1  0
  5  6  1  0
  5  7  2  0
  3  8  1  0
  3  9  1  0
  6 10  2  0
  7 11  1  0
 10 11  1  0
  7 12  1  0
  9 13  2  0
  9 14  1  0
  8 15  1  0
 14 15  1  0
 11 16  1  1
 12 17  2  0
 14 18  1  1
 15 19  1  0
 17 20  1  0
 16 21  2  0
 17 21  1  0
 19 22  2  0
 19 23  1  0
 22 24  1  0
 23 25  2  0
 24 26  2  0
 25 26  1  0
 26 27  1  0
M  END
