mac-x0161-mac-x0344
     RDKit          3D

 29 32  0  0  0  0  0  0  0  0999 V2000
   -4.5820   15.4690    1.5040 N   0  0  0  0  0  0  0  0  0  0  0  0
   -3.7630   14.9330    0.4450 C   0  0  2  0  0  0  0  0  0  0  0  0
   -2.2840   15.3360    0.5610 C   0  0  2  0  0  0  0  0  0  0  0  0
   -4.4140   15.4090   -0.7670 N   0  0  0  0  0  0  0  0  0  0  0  0
   -3.6480   15.3030   -1.9890 C   0  0  0  0  0  0  0  0  0  0  0  0
   -1.6530   14.9700   -0.7660 C   0  0  1  0  0  0  0  0  0  0  0  0
   -1.3800   14.6920    1.5150 N   0  0  0  0  0  0  0  0  0  0  0  0
   -2.2740   15.7000   -1.8400 N   0  0  0  0  0  0  0  0  0  0  0  0
   -0.2860   15.3340   -0.4970 N   0  0  0  0  0  0  0  0  0  0  0  0
   -0.0870   14.7250    0.8180 C   0  0  0  0  0  0  0  0  0  0  0  0
   -1.5610   15.7170   -3.1010 C   0  0  0  0  0  0  0  0  0  0  0  0
   -1.2550   14.3760   -3.6030 C   0  0  0  0  0  0  0  0  0  0  0  0
   -0.9470   13.8730   -4.8290 C   0  0  0  0  0  0  0  0  0  0  0  0
   -1.2530   13.3880   -2.6750 O   0  0  0  0  0  0  0  0  0  0  0  0
   -0.9240   12.2210   -3.2720 N   0  0  0  0  0  0  0  0  0  0  0  0
   -0.7290   12.5300   -4.5540 C   0  0  0  0  0  0  0  0  0  0  0  0
   -0.2710   11.4330   -5.3730 C   0  0  1  0  0  0  0  0  0  0  0  0
    0.6400   11.8550   -6.5210 C   0  0  0  0  0  0  0  0  0  0  0  0
    0.4940   11.1590   -4.1190 C   0  0  0  0  0  0  0  0  0  0  0  0
   -1.2800   10.4450   -5.9180 C   0  0  0  0  0  0  0  0  0  0  0  0
    1.4830   12.2680   -3.6880 C   0  0  0  0  0  0  0  0  0  0  0  0
    0.3500   10.1970   -3.3790 O   0  0  0  0  0  0  0  0  0  0  0  0
   -0.9070    9.8150   -7.1270 C   0  0  0  0  0  0  0  0  0  0  0  0
   -2.5040   10.1160   -5.3460 C   0  0  0  0  0  0  0  0  0  0  0  0
    2.0720   12.8840   -4.7140 O   0  0  0  0  0  0  0  0  0  0  0  0
    1.7040   12.5660   -2.5330 O   0  0  0  0  0  0  0  0  0  0  0  0
   -1.7280    8.8880   -7.7460 C   0  0  0  0  0  0  0  0  0  0  0  0
   -3.3310    9.1790   -5.9710 C   0  0  0  0  0  0  0  0  0  0  0  0
   -2.9430    8.5690   -7.1650 C   0  0  0  0  0  0  0  0  0  0  0  0
  2  1  1  1
  2  3  1  0
  2  4  1  0
  4  5  1  0
  3  6  1  0
  3  7  1  1
  5  8  1  0
  6  8  1  0
  6  9  1  1
  7 10  1  0
  9 10  1  0
  8 11  1  0
 11 12  1  0
 12 13  2  0
 12 14  1  0
 14 15  1  0
 13 16  1  0
 15 16  2  0
 16 17  1  0
 17 18  1  6
 17 19  1  0
 17 20  1  0
 19 21  1  0
 19 22  2  0
 20 23  2  0
 20 24  1  0
 21 25  1  0
 21 26  2  0
 23 27  1  0
 24 28  2  0
 27 29  2  0
 28 29  1  0
M  END
