mac-x0392-diamond-x0950_0_A
     RDKit          3D

 17 17  0  0  0  0  0  0  0  0999 V2000
    0.1980   14.5800    0.3780 N   0  0  0  0  0  0  0  0  0  0  0  0
   -1.1550   14.7380    0.0750 C   0  0  0  0  0  0  0  0  0  0  0  0
   -2.0600   14.8360    1.1170 C   0  0  0  0  0  0  0  0  0  0  0  0
   -1.7070   14.8040   -1.2270 C   0  0  0  0  0  0  0  0  0  0  0  0
   -0.9720   14.7140   -2.5290 C   0  0  0  0  0  0  0  0  0  0  0  0
   -3.0990   14.9710   -1.3700 C   0  0  0  0  0  0  0  0  0  0  0  0
   -3.3920   14.9950    1.0010 N   0  0  0  0  0  0  0  0  0  0  0  0
   -1.5800   14.6390   -3.5860 O   0  0  0  0  0  0  0  0  0  0  0  0
    0.3910   14.7330   -2.4350 O   0  0  0  0  0  0  0  0  0  0  0  0
   -3.8850   15.0610   -0.2410 C   0  0  0  0  0  0  0  0  0  0  0  0
    1.0090   13.8270   -1.5010 C   0  0  0  0  0  0  0  0  0  0  0  0
    1.6600   12.7140   -2.1190 O   0  0  0  0  0  0  0  0  0  0  0  0
    0.9780   12.0630   -3.1010 C   0  0  0  0  0  0  0  0  0  0  0  0
    1.2390   12.7680   -4.4270 C   0  0  1  0  0  0  0  0  0  0  0  0
    0.2980   11.0590   -2.9340 O   0  0  0  0  0  0  0  0  0  0  0  0
    2.7240   13.0460   -4.5460 C   0  0  0  0  0  0  0  0  0  0  0  0
    0.8340   12.0170   -5.5680 O   0  0  0  0  0  0  0  0  0  0  0  0
  1  2  1  0
  2  3  2  0
  2  4  1  0
  4  5  1  0
  4  6  2  0
  3  7  1  0
  5  8  2  0
  5  9  1  0
  6 10  1  0
  7 10  2  0
  9 11  1  0
 11 12  1  0
 12 13  1  0
 13 14  1  0
 13 15  2  0
 14 16  1  6
 14 17  1  0
M  END
