mac-x0337-mac-x0137
     RDKit          3D

 27 30  0  0  0  0  0  0  0  0999 V2000
   -5.2470    9.0730   -2.2130 C   0  0  0  0  0  0  0  0  0  0  0  0
   -5.2040   10.5080   -1.7710 C   0  0  0  0  0  0  0  0  0  0  0  0
   -6.2290   11.0180   -0.9770 C   0  0  0  0  0  0  0  0  0  0  0  0
   -4.1410   11.3380   -2.1470 C   0  0  0  0  0  0  0  0  0  0  0  0
   -4.1200   12.6810   -1.7340 C   0  0  0  0  0  0  0  0  0  0  0  0
   -6.2120   12.3460   -0.5630 C   0  0  0  0  0  0  0  0  0  0  0  0
   -5.1730   13.1770   -0.9410 C   0  0  0  0  0  0  0  0  0  0  0  0
   -5.2810   14.8670   -0.3840 S   0  0  2  0  0  0  0  0  0  0  0  0
   -5.1740   15.6820   -1.5820 O   0  0  0  0  0  0  0  0  0  0  0  0
   -4.4980   15.1560    0.8880 N   0  0  0  0  0  0  0  0  0  0  0  0
   -6.8570   15.0930    0.0720 N   0  0  0  0  0  0  0  0  0  0  0  0
   -3.4000   15.0120    0.1130 N   0  0  0  0  0  0  0  0  0  0  0  0
   -2.1080   14.7610    0.3000 C   0  0  0  0  0  0  0  0  0  0  0  0
   -3.7670   15.1470   -1.1700 C   0  0  0  0  0  0  0  0  0  0  0  0
   -1.4240   14.5860    1.4400 N   0  0  0  0  0  0  0  0  0  0  0  0
   -1.6370   14.7110   -1.0150 C   0  0  0  0  0  0  0  0  0  0  0  0
   -2.6950   14.9610   -1.9090 C   0  0  0  0  0  0  0  0  0  0  0  0
   -0.1560   14.3520    1.1270 C   0  0  0  0  0  0  0  0  0  0  0  0
   -0.3230   14.4450   -1.2210 C   0  0  0  0  0  0  0  0  0  0  0  0
    0.2010   14.3570   -2.5340 N   0  0  0  0  0  0  0  0  0  0  0  0
    0.4180   14.2730   -0.1090 N   0  0  0  0  0  0  0  0  0  0  0  0
   -0.7780   14.6800   -3.6330 C   0  0  0  0  0  0  0  0  0  0  0  0
    1.0400   13.1760   -2.7450 C   0  0  0  0  0  0  0  0  0  0  0  0
   -1.4010   13.4890   -4.4250 C   0  0  2  0  0  0  0  0  0  0  0  0
    0.1470   11.9960   -3.1200 C   0  0  0  0  0  0  0  0  0  0  0  0
   -2.6140   13.1600   -3.8930 F   0  0  0  0  0  0  0  0  0  0  0  0
   -0.5630   12.2220   -4.4490 C   0  0  0  0  0  0  0  0  0  0  0  0
  1  2  1  0
  2  3  2  0
  2  4  1  0
  4  5  2  0
  3  6  1  0
  5  7  1  0
  6  7  2  0
  7  8  1  0
  8  9  2  0
  8 10  2  0
  8 11  1  1
 10 12  1  0
 12 13  1  0
 12 14  1  0
 13 15  2  0
 13 16  1  0
 14 17  2  0
 16 17  1  0
 15 18  1  0
 16 19  2  0
 19 20  1  0
 18 21  2  0
 19 21  1  0
 20 22  1  0
 20 23  1  0
 22 24  1  0
 23 25  1  0
 24 26  1  1
 24 27  1  0
 25 27  1  0
M  END
