mac-x0354-diamond-x0950_0_A
     RDKit          3D

 18 19  0  0  0  0  0  0  0  0999 V2000
    0.5780   11.1700   -8.4150 C   0  0  0  0  0  0  0  0  0  0  0  0
    0.9370   11.6290   -7.1020 N   0  0  0  0  0  0  0  0  0  0  0  0
    1.8780   12.4840   -6.8050 N   0  0  0  0  0  0  0  0  0  0  0  0
    0.4070   11.2860   -5.9420 C   0  0  0  0  0  0  0  0  0  0  0  0
    1.9980   12.7220   -5.5200 C   0  0  0  0  0  0  0  0  0  0  0  0
    1.0440   11.9400   -4.9230 C   0  0  0  0  0  0  0  0  0  0  0  0
   -0.6750   10.3200   -5.9670 C   0  0  0  0  0  0  0  0  0  0  0  0
    0.8130   11.8560   -3.2260 S   0  0  0  0  0  0  0  0  0  0  0  0
   -0.5460    8.9960   -6.3150 C   0  0  0  0  0  0  0  0  0  0  0  0
   -1.9780   10.6900   -5.6350 C   0  0  0  0  0  0  0  0  0  0  0  0
    0.4960   13.4310   -2.3830 N   0  0  0  0  0  0  0  0  0  0  0  0
    0.7550   10.6550   -2.4570 O   0  0  0  0  0  0  0  0  0  0  0  0
    2.3360   12.4510   -2.9830 C   0  0  0  0  0  0  0  0  0  0  0  0
   -0.5720   11.9300   -3.5920 O   0  0  0  0  0  0  0  0  0  0  0  0
   -1.5960    8.0900   -6.3390 C   0  0  0  0  0  0  0  0  0  0  0  0
   -3.0310    9.8100   -5.6550 C   0  0  0  0  0  0  0  0  0  0  0  0
    0.6890   13.1270   -1.0400 O   0  0  0  0  0  0  0  0  0  0  0  0
   -2.8630    8.5010   -6.0020 C   0  0  0  0  0  0  0  0  0  0  0  0
  1  2  1  0
  2  3  1  0
  2  4  1  0
  3  5  2  0
  4  6  2  0
  5  6  1  0
  4  7  1  0
  6  8  1  0
  7  9  2  0
  7 10  1  0
  8 11  2  3
  8 12  1  0
  8 13  1  0
  8 14  1  0
  9 15  1  0
 10 16  2  0
 11 17  1  0
 15 18  2  0
 16 18  1  0
M  END
