mac-x0277-diamond-x0104_0_A
     RDKit          3D

 30 32  0  0  0  0  0  0  0  0999 V2000
   -1.2630   18.3390   -5.3030 Cl  0  0  0  0  0  0  0  0  0  0  0  0
   -0.5650   16.8050   -4.9220 C   0  0  0  0  0  0  0  0  0  0  0  0
   -1.3190   15.6250   -4.9040 C   0  0  0  0  0  0  0  0  0  0  0  0
    0.7980   16.7720   -4.6260 C   0  0  0  0  0  0  0  0  0  0  0  0
   -2.7960   15.5740   -5.2050 C   0  0  0  0  0  0  0  0  0  0  0  0
   -0.6690   14.4180   -4.5860 C   0  0  0  0  0  0  0  0  0  0  0  0
    1.4260   15.5620   -4.3090 C   0  0  0  0  0  0  0  0  0  0  0  0
   -3.5600   14.5320   -4.3730 C   0  0  0  0  0  0  0  0  0  0  0  0
    0.6970   14.3730   -4.2860 C   0  0  0  0  0  0  0  0  0  0  0  0
    1.3660   13.0580   -3.9420 C   0  0  0  0  0  0  0  0  0  0  0  0
   -3.6230   14.8150   -2.8660 C   0  0  0  0  0  0  0  0  0  0  0  0
    0.7760   12.3610   -2.7260 C   0  0  0  0  0  0  0  0  0  0  0  0
   -4.9130   15.2550   -2.4790 O   0  0  0  0  0  0  0  0  0  0  0  0
    0.2270   11.1740   -3.0520 O   0  0  0  0  0  0  0  0  0  0  0  0
    0.7390   12.7310   -1.5540 O   0  0  0  0  0  0  0  0  0  0  0  0
   -5.3190   15.0790   -1.1780 C   0  0  0  0  0  0  0  0  0  0  0  0
   -4.4530   15.1240   -0.1420 N   0  0  0  0  0  0  0  0  0  0  0  0
   -6.6750   14.8620   -1.0420 C   0  0  0  0  0  0  0  0  0  0  0  0
   -5.0050   14.9480    1.0850 C   0  0  0  0  0  0  0  0  0  0  0  0
   -7.2070   14.6820    0.2250 C   0  0  0  0  0  0  0  0  0  0  0  0
   -6.3700   14.7280    1.3280 C   0  0  0  0  0  0  0  0  0  0  0  0
   -6.8240   14.5740    2.6490 N   0  0  0  0  0  0  0  0  0  0  0  0
   -8.0240   15.0370    3.1850 C   0  0  0  0  0  0  0  0  0  0  0  0
   -7.9770   15.0590    4.5720 N   0  0  0  0  0  0  0  0  0  0  0  0
   -8.9900   15.3790    2.5110 O   0  0  0  0  0  0  0  0  0  0  0  0
   -9.0920   15.0780    5.3860 C   0  0  0  0  0  0  0  0  0  0  0  0
   -9.2490   15.2070    6.7460 C   0  0  0  0  0  0  0  0  0  0  0  0
  -10.5800   14.9090    4.5740 S   0  0  0  0  0  0  0  0  0  0  0  0
  -11.4610   15.0050    6.0430 C   0  0  0  0  0  0  0  0  0  0  0  0
  -10.6280   15.1640    7.1270 C   0  0  0  0  0  0  0  0  0  0  0  0
  1  2  1  0
  2  3  2  0
  2  4  1  0
  3  5  1  0
  3  6  1  0
  4  7  2  0
  5  8  1  0
  6  9  2  0
  7  9  1  0
  9 10  1  0
  8 11  1  0
 10 12  1  0
 11 13  1  0
 12 14  1  0
 12 15  2  0
 13 16  1  0
 16 17  2  0
 16 18  1  0
 17 19  1  0
 18 20  2  0
 19 21  2  0
 20 21  1  0
 21 22  1  0
 22 23  1  0
 23 24  1  0
 23 25  2  0
 24 26  1  0
 26 27  2  0
 26 28  1  0
 28 29  1  0
 27 30  1  0
 29 30  2  0
M  END
