mac-x0224-diamond-x0685_0_A
     RDKit          3D

 21 22  0  0  0  0  0  0  0  0999 V2000
   -1.0240   14.1620    1.6950 S   0  0  0  0  0  0  0  0  0  0  0  0
   -1.4080   14.3980    0.0270 C   0  0  0  0  0  0  0  0  0  0  0  0
   -2.6920   14.6380   -0.2570 C   0  0  0  0  0  0  0  0  0  0  0  0
   -0.4410   14.3430   -0.9650 C   0  0  0  0  0  0  0  0  0  0  0  0
   -0.7640   14.5430   -2.3140 C   0  0  0  0  0  0  0  0  0  0  0  0
   -3.0120   14.8350   -1.5330 C   0  0  0  0  0  0  0  0  0  0  0  0
    0.4120   14.4340   -3.1670 C   0  0  0  0  0  0  0  0  0  0  0  0
   -2.1070   14.8030   -2.5670 C   0  0  0  0  0  0  0  0  0  0  0  0
   -3.1310   15.0810   -3.4060 C   0  0  0  0  0  0  0  0  0  0  0  0
    1.5330   14.3230   -2.7080 O   0  0  0  0  0  0  0  0  0  0  0  0
    0.1630   14.4510   -4.4750 O   0  0  0  0  0  0  0  0  0  0  0  0
   -4.2270   15.2320   -2.9920 C   0  0  0  0  0  0  0  0  0  0  0  0
   -4.9360   15.1220   -1.7270 C   0  0  0  0  0  0  0  0  0  0  0  0
   -4.1310   15.4160   -0.6020 C   0  0  0  0  0  0  0  0  0  0  0  0
   -6.2370   14.7420   -1.4670 C   0  0  0  0  0  0  0  0  0  0  0  0
   -4.6090   15.3020    0.6910 C   0  0  0  0  0  0  0  0  0  0  0  0
   -6.7350   14.6220   -0.1940 N   0  0  0  0  0  0  0  0  0  0  0  0
   -5.9090   14.8910    0.8540 C   0  0  0  0  0  0  0  0  0  0  0  0
   -6.4310   14.7180    2.2450 C   0  0  0  0  0  0  0  0  0  0  0  0
   -7.9270   14.8690    2.4580 C   0  0  0  0  0  0  0  0  0  0  0  0
   -8.5110   13.6100    3.0770 C   0  0  0  0  0  0  0  0  0  0  0  0
  1  2  1  0
  2  3  2  0
  2  4  1  0
  4  5  2  0
  3  6  1  0
  5  7  1  0
  5  8  1  0
  6  8  2  0
  8  9  1  0
  7 10  2  0
  7 11  1  0
  9 12  3  0
 12 13  1  0
 13 14  2  0
 13 15  1  0
 14 16  1  0
 15 17  2  0
 16 18  2  0
 17 18  1  0
 18 19  1  0
 19 20  1  0
 20 21  1  0
M  END
