mac-x0263-mac-x0190
     RDKit          3D

 14 15  0  0  0  0  0  0  0  0999 V2000
  -11.4890   14.3330    2.4760 O   0  0  0  0  0  0  0  0  0  0  0  0
  -10.8070   15.4530    2.7950 C   0  0  0  0  0  0  0  0  0  0  0  0
  -11.2140   16.2420    3.6280 O   0  0  0  0  0  0  0  0  0  0  0  0
   -9.5310   15.6180    2.0170 C   0  0  0  0  0  0  0  0  0  0  0  0
   -8.9550   14.2930    1.5270 C   0  0  0  0  0  0  0  0  0  0  0  0
   -7.6220   14.5440    0.9220 C   0  0  0  0  0  0  0  0  0  0  0  0
   -7.4620   14.8850   -0.3980 N   0  0  0  0  0  0  0  0  0  0  0  0
   -6.4640   14.4910    1.5300 N   0  0  0  0  0  0  0  0  0  0  0  0
   -6.1230   15.0630   -0.6340 C   0  0  0  0  0  0  0  0  0  0  0  0
   -5.5240   14.8090    0.5910 C   0  0  0  0  0  0  0  0  0  0  0  0
   -5.4090   15.4130   -1.7740 C   0  0  0  0  0  0  0  0  0  0  0  0
   -4.1350   14.9010    0.7130 C   0  0  0  0  0  0  0  0  0  0  0  0
   -4.0230   15.5020   -1.6400 C   0  0  0  0  0  0  0  0  0  0  0  0
   -3.3940   15.2480   -0.4170 C   0  0  0  0  0  0  0  0  0  0  0  0
  1  2  1  0
  2  3  2  0
  2  4  1  0
  4  5  1  0
  5  6  1  0
  6  7  1  0
  6  8  2  0
  7  9  1  0
  8 10  1  0
  9 10  2  0
  9 11  1  0
 10 12  1  0
 11 13  2  0
 12 14  2  0
 13 14  1  0
M  END
