mac-x0398-mac-x0361
     RDKit          3D

 12 12  0  0  0  0  0  0  0  0999 V2000
   -6.3770   14.8240    2.1500 N   0  0  0  0  0  0  0  0  0  0  0  0
   -5.5980   14.9080    0.9750 C   0  0  0  0  0  0  0  0  0  0  0  0
   -4.2080   14.9670    1.0010 C   0  0  0  0  0  0  0  0  0  0  0  0
   -6.2610   14.9310   -0.2520 C   0  0  0  0  0  0  0  0  0  0  0  0
   -5.5710   15.0130   -1.4590 C   0  0  0  0  0  0  0  0  0  0  0  0
   -3.4950   15.0430   -0.2000 C   0  0  0  0  0  0  0  0  0  0  0  0
   -7.6320   14.8670   -0.2050 O   0  0  0  0  0  0  0  0  0  0  0  0
   -6.2940   15.0360   -2.6220 O   0  0  0  0  0  0  0  0  0  0  0  0
   -4.1720   15.0640   -1.4390 C   0  0  0  0  0  0  0  0  0  0  0  0
   -3.3590   15.1360   -2.6790 C   0  0  0  0  0  0  0  0  0  0  0  0
   -3.8000   15.2400   -3.8090 O   0  0  0  0  0  0  0  0  0  0  0  0
   -2.0300   15.0520   -2.4710 O   0  0  0  0  0  0  0  0  0  0  0  0
  1  2  1  0
  2  3  2  0
  2  4  1  0
  4  5  2  0
  3  6  1  0
  4  7  1  0
  5  8  1  0
  5  9  1  0
  6  9  2  0
  9 10  1  0
 10 11  2  0
 10 12  1  0
M  END
