mac-x0436-mac-x0411
     RDKit          3D

 18 19  0  0  0  0  0  0  0  0999 V2000
    0.7090   11.3000   -2.6550 N   0  0  0  0  0  0  0  0  0  0  0  0
    1.1970   12.5400   -2.9220 C   0  0  0  0  0  0  0  0  0  0  0  0
    1.3820   13.3870   -2.0610 O   0  0  0  0  0  0  0  0  0  0  0  0
    0.0370   10.8050   -3.6100 C   0  0  0  0  0  0  0  0  0  0  0  0
    1.5060   12.8120   -4.3980 C   0  0  0  0  0  0  0  0  0  0  0  0
    0.3130   13.2330   -5.2730 C   0  0  0  0  0  0  0  0  0  0  0  0
   -0.5310   12.1600   -6.0390 C   0  0  2  0  0  0  0  0  0  0  0  0
   -1.9390   12.0090   -5.4160 C   0  0  0  0  0  0  0  0  0  0  0  0
    0.1890   10.8720   -6.3770 N   0  0  0  0  0  0  0  0  0  0  0  0
   -2.5110   12.9370   -4.8480 O   0  0  0  0  0  0  0  0  0  0  0  0
    0.9660   10.8720   -7.9470 Cl  0  0  0  0  0  0  0  0  0  0  0  0
   -2.5500   10.7780   -5.5170 N   0  0  0  0  0  0  0  0  0  0  0  0
   -0.6070    9.6460   -6.3790 C   0  0  1  0  0  0  0  0  0  0  0  0
   -2.1040    9.9370   -6.5830 C   0  0  1  0  0  0  0  0  0  0  0  0
   -0.1450    8.6360   -7.4040 C   0  0  0  0  0  0  0  0  0  0  0  0
   -0.9880    7.6950   -7.8490 C   0  0  0  0  0  0  0  0  0  0  0  0
   -2.9040    8.6830   -6.7280 C   0  0  0  0  0  0  0  0  0  0  0  0
   -2.3440    7.6270   -7.3440 C   0  0  0  0  0  0  0  0  0  0  0  0
  1  2  1  0
  2  3  2  0
  1  4  2  3
  2  5  1  0
  5  6  1  0
  7  6  1  1
  7  8  1  0
  7  9  1  0
  8 10  2  0
  9 11  1  0
  8 12  1  0
  9 13  1  0
 12 14  1  0
 13 14  1  0
 13 15  1  6
 15 16  2  0
 14 17  1  1
 16 18  1  0
 17 18  2  0
M  END
