mac-x0347-mac-x0346
     RDKit          3D

 20 21  0  0  0  0  0  0  0  0999 V2000
    1.1120   14.5380   -3.6320 O   0  0  0  0  0  0  0  0  0  0  0  0
    0.3010   14.1190   -2.6400 C   0  0  0  0  0  0  0  0  0  0  0  0
    0.7130   13.4940   -1.6780 O   0  0  0  0  0  0  0  0  0  0  0  0
   -1.1310   14.4770   -2.8120 C   0  0  0  0  0  0  0  0  0  0  0  0
   -2.0200   14.4810   -1.7390 C   0  0  0  0  0  0  0  0  0  0  0  0
   -1.6320   14.8230   -4.0550 C   0  0  0  0  0  0  0  0  0  0  0  0
   -3.3900   14.8290   -1.8960 C   0  0  0  0  0  0  0  0  0  0  0  0
   -2.9330   15.1580   -4.2670 N   0  0  0  0  0  0  0  0  0  0  0  0
   -3.7780   15.1540   -3.1910 C   0  0  0  0  0  0  0  0  0  0  0  0
   -4.2550   14.8240   -0.6860 C   0  0  0  0  0  0  0  0  0  0  0  0
   -3.5220   15.0030    0.4600 C   0  0  0  0  0  0  0  0  0  0  0  0
   -5.6590   14.6790   -0.4730 C   0  0  0  0  0  0  0  0  0  0  0  0
   -6.7430   14.4980   -1.4370 C   0  0  0  0  0  0  0  0  0  0  0  0
   -2.2040   15.1470    0.2550 O   0  0  0  0  0  0  0  0  0  0  0  0
   -4.0430   15.0400    1.7370 C   0  0  0  0  0  0  0  0  0  0  0  0
   -6.1900   14.7080    0.8150 C   0  0  0  0  0  0  0  0  0  0  0  0
   -8.0050   14.2470   -0.9290 N   0  0  0  0  0  0  0  0  0  0  0  0
   -6.5290   14.5850   -2.6300 O   0  0  0  0  0  0  0  0  0  0  0  0
   -5.3950   14.8880    1.9130 C   0  0  0  0  0  0  0  0  0  0  0  0
   -8.2100   14.3810    0.4680 O   0  0  0  0  0  0  0  0  0  0  0  0
  1  2  1  0
  2  3  2  0
  2  4  1  0
  4  5  2  0
  4  6  1  0
  5  7  1  0
  6  8  2  0
  7  9  2  0
  8  9  1  0
  7 10  1  0
 10 11  2  0
 10 12  1  0
 12 13  1  0
 11 14  1  0
 11 15  1  0
 12 16  2  0
 13 17  1  0
 13 18  2  0
 15 19  2  0
 16 19  1  0
 17 20  1  0
M  END
