mac-x0226-diamond-x0962_3_A
     RDKit          3D

 15 16  0  0  0  0  0  0  0  0999 V2000
    0.6580   12.9190   -2.0280 O   0  0  0  0  0  0  0  0  0  0  0  0
    0.4310   11.7410   -2.6480 C   0  0  0  0  0  0  0  0  0  0  0  0
    0.1430   10.7440   -1.9950 O   0  0  0  0  0  0  0  0  0  0  0  0
    0.5650   11.7750   -4.0780 C   0  0  0  0  0  0  0  0  0  0  0  0
    1.3460   12.6340   -4.8740 C   0  0  0  0  0  0  0  0  0  0  0  0
   -0.0570   10.9430   -4.9820 C   0  0  0  0  0  0  0  0  0  0  0  0
    1.2310   12.3650   -6.1690 N   0  0  0  0  0  0  0  0  0  0  0  0
    0.3610   11.3110   -6.2350 N   0  0  0  0  0  0  0  0  0  0  0  0
    0.0280   10.7520   -7.4900 C   0  0  0  0  0  0  0  0  0  0  0  0
   -1.2550   10.2420   -7.7300 C   0  0  0  0  0  0  0  0  0  0  0  0
    0.9810   10.7100   -8.4800 C   0  0  0  0  0  0  0  0  0  0  0  0
   -1.5660    9.6920   -8.9790 C   0  0  0  0  0  0  0  0  0  0  0  0
    0.6670   10.1630   -9.7290 C   0  0  0  0  0  0  0  0  0  0  0  0
    2.2360   11.1930   -8.2730 N   0  0  0  0  0  0  0  0  0  0  0  0
   -0.6030    9.6520   -9.9840 C   0  0  0  0  0  0  0  0  0  0  0  0
  1  2  1  0
  2  3  2  0
  2  4  1  0
  4  5  1  0
  4  6  2  0
  5  7  2  0
  6  8  1  0
  7  8  1  0
  8  9  1  0
  9 10  2  0
  9 11  1  0
 10 12  1  0
 11 13  2  0
 11 14  1  0
 12 15  2  0
 13 15  1  0
M  END
