mac-x0188-mac-x0387
     RDKit          3D

 21 23  0  0  0  0  0  0  0  0999 V2000
    1.0390   13.0540   -5.4190 C   0  0  0  0  0  0  0  0  0  0  0  0
   -0.2400   13.1970   -4.6890 C   0  0  0  0  0  0  0  0  0  0  0  0
   -1.3790   12.9360   -5.3810 O   0  0  0  0  0  0  0  0  0  0  0  0
   -0.5690   13.5530   -3.4100 C   0  0  0  0  0  0  0  0  0  0  0  0
    0.3820   13.9110   -2.3780 C   0  0  0  0  0  0  0  0  0  0  0  0
   -2.4850   13.1140   -4.5660 N   0  0  0  0  0  0  0  0  0  0  0  0
   -2.0110   13.4860   -3.3680 C   0  0  0  0  0  0  0  0  0  0  0  0
    0.7290   15.0550   -2.1180 O   0  0  0  0  0  0  0  0  0  0  0  0
    0.8890   12.8470   -1.7110 O   0  0  0  0  0  0  0  0  0  0  0  0
   -2.7740   13.8190   -2.1770 C   0  0  0  0  0  0  0  0  0  0  0  0
   -4.1410   14.3720   -2.1980 C   0  0  0  0  0  0  0  0  0  0  0  0
   -2.1280   13.7130   -0.9780 C   0  0  0  0  0  0  0  0  0  0  0  0
   -4.2970   15.5360   -1.6340 C   0  0  0  0  0  0  0  0  0  0  0  0
   -2.5900   14.2190    0.3710 C   0  0  2  0  0  0  0  0  0  0  0  0
   -3.9950   14.1290    0.7780 N   0  0  0  0  0  0  0  0  0  0  0  0
   -3.0560   16.0260   -1.1780 C   0  0  0  0  0  0  0  0  0  0  0  0
   -2.2500   15.4820   -0.2890 C   0  0  0  0  0  0  0  0  0  0  0  0
   -1.6800   13.8190    1.4300 N   0  0  0  0  0  0  0  0  0  0  0  0
   -0.9240   16.0190   -0.0770 C   0  0  0  0  0  0  0  0  0  0  0  0
   -0.5630   14.3830    1.5750 C   0  0  0  0  0  0  0  0  0  0  0  0
   -0.0740   15.4880    0.7950 C   0  0  0  0  0  0  0  0  0  0  0  0
  1  2  1  0
  2  3  1  0
  2  4  2  0
  4  5  1  0
  3  6  1  0
  4  7  1  0
  6  7  2  0
  5  8  2  0
  5  9  1  0
  7 10  1  0
 10 11  1  0
 10 12  2  0
 11 13  2  0
 12 14  1  0
 14 15  1  1
 13 16  1  0
 14 17  1  0
 16 17  2  0
 14 18  1  0
 17 19  1  0
 18 20  2  0
 19 21  2  0
 20 21  1  0
M  END
