mac-x0193-mac-x0182
     RDKit          3D

 24 27  0  0  0  0  0  0  0  0999 V2000
   -0.1820   12.6120   -3.9070 N   0  0  0  0  0  0  0  0  0  0  0  0
    1.1970   12.6210   -4.0140 C   0  0  0  0  0  0  0  0  0  0  0  0
    1.8620   12.2100   -3.0680 O   0  0  0  0  0  0  0  0  0  0  0  0
   -0.7710   11.5780   -4.3940 C   0  0  0  0  0  0  0  0  0  0  0  0
    1.8800   13.2330   -5.2910 C   0  0  0  0  0  0  0  0  0  0  0  0
   -0.1170   10.4420   -5.0370 C   0  0  2  0  0  0  0  0  0  0  0  0
   -2.5440   11.3600   -4.4050 S   0  0  0  0  0  0  0  0  0  0  0  0
    1.8280   12.5520   -6.6550 N   0  0  0  0  0  0  0  0  0  0  0  0
    0.7400   11.3030   -5.6090 N   0  0  0  0  0  0  0  0  0  0  0  0
   -2.7520   10.5880   -3.1580 O   0  0  0  0  0  0  0  0  0  0  0  0
   -2.3160   10.2050   -5.7780 C   0  0  0  0  0  0  0  0  0  0  0  0
   -1.0160    9.8290   -6.0060 C   0  0  0  0  0  0  0  0  0  0  0  0
    0.9660   11.6040   -6.6990 C   0  0  0  0  0  0  0  0  0  0  0  0
   -3.3120    9.7020   -6.5820 C   0  0  0  0  0  0  0  0  0  0  0  0
   -0.6490    8.9700   -7.0290 C   0  0  0  0  0  0  0  0  0  0  0  0
    0.3810   11.1250   -7.8870 N   0  0  0  0  0  0  0  0  0  0  0  0
   -2.9720    8.8260   -7.6220 C   0  0  0  0  0  0  0  0  0  0  0  0
   -1.6430    8.4630   -7.8510 C   0  0  0  0  0  0  0  0  0  0  0  0
    0.9590   10.3280   -9.0060 C   0  0  0  0  0  0  0  0  0  0  0  0
    1.3760    8.9070   -8.5810 C   0  0  0  0  0  0  0  0  0  0  0  0
   -0.0650   10.2070  -10.1500 C   0  0  0  0  0  0  0  0  0  0  0  0
    2.0440    8.1260   -9.7210 C   0  0  0  0  0  0  0  0  0  0  0  0
    0.3410    9.2250  -11.2600 C   0  0  0  0  0  0  0  0  0  0  0  0
    1.7640    8.6970  -11.1090 C   0  0  0  0  0  0  0  0  0  0  0  0
  1  2  1  0
  2  3  2  0
  1  4  2  0
  2  5  1  0
  4  6  1  0
  7  4  1  1
  5  8  1  0
  6  9  1  6
  7 10  2  0
  7 11  1  0
  6 12  1  0
 11 12  2  0
  8 13  1  0
  9 13  2  0
 11 14  1  0
 12 15  1  0
 13 16  1  0
 14 17  2  0
 15 18  2  0
 17 18  1  0
 16 19  1  0
 19 20  1  0
 19 21  1  0
 20 22  1  0
 21 23  1  0
 22 24  1  0
 23 24  1  0
M  END
