mac-x0385-mac-x0439
     RDKit          3D

 24 26  0  0  0  0  0  0  0  0999 V2000
   -5.4260   15.7640   -0.7620 C   0  0  0  0  0  0  0  0  0  0  0  0
   -3.9960   15.5860   -0.4210 C   0  0  0  0  0  0  0  0  0  0  0  0
   -3.0710   15.4420   -1.4180 C   0  0  0  0  0  0  0  0  0  0  0  0
   -3.5070   15.5560    0.8720 C   0  0  0  0  0  0  0  0  0  0  0  0
   -4.3450   15.7100    1.9790 N   0  0  0  0  0  0  0  0  0  0  0  0
   -2.2180   15.3840    1.1450 N   0  0  0  0  0  0  0  0  0  0  0  0
   -1.7810   15.2720   -1.1880 N   0  0  0  0  0  0  0  0  0  0  0  0
   -1.4190   15.2440    0.0860 C   0  0  0  0  0  0  0  0  0  0  0  0
   -0.0000   14.9930    0.2930 C   0  0  0  0  0  0  0  0  0  0  0  0
    0.0250   13.5090    0.0950 C   0  0  0  0  0  0  0  0  0  0  0  0
    0.1260   13.0160   -1.3600 C   0  0  0  0  0  0  0  0  0  0  0  0
    1.4470   13.2510   -1.8850 N   0  0  0  0  0  0  0  0  0  0  0  0
    1.6820   14.1760   -2.7100 C   0  0  0  0  0  0  0  0  0  0  0  0
    2.9860   14.2550   -3.0080 O   0  0  0  0  0  0  0  0  0  0  0  0
    0.8850   15.2310   -3.4130 C   0  0  0  0  0  0  0  0  0  0  0  0
   -0.4580   15.2950   -3.4700 C   0  0  0  0  0  0  0  0  0  0  0  0
    1.4870   16.2630   -4.0780 N   0  0  0  0  0  0  0  0  0  0  0  0
   -0.8620   16.5550   -4.1630 C   0  0  1  0  0  0  0  0  0  0  0  0
    0.5300   17.0050   -4.5210 C   0  0  0  0  0  0  0  0  0  0  0  0
   -1.7720   16.7230   -5.3240 C   0  0  0  0  0  0  0  0  0  0  0  0
    0.6870   18.2400   -5.3080 C   0  0  0  0  0  0  0  0  0  0  0  0
   -3.1450   15.6910   -5.4650 Cl  0  0  0  0  0  0  0  0  0  0  0  0
   -1.5210   17.6890   -6.2270 C   0  0  0  0  0  0  0  0  0  0  0  0
   -0.3430   18.5410   -6.1200 C   0  0  0  0  0  0  0  0  0  0  0  0
  1  2  1  0
  2  3  2  0
  2  4  1  0
  4  5  1  0
  4  6  2  0
  3  7  1  0
  6  8  1  0
  7  8  2  0
  8  9  1  0
  9 10  1  0
 10 11  1  0
 11 12  1  0
 12 13  2  3
 13 14  1  0
 13 15  1  0
 15 16  2  0
 15 17  1  0
 18 16  1  6
 17 19  2  0
 18 19  1  0
 18 20  1  0
 19 21  1  0
 20 22  1  0
 20 23  2  0
 21 24  2  0
 23 24  1  0
M  END
