mac-x0373-mac-x0385
     RDKit          3D

 18 19  0  0  0  0  0  0  0  0999 V2000
    1.0440   13.3490   -1.2950 O   0  0  0  0  0  0  0  0  0  0  0  0
    0.2550   14.3000   -1.8710 C   0  0  0  0  0  0  0  0  0  0  0  0
    0.7130   15.3920   -2.1350 O   0  0  0  0  0  0  0  0  0  0  0  0
   -1.1420   13.7320   -2.0830 C   0  0  2  0  0  0  0  0  0  0  0  0
   -1.5070   12.8900   -3.3040 C   0  0  0  0  0  0  0  0  0  0  0  0
   -2.2990   14.4540   -1.3930 C   0  0  0  0  0  0  0  0  0  0  0  0
   -0.8750   12.9310   -4.5580 C   0  0  0  0  0  0  0  0  0  0  0  0
   -2.5720   11.9850   -3.1290 C   0  0  0  0  0  0  0  0  0  0  0  0
   -3.3860   14.8760   -2.1980 C   0  0  0  0  0  0  0  0  0  0  0  0
   -2.3280   14.6850    0.0070 C   0  0  0  0  0  0  0  0  0  0  0  0
   -1.1720   14.2790    0.9190 C   0  0  0  0  0  0  0  0  0  0  0  0
   -1.3000   12.0890   -5.5920 C   0  0  0  0  0  0  0  0  0  0  0  0
   -2.9920   11.1500   -4.1550 C   0  0  0  0  0  0  0  0  0  0  0  0
   -4.4890   15.4990   -1.6400 C   0  0  0  0  0  0  0  0  0  0  0  0
   -3.4810   15.3080    0.5500 C   0  0  0  0  0  0  0  0  0  0  0  0
   -3.6520   15.5650    1.9180 N   0  0  0  0  0  0  0  0  0  0  0  0
   -2.3560   11.1980   -5.3880 C   0  0  0  0  0  0  0  0  0  0  0  0
   -4.5300   15.7020   -0.2780 C   0  0  0  0  0  0  0  0  0  0  0  0
  1  2  1  0
  2  3  2  0
  4  2  1  6
  4  5  1  0
  4  6  1  0
  5  7  2  0
  5  8  1  0
  6  9  2  0
  6 10  1  0
 10 11  1  0
  7 12  1  0
  8 13  2  0
  9 14  1  0
 10 15  2  0
 15 16  1  0
 12 17  2  0
 13 17  1  0
 14 18  2  0
 15 18  1  0
M  END
