mac-x0509-diamond-x0950_0_A
     RDKit          3D

 18 19  0  0  0  0  0  0  0  0999 V2000
   -2.2380    7.7890   -5.8300 O   0  0  0  0  0  0  0  0  0  0  0  0
   -1.3460    8.3050   -6.4800 C   0  0  0  0  0  0  0  0  0  0  0  0
   -1.3380    9.7210   -7.0800 C   0  0  1  0  0  0  0  0  0  0  0  0
   -0.1310    7.7230   -6.8280 N   0  0  0  0  0  0  0  0  0  0  0  0
   -1.0560   10.7880   -6.0080 C   0  0  0  0  0  0  0  0  0  0  0  0
   -0.3060    9.5590   -8.1600 C   0  0  0  0  0  0  0  0  0  0  0  0
    0.3800    8.3620   -7.9530 C   0  0  0  0  0  0  0  0  0  0  0  0
   -0.1000   11.9330   -6.3870 C   0  0  0  0  0  0  0  0  0  0  0  0
    0.0140   10.3790   -9.2260 C   0  0  0  0  0  0  0  0  0  0  0  0
    1.3970    7.9390   -8.7800 C   0  0  0  0  0  0  0  0  0  0  0  0
    1.0860   11.8110   -5.5870 O   0  0  0  0  0  0  0  0  0  0  0  0
    1.0410    9.9730  -10.0800 C   0  0  0  0  0  0  0  0  0  0  0  0
    1.7270    8.7640   -9.8560 C   0  0  0  0  0  0  0  0  0  0  0  0
    1.2060   12.7030   -4.4850 C   0  0  2  0  0  0  0  0  0  0  0  0
    2.6860   13.0700   -4.3980 C   0  0  0  0  0  0  0  0  0  0  0  0
    0.7780   12.1380   -3.1130 C   0  0  0  0  0  0  0  0  0  0  0  0
    0.2150   11.0660   -2.9250 O   0  0  0  0  0  0  0  0  0  0  0  0
    1.0770   12.9670   -2.0830 O   0  0  0  0  0  0  0  0  0  0  0  0
  1  2  2  0
  2  3  1  0
  2  4  1  0
  3  5  1  1
  3  6  1  0
  4  7  1  0
  6  7  2  0
  5  8  1  0
  6  9  1  0
  7 10  1  0
  8 11  1  0
  9 12  2  0
 10 13  2  0
 12 13  1  0
 11 14  1  0
 14 15  1  1
 14 16  1  0
 16 17  2  0
 16 18  1  0
M  END
