mac-x0326-diamond-x0685_0_A
     RDKit          3D

 25 27  0  0  0  0  0  0  0  0999 V2000
   -6.0640   15.5920   -2.0400 Cl  0  0  0  0  0  0  0  0  0  0  0  0
   -4.2650   15.4490   -2.1530 C   0  0  2  0  0  0  0  0  0  0  0  0
   -3.9250   13.9910   -2.2240 C   0  0  1  0  0  0  0  0  0  0  0  0
   -3.7350   15.7240   -0.7600 C   0  0  0  0  0  0  0  0  0  0  0  0
   -2.3910   13.8840   -2.4430 C   0  0  1  0  0  0  0  0  0  0  0  0
   -2.5820   15.1560   -0.2780 C   0  0  0  0  0  0  0  0  0  0  0  0
   -4.4870   14.0570   -0.8390 C   0  0  0  0  0  0  0  0  0  0  0  0
   -1.7210   14.5080   -3.6370 N   0  0  0  0  0  0  0  0  0  0  0  0
   -1.7220   14.2210   -1.1000 C   0  0  2  0  0  0  0  0  0  0  0  0
   -3.6820   13.9520    0.2860 C   0  0  0  0  0  0  0  0  0  0  0  0
   -5.8360   14.2830   -0.6310 C   0  0  0  0  0  0  0  0  0  0  0  0
   -0.3760   15.0700   -3.2540 C   0  0  1  0  0  0  0  0  0  0  0  0
   -0.0500   14.7740   -1.4750 S   0  0  0  0  0  0  0  0  0  0  0  0
   -4.2490   14.0960    1.5290 C   0  0  0  0  0  0  0  0  0  0  0  0
   -6.4100   14.4230    0.5620 N   0  0  0  0  0  0  0  0  0  0  0  0
   -2.5810   15.5170   -4.2190 N   0  0  0  0  0  0  0  0  0  0  0  0
    0.7840   14.5160   -4.1230 C   0  0  0  0  0  0  0  0  0  0  0  0
   -5.6110   14.3380    1.6220 C   0  0  0  0  0  0  0  0  0  0  0  0
    0.7640   13.0100   -4.4080 C   0  0  0  0  0  0  0  0  0  0  0  0
   -6.2530   14.5130    2.8250 N   0  0  0  0  0  0  0  0  0  0  0  0
    0.9550   12.1800   -3.1670 C   0  0  0  0  0  0  0  0  0  0  0  0
   -7.6670   14.8130    2.8150 C   0  0  0  0  0  0  0  0  0  0  0  0
    0.2640   11.0180   -3.1740 O   0  0  0  0  0  0  0  0  0  0  0  0
    1.6630   12.5000   -2.2330 O   0  0  0  0  0  0  0  0  0  0  0  0
   -8.3950   13.5140    3.0960 C   0  0  0  0  0  0  0  0  0  0  0  0
  2  1  1  1
  2  3  1  0
  2  4  1  0
  3  5  1  0
  4  6  2  0
  3  7  1  1
  5  8  1  6
  5  9  1  0
  9  6  1  6
  7 10  2  0
  7 11  1  0
  8 12  1  0
  9 13  1  0
 12 13  1  0
 10 14  1  0
 11 15  2  0
  8 16  1  0
 12 17  1  6
 14 18  2  0
 15 18  1  0
 17 19  1  0
 18 20  1  0
 19 21  1  0
 20 22  1  0
 21 23  1  0
 21 24  2  0
 22 25  1  0
M  END
