mac-x0564-mac-x0496
     RDKit          3D

 27 30  0  0  0  0  0  0  0  0999 V2000
    1.0860   14.1930   -0.7450 O   0  0  0  0  0  0  0  0  0  0  0  0
    0.2950   14.1990   -1.6570 C   0  0  0  0  0  0  0  0  0  0  0  0
    0.6890   13.9990   -2.9890 N   0  0  0  0  0  0  0  0  0  0  0  0
   -1.1260   14.4050   -1.4970 C   0  0  0  0  0  0  0  0  0  0  0  0
   -1.9080   14.6940   -2.5460 C   0  0  0  0  0  0  0  0  0  0  0  0
   -0.1370   14.3030   -3.9330 C   0  0  0  0  0  0  0  0  0  0  0  0
   -1.8940   14.3440   -0.3400 O   0  0  0  0  0  0  0  0  0  0  0  0
   -1.3950   14.8080   -3.7920 N   0  0  0  0  0  0  0  0  0  0  0  0
   -3.2020   14.6000   -0.7250 C   0  0  0  0  0  0  0  0  0  0  0  0
   -3.1990   14.8210   -2.0740 C   0  0  0  0  0  0  0  0  0  0  0  0
   -4.3230   15.1020   -2.7220 C   0  0  0  0  0  0  0  0  0  0  0  0
   -4.3930   14.6420    0.0430 C   0  0  0  0  0  0  0  0  0  0  0  0
   -3.9380   15.2900   -4.0960 C   0  0  0  0  0  0  0  0  0  0  0  0
   -5.5590   15.1650   -2.0670 C   0  0  0  0  0  0  0  0  0  0  0  0
   -5.5980   14.9230   -0.6750 C   0  0  0  0  0  0  0  0  0  0  0  0
   -6.9380   14.9550    0.0060 C   0  0  0  0  0  0  0  0  0  0  0  0
   -2.8420   15.7520   -4.3730 O   0  0  0  0  0  0  0  0  0  0  0  0
   -4.8360   14.9130   -4.9910 O   0  0  0  0  0  0  0  0  0  0  0  0
   -7.1160   14.5040    1.3010 N   0  0  0  0  0  0  0  0  0  0  0  0
   -7.8800   15.3770   -0.6350 O   0  0  0  0  0  0  0  0  0  0  0  0
   -8.4560   14.0820    1.7240 C   0  0  0  0  0  0  0  0  0  0  0  0
   -9.1890   15.1890    2.4110 C   0  0  0  0  0  0  0  0  0  0  0  0
  -10.4170   15.5480    1.9240 O   0  0  0  0  0  0  0  0  0  0  0  0
   -8.8250   15.9000    3.4570 N   0  0  0  0  0  0  0  0  0  0  0  0
   -9.8860   16.7470    3.6300 C   0  0  0  0  0  0  0  0  0  0  0  0
  -10.8780   16.5820    2.7480 N   0  0  0  0  0  0  0  0  0  0  0  0
   -9.9250   17.7570    4.7090 C   0  0  0  0  0  0  0  0  0  0  0  0
  1  2  2  0
  2  3  1  0
  2  4  1  0
  4  5  2  0
  3  6  2  0
  4  7  1  0
  5  8  1  0
  6  8  1  0
  7  9  1  0
  5 10  1  0
  9 10  2  0
 10 11  1  0
  9 12  1  0
 11 13  1  0
 11 14  2  0
 12 15  2  0
 14 15  1  0
 15 16  1  0
 13 17  2  0
 13 18  1  0
 16 19  1  0
 16 20  2  0
 19 21  1  0
 21 22  1  0
 22 23  1  0
 22 24  2  0
 24 25  1  0
 23 26  1  0
 25 26  2  0
 25 27  1  0
M  END
