mac-x0358-mac-x0344
     RDKit          3D

 18 19  0  0  0  0  0  0  0  0999 V2000
    1.5430   12.9830   -2.0340 O   0  0  0  0  0  0  0  0  0  0  0  0
    0.8150   12.2700   -2.9170 C   0  0  0  0  0  0  0  0  0  0  0  0
    0.2290   11.2600   -2.5550 O   0  0  0  0  0  0  0  0  0  0  0  0
    0.7920   12.8500   -4.3350 C   0  0  2  0  0  0  0  0  0  0  0  0
    1.8030   13.8290   -4.5450 O   0  0  0  0  0  0  0  0  0  0  0  0
   -0.5530   13.4370   -4.7220 C   0  0  0  0  0  0  0  0  0  0  0  0
   -1.6980   12.6340   -4.8740 C   0  0  0  0  0  0  0  0  0  0  0  0
   -0.6870   14.8210   -4.9360 C   0  0  0  0  0  0  0  0  0  0  0  0
   -1.5990   11.2810   -4.6560 O   0  0  0  0  0  0  0  0  0  0  0  0
   -2.9300   13.1910   -5.2360 C   0  0  0  0  0  0  0  0  0  0  0  0
   -1.9220   15.3760   -5.2900 C   0  0  0  0  0  0  0  0  0  0  0  0
   -3.0410   14.5620   -5.4430 C   0  0  0  0  0  0  0  0  0  0  0  0
   -1.5910   10.4550   -5.7390 C   0  0  0  0  0  0  0  0  0  0  0  0
   -0.4750   10.5950   -6.5520 C   0  0  0  0  0  0  0  0  0  0  0  0
   -2.5880    9.5280   -6.0530 C   0  0  0  0  0  0  0  0  0  0  0  0
   -0.3400    9.8110   -7.6870 C   0  0  0  0  0  0  0  0  0  0  0  0
   -2.4540    8.7400   -7.1940 C   0  0  0  0  0  0  0  0  0  0  0  0
   -1.3290    8.8840   -8.0070 C   0  0  0  0  0  0  0  0  0  0  0  0
  1  2  1  0
  2  3  2  0
  2  4  1  0
  4  5  1  1
  4  6  1  0
  6  7  2  0
  6  8  1  0
  7  9  1  0
  7 10  1  0
  8 11  2  0
 10 12  2  0
 11 12  1  0
  9 13  1  0
 13 14  2  0
 13 15  1  0
 14 16  1  0
 15 17  2  0
 16 18  2  0
 17 18  1  0
M  END
