mac-x0417-mac-x0333
     RDKit          3D

 25 28  0  0  0  0  0  0  0  0999 V2000
    1.4910   12.9700   -2.7400 O   0  0  0  0  0  0  0  0  0  0  0  0
    0.6600   12.0100   -3.1760 C   0  0  0  0  0  0  0  0  0  0  0  0
    0.7590   10.8750   -2.7470 O   0  0  0  0  0  0  0  0  0  0  0  0
   -0.3460   12.4690   -4.2010 C   0  0  1  0  0  0  0  0  0  0  0  0
   -0.5130   14.0040   -4.2100 C   0  0  0  0  0  0  0  0  0  0  0  0
   -0.1140   11.7170   -5.4850 C   0  0  0  0  0  0  0  0  0  0  0  0
   -1.0940   14.5070   -2.8600 C   0  0  0  0  0  0  0  0  0  0  0  0
    0.9330   11.9170   -6.3070 N   0  0  0  0  0  0  0  0  0  0  0  0
   -0.9580   10.7000   -5.9780 C   0  0  0  0  0  0  0  0  0  0  0  0
   -2.3970   15.1150   -3.0030 O   0  0  0  0  0  0  0  0  0  0  0  0
    0.7650   11.0080   -7.3560 O   0  0  0  0  0  0  0  0  0  0  0  0
   -0.3670   10.2850   -7.1500 C   0  0  0  0  0  0  0  0  0  0  0  0
   -2.1450   10.0970   -5.5510 C   0  0  0  0  0  0  0  0  0  0  0  0
   -0.8880    9.2760   -7.9610 C   0  0  0  0  0  0  0  0  0  0  0  0
   -2.6980    9.0850   -6.3370 C   0  0  0  0  0  0  0  0  0  0  0  0
   -3.3510   15.0610   -1.9910 C   0  0  0  0  0  0  0  0  0  0  0  0
   -2.0800    8.6810   -7.5210 C   0  0  0  0  0  0  0  0  0  0  0  0
   -4.7400   15.0670   -2.1870 C   0  0  0  0  0  0  0  0  0  0  0  0
   -2.8530   14.9960   -0.6640 C   0  0  0  0  0  0  0  0  0  0  0  0
   -5.5620   15.0100   -1.0760 C   0  0  0  0  0  0  0  0  0  0  0  0
   -3.7110   14.9450    0.4470 C   0  0  0  0  0  0  0  0  0  0  0  0
   -5.0650   14.9520    0.2030 C   0  0  0  0  0  0  0  0  0  0  0  0
   -6.9260   15.0000   -1.0850 O   0  0  0  0  0  0  0  0  0  0  0  0
   -6.0600   14.9050    1.1310 O   0  0  0  0  0  0  0  0  0  0  0  0
   -7.1760   14.6010    0.2760 C   0  0  0  0  0  0  0  0  0  0  0  0
  1  2  1  0
  2  3  2  0
  2  4  1  0
  4  5  1  6
  4  6  1  0
  5  7  1  0
  6  8  2  0
  6  9  1  0
  7 10  1  0
  8 11  1  0
  9 12  2  0
 11 12  1  0
  9 13  1  0
 12 14  1  0
 13 15  2  0
 10 16  1  0
 14 17  2  0
 15 17  1  0
 16 18  2  0
 16 19  1  0
 18 20  1  0
 19 21  2  0
 20 22  2  0
 21 22  1  0
 20 23  1  0
 22 24  1  0
 23 25  1  0
 24 25  1  0
M  END
