mac-x0358-mac-x0433
     RDKit          3D

 22 23  0  0  0  0  0  0  0  0999 V2000
    1.8330   12.9620   -2.4430 O   0  0  0  0  0  0  0  0  0  0  0  0
    1.1500   12.2430   -3.3530 C   0  0  0  0  0  0  0  0  0  0  0  0
    0.6340   11.1840   -3.0180 O   0  0  0  0  0  0  0  0  0  0  0  0
    1.0830   12.8810   -4.7280 C   0  0  0  0  0  0  0  0  0  0  0  0
   -0.3130   13.3820   -4.9220 C   0  0  0  0  0  0  0  0  0  0  0  0
   -1.3770   12.5030   -5.1370 C   0  0  0  0  0  0  0  0  0  0  0  0
   -0.5710   14.7580   -4.8650 C   0  0  0  0  0  0  0  0  0  0  0  0
   -1.2010   11.1500   -5.2160 O   0  0  0  0  0  0  0  0  0  0  0  0
   -2.6710   12.9610   -5.2620 C   0  0  0  0  0  0  0  0  0  0  0  0
   -1.8720   15.2260   -4.9890 C   0  0  0  0  0  0  0  0  0  0  0  0
   -2.9210   14.3230   -5.1710 C   0  0  0  0  0  0  0  0  0  0  0  0
   -4.3110   14.8220   -5.2180 C   0  0  0  0  0  0  0  0  0  0  0  0
   -4.5280   14.9930   -3.7020 C   0  0  0  0  0  0  0  0  0  0  0  0
   -5.8870   15.0430   -3.2120 N   0  0  0  0  0  0  0  0  0  0  0  0
   -5.8490   14.9930   -1.8280 C   0  0  0  0  0  0  0  0  0  0  0  0
   -4.6190   15.1560   -1.3090 N   0  0  0  0  0  0  0  0  0  0  0  0
   -6.9510   14.7870   -1.1060 N   0  0  0  0  0  0  0  0  0  0  0  0
   -4.5010   15.1060    0.0320 C   0  0  0  0  0  0  0  0  0  0  0  0
   -6.8070   14.7380    0.2300 C   0  0  0  0  0  0  0  0  0  0  0  0
   -3.1450   15.2840    0.6360 C   0  0  0  0  0  0  0  0  0  0  0  0
   -8.0390   14.5080    1.0430 C   0  0  0  0  0  0  0  0  0  0  0  0
   -5.5820   14.8940    0.8470 C   0  0  0  0  0  0  0  0  0  0  0  0
  1  2  1  0
  2  3  2  0
  2  4  1  0
  4  5  1  0
  5  6  2  0
  5  7  1  0
  6  8  1  0
  6  9  1  0
  7 10  2  0
  9 11  2  0
 10 11  1  0
 11 12  1  0
 12 13  1  0
 13 14  1  0
 14 15  1  0
 15 16  2  0
 15 17  1  0
 16 18  1  0
 17 19  2  0
 18 20  1  0
 19 21  1  0
 18 22  2  0
 19 22  1  0
M  END
