mac-x0341-diamond-x0438_0_A
     RDKit          3D

 16 18  0  0  0  0  0  0  0  0999 V2000
   -7.1020   14.8050    2.5820 N   0  0  0  0  0  0  0  0  0  0  0  0
   -8.7500   14.9530    2.1330 S   0  0  0  0  0  0  0  0  0  0  0  0
   -9.5850   14.0150    2.8530 O   0  0  0  0  0  0  0  0  0  0  0  0
   -6.2430   14.7930    1.4670 C   0  0  0  0  0  0  0  0  0  0  0  0
   -8.3280   14.3600    0.4810 C   0  0  0  0  0  0  0  0  0  0  0  0
   -9.1120   16.3470    2.0630 O   0  0  0  0  0  0  0  0  0  0  0  0
   -6.9020   14.6550    0.2790 N   0  0  0  0  0  0  0  0  0  0  0  0
   -4.9650   14.9150    1.5780 N   0  0  0  0  0  0  0  0  0  0  0  0
   -6.2770   14.9480   -0.9260 C   0  0  0  0  0  0  0  0  0  0  0  0
   -4.2000   14.8870    0.4010 C   0  0  0  0  0  0  0  0  0  0  0  0
   -6.8640   15.2080   -1.9640 O   0  0  0  0  0  0  0  0  0  0  0  0
   -4.7890   14.9090   -0.8680 C   0  0  0  0  0  0  0  0  0  0  0  0
   -2.8060   14.8310    0.5020 C   0  0  0  0  0  0  0  0  0  0  0  0
   -2.0130   14.7990   -0.6490 C   0  0  0  0  0  0  0  0  0  0  0  0
   -4.0030   14.8860   -2.0270 C   0  0  0  0  0  0  0  0  0  0  0  0
   -2.6110   14.8300   -1.9120 C   0  0  0  0  0  0  0  0  0  0  0  0
  2  1  1  0
  2  3  2  0
  1  4  1  0
  2  5  1  0
  2  6  2  0
  4  7  1  0
  5  7  1  0
  4  8  2  0
  7  9  1  0
  8 10  1  0
  9 11  2  0
  9 12  1  0
 10 12  2  0
 10 13  1  0
 13 14  2  0
 12 15  1  0
 14 16  1  0
 15 16  2  0
M  END
