mac-x0188-mac-x0380
     RDKit          3D

 24 26  0  0  0  0  0  0  0  0999 V2000
    1.4900   12.9540   -5.1540 C   0  0  0  0  0  0  0  0  0  0  0  0
    0.2440   13.2890   -4.4360 C   0  0  0  0  0  0  0  0  0  0  0  0
   -0.8890   13.1170   -5.1600 O   0  0  0  0  0  0  0  0  0  0  0  0
   -0.0850   13.7570   -3.1710 C   0  0  0  0  0  0  0  0  0  0  0  0
    0.7610   14.0960   -2.0500 C   0  0  0  0  0  0  0  0  0  0  0  0
   -1.9810   13.4630   -4.4010 N   0  0  0  0  0  0  0  0  0  0  0  0
   -1.5000   13.8490   -3.2070 C   0  0  0  0  0  0  0  0  0  0  0  0
    1.2640   15.1890   -1.9250 O   0  0  0  0  0  0  0  0  0  0  0  0
    0.9710   13.1390   -1.1150 O   0  0  0  0  0  0  0  0  0  0  0  0
   -2.4170   14.3270   -2.0940 C   0  0  1  0  0  0  0  0  0  0  0  0
   -3.6810   14.8160   -2.7310 C   0  0  2  0  0  0  0  0  0  0  0  0
   -2.7710   13.3660   -1.0310 C   0  0  0  0  0  0  0  0  0  0  0  0
   -3.2200   15.5680   -3.9210 C   0  0  0  0  0  0  0  0  0  0  0  0
   -4.5330   15.5540   -1.6870 C   0  0  0  0  0  0  0  0  0  0  0  0
   -3.8760   13.5200   -0.2900 C   0  0  0  0  0  0  0  0  0  0  0  0
   -1.9420   15.9550   -3.8550 O   0  0  0  0  0  0  0  0  0  0  0  0
   -3.8620   15.8050   -4.9090 O   0  0  0  0  0  0  0  0  0  0  0  0
   -4.8500   14.6730   -0.4420 C   0  0  2  0  0  0  0  0  0  0  0  0
   -6.6090   14.1290   -0.7350 S   0  0  0  0  0  0  0  0  0  0  0  0
   -4.8120   15.4370    0.8900 C   0  0  0  0  0  0  0  0  0  0  0  0
   -5.7370   15.0480    1.9850 N   0  0  0  0  0  0  0  0  0  0  0  0
   -7.6340   14.2250    0.7020 C   0  0  0  0  0  0  0  0  0  0  0  0
   -7.0760   14.7050    1.9730 C   0  0  0  0  0  0  0  0  0  0  0  0
   -7.8210   14.7750    2.9420 O   0  0  0  0  0  0  0  0  0  0  0  0
  1  2  1  0
  2  3  1  0
  2  4  2  0
  4  5  1  0
  3  6  1  0
  4  7  1  0
  6  7  2  0
  5  8  2  0
  5  9  1  0
 10  7  1  6
 10 11  1  0
 10 12  1  0
 11 13  1  6
 11 14  1  0
 12 15  2  0
 13 16  1  0
 13 17  2  0
 18 14  1  6
 18 15  1  0
 18 19  1  0
 18 20  1  0
 20 21  1  0
 19 22  2  0
 21 23  1  0
 22 23  1  0
 23 24  2  0
M  END
