mac-x0415-diamond-x0722_0_A
     RDKit          3D

 28 30  0  0  0  0  0  0  0  0999 V2000
    0.5280   10.9430   -3.3000 O   0  0  0  0  0  0  0  0  0  0  0  0
    0.6340   12.2740   -3.2340 C   0  0  0  0  0  0  0  0  0  0  0  0
    1.3730   12.8230   -2.3600 N   0  0  0  0  0  0  0  0  0  0  0  0
    0.9570   12.7350   -4.6340 C   0  0  0  0  0  0  0  0  0  0  0  0
    0.6960   13.6610   -1.4120 C   0  0  0  0  0  0  0  0  0  0  0  0
    0.7350   14.1900   -4.5800 C   0  0  0  0  0  0  0  0  0  0  0  0
   -0.7480   13.1740   -1.4420 C   0  0  0  0  0  0  0  0  0  0  0  0
    1.7650   15.2090   -4.3860 C   0  0  0  0  0  0  0  0  0  0  0  0
   -0.3360   14.9570   -4.6900 C   0  0  0  0  0  0  0  0  0  0  0  0
   -1.7570   14.2850   -1.6580 C   0  0  0  0  0  0  0  0  0  0  0  0
    1.4060   16.4560   -4.3640 N   0  0  0  0  0  0  0  0  0  0  0  0
   -0.0230   16.3860   -4.4650 C   0  0  1  0  0  0  0  0  0  0  0  0
   -1.6970   14.6260   -4.9510 C   0  0  0  0  0  0  0  0  0  0  0  0
   -0.7900   17.3340   -5.3090 C   0  0  0  0  0  0  0  0  0  0  0  0
   -2.4900   15.5740   -5.4850 C   0  0  0  0  0  0  0  0  0  0  0  0
   -2.3350   14.6700   -0.3510 C   0  0  0  0  0  0  0  0  0  0  0  0
   -4.2540   15.1570   -5.8940 Br  0  0  0  0  0  0  0  0  0  0  0  0
   -1.9880   16.9310   -5.7820 C   0  0  0  0  0  0  0  0  0  0  0  0
   -3.5930   15.1530   -0.0240 C   0  0  0  0  0  0  0  0  0  0  0  0
   -1.6290   14.5960    0.8320 N   0  0  0  0  0  0  0  0  0  0  0  0
   -0.2750   14.1820    1.1070 C   0  0  0  0  0  0  0  0  0  0  0  0
   -4.7550   15.4310   -0.9360 C   0  0  0  0  0  0  0  0  0  0  0  0
   -2.3350   14.9800    1.8620 N   0  0  0  0  0  0  0  0  0  0  0  0
   -3.5040   15.3240    1.3740 C   0  0  0  0  0  0  0  0  0  0  0  0
   -4.4740   15.8210    2.3230 C   0  0  0  0  0  0  0  0  0  0  0  0
   -6.0270   14.6800   -0.5880 C   0  0  0  0  0  0  0  0  0  0  0  0
   -7.1610   15.1230   -0.7390 O   0  0  0  0  0  0  0  0  0  0  0  0
   -5.8640   13.4210   -0.0730 N   0  0  0  0  0  0  0  0  0  0  0  0
  1  2  1  0
  2  3  2  3
  2  4  1  0
  3  5  1  0
  4  6  1  0
  5  7  1  0
  6  8  1  0
  6  9  2  0
  7 10  1  0
  8 11  2  0
  9 12  1  0
 11 12  1  0
  9 13  1  0
 12 14  1  6
 13 15  2  0
 10 16  1  0
 15 17  1  0
 14 18  2  0
 15 18  1  0
 16 19  2  0
 16 20  1  0
 20 21  1  0
 19 22  1  0
 20 23  1  0
 19 24  1  0
 23 24  2  0
 24 25  1  0
 22 26  1  0
 26 27  2  0
 26 28  1  0
M  END
