mac-x0283-mac-x0576
     RDKit          3D

 17 19  0  0  0  0  0  0  0  0999 V2000
   -6.7700   13.3450    2.1630 N   0  0  0  0  0  0  0  0  0  0  0  0
   -6.7450   14.0790    1.0520 C   0  0  0  0  0  0  0  0  0  0  0  0
   -7.8040   14.7380    0.5930 N   0  0  0  0  0  0  0  0  0  0  0  0
   -5.6140   14.2550    0.2230 C   0  0  0  0  0  0  0  0  0  0  0  0
   -7.3790   15.3780   -0.5450 O   0  0  0  0  0  0  0  0  0  0  0  0
   -6.0680   15.0990   -0.7550 C   0  0  0  0  0  0  0  0  0  0  0  0
   -4.1890   13.7680    0.2040 C   0  0  0  0  0  0  0  0  0  0  0  0
   -5.2930   15.5900   -1.7830 C   0  0  0  0  0  0  0  0  0  0  0  0
   -3.2960   14.8970   -0.3910 C   0  0  2  0  0  0  0  0  0  0  0  0
   -3.9740   15.5320   -1.6110 C   0  0  0  0  0  0  0  0  0  0  0  0
   -1.9510   14.4640   -1.0200 C   0  0  0  0  0  0  0  0  0  0  0  0
   -3.0430   15.6960    0.8920 C   0  0  0  0  0  0  0  0  0  0  0  0
   -1.7580   14.4320   -2.2360 O   0  0  0  0  0  0  0  0  0  0  0  0
   -0.9110   14.1540   -0.2040 N   0  0  0  0  0  0  0  0  0  0  0  0
   -1.9990   14.9830    1.6340 N   0  0  0  0  0  0  0  0  0  0  0  0
   -0.7560   14.9160    0.9490 C   0  0  1  0  0  0  0  0  0  0  0  0
    0.0210   14.1270    1.8110 N   0  0  0  0  0  0  0  0  0  0  0  0
  1  2  1  0
  2  3  2  0
  2  4  1  0
  3  5  1  0
  4  6  2  0
  5  6  1  0
  4  7  1  0
  6  8  1  0
  9  7  1  1
  8 10  2  0
  9 10  1  0
  9 11  1  0
  9 12  1  0
 11 13  2  0
 11 14  1  0
 12 15  1  0
 14 16  1  0
 15 16  1  0
 16 17  1  1
M  END
