mac-x0206-diamond-x0910_1_A
     RDKit          3D

 10 10  0  0  0  0  0  0  0  0999 V2000
   -3.0570   15.0500   -0.3760 N   0  0  0  0  0  0  0  0  0  0  0  0
   -4.2880   15.1490   -0.9630 C   0  0  0  0  0  0  0  0  0  0  0  0
   -4.4020   15.3700   -2.1600 O   0  0  0  0  0  0  0  0  0  0  0  0
   -5.4600   14.9700   -0.0720 C   0  0  0  0  0  0  0  0  0  0  0  0
   -6.7380   14.7630   -0.6020 C   0  0  0  0  0  0  0  0  0  0  0  0
   -5.2880   15.0090    1.3210 C   0  0  0  0  0  0  0  0  0  0  0  0
   -6.9250   14.7220   -1.9510 O   0  0  0  0  0  0  0  0  0  0  0  0
   -7.8390   14.5920    0.2400 C   0  0  0  0  0  0  0  0  0  0  0  0
   -6.3970   14.8390    2.1570 C   0  0  0  0  0  0  0  0  0  0  0  0
   -7.6670   14.6300    1.6220 C   0  0  0  0  0  0  0  0  0  0  0  0
  1  2  1  0
  2  3  2  0
  2  4  1  0
  4  5  2  0
  4  6  1  0
  5  7  1  0
  5  8  1  0
  6  9  2  0
  8 10  2  0
  9 10  1  0
M  END
