mac-x0255-diamond-x0805_0_A
     RDKit          3D

 20 22  0  0  0  0  0  0  0  0999 V2000
    1.2520   12.8540   -1.5990 O   0  0  0  0  0  0  0  0  0  0  0  0
    0.7750   12.1470   -2.6360 C   0  0  0  0  0  0  0  0  0  0  0  0
    0.1770   11.0920   -2.4890 O   0  0  0  0  0  0  0  0  0  0  0  0
    1.0540   12.7600   -3.9810 C   0  0  0  0  0  0  0  0  0  0  0  0
    0.3630   14.0530   -4.2490 C   0  0  0  0  0  0  0  0  0  0  0  0
    0.9600   15.1130   -4.8070 C   0  0  0  0  0  0  0  0  0  0  0  0
   -1.2850   14.4310   -3.8720 S   0  0  1  0  0  0  0  0  0  0  0  0
    0.0720   16.2300   -5.0550 C   0  0  0  0  0  0  0  0  0  0  0  0
   -1.2280   15.9830   -4.6290 C   0  0  0  0  0  0  0  0  0  0  0  0
   -2.5500   13.3370   -4.3910 C   0  0  0  0  0  0  0  0  0  0  0  0
   -1.4670   14.6510   -2.1420 C   0  0  0  0  0  0  0  0  0  0  0  0
    0.3940   17.4330   -5.6540 C   0  0  0  0  0  0  0  0  0  0  0  0
   -2.2470   16.8800   -4.7990 C   0  0  0  0  0  0  0  0  0  0  0  0
   -2.9070   14.9340   -1.7020 C   0  0  2  0  0  0  0  0  0  0  0  0
   -3.6360   13.1750   -3.3430 C   0  0  0  0  0  0  0  0  0  0  0  0
   -3.0050   15.0100   -0.2670 O   0  0  0  0  0  0  0  0  0  0  0  0
   -0.6200   18.3680   -5.8370 C   0  0  0  0  0  0  0  0  0  0  0  0
   -1.9240   18.0950   -5.4180 C   0  0  0  0  0  0  0  0  0  0  0  0
   -3.8100   13.8500   -2.1880 C   0  0  0  0  0  0  0  0  0  0  0  0
   -4.1610   15.6820    0.2260 C   0  0  0  0  0  0  0  0  0  0  0  0
  1  2  1  0
  2  3  2  0
  2  4  1  0
  4  5  1  0
  5  6  2  0
  7  5  1  0
  6  8  1  0
  7  9  1  0
  8  9  2  0
  7 10  1  6
  7 11  1  0
  8 12  1  0
  9 13  1  0
 11 14  1  0
 10 15  1  0
 14 16  1  1
 12 17  2  0
 13 18  2  0
 17 18  1  0
 14 19  1  0
 15 19  2  0
 16 20  1  0
M  END
