mac-x0387-mac-x0417
     RDKit          3D

 25 28  0  0  0  0  0  0  0  0999 V2000
   -3.8690   15.1510    1.6310 N   0  0  0  0  0  0  0  0  0  0  0  0
   -2.6120   14.8690    1.0770 C   0  0  0  0  0  0  0  0  0  0  0  0
   -1.6240   14.6220    1.9450 N   0  0  0  0  0  0  0  0  0  0  0  0
   -2.4270   14.8600   -0.3190 C   0  0  0  0  0  0  0  0  0  0  0  0
   -1.1290   14.5940   -0.8150 C   0  0  0  0  0  0  0  0  0  0  0  0
   -0.4020   14.3730    1.4600 C   0  0  0  0  0  0  0  0  0  0  0  0
   -3.4750   15.1070   -1.2320 C   0  0  0  0  0  0  0  0  0  0  0  0
   -0.1080   14.3510    0.1170 C   0  0  0  0  0  0  0  0  0  0  0  0
   -0.8920   14.5850   -2.2160 C   0  0  0  0  0  0  0  0  0  0  0  0
   -3.2500   15.0920   -2.6070 C   0  0  0  0  0  0  0  0  0  0  0  0
    0.5180   14.3140   -2.7280 C   0  0  0  0  0  0  0  0  0  0  0  0
   -1.9700   14.8330   -3.0960 C   0  0  0  0  0  0  0  0  0  0  0  0
    0.9700   12.9740   -2.4520 O   0  0  0  0  0  0  0  0  0  0  0  0
    0.6330   12.0520   -3.3830 C   0  0  0  0  0  0  0  0  0  0  0  0
    0.5520   10.8490   -3.1510 O   0  0  0  0  0  0  0  0  0  0  0  0
    0.3660   12.6790   -4.7330 C   0  0  0  0  0  0  0  0  0  0  0  0
    0.2650   11.7010   -5.8350 C   0  0  0  0  0  0  0  0  0  0  0  0
    1.2350   11.6600   -6.7470 N   0  0  0  0  0  0  0  0  0  0  0  0
   -0.7470   10.7470   -6.0890 C   0  0  0  0  0  0  0  0  0  0  0  0
    0.8650   10.6610   -7.6370 O   0  0  0  0  0  0  0  0  0  0  0  0
   -0.3150   10.1160   -7.2420 C   0  0  0  0  0  0  0  0  0  0  0  0
   -1.9550   10.3400   -5.5000 C   0  0  0  0  0  0  0  0  0  0  0  0
   -1.0050    9.0860   -7.8730 C   0  0  0  0  0  0  0  0  0  0  0  0
   -2.6760    9.3040   -6.1090 C   0  0  0  0  0  0  0  0  0  0  0  0
   -2.2080    8.6900   -7.2750 C   0  0  0  0  0  0  0  0  0  0  0  0
  1  2  1  0
  2  3  2  0
  2  4  1  0
  4  5  2  0
  3  6  1  0
  4  7  1  0
  5  8  1  0
  6  8  2  0
  5  9  1  0
  7 10  2  0
  9 11  1  0
  9 12  2  0
 10 12  1  0
 11 13  1  0
 13 14  1  0
 14 15  2  0
 14 16  1  0
 16 17  1  0
 17 18  2  0
 17 19  1  0
 18 20  1  0
 19 21  2  0
 20 21  1  0
 19 22  1  0
 21 23  1  0
 22 24  2  0
 23 25  2  0
 24 25  1  0
M  END
