mac-x0555-diamond-x0852_0_B
     RDKit          3D

 23 25  0  0  0  0  0  0  0  0999 V2000
   -7.1570   14.3100    2.7140 N   0  0  0  0  0  0  0  0  0  0  0  0
   -6.7910   14.5450    1.3940 C   0  0  0  0  0  0  0  0  0  0  0  0
   -7.6760   14.6830    0.3090 C   0  0  0  0  0  0  0  0  0  0  0  0
   -5.4390   14.6570    1.1300 C   0  0  0  0  0  0  0  0  0  0  0  0
   -9.1840   14.6200    0.4190 C   0  0  0  0  0  0  0  0  0  0  0  0
   -4.9730   14.8790   -0.1390 C   0  0  0  0  0  0  0  0  0  0  0  0
   -7.2330   14.8980   -0.9550 N   0  0  0  0  0  0  0  0  0  0  0  0
   -9.7950   16.0230    0.2460 C   0  0  0  0  0  0  0  0  0  0  0  0
   -5.9140   14.9910   -1.1660 C   0  0  0  0  0  0  0  0  0  0  0  0
   -3.6040   14.9840   -0.3890 C   0  0  0  0  0  0  0  0  0  0  0  0
  -10.4390   16.4860    1.4550 O   0  0  0  0  0  0  0  0  0  0  0  0
   -5.4410   15.2060   -2.4400 C   0  0  0  0  0  0  0  0  0  0  0  0
   -3.1560   15.1980   -1.6790 C   0  0  0  0  0  0  0  0  0  0  0  0
   -4.0750   15.3100   -2.7110 C   0  0  0  0  0  0  0  0  0  0  0  0
   -9.8160   16.2650    2.6680 C   0  0  0  0  0  0  0  0  0  0  0  0
   -8.9350   15.1890    2.6730 C   0  0  0  0  0  0  0  0  0  0  0  0
   -9.9800   16.9870    3.8510 C   0  0  0  0  0  0  0  0  0  0  0  0
   -8.2170   14.8310    3.8200 C   0  0  0  0  0  0  0  0  0  0  0  0
   -9.2640   16.6290    5.0140 C   0  0  0  0  0  0  0  0  0  0  0  0
   -9.4690   17.3790    6.2130 C   0  0  0  0  0  0  0  0  0  0  0  0
   -8.3760   15.5460    4.9830 C   0  0  0  0  0  0  0  0  0  0  0  0
   -9.6950   17.9260    7.2150 N   0  0  0  0  0  0  0  0  0  0  0  0
   -7.6630   15.1850    6.1000 O   0  0  0  0  0  0  0  0  0  0  0  0
  1  2  1  0
  2  3  2  0
  2  4  1  0
  3  5  1  0
  4  6  2  0
  3  7  1  0
  5  8  1  0
  6  9  1  0
  7  9  2  0
  6 10  1  0
  8 11  1  0
  9 12  1  0
 10 13  2  0
 12 14  2  0
 13 14  1  0
 11 15  1  0
 15 16  2  0
 15 17  1  0
 16 18  1  0
 17 19  2  0
 19 20  1  0
 18 21  2  0
 19 21  1  0
 20 22  3  0
 21 23  1  0
M  END
