mac-x0337-diamond-x0587_0_A
     RDKit          3D

 21 22  0  0  0  0  0  0  0  0999 V2000
   -5.7230    9.0190   -2.0350 C   0  0  0  0  0  0  0  0  0  0  0  0
   -5.1330   10.3730   -1.7780 C   0  0  0  0  0  0  0  0  0  0  0  0
   -5.7540   11.2530   -0.8840 C   0  0  0  0  0  0  0  0  0  0  0  0
   -3.9560   10.7630   -2.4280 C   0  0  0  0  0  0  0  0  0  0  0  0
   -3.4010   12.0220   -2.2030 C   0  0  0  0  0  0  0  0  0  0  0  0
   -5.2060   12.5110   -0.6530 C   0  0  0  0  0  0  0  0  0  0  0  0
   -4.0350   12.8910   -1.3190 C   0  0  0  0  0  0  0  0  0  0  0  0
   -3.3580   14.5130   -1.0510 S   0  0  0  0  0  0  0  0  0  0  0  0
   -2.4950   14.8970   -2.1480 O   0  0  0  0  0  0  0  0  0  0  0  0
   -2.9180   14.6240    0.3270 O   0  0  0  0  0  0  0  0  0  0  0  0
   -4.8160   15.2630   -1.2840 N   0  0  0  0  0  0  0  0  0  0  0  0
   -5.3310   14.7040   -2.4350 F   0  0  0  0  0  0  0  0  0  0  0  0
   -5.6890   15.0800   -0.2140 C   0  0  0  0  0  0  0  0  0  0  0  0
   -6.9820   14.9270   -0.5460 N   0  0  0  0  0  0  0  0  0  0  0  0
   -5.1970   15.0770    1.0230 N   0  0  0  0  0  0  0  0  0  0  0  0
   -7.8490   14.7920    0.4730 C   0  0  0  0  0  0  0  0  0  0  0  0
   -6.1050   14.9380    2.0090 C   0  0  0  0  0  0  0  0  0  0  0  0
   -7.4610   14.8030    1.7890 C   0  0  0  0  0  0  0  0  0  0  0  0
   -8.3790   14.7000    2.9220 C   0  0  0  0  0  0  0  0  0  0  0  0
   -7.8380   14.6880    4.1690 N   0  0  0  0  0  0  0  0  0  0  0  0
   -9.5890   14.6610    2.7450 O   0  0  0  0  0  0  0  0  0  0  0  0
  1  2  1  0
  2  3  2  0
  2  4  1  0
  4  5  2  0
  3  6  1  0
  5  7  1  0
  6  7  2  0
  7  8  1  0
  8  9  2  0
  8 10  2  0
  8 11  1  0
 11 12  1  0
 11 13  1  0
 13 14  2  0
 13 15  1  0
 14 16  1  0
 15 17  2  0
 16 18  2  0
 17 18  1  0
 18 19  1  0
 19 20  1  0
 19 21  2  0
M  END
