mac-x0381-mac-x0576
     RDKit          3D

 28 31  0  0  0  0  0  0  0  0999 V2000
   -9.2350   12.8350    5.0380 N   0  0  0  0  0  0  0  0  0  0  0  0
   -8.8560   13.9110    4.2960 C   0  0  0  0  0  0  0  0  0  0  0  0
   -7.6600   14.1950    4.1630 N   0  0  0  0  0  0  0  0  0  0  0  0
   -9.9350   14.7270    3.6380 C   0  0  0  0  0  0  0  0  0  0  0  0
   -7.2890   15.2860    3.3590 C   0  0  0  0  0  0  0  0  0  0  0  0
   -9.8040   15.3970    2.3950 C   0  0  0  0  0  0  0  0  0  0  0  0
  -11.1390   14.7930    4.3260 C   0  0  0  0  0  0  0  0  0  0  0  0
   -6.4160   14.6740    2.2790 C   0  0  0  0  0  0  0  0  0  0  0  0
  -10.9000   16.1120    1.8540 C   0  0  0  0  0  0  0  0  0  0  0  0
  -12.2120   15.4910    3.8070 C   0  0  0  0  0  0  0  0  0  0  0  0
   -6.7290   14.8850    0.9060 N   0  0  0  0  0  0  0  0  0  0  0  0
  -12.1150   16.1440    2.5790 C   0  0  0  0  0  0  0  0  0  0  0  0
  -10.8320   16.7840    0.6200 C   0  0  0  0  0  0  0  0  0  0  0  0
  -13.2230   16.8240    2.0640 C   0  0  0  0  0  0  0  0  0  0  0  0
  -11.9520   17.4580    0.1170 C   0  0  0  0  0  0  0  0  0  0  0  0
   -5.6370   14.7980    0.2380 C   0  0  0  0  0  0  0  0  0  0  0  0
  -13.1430   17.4700    0.8400 C   0  0  0  0  0  0  0  0  0  0  0  0
   -4.4870   14.5200    0.9630 N   0  0  0  0  0  0  0  0  0  0  0  0
   -5.4630   14.9570   -1.2690 C   0  0  0  0  0  0  0  0  0  0  0  0
   -3.2180   15.1200    0.6190 C   0  0  2  0  0  0  0  0  0  0  0  0
   -4.1710   14.3460   -1.6200 N   0  0  0  0  0  0  0  0  0  0  0  0
   -3.1300   15.1480   -0.9450 C   0  0  2  0  0  0  0  0  0  0  0  0
   -2.0790   14.6000    1.3740 N   0  0  0  0  0  0  0  0  0  0  0  0
   -0.8100   14.7950    0.7740 C   0  0  1  0  0  0  0  0  0  0  0  0
   -1.7370   14.7520   -1.4430 C   0  0  0  0  0  0  0  0  0  0  0  0
    0.0020   13.8890    1.4930 N   0  0  0  0  0  0  0  0  0  0  0  0
   -1.4310   14.8590   -2.6250 O   0  0  0  0  0  0  0  0  0  0  0  0
   -0.8270   14.2800   -0.5270 N   0  0  0  0  0  0  0  0  0  0  0  0
  1  2  1  0
  2  3  2  3
  2  4  1  0
  3  5  1  0
  4  6  2  0
  4  7  1  0
  5  8  1  0
  6  9  1  0
  7 10  2  0
  8 11  1  0
  9 12  2  0
 10 12  1  0
  9 13  1  0
 12 14  1  0
 13 15  2  0
 11 16  2  3
 14 17  2  0
 15 17  1  0
 16 18  1  0
 16 19  1  0
 20 18  1  6
 19 21  1  0
 20 22  1  0
 22 21  1  6
 20 23  1  0
 23 24  1  0
 22 25  1  0
 24 26  1  1
 25 27  2  0
 24 28  1  0
 25 28  1  0
M  END
