mac-x0326-mac-x0348
     RDKit          3D

 25 28  0  0  0  0  0  0  0  0999 V2000
   -6.3200   15.5170   -1.3020 Cl  0  0  0  0  0  0  0  0  0  0  0  0
   -4.6360   15.2310   -1.1190 C   0  0  0  0  0  0  0  0  0  0  0  0
   -3.8490   15.1260   -2.2500 C   0  0  0  0  0  0  0  0  0  0  0  0
   -4.0800   15.1050    0.1520 C   0  0  0  0  0  0  0  0  0  0  0  0
   -2.4790   14.8910   -2.0960 C   0  0  0  0  0  0  0  0  0  0  0  0
   -2.7100   14.8650    0.3210 C   0  0  0  0  0  0  0  0  0  0  0  0
   -1.5980   14.7760   -3.1210 N   0  0  0  0  0  0  0  0  0  0  0  0
   -1.9140   14.7610   -0.8310 C   0  0  0  0  0  0  0  0  0  0  0  0
   -0.3910   14.5730   -2.6910 C   0  0  0  0  0  0  0  0  0  0  0  0
   -0.2130   14.4830   -0.9860 S   0  0  0  0  0  0  0  0  0  0  0  0
    0.7050   14.4600   -3.6920 C   0  0  1  0  0  0  0  0  0  0  0  0
    0.9680   13.0220   -4.1710 C   0  0  0  0  0  0  0  0  0  0  0  0
    0.2200   15.2860   -4.8650 C   0  0  2  0  0  0  0  0  0  0  0  0
    1.0540   12.1090   -3.0000 C   0  0  0  0  0  0  0  0  0  0  0  0
    0.8750   16.6570   -5.0380 C   0  0  0  0  0  0  0  0  0  0  0  0
   -1.2700   15.5870   -5.0840 C   0  0  2  0  0  0  0  0  0  0  0  0
    0.3680   10.9610   -3.1660 O   0  0  0  0  0  0  0  0  0  0  0  0
    1.6590   12.3350   -1.9830 O   0  0  0  0  0  0  0  0  0  0  0  0
   -0.0070   17.3940   -5.9420 N   0  0  0  0  0  0  0  0  0  0  0  0
   -1.3580   17.0910   -5.4590 C   0  0  1  0  0  0  0  0  0  0  0  0
   -2.5620   14.9980   -4.6320 C   0  0  0  0  0  0  0  0  0  0  0  0
    0.4060   18.7660   -6.1240 C   0  0  0  0  0  0  0  0  0  0  0  0
   -3.6620   15.4560   -5.2420 C   0  0  0  0  0  0  0  0  0  0  0  0
   -2.5210   17.3010   -6.3610 C   0  0  0  0  0  0  0  0  0  0  0  0
   -3.5960   16.4990   -6.2590 C   0  0  0  0  0  0  0  0  0  0  0  0
  1  2  1  0
  2  3  2  0
  2  4  1  0
  3  5  1  0
  4  6  2  0
  5  7  1  0
  5  8  2  0
  6  8  1  0
  7  9  2  0
  8 10  1  0
  9 10  1  0
  9 11  1  0
 11 12  1  6
 11 13  1  0
 12 14  1  0
 13 15  1  1
 13 16  1  0
 14 17  1  0
 14 18  2  0
 15 19  1  0
 16 20  1  0
 19 20  1  0
 16 21  1  1
 19 22  1  0
 21 23  2  0
 20 24  1  6
 23 25  1  0
 24 25  2  0
M  END
