mac-x0159-diamond-x0685_1_A
     RDKit          3D

 31 34  0  0  0  0  0  0  0  0999 V2000
   -4.4680   15.3220    1.0830 N   0  0  0  0  0  0  0  0  0  0  0  0
   -3.5820   14.7170    0.1040 C   0  0  2  0  0  0  0  0  0  0  0  0
   -2.1120   14.9400    0.4640 C   0  0  2  0  0  0  0  0  0  0  0  0
   -3.9190   15.3020   -1.1860 N   0  0  0  0  0  0  0  0  0  0  0  0
   -3.0700   14.8600   -2.3110 C   0  0  0  0  0  0  0  0  0  0  0  0
   -1.3030   14.4810   -0.7410 C   0  0  1  0  0  0  0  0  0  0  0  0
   -1.4910   14.1630    1.5200 N   0  0  0  0  0  0  0  0  0  0  0  0
   -1.6360   15.0780   -2.0320 N   0  0  0  0  0  0  0  0  0  0  0  0
   -0.0170   14.8650   -0.2030 N   0  0  0  0  0  0  0  0  0  0  0  0
   -0.0870   14.2650    1.1300 C   0  0  0  0  0  0  0  0  0  0  0  0
   -0.7300   14.7220   -3.1840 C   0  0  1  0  0  0  0  0  0  0  0  0
   -1.2700   13.6570   -4.1280 C   0  0  0  0  0  0  0  0  0  0  0  0
   -0.3410   15.9420   -4.0230 C   0  0  0  0  0  0  0  0  0  0  0  0
   -0.5700   12.2920   -4.1790 C   0  0  2  0  0  0  0  0  0  0  0  0
    0.9230   16.4860   -4.1350 C   0  0  0  0  0  0  0  0  0  0  0  0
   -1.3120   16.6140   -4.7830 N   0  0  0  0  0  0  0  0  0  0  0  0
   -1.6720   11.2430   -4.2830 C   0  0  0  0  0  0  0  0  0  0  0  0
    0.5480   11.8870   -2.7780 S   0  0  0  0  0  0  0  0  0  0  0  0
   -0.7710   17.6270   -5.4270 C   0  0  0  0  0  0  0  0  0  0  0  0
    0.9030   17.8440   -5.1780 S   0  0  0  0  0  0  0  0  0  0  0  0
   -1.5030   18.5570   -6.3270 C   0  0  0  0  0  0  0  0  0  0  0  0
   -1.2690    9.9800   -4.9050 N   0  0  0  0  0  0  0  0  0  0  0  0
    2.0420   12.3020   -3.1840 O   0  0  0  0  0  0  0  0  0  0  0  0
    0.4520   10.3030   -2.5490 O   0  0  0  0  0  0  0  0  0  0  0  0
    0.1050   12.6220   -1.4350 O   0  0  0  0  0  0  0  0  0  0  0  0
   -0.7050   10.1100   -6.2580 C   0  0  0  0  0  0  0  0  0  0  0  0
   -0.4370    8.6620   -6.6860 C   0  0  0  0  0  0  0  0  0  0  0  0
   -1.6150   10.8560   -7.2630 C   0  0  0  0  0  0  0  0  0  0  0  0
    0.1800    8.6200   -8.0700 C   0  0  0  0  0  0  0  0  0  0  0  0
   -1.1040   10.7460   -8.7010 C   0  0  0  0  0  0  0  0  0  0  0  0
   -0.7480    9.3050   -9.0770 C   0  0  0  0  0  0  0  0  0  0  0  0
  2  1  1  1
  2  3  1  0
  2  4  1  0
  4  5  1  0
  3  6  1  0
  3  7  1  1
  5  8  1  0
  6  8  1  0
  6  9  1  1
  7 10  1  0
  9 10  1  0
  8 11  1  0
 11 12  1  6
 11 13  1  0
 14 12  1  1
 13 15  2  0
 13 16  1  0
 14 17  1  0
 14 18  1  0
 16 19  2  0
 15 20  1  0
 19 20  1  0
 19 21  1  0
 17 22  1  0
 18 23  1  0
 18 24  1  0
 18 25  1  0
 22 26  1  0
 26 27  1  0
 26 28  1  0
 27 29  1  0
 28 30  1  0
 29 31  1  0
 30 31  1  0
M  END
