mac-x0436-diamond-x0465_0_A
     RDKit          3D

 18 20  0  0  0  0  0  0  0  0999 V2000
    0.6450   11.2640   -2.8990 O   0  0  0  0  0  0  0  0  0  0  0  0
    1.0660   12.5030   -3.2410 C   0  0  0  0  0  0  0  0  0  0  0  0
    1.4450   13.3080   -2.4060 O   0  0  0  0  0  0  0  0  0  0  0  0
    1.0060   12.7900   -4.7400 C   0  0  2  0  0  0  0  0  0  0  0  0
   -0.2430   13.5470   -5.1410 C   0  0  0  0  0  0  0  0  0  0  0  0
    0.9950   11.5600   -5.4700 O   0  0  0  0  0  0  0  0  0  0  0  0
   -1.0710   12.5080   -5.8670 C   0  0  1  0  0  0  0  0  0  0  0  0
   -0.1000   11.5680   -6.4360 N   0  0  0  0  0  0  0  0  0  0  0  0
   -2.2170   11.8830   -5.0670 C   0  0  0  0  0  0  0  0  0  0  0  0
   -0.5700   10.1740   -6.6360 C   0  0  1  0  0  0  0  0  0  0  0  0
   -2.6400   12.3720   -4.0170 O   0  0  0  0  0  0  0  0  0  0  0  0
   -0.2740    9.5170   -5.4830 F   0  0  0  0  0  0  0  0  0  0  0  0
   -2.7620   10.7410   -5.5720 N   0  0  0  0  0  0  0  0  0  0  0  0
   -2.1360   10.1280   -6.7320 C   0  0  2  0  0  0  0  0  0  0  0  0
    0.0220    9.3240   -7.7430 C   0  0  0  0  0  0  0  0  0  0  0  0
   -0.6090    8.1990   -8.1290 C   0  0  0  0  0  0  0  0  0  0  0  0
   -2.5990    8.6960   -6.8220 C   0  0  0  0  0  0  0  0  0  0  0  0
   -1.8550    7.7960   -7.4920 C   0  0  0  0  0  0  0  0  0  0  0  0
  1  2  1  0
  2  3  2  0
  4  2  1  1
  4  5  1  0
  4  6  1  0
  7  5  1  1
  6  8  1  0
  7  8  1  0
  7  9  1  0
  8 10  1  0
  9 11  2  0
 10 12  1  1
  9 13  1  0
 10 14  1  0
 13 14  1  0
 10 15  1  0
 15 16  2  0
 14 17  1  1
 16 18  1  0
 17 18  2  0
M  END
