mac-x0417-mac-x0223
     RDKit          3D

 22 24  0  0  0  0  0  0  0  0999 V2000
    1.1810   12.9250   -2.3000 O   0  0  0  0  0  0  0  0  0  0  0  0
    0.7300   12.1780   -3.3280 C   0  0  0  0  0  0  0  0  0  0  0  0
    0.4440   11.0110   -3.1020 O   0  0  0  0  0  0  0  0  0  0  0  0
    0.6580   12.9000   -4.6650 C   0  0  1  0  0  0  0  0  0  0  0  0
    0.3970   11.9010   -5.7810 C   0  0  0  0  0  0  0  0  0  0  0  0
   -0.1690   14.2260   -4.7260 C   0  0  0  0  0  0  0  0  0  0  0  0
    1.3070   11.7770   -6.7530 N   0  0  0  0  0  0  0  0  0  0  0  0
   -0.6890   10.9830   -6.0030 C   0  0  0  0  0  0  0  0  0  0  0  0
   -1.5830   14.2240   -4.7920 C   0  0  0  0  0  0  0  0  0  0  0  0
    0.4800   15.4980   -4.7040 C   0  0  0  0  0  0  0  0  0  0  0  0
    0.8490   10.8030   -7.6200 O   0  0  0  0  0  0  0  0  0  0  0  0
   -0.3360   10.3240   -7.1780 C   0  0  0  0  0  0  0  0  0  0  0  0
   -1.9010   10.6120   -5.3890 C   0  0  0  0  0  0  0  0  0  0  0  0
   -0.2550   16.6950   -4.7420 C   0  0  0  0  0  0  0  0  0  0  0  0
   -2.3120   15.4310   -4.8320 C   0  0  0  0  0  0  0  0  0  0  0  0
    0.2210   17.9780   -4.7190 O   0  0  0  0  0  0  0  0  0  0  0  0
   -1.0880    9.3270   -7.7950 C   0  0  0  0  0  0  0  0  0  0  0  0
   -2.6850    9.6070   -5.9830 C   0  0  0  0  0  0  0  0  0  0  0  0
   -1.6370   16.6420   -4.8060 C   0  0  0  0  0  0  0  0  0  0  0  0
    1.1830   18.2940   -5.7030 C   0  0  0  0  0  0  0  0  0  0  0  0
   -2.3260   17.8320   -4.8380 O   0  0  0  0  0  0  0  0  0  0  0  0
   -2.2870    8.9750   -7.1660 C   0  0  0  0  0  0  0  0  0  0  0  0
  1  2  1  0
  2  3  2  0
  4  2  1  1
  4  5  1  0
  4  6  1  0
  5  7  2  0
  5  8  1  0
  6  9  2  0
  6 10  1  0
  7 11  1  0
  8 12  2  0
 11 12  1  0
  8 13  1  0
 10 14  2  0
  9 15  1  0
 14 16  1  0
 12 17  1  0
 13 18  2  0
 14 19  1  0
 15 19  2  0
 16 20  1  0
 19 21  1  0
 17 22  2  0
 18 22  1  0
M  END
