mac-x0226-diamond-x0681_0_A
     RDKit          3D

 28 31  0  0  0  0  0  0  0  0999 V2000
    1.7040   12.3380   -2.1230 O   0  0  0  0  0  0  0  0  0  0  0  0
    0.4700   12.0160   -2.6980 C   0  0  0  0  0  0  0  0  0  0  0  0
    0.1200   10.7350   -2.1450 O   0  0  0  0  0  0  0  0  0  0  0  0
   -0.5120   13.1020   -2.2190 C   0  0  0  0  0  0  0  0  0  0  0  0
    0.6120   11.9090   -4.1860 C   0  0  0  0  0  0  0  0  0  0  0  0
   -2.0010   12.8160   -2.2620 C   0  0  0  0  0  0  0  0  0  0  0  0
    1.4830   12.6350   -5.0150 C   0  0  0  0  0  0  0  0  0  0  0  0
   -0.0560   11.0890   -5.0750 C   0  0  0  0  0  0  0  0  0  0  0  0
   -2.7380   13.9570   -2.7780 N   0  0  0  0  0  0  0  0  0  0  0  0
    1.3730   12.3000   -6.2990 N   0  0  0  0  0  0  0  0  0  0  0  0
    0.4270   11.3450   -6.3370 N   0  0  0  0  0  0  0  0  0  0  0  0
   -3.4950   14.6810   -2.0430 C   0  0  0  0  0  0  0  0  0  0  0  0
    0.0470   10.7360   -7.5620 C   0  0  0  0  0  0  0  0  0  0  0  0
   -4.2290   15.7340   -2.4510 N   0  0  0  0  0  0  0  0  0  0  0  0
   -1.0950    9.9310   -7.6180 C   0  0  0  0  0  0  0  0  0  0  0  0
    0.7870   10.9170   -8.7240 C   0  0  0  0  0  0  0  0  0  0  0  0
   -3.6320   14.3560   -0.5540 C   0  0  2  0  0  0  0  0  0  0  0  0
   -1.4750    9.3310   -8.8090 C   0  0  0  0  0  0  0  0  0  0  0  0
    0.4220   10.3270   -9.9160 C   0  0  0  0  0  0  0  0  0  0  0  0
   -4.7150   13.3260   -0.4490 C   0  0  0  0  0  0  0  0  0  0  0  0
   -3.9100   15.6010    0.3090 C   0  0  0  0  0  0  0  0  0  0  0  0
   -0.7170    9.5280   -9.9610 C   0  0  0  0  0  0  0  0  0  0  0  0
   -5.7210   13.4230    0.4690 N   0  0  0  0  0  0  0  0  0  0  0  0
   -4.5010   15.2150    1.6270 C   0  0  0  0  0  0  0  0  0  0  0  0
   -4.8610   12.2390   -1.1830 N   0  0  0  0  0  0  0  0  0  0  0  0
   -5.8440   14.5010    1.4090 C   0  0  0  0  0  0  0  0  0  0  0  0
   -6.5500   12.3540    0.3290 C   0  0  0  0  0  0  0  0  0  0  0  0
   -6.0000   11.6310   -0.7060 C   0  0  0  0  0  0  0  0  0  0  0  0
  2  1  1  0
  2  3  1  0
  2  4  1  0
  2  5  1  0
  4  6  1  0
  5  7  1  0
  5  8  2  0
  6  9  1  0
  7 10  2  0
  8 11  1  0
 10 11  1  0
  9 12  2  3
 11 13  1  0
 12 14  1  0
 13 15  2  0
 13 16  1  0
 17 12  1  6
 15 18  1  0
 16 19  2  0
 17 20  1  0
 17 21  1  0
 18 22  2  0
 19 22  1  0
 20 23  1  0
 21 24  1  0
 20 25  2  0
 23 26  1  0
 24 26  1  0
 23 27  1  0
 25 28  1  0
 27 28  2  0
M  END
