mac-x1493-diamond-x0864_0_A
     RDKit          3D

 27 29  0  0  0  0  0  0  0  0999 V2000
   -1.3280   14.8750   -1.8650 O   0  0  0  0  0  0  0  0  0  0  0  0
   -2.4340   14.8750   -2.6290 C   0  0  0  0  0  0  0  0  0  0  0  0
   -2.3370   14.8850   -3.9140 N   0  0  0  0  0  0  0  0  0  0  0  0
   -3.6500   14.8410   -1.8190 C   0  0  0  0  0  0  0  0  0  0  0  0
   -1.1570   14.8960   -4.7870 C   0  0  0  0  0  0  0  0  0  0  0  0
   -3.6920   15.0130   -0.4370 C   0  0  0  0  0  0  0  0  0  0  0  0
   -4.8360   14.6130   -2.4860 C   0  0  0  0  0  0  0  0  0  0  0  0
    0.1170   14.3590   -4.1430 C   0  0  0  0  0  0  0  0  0  0  0  0
   -4.9390   14.9270    0.2100 C   0  0  0  0  0  0  0  0  0  0  0  0
   -6.0420   14.5290   -1.8910 N   0  0  0  0  0  0  0  0  0  0  0  0
    0.5560   12.8770   -4.3380 C   0  0  1  0  0  0  0  0  0  0  0  0
   -6.0940   14.6770   -0.5660 C   0  0  0  0  0  0  0  0  0  0  0  0
   -5.0720   15.0760    1.5890 C   0  0  0  0  0  0  0  0  0  0  0  0
    0.8500   12.1700   -3.0120 C   0  0  0  0  0  0  0  0  0  0  0  0
   -7.3260   14.5750    0.0620 C   0  0  0  0  0  0  0  0  0  0  0  0
   -6.3310   14.9640    2.1990 C   0  0  0  0  0  0  0  0  0  0  0  0
   -0.2290   12.0130   -5.2810 N   0  0  0  0  0  0  0  0  0  0  0  0
    0.4800   10.8720   -2.9620 O   0  0  0  0  0  0  0  0  0  0  0  0
    1.3720   12.6670   -2.0320 O   0  0  0  0  0  0  0  0  0  0  0  0
   -7.4580   14.7110    1.4380 C   0  0  0  0  0  0  0  0  0  0  0  0
   -1.3750   11.3590   -4.8410 C   0  0  0  0  0  0  0  0  0  0  0  0
    0.4920   11.5090   -6.3670 C   0  0  0  0  0  0  0  0  0  0  0  0
    1.5780   11.9380   -6.7340 O   0  0  0  0  0  0  0  0  0  0  0  0
   -1.8730   10.2880   -5.4870 C   0  0  0  0  0  0  0  0  0  0  0  0
   -0.0960   10.3600   -7.1060 C   0  0  0  0  0  0  0  0  0  0  0  0
   -1.2210    9.7890   -6.6700 C   0  0  0  0  0  0  0  0  0  0  0  0
   -1.9970    8.3380   -7.5550 Br  0  0  0  0  0  0  0  0  0  0  0  0
  1  2  1  0
  2  3  2  3
  2  4  1  0
  3  5  1  0
  4  6  2  0
  4  7  1  0
  5  8  1  0
  6  9  1  0
  7 10  2  0
 11  8  1  1
  9 12  2  0
 10 12  1  0
  9 13  1  0
 11 14  1  0
 12 15  1  0
 13 16  2  0
 11 17  1  0
 14 18  1  0
 14 19  2  0
 15 20  2  0
 16 20  1  0
 17 21  1  0
 17 22  1  0
 22 23  2  0
 21 24  2  0
 22 25  1  0
 24 26  1  0
 25 26  2  0
 26 27  1  0
M  END
