mac-x0387-diamond-x0962_0_A
     RDKit          3D

 17 19  0  0  0  0  0  0  0  0999 V2000
   -3.5950   15.3410    1.6260 N   0  0  0  0  0  0  0  0  0  0  0  0
   -2.4110   14.9510    0.9840 C   0  0  0  0  0  0  0  0  0  0  0  0
   -1.4600   14.6600    1.8770 N   0  0  0  0  0  0  0  0  0  0  0  0
   -2.2020   14.8650   -0.4530 C   0  0  0  0  0  0  0  0  0  0  0  0
   -0.8990   14.4710   -0.8360 C   0  0  0  0  0  0  0  0  0  0  0  0
   -0.2610   14.2990    1.4440 C   0  0  0  0  0  0  0  0  0  0  0  0
   -3.0840   15.1140   -1.5740 C   0  0  0  0  0  0  0  0  0  0  0  0
    0.0620   14.1950    0.1160 C   0  0  0  0  0  0  0  0  0  0  0  0
   -0.5220   14.3480   -2.1820 C   0  0  0  0  0  0  0  0  0  0  0  0
   -2.6840   14.9790   -2.9040 C   0  0  0  0  0  0  0  0  0  0  0  0
   -4.4800   15.5280   -1.4680 C   0  0  0  0  0  0  0  0  0  0  0  0
   -1.4080   14.5990   -3.2140 C   0  0  0  0  0  0  0  0  0  0  0  0
   -5.1390   14.8420   -0.3940 C   0  0  0  0  0  0  0  0  0  0  0  0
   -4.5410   13.9360    0.4270 N   0  0  0  0  0  0  0  0  0  0  0  0
   -6.4220   14.9310    0.0190 C   0  0  0  0  0  0  0  0  0  0  0  0
   -5.4920   13.5240    1.2930 C   0  0  0  0  0  0  0  0  0  0  0  0
   -6.6410   14.1130    1.0750 N   0  0  0  0  0  0  0  0  0  0  0  0
  1  2  1  0
  2  3  2  0
  2  4  1  0
  4  5  2  0
  3  6  1  0
  4  7  1  0
  5  8  1  0
  6  8  2  0
  5  9  1  0
  7 10  2  0
  7 11  1  0
  9 12  2  0
 10 12  1  0
 11 13  1  0
 13 14  1  0
 13 15  2  0
 14 16  1  0
 15 17  1  0
 16 17  2  0
M  END
