mac-x0417-mac-x0412
     RDKit          3D

 27 30  0  0  0  0  0  0  0  0999 V2000
    1.6020   12.9780   -2.9070 O   0  0  0  0  0  0  0  0  0  0  0  0
    0.7730   11.9930   -3.2820 C   0  0  0  0  0  0  0  0  0  0  0  0
    0.8190   10.9000   -2.7490 O   0  0  0  0  0  0  0  0  0  0  0  0
   -0.2120   12.3210   -4.3770 C   0  0  1  0  0  0  0  0  0  0  0  0
   -0.5860   13.7920   -4.5450 C   0  0  0  0  0  0  0  0  0  0  0  0
   -0.0210   11.5470   -5.6370 C   0  0  0  0  0  0  0  0  0  0  0  0
   -2.0060   14.0110   -3.9860 C   0  0  0  0  0  0  0  0  0  0  0  0
    1.0220   11.7110   -6.4700 N   0  0  0  0  0  0  0  0  0  0  0  0
   -0.9020   10.5620   -6.0970 C   0  0  0  0  0  0  0  0  0  0  0  0
   -2.0890   15.1220   -2.9480 C   0  0  0  0  0  0  0  0  0  0  0  0
    0.8080   10.7980   -7.5010 O   0  0  0  0  0  0  0  0  0  0  0  0
   -0.3470   10.1140   -7.2690 C   0  0  0  0  0  0  0  0  0  0  0  0
   -2.1050   10.0070   -5.6400 C   0  0  0  0  0  0  0  0  0  0  0  0
   -0.9140    9.1180   -8.0570 C   0  0  0  0  0  0  0  0  0  0  0  0
   -2.7050    9.0070   -6.4020 C   0  0  0  0  0  0  0  0  0  0  0  0
   -3.2690   15.0350   -2.0040 C   0  0  0  0  0  0  0  0  0  0  0  0
   -2.1210    8.5690   -7.5900 C   0  0  0  0  0  0  0  0  0  0  0  0
   -3.1910   14.9520   -0.6450 C   0  0  0  0  0  0  0  0  0  0  0  0
   -4.5510   15.0510   -2.6550 C   0  0  0  0  0  0  0  0  0  0  0  0
   -4.4050   14.8580    0.1650 C   0  0  0  0  0  0  0  0  0  0  0  0
   -5.6580   14.7280   -1.9990 C   0  0  0  0  0  0  0  0  0  0  0  0
   -5.6340   14.3230   -0.5550 C   0  0  2  0  0  0  0  0  0  0  0  0
   -4.4600   15.1990    1.4600 C   0  0  0  0  0  0  0  0  0  0  0  0
   -6.9280   14.7500    0.1710 C   0  0  0  0  0  0  0  0  0  0  0  0
   -5.7750   15.0170    2.1180 C   0  0  0  0  0  0  0  0  0  0  0  0
   -7.9430   15.0350   -0.4610 O   0  0  0  0  0  0  0  0  0  0  0  0
   -6.9130   14.7930    1.5480 N   0  0  0  0  0  0  0  0  0  0  0  0
  1  2  1  0
  2  3  2  0
  2  4  1  0
  4  5  1  6
  4  6  1  0
  5  7  1  0
  6  8  2  0
  6  9  1  0
  7 10  1  0
  8 11  1  0
  9 12  2  0
 11 12  1  0
  9 13  1  0
 12 14  1  0
 13 15  2  0
 10 16  1  0
 14 17  2  0
 15 17  1  0
 16 18  2  0
 16 19  1  0
 18 20  1  0
 19 21  2  0
 20 22  1  0
 22 21  1  6
 20 23  2  0
 22 24  1  0
 23 25  1  0
 24 26  2  0
 24 27  1  0
 25 27  2  0
M  END
