mac-x0179-mac-x0568
     RDKit          3D

 28 30  0  0  0  0  0  0  0  0999 V2000
    1.4620   12.8460   -2.2620 O   0  0  0  0  0  0  0  0  0  0  0  0
    0.9100   12.0850   -3.2290 C   0  0  0  0  0  0  0  0  0  0  0  0
    0.6070   10.9330   -2.9830 O   0  0  0  0  0  0  0  0  0  0  0  0
    0.7520   12.8350   -4.5410 C   0  0  0  0  0  0  0  0  0  0  0  0
    0.0140   12.0160   -5.4860 N   0  0  0  0  0  0  0  0  0  0  0  0
    0.7100   11.4880   -6.5380 C   0  0  0  0  0  0  0  0  0  0  0  0
   -1.1860   11.3740   -5.3310 C   0  0  0  0  0  0  0  0  0  0  0  0
    1.7820   11.8330   -6.9530 O   0  0  0  0  0  0  0  0  0  0  0  0
   -2.1750   11.5610   -4.5520 N   0  0  0  0  0  0  0  0  0  0  0  0
   -0.0650   10.3760   -7.0750 C   0  0  0  0  0  0  0  0  0  0  0  0
   -1.2200   10.2940   -6.3320 C   0  0  0  0  0  0  0  0  0  0  0  0
   -2.3020   12.6010   -3.5530 C   0  0  0  0  0  0  0  0  0  0  0  0
    0.2120    9.5070   -8.1160 C   0  0  0  0  0  0  0  0  0  0  0  0
   -2.1780    9.3250   -6.5830 C   0  0  0  0  0  0  0  0  0  0  0  0
   -2.4780   13.9440   -4.2670 C   0  0  0  0  0  0  0  0  0  0  0  0
   -0.7430    8.5200   -8.3910 C   0  0  0  0  0  0  0  0  0  0  0  0
   -1.9260    8.4280   -7.6310 C   0  0  0  0  0  0  0  0  0  0  0  0
   -2.4420   15.1320   -3.3140 C   0  0  0  0  0  0  0  0  0  0  0  0
   -3.5730   15.0570   -2.4050 N   0  0  0  0  0  0  0  0  0  0  0  0
   -3.4800   14.9440   -1.1310 C   0  0  0  0  0  0  0  0  0  0  0  0
   -2.3260   14.8810   -0.3830 N   0  0  0  0  0  0  0  0  0  0  0  0
   -4.7800   14.8470   -0.4120 C   0  0  0  0  0  0  0  0  0  0  0  0
   -5.9790   14.8900   -1.1080 C   0  0  0  0  0  0  0  0  0  0  0  0
   -4.8320   14.7010    0.9710 C   0  0  0  0  0  0  0  0  0  0  0  0
   -7.1990   14.7930   -0.5260 N   0  0  0  0  0  0  0  0  0  0  0  0
   -6.0750   14.5990    1.5940 C   0  0  0  0  0  0  0  0  0  0  0  0
   -7.2290   14.6470    0.8190 C   0  0  0  0  0  0  0  0  0  0  0  0
   -8.5760   14.5380    1.4680 C   0  0  0  0  0  0  0  0  0  0  0  0
  1  2  1  0
  2  3  2  0
  2  4  1  0
  4  5  1  0
  5  6  1  0
  5  7  1  0
  6  8  2  0
  7  9  2  3
  6 10  1  0
  7 11  1  0
 10 11  2  0
  9 12  1  0
 10 13  1  0
 11 14  1  0
 12 15  1  0
 13 16  2  0
 14 17  2  0
 16 17  1  0
 15 18  1  0
 18 19  1  0
 19 20  2  3
 20 21  1  0
 20 22  1  0
 22 23  2  0
 22 24  1  0
 23 25  1  0
 24 26  2  0
 25 27  2  0
 26 27  1  0
 27 28  1  0
M  END
