mac-x0348-diamond-x0837_0_A
     RDKit          3D

 25 27  0  0  0  0  0  0  0  0999 V2000
    0.4110   18.6690   -6.0690 C   0  0  0  0  0  0  0  0  0  0  0  0
   -0.0290   17.4460   -5.3970 N   0  0  0  0  0  0  0  0  0  0  0  0
    0.7150   16.7210   -4.5970 C   0  0  0  0  0  0  0  0  0  0  0  0
   -1.2350   16.8990   -5.5020 C   0  0  0  0  0  0  0  0  0  0  0  0
    0.0100   15.6050   -4.1260 C   0  0  0  0  0  0  0  0  0  0  0  0
   -1.2230   15.7450   -4.7280 C   0  0  0  0  0  0  0  0  0  0  0  0
   -2.3750   17.2490   -6.1840 C   0  0  0  0  0  0  0  0  0  0  0  0
    0.6690   14.6880   -3.2260 C   0  0  2  0  0  0  0  0  0  0  0  0
   -2.3250   14.9380   -4.6420 C   0  0  0  0  0  0  0  0  0  0  0  0
   -3.4750   16.4320   -6.0790 C   0  0  0  0  0  0  0  0  0  0  0  0
    0.4810   13.2610   -3.7070 C   0  0  0  0  0  0  0  0  0  0  0  0
    0.6520   14.6920   -1.7890 C   0  0  0  0  0  0  0  0  0  0  0  0
   -3.4470   15.2760   -5.3110 C   0  0  0  0  0  0  0  0  0  0  0  0
    0.5050   12.1910   -2.7650 C   0  0  0  0  0  0  0  0  0  0  0  0
   -0.5930   14.6900   -0.9400 C   0  0  0  0  0  0  0  0  0  0  0  0
    0.7420   12.3540   -1.5420 O   0  0  0  0  0  0  0  0  0  0  0  0
    0.2360   10.8790   -3.2000 O   0  0  0  0  0  0  0  0  0  0  0  0
   -2.4700   14.6820   -2.0240 I   0  0  0  0  0  0  0  0  0  0  0  0
   -4.0570   14.4480   -0.6180 C   0  0  1  0  0  0  0  0  0  0  0  0
   -3.5910   15.1450    0.5650 C   0  0  0  0  0  0  0  0  0  0  0  0
   -5.3280   15.1190   -1.0650 C   0  0  0  0  0  0  0  0  0  0  0  0
   -4.4470   15.3260    1.5180 C   0  0  0  0  0  0  0  0  0  0  0  0
   -6.3220   14.8580    0.0450 C   0  0  0  0  0  0  0  0  0  0  0  0
   -7.5100   14.6740   -0.1850 O   0  0  0  0  0  0  0  0  0  0  0  0
   -5.7870   14.8470    1.3970 N   0  0  0  0  0  0  0  0  0  0  0  0
  1  2  1  0
  2  3  1  0
  2  4  1  0
  3  5  2  0
  4  6  2  0
  5  6  1  0
  4  7  1  0
  5  8  1  0
  6  9  1  0
  7 10  2  0
  8 11  1  6
  8 12  1  0
  9 13  2  0
 10 13  1  0
 11 14  1  0
 12 15  1  0
 14 16  2  0
 14 17  1  0
 15 18  1  0
 19 18  1  6
 19 20  1  0
 19 21  1  0
 20 22  2  0
 21 23  1  0
 23 24  2  0
 22 25  1  0
 23 25  1  0
M  END
