mac-x0568-mac-x0358
     RDKit          3D

 22 23  0  0  0  0  0  0  0  0999 V2000
   -8.4950   14.2850    1.3500 C   0  0  0  0  0  0  0  0  0  0  0  0
   -7.1910   14.5910    0.6780 C   0  0  0  0  0  0  0  0  0  0  0  0
   -6.0330   14.7330    1.4380 C   0  0  0  0  0  0  0  0  0  0  0  0
   -7.1970   14.7230   -0.6640 N   0  0  0  0  0  0  0  0  0  0  0  0
   -6.0180   15.0040   -1.2640 C   0  0  0  0  0  0  0  0  0  0  0  0
   -4.8200   15.0220    0.8020 C   0  0  0  0  0  0  0  0  0  0  0  0
   -4.8210   15.1610   -0.5870 C   0  0  0  0  0  0  0  0  0  0  0  0
   -3.6160   15.4690   -1.3900 C   0  0  0  0  0  0  0  0  0  0  0  0
   -3.6900   15.7260   -2.6680 N   0  0  0  0  0  0  0  0  0  0  0  0
   -2.3930   15.4790   -0.7610 N   0  0  0  0  0  0  0  0  0  0  0  0
   -2.5910   16.0620   -3.5950 C   0  0  0  0  0  0  0  0  0  0  0  0
   -2.1580   14.8460   -4.3420 C   0  0  0  0  0  0  0  0  0  0  0  0
   -3.0230   14.1680   -5.2090 C   0  0  0  0  0  0  0  0  0  0  0  0
   -0.8670   14.3720   -4.1430 C   0  0  0  0  0  0  0  0  0  0  0  0
   -0.4160   13.2230   -4.7710 C   0  0  0  0  0  0  0  0  0  0  0  0
   -2.5870   13.0130   -5.8500 C   0  0  0  0  0  0  0  0  0  0  0  0
    0.9840   12.7760   -4.4750 C   0  0  0  0  0  0  0  0  0  0  0  0
   -1.2890   12.5500   -5.6170 C   0  0  0  0  0  0  0  0  0  0  0  0
    1.0510   12.1550   -3.1050 C   0  0  0  0  0  0  0  0  0  0  0  0
   -0.9200   11.4050   -6.2500 O   0  0  0  0  0  0  0  0  0  0  0  0
    1.7560   12.8800   -2.2190 O   0  0  0  0  0  0  0  0  0  0  0  0
    0.5250   11.1070   -2.7670 O   0  0  0  0  0  0  0  0  0  0  0  0
  1  2  1  0
  2  3  2  0
  2  4  1  0
  4  5  2  0
  3  6  1  0
  5  7  1  0
  6  7  2  0
  7  8  1  0
  8  9  2  3
  8 10  1  0
  9 11  1  0
 11 12  1  0
 12 13  2  0
 12 14  1  0
 14 15  2  0
 13 16  1  0
 15 17  1  0
 15 18  1  0
 16 18  2  0
 17 19  1  0
 18 20  1  0
 19 21  1  0
 19 22  2  0
M  END
