mac-x0385-mac-x0277
     RDKit          3D

 23 24  0  0  0  0  0  0  0  0999 V2000
   -5.3950   15.5280   -0.7680 C   0  0  0  0  0  0  0  0  0  0  0  0
   -3.9950   15.3300   -0.3100 C   0  0  0  0  0  0  0  0  0  0  0  0
   -3.0140   15.0290   -1.2150 C   0  0  0  0  0  0  0  0  0  0  0  0
   -3.5850   15.4310    1.0100 C   0  0  0  0  0  0  0  0  0  0  0  0
   -4.4790   15.7330    2.0230 N   0  0  0  0  0  0  0  0  0  0  0  0
   -2.3210   15.2560    1.4080 N   0  0  0  0  0  0  0  0  0  0  0  0
   -1.7430   14.8520   -0.8640 N   0  0  0  0  0  0  0  0  0  0  0  0
   -1.4690   14.9840    0.4380 C   0  0  0  0  0  0  0  0  0  0  0  0
   -0.0770   14.8130    0.7980 C   0  0  0  0  0  0  0  0  0  0  0  0
    0.4790   13.7350   -0.0640 C   0  0  0  0  0  0  0  0  0  0  0  0
   -0.4130   13.1180   -1.1240 C   0  0  0  0  0  0  0  0  0  0  0  0
    0.2460   13.3700   -2.3680 N   0  0  0  0  0  0  0  0  0  0  0  0
    0.6830   12.4900   -3.1660 C   0  0  0  0  0  0  0  0  0  0  0  0
    0.6150   11.1570   -3.0060 O   0  0  0  0  0  0  0  0  0  0  0  0
    1.3150   13.0060   -4.4180 C   0  0  0  0  0  0  0  0  0  0  0  0
    0.6800   14.3630   -4.6200 C   0  0  0  0  0  0  0  0  0  0  0  0
   -0.6890   14.4480   -4.9040 C   0  0  0  0  0  0  0  0  0  0  0  0
    1.4230   15.5430   -4.5200 C   0  0  0  0  0  0  0  0  0  0  0  0
   -1.3090   15.6880   -5.0860 C   0  0  0  0  0  0  0  0  0  0  0  0
    0.8040   16.7860   -4.7060 C   0  0  0  0  0  0  0  0  0  0  0  0
   -3.0020   15.7010   -5.4320 Cl  0  0  0  0  0  0  0  0  0  0  0  0
   -0.5590   16.8580   -4.9900 C   0  0  0  0  0  0  0  0  0  0  0  0
   -1.2690   18.4140   -5.2140 Cl  0  0  0  0  0  0  0  0  0  0  0  0
  1  2  1  0
  2  3  2  0
  2  4  1  0
  4  5  1  0
  4  6  2  0
  3  7  1  0
  6  8  1  0
  7  8  2  0
  8  9  1  0
  9 10  1  0
 10 11  1  0
 11 12  1  0
 12 13  2  3
 13 14  1  0
 13 15  1  0
 15 16  1  0
 16 17  2  0
 16 18  1  0
 17 19  1  0
 18 20  2  0
 19 21  1  0
 19 22  2  0
 20 22  1  0
 22 23  1  0
M  END
