mac-x0226-mac-x0584
     RDKit          3D

 27 31  0  0  0  0  0  0  0  0999 V2000
    0.5090   12.4570   -1.2110 O   0  0  0  0  0  0  0  0  0  0  0  0
    0.4370   11.8290   -2.3860 C   0  0  0  0  0  0  0  0  0  0  0  0
    0.1990   10.6190   -2.3730 O   0  0  0  0  0  0  0  0  0  0  0  0
    0.6860   12.6850   -3.6030 C   0  0  2  0  0  0  0  0  0  0  0  0
   -0.4310   13.6530   -4.1320 C   0  0  2  0  0  0  0  0  0  0  0  0
    0.9440   11.7270   -4.7540 C   0  0  0  0  0  0  0  0  0  0  0  0
   -0.8680   13.0110   -5.4320 N   0  0  0  0  0  0  0  0  0  0  0  0
   -0.0160   11.9910   -5.8140 N   0  0  0  0  0  0  0  0  0  0  0  0
   -0.1220   15.0660   -4.6560 C   0  0  0  0  0  0  0  0  0  0  0  0
   -1.4440   14.1600   -3.0390 N   0  0  0  0  0  0  0  0  0  0  0  0
   -0.1410   11.2270   -7.0180 C   0  0  0  0  0  0  0  0  0  0  0  0
   -2.3860   14.9580   -3.8280 C   0  0  0  0  0  0  0  0  0  0  0  0
   -1.5110   15.6940   -4.8250 C   0  0  0  0  0  0  0  0  0  0  0  0
   -1.4370   14.4260   -1.6190 C   0  0  0  0  0  0  0  0  0  0  0  0
   -1.2890   10.4780   -7.3550 C   0  0  0  0  0  0  0  0  0  0  0  0
    0.8840   11.1740   -7.9490 C   0  0  0  0  0  0  0  0  0  0  0  0
   -0.3100   14.3820   -0.7980 N   0  0  0  0  0  0  0  0  0  0  0  0
   -2.5680   14.7770   -0.9110 C   0  0  0  0  0  0  0  0  0  0  0  0
   -1.3820    9.7340   -8.5560 C   0  0  0  0  0  0  0  0  0  0  0  0
    0.8150   10.4420   -9.1590 C   0  0  0  0  0  0  0  0  0  0  0  0
   -0.3550   14.6330    0.5650 C   0  0  0  0  0  0  0  0  0  0  0  0
   -2.5270   15.0330    0.5670 C   0  0  0  0  0  0  0  0  0  0  0  0
   -3.9560   15.0010   -1.2010 C   0  0  0  0  0  0  0  0  0  0  0  0
   -0.3300    9.7170   -9.4600 C   0  0  0  0  0  0  0  0  0  0  0  0
   -1.3810   14.9400    1.2870 N   0  0  0  0  0  0  0  0  0  0  0  0
   -3.6890   15.3520    1.0540 N   0  0  0  0  0  0  0  0  0  0  0  0
   -4.5280   15.3270   -0.0360 C   0  0  0  0  0  0  0  0  0  0  0  0
  1  2  1  0
  2  3  2  0
  4  2  1  1
  4  5  1  0
  4  6  1  0
  5  7  1  0
  6  8  1  0
  7  8  1  0
  5  9  1  6
  5 10  1  0
  8 11  1  0
 10 12  1  0
  9 13  1  0
 12 13  1  0
 10 14  1  0
 11 15  2  0
 11 16  1  0
 14 17  1  0
 14 18  2  0
 15 19  1  0
 16 20  2  0
 17 21  1  0
 18 22  1  0
 18 23  1  0
 19 24  2  0
 20 24  1  0
 21 25  2  0
 22 25  1  0
 22 26  2  0
 23 27  2  0
 26 27  1  0
M  END
