mac-x0116-mac-x0436
     RDKit          3D

 33 37  0  0  0  0  0  0  0  0999 V2000
   -6.0490   14.7670    1.4560 C   0  0  0  0  0  0  0  0  0  0  0  0
   -4.6550   15.2280    1.5440 N   0  0  0  0  0  0  0  0  0  0  0  0
   -3.8670   15.0700    0.4060 C   0  0  0  0  0  0  0  0  0  0  0  0
   -6.4090   13.3100    1.5200 C   0  0  0  0  0  0  0  0  0  0  0  0
   -6.2810   12.5870    0.3670 O   0  0  0  0  0  0  0  0  0  0  0  0
   -6.8810   12.4910    2.5300 C   0  0  0  0  0  0  0  0  0  0  0  0
   -7.0490   11.2140    1.9710 C   0  0  0  0  0  0  0  0  0  0  0  0
   -6.6710   11.3230    0.6540 C   0  0  0  0  0  0  0  0  0  0  0  0
   -4.3750   15.2250   -0.8430 N   0  0  0  0  0  0  0  0  0  0  0  0
   -2.5130   14.7370    0.5310 C   0  0  0  0  0  0  0  0  0  0  0  0
   -3.5540   15.0410   -1.8960 C   0  0  0  0  0  0  0  0  0  0  0  0
   -1.7820   14.5700   -0.6390 C   0  0  0  0  0  0  0  0  0  0  0  0
   -1.7320   14.5290    1.6520 N   0  0  0  0  0  0  0  0  0  0  0  0
   -2.2420   14.7070   -1.8970 N   0  0  0  0  0  0  0  0  0  0  0  0
   -0.5260   14.2350   -0.1940 N   0  0  0  0  0  0  0  0  0  0  0  0
   -0.5570   14.2350    1.1760 C   0  0  0  0  0  0  0  0  0  0  0  0
    0.6900   13.9050   -0.9090 C   0  0  0  0  0  0  0  0  0  0  0  0
    0.8940   14.0020   -2.3400 N   0  0  0  0  0  0  0  0  0  0  0  0
    1.1340   12.9740   -3.0800 C   0  0  0  0  0  0  0  0  0  0  0  0
    1.1490   11.7390   -2.5320 O   0  0  0  0  0  0  0  0  0  0  0  0
    1.4180   12.9910   -4.5500 C   0  0  0  0  0  0  0  0  0  0  0  0
    0.1610   13.2510   -5.3510 C   0  0  0  0  0  0  0  0  0  0  0  0
   -0.5200   11.9490   -5.6870 C   0  0  0  0  0  0  0  0  0  0  0  0
   -1.7660   11.5710   -4.8870 C   0  0  0  0  0  0  0  0  0  0  0  0
   -0.0330   11.2020   -6.6290 N   0  0  0  0  0  0  0  0  0  0  0  0
   -2.1630   12.2730   -3.9720 O   0  0  0  0  0  0  0  0  0  0  0  0
   -2.3890   10.4100   -5.2620 N   0  0  0  0  0  0  0  0  0  0  0  0
   -0.6910   10.0050   -6.9290 C   0  0  0  0  0  0  0  0  0  0  0  0
   -1.8560    9.5970   -6.2650 C   0  0  0  0  0  0  0  0  0  0  0  0
   -0.1600    9.1950   -7.9270 C   0  0  0  0  0  0  0  0  0  0  0  0
   -0.7860    7.9940   -8.2630 C   0  0  0  0  0  0  0  0  0  0  0  0
   -2.4880    8.4000   -6.5920 C   0  0  0  0  0  0  0  0  0  0  0  0
   -1.9470    7.5980   -7.5980 C   0  0  0  0  0  0  0  0  0  0  0  0
  1  2  1  0
  2  3  1  0
  1  4  1  0
  4  5  1  0
  4  6  2  0
  6  7  1  0
  5  8  1  0
  7  8  2  0
  3  9  2  0
  3 10  1  0
  9 11  1  0
 10 12  2  0
 10 13  1  0
 11 14  2  0
 12 14  1  0
 12 15  1  0
 13 16  2  0
 15 16  1  0
 15 17  1  0
 17 18  1  0
 18 19  2  3
 19 20  1  0
 19 21  1  0
 21 22  1  0
 22 23  1  0
 23 24  1  0
 23 25  2  0
 24 26  2  0
 24 27  1  0
 25 28  1  0
 27 29  1  0
 28 29  2  0
 28 30  1  0
 30 31  2  0
 29 32  1  0
 31 33  1  0
 32 33  2  0
M  END
