mac-x0441-mac-x0379
     RDKit          3D

 27 29  0  0  0  0  0  0  0  0999 V2000
    0.2910   10.8680   -3.3950 O   0  0  0  0  0  0  0  0  0  0  0  0
    0.7940   12.1190   -3.4640 C   0  0  0  0  0  0  0  0  0  0  0  0
    1.1100   12.6850   -2.4290 O   0  0  0  0  0  0  0  0  0  0  0  0
    0.9050   12.6760   -4.8690 C   0  0  2  0  0  0  0  0  0  0  0  0
    0.3080   14.0940   -4.9760 C   0  0  0  0  0  0  0  0  0  0  0  0
    0.4370   11.7510   -5.9100 N   0  0  0  0  0  0  0  0  0  0  0  0
   -1.0080   14.2100   -4.3310 N   0  0  0  0  0  0  0  0  0  0  0  0
    1.1580   11.7060   -7.0610 N   0  0  0  0  0  0  0  0  0  0  0  0
   -0.6330   10.8780   -5.9540 C   0  0  0  0  0  0  0  0  0  0  0  0
   -1.2190   14.7200   -3.1740 C   0  0  0  0  0  0  0  0  0  0  0  0
    0.5430   10.7960   -7.8470 C   0  0  0  0  0  0  0  0  0  0  0  0
   -0.5720   10.2600   -7.1850 C   0  0  0  0  0  0  0  0  0  0  0  0
   -1.6730   10.6060   -4.9220 C   0  0  0  0  0  0  0  0  0  0  0  0
    0.9680   10.3890   -9.2400 C   0  0  0  0  0  0  0  0  0  0  0  0
   -0.1480   15.1940   -2.4910 O   0  0  0  0  0  0  0  0  0  0  0  0
   -1.5410    9.2300   -7.6540 C   0  0  0  0  0  0  0  0  0  0  0  0
   -2.8590    9.8570   -5.5750 C   0  0  0  0  0  0  0  0  0  0  0  0
   -2.4500   14.8790   -2.4540 C   0  0  0  0  0  0  0  0  0  0  0  0
    1.6550    9.2160   -9.2730 F   0  0  0  0  0  0  0  0  0  0  0  0
   -0.1090   10.2010  -10.0430 F   0  0  0  0  0  0  0  0  0  0  0  0
    1.6970   11.3020   -9.9130 F   0  0  0  0  0  0  0  0  0  0  0  0
   -2.3900    8.7090   -6.4850 C   0  0  0  0  0  0  0  0  0  0  0  0
   -3.6860   15.1660   -2.9890 C   0  0  0  0  0  0  0  0  0  0  0  0
   -2.5920   14.7310   -0.7520 S   0  0  0  0  0  0  0  0  0  0  0  0
   -4.2730   15.0680   -0.8740 C   0  0  0  0  0  0  0  0  0  0  0  0
   -4.7220   15.2730   -2.0910 N   0  0  0  0  0  0  0  0  0  0  0  0
   -5.1180   15.1120    0.3450 C   0  0  0  0  0  0  0  0  0  0  0  0
  1  2  1  0
  2  3  2  0
  2  4  1  0
  4  5  1  1
  4  6  1  0
  5  7  1  0
  6  8  1  0
  6  9  1  0
  7 10  2  3
  8 11  2  0
  9 12  2  0
 11 12  1  0
  9 13  1  0
 11 14  1  0
 10 15  1  0
 12 16  1  0
 13 17  1  0
 10 18  1  0
 14 19  1  0
 14 20  1  0
 14 21  1  0
 16 22  1  0
 17 22  1  0
 18 23  2  0
 18 24  1  0
 24 25  1  0
 23 26  1  0
 25 26  2  0
 25 27  1  0
M  END
