mac-x0546-mac-x0305
     RDKit          3D

 24 26  0  0  0  0  0  0  0  0999 V2000
   -4.1750   15.3380   -5.8400 C   0  0  0  0  0  0  0  0  0  0  0  0
   -3.4700   16.3850   -5.1610 O   0  0  0  0  0  0  0  0  0  0  0  0
   -2.1320   16.1700   -5.2200 C   0  0  0  0  0  0  0  0  0  0  0  0
   -1.6090   14.9620   -4.9770 C   0  0  0  0  0  0  0  0  0  0  0  0
   -1.3050   17.3220   -5.5760 C   0  0  0  0  0  0  0  0  0  0  0  0
   -0.1460   14.7760   -5.1080 C   0  0  1  0  0  0  0  0  0  0  0  0
    0.0340   17.3230   -5.3990 C   0  0  0  0  0  0  0  0  0  0  0  0
    0.5690   16.0780   -4.8170 C   0  0  0  0  0  0  0  0  0  0  0  0
    0.6760   13.9070   -4.2270 C   0  0  0  0  0  0  0  0  0  0  0  0
    0.3810   12.4490   -4.0400 C   0  0  0  0  0  0  0  0  0  0  0  0
    1.6110   15.9680   -4.0700 N   0  0  0  0  0  0  0  0  0  0  0  0
    1.6680   14.6450   -3.7180 C   0  0  0  0  0  0  0  0  0  0  0  0
    0.2060   11.9450   -2.5940 C   0  0  0  0  0  0  0  0  0  0  0  0
   -0.1090   12.6540   -1.5370 N   0  0  0  0  0  0  0  0  0  0  0  0
    0.3990   10.6010   -2.4670 O   0  0  0  0  0  0  0  0  0  0  0  0
   -0.3480   14.0200   -1.5790 C   0  0  0  0  0  0  0  0  0  0  0  0
    0.4480   14.7820   -2.0890 O   0  0  0  0  0  0  0  0  0  0  0  0
   -1.6620   14.5330   -0.9630 C   0  0  0  0  0  0  0  0  0  0  0  0
   -1.9200   14.7800    0.4200 C   0  0  0  0  0  0  0  0  0  0  0  0
   -2.6270   14.7570   -1.9190 N   0  0  0  0  0  0  0  0  0  0  0  0
   -1.0340   14.5940    1.4590 O   0  0  0  0  0  0  0  0  0  0  0  0
   -3.1910   15.2610    0.7660 C   0  0  0  0  0  0  0  0  0  0  0  0
   -3.8290   15.2210   -1.5310 C   0  0  0  0  0  0  0  0  0  0  0  0
   -4.1520   15.4860   -0.2190 C   0  0  0  0  0  0  0  0  0  0  0  0
  1  2  1  0
  2  3  1  0
  3  4  2  0
  3  5  1  0
  6  4  1  1
  5  7  2  0
  6  8  1  0
  7  8  1  0
  6  9  1  0
  9 10  1  0
  8 11  2  0
  9 12  2  0
 11 12  1  0
 10 13  1  0
 13 14  2  3
 13 15  1  0
 14 16  1  0
 16 17  2  0
 16 18  1  0
 18 19  2  0
 18 20  1  0
 19 21  1  0
 19 22  1  0
 20 23  2  0
 22 24  2  0
 23 24  1  0
M  END
