mac-x0263-mac-x0326
     RDKit          3D

 23 25  0  0  0  0  0  0  0  0999 V2000
  -11.3870   14.1890    2.1890 O   0  0  0  0  0  0  0  0  0  0  0  0
  -10.6970   15.2490    2.6430 C   0  0  0  0  0  0  0  0  0  0  0  0
  -11.2360   15.9760    3.4660 O   0  0  0  0  0  0  0  0  0  0  0  0
   -9.3110   15.4420    2.0610 C   0  0  0  0  0  0  0  0  0  0  0  0
   -8.5730   14.1730    1.6170 C   0  0  0  0  0  0  0  0  0  0  0  0
   -7.2750   14.4820    0.9210 C   0  0  0  0  0  0  0  0  0  0  0  0
   -7.2240   14.9810   -0.3600 N   0  0  0  0  0  0  0  0  0  0  0  0
   -6.0480   14.3370    1.4080 N   0  0  0  0  0  0  0  0  0  0  0  0
   -5.9030   15.1530   -0.6660 C   0  0  0  0  0  0  0  0  0  0  0  0
   -5.1870   14.7550    0.4190 C   0  0  0  0  0  0  0  0  0  0  0  0
   -5.4130   15.6500   -1.8610 C   0  0  0  0  0  0  0  0  0  0  0  0
   -3.6780   14.8050    0.4370 C   0  0  0  0  0  0  0  0  0  0  0  0
   -4.0670   15.6040   -2.0430 C   0  0  0  0  0  0  0  0  0  0  0  0
   -3.0740   15.0020   -1.0320 C   0  0  2  0  0  0  0  0  0  0  0  0
   -2.5970   13.7000   -1.6990 C   0  0  0  0  0  0  0  0  0  0  0  0
   -1.3760   15.7620   -1.1360 S   0  0  0  0  0  0  0  0  0  0  0  0
   -1.0590   15.1620   -2.8410 C   0  0  2  0  0  0  0  0  0  0  0  0
   -1.9610   14.0130   -3.0200 N   0  0  0  0  0  0  0  0  0  0  0  0
    0.4130   14.7800   -3.1620 C   0  0  0  0  0  0  0  0  0  0  0  0
    0.6030   13.6150   -4.1460 C   0  0  0  0  0  0  0  0  0  0  0  0
    0.9680   12.3600   -3.4170 C   0  0  0  0  0  0  0  0  0  0  0  0
    0.3240   11.2810   -3.8970 O   0  0  0  0  0  0  0  0  0  0  0  0
    1.7470   12.2680   -2.4900 O   0  0  0  0  0  0  0  0  0  0  0  0
  1  2  1  0
  2  3  2  0
  2  4  1  0
  4  5  1  0
  5  6  1  0
  6  7  1  0
  6  8  2  0
  7  9  1  0
  8 10  1  0
  9 10  2  0
  9 11  1  0
 10 12  1  0
 11 13  2  0
 14 12  1  1
 14 13  1  0
 14 15  1  0
 14 16  1  0
 16 17  1  0
 15 18  1  0
 17 18  1  0
 17 19  1  1
 19 20  1  0
 20 21  1  0
 21 22  1  0
 21 23  2  0
M  END
