mac-x0139-mac-x0453
     RDKit          3D

 19 20  0  0  0  0  0  0  0  0999 V2000
   -2.2840   15.0950   -3.3580 C   0  0  0  0  0  0  0  0  0  0  0  0
   -1.1410   14.6610   -2.5290 N   0  0  0  0  0  0  0  0  0  0  0  0
    0.1690   14.8930   -3.1950 C   0  0  0  0  0  0  0  0  0  0  0  0
   -1.2130   14.7840   -1.1240 C   0  0  0  0  0  0  0  0  0  0  0  0
    0.6100   13.6480   -3.9720 C   0  0  0  0  0  0  0  0  0  0  0  0
   -2.3970   14.7710   -0.4720 C   0  0  0  0  0  0  0  0  0  0  0  0
   -0.0220   14.9570   -0.4150 N   0  0  0  0  0  0  0  0  0  0  0  0
    0.9120   12.5080   -3.0340 C   0  0  0  0  0  0  0  0  0  0  0  0
   -2.3730   14.8870    1.0000 C   0  0  0  0  0  0  0  0  0  0  0  0
   -0.0790   15.0250    0.8740 C   0  0  0  0  0  0  0  0  0  0  0  0
   -3.7860   14.6820   -0.7730 C   0  0  0  0  0  0  0  0  0  0  0  0
    1.6140   12.5720   -2.0480 O   0  0  0  0  0  0  0  0  0  0  0  0
    0.3130   11.3490   -3.3960 O   0  0  0  0  0  0  0  0  0  0  0  0
   -1.1920   14.8900    1.6170 N   0  0  0  0  0  0  0  0  0  0  0  0
   -3.5480   14.9580    1.4970 N   0  0  0  0  0  0  0  0  0  0  0  0
   -4.3900   14.8110    0.4190 C   0  0  0  0  0  0  0  0  0  0  0  0
   -5.8400   14.7890    0.7250 C   0  0  0  0  0  0  0  0  0  0  0  0
   -6.3620   13.4050    1.1100 C   0  0  0  0  0  0  0  0  0  0  0  0
   -7.0530   13.4380    2.4010 N   0  0  0  0  0  0  0  0  0  0  0  0
  1  2  1  0
  2  3  1  0
  2  4  1  0
  3  5  1  0
  4  6  2  0
  4  7  1  0
  5  8  1  0
  6  9  1  0
  7 10  2  0
  6 11  1  0
  8 12  2  0
  8 13  1  0
  9 14  1  0
 10 14  1  0
  9 15  2  0
 11 16  2  0
 15 16  1  0
 16 17  1  0
 17 18  1  0
 18 19  1  0
M  END
