mac-x0375-diamond-x0727_0_A
     RDKit          3D

 14 14  0  0  0  0  0  0  0  0999 V2000
    1.4590   12.8670   -2.5430 O   0  0  0  0  0  0  0  0  0  0  0  0
    0.7930   12.0370   -3.3780 C   0  0  0  0  0  0  0  0  0  0  0  0
    0.6010   10.8670   -3.1040 O   0  0  0  0  0  0  0  0  0  0  0  0
    0.3080   12.7050   -4.6750 C   0  0  2  0  0  0  0  0  0  0  0  0
    0.2600   11.7290   -5.7880 N   0  0  0  0  0  0  0  0  0  0  0  0
    1.1010   13.9540   -5.0140 C   0  0  0  0  0  0  0  0  0  0  0  0
    1.2550   11.7780   -6.7370 C   0  0  0  0  0  0  0  0  0  0  0  0
   -0.7940   10.7980   -5.9250 C   0  0  0  0  0  0  0  0  0  0  0  0
    2.3890   12.1230   -6.5670 O   0  0  0  0  0  0  0  0  0  0  0  0
   -0.6200    9.6080   -6.6450 C   0  0  0  0  0  0  0  0  0  0  0  0
   -2.0350   11.0460   -5.3460 C   0  0  0  0  0  0  0  0  0  0  0  0
   -1.6650    8.6970   -6.7790 C   0  0  0  0  0  0  0  0  0  0  0  0
   -3.0820   10.1390   -5.4780 C   0  0  0  0  0  0  0  0  0  0  0  0
   -2.8970    8.9620   -6.1960 C   0  0  0  0  0  0  0  0  0  0  0  0
  1  2  1  0
  2  3  2  0
  2  4  1  0
  4  5  1  0
  4  6  1  6
  5  7  1  0
  5  8  1  0
  7  9  2  0
  8 10  2  0
  8 11  1  0
 10 12  1  0
 11 13  2  0
 12 14  2  0
 13 14  1  0
M  END
