mac-x0226-mac-x0379
     RDKit          3D

 25 27  0  0  0  0  0  0  0  0999 V2000
    1.6270   12.3140   -2.0600 O   0  0  0  0  0  0  0  0  0  0  0  0
    0.4520   11.8110   -2.6520 C   0  0  0  0  0  0  0  0  0  0  0  0
    0.2490   10.4860   -2.1660 O   0  0  0  0  0  0  0  0  0  0  0  0
   -0.6460   12.7020   -2.0890 C   0  0  0  0  0  0  0  0  0  0  0  0
    0.6300   11.8220   -4.1380 C   0  0  0  0  0  0  0  0  0  0  0  0
   -0.0760   13.9490   -1.4020 C   0  0  0  0  0  0  0  0  0  0  0  0
    1.4770   12.6640   -4.8960 C   0  0  0  0  0  0  0  0  0  0  0  0
    0.0350   11.0210   -5.0910 C   0  0  0  0  0  0  0  0  0  0  0  0
   -0.2080   15.0620   -2.2970 O   0  0  0  0  0  0  0  0  0  0  0  0
    1.4240   12.4090   -6.1990 N   0  0  0  0  0  0  0  0  0  0  0  0
    0.5370   11.3880   -6.3200 N   0  0  0  0  0  0  0  0  0  0  0  0
   -1.2510   14.9770   -3.1670 C   0  0  0  0  0  0  0  0  0  0  0  0
    0.2290   10.8240   -7.5810 C   0  0  0  0  0  0  0  0  0  0  0  0
   -1.1320   14.9030   -4.3830 O   0  0  0  0  0  0  0  0  0  0  0  0
   -1.0000   10.2030   -7.8160 C   0  0  0  0  0  0  0  0  0  0  0  0
    1.1790   10.8860   -8.6090 C   0  0  0  0  0  0  0  0  0  0  0  0
   -2.5170   14.9970   -2.4670 C   0  0  0  0  0  0  0  0  0  0  0  0
   -1.2750    9.6520   -9.0700 C   0  0  0  0  0  0  0  0  0  0  0  0
    0.9010   10.3380   -9.8590 C   0  0  0  0  0  0  0  0  0  0  0  0
   -3.7560   15.1660   -3.0410 C   0  0  0  0  0  0  0  0  0  0  0  0
   -2.7140   14.8190   -0.7690 S   0  0  0  0  0  0  0  0  0  0  0  0
   -0.3270    9.7220  -10.0900 C   0  0  0  0  0  0  0  0  0  0  0  0
   -4.4080   14.9980   -0.9440 C   0  0  0  0  0  0  0  0  0  0  0  0
   -4.8310   15.1660   -2.1750 N   0  0  0  0  0  0  0  0  0  0  0  0
   -5.2880   14.9570    0.2520 C   0  0  0  0  0  0  0  0  0  0  0  0
  2  1  1  0
  2  3  1  0
  2  4  1  0
  2  5  1  0
  4  6  1  0
  5  7  1  0
  5  8  2  0
  6  9  1  0
  7 10  2  0
  8 11  1  0
 10 11  1  0
  9 12  1  0
 11 13  1  0
 12 14  2  0
 13 15  2  0
 13 16  1  0
 12 17  1  0
 15 18  1  0
 16 19  2  0
 17 20  2  0
 17 21  1  0
 18 22  2  0
 19 22  1  0
 21 23  1  0
 20 24  1  0
 23 24  2  0
 23 25  1  0
M  END
