mac-x0453-mac-x0179
     RDKit          3D

 25 27  0  0  0  0  0  0  0  0999 V2000
   -6.9070   14.3990    2.5430 N   0  0  0  0  0  0  0  0  0  0  0  0
   -6.3000   14.3490    1.2190 C   0  0  0  0  0  0  0  0  0  0  0  0
   -4.9520   15.0920    1.1110 C   0  0  0  0  0  0  0  0  0  0  0  0
   -4.2310   14.6950   -0.0900 C   0  0  0  0  0  0  0  0  0  0  0  0
   -3.2190   13.8010   -0.1820 C   0  0  0  0  0  0  0  0  0  0  0  0
   -4.5430   15.2240   -1.3220 N   0  0  0  0  0  0  0  0  0  0  0  0
   -2.9070   13.7630   -1.4940 N   0  0  0  0  0  0  0  0  0  0  0  0
   -3.7190   14.6390   -2.1560 C   0  0  0  0  0  0  0  0  0  0  0  0
   -1.8870   12.9190   -2.0530 C   0  0  0  0  0  0  0  0  0  0  0  0
   -2.3690   11.9160   -3.1190 C   0  0  0  0  0  0  0  0  0  0  0  0
   -1.3280   12.0010   -4.1030 N   0  0  0  0  0  0  0  0  0  0  0  0
   -0.9320   11.4450   -5.1700 C   0  0  0  0  0  0  0  0  0  0  0  0
    0.1980   12.0500   -5.6050 N   0  0  0  0  0  0  0  0  0  0  0  0
   -1.2440   10.3530   -6.1380 C   0  0  0  0  0  0  0  0  0  0  0  0
    1.0240   12.8410   -4.7120 C   0  0  0  0  0  0  0  0  0  0  0  0
    0.7520   11.3930   -6.6250 C   0  0  0  0  0  0  0  0  0  0  0  0
   -0.1740   10.3570   -7.0310 C   0  0  0  0  0  0  0  0  0  0  0  0
   -2.2600    9.4290   -6.3310 C   0  0  0  0  0  0  0  0  0  0  0  0
    1.0560   12.1700   -3.3330 C   0  0  0  0  0  0  0  0  0  0  0  0
    1.8150   11.5880   -7.1080 O   0  0  0  0  0  0  0  0  0  0  0  0
   -0.0450    9.4980   -8.1090 C   0  0  0  0  0  0  0  0  0  0  0  0
   -2.1590    8.5370   -7.4230 C   0  0  0  0  0  0  0  0  0  0  0  0
    1.6190   12.9360   -2.3680 O   0  0  0  0  0  0  0  0  0  0  0  0
    0.6320   11.0530   -3.0740 O   0  0  0  0  0  0  0  0  0  0  0  0
   -1.0610    8.5750   -8.3020 C   0  0  0  0  0  0  0  0  0  0  0  0
  1  2  1  0
  2  3  1  0
  3  4  1  0
  4  5  2  0
  4  6  1  0
  5  7  1  0
  6  8  2  0
  7  8  1  0
  7  9  1  0
  9 10  1  0
 10 11  1  0
 11 12  2  3
 12 13  1  0
 12 14  1  0
 13 15  1  0
 13 16  1  0
 14 17  2  0
 16 17  1  0
 14 18  1  0
 15 19  1  0
 16 20  2  0
 17 21  1  0
 18 22  2  0
 19 23  1  0
 19 24  2  0
 21 25  2  0
 22 25  1  0
M  END
