mac-x0373-diamond-x0962_0_A
     RDKit          3D

 22 24  0  0  0  0  0  0  0  0999 V2000
    0.4290   13.2920   -1.1640 O   0  0  0  0  0  0  0  0  0  0  0  0
   -0.3170   14.2730   -1.7830 C   0  0  0  0  0  0  0  0  0  0  0  0
    0.1670   15.3760   -1.9830 O   0  0  0  0  0  0  0  0  0  0  0  0
   -1.7590   13.8080   -2.1910 C   0  0  0  0  0  0  0  0  0  0  0  0
   -2.1230   12.8870   -1.0160 C   0  0  0  0  0  0  0  0  0  0  0  0
   -1.8410   12.8860   -3.4390 C   0  0  0  0  0  0  0  0  0  0  0  0
   -2.9520   14.6550   -1.7770 C   0  0  0  0  0  0  0  0  0  0  0  0
   -0.9800   12.9810   -4.5570 C   0  0  0  0  0  0  0  0  0  0  0  0
   -2.8280   11.8810   -3.4720 C   0  0  0  0  0  0  0  0  0  0  0  0
   -4.0420   14.8210   -2.6290 C   0  0  0  0  0  0  0  0  0  0  0  0
   -2.9950   15.2320   -0.5100 C   0  0  0  0  0  0  0  0  0  0  0  0
   -3.2840   13.3970   -0.1480 C   0  0  0  0  0  0  0  0  0  0  0  0
   -1.1140   12.1060   -5.6410 C   0  0  0  0  0  0  0  0  0  0  0  0
   -2.9580   11.0140   -4.5490 C   0  0  0  0  0  0  0  0  0  0  0  0
   -5.1470   15.5330   -2.2090 C   0  0  0  0  0  0  0  0  0  0  0  0
   -4.1010   15.9500   -0.0920 C   0  0  0  0  0  0  0  0  0  0  0  0
   -3.1380   14.0070    1.0840 N   0  0  0  0  0  0  0  0  0  0  0  0
   -4.6610   13.3910   -0.3440 C   0  0  0  0  0  0  0  0  0  0  0  0
   -2.1000   11.1230   -5.6370 C   0  0  0  0  0  0  0  0  0  0  0  0
   -5.1760   16.0920   -0.9480 C   0  0  0  0  0  0  0  0  0  0  0  0
   -4.3860   14.3310    1.5460 C   0  0  0  0  0  0  0  0  0  0  0  0
   -5.3240   13.9720    0.7090 N   0  0  0  0  0  0  0  0  0  0  0  0
  1  2  1  0
  2  3  2  0
  4  2  1  0
  4  5  1  0
  4  6  1  0
  4  7  1  0
  6  8  2  0
  6  9  1  0
  7 10  2  0
  7 11  1  0
  5 12  1  0
  8 13  1  0
  9 14  2  0
 10 15  1  0
 11 16  2  0
 12 17  1  0
 12 18  2  0
 13 19  2  0
 14 19  1  0
 15 20  2  0
 16 20  1  0
 17 21  1  0
 18 22  1  0
 21 22  2  0
M  END
