mac-x0546-diamond-x0962_3_A
     RDKit          3D

 24 26  0  0  0  0  0  0  0  0999 V2000
   -4.3560   15.2470   -5.8760 C   0  0  0  0  0  0  0  0  0  0  0  0
   -3.5550   16.1800   -5.1500 O   0  0  0  0  0  0  0  0  0  0  0  0
   -2.2090   16.0100   -5.2170 C   0  0  0  0  0  0  0  0  0  0  0  0
   -1.5340   14.8530   -4.9950 C   0  0  0  0  0  0  0  0  0  0  0  0
   -1.5040   17.2380   -5.5800 C   0  0  0  0  0  0  0  0  0  0  0  0
   -0.0480   14.8250   -5.1440 C   0  0  1  0  0  0  0  0  0  0  0  0
   -0.1860   17.3840   -5.3950 C   0  0  0  0  0  0  0  0  0  0  0  0
    0.4540   16.2080   -4.7900 C   0  0  0  0  0  0  0  0  0  0  0  0
    0.8830   14.0660   -4.2380 C   0  0  0  0  0  0  0  0  0  0  0  0
    0.8970   12.5530   -4.1070 C   0  0  1  0  0  0  0  0  0  0  0  0
    1.4100   16.2610   -3.9500 N   0  0  0  0  0  0  0  0  0  0  0  0
    1.6710   14.9560   -3.6330 C   0  0  0  0  0  0  0  0  0  0  0  0
    0.3900   12.0750   -2.7360 C   0  0  0  0  0  0  0  0  0  0  0  0
    0.2000   11.8070   -5.2540 C   0  0  0  0  0  0  0  0  0  0  0  0
    0.5930   12.5460   -1.6210 O   0  0  0  0  0  0  0  0  0  0  0  0
   -0.3770   10.9660   -2.8290 O   0  0  0  0  0  0  0  0  0  0  0  0
    0.9340   11.9250   -6.5980 C   0  0  0  0  0  0  0  0  0  0  0  0
    0.3240   11.2620   -7.8580 C   0  0  1  0  0  0  0  0  0  0  0  0
    1.2240   11.1580   -8.9710 N   0  0  0  0  0  0  0  0  0  0  0  0
   -0.3150    9.9600   -7.6440 C   0  0  0  0  0  0  0  0  0  0  0  0
    0.1180    8.7960   -8.2310 N   0  0  0  0  0  0  0  0  0  0  0  0
   -1.3970    9.5980   -6.8930 C   0  0  0  0  0  0  0  0  0  0  0  0
   -0.7140    7.8020   -7.8110 C   0  0  0  0  0  0  0  0  0  0  0  0
   -1.6400    8.2590   -7.0020 N   0  0  0  0  0  0  0  0  0  0  0  0
  1  2  1  0
  2  3  1  0
  3  4  2  0
  3  5  1  0
  6  4  1  1
  5  7  2  0
  6  8  1  0
  7  8  1  0
  6  9  1  0
  9 10  1  0
  8 11  2  0
  9 12  2  0
 11 12  1  0
 10 13  1  0
 10 14  1  6
 13 15  2  0
 13 16  1  0
 14 17  1  0
 17 18  1  0
 18 19  1  6
 18 20  1  0
 20 21  1  0
 20 22  2  0
 21 23  1  0
 22 24  1  0
 23 24  2  0
M  END
