mac-x0381-mac-x0341
     RDKit          3D

 24 27  0  0  0  0  0  0  0  0999 V2000
   -7.6320   13.2750    3.5780 N   0  0  0  0  0  0  0  0  0  0  0  0
   -7.6550   14.5480    2.8760 C   0  0  0  0  0  0  0  0  0  0  0  0
   -6.9870   15.2940    3.9250 N   0  0  0  0  0  0  0  0  0  0  0  0
   -9.1030   15.1100    2.7480 C   0  0  0  0  0  0  0  0  0  0  0  0
   -6.6270   14.4720    1.5360 C   0  0  1  0  0  0  0  0  0  0  0  0
   -9.4760   15.9180    1.6660 C   0  0  0  0  0  0  0  0  0  0  0  0
  -10.1050   14.8430    3.7120 C   0  0  0  0  0  0  0  0  0  0  0  0
   -7.1300   14.8410    0.2260 N   0  0  0  0  0  0  0  0  0  0  0  0
   -5.3420   15.1770    1.7780 N   0  0  0  0  0  0  0  0  0  0  0  0
  -10.7680   16.4440    1.5260 C   0  0  0  0  0  0  0  0  0  0  0  0
  -11.4100   15.3590    3.5870 C   0  0  0  0  0  0  0  0  0  0  0  0
   -6.3300   14.9840   -0.8850 C   0  0  0  0  0  0  0  0  0  0  0  0
   -4.3820   15.5170    0.6960 C   0  0  2  0  0  0  0  0  0  0  0  0
   -6.7310   14.5740   -1.9770 O   0  0  0  0  0  0  0  0  0  0  0  0
  -11.7520   16.1630    2.4900 C   0  0  0  0  0  0  0  0  0  0  0  0
  -11.0870   17.2510    0.4270 C   0  0  0  0  0  0  0  0  0  0  0  0
   -4.9880   15.6710   -0.7160 C   0  0  1  0  0  0  0  0  0  0  0  0
   -3.0320   14.8200    0.7580 C   0  0  0  0  0  0  0  0  0  0  0  0
  -13.0470   16.6910    2.3280 C   0  0  0  0  0  0  0  0  0  0  0  0
  -12.3720   17.7730    0.2760 C   0  0  0  0  0  0  0  0  0  0  0  0
   -2.3200   14.5150   -0.3440 C   0  0  0  0  0  0  0  0  0  0  0  0
   -4.0330   15.3420   -1.8570 C   0  0  0  0  0  0  0  0  0  0  0  0
  -13.3510   17.4920    1.2240 C   0  0  0  0  0  0  0  0  0  0  0  0
   -2.8100   14.8210   -1.6690 C   0  0  0  0  0  0  0  0  0  0  0  0
  2  1  1  0
  2  3  1  0
  2  4  1  0
  5  2  1  1
  4  6  2  0
  4  7  1  0
  5  8  1  0
  5  9  1  0
  6 10  1  0
  7 11  2  0
  8 12  1  0
  9 13  1  0
 12 14  2  0
 10 15  2  0
 11 15  1  0
 10 16  1  0
 12 17  1  0
 13 17  1  0
 13 18  1  6
 15 19  1  0
 16 20  2  0
 18 21  2  0
 17 22  1  6
 19 23  2  0
 20 23  1  0
 21 24  1  0
 22 24  2  0
M  END
