mac-x0451-mac-x0360
     RDKit          3D

 22 24  0  0  0  0  0  0  0  0999 V2000
   -7.4180   14.7370    3.0810 N   0  0  0  0  0  0  0  0  0  0  0  0
   -6.7270   14.8570    1.9460 C   0  0  0  0  0  0  0  0  0  0  0  0
   -7.2400   14.8400    0.7330 N   0  0  0  0  0  0  0  0  0  0  0  0
   -5.0420   15.0560    2.0550 S   0  0  0  0  0  0  0  0  0  0  0  0
   -6.2150   14.9720   -0.1940 C   0  0  0  0  0  0  0  0  0  0  0  0
   -4.9610   15.0830    0.3800 C   0  0  0  0  0  0  0  0  0  0  0  0
   -6.3160   14.9960   -1.6040 C   0  0  0  0  0  0  0  0  0  0  0  0
   -3.8310   15.1840   -0.3450 C   0  0  0  0  0  0  0  0  0  0  0  0
   -5.1500   15.0910   -2.3710 C   0  0  0  0  0  0  0  0  0  0  0  0
   -3.9460   15.1630   -1.6970 C   0  0  0  0  0  0  0  0  0  0  0  0
   -2.7390   15.1800   -2.1990 O   0  0  0  0  0  0  0  0  0  0  0  0
   -2.1760   13.9000   -1.3390 S   0  0  0  0  0  0  0  0  0  0  0  0
   -1.3250   13.1790   -2.2210 O   0  0  0  0  0  0  0  0  0  0  0  0
   -1.7100   14.3320   -0.0300 O   0  0  0  0  0  0  0  0  0  0  0  0
   -3.6250   12.8220   -1.0770 C   0  0  0  0  0  0  0  0  0  0  0  0
   -3.9290   11.8900   -2.0690 C   0  0  0  0  0  0  0  0  0  0  0  0
   -4.4510   12.8890    0.0800 C   0  0  0  0  0  0  0  0  0  0  0  0
   -5.0290   11.0470   -1.9200 C   0  0  0  0  0  0  0  0  0  0  0  0
   -5.5610   12.0270    0.1980 C   0  0  0  0  0  0  0  0  0  0  0  0
   -6.6040   12.0690    1.5700 Cl  0  0  0  0  0  0  0  0  0  0  0  0
   -5.3790    9.8980   -3.1440 Cl  0  0  0  0  0  0  0  0  0  0  0  0
   -5.8490   11.1120   -0.8010 C   0  0  0  0  0  0  0  0  0  0  0  0
  1  2  1  0
  2  3  2  0
  2  4  1  0
  3  5  1  0
  4  6  1  0
  5  6  2  0
  5  7  1  0
  6  8  1  0
  7  9  2  0
  8 10  2  0
  9 10  1  0
 10 11  1  0
 12 11  1  0
 12 13  2  0
 12 14  2  0
 12 15  1  0
 15 16  2  0
 15 17  1  0
 16 18  1  0
 17 19  2  0
 19 20  1  0
 18 21  1  0
 18 22  2  0
 19 22  1  0
M  END
