mac-x0337-diamond-x0864_0_A
     RDKit          3D

 26 27  0  0  0  0  0  0  0  0999 V2000
   -5.8140    9.2590   -2.1220 C   0  0  0  0  0  0  0  0  0  0  0  0
   -5.2700   10.6170   -1.7920 C   0  0  0  0  0  0  0  0  0  0  0  0
   -5.9650   11.4520   -0.9090 C   0  0  0  0  0  0  0  0  0  0  0  0
   -4.0620   11.0650   -2.3580 C   0  0  0  0  0  0  0  0  0  0  0  0
   -3.5640   12.3300   -2.0450 C   0  0  0  0  0  0  0  0  0  0  0  0
   -5.4740   12.7150   -0.5920 C   0  0  0  0  0  0  0  0  0  0  0  0
   -4.2720   13.1520   -1.1650 C   0  0  0  0  0  0  0  0  0  0  0  0
   -3.6190   14.7570   -0.7910 S   0  0  2  0  0  0  0  0  0  0  0  0
   -3.4270   15.4710   -2.0300 O   0  0  0  0  0  0  0  0  0  0  0  0
   -2.6190   14.6390    0.3660 N   0  0  0  0  0  0  0  0  0  0  0  0
   -4.8220   15.6080    0.0010 N   0  0  0  0  0  0  0  0  0  0  0  0
   -1.2070   14.9660    0.0620 C   0  0  0  0  0  0  0  0  0  0  0  0
   -0.3290   13.7550    0.1050 C   0  0  0  0  0  0  0  0  0  0  0  0
    0.4650   13.6060   -1.1900 C   0  0  0  0  0  0  0  0  0  0  0  0
    0.4260   12.1930   -1.5030 N   0  0  0  0  0  0  0  0  0  0  0  0
    0.4680   11.6620   -2.6730 C   0  0  0  0  0  0  0  0  0  0  0  0
    0.5750   12.4330   -3.9950 C   0  0  0  0  0  0  0  0  0  0  0  0
    0.4060   10.3140   -2.7390 O   0  0  0  0  0  0  0  0  0  0  0  0
   -0.1720   11.7260   -5.0520 N   0  0  0  0  0  0  0  0  0  0  0  0
   -1.4030   11.1670   -4.7610 C   0  0  0  0  0  0  0  0  0  0  0  0
    0.4830   11.4520   -6.2520 C   0  0  0  0  0  0  0  0  0  0  0  0
    1.4720   12.0750   -6.6330 O   0  0  0  0  0  0  0  0  0  0  0  0
   -1.9300   10.2110   -5.5380 C   0  0  0  0  0  0  0  0  0  0  0  0
   -0.0580   10.3330   -7.0630 C   0  0  0  0  0  0  0  0  0  0  0  0
   -1.2120    9.7500   -6.7020 C   0  0  0  0  0  0  0  0  0  0  0  0
   -1.9500    8.3300   -7.6650 Br  0  0  0  0  0  0  0  0  0  0  0  0
  1  2  1  0
  2  3  2  0
  2  4  1  0
  4  5  2  0
  3  6  1  0
  5  7  1  0
  6  7  2  0
  7  8  1  0
  8  9  2  0
  8 10  2  0
  8 11  1  1
 10 12  1  0
 12 13  1  0
 13 14  1  0
 14 15  1  0
 15 16  2  3
 16 17  1  0
 16 18  1  0
 17 19  1  0
 19 20  1  0
 19 21  1  0
 21 22  2  0
 20 23  2  0
 21 24  1  0
 23 25  1  0
 24 25  2  0
 25 26  1  0
M  END
