mac-x0178-mac-x0282
     RDKit          3D

 23 25  0  0  0  0  0  0  0  0999 V2000
   -0.4070   18.4010   -6.6570 N   0  0  0  0  0  0  0  0  0  0  0  0
   -1.7820   17.8000   -5.9130 S   0  0  0  0  0  0  0  0  0  0  0  0
   -2.7230   17.3760   -6.8970 O   0  0  0  0  0  0  0  0  0  0  0  0
   -2.0820   18.7200   -4.8400 O   0  0  0  0  0  0  0  0  0  0  0  0
   -1.1630   16.3520   -5.1660 C   0  0  0  0  0  0  0  0  0  0  0  0
    0.0420   16.4850   -4.5020 C   0  0  0  0  0  0  0  0  0  0  0  0
   -1.8820   15.1490   -5.2480 C   0  0  0  0  0  0  0  0  0  0  0  0
    0.5300   15.3900   -3.8730 C   0  0  0  0  0  0  0  0  0  0  0  0
   -1.3770   14.0360   -4.6090 C   0  0  0  0  0  0  0  0  0  0  0  0
   -0.1940   14.2160   -3.9330 C   0  0  0  0  0  0  0  0  0  0  0  0
    0.3860   13.2460   -3.1490 C   0  0  0  0  0  0  0  0  0  0  0  0
    0.5220   13.8180   -2.0840 N   0  0  0  0  0  0  0  0  0  0  0  0
    0.6130   11.9770   -3.5180 O   0  0  0  0  0  0  0  0  0  0  0  0
    0.8960   13.4490   -0.8550 C   0  0  0  0  0  0  0  0  0  0  0  0
   -0.2910   13.9550   -0.1200 C   0  0  0  0  0  0  0  0  0  0  0  0
   -1.3340   14.3660   -0.9560 C   0  0  0  0  0  0  0  0  0  0  0  0
   -0.4610   14.0430    1.2540 C   0  0  0  0  0  0  0  0  0  0  0  0
   -2.4970   14.8260   -0.3880 C   0  0  0  0  0  0  0  0  0  0  0  0
   -1.5880   14.4890    1.8600 N   0  0  0  0  0  0  0  0  0  0  0  0
   -3.7300   15.3050   -0.8900 C   0  0  0  0  0  0  0  0  0  0  0  0
   -2.5510   14.8570    0.9880 C   0  0  0  0  0  0  0  0  0  0  0  0
   -4.5030   15.6060    0.1960 C   0  0  0  0  0  0  0  0  0  0  0  0
   -3.7830   15.3320    1.3290 N   0  0  0  0  0  0  0  0  0  0  0  0
  2  1  1  0
  2  3  2  0
  2  4  2  0
  2  5  1  0
  5  6  2  0
  5  7  1  0
  6  8  1  0
  7  9  2  0
  8 10  2  0
  9 10  1  0
 10 11  1  0
 11 12  2  3
 11 13  1  0
 12 14  1  0
 14 15  1  0
 15 16  2  0
 15 17  1  0
 16 18  1  0
 17 19  2  0
 18 20  1  0
 18 21  2  0
 19 21  1  0
 20 22  2  0
 21 23  1  0
 22 23  1  0
M  END
