mac-x0319-mac-x0226
     RDKit          3D

 22 24  0  0  0  0  0  0  0  0999 V2000
    0.5920   10.5380   -2.2600 O   0  0  0  0  0  0  0  0  0  0  0  0
    0.9200   11.7430   -2.9630 C   0  0  0  0  0  0  0  0  0  0  0  0
    1.9310   12.4100   -2.2340 O   0  0  0  0  0  0  0  0  0  0  0  0
   -0.3220   12.6010   -2.9120 C   0  0  0  0  0  0  0  0  0  0  0  0
    1.3600   11.4710   -4.4040 C   0  0  2  0  0  0  0  0  0  0  0  0
   -0.3480   13.9430   -3.6010 C   0  0  0  0  0  0  0  0  0  0  0  0
    1.7590   12.6810   -5.2360 C   0  0  0  0  0  0  0  0  0  0  0  0
    0.2330   10.8680   -5.2410 C   0  0  0  0  0  0  0  0  0  0  0  0
    0.6660   14.9210   -3.4710 C   0  0  0  0  0  0  0  0  0  0  0  0
   -1.4580   14.2150   -4.3910 C   0  0  0  0  0  0  0  0  0  0  0  0
    1.7830   12.1070   -6.5760 N   0  0  0  0  0  0  0  0  0  0  0  0
    0.6030   11.3360   -6.5760 N   0  0  0  0  0  0  0  0  0  0  0  0
    0.5100   16.1390   -4.1340 C   0  0  0  0  0  0  0  0  0  0  0  0
   -1.5880   15.4270   -5.0410 C   0  0  0  0  0  0  0  0  0  0  0  0
    0.1430   10.7090   -7.7410 C   0  0  0  0  0  0  0  0  0  0  0  0
    1.4140   17.1450   -4.0560 O   0  0  0  0  0  0  0  0  0  0  0  0
   -0.6030   16.3920   -4.9120 C   0  0  0  0  0  0  0  0  0  0  0  0
   -0.9890    9.8910   -7.7520 C   0  0  0  0  0  0  0  0  0  0  0  0
    0.8020   10.8770   -8.9650 C   0  0  0  0  0  0  0  0  0  0  0  0
   -1.4310    9.2770   -8.9300 C   0  0  0  0  0  0  0  0  0  0  0  0
    0.3760   10.2750  -10.1410 C   0  0  0  0  0  0  0  0  0  0  0  0
   -0.7470    9.4710  -10.1250 C   0  0  0  0  0  0  0  0  0  0  0  0
  2  1  1  0
  2  3  1  0
  2  4  1  0
  5  2  1  1
  4  6  1  0
  5  7  1  0
  5  8  1  0
  6  9  2  0
  6 10  1  0
  7 11  1  0
  8 12  1  0
 11 12  1  0
  9 13  1  0
 10 14  2  0
 12 15  1  0
 13 16  1  0
 13 17  2  0
 14 17  1  0
 15 18  2  0
 15 19  1  0
 18 20  1  0
 19 21  2  0
 20 22  2  0
 21 22  1  0
M  END
