mac-x0159-mac-x0572
     RDKit          3D

 28 32  0  0  0  0  0  0  0  0999 V2000
   -3.8360   16.2930    0.2480 N   0  0  0  0  0  0  0  0  0  0  0  0
   -3.3080   14.9940   -0.0210 C   0  0  2  0  0  0  0  0  0  0  0  0
   -1.8140   15.1890    0.1840 C   0  0  2  0  0  0  0  0  0  0  0  0
   -3.6760   14.6650   -1.3690 N   0  0  0  0  0  0  0  0  0  0  0  0
   -4.0410   14.2220    1.0280 C   0  0  0  0  0  0  0  0  0  0  0  0
   -2.8400   15.1870   -2.4510 C   0  0  0  0  0  0  0  0  0  0  0  0
   -1.0880   14.5030   -0.9240 C   0  0  1  0  0  0  0  0  0  0  0  0
   -1.2790   14.5850    1.3860 N   0  0  0  0  0  0  0  0  0  0  0  0
   -5.3210   15.0470    1.0310 C   0  0  1  0  0  0  0  0  0  0  0  0
   -5.0960   14.8950   -1.6010 C   0  0  0  0  0  0  0  0  0  0  0  0
   -1.4170   15.1390   -2.1750 N   0  0  0  0  0  0  0  0  0  0  0  0
    0.2660   14.6290   -0.4340 N   0  0  0  0  0  0  0  0  0  0  0  0
    0.0850   14.4130    1.0130 C   0  0  0  0  0  0  0  0  0  0  0  0
   -5.9800   15.1900   -0.3640 C   0  0  1  0  0  0  0  0  0  0  0  0
   -6.1860   14.9210    2.1960 N   0  0  0  0  0  0  0  0  0  0  0  0
   -0.6420   14.7390   -3.3480 C   0  0  0  0  0  0  0  0  0  0  0  0
   -7.3280   14.0400    2.0970 C   0  0  1  0  0  0  0  0  0  0  0  0
   -7.3000   14.4600   -0.4670 C   0  0  0  0  0  0  0  0  0  0  0  0
   -8.2390   14.4070    3.2740 C   0  0  0  0  0  0  0  0  0  0  0  0
   -7.7640   14.1730   -1.5680 O   0  0  0  0  0  0  0  0  0  0  0  0
   -0.2860   15.9650   -4.1470 C   0  0  0  0  0  0  0  0  0  0  0  0
   -8.1120   14.0600    0.7730 C   0  0  2  0  0  0  0  0  0  0  0  0
   -9.2590   14.8880    0.8900 O   0  0  0  0  0  0  0  0  0  0  0  0
    0.9770   16.4990   -4.2890 C   0  0  0  0  0  0  0  0  0  0  0  0
   -1.2860   16.6610   -4.8240 N   0  0  0  0  0  0  0  0  0  0  0  0
   -0.7690   17.6950   -5.4530 C   0  0  0  0  0  0  0  0  0  0  0  0
    0.9180   17.8970   -5.2790 S   0  0  0  0  0  0  0  0  0  0  0  0
   -1.5410   18.6610   -6.2790 C   0  0  0  0  0  0  0  0  0  0  0  0
  2  1  1  1
  2  3  1  0
  2  4  1  0
  2  5  1  0
  4  6  1  0
  3  7  1  0
  3  8  1  1
  9  5  1  6
  4 10  1  0
  6 11  1  0
  7 11  1  0
  7 12  1  1
  8 13  1  0
 12 13  1  0
  9 14  1  0
 14 10  1  6
  9 15  1  0
 11 16  1  0
 15 17  1  0
 14 18  1  0
 17 19  1  1
 18 20  2  0
 16 21  1  0
 17 22  1  0
 18 22  1  0
 22 23  1  1
 21 24  2  0
 21 25  1  0
 25 26  2  0
 24 27  1  0
 26 27  1  0
 26 28  1  0
M  END
