mac-x0115-diamond-x0727_0_A
     RDKit          3D

 29 31  0  0  0  0  0  0  0  0999 V2000
   -1.3520   18.3440   -5.5040 C   0  0  0  0  0  0  0  0  0  0  0  0
   -0.1230   17.4340   -5.5290 C   0  0  0  0  0  0  0  0  0  0  0  0
    0.9050   17.9490   -4.5400 C   0  0  0  0  0  0  0  0  0  0  0  0
   -0.4950   16.0970   -5.1490 O   0  0  0  0  0  0  0  0  0  0  0  0
    0.5370   15.0870   -4.9910 C   0  0  0  0  0  0  0  0  0  0  0  0
   -0.0920   13.9970   -4.0750 C   0  0  1  0  0  0  0  0  0  0  0  0
    0.0300   12.4450   -4.4510 C   0  0  1  0  0  0  0  0  0  0  0  0
   -0.1640   14.3940   -2.5880 N   0  0  0  0  0  0  0  0  0  0  0  0
    1.0180   11.9090   -5.3950 N   0  0  0  0  0  0  0  0  0  0  0  0
    0.3660   11.6830   -3.1790 C   0  0  0  0  0  0  0  0  0  0  0  0
    0.9370   14.2910   -1.6640 C   0  0  0  0  0  0  0  0  0  0  0  0
   -1.3800   14.8340   -2.0480 C   0  0  0  0  0  0  0  0  0  0  0  0
    2.5710   14.0800   -1.9970 S   0  0  0  0  0  0  0  0  0  0  0  0
   -0.1480   10.6390   -2.8110 O   0  0  0  0  0  0  0  0  0  0  0  0
    0.8470   11.3120   -6.6490 C   0  0  0  0  0  0  0  0  0  0  0  0
    1.3300   12.2660   -2.4510 O   0  0  0  0  0  0  0  0  0  0  0  0
    0.6160   14.3750   -0.3040 N   0  0  0  0  0  0  0  0  0  0  0  0
   -1.3930   15.5520   -0.7330 C   0  0  2  0  0  0  0  0  0  0  0  0
   -2.6250   14.7290   -2.5220 C   0  0  0  0  0  0  0  0  0  0  0  0
    1.4840   11.7360   -7.5350 O   0  0  0  0  0  0  0  0  0  0  0  0
   -0.5820   14.7760    0.2650 C   0  0  0  0  0  0  0  0  0  0  0  0
   -2.8230   15.7900   -0.4200 N   0  0  0  0  0  0  0  0  0  0  0  0
   -3.4310   15.3400   -1.4680 C   0  0  0  0  0  0  0  0  0  0  0  0
   -0.0260   10.0860   -6.9590 C   0  0  0  0  0  0  0  0  0  0  0  0
   -0.9010   14.5220    1.4270 O   0  0  0  0  0  0  0  0  0  0  0  0
   -1.2550   10.4510   -7.7850 C   0  0  0  0  0  0  0  0  0  0  0  0
   -0.5950    9.2710   -5.8050 C   0  0  0  0  0  0  0  0  0  0  0  0
   -2.1050    9.1880   -7.7420 C   0  0  0  0  0  0  0  0  0  0  0  0
   -1.7620    8.5020   -6.4180 C   0  0  0  0  0  0  0  0  0  0  0  0
  1  2  1  0
  2  3  1  0
  2  4  1  0
  4  5  1  0
  6  5  1  1
  6  7  1  0
  6  8  1  0
  7  9  1  6
  7 10  1  0
  8 11  1  0
  8 12  1  0
 11 13  2  0
 10 14  2  0
  9 15  1  0
 10 16  1  0
 11 17  1  0
 12 18  1  0
 12 19  2  0
 15 20  2  0
 17 21  1  0
 18 21  1  0
 18 22  1  1
 19 23  1  0
 22 23  2  0
 15 24  1  0
 21 25  2  0
 24 26  1  0
 24 27  1  0
 26 28  1  0
 27 29  1  0
 28 29  1  0
M  END
