mac-x0341-diamond-x0685_1_A
     RDKit          3D

 26 28  0  0  0  0  0  0  0  0999 V2000
   -6.7900   14.7440    2.3140 N   0  0  0  0  0  0  0  0  0  0  0  0
   -6.0370   14.7840    1.1910 C   0  0  0  0  0  0  0  0  0  0  0  0
   -4.7560   14.7450    1.3060 N   0  0  0  0  0  0  0  0  0  0  0  0
   -6.6610   14.8710   -0.0200 N   0  0  0  0  0  0  0  0  0  0  0  0
   -5.9680   15.1440   -1.1770 C   0  0  0  0  0  0  0  0  0  0  0  0
   -3.9640   14.7620    0.1620 C   0  0  0  0  0  0  0  0  0  0  0  0
   -6.5250   15.4860   -2.2070 O   0  0  0  0  0  0  0  0  0  0  0  0
   -4.5090   14.9630   -1.0990 C   0  0  0  0  0  0  0  0  0  0  0  0
   -2.5850   14.5560    0.2870 C   0  0  0  0  0  0  0  0  0  0  0  0
   -1.7500   14.5500   -0.8490 C   0  0  0  0  0  0  0  0  0  0  0  0
   -3.7080   14.9800   -2.2390 C   0  0  0  0  0  0  0  0  0  0  0  0
   -0.2590   14.3030   -0.7250 C   0  0  0  0  0  0  0  0  0  0  0  0
   -2.3340   14.7730   -2.1080 C   0  0  0  0  0  0  0  0  0  0  0  0
    0.3330   14.0730   -2.0140 O   0  0  0  0  0  0  0  0  0  0  0  0
    0.6670   12.6210   -2.6540 S   0  0  0  0  0  0  0  0  0  0  0  0
   -0.0020   12.6020   -4.3200 C   0  0  0  0  0  0  0  0  0  0  0  0
    2.2380   12.3750   -2.8490 O   0  0  0  0  0  0  0  0  0  0  0  0
    0.0050   11.4030   -1.8420 O   0  0  0  0  0  0  0  0  0  0  0  0
   -1.3870   11.9720   -4.3830 C   0  0  0  0  0  0  0  0  0  0  0  0
   -1.3980   10.5800   -4.8720 N   0  0  0  0  0  0  0  0  0  0  0  0
   -0.7640   10.3800   -6.1880 C   0  0  0  0  0  0  0  0  0  0  0  0
   -0.5980    8.8700   -6.4320 C   0  0  0  0  0  0  0  0  0  0  0  0
   -1.5800   10.9920   -7.3400 C   0  0  0  0  0  0  0  0  0  0  0  0
    0.0590    8.6120   -7.7860 C   0  0  0  0  0  0  0  0  0  0  0  0
   -1.0150   10.6930   -8.7320 C   0  0  0  0  0  0  0  0  0  0  0  0
   -0.7410    9.2070   -8.9470 C   0  0  0  0  0  0  0  0  0  0  0  0
  1  2  1  0
  2  3  2  0
  2  4  1  0
  4  5  1  0
  3  6  1  0
  5  7  2  0
  5  8  1  0
  6  8  2  0
  6  9  1  0
  9 10  2  0
  8 11  1  0
 10 12  1  0
 10 13  1  0
 11 13  2  0
 12 14  1  0
 15 14  1  0
 15 16  1  0
 15 17  1  0
 15 18  1  0
 16 19  1  0
 19 20  1  0
 20 21  1  0
 21 22  1  0
 21 23  1  0
 22 24  1  0
 23 25  1  0
 24 26  1  0
 25 26  1  0
M  END
