mac-x0436-diamond-x0766_0_A
     RDKit          3D

 26 29  0  0  0  0  0  0  0  0999 V2000
    0.4590   11.5070   -2.8180 O   0  0  0  0  0  0  0  0  0  0  0  0
    1.3140   12.5420   -3.2720 C   0  0  0  0  0  0  0  0  0  0  0  0
    2.5410   12.3870   -2.6220 O   0  0  0  0  0  0  0  0  0  0  0  0
    1.5040   12.6720   -4.7920 C   0  0  0  0  0  0  0  0  0  0  0  0
    0.8630   13.9320   -2.9150 C   0  0  1  0  0  0  0  0  0  0  0  0
    0.2390   13.0310   -5.5360 C   0  0  0  0  0  0  0  0  0  0  0  0
    1.9130   14.8120   -3.6190 C   0  0  0  0  0  0  0  0  0  0  0  0
   -0.5040   14.4290   -3.4600 C   0  0  2  0  0  0  0  0  0  0  0  0
   -0.5360   11.8020   -5.8300 C   0  0  0  0  0  0  0  0  0  0  0  0
    1.2050   15.4610   -4.7790 C   0  0  0  0  0  0  0  0  0  0  0  0
   -0.1410   15.7380   -4.1740 C   0  0  0  0  0  0  0  0  0  0  0  0
   -1.5720   14.6080   -2.4080 C   0  0  0  0  0  0  0  0  0  0  0  0
   -1.7850   11.5080   -4.9920 C   0  0  0  0  0  0  0  0  0  0  0  0
   -0.0950   11.0260   -6.7610 N   0  0  0  0  0  0  0  0  0  0  0  0
   -2.9160   14.8400   -2.6520 C   0  0  0  0  0  0  0  0  0  0  0  0
   -1.3230   14.5610   -0.9930 C   0  0  0  0  0  0  0  0  0  0  0  0
   -2.1520   12.2540   -4.0970 O   0  0  0  0  0  0  0  0  0  0  0  0
   -2.4430   10.3550   -5.3280 N   0  0  0  0  0  0  0  0  0  0  0  0
   -0.7950    9.8620   -7.0260 C   0  0  0  0  0  0  0  0  0  0  0  0
   -2.4630   14.7560   -0.2430 C   0  0  0  0  0  0  0  0  0  0  0  0
   -3.8390   14.9990   -1.2240 S   0  0  0  0  0  0  0  0  0  0  0  0
   -1.9590    9.5070   -6.3300 C   0  0  0  0  0  0  0  0  0  0  0  0
   -0.3060    9.0260   -8.0220 C   0  0  0  0  0  0  0  0  0  0  0  0
   -0.9710    7.8450   -8.3290 C   0  0  0  0  0  0  0  0  0  0  0  0
   -2.6280    8.3290   -6.6290 C   0  0  0  0  0  0  0  0  0  0  0  0
   -2.1310    7.4960   -7.6330 C   0  0  0  0  0  0  0  0  0  0  0  0
  2  1  1  0
  2  3  1  0
  2  4  1  0
  5  2  1  6
  4  6  1  0
  5  7  1  0
  5  8  1  0
  6  9  1  0
  7 10  1  0
  8 11  1  0
 10 11  1  0
  8 12  1  1
  9 13  1  0
  9 14  2  0
 12 15  2  0
 12 16  1  0
 13 17  2  0
 13 18  1  0
 14 19  1  0
 16 20  2  0
 15 21  1  0
 20 21  1  0
 18 22  1  0
 19 22  2  0
 19 23  1  0
 23 24  2  0
 22 25  1  0
 24 26  1  0
 25 26  2  0
M  END
