mac-x0451-mac-x0282
     RDKit          3D

 16 18  0  0  0  0  0  0  0  0999 V2000
   -6.5780   14.2920    2.6670 N   0  0  0  0  0  0  0  0  0  0  0  0
   -5.7490   14.4380    1.6140 C   0  0  0  0  0  0  0  0  0  0  0  0
   -6.1830   14.8280    0.4450 N   0  0  0  0  0  0  0  0  0  0  0  0
   -4.0470   14.1340    1.7000 S   0  0  0  0  0  0  0  0  0  0  0  0
   -5.1250   14.9040   -0.4120 C   0  0  0  0  0  0  0  0  0  0  0  0
   -3.8770   14.5730    0.0700 C   0  0  0  0  0  0  0  0  0  0  0  0
   -5.3110   15.3210   -1.7540 C   0  0  0  0  0  0  0  0  0  0  0  0
   -2.5790   14.6350   -0.7430 C   0  0  2  0  0  0  0  0  0  0  0  0
   -4.2950   15.2910   -2.6290 C   0  0  0  0  0  0  0  0  0  0  0  0
   -2.9150   14.8280   -2.2640 C   0  0  1  0  0  0  0  0  0  0  0  0
   -1.4700   13.5920   -0.7290 C   0  0  0  0  0  0  0  0  0  0  0  0
   -1.9460   15.8980   -0.1480 C   0  0  0  0  0  0  0  0  0  0  0  0
   -1.9830   15.6340   -2.8450 F   0  0  0  0  0  0  0  0  0  0  0  0
   -0.3630   13.7240    0.0240 C   0  0  0  0  0  0  0  0  0  0  0  0
   -1.3130   15.6360    1.1410 N   0  0  0  0  0  0  0  0  0  0  0  0
   -0.1190   14.8480    0.9510 C   0  0  0  0  0  0  0  0  0  0  0  0
  1  2  1  0
  2  3  2  0
  2  4  1  0
  3  5  1  0
  4  6  1  0
  5  6  2  0
  5  7  1  0
  6  8  1  0
  7  9  2  0
  8 10  1  0
  9 10  1  0
  8 11  1  6
  8 12  1  0
 10 13  1  1
 11 14  2  0
 12 15  1  0
 14 16  1  0
 15 16  1  0
M  END
