mac-x0564-mac-x0392
     RDKit          3D

 17 20  0  0  0  0  0  0  0  0999 V2000
    0.1350   15.3740   -2.1080 N   0  0  0  0  0  0  0  0  0  0  0  0
   -0.9520   15.4550   -1.2730 C   0  0  0  0  0  0  0  0  0  0  0  0
   -1.4030   16.4510   -0.8580 O   0  0  0  0  0  0  0  0  0  0  0  0
   -0.1070   14.3100   -2.7340 C   0  0  0  0  0  0  0  0  0  0  0  0
   -1.2690   13.5630   -2.2760 C   0  0  1  0  0  0  0  0  0  0  0  0
    0.5500   13.8170   -3.7980 N   0  0  0  0  0  0  0  0  0  0  0  0
   -1.6180   14.1410   -0.9560 C   0  0  1  0  0  0  0  0  0  0  0  0
   -0.9530   13.5490    0.2260 N   0  0  0  0  0  0  0  0  0  0  0  0
   -2.2470   14.0890   -3.2510 C   0  0  0  0  0  0  0  0  0  0  0  0
   -0.3820   13.7340   -4.7240 C   0  0  0  0  0  0  0  0  0  0  0  0
   -3.1850   14.1700   -1.0760 C   0  0  1  0  0  0  0  0  0  0  0  0
   -1.7500   14.0850   -4.5480 N   0  0  0  0  0  0  0  0  0  0  0  0
   -4.0590   15.0900   -0.2540 C   0  0  0  0  0  0  0  0  0  0  0  0
   -3.3770   14.4150   -2.5940 C   0  0  0  0  0  0  0  0  0  0  0  0
   -4.6410   14.9100   -3.0670 C   0  0  0  0  0  0  0  0  0  0  0  0
   -5.1190   15.6890   -0.8100 C   0  0  0  0  0  0  0  0  0  0  0  0
   -5.4730   15.5060   -2.2010 C   0  0  0  0  0  0  0  0  0  0  0  0
  1  2  1  0
  2  3  2  0
  1  4  2  0
  5  4  1  6
  4  6  1  0
  2  7  1  0
  5  7  1  0
  7  8  1  1
  5  9  1  0
  6 10  2  0
  7 11  1  0
  9 12  1  0
 10 12  1  0
 11 13  1  1
  9 14  2  0
 11 14  1  0
 14 15  1  0
 13 16  2  0
 15 17  2  0
 16 17  1  0
M  END
