mac-x0441-diamond-x0689_0_A
     RDKit          3D

 26 28  0  0  0  0  0  0  0  0999 V2000
    0.6830   11.3450   -3.1830 O   0  0  0  0  0  0  0  0  0  0  0  0
    0.6920   12.6290   -3.5950 C   0  0  0  0  0  0  0  0  0  0  0  0
    0.7420   13.5580   -2.6980 N   0  0  0  0  0  0  0  0  0  0  0  0
    0.6450   12.8910   -5.0700 C   0  0  0  0  0  0  0  0  0  0  0  0
    0.8000   13.3460   -1.2650 C   0  0  0  0  0  0  0  0  0  0  0  0
    0.2800   11.8330   -6.0020 N   0  0  0  0  0  0  0  0  0  0  0  0
    0.9980   11.7940   -7.1410 N   0  0  0  0  0  0  0  0  0  0  0  0
   -0.6790   10.8530   -5.9620 C   0  0  0  0  0  0  0  0  0  0  0  0
   -0.3340   13.9150   -0.4640 C   0  0  0  0  0  0  0  0  0  0  0  0
    0.4910   10.7790   -7.8570 C   0  0  0  0  0  0  0  0  0  0  0  0
   -0.5570   10.1590   -7.1520 C   0  0  0  0  0  0  0  0  0  0  0  0
   -1.6790   10.5420   -4.9140 C   0  0  0  0  0  0  0  0  0  0  0  0
   -1.4650   14.3800   -1.0730 C   0  0  0  0  0  0  0  0  0  0  0  0
   -0.3570   14.0130    0.9210 C   0  0  0  0  0  0  0  0  0  0  0  0
    0.9590   10.3560   -9.2270 C   0  0  0  0  0  0  0  0  0  0  0  0
   -1.4060    9.0040   -7.5440 C   0  0  0  0  0  0  0  0  0  0  0  0
   -2.8470    9.7810   -5.5730 C   0  0  0  0  0  0  0  0  0  0  0  0
   -2.5130   14.8850   -0.4090 N   0  0  0  0  0  0  0  0  0  0  0  0
   -1.3830   14.5160    1.6350 N   0  0  0  0  0  0  0  0  0  0  0  0
    1.6460    9.1810   -9.1920 F   0  0  0  0  0  0  0  0  0  0  0  0
   -0.1010   10.1270  -10.0400 F   0  0  0  0  0  0  0  0  0  0  0  0
    1.6980   11.2480   -9.9140 F   0  0  0  0  0  0  0  0  0  0  0  0
   -2.3540    8.5820   -6.4050 C   0  0  0  0  0  0  0  0  0  0  0  0
   -2.4320   14.9360    0.9240 C   0  0  0  0  0  0  0  0  0  0  0  0
   -3.4790   15.4520    1.6530 N   0  0  0  0  0  0  0  0  0  0  0  0
   -4.7780   15.0590    1.1720 C   0  0  0  0  0  0  0  0  0  0  0  0
  1  2  1  0
  2  3  2  3
  2  4  1  0
  3  5  1  0
  4  6  1  0
  6  7  1  0
  6  8  1  0
  5  9  1  0
  7 10  2  0
  8 11  2  0
 10 11  1  0
  8 12  1  0
  9 13  2  0
  9 14  1  0
 10 15  1  0
 11 16  1  0
 12 17  1  0
 13 18  1  0
 14 19  2  0
 15 20  1  0
 15 21  1  0
 15 22  1  0
 16 23  1  0
 17 23  1  0
 18 24  2  0
 19 24  1  0
 24 25  1  0
 25 26  1  0
M  END
