mac-x0344-diamond-x0371_0_A
     RDKit          3D

 33 36  0  0  0  0  0  0  0  0999 V2000
    1.5080   13.7050   -4.5160 O   0  0  0  0  0  0  0  0  0  0  0  0
    0.8370   12.9640   -3.6050 C   0  0  0  0  0  0  0  0  0  0  0  0
    0.5930   13.4010   -2.4270 N   0  0  0  0  0  0  0  0  0  0  0  0
    0.4160   11.6060   -4.1530 C   0  0  0  0  0  0  0  0  0  0  0  0
    0.2460   10.7360   -3.3100 O   0  0  0  0  0  0  0  0  0  0  0  0
    0.2540   11.5310   -5.5220 N   0  0  0  0  0  0  0  0  0  0  0  0
    0.9400   14.7120   -1.9010 C   0  0  0  0  0  0  0  0  0  0  0  0
   -0.3620   15.5390   -1.8010 C   0  0  0  0  0  0  0  0  0  0  0  0
   -0.6360   10.6350   -6.1530 C   0  0  0  0  0  0  0  0  0  0  0  0
   -1.0780   15.4190   -0.4380 C   0  0  0  0  0  0  0  0  0  0  0  0
   -0.2300   10.0000   -7.3330 C   0  0  0  0  0  0  0  0  0  0  0  0
   -1.8930   10.3580   -5.6450 C   0  0  0  0  0  0  0  0  0  0  0  0
   -1.0860    9.0990   -7.9790 C   0  0  0  0  0  0  0  0  0  0  0  0
   -2.7530    9.4600   -6.2810 C   0  0  0  0  0  0  0  0  0  0  0  0
   -2.6030   15.2870   -0.5440 C   0  0  0  0  0  0  0  0  0  0  0  0
   -2.3470    8.8290   -7.4510 C   0  0  0  0  0  0  0  0  0  0  0  0
   -3.3310   14.9440    0.6170 C   0  0  0  0  0  0  0  0  0  0  0  0
   -3.3010   15.4890   -1.7520 C   0  0  0  0  0  0  0  0  0  0  0  0
   -4.7170   14.8180    0.5000 C   0  0  0  0  0  0  0  0  0  0  0  0
   -4.7040   15.3550   -1.8310 C   0  0  0  0  0  0  0  0  0  0  0  0
   -5.6760   14.4980    1.4170 N   0  0  0  0  0  0  0  0  0  0  0  0
   -5.4220   15.0110   -0.6770 C   0  0  0  0  0  0  0  0  0  0  0  0
   -6.9020   14.5060    0.7940 C   0  0  0  0  0  0  0  0  0  0  0  0
   -6.7750   14.8160   -0.4850 N   0  0  0  0  0  0  0  0  0  0  0  0
   -8.1410   14.1920    1.5540 C   0  0  0  0  0  0  0  0  0  0  0  0
   -7.9180   14.5000    2.9470 N   0  0  0  0  0  0  0  0  0  0  0  0
   -8.6680   15.4680    3.5840 C   0  0  0  0  0  0  0  0  0  0  0  0
   -9.3700   16.2640    2.9580 O   0  0  0  0  0  0  0  0  0  0  0  0
   -8.5740   15.4700    5.0240 C   0  0  0  0  0  0  0  0  0  0  0  0
   -8.0150   14.3990    5.6660 O   0  0  0  0  0  0  0  0  0  0  0  0
   -8.9710   16.4070    5.9590 C   0  0  0  0  0  0  0  0  0  0  0  0
   -8.6330   15.8760    7.2300 C   0  0  0  0  0  0  0  0  0  0  0  0
   -8.0510   14.6540    6.9950 C   0  0  0  0  0  0  0  0  0  0  0  0
  1  2  1  0
  2  3  2  3
  2  4  1  0
  4  5  2  0
  4  6  1  0
  3  7  1  0
  7  8  1  0
  6  9  1  0
  8 10  1  0
  9 11  2  0
  9 12  1  0
 11 13  1  0
 12 14  2  0
 10 15  1  0
 13 16  2  0
 14 16  1  0
 15 17  2  0
 15 18  1  0
 17 19  1  0
 18 20  2  0
 19 21  1  0
 19 22  2  0
 20 22  1  0
 21 23  1  0
 22 24  1  0
 23 24  2  0
 23 25  1  0
 25 26  1  0
 26 27  1  0
 27 28  2  0
 27 29  1  0
 29 30  1  0
 29 31  2  0
 31 32  1  0
 30 33  1  0
 32 33  2  0
M  END
