mac-x0455-mac-x0402
     RDKit          3D

 22 24  0  0  0  0  0  0  0  0999 V2000
   -2.2700   15.0320   -3.5090 C   0  0  0  0  0  0  0  0  0  0  0  0
   -0.8920   14.3340   -3.6380 C   0  0  1  0  0  0  0  0  0  0  0  0
   -0.2160   15.2980   -4.4620 O   0  0  0  0  0  0  0  0  0  0  0  0
   -3.2410   14.9860   -2.3490 C   0  0  0  0  0  0  0  0  0  0  0  0
   -0.0300   14.2520   -2.3490 C   0  0  0  0  0  0  0  0  0  0  0  0
   -0.9010   13.0190   -4.4230 C   0  0  0  0  0  0  0  0  0  0  0  0
   -4.5710   15.0500   -2.7400 C   0  0  0  0  0  0  0  0  0  0  0  0
   -2.9150   14.9040   -0.9770 C   0  0  0  0  0  0  0  0  0  0  0  0
    0.2290   15.1610   -1.5790 O   0  0  0  0  0  0  0  0  0  0  0  0
    0.5040   13.0330   -2.1070 O   0  0  0  0  0  0  0  0  0  0  0  0
   -1.9290   12.0660   -4.2830 C   0  0  0  0  0  0  0  0  0  0  0  0
    0.1390   12.7370   -5.3290 C   0  0  0  0  0  0  0  0  0  0  0  0
   -3.9860   14.9030   -0.0540 C   0  0  0  0  0  0  0  0  0  0  0  0
   -5.6010   15.0430   -1.8310 C   0  0  0  0  0  0  0  0  0  0  0  0
   -1.9120   10.8800   -5.0240 C   0  0  0  0  0  0  0  0  0  0  0  0
    0.1550   11.5540   -6.0660 C   0  0  0  0  0  0  0  0  0  0  0  0
   -5.3130   14.9710   -0.4790 C   0  0  0  0  0  0  0  0  0  0  0  0
   -3.9890   14.8330    1.6600 S   0  0  0  0  0  0  0  0  0  0  0  0
   -0.8720   10.6250   -5.9140 C   0  0  0  0  0  0  0  0  0  0  0  0
   -5.7130   14.9040    1.6560 C   0  0  0  0  0  0  0  0  0  0  0  0
   -6.2670   14.9620    0.4950 N   0  0  0  0  0  0  0  0  0  0  0  0
   -6.4700   14.9110    2.7600 N   0  0  0  0  0  0  0  0  0  0  0  0
  1  2  1  0
  2  3  1  6
  1  4  1  0
  2  5  1  0
  2  6  1  0
  4  7  2  0
  4  8  1  0
  5  9  2  0
  5 10  1  0
  6 11  2  0
  6 12  1  0
  8 13  2  0
  7 14  1  0
 11 15  1  0
 12 16  2  0
 13 17  1  0
 14 17  2  0
 13 18  1  0
 15 19  2  0
 16 19  1  0
 18 20  1  0
 17 21  1  0
 20 21  2  0
 20 22  1  0
M  END
