mac-x0139-mac-x0436
     RDKit          3D

 28 31  0  0  0  0  0  0  0  0999 V2000
   -2.3670   15.0350   -3.4320 C   0  0  0  0  0  0  0  0  0  0  0  0
   -1.2110   14.5990   -2.6380 N   0  0  0  0  0  0  0  0  0  0  0  0
    0.0370   14.4490   -3.4480 C   0  0  0  0  0  0  0  0  0  0  0  0
   -1.3210   14.7370   -1.2180 C   0  0  0  0  0  0  0  0  0  0  0  0
    0.3850   13.0620   -4.1500 C   0  0  2  0  0  0  0  0  0  0  0  0
   -2.5300   14.9000   -0.6090 C   0  0  0  0  0  0  0  0  0  0  0  0
   -0.1470   14.7320   -0.4380 N   0  0  0  0  0  0  0  0  0  0  0  0
    0.7560   12.1500   -2.9750 C   0  0  0  0  0  0  0  0  0  0  0  0
    1.7540   13.1870   -4.8450 C   0  0  0  0  0  0  0  0  0  0  0  0
   -2.5670   15.0430    0.8710 C   0  0  0  0  0  0  0  0  0  0  0  0
   -0.2610   14.8470    0.8570 C   0  0  0  0  0  0  0  0  0  0  0  0
   -3.9080   15.0040   -0.9630 C   0  0  0  0  0  0  0  0  0  0  0  0
   -0.6590   12.3860   -5.1910 C   0  0  2  0  0  0  0  0  0  0  0  0
    1.3340   12.4960   -1.9630 O   0  0  0  0  0  0  0  0  0  0  0  0
    0.4310   10.8540   -3.0890 O   0  0  0  0  0  0  0  0  0  0  0  0
   -1.4150   14.9560    1.5480 N   0  0  0  0  0  0  0  0  0  0  0  0
   -3.7680   15.2430    1.3160 N   0  0  0  0  0  0  0  0  0  0  0  0
   -4.5590   15.2150    0.1850 C   0  0  0  0  0  0  0  0  0  0  0  0
   -1.9560   11.7880   -4.5700 C   0  0  0  0  0  0  0  0  0  0  0  0
   -0.1060   11.4530   -6.2380 N   0  0  0  0  0  0  0  0  0  0  0  0
   -2.4030   12.1050   -3.4750 O   0  0  0  0  0  0  0  0  0  0  0  0
   -2.6360   10.8490   -5.3110 N   0  0  0  0  0  0  0  0  0  0  0  0
   -0.4890   10.0100   -6.2340 C   0  0  1  0  0  0  0  0  0  0  0  0
   -1.9310    9.6760   -5.7500 C   0  0  2  0  0  0  0  0  0  0  0  0
   -0.0450    9.2540   -7.4730 C   0  0  0  0  0  0  0  0  0  0  0  0
   -0.8790    8.4790   -8.1880 C   0  0  0  0  0  0  0  0  0  0  0  0
   -2.7720    8.8760   -6.7120 C   0  0  0  0  0  0  0  0  0  0  0  0
   -2.2700    8.3250   -7.8270 C   0  0  0  0  0  0  0  0  0  0  0  0
  1  2  1  0
  2  3  1  0
  2  4  1  0
  3  5  1  0
  4  6  2  0
  4  7  1  0
  5  8  1  0
  5  9  1  6
  6 10  1  0
  7 11  2  0
  6 12  1  0
  5 13  1  0
  8 14  2  0
  8 15  1  0
 10 16  1  0
 11 16  1  0
 10 17  2  0
 12 18  2  0
 17 18  1  0
 13 19  1  0
 13 20  1  1
 19 21  2  0
 19 22  1  0
 20 23  1  0
 22 24  1  0
 23 24  1  0
 23 25  1  6
 25 26  2  0
 24 27  1  6
 26 28  1  0
 27 28  2  0
M  END
