mac-x1493-mac-x0182
     RDKit          3D

 26 29  0  0  0  0  0  0  0  0999 V2000
   -1.3950   14.8380   -1.5410 O   0  0  0  0  0  0  0  0  0  0  0  0
   -2.4910   14.6230   -2.2890 C   0  0  0  0  0  0  0  0  0  0  0  0
   -2.4030   14.2820   -3.5020 N   0  0  0  0  0  0  0  0  0  0  0  0
   -3.7250   14.7260   -1.5500 C   0  0  0  0  0  0  0  0  0  0  0  0
   -1.1780   14.0130   -4.1890 C   0  0  0  0  0  0  0  0  0  0  0  0
   -3.7690   14.8380   -0.1730 C   0  0  0  0  0  0  0  0  0  0  0  0
   -4.9050   14.6680   -2.2580 C   0  0  0  0  0  0  0  0  0  0  0  0
   -1.5340   12.6960   -4.7110 N   0  0  0  0  0  0  0  0  0  0  0  0
   -5.0210   14.8530    0.4450 C   0  0  0  0  0  0  0  0  0  0  0  0
   -6.1230   14.6890   -1.6920 N   0  0  0  0  0  0  0  0  0  0  0  0
   -6.1800   14.7670   -0.3590 C   0  0  0  0  0  0  0  0  0  0  0  0
   -5.1450   14.9370    1.8300 C   0  0  0  0  0  0  0  0  0  0  0  0
   -0.6930   11.4540   -4.4600 S   0  0  2  0  0  0  0  0  0  0  0  0
   -0.3550   10.7510   -3.2400 O   0  0  0  0  0  0  0  0  0  0  0  0
   -7.4230   14.7540    0.2530 C   0  0  0  0  0  0  0  0  0  0  0  0
   -6.4090   14.9220    2.4240 C   0  0  0  0  0  0  0  0  0  0  0  0
    0.7510   11.9580   -5.1210 N   0  0  0  0  0  0  0  0  0  0  0  0
   -1.0920   10.3220   -5.7090 C   0  0  0  0  0  0  0  0  0  0  0  0
   -7.5490   14.8250    1.6410 C   0  0  0  0  0  0  0  0  0  0  0  0
    0.8590   11.4900   -6.3960 C   0  0  0  0  0  0  0  0  0  0  0  0
   -0.1590   10.4620   -6.7170 C   0  0  0  0  0  0  0  0  0  0  0  0
   -2.1360    9.4170   -5.7700 C   0  0  0  0  0  0  0  0  0  0  0  0
    1.7010   11.8250   -7.1580 O   0  0  0  0  0  0  0  0  0  0  0  0
   -2.2210    8.6280   -6.9190 C   0  0  0  0  0  0  0  0  0  0  0  0
   -0.2310    9.6900   -7.8610 C   0  0  0  0  0  0  0  0  0  0  0  0
   -1.2780    8.7630   -7.9590 C   0  0  0  0  0  0  0  0  0  0  0  0
  1  2  1  0
  2  3  2  3
  2  4  1  0
  3  5  1  0
  4  6  2  0
  4  7  1  0
  5  8  1  0
  6  9  1  0
  7 10  2  0
  9 11  2  0
 10 11  1  0
  9 12  1  0
  8 13  2  0
 13 14  2  0
 11 15  1  0
 12 16  2  0
 13 17  1  6
 13 18  1  0
 15 19  2  0
 16 19  1  0
 17 20  1  0
 18 21  2  0
 20 21  1  0
 18 22  1  0
 20 23  2  0
 22 24  2  0
 21 25  1  0
 24 26  1  0
 25 26  2  0
M  END
