mac-x0496-mac-x0346
     RDKit          3D

 20 21  0  0  0  0  0  0  0  0999 V2000
   -9.5700   17.5900    4.6160 C   0  0  0  0  0  0  0  0  0  0  0  0
   -9.6260   16.6970    3.4360 C   0  0  0  0  0  0  0  0  0  0  0  0
  -10.3520   16.9650    2.3420 N   0  0  0  0  0  0  0  0  0  0  0  0
   -8.9340   15.5250    3.3630 N   0  0  0  0  0  0  0  0  0  0  0  0
  -10.1290   15.8990    1.5000 O   0  0  0  0  0  0  0  0  0  0  0  0
   -9.2710   15.0840    2.1640 C   0  0  0  0  0  0  0  0  0  0  0  0
   -8.8640   13.8560    1.4410 C   0  0  0  0  0  0  0  0  0  0  0  0
   -7.4440   13.7480    1.0950 N   0  0  0  0  0  0  0  0  0  0  0  0
   -6.9210   14.4790   -0.0410 C   0  0  0  0  0  0  0  0  0  0  0  0
   -7.6630   15.6160   -0.3540 O   0  0  0  0  0  0  0  0  0  0  0  0
   -7.0970   13.6800   -1.1800 O   0  0  0  0  0  0  0  0  0  0  0  0
   -5.4120   14.7070    0.0160 C   0  0  0  0  0  0  0  0  0  0  0  0
   -4.6990   14.8850    1.2030 C   0  0  0  0  0  0  0  0  0  0  0  0
   -4.6880   14.7270   -1.1900 C   0  0  0  0  0  0  0  0  0  0  0  0
   -3.3160   15.0570    1.2140 C   0  0  0  0  0  0  0  0  0  0  0  0
   -3.3050   14.9030   -1.1950 C   0  0  0  0  0  0  0  0  0  0  0  0
   -2.5480   14.9240   -2.4700 C   0  0  0  0  0  0  0  0  0  0  0  0
   -2.6190   15.0600    0.0170 C   0  0  0  0  0  0  0  0  0  0  0  0
   -1.3580   14.6790   -2.5450 O   0  0  0  0  0  0  0  0  0  0  0  0
   -3.3040   15.2510   -3.5410 O   0  0  0  0  0  0  0  0  0  0  0  0
  1  2  1  0
  2  3  2  0
  2  4  1  0
  3  5  1  0
  4  6  2  0
  5  6  1  0
  6  7  1  0
  7  8  1  0
  8  9  1  0
  9 10  1  0
  9 11  1  0
  9 12  1  0
 12 13  2  0
 12 14  1  0
 13 15  1  0
 14 16  2  0
 16 17  1  0
 15 18  2  0
 16 18  1  0
 17 19  2  0
 17 20  1  0
M  END
