mac-x0326-diamond-x0950_1_A
     RDKit          3D

 16 17  0  0  0  0  0  0  0  0999 V2000
   -6.2770   15.5350   -1.4020 Cl  0  0  0  0  0  0  0  0  0  0  0  0
   -4.5830   15.2540   -1.3560 C   0  0  0  0  0  0  0  0  0  0  0  0
   -3.8760   15.1380   -2.5530 C   0  0  0  0  0  0  0  0  0  0  0  0
   -3.9420   15.1410   -0.1270 C   0  0  0  0  0  0  0  0  0  0  0  0
   -2.4930   14.9010   -2.5120 C   0  0  0  0  0  0  0  0  0  0  0  0
   -2.5640   14.9030   -0.0610 C   0  0  0  0  0  0  0  0  0  0  0  0
   -1.6740   14.7620   -3.6160 N   0  0  0  0  0  0  0  0  0  0  0  0
   -1.8580   14.7870   -1.2720 C   0  0  0  0  0  0  0  0  0  0  0  0
   -0.4370   14.5420   -3.2350 C   0  0  0  0  0  0  0  0  0  0  0  0
   -0.1750   14.5030   -1.5330 S   0  0  0  0  0  0  0  0  0  0  0  0
    0.6850   14.3110   -4.2040 C   0  0  0  0  0  0  0  0  0  0  0  0
    0.6500   12.8200   -4.5400 C   0  0  2  0  0  0  0  0  0  0  0  0
    0.8870   12.0330   -3.2580 C   0  0  0  0  0  0  0  0  0  0  0  0
    1.6150   12.4580   -5.5290 O   0  0  0  0  0  0  0  0  0  0  0  0
    0.1050   10.9250   -3.2040 O   0  0  0  0  0  0  0  0  0  0  0  0
    1.6500   12.2880   -2.3490 O   0  0  0  0  0  0  0  0  0  0  0  0
  1  2  1  0
  2  3  2  0
  2  4  1  0
  3  5  1  0
  4  6  2  0
  5  7  1  0
  5  8  2  0
  6  8  1  0
  7  9  2  0
  8 10  1  0
  9 10  1  0
  9 11  1  0
 11 12  1  0
 12 13  1  0
 12 14  1  6
 13 15  1  0
 13 16  2  0
M  END
