mac-x0587-diamond-x0844_0_A
     RDKit          3D

 22 23  0  0  0  0  0  0  0  0999 V2000
   -0.3640   15.5710   -3.5340 C   0  0  0  0  0  0  0  0  0  0  0  0
   -1.2930   14.3710   -3.1840 C   0  0  2  0  0  0  0  0  0  0  0  0
   -1.0170   13.2280   -4.6210 S   0  0  0  0  0  0  0  0  0  0  0  0
   -2.7790   14.8510   -2.7060 C   0  0  2  0  0  0  0  0  0  0  0  0
   -0.8400   11.5870   -3.8500 C   0  0  0  0  0  0  0  0  0  0  0  0
   -3.4040   15.5120   -3.8250 O   0  0  0  0  0  0  0  0  0  0  0  0
   -2.6410   15.8450   -1.6680 N   0  0  0  0  0  0  0  0  0  0  0  0
   -3.8960   13.9610   -1.9000 C   0  0  1  0  0  0  0  0  0  0  0  0
    0.4000   11.4410   -3.0010 C   0  0  0  0  0  0  0  0  0  0  0  0
   -3.8590   15.7990   -0.8560 C   0  0  0  0  0  0  0  0  0  0  0  0
   -1.5790   15.6600   -0.7560 C   0  0  0  0  0  0  0  0  0  0  0  0
   -3.4860   13.6230   -0.4610 C   0  0  0  0  0  0  0  0  0  0  0  0
   -5.3700   14.5180   -1.9210 C   0  0  0  0  0  0  0  0  0  0  0  0
    0.6720   10.4980   -2.2690 O   0  0  0  0  0  0  0  0  0  0  0  0
    1.2520   12.4850   -3.0840 O   0  0  0  0  0  0  0  0  0  0  0  0
   -0.3850   15.6410   -0.9840 O   0  0  0  0  0  0  0  0  0  0  0  0
   -3.4290   15.9040    0.5930 C   0  0  0  0  0  0  0  0  0  0  0  0
   -2.0800   15.4660    0.5110 N   0  0  0  0  0  0  0  0  0  0  0  0
   -4.2600   13.7930    0.6320 C   0  0  0  0  0  0  0  0  0  0  0  0
   -6.1710   14.5940   -0.6070 C   0  0  0  0  0  0  0  0  0  0  0  0
   -7.3660   14.9020   -0.5750 O   0  0  0  0  0  0  0  0  0  0  0  0
   -5.5220   14.2990    0.5550 N   0  0  0  0  0  0  0  0  0  0  0  0
  2  1  1  6
  2  3  1  0
  2  4  1  0
  3  5  1  0
  4  6  1  6
  4  7  1  0
  4  8  1  0
  5  9  1  0
  7 10  1  0
  7 11  1  0
  8 12  1  1
  8 13  1  0
  9 14  2  0
  9 15  1  0
 11 16  2  0
 10 17  1  0
 11 18  1  0
 17 18  1  0
 12 19  2  0
 13 20  1  0
 20 21  2  0
 19 22  1  0
 20 22  1  0
M  END
