mac-x0411-mac-x0159
     RDKit          3D

 31 34  0  0  0  0  0  0  0  0999 V2000
    0.8050    9.1420   -7.7680 Cl  0  0  0  0  0  0  0  0  0  0  0  0
   -0.5360    9.6420   -6.8020 C   0  0  0  0  0  0  0  0  0  0  0  0
   -0.4590   10.7620   -5.9480 C   0  0  0  0  0  0  0  0  0  0  0  0
   -1.7040    8.8900   -6.8970 C   0  0  0  0  0  0  0  0  0  0  0  0
    0.7430   11.4480   -5.9270 O   0  0  0  0  0  0  0  0  0  0  0  0
   -1.6010   11.1200   -5.1610 C   0  0  0  0  0  0  0  0  0  0  0  0
   -2.8140    9.2350   -6.1460 C   0  0  0  0  0  0  0  0  0  0  0  0
   -1.7240   12.2690   -4.1560 C   0  0  0  0  0  0  0  0  0  0  0  0
    0.8870   12.4650   -4.9400 C   0  0  0  0  0  0  0  0  0  0  0  0
   -2.7610   10.3330   -5.2910 C   0  0  0  0  0  0  0  0  0  0  0  0
    0.9580   11.8820   -3.5440 C   0  0  0  0  0  0  0  0  0  0  0  0
   -1.5140   13.7000   -4.6540 C   0  0  0  0  0  0  0  0  0  0  0  0
    1.6670   12.6060   -2.6590 O   0  0  0  0  0  0  0  0  0  0  0  0
    0.4420   10.8310   -3.1900 O   0  0  0  0  0  0  0  0  0  0  0  0
   -0.9220   14.5990   -3.5220 C   0  0  2  0  0  0  0  0  0  0  0  0
   -1.7630   14.6780   -2.2730 N   0  0  0  0  0  0  0  0  0  0  0  0
   -0.4800   15.9180   -4.1480 C   0  0  0  0  0  0  0  0  0  0  0  0
   -3.0680   15.2950   -2.4250 C   0  0  0  0  0  0  0  0  0  0  0  0
   -1.1160   15.2130   -1.0690 C   0  0  1  0  0  0  0  0  0  0  0  0
    0.8020   16.4380   -4.1110 C   0  0  0  0  0  0  0  0  0  0  0  0
   -1.3940   16.7060   -4.8450 N   0  0  0  0  0  0  0  0  0  0  0  0
   -3.9930   14.8010   -1.4060 N   0  0  0  0  0  0  0  0  0  0  0  0
   -2.1150   15.4020    0.0930 C   0  0  1  0  0  0  0  0  0  0  0  0
   -0.1660   14.2510   -0.5060 N   0  0  0  0  0  0  0  0  0  0  0  0
   -0.8030   17.7820   -5.3150 C   0  0  0  0  0  0  0  0  0  0  0  0
    0.8630   17.9240   -4.9540 S   0  0  0  0  0  0  0  0  0  0  0  0
   -1.4890   18.8320   -6.1120 C   0  0  0  0  0  0  0  0  0  0  0  0
   -3.4450   14.6610   -0.0700 C   0  0  1  0  0  0  0  0  0  0  0  0
   -1.4070   15.0000    1.3260 N   0  0  0  0  0  0  0  0  0  0  0  0
   -0.0940   14.5800    0.9060 C   0  0  0  0  0  0  0  0  0  0  0  0
   -4.4900   15.0810    0.8610 N   0  0  0  0  0  0  0  0  0  0  0  0
  1  2  1  0
  2  3  2  0
  2  4  1  0
  3  5  1  0
  3  6  1  0
  4  7  2  0
  6  8  1  0
  5  9  1  0
  6 10  2  0
  7 10  1  0
  9 11  1  0
  8 12  1  0
 11 13  1  0
 11 14  2  0
 15 12  1  6
 15 16  1  0
 15 17  1  0
 16 18  1  0
 16 19  1  0
 17 20  2  0
 17 21  1  0
 18 22  1  0
 19 23  1  0
 19 24  1  1
 21 25  2  0
 20 26  1  0
 25 26  1  0
 25 27  1  0
 22 28  1  0
 23 28  1  0
 23 29  1  1
 24 30  1  0
 29 30  1  0
 28 31  1  1
M  END
