mac-x0341-diamond-x1018_0_A
     RDKit          3D

 13 14  0  0  0  0  0  0  0  0999 V2000
   -6.8240   14.7240    2.5220 N   0  0  0  0  0  0  0  0  0  0  0  0
   -6.0950   14.7470    1.3630 C   0  0  0  0  0  0  0  0  0  0  0  0
   -4.8030   14.8210    1.4570 N   0  0  0  0  0  0  0  0  0  0  0  0
   -6.7430   14.7010    0.1460 N   0  0  0  0  0  0  0  0  0  0  0  0
   -8.4870   14.6730    0.1690 Cl  0  0  0  0  0  0  0  0  0  0  0  0
   -6.0820   14.9630   -1.0570 C   0  0  0  0  0  0  0  0  0  0  0  0
   -4.0390   14.8270    0.2910 C   0  0  0  0  0  0  0  0  0  0  0  0
   -6.6080   15.2220   -2.1350 O   0  0  0  0  0  0  0  0  0  0  0  0
   -4.6110   14.8970   -0.9770 C   0  0  0  0  0  0  0  0  0  0  0  0
   -2.6500   14.7540    0.4060 C   0  0  0  0  0  0  0  0  0  0  0  0
   -1.8450   14.7500   -0.7360 C   0  0  0  0  0  0  0  0  0  0  0  0
   -3.8130   14.8970   -2.1280 C   0  0  0  0  0  0  0  0  0  0  0  0
   -2.4260   14.8230   -2.0020 C   0  0  0  0  0  0  0  0  0  0  0  0
  1  2  1  0
  2  3  2  0
  2  4  1  0
  4  5  1  0
  4  6  1  0
  3  7  1  0
  6  8  2  0
  6  9  1  0
  7  9  2  0
  7 10  1  0
 10 11  2  0
  9 12  1  0
 11 13  1  0
 12 13  2  0
M  END
