mac-x0415-mac-x0453
     RDKit          3D

 24 26  0  0  0  0  0  0  0  0999 V2000
    0.0660   11.0940   -3.1500 O   0  0  0  0  0  0  0  0  0  0  0  0
    0.8140   12.2130   -3.2140 C   0  0  0  0  0  0  0  0  0  0  0  0
    1.2730   12.7000   -2.1950 O   0  0  0  0  0  0  0  0  0  0  0  0
    0.9820   12.7530   -4.6200 C   0  0  0  0  0  0  0  0  0  0  0  0
    0.7320   14.2070   -4.5840 C   0  0  0  0  0  0  0  0  0  0  0  0
    1.7650   15.2190   -4.4090 C   0  0  0  0  0  0  0  0  0  0  0  0
   -0.3430   14.9880   -4.6920 C   0  0  0  0  0  0  0  0  0  0  0  0
    1.4220   16.4700   -4.3980 N   0  0  0  0  0  0  0  0  0  0  0  0
   -0.0060   16.4190   -4.4890 C   0  0  1  0  0  0  0  0  0  0  0  0
   -1.7180   14.6960   -4.9080 C   0  0  0  0  0  0  0  0  0  0  0  0
   -0.7630   17.3790   -5.3470 C   0  0  0  0  0  0  0  0  0  0  0  0
   -2.5100   15.6740   -5.4150 C   0  0  0  0  0  0  0  0  0  0  0  0
   -3.8480   15.4190   -5.5880 O   0  0  0  0  0  0  0  0  0  0  0  0
   -1.9860   17.0020   -5.7730 C   0  0  0  0  0  0  0  0  0  0  0  0
   -4.2480   14.7790   -4.3590 C   0  0  0  0  0  0  0  0  0  0  0  0
   -3.2400   15.2660   -3.3180 C   0  0  0  0  0  0  0  0  0  0  0  0
   -3.5440   14.9990   -1.8960 C   0  0  0  0  0  0  0  0  0  0  0  0
   -2.5620   14.6000   -1.0200 N   0  0  0  0  0  0  0  0  0  0  0  0
   -4.6980   15.0980   -1.2930 N   0  0  0  0  0  0  0  0  0  0  0  0
   -4.4560   14.7540    0.0150 C   0  0  0  0  0  0  0  0  0  0  0  0
   -3.1310   14.4410    0.2010 C   0  0  0  0  0  0  0  0  0  0  0  0
   -5.5700   14.7620    0.9820 C   0  0  0  0  0  0  0  0  0  0  0  0
   -6.1430   13.3850    1.3170 C   0  0  0  0  0  0  0  0  0  0  0  0
   -7.0190   13.4490    2.4870 N   0  0  0  0  0  0  0  0  0  0  0  0
  1  2  1  0
  2  3  2  0
  2  4  1  0
  4  5  1  0
  5  6  1  0
  5  7  2  0
  6  8  2  0
  7  9  1  0
  8  9  1  0
  7 10  1  0
  9 11  1  6
 10 12  2  0
 12 13  1  0
 11 14  2  0
 12 14  1  0
 13 15  1  0
 15 16  1  0
 16 17  1  0
 17 18  1  0
 17 19  2  0
 19 20  1  0
 18 21  1  0
 20 21  2  0
 20 22  1  0
 22 23  1  0
 23 24  1  0
M  END
