mac-x0437-mac-x0212
     RDKit          3D

 29 31  0  0  0  0  0  0  0  0999 V2000
    2.5260   12.7080   -2.6160 O   0  0  0  0  0  0  0  0  0  0  0  0
    1.3550   12.9200   -3.3690 C   0  0  0  0  0  0  0  0  0  0  0  0
    0.4500   11.9110   -2.9220 O   0  0  0  0  0  0  0  0  0  0  0  0
    1.5620   12.8090   -4.8670 C   0  0  0  0  0  0  0  0  0  0  0  0
    0.8100   14.3520   -3.1420 C   0  0  0  0  0  0  0  0  0  0  0  0
    0.3050   13.0790   -5.6760 C   0  0  0  0  0  0  0  0  0  0  0  0
   -0.3280   14.4010   -2.2620 N   0  0  0  0  0  0  0  0  0  0  0  0
   -1.5310   14.6700   -2.6090 C   0  0  0  0  0  0  0  0  0  0  0  0
   -0.5380   11.9280   -5.8070 N   0  0  0  0  0  0  0  0  0  0  0  0
   -1.8790   14.9070   -3.8900 O   0  0  0  0  0  0  0  0  0  0  0  0
   -1.6770   11.6620   -5.0970 C   0  0  0  0  0  0  0  0  0  0  0  0
   -0.3160   10.9110   -6.6720 C   0  0  0  0  0  0  0  0  0  0  0  0
   -2.6390   14.7960   -1.6830 C   0  0  0  0  0  0  0  0  0  0  0  0
   -2.2090   10.5120   -5.4600 N   0  0  0  0  0  0  0  0  0  0  0  0
   -1.3680   10.0330   -6.4400 C   0  0  0  0  0  0  0  0  0  0  0  0
    0.6820   10.6780   -7.6130 C   0  0  0  0  0  0  0  0  0  0  0  0
   -2.3720   14.3830   -0.3830 C   0  0  0  0  0  0  0  0  0  0  0  0
   -3.8910   15.3110   -2.0370 C   0  0  0  0  0  0  0  0  0  0  0  0
   -1.4380    8.8490   -7.1830 C   0  0  0  0  0  0  0  0  0  0  0  0
    0.6010    9.4970   -8.3440 C   0  0  0  0  0  0  0  0  0  0  0  0
   -3.3460   14.4790    0.5850 C   0  0  0  0  0  0  0  0  0  0  0  0
   -4.8800   15.4100   -1.0470 C   0  0  0  0  0  0  0  0  0  0  0  0
   -0.4430    8.5910   -8.1360 C   0  0  0  0  0  0  0  0  0  0  0  0
   -4.5920   14.9870    0.2690 C   0  0  0  0  0  0  0  0  0  0  0  0
   -5.5610   15.0640    1.3010 N   0  0  0  0  0  0  0  0  0  0  0  0
   -7.0660   14.3770    1.0470 S   0  0  0  0  0  0  0  0  0  0  0  0
   -6.6890   12.6640    1.3610 C   0  0  0  0  0  0  0  0  0  0  0  0
   -7.9950   14.8530    2.0470 O   0  0  0  0  0  0  0  0  0  0  0  0
   -7.3520   14.5270   -0.3640 O   0  0  0  0  0  0  0  0  0  0  0  0
  2  1  1  0
  2  3  1  0
  2  4  1  0
  2  5  1  0
  4  6  1  0
  5  7  1  0
  7  8  2  3
  6  9  1  0
  8 10  1  0
  9 11  1  0
  9 12  1  0
  8 13  1  0
 11 14  2  0
 12 15  2  0
 14 15  1  0
 12 16  1  0
 13 17  2  0
 13 18  1  0
 15 19  1  0
 16 20  2  0
 17 21  1  0
 18 22  2  0
 19 23  2  0
 20 23  1  0
 21 24  2  0
 22 24  1  0
 24 25  1  0
 26 25  1  0
 26 27  1  0
 26 28  2  0
 26 29  2  0
M  END
