mac-x0555-mac-x0321
     RDKit          3D

 15 16  0  0  0  0  0  0  0  0999 V2000
   -7.4960   14.4490    2.9220 N   0  0  0  0  0  0  0  0  0  0  0  0
   -7.0300   14.6030    1.6180 C   0  0  0  0  0  0  0  0  0  0  0  0
   -7.8670   14.7480    0.5210 C   0  0  0  0  0  0  0  0  0  0  0  0
   -5.6650   14.6180    1.3570 C   0  0  0  0  0  0  0  0  0  0  0  0
   -5.1620   14.7650    0.0440 C   0  0  0  0  0  0  0  0  0  0  0  0
   -7.4390   14.9000   -0.7520 N   0  0  0  0  0  0  0  0  0  0  0  0
   -6.1180   14.9050   -0.9760 C   0  0  0  0  0  0  0  0  0  0  0  0
   -3.7820   14.7680   -0.2790 C   0  0  0  0  0  0  0  0  0  0  0  0
   -2.7110   14.5980    1.0740 Cl  0  0  0  0  0  0  0  0  0  0  0  0
   -5.6930   15.0500   -2.2770 C   0  0  0  0  0  0  0  0  0  0  0  0
   -3.3610   14.8900   -1.6340 C   0  0  0  0  0  0  0  0  0  0  0  0
   -1.9860   14.8660   -2.2200 C   0  0  0  0  0  0  0  0  0  0  0  0
   -4.3420   15.0420   -2.6100 C   0  0  0  0  0  0  0  0  0  0  0  0
   -0.9490   14.7980   -1.3670 O   0  0  0  0  0  0  0  0  0  0  0  0
   -1.8230   14.8890   -3.4340 O   0  0  0  0  0  0  0  0  0  0  0  0
  1  2  1  0
  2  3  2  0
  2  4  1  0
  4  5  2  0
  3  6  1  0
  5  7  1  0
  6  7  2  0
  5  8  1  0
  8  9  1  0
  7 10  1  0
  8 11  2  0
 11 12  1  0
 10 13  2  0
 11 13  1  0
 12 14  1  0
 12 15  2  0
M  END
