mac-x0568-diamond-x0282_0_A
     RDKit          3D

 16 17  0  0  0  0  0  0  0  0999 V2000
   -7.3600   13.9430    1.7580 C   0  0  0  0  0  0  0  0  0  0  0  0
   -8.6940   14.2750    1.1300 C   0  0  0  0  0  0  0  0  0  0  0  0
   -6.2140   13.8700    0.7400 C   0  0  1  0  0  0  0  0  0  0  0  0
   -6.5180   14.8640   -0.2880 N   0  0  0  0  0  0  0  0  0  0  0  0
   -4.7950   13.9670    1.4120 C   0  0  0  0  0  0  0  0  0  0  0  0
   -5.3680   15.1290   -1.1420 C   0  0  0  0  0  0  0  0  0  0  0  0
   -3.5410   14.3770    0.5270 C   0  0  2  0  0  0  0  0  0  0  0  0
   -4.0600   15.4930   -0.4000 C   0  0  1  0  0  0  0  0  0  0  0  0
   -2.9430   13.3310   -0.3950 N   0  0  0  0  0  0  0  0  0  0  0  0
   -2.4340   14.8900    1.4160 N   0  0  0  0  0  0  0  0  0  0  0  0
   -3.0140   15.7550   -1.4480 C   0  0  0  0  0  0  0  0  0  0  0  0
   -1.5260   13.5560   -0.8490 C   0  0  0  0  0  0  0  0  0  0  0  0
   -1.0800   14.5260    1.3100 C   0  0  0  0  0  0  0  0  0  0  0  0
   -3.2330   15.8140   -2.6510 O   0  0  0  0  0  0  0  0  0  0  0  0
   -1.7480   15.9010   -0.9750 N   0  0  0  0  0  0  0  0  0  0  0  0
   -0.5950   13.9010    0.2530 C   0  0  0  0  0  0  0  0  0  0  0  0
  1  2  1  0
  3  1  1  1
  3  4  1  0
  3  5  1  0
  4  6  1  0
  7  5  1  1
  6  8  1  0
  7  8  1  0
  7  9  1  0
  7 10  1  0
  8 11  1  6
  9 12  1  0
 10 13  1  0
 11 14  2  0
 11 15  1  0
 12 16  1  0
 13 16  2  0
M  END
