mac-x0224-diamond-x0962_0_A
     RDKit          3D

 19 20  0  0  0  0  0  0  0  0999 V2000
   -3.6470   15.3610    1.6530 C   0  0  0  0  0  0  0  0  0  0  0  0
   -1.9220   14.8130    1.5400 S   0  0  0  0  0  0  0  0  0  0  0  0
   -1.6730   14.7710   -0.2040 C   0  0  0  0  0  0  0  0  0  0  0  0
   -0.4690   14.5850   -0.8380 C   0  0  0  0  0  0  0  0  0  0  0  0
   -2.7490   14.9260   -0.9690 C   0  0  0  0  0  0  0  0  0  0  0  0
   -0.4110   14.5580   -2.2500 C   0  0  0  0  0  0  0  0  0  0  0  0
   -2.7010   14.9060   -2.3310 C   0  0  0  0  0  0  0  0  0  0  0  0
    0.8820   14.3390   -2.8580 C   0  0  0  0  0  0  0  0  0  0  0  0
   -3.9910   15.0870   -2.5410 C   0  0  0  0  0  0  0  0  0  0  0  0
   -1.5600   14.7260   -3.0530 C   0  0  0  0  0  0  0  0  0  0  0  0
   -1.5860   14.7100   -4.4290 O   0  0  0  0  0  0  0  0  0  0  0  0
    1.9110   14.2600   -2.2180 O   0  0  0  0  0  0  0  0  0  0  0  0
    0.8300   14.2130   -4.1850 O   0  0  0  0  0  0  0  0  0  0  0  0
   -4.9440   15.1070   -1.9430 C   0  0  0  0  0  0  0  0  0  0  0  0
   -5.6370   14.9810   -0.7500 C   0  0  0  0  0  0  0  0  0  0  0  0
   -4.9820   15.0610    0.4480 N   0  0  0  0  0  0  0  0  0  0  0  0
   -6.9320   14.7660   -0.4420 C   0  0  0  0  0  0  0  0  0  0  0  0
   -5.8990   14.8910    1.4300 C   0  0  0  0  0  0  0  0  0  0  0  0
   -7.0930   14.7070    0.9230 N   0  0  0  0  0  0  0  0  0  0  0  0
  1  2  1  0
  2  3  1  0
  3  4  2  0
  3  5  1  0
  4  6  1  0
  5  7  2  0
  6  8  1  0
  7  9  1  0
  6 10  2  0
  7 10  1  0
 10 11  1  0
  8 12  2  0
  8 13  1  0
  9 14  3  0
 14 15  1  0
 15 16  1  0
 15 17  2  0
 16 18  1  0
 17 19  1  0
 18 19  2  0
M  END
