mac-x0131-mac-x0115
     RDKit          3D

 24 26  0  0  0  0  0  0  0  0999 V2000
   -3.6790   15.1360   -4.1450 C   0  0  0  0  0  0  0  0  0  0  0  0
   -2.9950   14.5580   -2.9080 C   0  0  2  0  0  0  0  0  0  0  0  0
   -3.7270   14.7280   -1.5740 C   0  0  2  0  0  0  0  0  0  0  0  0
   -1.6720   15.2040   -2.7850 N   0  0  0  0  0  0  0  0  0  0  0  0
   -5.0680   15.4470   -1.5560 C   0  0  0  0  0  0  0  0  0  0  0  0
   -0.7820   14.6980   -3.8610 C   0  0  1  0  0  0  0  0  0  0  0  0
   -2.6910   15.3570   -0.6590 C   0  0  2  0  0  0  0  0  0  0  0  0
   -1.3000   15.3850   -1.3550 C   0  0  1  0  0  0  0  0  0  0  0  0
    0.3450   15.5940   -4.4400 C   0  0  0  0  0  0  0  0  0  0  0  0
   -2.6350   14.8140    0.7380 C   0  0  2  0  0  0  0  0  0  0  0  0
   -0.2870   14.4800   -0.7170 N   0  0  0  0  0  0  0  0  0  0  0  0
   -0.4820   13.2260   -3.7180 C   0  0  0  0  0  0  0  0  0  0  0  0
   -3.6900   15.3160    1.5820 N   0  0  0  0  0  0  0  0  0  0  0  0
   -0.1620   16.2900   -5.5950 O   0  0  0  0  0  0  0  0  0  0  0  0
    1.2570   14.3050   -1.4030 S   0  0  0  0  0  0  0  0  0  0  0  0
   -1.4260   15.2410    1.3620 N   0  0  0  0  0  0  0  0  0  0  0  0
   -0.2320   14.6560    0.7550 C   0  0  0  0  0  0  0  0  0  0  0  0
    0.5790   12.4330   -3.3210 C   0  0  0  0  0  0  0  0  0  0  0  0
   -1.5330   12.4170   -4.0700 O   0  0  0  0  0  0  0  0  0  0  0  0
   -0.0550   17.7120   -5.6090 C   0  0  0  0  0  0  0  0  0  0  0  0
   -1.1510   11.1390   -3.8930 C   0  0  0  0  0  0  0  0  0  0  0  0
    0.1320   11.0890   -3.4320 C   0  0  0  0  0  0  0  0  0  0  0  0
   -1.4180   18.2900   -5.2420 C   0  0  0  0  0  0  0  0  0  0  0  0
    0.9820   18.1570   -4.6030 C   0  0  0  0  0  0  0  0  0  0  0  0
  2  1  1  6
  2  3  1  0
  2  4  1  0
  3  5  1  6
  4  6  1  0
  3  7  1  0
  8  4  1  6
  7  8  1  0
  6  9  1  1
  7 10  1  1
  8 11  1  0
  6 12  1  0
 10 13  1  1
  9 14  1  0
 11 15  1  0
 10 16  1  0
 11 17  1  0
 16 17  1  0
 12 18  2  0
 12 19  1  0
 14 20  1  0
 19 21  1  0
 18 22  1  0
 21 22  2  0
 20 23  1  0
 20 24  1  0
M  END
