mac-x0568-mac-x0412
     RDKit          3D

 15 16  0  0  0  0  0  0  0  0999 V2000
   -8.5040   13.9240    1.2280 C   0  0  0  0  0  0  0  0  0  0  0  0
   -7.1340   14.2880    0.7110 C   0  0  0  0  0  0  0  0  0  0  0  0
   -6.0010   13.6030    1.3480 C   0  0  0  0  0  0  0  0  0  0  0  0
   -7.1110   15.1490   -0.2170 N   0  0  0  0  0  0  0  0  0  0  0  0
   -5.8800   15.6700   -0.8200 C   0  0  2  0  0  0  0  0  0  0  0  0
   -4.8070   13.4410    0.7700 C   0  0  0  0  0  0  0  0  0  0  0  0
   -4.3600   13.8970   -0.5480 C   0  0  0  0  0  0  0  0  0  0  0  0
   -4.8400   14.8370   -1.3020 C   0  0  0  0  0  0  0  0  0  0  0  0
   -4.7260   15.9670    0.1450 C   0  0  0  0  0  0  0  0  0  0  0  0
   -3.1300   13.3850   -1.1540 C   0  0  0  0  0  0  0  0  0  0  0  0
   -3.4110   16.0410   -0.3650 C   0  0  0  0  0  0  0  0  0  0  0  0
   -4.0820   15.1600   -2.4150 C   0  0  0  0  0  0  0  0  0  0  0  0
   -3.1100   12.8930   -2.2610 O   0  0  0  0  0  0  0  0  0  0  0  0
   -2.0130   13.5990   -0.4010 N   0  0  0  0  0  0  0  0  0  0  0  0
   -3.1600   15.8830   -1.8320 C   0  0  0  0  0  0  0  0  0  0  0  0
  1  2  1  0
  2  3  1  0
  2  4  2  0
  4  5  1  0
  3  6  2  0
  6  7  1  0
  5  8  1  0
  7  8  2  0
  5  9  1  1
  7 10  1  0
  9 11  2  0
  8 12  1  0
 10 13  2  0
 10 14  1  0
 11 15  1  0
 12 15  2  0
M  END
