mac-x0564-mac-x0347
     RDKit          3D

 20 23  0  0  0  0  0  0  0  0999 V2000
   -0.2990   14.3050   -1.7410 N   0  0  0  0  0  0  0  0  0  0  0  0
   -0.9870   14.4100   -0.6880 C   0  0  0  0  0  0  0  0  0  0  0  0
   -0.0650   14.3340    0.2670 O   0  0  0  0  0  0  0  0  0  0  0  0
   -0.8560   14.3290   -2.9680 C   0  0  0  0  0  0  0  0  0  0  0  0
   -2.1750   14.5550   -3.3530 C   0  0  0  0  0  0  0  0  0  0  0  0
   -0.0270   14.1010   -4.0190 N   0  0  0  0  0  0  0  0  0  0  0  0
   -2.5490   14.5930   -0.2420 C   0  0  0  0  0  0  0  0  0  0  0  0
   -2.0860   14.4470   -4.7280 N   0  0  0  0  0  0  0  0  0  0  0  0
   -0.7880   14.1760   -5.0640 C   0  0  0  0  0  0  0  0  0  0  0  0
   -3.5860   14.8910   -1.2700 C   0  0  0  0  0  0  0  0  0  0  0  0
   -3.4430   14.8460   -2.6530 C   0  0  0  0  0  0  0  0  0  0  0  0
   -2.8080   15.4770    0.9970 C   0  0  0  0  0  0  0  0  0  0  0  0
   -3.3580   13.3090    0.0210 C   0  0  0  0  0  0  0  0  0  0  0  0
   -4.6110   15.0800   -3.3890 C   0  0  0  0  0  0  0  0  0  0  0  0
   -4.8270   15.1980   -0.6860 C   0  0  0  0  0  0  0  0  0  0  0  0
   -3.9530   15.4220    1.7380 C   0  0  0  0  0  0  0  0  0  0  0  0
   -4.5020   13.2590    0.7660 C   0  0  0  0  0  0  0  0  0  0  0  0
   -5.8440   15.3590   -2.7670 C   0  0  0  0  0  0  0  0  0  0  0  0
   -5.9470   15.4310   -1.4160 C   0  0  0  0  0  0  0  0  0  0  0  0
   -5.0700   14.4750    1.4270 C   0  0  0  0  0  0  0  0  0  0  0  0
  1  2  2  0
  2  3  1  0
  1  4  1  0
  4  5  2  0
  4  6  1  0
  7  2  1  0
  5  8  1  0
  6  9  2  0
  8  9  1  0
  7 10  1  0
  5 11  1  0
 10 11  2  0
  7 12  1  0
  7 13  1  0
 11 14  1  0
 10 15  1  0
 12 16  2  0
 13 17  2  0
 14 18  2  0
 15 19  2  0
 18 19  1  0
 16 20  1  0
 17 20  1  0
M  END
