mac-x0346-mac-x0301
     RDKit          3D

 18 19  0  0  0  0  0  0  0  0999 V2000
   -7.3570   14.6710    1.3290 O   0  0  0  0  0  0  0  0  0  0  0  0
   -7.5300   14.3920   -0.0530 N   0  0  0  0  0  0  0  0  0  0  0  0
   -6.5380   14.8410   -0.9010 C   0  0  0  0  0  0  0  0  0  0  0  0
   -6.8420   15.4060   -1.9500 O   0  0  0  0  0  0  0  0  0  0  0  0
   -5.0590   14.5930   -0.5390 C   0  0  1  0  0  0  0  0  0  0  0  0
   -4.0530   14.7870   -1.7090 C   0  0  1  0  0  0  0  0  0  0  0  0
   -4.5830   15.1740    0.7500 C   0  0  0  0  0  0  0  0  0  0  0  0
   -4.2640   15.9430   -2.4860 O   0  0  0  0  0  0  0  0  0  0  0  0
   -2.5450   14.5730   -1.3970 C   0  0  1  0  0  0  0  0  0  0  0  0
   -3.2810   15.2980    1.0170 C   0  0  0  0  0  0  0  0  0  0  0  0
   -1.5530   14.8610   -2.5580 C   0  0  0  0  0  0  0  0  0  0  0  0
   -2.1440   14.8870    0.0850 C   0  0  2  0  0  0  0  0  0  0  0  0
   -0.2600   15.0210   -2.2060 O   0  0  0  0  0  0  0  0  0  0  0  0
   -1.8320   14.9250   -3.7530 O   0  0  0  0  0  0  0  0  0  0  0  0
   -0.9580   15.6570    0.4110 O   0  0  0  0  0  0  0  0  0  0  0  0
   -1.6090   13.5990    0.5120 C   0  0  0  0  0  0  0  0  0  0  0  0
   -0.2810   13.5060    0.0300 O   0  0  0  0  0  0  0  0  0  0  0  0
    0.1360   14.7540    0.5420 C   0  0  0  0  0  0  0  0  0  0  0  0
  1  2  1  0
  2  3  1  0
  3  4  2  0
  5  3  1  6
  5  6  1  0
  5  7  1  0
  6  8  1  1
  6  9  1  0
  7 10  2  0
  9 11  1  6
  9 12  1  0
 12 10  1  1
 11 13  1  0
 11 14  2  0
 12 15  1  0
 12 16  1  0
 16 17  1  0
 15 18  1  0
 17 18  1  0
M  END
