mac-x0115-mac-x0373
     RDKit          3D

 25 28  0  0  0  0  0  0  0  0999 V2000
   -1.4200   18.5790   -5.1960 C   0  0  0  0  0  0  0  0  0  0  0  0
   -0.4150   17.6400   -5.8290 C   0  0  0  0  0  0  0  0  0  0  0  0
    1.0090   18.0710   -5.5400 C   0  0  0  0  0  0  0  0  0  0  0  0
   -0.5990   16.3110   -5.3090 O   0  0  0  0  0  0  0  0  0  0  0  0
    0.5110   15.7050   -4.6200 C   0  0  0  0  0  0  0  0  0  0  0  0
   -0.0690   14.6950   -3.5790 C   0  0  2  0  0  0  0  0  0  0  0  0
    0.5570   13.4120   -3.6250 O   0  0  0  0  0  0  0  0  0  0  0  0
   -1.6460   14.4730   -3.7100 C   0  0  2  0  0  0  0  0  0  0  0  0
    0.1140   15.1050   -2.1530 N   0  0  0  0  0  0  0  0  0  0  0  0
    1.0270   14.5520   -1.3000 C   0  0  0  0  0  0  0  0  0  0  0  0
   -1.1160   15.2540   -1.6310 C   0  0  0  0  0  0  0  0  0  0  0  0
   -2.0970   14.9400   -2.4030 C   0  0  0  0  0  0  0  0  0  0  0  0
   -1.9500   13.0560   -4.0580 C   0  0  0  0  0  0  0  0  0  0  0  0
    2.5740   14.0650   -1.7090 S   0  0  0  0  0  0  0  0  0  0  0  0
    0.5720   14.3850    0.0180 N   0  0  0  0  0  0  0  0  0  0  0  0
   -1.4530   15.6950   -0.3120 C   0  0  2  0  0  0  0  0  0  0  0  0
   -3.2370   15.1880   -1.5420 C   0  0  0  0  0  0  0  0  0  0  0  0
   -1.2790   12.5550   -5.1760 C   0  0  0  0  0  0  0  0  0  0  0  0
   -2.8300   12.2290   -3.3500 C   0  0  0  0  0  0  0  0  0  0  0  0
   -0.6410   14.8070    0.6040 C   0  0  0  0  0  0  0  0  0  0  0  0
   -2.9560   15.5990   -0.3250 N   0  0  0  0  0  0  0  0  0  0  0  0
   -1.4780   11.2500   -5.5930 C   0  0  0  0  0  0  0  0  0  0  0  0
   -3.0300   10.9170   -3.7680 C   0  0  0  0  0  0  0  0  0  0  0  0
   -0.9760   14.4740    1.7460 O   0  0  0  0  0  0  0  0  0  0  0  0
   -2.3540   10.4300   -4.8890 C   0  0  0  0  0  0  0  0  0  0  0  0
  1  2  1  0
  2  3  1  0
  2  4  1  0
  4  5  1  0
  5  6  1  0
  6  7  1  1
  6  8  1  0
  6  9  1  0
  9 10  1  0
  9 11  1  0
  8 12  1  0
 11 12  2  0
  8 13  1  1
 10 14  2  0
 10 15  1  0
 11 16  1  0
 12 17  1  0
 13 18  2  0
 13 19  1  0
 15 20  1  0
 16 20  1  0
 16 21  1  1
 17 21  2  0
 18 22  1  0
 19 23  2  0
 20 24  2  0
 22 25  2  0
 23 25  1  0
M  END
