mac-x0576-diamond-x0465_0_A
     RDKit          3D

 28 30  0  0  0  0  0  0  0  0999 V2000
    0.0330   14.0140    1.7410 N   0  0  0  0  0  0  0  0  0  0  0  0
   -0.8590   14.8120    0.9700 C   0  0  2  0  0  0  0  0  0  0  0  0
   -2.1430   14.3540    1.4050 N   0  0  0  0  0  0  0  0  0  0  0  0
   -0.6080   14.9670   -0.4010 N   0  0  0  0  0  0  0  0  0  0  0  0
   -1.5930   15.3570   -1.2500 C   0  0  0  0  0  0  0  0  0  0  0  0
   -3.1590   15.1750    0.7950 C   0  0  1  0  0  0  0  0  0  0  0  0
   -1.1520   15.6740   -2.4090 N   0  0  0  0  0  0  0  0  0  0  0  0
   -3.0470   15.4070   -0.7360 C   0  0  2  0  0  0  0  0  0  0  0  0
   -4.4220   14.6830    1.2410 N   0  0  0  0  0  0  0  0  0  0  0  0
    0.2920   15.6610   -2.6410 C   0  0  0  0  0  0  0  0  0  0  0  0
   -5.5550   14.8140    0.5080 C   0  0  0  0  0  0  0  0  0  0  0  0
   -4.0410   14.6350   -1.4890 N   0  0  0  0  0  0  0  0  0  0  0  0
   -6.6590   14.7720    1.0480 O   0  0  0  0  0  0  0  0  0  0  0  0
    0.8290   14.4670   -3.4090 C   0  0  0  0  0  0  0  0  0  0  0  0
   -5.3860   15.0140   -0.9990 C   0  0  0  0  0  0  0  0  0  0  0  0
    0.7390   13.2010   -2.6780 N   0  0  0  0  0  0  0  0  0  0  0  0
    0.6820   12.2200   -3.4620 C   0  0  0  0  0  0  0  0  0  0  0  0
    0.7100   12.3240   -4.9760 C   0  0  1  0  0  0  0  0  0  0  0  0
    0.5930   10.9790   -2.9340 O   0  0  0  0  0  0  0  0  0  0  0  0
    2.0270   12.9810   -5.3350 C   0  0  0  0  0  0  0  0  0  0  0  0
    0.5810   11.1640   -5.7520 O   0  0  0  0  0  0  0  0  0  0  0  0
   -0.6640   10.6800   -5.9540 C   0  0  0  0  0  0  0  0  0  0  0  0
   -0.7420    9.4770   -6.6560 C   0  0  0  0  0  0  0  0  0  0  0  0
   -1.8340   11.2800   -5.5250 C   0  0  0  0  0  0  0  0  0  0  0  0
    0.3630    8.8730   -7.1030 F   0  0  0  0  0  0  0  0  0  0  0  0
   -1.9620    8.8720   -6.9150 C   0  0  0  0  0  0  0  0  0  0  0  0
   -3.0660   10.6790   -5.7870 C   0  0  0  0  0  0  0  0  0  0  0  0
   -3.1310    9.4740   -6.4760 C   0  0  0  0  0  0  0  0  0  0  0  0
  2  1  1  6
  2  3  1  0
  2  4  1  0
  4  5  1  0
  6  3  1  6
  5  7  2  3
  5  8  1  0
  6  8  1  0
  6  9  1  0
  7 10  1  0
  9 11  1  0
  8 12  1  6
 11 13  2  0
 10 14  1  0
 11 15  1  0
 12 15  1  0
 14 16  1  0
 16 17  2  3
 17 18  1  0
 17 19  1  0
 18 20  1  1
 18 21  1  0
 21 22  1  0
 22 23  2  0
 22 24  1  0
 23 25  1  0
 23 26  1  0
 24 27  2  0
 26 28  2  0
 27 28  1  0
M  END
