mac-x0380-diamond-x0282_0_A
     RDKit          3D

 21 23  0  0  0  0  0  0  0  0999 V2000
   -1.4750   15.1350   -2.5170 O   0  0  0  0  0  0  0  0  0  0  0  0
   -2.8140   15.1160   -2.6390 C   0  0  0  0  0  0  0  0  0  0  0  0
   -3.3280   15.6360   -3.6150 O   0  0  0  0  0  0  0  0  0  0  0  0
   -3.5320   14.3910   -1.5180 C   0  0  2  0  0  0  0  0  0  0  0  0
   -5.1030   14.5030   -1.4460 C   0  0  1  0  0  0  0  0  0  0  0  0
   -2.7600   14.2430   -0.1430 C   0  0  1  0  0  0  0  0  0  0  0  0
   -5.8900   13.2000   -1.1080 C   0  0  0  0  0  0  0  0  0  0  0  0
   -5.6130   15.4860   -0.4230 C   0  0  2  0  0  0  0  0  0  0  0  0
   -3.8910   13.9950    0.8970 C   0  0  0  0  0  0  0  0  0  0  0  0
   -1.9040   13.0920   -0.4160 N   0  0  0  0  0  0  0  0  0  0  0  0
   -1.9560   15.2840    0.4970 N   0  0  0  0  0  0  0  0  0  0  0  0
   -7.3100   13.3490   -1.1740 O   0  0  0  0  0  0  0  0  0  0  0  0
   -4.9500   15.1470    0.9480 C   0  0  2  0  0  0  0  0  0  0  0  0
   -7.4680   15.3940   -0.5580 S   0  0  0  0  0  0  0  0  0  0  0  0
   -0.6030   13.4450   -1.0100 C   0  0  0  0  0  0  0  0  0  0  0  0
   -0.5650   15.2950    0.5100 C   0  0  0  0  0  0  0  0  0  0  0  0
   -5.8710   14.9780    2.0790 N   0  0  0  0  0  0  0  0  0  0  0  0
   -7.8690   14.2830    0.8170 C   0  0  0  0  0  0  0  0  0  0  0  0
    0.1310   14.4380   -0.2070 C   0  0  0  0  0  0  0  0  0  0  0  0
   -7.2110   14.6890    2.0920 C   0  0  0  0  0  0  0  0  0  0  0  0
   -7.8510   14.7780    3.1400 O   0  0  0  0  0  0  0  0  0  0  0  0
  1  2  1  0
  2  3  2  0
  4  2  1  1
  4  5  1  0
  4  6  1  0
  5  7  1  1
  5  8  1  0
  6  9  1  1
  6 10  1  0
  6 11  1  0
  7 12  1  0
  8 13  1  0
 13  9  1  6
  8 14  1  1
 10 15  1  0
 11 16  1  0
 13 17  1  0
 14 18  1  0
 15 19  1  0
 16 19  2  0
 17 20  1  0
 18 20  1  0
 20 21  2  0
M  END
