mac-x0115-diamond-x0662_0_A
     RDKit          3D

 36 39  0  0  0  0  0  0  0  0999 V2000
   -1.4690   18.5620   -5.3370 C   0  0  0  0  0  0  0  0  0  0  0  0
   -0.3470   17.5390   -5.4630 C   0  0  0  0  0  0  0  0  0  0  0  0
    0.9100   18.0210   -4.7610 C   0  0  0  0  0  0  0  0  0  0  0  0
   -0.7900   16.3280   -4.8410 O   0  0  0  0  0  0  0  0  0  0  0  0
    0.0210   15.2090   -5.1930 C   0  0  0  0  0  0  0  0  0  0  0  0
    0.6490   14.3840   -4.0540 C   0  0  2  0  0  0  0  0  0  0  0  0
    1.0960   12.9280   -4.4260 C   0  0  0  0  0  0  0  0  0  0  0  0
    0.1550   14.5770   -2.6140 N   0  0  0  0  0  0  0  0  0  0  0  0
    0.8340   12.4750   -5.7810 O   0  0  0  0  0  0  0  0  0  0  0  0
    1.0940   14.3030   -1.5990 C   0  0  0  0  0  0  0  0  0  0  0  0
   -1.1480   14.9090   -2.1850 C   0  0  0  0  0  0  0  0  0  0  0  0
    2.7230   13.9840   -1.8410 S   0  0  0  0  0  0  0  0  0  0  0  0
   -0.0310   11.4150   -5.8140 C   0  0  0  0  0  0  0  0  0  0  0  0
    0.6500   14.2840   -0.2840 N   0  0  0  0  0  0  0  0  0  0  0  0
   -1.3100   15.5340   -0.8270 C   0  0  2  0  0  0  0  0  0  0  0  0
   -2.3430   14.7830   -2.7670 C   0  0  0  0  0  0  0  0  0  0  0  0
   -0.7430   11.1100   -4.8760 O   0  0  0  0  0  0  0  0  0  0  0  0
   -0.5610   14.7370    0.2090 C   0  0  0  0  0  0  0  0  0  0  0  0
   -2.7700   15.6880   -0.6150 N   0  0  0  0  0  0  0  0  0  0  0  0
   -3.2650   15.2840   -1.7430 C   0  0  0  0  0  0  0  0  0  0  0  0
   -0.0650   10.6300   -7.0980 C   0  0  0  0  0  0  0  0  0  0  0  0
   -0.9310   14.5000    1.3610 O   0  0  0  0  0  0  0  0  0  0  0  0
   -0.9930    9.5970   -7.2450 C   0  0  0  0  0  0  0  0  0  0  0  0
    0.8120   10.9080   -8.1570 C   0  0  0  0  0  0  0  0  0  0  0  0
   -1.0520    8.8580   -8.4240 C   0  0  0  0  0  0  0  0  0  0  0  0
    0.7580   10.1700   -9.3600 C   0  0  0  0  0  0  0  0  0  0  0  0
    1.5820   10.3700  -10.4930 N   0  0  0  0  0  0  0  0  0  0  0  0
   -0.1820    9.1460   -9.4730 C   0  0  0  0  0  0  0  0  0  0  0  0
    2.2060    9.4040  -11.2720 C   0  0  0  0  0  0  0  0  0  0  0  0
    2.2400    8.2060  -11.0320 O   0  0  0  0  0  0  0  0  0  0  0  0
    2.8890    9.9450  -12.4750 C   0  0  0  0  0  0  0  0  0  0  0  0
    2.6880   11.1940  -13.1270 C   0  0  0  0  0  0  0  0  0  0  0  0
    3.8520    9.2290  -13.0970 N   0  0  0  0  0  0  0  0  0  0  0  0
    4.2460   10.0170  -14.1130 N   0  0  0  0  0  0  0  0  0  0  0  0
    3.5780   11.2070  -14.1760 C   0  0  0  0  0  0  0  0  0  0  0  0
    5.2900    9.5530  -14.9960 C   0  0  0  0  0  0  0  0  0  0  0  0
  1  2  1  0
  2  3  1  0
  2  4  1  0
  4  5  1  0
  6  5  1  6
  6  7  1  0
  6  8  1  0
  7  9  1  0
  8 10  1  0
  8 11  1  0
 10 12  2  0
  9 13  1  0
 10 14  1  0
 11 15  1  0
 11 16  2  0
 13 17  2  0
 14 18  1  0
 15 18  1  0
 15 19  1  1
 16 20  1  0
 19 20  2  0
 13 21  1  0
 18 22  2  0
 21 23  2  0
 21 24  1  0
 23 25  1  0
 24 26  2  0
 26 27  1  0
 25 28  2  0
 26 28  1  0
 27 29  1  0
 29 30  2  0
 29 31  1  0
 31 32  1  0
 31 33  2  0
 33 34  1  0
 32 35  2  0
 34 35  1  0
 34 36  1  0
M  END
