mac-x0337-diamond-x0626_0_A
     RDKit          3D

 21 22  0  0  0  0  0  0  0  0999 V2000
   -5.3880    9.1460   -2.2380 C   0  0  0  0  0  0  0  0  0  0  0  0
   -5.1180   10.6060   -2.0010 C   0  0  0  0  0  0  0  0  0  0  0  0
   -5.9320   11.3270   -1.1280 C   0  0  0  0  0  0  0  0  0  0  0  0
   -4.0540   11.2530   -2.6510 C   0  0  0  0  0  0  0  0  0  0  0  0
   -3.8100   12.6200   -2.4420 C   0  0  0  0  0  0  0  0  0  0  0  0
   -5.7020   12.6790   -0.9100 C   0  0  0  0  0  0  0  0  0  0  0  0
   -4.6470   13.3330   -1.5660 C   0  0  0  0  0  0  0  0  0  0  0  0
   -4.4610   15.0950   -1.2220 S   0  0  0  0  0  0  0  0  0  0  0  0
   -3.2140   15.4060   -0.5800 O   0  0  0  0  0  0  0  0  0  0  0  0
   -4.6750   15.7210   -2.4650 O   0  0  0  0  0  0  0  0  0  0  0  0
   -5.7630   15.1440   -0.2660 N   0  0  0  0  0  0  0  0  0  0  0  0
   -5.8430   14.7020    0.9620 C   0  0  0  0  0  0  0  0  0  0  0  0
   -4.7410   14.1940    1.6220 N   0  0  0  0  0  0  0  0  0  0  0  0
   -7.1170   14.6510    1.8200 C   0  0  0  0  0  0  0  0  0  0  0  0
   -8.3670   14.7650    0.9610 C   0  0  0  0  0  0  0  0  0  0  0  0
   -3.4720   14.1680    1.1470 C   0  0  0  0  0  0  0  0  0  0  0  0
   -2.3730   14.7490    1.5980 N   0  0  0  0  0  0  0  0  0  0  0  0
   -3.2190   13.2530   -0.2860 S   0  0  0  0  0  0  0  0  0  0  0  0
   -1.5870   13.6790   -0.3200 C   0  0  0  0  0  0  0  0  0  0  0  0
   -1.3060   14.4690    0.7500 C   0  0  0  0  0  0  0  0  0  0  0  0
    0.0140   15.0110    1.0290 C   0  0  0  0  0  0  0  0  0  0  0  0
  1  2  1  0
  2  3  2  0
  2  4  1  0
  4  5  2  0
  3  6  1  0
  5  7  1  0
  6  7  2  0
  7  8  1  0
  8  9  2  0
  8 10  2  0
  8 11  1  0
 11 12  2  3
 12 13  1  0
 12 14  1  0
 14 15  1  0
 13 16  1  0
 16 17  2  0
 16 18  1  0
 18 19  1  0
 17 20  1  0
 19 20  2  0
 20 21  1  0
M  END
