mac-x0337-mac-x0204
     RDKit          3D

 22 23  0  0  0  0  0  0  0  0999 V2000
   -5.8130    9.4000   -2.1620 C   0  0  0  0  0  0  0  0  0  0  0  0
   -5.2650   10.7660   -1.8610 C   0  0  0  0  0  0  0  0  0  0  0  0
   -5.9510   11.6440   -1.0100 C   0  0  0  0  0  0  0  0  0  0  0  0
   -4.0520   11.1760   -2.4310 C   0  0  0  0  0  0  0  0  0  0  0  0
   -3.5280   12.4440   -2.1640 C   0  0  0  0  0  0  0  0  0  0  0  0
   -5.4320   12.9160   -0.7390 C   0  0  0  0  0  0  0  0  0  0  0  0
   -4.2210   13.3150   -1.3190 C   0  0  0  0  0  0  0  0  0  0  0  0
   -3.5680   14.9400   -0.9810 S   0  0  2  0  0  0  0  0  0  0  0  0
   -3.3940   15.7840   -2.2620 N   0  0  0  0  0  0  0  0  0  0  0  0
   -2.6560   14.8770    0.1380 O   0  0  0  0  0  0  0  0  0  0  0  0
   -4.8460   15.7910   -0.3090 N   0  0  0  0  0  0  0  0  0  0  0  0
   -2.0640   16.0040   -2.9210 C   0  0  0  0  0  0  0  0  0  0  0  0
   -1.8870   14.9190   -3.9340 C   0  0  0  0  0  0  0  0  0  0  0  0
   -0.9030   13.9370   -3.7980 C   0  0  0  0  0  0  0  0  0  0  0  0
   -2.7250   14.8590   -5.0560 C   0  0  0  0  0  0  0  0  0  0  0  0
    0.0690   13.9320   -2.6820 C   0  0  0  0  0  0  0  0  0  0  0  0
   -3.6720   15.8160   -5.2550 O   0  0  0  0  0  0  0  0  0  0  0  0
   -2.5830   13.8220   -5.9560 C   0  0  0  0  0  0  0  0  0  0  0  0
   -0.8380   12.9340   -4.7550 C   0  0  0  0  0  0  0  0  0  0  0  0
    0.5730   12.7110   -2.4420 O   0  0  0  0  0  0  0  0  0  0  0  0
    0.4350   14.8980   -2.0410 O   0  0  0  0  0  0  0  0  0  0  0  0
   -1.6660   12.8500   -5.8280 N   0  0  0  0  0  0  0  0  0  0  0  0
  1  2  1  0
  2  3  2  0
  2  4  1  0
  4  5  2  0
  3  6  1  0
  5  7  1  0
  6  7  2  0
  7  8  1  0
  8  9  2  0
  8 10  2  0
  8 11  1  1
  9 12  1  0
 12 13  1  0
 13 14  2  0
 13 15  1  0
 14 16  1  0
 15 17  1  0
 15 18  2  0
 14 19  1  0
 16 20  1  0
 16 21  2  0
 18 22  1  0
 19 22  2  0
M  END
