mac-x0398-diamond-x0962_1_A
     RDKit          3D

 12 12  0  0  0  0  0  0  0  0999 V2000
   -6.3650   14.8690    2.3700 N   0  0  0  0  0  0  0  0  0  0  0  0
   -5.5800   14.8120    1.2090 C   0  0  0  0  0  0  0  0  0  0  0  0
   -4.1950   14.6390    1.2780 C   0  0  0  0  0  0  0  0  0  0  0  0
   -6.1820   14.9310   -0.0400 C   0  0  0  0  0  0  0  0  0  0  0  0
   -5.4190   14.8730   -1.1930 C   0  0  0  0  0  0  0  0  0  0  0  0
   -3.4240   14.5790    0.1180 C   0  0  0  0  0  0  0  0  0  0  0  0
   -6.1070   15.0030   -2.3730 O   0  0  0  0  0  0  0  0  0  0  0  0
   -4.0290   14.6910   -1.1400 C   0  0  0  0  0  0  0  0  0  0  0  0
   -3.2400   14.6240   -2.4140 C   0  0  0  0  0  0  0  0  0  0  0  0
   -3.4230   13.4350   -3.1300 O   0  0  0  0  0  0  0  0  0  0  0  0
   -1.8480   14.8190   -2.2500 O   0  0  0  0  0  0  0  0  0  0  0  0
   -3.8200   15.6800   -3.2330 C   0  0  0  0  0  0  0  0  0  0  0  0
  1  2  1  0
  2  3  2  0
  2  4  1  0
  4  5  2  0
  3  6  1  0
  5  7  1  0
  5  8  1  0
  6  8  2  0
  8  9  1  0
  9 10  1  0
  9 11  1  0
  9 12  1  0
M  END
