mac-x0345-mac-x0282
     RDKit          3D

 16 18  0  0  0  0  0  0  0  0999 V2000
   -8.2100   14.9570   -0.4850 C   0  0  0  0  0  0  0  0  0  0  0  0
   -6.7100   14.9700   -0.5340 C   0  0  0  0  0  0  0  0  0  0  0  0
   -6.1210   15.1230   -1.7700 N   0  0  0  0  0  0  0  0  0  0  0  0
   -5.9890   14.8380    0.5600 C   0  0  0  0  0  0  0  0  0  0  0  0
   -6.6890   14.6120    2.2470 Br  0  0  0  0  0  0  0  0  0  0  0  0
   -4.5400   14.8620    0.4120 C   0  0  0  0  0  0  0  0  0  0  0  0
   -4.7640   15.0670   -2.0140 C   0  0  0  0  0  0  0  0  0  0  0  0
   -4.3810   15.1510   -3.3300 N   0  0  0  0  0  0  0  0  0  0  0  0
   -3.9230   14.9340   -0.9460 C   0  0  0  0  0  0  0  0  0  0  0  0
   -3.6970   14.8100    1.3830 N   0  0  0  0  0  0  0  0  0  0  0  0
   -2.4910   14.8320   -0.6300 C   0  0  0  0  0  0  0  0  0  0  0  0
   -2.4610   14.7780    0.7760 C   0  0  0  0  0  0  0  0  0  0  0  0
   -1.2820   14.7820   -1.3050 C   0  0  0  0  0  0  0  0  0  0  0  0
   -1.3870   14.6870    1.5460 N   0  0  0  0  0  0  0  0  0  0  0  0
   -0.1200   14.6940   -0.5190 C   0  0  0  0  0  0  0  0  0  0  0  0
   -0.2410   14.6550    0.8750 C   0  0  0  0  0  0  0  0  0  0  0  0
  1  2  1  0
  2  3  1  0
  2  4  2  0
  4  5  1  0
  4  6  1  0
  3  7  1  0
  7  8  1  0
  6  9  1  0
  7  9  2  0
  6 10  2  0
  9 11  1  0
 10 12  1  0
 11 12  2  0
 11 13  1  0
 12 14  1  0
 13 15  2  0
 14 16  2  0
 15 16  1  0
M  END
