mac-x0180-diamond-x0900_0_A
     RDKit          3D

 13 13  0  0  0  0  0  0  0  0999 V2000
   -7.7290   14.4870    1.5880 C   0  0  0  0  0  0  0  0  0  0  0  0
   -6.7850   14.6820    0.4310 C   0  0  0  0  0  0  0  0  0  0  0  0
   -7.2140   14.7460   -0.7150 O   0  0  0  0  0  0  0  0  0  0  0  0
   -5.4550   14.7780    0.8200 N   0  0  0  0  0  0  0  0  0  0  0  0
   -4.3760   14.8210   -0.0880 C   0  0  0  0  0  0  0  0  0  0  0  0
   -3.0780   14.6610    0.4150 C   0  0  0  0  0  0  0  0  0  0  0  0
   -4.5530   15.0110   -1.4640 C   0  0  0  0  0  0  0  0  0  0  0  0
   -1.9760   14.6850   -0.4500 C   0  0  0  0  0  0  0  0  0  0  0  0
   -3.4610   15.0360   -2.3300 C   0  0  0  0  0  0  0  0  0  0  0  0
   -2.1730   14.8720   -1.8290 C   0  0  0  0  0  0  0  0  0  0  0  0
   -1.0400   14.9060   -2.7860 C   0  0  0  0  0  0  0  0  0  0  0  0
   -1.1800   14.9380   -3.9960 O   0  0  0  0  0  0  0  0  0  0  0  0
    0.1570   14.9100   -2.1720 O   0  0  0  0  0  0  0  0  0  0  0  0
  1  2  1  0
  2  3  2  0
  2  4  1  0
  4  5  1  0
  5  6  2  0
  5  7  1  0
  6  8  1  0
  7  9  2  0
  8 10  2  0
  9 10  1  0
 10 11  1  0
 11 12  2  0
 11 13  1  0
M  END
