mac-x0433-diamond-x0592_0_A
     RDKit          3D

 13 13  0  0  0  0  0  0  0  0999 V2000
   -3.0990   14.9030    0.1870 C   0  0  0  0  0  0  0  0  0  0  0  0
   -2.8030   14.7480    1.5140 N   0  0  0  0  0  0  0  0  0  0  0  0
   -2.2190   14.9990   -0.6560 O   0  0  0  0  0  0  0  0  0  0  0  0
   -4.5310   14.8960   -0.2130 C   0  0  0  0  0  0  0  0  0  0  0  0
   -4.7180   15.0190   -1.5450 N   0  0  0  0  0  0  0  0  0  0  0  0
   -5.5440   14.7570    0.7100 C   0  0  0  0  0  0  0  0  0  0  0  0
   -5.9800   14.9930   -1.9470 C   0  0  0  0  0  0  0  0  0  0  0  0
   -6.8200   14.7460    0.1720 C   0  0  0  0  0  0  0  0  0  0  0  0
   -8.0600   14.5970    1.0200 C   0  0  0  0  0  0  0  0  0  0  0  0
   -6.2170   15.0890   -3.2950 N   0  0  0  0  0  0  0  0  0  0  0  0
   -7.0370   14.8660   -1.1520 N   0  0  0  0  0  0  0  0  0  0  0  0
   -7.7670   14.0730    2.4170 C   0  0  0  0  0  0  0  0  0  0  0  0
   -7.0630   15.0430    3.1810 O   0  0  0  0  0  0  0  0  0  0  0  0
  1  2  1  0
  1  3  2  0
  1  4  1  0
  4  5  2  0
  4  6  1  0
  5  7  1  0
  6  8  2  0
  8  9  1  0
  7 10  1  0
  7 11  2  0
  8 11  1  0
  9 12  1  0
 12 13  1  0
M  END
