mac-x0302-mac-x0303
     RDKit          3D

 21 22  0  0  0  0  0  0  0  0999 V2000
    1.5800   14.1310   -3.6820 O   0  0  0  0  0  0  0  0  0  0  0  0
    0.6060   14.0040   -2.7600 C   0  0  0  0  0  0  0  0  0  0  0  0
    0.7780   13.4000   -1.7160 O   0  0  0  0  0  0  0  0  0  0  0  0
   -0.7210   14.6580   -3.1110 C   0  0  0  0  0  0  0  0  0  0  0  0
   -1.6850   14.7280   -2.0250 N   0  0  0  0  0  0  0  0  0  0  0  0
   -2.9730   15.1050   -2.2470 C   0  0  0  0  0  0  0  0  0  0  0  0
   -3.2590   15.7380   -3.2670 O   0  0  0  0  0  0  0  0  0  0  0  0
   -4.0460   14.6970   -1.2420 C   0  0  2  0  0  0  0  0  0  0  0  0
   -5.3790   14.9660   -1.9160 C   0  0  0  0  0  0  0  0  0  0  0  0
   -3.9750   15.3170    0.1450 C   0  0  0  0  0  0  0  0  0  0  0  0
   -6.5530   14.7310   -0.9980 C   0  0  1  0  0  0  0  0  0  0  0  0
   -5.0370   15.1990    0.9790 C   0  0  0  0  0  0  0  0  0  0  0  0
   -7.3430   13.6730   -1.4660 O   0  0  0  0  0  0  0  0  0  0  0  0
   -6.2630   14.4440    0.4760 C   0  0  1  0  0  0  0  0  0  0  0  0
   -7.4460   15.8640   -0.9970 N   0  0  0  0  0  0  0  0  0  0  0  0
   -7.7720   14.4490    0.8790 C   0  0  2  0  0  0  0  0  0  0  0  0
   -8.4690   15.4300   -0.0620 C   0  0  0  0  0  0  0  0  0  0  0  0
   -8.4210   14.5970    2.5130 S   0  0  0  0  0  0  0  0  0  0  0  0
   -8.1950   13.0570    3.1150 N   0  0  0  0  0  0  0  0  0  0  0  0
   -7.6830   15.4930    3.3560 O   0  0  0  0  0  0  0  0  0  0  0  0
   -9.8500   14.7210    2.3550 O   0  0  0  0  0  0  0  0  0  0  0  0
  1  2  1  0
  2  3  2  0
  2  4  1  0
  4  5  1  0
  5  6  1  0
  6  7  2  0
  8  6  1  6
  8  9  1  0
  8 10  1  0
  9 11  1  0
 10 12  2  0
 11 13  1  6
 11 14  1  0
 14 12  1  1
 11 15  1  0
 14 16  1  0
 15 17  1  0
 16 17  1  0
 16 18  1  1
 18 19  1  0
 18 20  2  0
 18 21  2  0
M  END
