mac-x0224-mac-x0344
     RDKit          3D

 22 23  0  0  0  0  0  0  0  0999 V2000
   -5.0510   14.9850    1.1990 C   0  0  0  0  0  0  0  0  0  0  0  0
   -3.2430   15.0070    1.2500 S   0  0  0  0  0  0  0  0  0  0  0  0
   -2.8660   14.9090   -0.4840 C   0  0  0  0  0  0  0  0  0  0  0  0
   -1.5810   14.5000   -0.8380 C   0  0  0  0  0  0  0  0  0  0  0  0
   -3.7970   15.2270   -1.4830 C   0  0  0  0  0  0  0  0  0  0  0  0
   -1.2120   14.4080   -2.1850 C   0  0  0  0  0  0  0  0  0  0  0  0
   -3.4350   15.1350   -2.8310 C   0  0  0  0  0  0  0  0  0  0  0  0
    0.1760   13.9690   -2.4940 C   0  0  0  0  0  0  0  0  0  0  0  0
   -2.1460   14.7290   -3.1820 C   0  0  0  0  0  0  0  0  0  0  0  0
   -1.8020   14.6470   -4.5020 O   0  0  0  0  0  0  0  0  0  0  0  0
    1.0690   14.1540   -1.6650 O   0  0  0  0  0  0  0  0  0  0  0  0
    0.4520   13.3460   -3.7290 N   0  0  0  0  0  0  0  0  0  0  0  0
    1.6560   13.8670   -4.3020 O   0  0  0  0  0  0  0  0  0  0  0  0
    0.2390   12.0020   -4.0520 C   0  0  0  0  0  0  0  0  0  0  0  0
    0.1670   11.0890   -3.2170 O   0  0  0  0  0  0  0  0  0  0  0  0
    0.1020   11.6410   -5.3730 N   0  0  0  0  0  0  0  0  0  0  0  0
   -0.6960   10.6780   -6.0270 C   0  0  0  0  0  0  0  0  0  0  0  0
   -0.3540   10.0660   -7.2350 C   0  0  0  0  0  0  0  0  0  0  0  0
   -1.9060   10.3260   -5.4110 C   0  0  0  0  0  0  0  0  0  0  0  0
   -1.2050    9.1210   -7.8160 C   0  0  0  0  0  0  0  0  0  0  0  0
   -2.7550    9.3800   -5.9940 C   0  0  0  0  0  0  0  0  0  0  0  0
   -2.4040    8.7770   -7.1970 C   0  0  0  0  0  0  0  0  0  0  0  0
  1  2  1  0
  2  3  1  0
  3  4  2  0
  3  5  1  0
  4  6  1  0
  5  7  2  0
  6  8  1  0
  6  9  2  0
  7  9  1  0
  9 10  1  0
  8 11  2  0
  8 12  1  0
 12 13  1  0
 12 14  1  0
 14 15  2  0
 14 16  1  0
 16 17  1  0
 17 18  2  0
 17 19  1  0
 18 20  1  0
 19 21  2  0
 20 22  2  0
 21 22  1  0
M  END
