mac-x0411-mac-x0179
     RDKit          3D

 18 20  0  0  0  0  0  0  0  0999 V2000
    0.4480    9.2140   -7.7420 Cl  0  0  0  0  0  0  0  0  0  0  0  0
   -1.3480    9.2780   -7.5390 C   0  0  2  0  0  0  0  0  0  0  0  0
   -2.0030   10.6320   -7.1420 C   0  0  1  0  0  0  0  0  0  0  0  0
   -1.7900    8.1800   -6.5720 C   0  0  0  0  0  0  0  0  0  0  0  0
   -1.6650   11.0790   -5.6830 C   0  0  1  0  0  0  0  0  0  0  0  0
   -2.2150    8.6850   -5.2230 C   0  0  0  0  0  0  0  0  0  0  0  0
   -1.4660   11.8190   -7.8930 C   0  0  2  0  0  0  0  0  0  0  0  0
   -3.5100   10.6140   -7.4920 C   0  0  0  0  0  0  0  0  0  0  0  0
   -2.4730   12.5770   -5.0870 Cl  0  0  0  0  0  0  0  0  0  0  0  0
   -2.1460    9.9660   -4.8190 C   0  0  0  0  0  0  0  0  0  0  0  0
   -0.2360   11.3920   -5.8370 N   0  0  0  0  0  0  0  0  0  0  0  0
   -3.7850   12.0720   -7.5160 C   0  0  0  0  0  0  0  0  0  0  0  0
   -0.1350   12.0530   -7.1320 C   0  0  0  0  0  0  0  0  0  0  0  0
   -2.6520   12.7520   -7.7280 C   0  0  0  0  0  0  0  0  0  0  0  0
    0.5270   12.2010   -4.8740 C   0  0  0  0  0  0  0  0  0  0  0  0
    0.6740   11.7050   -3.4530 C   0  0  0  0  0  0  0  0  0  0  0  0
    1.1710   12.6540   -2.6300 O   0  0  0  0  0  0  0  0  0  0  0  0
    0.4060   10.5990   -3.0220 O   0  0  0  0  0  0  0  0  0  0  0  0
  2  1  1  1
  2  3  1  0
  2  4  1  0
  3  5  1  0
  4  6  1  0
  3  7  1  0
  3  8  1  1
  5  9  1  1
  5 10  1  0
  6 10  2  0
  5 11  1  0
  8 12  1  0
  7 13  1  1
 11 13  1  0
  7 14  1  0
 12 14  2  0
 11 15  1  0
 15 16  1  0
 16 17  1  0
 16 18  2  0
M  END
