mac-x0224-diamond-x0253_0_A
     RDKit          3D

 24 25  0  0  0  0  0  0  0  0999 V2000
   -4.8210   15.1430    1.2550 C   0  0  0  0  0  0  0  0  0  0  0  0
   -3.0280   14.9030    1.1750 S   0  0  0  0  0  0  0  0  0  0  0  0
   -2.7430   14.8330   -0.5870 C   0  0  0  0  0  0  0  0  0  0  0  0
   -1.5130   14.3900   -1.0950 C   0  0  0  0  0  0  0  0  0  0  0  0
   -3.7480   15.2260   -1.4800 C   0  0  0  0  0  0  0  0  0  0  0  0
   -1.2840   14.3370   -2.4870 C   0  0  0  0  0  0  0  0  0  0  0  0
   -3.5240   15.1760   -2.8630 C   0  0  0  0  0  0  0  0  0  0  0  0
    0.0520   13.8510   -2.9480 C   0  0  0  0  0  0  0  0  0  0  0  0
   -2.2960   14.7340   -3.3570 C   0  0  0  0  0  0  0  0  0  0  0  0
   -2.0850   14.6920   -4.7020 O   0  0  0  0  0  0  0  0  0  0  0  0
    1.0360   14.4750   -2.5310 O   0  0  0  0  0  0  0  0  0  0  0  0
    0.2130   12.6940   -3.7560 N   0  0  0  0  0  0  0  0  0  0  0  0
    0.0060   12.6580   -5.2320 N   0  0  0  0  0  0  0  0  0  0  0  0
    0.6500   11.4350   -3.2190 C   0  0  0  0  0  0  0  0  0  0  0  0
    0.9070   12.0180   -6.1610 C   0  0  0  0  0  0  0  0  0  0  0  0
   -0.0950   11.0550   -2.0720 O   0  0  0  0  0  0  0  0  0  0  0  0
    2.1110   12.2660   -6.1760 O   0  0  0  0  0  0  0  0  0  0  0  0
    0.3760   10.9910   -7.1810 C   0  0  0  0  0  0  0  0  0  0  0  0
   -0.6210   10.0750   -6.7970 C   0  0  0  0  0  0  0  0  0  0  0  0
    0.8380   10.9000   -8.5140 C   0  0  0  0  0  0  0  0  0  0  0  0
   -1.1280    9.1190   -7.7110 C   0  0  0  0  0  0  0  0  0  0  0  0
    0.3410    9.9620   -9.4170 C   0  0  0  0  0  0  0  0  0  0  0  0
   -2.1900    8.1510   -7.2880 C   0  0  0  0  0  0  0  0  0  0  0  0
   -0.6390    9.0750   -9.0190 C   0  0  0  0  0  0  0  0  0  0  0  0
  1  2  1  0
  2  3  1  0
  3  4  2  0
  3  5  1  0
  4  6  1  0
  5  7  2  0
  6  8  1  0
  6  9  2  0
  7  9  1  0
  9 10  1  0
  8 11  2  0
  8 12  1  0
 12 13  1  0
 12 14  1  0
 13 15  1  0
 14 16  1  0
 15 17  2  0
 15 18  1  0
 18 19  2  0
 18 20  1  0
 19 21  1  0
 20 22  2  0
 21 23  1  0
 21 24  2  0
 22 24  1  0
M  END
