mac-x0572-mac-x0453
     RDKit          3D

 14 16  0  0  0  0  0  0  0  0999 V2000
   -6.7210   14.1920    2.5590 C   0  0  0  0  0  0  0  0  0  0  0  0
   -5.5740   14.1050    3.1810 C   0  0  0  0  0  0  0  0  0  0  0  0
   -4.2310   13.9690    2.4600 C   0  0  0  0  0  0  0  0  0  0  0  0
   -6.5950   14.1570    1.1050 C   0  0  1  0  0  0  0  0  0  0  0  0
   -7.7680   14.6750    0.2910 C   0  0  2  0  0  0  0  0  0  0  0  0
   -5.4150   15.1070    0.7150 C   0  0  2  0  0  0  0  0  0  0  0  0
   -8.8310   13.7520    0.2080 O   0  0  0  0  0  0  0  0  0  0  0  0
   -6.9840   14.8820   -0.9970 C   0  0  0  0  0  0  0  0  0  0  0  0
   -5.6230   15.5270   -0.7360 C   0  0  2  0  0  0  0  0  0  0  0  0
   -4.0430   14.8950    1.2620 C   0  0  2  0  0  0  0  0  0  0  0  0
   -7.4080   14.5640   -2.0890 O   0  0  0  0  0  0  0  0  0  0  0  0
   -2.9700   14.6600    0.2420 C   0  0  0  0  0  0  0  0  0  0  0  0
   -4.5490   15.0190   -1.6960 C   0  0  0  0  0  0  0  0  0  0  0  0
   -3.2090   14.7240   -1.0750 C   0  0  0  0  0  0  0  0  0  0  0  0
  1  2  2  0
  2  3  1  0
  4  1  1  1
  4  5  1  0
  4  6  1  0
  5  7  1  6
  5  8  1  0
  6  9  1  6
  8  9  1  0
 10  3  1  1
  6 10  1  0
  8 11  2  0
 10 12  1  0
  9 13  1  6
 12 14  2  0
 13 14  1  0
M  END
