mac-x0344-mac-x0347
     RDKit          3D

 24 26  0  0  0  0  0  0  0  0999 V2000
    1.2640   13.8620   -4.2740 O   0  0  0  0  0  0  0  0  0  0  0  0
    0.4380   13.1960   -3.3240 C   0  0  0  0  0  0  0  0  0  0  0  0
    1.2080   13.2210   -2.1410 O   0  0  0  0  0  0  0  0  0  0  0  0
    0.1850   11.7080   -3.8340 C   0  0  0  0  0  0  0  0  0  0  0  0
   -0.9160   13.9370   -3.1320 C   0  0  0  0  0  0  0  0  0  0  0  0
    0.1110   10.7660   -3.0470 O   0  0  0  0  0  0  0  0  0  0  0  0
    0.0660   11.6220   -5.2270 N   0  0  0  0  0  0  0  0  0  0  0  0
   -1.7070   13.9100   -1.9350 C   0  0  0  0  0  0  0  0  0  0  0  0
   -1.4510   14.6870   -4.1800 C   0  0  0  0  0  0  0  0  0  0  0  0
   -0.7110   10.6930   -5.9490 C   0  0  0  0  0  0  0  0  0  0  0  0
   -2.9500   14.6000   -1.8540 C   0  0  0  0  0  0  0  0  0  0  0  0
   -2.6220   15.3570   -4.1420 N   0  0  0  0  0  0  0  0  0  0  0  0
   -0.3370   10.1340   -7.1740 C   0  0  0  0  0  0  0  0  0  0  0  0
   -1.9380   10.3110   -5.3830 C   0  0  0  0  0  0  0  0  0  0  0  0
   -3.3330   15.2930   -2.9940 C   0  0  0  0  0  0  0  0  0  0  0  0
   -3.8410   14.6230   -0.6710 C   0  0  0  0  0  0  0  0  0  0  0  0
   -1.1710    9.2140   -7.8180 C   0  0  0  0  0  0  0  0  0  0  0  0
   -2.7680    9.3940   -6.0270 C   0  0  0  0  0  0  0  0  0  0  0  0
   -3.4680   15.2050    0.5520 C   0  0  0  0  0  0  0  0  0  0  0  0
   -5.1240   14.0480   -0.7530 C   0  0  0  0  0  0  0  0  0  0  0  0
   -2.3870    8.8440   -7.2450 C   0  0  0  0  0  0  0  0  0  0  0  0
   -4.3430   15.2100    1.6380 C   0  0  0  0  0  0  0  0  0  0  0  0
   -5.9990   14.0520    0.3390 C   0  0  0  0  0  0  0  0  0  0  0  0
   -5.6030   14.6350    1.5340 C   0  0  0  0  0  0  0  0  0  0  0  0
  2  1  1  0
  2  3  1  0
  2  4  1  0
  2  5  1  0
  4  6  2  0
  4  7  1  0
  5  8  2  0
  5  9  1  0
  7 10  1  0
  8 11  1  0
  9 12  2  0
 10 13  2  0
 10 14  1  0
 11 15  2  0
 12 15  1  0
 11 16  1  0
 13 17  1  0
 14 18  2  0
 16 19  2  0
 16 20  1  0
 17 21  2  0
 18 21  1  0
 19 22  1  0
 20 23  2  0
 22 24  2  0
 23 24  1  0
M  END
