mac-x0564-diamond-x0471_0_A
     RDKit          3D

 25 28  0  0  0  0  0  0  0  0999 V2000
    0.7800   14.1300   -1.1040 O   0  0  0  0  0  0  0  0  0  0  0  0
    0.0180   14.3170   -2.0390 C   0  0  0  0  0  0  0  0  0  0  0  0
    0.4400   14.2750   -3.3690 N   0  0  0  0  0  0  0  0  0  0  0  0
   -1.3940   14.5910   -1.9070 C   0  0  0  0  0  0  0  0  0  0  0  0
   -2.2690   14.5630   -2.9650 C   0  0  0  0  0  0  0  0  0  0  0  0
   -0.4500   14.2610   -4.3110 C   0  0  0  0  0  0  0  0  0  0  0  0
   -2.0500   14.9070   -0.7390 O   0  0  0  0  0  0  0  0  0  0  0  0
   -1.8220   14.2780   -4.2000 N   0  0  0  0  0  0  0  0  0  0  0  0
   -3.3580   15.0710   -1.1020 C   0  0  0  0  0  0  0  0  0  0  0  0
   -3.5240   14.8550   -2.4560 C   0  0  0  0  0  0  0  0  0  0  0  0
   -4.8110   14.9590   -3.0110 C   0  0  0  0  0  0  0  0  0  0  0  0
   -4.4380   15.4310   -0.1350 C   0  0  0  0  0  0  0  0  0  0  0  0
   -5.8760   14.9040   -2.1980 C   0  0  0  0  0  0  0  0  0  0  0  0
   -5.7350   14.7480   -0.6770 C   0  0  2  0  0  0  0  0  0  0  0  0
   -7.0220   15.1980   -0.0810 N   0  0  0  0  0  0  0  0  0  0  0  0
   -5.6500   13.3090   -0.1420 C   0  0  0  0  0  0  0  0  0  0  0  0
   -7.6640   14.0180    0.4700 C   0  0  1  0  0  0  0  0  0  0  0  0
   -6.5010   13.4060    1.0490 N   0  0  0  0  0  0  0  0  0  0  0  0
   -8.8520   14.3430    1.4290 C   0  0  0  0  0  0  0  0  0  0  0  0
   -8.5830   14.2000    2.8570 N   0  0  0  0  0  0  0  0  0  0  0  0
   -9.0860   15.1630    3.7090 C   0  0  0  0  0  0  0  0  0  0  0  0
   -9.4740   16.2520    3.3020 O   0  0  0  0  0  0  0  0  0  0  0  0
   -9.1800   14.8170    5.1930 C   0  0  0  0  0  0  0  0  0  0  0  0
   -9.6360   13.3790    5.4190 C   0  0  0  0  0  0  0  0  0  0  0  0
   -7.8990   15.1580    5.9370 C   0  0  0  0  0  0  0  0  0  0  0  0
  1  2  2  0
  2  3  1  0
  2  4  1  0
  4  5  2  0
  3  6  2  0
  4  7  1  0
  5  8  1  0
  6  8  1  0
  7  9  1  0
  5 10  1  0
  9 10  2  0
 10 11  1  0
  9 12  1  0
 11 13  2  0
 14 12  1  1
 14 13  1  0
 14 15  1  0
 14 16  1  0
 15 17  1  0
 16 18  1  0
 17 18  1  0
 17 19  1  1
 19 20  1  0
 20 21  1  0
 21 22  2  0
 21 23  1  0
 23 24  1  0
 23 25  1  0
M  END
