mac-x0436-mac-x0555
     RDKit          3D

 29 32  0  0  0  0  0  0  0  0999 V2000
    0.5730   11.2420   -3.1470 O   0  0  0  0  0  0  0  0  0  0  0  0
    1.2460   12.3980   -3.0190 C   0  0  0  0  0  0  0  0  0  0  0  0
    1.3960   12.8950   -1.9200 O   0  0  0  0  0  0  0  0  0  0  0  0
    1.7570   12.9620   -4.3210 C   0  0  0  0  0  0  0  0  0  0  0  0
    0.6430   13.2830   -5.3130 C   0  0  0  0  0  0  0  0  0  0  0  0
   -0.2070   12.0950   -5.7040 C   0  0  0  0  0  0  0  0  0  0  0  0
   -1.6360   12.0380   -5.1790 C   0  0  0  0  0  0  0  0  0  0  0  0
    0.2640   11.1790   -6.4930 N   0  0  0  0  0  0  0  0  0  0  0  0
   -2.2070   13.1110   -4.7590 N   0  0  0  0  0  0  0  0  0  0  0  0
   -2.2800   10.8040   -5.2020 N   0  0  0  0  0  0  0  0  0  0  0  0
   -0.5670   10.0910   -6.8220 C   0  0  0  0  0  0  0  0  0  0  0  0
   -3.5280   13.3910   -4.2490 C   0  0  0  0  0  0  0  0  0  0  0  0
   -1.8260    9.8820   -6.1990 C   0  0  0  0  0  0  0  0  0  0  0  0
   -0.1190    9.1960   -7.7960 C   0  0  0  0  0  0  0  0  0  0  0  0
   -3.6240   14.8620   -3.7860 C   0  0  0  0  0  0  0  0  0  0  0  0
   -0.8980    8.1010   -8.1570 C   0  0  0  0  0  0  0  0  0  0  0  0
   -2.6000    8.7750   -6.5690 C   0  0  0  0  0  0  0  0  0  0  0  0
   -2.1370    7.8860   -7.5460 C   0  0  0  0  0  0  0  0  0  0  0  0
   -4.1100   14.9110   -2.3730 C   0  0  0  0  0  0  0  0  0  0  0  0
   -5.4700   14.7420   -2.1230 C   0  0  0  0  0  0  0  0  0  0  0  0
   -3.2310   15.0940   -1.3080 C   0  0  0  0  0  0  0  0  0  0  0  0
   -5.9750   14.7250   -0.8430 C   0  0  0  0  0  0  0  0  0  0  0  0
   -3.7110   15.0900   -0.0020 C   0  0  0  0  0  0  0  0  0  0  0  0
   -5.0820   14.8940    0.2310 C   0  0  0  0  0  0  0  0  0  0  0  0
   -7.2930   14.5370   -0.6730 N   0  0  0  0  0  0  0  0  0  0  0  0
   -5.6060   14.8500    1.5260 C   0  0  0  0  0  0  0  0  0  0  0  0
   -7.7580   14.4980    0.5930 C   0  0  0  0  0  0  0  0  0  0  0  0
   -6.9720   14.6430    1.7270 C   0  0  0  0  0  0  0  0  0  0  0  0
   -7.4820   14.5910    3.0200 N   0  0  0  0  0  0  0  0  0  0  0  0
  1  2  1  0
  2  3  2  0
  2  4  1  0
  4  5  1  0
  5  6  1  0
  6  7  1  0
  6  8  2  0
  7  9  2  3
  7 10  1  0
  8 11  1  0
  9 12  1  0
 10 13  1  0
 11 13  2  0
 11 14  1  0
 12 15  1  0
 14 16  2  0
 13 17  1  0
 16 18  1  0
 17 18  2  0
 15 19  1  0
 19 20  2  0
 19 21  1  0
 20 22  1  0
 21 23  2  0
 22 24  2  0
 23 24  1  0
 22 25  1  0
 24 26  1  0
 25 27  2  0
 26 28  2  0
 27 28  1  0
 28 29  1  0
M  END
