mac-x0411-mac-x1493
     RDKit          3D

 27 29  0  0  0  0  0  0  0  0999 V2000
    0.5790    8.5730   -7.4780 Cl  0  0  0  0  0  0  0  0  0  0  0  0
   -0.6530    9.5230   -6.7200 C   0  0  0  0  0  0  0  0  0  0  0  0
   -0.4860   10.8890   -6.3750 C   0  0  0  0  0  0  0  0  0  0  0  0
   -1.8560    8.8750   -6.4680 C   0  0  0  0  0  0  0  0  0  0  0  0
    0.7210   11.5090   -6.6120 O   0  0  0  0  0  0  0  0  0  0  0  0
   -1.5550   11.6210   -5.8030 C   0  0  0  0  0  0  0  0  0  0  0  0
   -2.9090    9.5700   -5.8840 C   0  0  0  0  0  0  0  0  0  0  0  0
   -1.4600   13.1210   -5.4740 C   0  0  0  0  0  0  0  0  0  0  0  0
    1.1830   12.4190   -5.5900 C   0  0  0  0  0  0  0  0  0  0  0  0
   -2.7640   10.9260   -5.5590 C   0  0  0  0  0  0  0  0  0  0  0  0
    0.9760   11.9500   -4.1420 C   0  0  0  0  0  0  0  0  0  0  0  0
   -1.0700   13.6410   -4.0850 C   0  0  0  0  0  0  0  0  0  0  0  0
    1.5150   12.7340   -3.1790 O   0  0  0  0  0  0  0  0  0  0  0  0
    0.3900   10.9320   -3.7980 O   0  0  0  0  0  0  0  0  0  0  0  0
   -2.3140   13.8890   -3.3980 N   0  0  0  0  0  0  0  0  0  0  0  0
   -2.4480   14.4710   -2.2820 C   0  0  0  0  0  0  0  0  0  0  0  0
   -1.3810   14.9560   -1.6310 O   0  0  0  0  0  0  0  0  0  0  0  0
   -3.6950   14.6050   -1.5720 C   0  0  0  0  0  0  0  0  0  0  0  0
   -3.7400   14.7000   -0.1970 C   0  0  0  0  0  0  0  0  0  0  0  0
   -4.8750   14.6000   -2.2890 C   0  0  0  0  0  0  0  0  0  0  0  0
   -4.9890   14.7510    0.4180 C   0  0  0  0  0  0  0  0  0  0  0  0
   -6.0970   14.6580   -1.7210 N   0  0  0  0  0  0  0  0  0  0  0  0
   -6.1510   14.7180   -0.3830 C   0  0  0  0  0  0  0  0  0  0  0  0
   -5.0930   14.8200    1.8000 C   0  0  0  0  0  0  0  0  0  0  0  0
   -7.3850   14.7410    0.2450 C   0  0  0  0  0  0  0  0  0  0  0  0
   -6.3430   14.8410    2.4130 C   0  0  0  0  0  0  0  0  0  0  0  0
   -7.4960   14.7970    1.6380 C   0  0  0  0  0  0  0  0  0  0  0  0
  1  2  1  0
  2  3  2  0
  2  4  1  0
  3  5  1  0
  3  6  1  0
  4  7  2  0
  6  8  1  0
  5  9  1  0
  6 10  2  0
  7 10  1  0
  9 11  1  0
  8 12  1  0
 11 13  1  0
 11 14  2  0
 12 15  1  0
 15 16  2  3
 16 17  1  0
 16 18  1  0
 18 19  2  0
 18 20  1  0
 19 21  1  0
 20 22  2  0
 21 23  2  0
 22 23  1  0
 21 24  1  0
 23 25  1  0
 24 26  2  0
 25 27  2  0
 26 27  1  0
M  END
