mac-x0326-mac-x0231
     RDKit          3D

 26 29  0  0  0  0  0  0  0  0999 V2000
   -6.2480   15.4650   -1.6890 Cl  0  0  0  0  0  0  0  0  0  0  0  0
   -4.5970   15.1820   -1.2960 C   0  0  0  0  0  0  0  0  0  0  0  0
   -3.6710   14.9010   -2.2990 C   0  0  0  0  0  0  0  0  0  0  0  0
   -4.2190   15.2370    0.0380 C   0  0  0  0  0  0  0  0  0  0  0  0
   -2.3300   14.6660   -1.9250 C   0  0  0  0  0  0  0  0  0  0  0  0
   -2.8980   15.0060    0.4200 C   0  0  0  0  0  0  0  0  0  0  0  0
   -1.2880   14.3770   -2.7670 N   0  0  0  0  0  0  0  0  0  0  0  0
   -1.9670   14.7210   -0.5780 C   0  0  0  0  0  0  0  0  0  0  0  0
   -0.1610   14.2230   -2.0900 C   0  0  0  0  0  0  0  0  0  0  0  0
   -0.2790   14.4020   -0.4030 S   0  0  0  0  0  0  0  0  0  0  0  0
    1.1470   13.9460   -2.7880 C   0  0  2  0  0  0  0  0  0  0  0  0
    0.8390   14.9210   -3.8760 C   0  0  2  0  0  0  0  0  0  0  0  0
    1.3710   12.5070   -3.2250 C   0  0  0  0  0  0  0  0  0  0  0  0
   -0.6060   14.7420   -4.3160 C   0  0  1  0  0  0  0  0  0  0  0  0
    1.6720   15.0150   -5.0090 N   0  0  0  0  0  0  0  0  0  0  0  0
    0.6520   11.5090   -2.3860 C   0  0  0  0  0  0  0  0  0  0  0  0
   -1.0050   16.0930   -4.8380 C   0  0  1  0  0  0  0  0  0  0  0  0
    1.4110   16.3060   -5.4970 N   0  0  0  0  0  0  0  0  0  0  0  0
   -1.0990   13.5410   -5.1050 C   0  0  0  0  0  0  0  0  0  0  0  0
   -0.1670   12.0170   -1.4780 O   0  0  0  0  0  0  0  0  0  0  0  0
    0.7600   10.3240   -2.4450 O   0  0  0  0  0  0  0  0  0  0  0  0
    0.1480   16.8790   -5.4750 C   0  0  0  0  0  0  0  0  0  0  0  0
   -2.3580   16.0640   -5.5110 C   0  0  0  0  0  0  0  0  0  0  0  0
   -2.1990   13.6550   -5.8590 C   0  0  0  0  0  0  0  0  0  0  0  0
   -0.0050   18.0100   -5.9270 O   0  0  0  0  0  0  0  0  0  0  0  0
   -2.9060   14.9170   -5.9620 C   0  0  0  0  0  0  0  0  0  0  0  0
  1  2  1  0
  2  3  2  0
  2  4  1  0
  3  5  1  0
  4  6  2  0
  5  7  1  0
  5  8  2  0
  6  8  1  0
  7  9  2  0
  8 10  1  0
  9 10  1  0
  9 11  1  0
 11 12  1  0
 11 13  1  6
 12 14  1  0
 12 15  1  6
 13 16  1  0
 14 17  1  0
 15 18  1  0
 14 19  1  6
 16 20  1  0
 16 21  2  0
 17 22  1  0
 18 22  1  0
 17 23  1  6
 19 24  2  0
 22 25  2  0
 23 26  2  0
 24 26  1  0
M  END
