mac-x0148-diamond-x0724_0_A
     RDKit          3D

 25 29  0  0  0  0  0  0  0  0999 V2000
   -8.3890   13.8750    3.8250 N   0  0  0  0  0  0  0  0  0  0  0  0
   -8.4180   14.2700    5.2360 C   0  0  0  0  0  0  0  0  0  0  0  0
   -7.4290   14.6380    2.9880 C   0  0  0  0  0  0  0  0  0  0  0  0
   -7.0390   13.8940    1.6770 C   0  0  2  0  0  0  0  0  0  0  0  0
   -5.5620   13.5000    1.3490 C   0  0  0  0  0  0  0  0  0  0  0  0
   -7.3830   14.6760    0.4360 C   0  0  0  0  0  0  0  0  0  0  0  0
   -4.8930   14.6440    0.4970 C   0  0  1  0  0  0  0  0  0  0  0  0
   -6.1250   15.3310    0.0470 N   0  0  0  0  0  0  0  0  0  0  0  0
   -3.9090   15.2090    1.4250 N   0  0  0  0  0  0  0  0  0  0  0  0
   -4.0360   14.3840   -0.8460 C   0  0  0  0  0  0  0  0  0  0  0  0
   -2.6050   14.9720    0.8860 C   0  0  0  0  0  0  0  0  0  0  0  0
   -2.6050   14.5410   -0.4240 C   0  0  0  0  0  0  0  0  0  0  0  0
   -1.5040   15.1670    1.5950 N   0  0  0  0  0  0  0  0  0  0  0  0
   -1.3450   14.3530   -1.0440 C   0  0  0  0  0  0  0  0  0  0  0  0
   -1.0930   13.9470   -2.3820 N   0  0  0  0  0  0  0  0  0  0  0  0
   -0.2320   14.5660   -0.3290 N   0  0  0  0  0  0  0  0  0  0  0  0
   -0.3600   14.9470    0.9390 C   0  0  0  0  0  0  0  0  0  0  0  0
   -2.1760   13.9950   -3.3970 C   0  0  1  0  0  0  0  0  0  0  0  0
    0.0650   13.0280   -2.5000 C   0  0  0  0  0  0  0  0  0  0  0  0
   -2.3660   15.3540   -4.0590 C   0  0  0  0  0  0  0  0  0  0  0  0
   -1.9970   13.0450   -4.5820 C   0  0  1  0  0  0  0  0  0  0  0  0
   -0.0060   12.0060   -3.6270 C   0  0  0  0  0  0  0  0  0  0  0  0
   -2.6760   13.7520   -5.7390 C   0  0  0  0  0  0  0  0  0  0  0  0
   -2.9010   15.1200   -5.3770 O   0  0  0  0  0  0  0  0  0  0  0  0
   -0.5700   12.6170   -4.8830 C   0  0  0  0  0  0  0  0  0  0  0  0
  1  2  1  0
  1  3  1  0
  4  3  1  1
  4  5  1  0
  4  6  1  0
  7  5  1  1
  6  8  1  0
  7  8  1  0
  7  9  1  0
  7 10  1  0
  9 11  1  0
 10 12  1  0
 11 12  2  0
 11 13  1  0
 12 14  1  0
 14 15  1  0
 14 16  2  0
 13 17  2  0
 16 17  1  0
 15 18  1  0
 15 19  1  0
 18 20  1  6
 18 21  1  0
 19 22  1  0
 21 23  1  6
 20 24  1  0
 23 24  1  0
 21 25  1  0
 22 25  1  0
M  END
