mac-x0375-mac-x0398
     RDKit          3D

 25 26  0  0  0  0  0  0  0  0999 V2000
    1.6110   12.8720   -2.5980 O   0  0  0  0  0  0  0  0  0  0  0  0
    0.8800   11.9460   -3.2510 C   0  0  0  0  0  0  0  0  0  0  0  0
    0.7630   10.8360   -2.7740 O   0  0  0  0  0  0  0  0  0  0  0  0
    0.2690   12.4630   -4.5500 C   0  0  2  0  0  0  0  0  0  0  0  0
    0.5150   11.6710   -5.7030 O   0  0  0  0  0  0  0  0  0  0  0  0
    0.6640   13.9180   -4.7980 C   0  0  0  0  0  0  0  0  0  0  0  0
   -0.5880   14.7890   -4.9800 C   0  0  0  0  0  0  0  0  0  0  0  0
   -0.4710   10.7740   -6.0080 C   0  0  0  0  0  0  0  0  0  0  0  0
   -1.0420   15.5310   -3.7240 C   0  0  0  0  0  0  0  0  0  0  0  0
   -0.3560    9.6400   -6.8110 C   0  0  0  0  0  0  0  0  0  0  0  0
   -1.7080   11.0700   -5.4230 C   0  0  0  0  0  0  0  0  0  0  0  0
   -1.9660   14.8360   -2.8350 O   0  0  0  0  0  0  0  0  0  0  0  0
   -1.4680    8.8190   -7.0170 C   0  0  0  0  0  0  0  0  0  0  0  0
   -2.8150   10.2520   -5.6280 C   0  0  0  0  0  0  0  0  0  0  0  0
   -3.2890   15.1630   -2.9330 C   0  0  0  0  0  0  0  0  0  0  0  0
   -2.6950    9.1220   -6.4280 C   0  0  0  0  0  0  0  0  0  0  0  0
   -3.8510   15.4820   -3.9640 O   0  0  0  0  0  0  0  0  0  0  0  0
   -4.0280   15.0880   -1.6340 C   0  0  0  0  0  0  0  0  0  0  0  0
   -5.4310   15.1360   -1.6140 C   0  0  0  0  0  0  0  0  0  0  0  0
   -3.3400   14.9660   -0.4100 C   0  0  0  0  0  0  0  0  0  0  0  0
   -6.1250   15.2550   -2.7850 O   0  0  0  0  0  0  0  0  0  0  0  0
   -6.1360   15.0610   -0.4200 C   0  0  0  0  0  0  0  0  0  0  0  0
   -4.0590   14.8920    0.7940 C   0  0  0  0  0  0  0  0  0  0  0  0
   -5.4650   14.9360    0.7960 C   0  0  0  0  0  0  0  0  0  0  0  0
   -6.2010   14.8580    1.9810 N   0  0  0  0  0  0  0  0  0  0  0  0
  1  2  1  0
  2  3  2  0
  2  4  1  0
  4  5  1  0
  4  6  1  6
  6  7  1  0
  5  8  1  0
  7  9  1  0
  8 10  2  0
  8 11  1  0
  9 12  1  0
 10 13  1  0
 11 14  2  0
 12 15  1  0
 13 16  2  0
 14 16  1  0
 15 17  2  0
 15 18  1  0
 18 19  2  0
 18 20  1  0
 19 21  1  0
 19 22  1  0
 20 23  2  0
 22 24  2  0
 23 24  1  0
 24 25  1  0
M  END
