mac-x0565-mac-x0224
     RDKit          3D

 15 17  0  0  0  0  0  0  0  0999 V2000
   -4.3960   15.4250    0.1830 O   0  0  0  0  0  0  0  0  0  0  0  0
   -5.3920   14.9550   -0.6350 C   0  0  0  0  0  0  0  0  0  0  0  0
   -6.5860   15.2320   -0.4360 O   0  0  0  0  0  0  0  0  0  0  0  0
   -2.7660   14.9270    0.1860 S   0  0  0  0  0  0  0  0  0  0  0  0
   -4.9980   14.0560   -1.7810 C   0  0  2  0  0  0  0  0  0  0  0  0
   -2.4620   14.1260   -1.2630 N   0  0  0  0  0  0  0  0  0  0  0  0
   -3.5370   13.9690   -2.1550 C   0  0  2  0  0  0  0  0  0  0  0  0
   -5.4710   14.4550   -3.1730 C   0  0  0  0  0  0  0  0  0  0  0  0
   -1.4450   14.1940   -2.3880 C   0  0  2  0  0  0  0  0  0  0  0  0
    0.0580   14.4360   -2.1400 C   0  0  0  0  0  0  0  0  0  0  0  0
   -3.3020   15.1640   -3.0000 C   0  0  2  0  0  0  0  0  0  0  0  0
   -4.4700   15.0400   -3.8760 C   0  0  0  0  0  0  0  0  0  0  0  0
   -1.9880   14.9890   -3.4780 O   0  0  0  0  0  0  0  0  0  0  0  0
    0.6620   14.3480   -1.0900 O   0  0  0  0  0  0  0  0  0  0  0  0
    0.7250   14.7530   -3.2690 O   0  0  0  0  0  0  0  0  0  0  0  0
  1  2  1  0
  2  3  2  0
  1  4  1  0
  2  5  1  0
  4  6  1  0
  5  7  1  0
  7  6  1  1
  5  8  1  6
  6  9  1  0
  9 10  1  1
  7 11  1  0
  8 12  2  0
 11 12  1  6
  9 13  1  0
 11 13  1  0
 10 14  2  0
 10 15  1  0
M  END
