mac-x0326-mac-x0411
     RDKit          3D

 24 26  0  0  0  0  0  0  0  0999 V2000
   -6.2720   15.6430   -1.3260 Cl  0  0  0  0  0  0  0  0  0  0  0  0
   -4.5840   15.3200   -1.3120 C   0  0  0  0  0  0  0  0  0  0  0  0
   -3.9180   15.1690   -2.5220 C   0  0  0  0  0  0  0  0  0  0  0  0
   -3.9120   15.2090   -0.0980 C   0  0  0  0  0  0  0  0  0  0  0  0
   -2.5460   14.8900   -2.5160 C   0  0  0  0  0  0  0  0  0  0  0  0
   -2.5390   14.9310   -0.0680 C   0  0  0  0  0  0  0  0  0  0  0  0
   -1.7800   14.7060   -3.6420 N   0  0  0  0  0  0  0  0  0  0  0  0
   -1.8720   14.7730   -1.3000 C   0  0  0  0  0  0  0  0  0  0  0  0
   -0.5440   14.4280   -3.3150 C   0  0  0  0  0  0  0  0  0  0  0  0
   -0.2120   14.4230   -1.6220 S   0  0  0  0  0  0  0  0  0  0  0  0
    0.4870   14.0900   -4.3600 C   0  0  0  0  0  0  0  0  0  0  0  0
    0.3440   12.5570   -4.4940 C   0  0  2  0  0  0  0  0  0  0  0  0
    1.0980   11.9430   -3.3250 C   0  0  0  0  0  0  0  0  0  0  0  0
    0.4670   11.9130   -5.8090 O   0  0  0  0  0  0  0  0  0  0  0  0
    0.5430   10.8070   -2.8670 O   0  0  0  0  0  0  0  0  0  0  0  0
    2.1050   12.3980   -2.8050 O   0  0  0  0  0  0  0  0  0  0  0  0
   -0.5580   10.9660   -6.0420 C   0  0  0  0  0  0  0  0  0  0  0  0
   -1.8150   11.1550   -5.4180 C   0  0  0  0  0  0  0  0  0  0  0  0
   -0.4430    9.8080   -6.8690 C   0  0  0  0  0  0  0  0  0  0  0  0
    0.9590    9.3530   -7.7630 Cl  0  0  0  0  0  0  0  0  0  0  0  0
   -2.1740   12.4920   -4.4040 Cl  0  0  0  0  0  0  0  0  0  0  0  0
   -2.8710   10.2610   -5.5860 C   0  0  0  0  0  0  0  0  0  0  0  0
   -1.5170    8.9200   -7.0210 C   0  0  0  0  0  0  0  0  0  0  0  0
   -2.7280    9.1430   -6.3810 C   0  0  0  0  0  0  0  0  0  0  0  0
  1  2  1  0
  2  3  2  0
  2  4  1  0
  3  5  1  0
  4  6  2  0
  5  7  1  0
  5  8  2  0
  6  8  1  0
  7  9  2  0
  8 10  1  0
  9 10  1  0
  9 11  1  0
 12 11  1  6
 12 13  1  0
 12 14  1  0
 13 15  1  0
 13 16  2  0
 14 17  1  0
 17 18  2  0
 17 19  1  0
 19 20  1  0
 18 21  1  0
 18 22  1  0
 19 23  2  0
 22 24  2  0
 23 24  1  0
M  END
