mac-x0385-mac-x0555
     RDKit          3D

 20 22  0  0  0  0  0  0  0  0999 V2000
   -4.8660   16.0430   -0.8680 C   0  0  0  0  0  0  0  0  0  0  0  0
   -3.5280   15.6920   -0.2890 C   0  0  0  0  0  0  0  0  0  0  0  0
   -2.3860   15.7630   -1.0480 C   0  0  0  0  0  0  0  0  0  0  0  0
   -3.3770   15.2730    1.0210 C   0  0  0  0  0  0  0  0  0  0  0  0
   -4.5790   15.2130    1.7380 N   0  0  0  0  0  0  0  0  0  0  0  0
   -2.1900   14.9430    1.5390 N   0  0  0  0  0  0  0  0  0  0  0  0
   -1.1900   15.4390   -0.5840 N   0  0  0  0  0  0  0  0  0  0  0  0
   -1.1630   15.0400    0.6930 C   0  0  0  0  0  0  0  0  0  0  0  0
   -5.7070   14.8300    0.9680 C   0  0  0  0  0  0  0  0  0  0  0  0
    0.1320   14.6560    1.2110 C   0  0  0  0  0  0  0  0  0  0  0  0
   -6.9750   14.6090    1.5310 C   0  0  0  0  0  0  0  0  0  0  0  0
   -5.5100   14.6850   -0.4260 C   0  0  0  0  0  0  0  0  0  0  0  0
   -7.2000   14.7340    2.9260 N   0  0  0  0  0  0  0  0  0  0  0  0
   -6.6210   14.3440   -1.2100 C   0  0  0  0  0  0  0  0  0  0  0  0
   -7.9920   14.2680    0.6520 C   0  0  0  0  0  0  0  0  0  0  0  0
   -4.2560   14.8680   -1.0740 C   0  0  0  0  0  0  0  0  0  0  0  0
   -7.8400   14.1390   -0.6900 N   0  0  0  0  0  0  0  0  0  0  0  0
   -6.4470   14.2180   -2.5830 C   0  0  0  0  0  0  0  0  0  0  0  0
   -4.1070   14.7300   -2.4510 C   0  0  0  0  0  0  0  0  0  0  0  0
   -5.2110   14.4070   -3.2070 C   0  0  0  0  0  0  0  0  0  0  0  0
  1  2  1  0
  2  3  2  0
  2  4  1  0
  4  5  1  0
  4  6  2  0
  3  7  1  0
  6  8  1  0
  7  8  2  0
  5  9  1  0
  8 10  1  0
  9 11  2  0
  9 12  1  0
 11 13  1  0
 12 14  2  0
 11 15  1  0
 12 16  1  0
 14 17  1  0
 15 17  2  0
 14 18  1  0
 16 19  2  0
 18 20  2  0
 19 20  1  0
M  END
