mac-x0231-mac-x0305
     RDKit          3D

 24 26  0  0  0  0  0  0  0  0999 V2000
    0.6060   10.5270   -2.5050 O   0  0  0  0  0  0  0  0  0  0  0  0
    0.5750   11.8880   -2.5440 C   0  0  0  0  0  0  0  0  0  0  0  0
   -0.0890   12.5660   -1.6410 N   0  0  0  0  0  0  0  0  0  0  0  0
    1.3670   12.4500   -3.7300 C   0  0  0  0  0  0  0  0  0  0  0  0
   -0.2490   13.9420   -1.5420 C   0  0  0  0  0  0  0  0  0  0  0  0
    1.0430   13.8710   -4.1500 C   0  0  0  0  0  0  0  0  0  0  0  0
    0.6110   14.7260   -1.9230 O   0  0  0  0  0  0  0  0  0  0  0  0
   -0.3310   14.1960   -4.6020 C   0  0  0  0  0  0  0  0  0  0  0  0
    1.9920   14.7620   -4.0780 N   0  0  0  0  0  0  0  0  0  0  0  0
   -1.5660   14.4770   -0.9560 C   0  0  0  0  0  0  0  0  0  0  0  0
   -0.6350   15.5380   -4.8220 C   0  0  0  0  0  0  0  0  0  0  0  0
    1.6820   16.0400   -4.4330 N   0  0  0  0  0  0  0  0  0  0  0  0
   -1.3170   13.2240   -4.8090 C   0  0  0  0  0  0  0  0  0  0  0  0
   -1.8600   14.7370    0.4210 C   0  0  0  0  0  0  0  0  0  0  0  0
   -2.5080   14.7100   -1.9290 N   0  0  0  0  0  0  0  0  0  0  0  0
   -0.9990   14.5500    1.4850 O   0  0  0  0  0  0  0  0  0  0  0  0
    0.4200   16.5430   -4.6160 C   0  0  0  0  0  0  0  0  0  0  0  0
   -1.9210   15.9210   -5.2320 C   0  0  0  0  0  0  0  0  0  0  0  0
   -2.5980   13.6020   -5.2220 C   0  0  0  0  0  0  0  0  0  0  0  0
   -3.1320   15.2320    0.7350 C   0  0  0  0  0  0  0  0  0  0  0  0
   -3.7120   15.1910   -1.5720 C   0  0  0  0  0  0  0  0  0  0  0  0
    0.1720   17.7470   -4.6220 O   0  0  0  0  0  0  0  0  0  0  0  0
   -2.9020   14.9490   -5.4310 C   0  0  0  0  0  0  0  0  0  0  0  0
   -4.0700   15.4650   -0.2720 C   0  0  0  0  0  0  0  0  0  0  0  0
  1  2  1  0
  2  3  2  3
  2  4  1  0
  3  5  1  0
  4  6  1  0
  5  7  2  0
  6  8  1  0
  6  9  2  0
  5 10  1  0
  8 11  2  0
  9 12  1  0
  8 13  1  0
 10 14  2  0
 10 15  1  0
 14 16  1  0
 11 17  1  0
 12 17  1  0
 11 18  1  0
 13 19  2  0
 14 20  1  0
 15 21  2  0
 17 22  2  0
 18 23  2  0
 19 23  1  0
 20 24  2  0
 21 24  1  0
M  END
