mac-x0206-diamond-x0849_0_A
     RDKit          3D

 20 22  0  0  0  0  0  0  0  0999 V2000
   -5.4090   15.0480   -3.0750 N   0  0  0  0  0  0  0  0  0  0  0  0
   -4.9180   15.1050   -1.8430 C   0  0  0  0  0  0  0  0  0  0  0  0
   -3.6860   15.3190   -1.6800 N   0  0  0  0  0  0  0  0  0  0  0  0
   -5.8940   14.9130   -0.6670 C   0  0  0  0  0  0  0  0  0  0  0  0
   -7.2520   14.8150   -0.9390 C   0  0  0  0  0  0  0  0  0  0  0  0
   -5.5180   14.8330    0.7010 C   0  0  0  0  0  0  0  0  0  0  0  0
   -3.4090   15.2680   -0.3800 C   0  0  0  0  0  0  0  0  0  0  0  0
   -7.6750   14.8770   -2.2360 O   0  0  0  0  0  0  0  0  0  0  0  0
   -8.2140   14.6530    0.0590 C   0  0  0  0  0  0  0  0  0  0  0  0
   -6.4940   14.6740    1.7070 C   0  0  0  0  0  0  0  0  0  0  0  0
   -2.2210   14.7650    0.0830 C   0  0  0  0  0  0  0  0  0  0  0  0
   -4.3890   15.7220    0.4610 C   0  0  0  0  0  0  0  0  0  0  0  0
   -7.8330   14.5840    1.3880 C   0  0  0  0  0  0  0  0  0  0  0  0
   -2.0950   14.7190    1.4430 C   0  0  0  0  0  0  0  0  0  0  0  0
   -4.1410   15.6290    1.7880 C   0  0  0  0  0  0  0  0  0  0  0  0
   -1.1650   14.3040   -0.7190 C   0  0  0  0  0  0  0  0  0  0  0  0
   -3.0030   15.1240    2.2540 N   0  0  0  0  0  0  0  0  0  0  0  0
   -1.0580   14.2630    2.0190 N   0  0  0  0  0  0  0  0  0  0  0  0
   -0.0460   13.8110   -0.0910 C   0  0  0  0  0  0  0  0  0  0  0  0
   -0.0800   13.8170    1.2860 C   0  0  0  0  0  0  0  0  0  0  0  0
  1  2  1  0
  2  3  2  3
  2  4  1  0
  4  5  2  0
  4  6  1  0
  3  7  1  0
  5  8  1  0
  5  9  1  0
  6 10  2  0
  7 11  1  0
  7 12  2  0
  9 13  2  0
 10 13  1  0
 11 14  2  0
 12 15  1  0
 11 16  1  0
 14 17  1  0
 15 17  2  0
 14 18  1  0
 16 19  2  0
 18 20  2  0
 19 20  1  0
M  END
