mac-x0587-mac-x0546
     RDKit          3D

 25 28  0  0  0  0  0  0  0  0999 V2000
    0.3770   15.2880   -2.4640 C   0  0  0  0  0  0  0  0  0  0  0  0
   -0.8250   14.3620   -2.6080 C   0  0  2  0  0  0  0  0  0  0  0  0
   -0.5960   13.2350   -3.9850 S   0  0  2  0  0  0  0  0  0  0  0  0
   -2.1120   15.1330   -2.8040 C   0  0  1  0  0  0  0  0  0  0  0  0
   -0.2770   11.5270   -3.7720 C   0  0  0  0  0  0  0  0  0  0  0  0
   -2.6560   14.7660   -4.2000 C   0  0  1  0  0  0  0  0  0  0  0  0
   -2.8840   14.9030   -1.6180 N   0  0  0  0  0  0  0  0  0  0  0  0
    0.5950   14.0210   -4.8440 C   0  0  1  0  0  0  0  0  0  0  0  0
    0.5660   11.1950   -2.6240 C   0  0  0  0  0  0  0  0  0  0  0  0
   -4.1600   15.0220   -4.4200 C   0  0  0  0  0  0  0  0  0  0  0  0
   -4.2730   15.2530   -1.4500 C   0  0  0  0  0  0  0  0  0  0  0  0
   -2.2230   14.9410   -0.4050 C   0  0  0  0  0  0  0  0  0  0  0  0
   -1.7190   15.3060   -5.3220 C   0  0  2  0  0  0  0  0  0  0  0  0
   -0.1300   15.1830   -5.3400 C   0  0  1  0  0  0  0  0  0  0  0  0
    1.9070   14.4570   -4.2510 C   0  0  0  0  0  0  0  0  0  0  0  0
    0.7350   10.1030   -2.1650 O   0  0  0  0  0  0  0  0  0  0  0  0
    1.1730   12.2830   -2.1030 O   0  0  0  0  0  0  0  0  0  0  0  0
   -1.0180   15.0320   -0.2240 O   0  0  0  0  0  0  0  0  0  0  0  0
   -4.4050   15.3900    0.0630 C   0  0  0  0  0  0  0  0  0  0  0  0
   -3.1750   14.8650    0.5760 N   0  0  0  0  0  0  0  0  0  0  0  0
   -2.1200   16.7480   -5.6330 C   0  0  0  0  0  0  0  0  0  0  0  0
    0.7170   16.4310   -5.0620 C   0  0  2  0  0  0  0  0  0  0  0  0
    1.8890   15.9430   -4.3200 N   0  0  0  0  0  0  0  0  0  0  0  0
   -0.0980   17.5920   -4.4790 C   0  0  0  0  0  0  0  0  0  0  0  0
   -1.3810   17.7860   -5.2470 C   0  0  0  0  0  0  0  0  0  0  0  0
  2  1  1  6
  2  3  1  0
  2  4  1  0
  3  5  1  1
  4  6  1  0
  4  7  1  1
  3  8  1  0
  5  9  1  0
  6 10  1  6
  7 11  1  0
  7 12  1  0
  6 13  1  0
  8 14  1  0
 13 14  1  0
  8 15  1  1
  9 16  2  0
  9 17  1  0
 12 18  2  0
 11 19  1  0
 12 20  1  0
 19 20  1  0
 13 21  1  1
 14 22  1  1
 15 23  1  0
 22 23  1  0
 22 24  1  1
 21 25  2  0
 24 25  1  0
M  END
