mac-x0348-mac-x0371
     RDKit          3D

 24 26  0  0  0  0  0  0  0  0999 V2000
   -0.3010   18.1850   -6.6370 C   0  0  0  0  0  0  0  0  0  0  0  0
   -0.8720   17.1370   -5.7680 N   0  0  0  0  0  0  0  0  0  0  0  0
   -0.1900   16.4980   -4.7150 C   0  0  0  0  0  0  0  0  0  0  0  0
   -2.1820   16.5960   -5.8500 C   0  0  0  0  0  0  0  0  0  0  0  0
   -1.0840   15.5670   -4.1350 C   0  0  0  0  0  0  0  0  0  0  0  0
   -2.3080   15.6180   -4.8610 C   0  0  0  0  0  0  0  0  0  0  0  0
   -3.2570   16.8680   -6.7040 C   0  0  0  0  0  0  0  0  0  0  0  0
    1.1920   16.7400   -4.2640 C   0  0  0  0  0  0  0  0  0  0  0  0
   -0.8840   14.6330   -2.9640 C   0  0  0  0  0  0  0  0  0  0  0  0
   -3.5160   14.8920   -4.7410 C   0  0  0  0  0  0  0  0  0  0  0  0
   -4.4390   16.1330   -6.5850 C   0  0  0  0  0  0  0  0  0  0  0  0
    0.5620   17.9020   -4.2960 C   0  0  0  0  0  0  0  0  0  0  0  0
    1.1180   15.4230   -4.5030 C   0  0  0  0  0  0  0  0  0  0  0  0
   -4.5680   15.1520   -5.6150 C   0  0  0  0  0  0  0  0  0  0  0  0
   -0.7040   17.6660   -4.7980 C   0  0  0  0  0  0  0  0  0  0  0  0
   -0.1460   15.1600   -4.9970 C   0  0  0  0  0  0  0  0  0  0  0  0
    0.5100   14.0610   -2.7690 C   0  0  0  0  0  0  0  0  0  0  0  0
   -0.5940   13.5400   -5.4330 Cl  0  0  0  0  0  0  0  0  0  0  0  0
   -1.7950   18.9930   -5.0210 Cl  0  0  0  0  0  0  0  0  0  0  0  0
   -1.0600   16.2870   -5.1420 C   0  0  0  0  0  0  0  0  0  0  0  0
    0.3750   12.8230   -1.9390 C   0  0  0  0  0  0  0  0  0  0  0  0
    0.1900   12.8690   -0.7250 O   0  0  0  0  0  0  0  0  0  0  0  0
    0.4210   11.4620   -2.4870 N   0  0  0  0  0  0  0  0  0  0  0  0
    0.3000   10.6500   -1.5790 O   0  0  0  0  0  0  0  0  0  0  0  0
  1  2  1  0
  2  3  1  0
  2  4  1  0
  3  5  2  0
  4  6  2  0
  5  6  1  0
  4  7  1  0
  3  8  1  0
  5  9  1  0
  6 10  1  0
  7 11  2  0
  8 12  2  0
  8 13  1  0
 10 14  2  0
 11 14  1  0
 12 15  1  0
 13 16  2  0
  9 17  1  0
 16 18  1  0
 15 19  1  0
 15 20  2  0
 16 20  1  0
 17 21  1  0
 21 22  2  0
 21 23  1  0
 23 24  2  0
M  END
