mac-x0348-diamond-x0628_0_A
     RDKit          3D

 23 25  0  0  0  0  0  0  0  0999 V2000
    0.4220   18.6610   -6.1390 C   0  0  0  0  0  0  0  0  0  0  0  0
   -0.0280   17.4950   -5.4280 N   0  0  0  0  0  0  0  0  0  0  0  0
    0.7540   16.7860   -4.5690 C   0  0  0  0  0  0  0  0  0  0  0  0
   -1.2760   16.9200   -5.4960 C   0  0  0  0  0  0  0  0  0  0  0  0
    0.0460   15.7320   -4.0710 C   0  0  0  0  0  0  0  0  0  0  0  0
   -1.2440   15.8080   -4.6520 C   0  0  0  0  0  0  0  0  0  0  0  0
   -2.4270   17.2560   -6.2110 C   0  0  0  0  0  0  0  0  0  0  0  0
    0.5560   14.7120   -3.0990 C   0  0  0  0  0  0  0  0  0  0  0  0
   -2.3840   15.0100   -4.5190 C   0  0  0  0  0  0  0  0  0  0  0  0
   -3.5390   16.4200   -6.0410 C   0  0  0  0  0  0  0  0  0  0  0  0
    0.9800   13.3630   -3.7070 C   0  0  1  0  0  0  0  0  0  0  0  0
   -3.5210   15.3270   -5.2200 C   0  0  0  0  0  0  0  0  0  0  0  0
    0.6180   12.3280   -2.6500 C   0  0  0  0  0  0  0  0  0  0  0  0
    0.4460   13.1620   -5.1550 C   0  0  0  0  0  0  0  0  0  0  0  0
    0.5930   12.5460   -1.4400 O   0  0  0  0  0  0  0  0  0  0  0  0
    0.3120   11.1030   -3.1050 O   0  0  0  0  0  0  0  0  0  0  0  0
   -0.3140   11.9570   -5.4670 N   0  0  0  0  0  0  0  0  0  0  0  0
    0.1260   11.1310   -6.4400 N   0  0  0  0  0  0  0  0  0  0  0  0
   -1.4770   11.4820   -4.9180 C   0  0  0  0  0  0  0  0  0  0  0  0
   -2.2290   12.1400   -3.8270 C   0  0  0  0  0  0  0  0  0  0  0  0
   -1.8050   10.3530   -5.5170 N   0  0  0  0  0  0  0  0  0  0  0  0
   -0.8070   10.1740   -6.4330 C   0  0  0  0  0  0  0  0  0  0  0  0
   -0.7640    9.0140   -7.3400 C   0  0  0  0  0  0  0  0  0  0  0  0
  1  2  1  0
  2  3  1  0
  2  4  1  0
  3  5  2  0
  4  6  2  0
  5  6  1  0
  4  7  1  0
  5  8  1  0
  6  9  1  0
  7 10  2  0
 11  8  1  1
  9 12  2  0
 10 12  1  0
 11 13  1  0
 11 14  1  0
 13 15  2  0
 13 16  1  0
 14 17  1  0
 17 18  1  0
 17 19  1  0
 19 20  1  0
 19 21  2  0
 18 22  2  0
 21 22  1  0
 22 23  1  0
M  END
