mac-x0437-diamond-x0628_0_A
     RDKit          3D

 16 17  0  0  0  0  0  0  0  0999 V2000
    1.2490   13.1580   -2.2270 O   0  0  0  0  0  0  0  0  0  0  0  0
    1.1720   12.2630   -3.2260 C   0  0  0  0  0  0  0  0  0  0  0  0
    0.7970   11.1290   -2.9940 O   0  0  0  0  0  0  0  0  0  0  0  0
    1.5810   12.8650   -4.5490 C   0  0  0  0  0  0  0  0  0  0  0  0
    0.3750   13.1880   -5.4410 C   0  0  0  0  0  0  0  0  0  0  0  0
   -0.5970   12.1310   -5.7750 N   0  0  0  0  0  0  0  0  0  0  0  0
   -1.2390   11.2660   -4.7930 C   0  0  1  0  0  0  0  0  0  0  0  0
   -0.6200   11.4970   -7.0930 C   0  0  2  0  0  0  0  0  0  0  0  0
   -2.3410   12.0250   -4.0500 C   0  0  0  0  0  0  0  0  0  0  0  0
   -1.7770   10.1160   -5.5550 N   0  0  0  0  0  0  0  0  0  0  0  0
   -1.7930   10.4950   -6.9610 C   0  0  2  0  0  0  0  0  0  0  0  0
    0.6790   10.8710   -7.5100 C   0  0  0  0  0  0  0  0  0  0  0  0
   -0.9530    8.9210   -5.4540 C   0  0  0  0  0  0  0  0  0  0  0  0
   -1.6480    9.2660   -7.8140 C   0  0  0  0  0  0  0  0  0  0  0  0
    0.7270    9.6600   -8.0870 C   0  0  0  0  0  0  0  0  0  0  0  0
   -0.4680    8.8920   -8.3310 C   0  0  0  0  0  0  0  0  0  0  0  0
  1  2  1  0
  2  3  2  0
  2  4  1  0
  4  5  1  0
  5  6  1  0
  6  7  1  0
  6  8  1  0
  7  9  1  6
  7 10  1  0
  8 11  1  0
 10 11  1  0
  8 12  1  1
 10 13  1  0
 11 14  1  6
 12 15  2  0
 14 16  2  0
 15 16  1  0
M  END
