mac-x0385-diamond-x0104_0_A
     RDKit          3D

 24 26  0  0  0  0  0  0  0  0999 V2000
    0.7070   14.8480   -0.3380 C   0  0  0  0  0  0  0  0  0  0  0  0
   -0.7590   14.8590   -0.3930 C   0  0  0  0  0  0  0  0  0  0  0  0
   -1.3760   14.8960    0.7790 N   0  0  0  0  0  0  0  0  0  0  0  0
   -1.3380   14.8340   -1.6120 N   0  0  0  0  0  0  0  0  0  0  0  0
   -2.6880   14.9010    0.6900 C   0  0  0  0  0  0  0  0  0  0  0  0
   -2.6950   14.8380   -1.6540 C   0  0  0  0  0  0  0  0  0  0  0  0
   -3.3550   14.9450    1.9130 N   0  0  0  0  0  0  0  0  0  0  0  0
   -3.4120   14.8630   -0.4880 C   0  0  0  0  0  0  0  0  0  0  0  0
   -3.3390   14.8080   -3.0050 C   0  0  0  0  0  0  0  0  0  0  0  0
   -4.8010   14.8360   -0.2040 C   0  0  0  0  0  0  0  0  0  0  0  0
   -4.7240   14.4790    1.0540 N   0  0  0  0  0  0  0  0  0  0  0  0
   -5.9970   15.0650   -0.8710 C   0  0  0  0  0  0  0  0  0  0  0  0
   -5.7980   14.3260    1.7610 C   0  0  0  0  0  0  0  0  0  0  0  0
   -7.1610   14.8900   -0.0870 C   0  0  0  0  0  0  0  0  0  0  0  0
   -7.0330   14.5120    1.2690 C   0  0  0  0  0  0  0  0  0  0  0  0
   -8.1410   14.3420    2.0810 N   0  0  0  0  0  0  0  0  0  0  0  0
   -8.6300   15.2510    2.9450 C   0  0  0  0  0  0  0  0  0  0  0  0
   -8.4820   15.0890    4.2870 N   0  0  0  0  0  0  0  0  0  0  0  0
   -9.2370   16.2440    2.5820 O   0  0  0  0  0  0  0  0  0  0  0  0
   -9.4570   15.0520    5.2530 C   0  0  0  0  0  0  0  0  0  0  0  0
   -9.2780   15.1570    6.6160 C   0  0  0  0  0  0  0  0  0  0  0  0
  -11.0920   14.8650    4.8410 S   0  0  0  0  0  0  0  0  0  0  0  0
  -11.5870   14.9210    6.4690 C   0  0  0  0  0  0  0  0  0  0  0  0
  -10.5180   15.0810    7.3240 C   0  0  0  0  0  0  0  0  0  0  0  0
  1  2  1  0
  2  3  2  0
  2  4  1  0
  3  5  1  0
  4  6  2  0
  5  7  1  0
  5  8  2  0
  6  8  1  0
  6  9  1  0
  8 10  1  0
 10 11  2  0
 10 12  1  0
 11 13  1  0
 12 14  2  0
 13 15  2  0
 14 15  1  0
 15 16  1  0
 16 17  1  0
 17 18  1  0
 17 19  2  0
 18 20  1  0
 20 21  2  0
 20 22  1  0
 22 23  1  0
 21 24  1  0
 23 24  2  0
M  END
