mac-x0321-mac-x0360
     RDKit          3D

 20 22  0  0  0  0  0  0  0  0999 V2000
   -3.5960   15.0570    0.5590 N   0  0  0  0  0  0  0  0  0  0  0  0
   -3.0040   13.6490   -0.0110 S   0  0  0  0  0  0  0  0  0  0  0  0
   -4.1890   14.2000   -0.9590 O   0  0  0  0  0  0  0  0  0  0  0  0
   -4.2580   15.1520   -0.7210 C   0  0  0  0  0  0  0  0  0  0  0  0
   -2.1090   14.2670   -1.1540 C   0  0  0  0  0  0  0  0  0  0  0  0
   -3.3880   14.6870   -1.7670 C   0  0  0  0  0  0  0  0  0  0  0  0
   -5.5090   15.5540   -1.0900 C   0  0  0  0  0  0  0  0  0  0  0  0
   -4.4480   12.6040   -0.0190 C   0  0  0  0  0  0  0  0  0  0  0  0
   -1.5800   13.2890   -2.0240 O   0  0  0  0  0  0  0  0  0  0  0  0
   -1.1600   15.2350   -1.2150 O   0  0  0  0  0  0  0  0  0  0  0  0
   -3.8040   14.6520   -3.0810 C   0  0  0  0  0  0  0  0  0  0  0  0
   -5.8920   15.4950   -2.3920 C   0  0  0  0  0  0  0  0  0  0  0  0
   -4.4970   11.7730   -1.0860 C   0  0  0  0  0  0  0  0  0  0  0  0
   -5.4070   12.6370    0.9190 C   0  0  0  0  0  0  0  0  0  0  0  0
   -5.0420   15.0440   -3.3800 C   0  0  0  0  0  0  0  0  0  0  0  0
   -5.5370   10.9210   -1.2500 C   0  0  0  0  0  0  0  0  0  0  0  0
   -6.4610   11.7710    0.7480 C   0  0  0  0  0  0  0  0  0  0  0  0
   -7.7480   11.7420    1.9180 Cl  0  0  0  0  0  0  0  0  0  0  0  0
   -5.5610    9.8560   -2.6290 Cl  0  0  0  0  0  0  0  0  0  0  0  0
   -6.5450   10.9130   -0.3200 C   0  0  0  0  0  0  0  0  0  0  0  0
  1  2  1  0
  2  3  2  0
  1  4  1  0
  2  5  1  0
  4  6  2  0
  5  6  1  0
  4  7  1  0
  2  8  1  0
  5  9  1  0
  5 10  1  0
  6 11  1  0
  7 12  2  0
  8 13  2  0
  8 14  1  0
 11 15  2  0
 12 15  1  0
 13 16  1  0
 14 17  2  0
 17 18  1  0
 16 19  1  0
 16 20  2  0
 17 20  1  0
M  END
