mac-x0159-mac-x0496
     RDKit          3D

 28 31  0  0  0  0  0  0  0  0999 V2000
   -4.4030   15.4290    1.7020 N   0  0  0  0  0  0  0  0  0  0  0  0
   -3.6680   15.5620    0.4640 C   0  0  1  0  0  0  0  0  0  0  0  0
   -2.3530   14.7640    0.4220 C   0  0  1  0  0  0  0  0  0  0  0  0
   -4.5120   15.1580   -0.6540 N   0  0  0  0  0  0  0  0  0  0  0  0
   -5.9490   14.8650   -0.3540 C   0  0  0  0  0  0  0  0  0  0  0  0
   -3.7080   14.7600   -1.8890 C   0  0  2  0  0  0  0  0  0  0  0  0
   -1.5910   15.3500   -0.7310 C   0  0  2  0  0  0  0  0  0  0  0  0
   -1.3610   14.9230    1.4820 N   0  0  0  0  0  0  0  0  0  0  0  0
   -6.4870   14.7180    0.9730 N   0  0  0  0  0  0  0  0  0  0  0  0
   -6.7520   14.7390   -1.2730 O   0  0  0  0  0  0  0  0  0  0  0  0
   -2.2950   15.2680   -1.9950 N   0  0  0  0  0  0  0  0  0  0  0  0
   -0.3900   14.5550   -0.6310 N   0  0  0  0  0  0  0  0  0  0  0  0
   -0.1070   14.6010    0.7980 C   0  0  0  0  0  0  0  0  0  0  0  0
   -4.4230   15.1010   -3.0520 O   0  0  0  0  0  0  0  0  0  0  0  0
   -1.4520   14.7760   -3.1130 C   0  0  0  0  0  0  0  0  0  0  0  0
   -7.9240   14.3120    1.2160 C   0  0  0  0  0  0  0  0  0  0  0  0
   -0.7860   15.9170   -3.8770 C   0  0  0  0  0  0  0  0  0  0  0  0
   -8.7860   15.2610    2.0450 C   0  0  0  0  0  0  0  0  0  0  0  0
    0.5560   16.2810   -3.8610 C   0  0  0  0  0  0  0  0  0  0  0  0
   -1.5670   16.7230   -4.7080 N   0  0  0  0  0  0  0  0  0  0  0  0
  -10.0490   15.5790    1.5880 O   0  0  0  0  0  0  0  0  0  0  0  0
   -8.5290   15.8710    3.1890 N   0  0  0  0  0  0  0  0  0  0  0  0
   -0.8340   17.6530   -5.2860 C   0  0  0  0  0  0  0  0  0  0  0  0
    0.8250   17.6330   -4.8830 S   0  0  0  0  0  0  0  0  0  0  0  0
   -9.6600   16.6040    3.4360 C   0  0  0  0  0  0  0  0  0  0  0  0
  -10.6220   16.4660    2.5200 N   0  0  0  0  0  0  0  0  0  0  0  0
   -1.3580   18.6750   -6.2340 C   0  0  0  0  0  0  0  0  0  0  0  0
   -9.7910   17.4790    4.6240 C   0  0  0  0  0  0  0  0  0  0  0  0
  2  1  1  1
  2  3  1  0
  2  4  1  0
  4  5  1  0
  4  6  1  0
  3  7  1  0
  3  8  1  1
  5  9  1  0
  5 10  2  0
  6 11  1  0
  7 11  1  0
  7 12  1  6
  8 13  1  0
 12 13  1  0
  6 14  1  6
 11 15  1  0
  9 16  1  0
 15 17  1  0
 16 18  1  0
 17 19  2  0
 17 20  1  0
 18 21  1  0
 18 22  2  0
 20 23  2  0
 19 24  1  0
 23 24  1  0
 22 25  1  0
 21 26  1  0
 25 26  2  0
 23 27  1  0
 25 28  1  0
M  END
