mac-x0397-mac-x0510
     RDKit          3D

 16 18  0  0  0  0  0  0  0  0999 V2000
   -6.7880   14.6430   -2.2130 Cl  0  0  0  0  0  0  0  0  0  0  0  0
   -5.1800   14.1420   -1.6240 C   0  0  2  0  0  0  0  0  0  0  0  0
   -5.0670   14.4350   -0.2200 C   0  0  0  0  0  0  0  0  0  0  0  0
   -4.2080   15.1190   -2.1410 C   0  0  0  0  0  0  0  0  0  0  0  0
   -4.6530   16.0550   -2.6840 O   0  0  0  0  0  0  0  0  0  0  0  0
   -6.1650   14.4790    0.6050 N   0  0  0  0  0  0  0  0  0  0  0  0
   -3.8420   14.7090    0.3350 C   0  0  0  0  0  0  0  0  0  0  0  0
   -2.7310   14.9870   -1.8740 C   0  0  0  0  0  0  0  0  0  0  0  0
   -5.7680   14.7950    1.7960 C   0  0  0  0  0  0  0  0  0  0  0  0
   -4.0750   15.0490    1.9540 S   0  0  0  0  0  0  0  0  0  0  0  0
   -2.5090   14.7400   -0.3660 C   0  0  2  0  0  0  0  0  0  0  0  0
   -6.6180   14.9170    2.8230 N   0  0  0  0  0  0  0  0  0  0  0  0
   -1.6270   13.5690   -0.1710 N   0  0  0  0  0  0  0  0  0  0  0  0
   -1.7290   15.8540    0.2830 C   0  0  0  0  0  0  0  0  0  0  0  0
   -0.9120   15.1560    1.2600 N   0  0  0  0  0  0  0  0  0  0  0  0
   -0.4330   14.0520    0.5090 C   0  0  0  0  0  0  0  0  0  0  0  0
  2  1  1  6
  2  3  1  0
  2  4  1  0
  4  5  2  0
  3  6  1  0
  3  7  2  0
  4  8  1  0
  6  9  2  0
  7 10  1  0
  9 10  1  0
  7 11  1  0
 11  8  1  6
  9 12  1  0
 11 13  1  0
 11 14  1  0
 14 15  1  0
 13 16  1  0
 15 16  1  0
M  END
