mac-x0411-diamond-x0969_0_A
     RDKit          3D

 25 27  0  0  0  0  0  0  0  0999 V2000
    0.5550    8.9460   -7.6590 Cl  0  0  0  0  0  0  0  0  0  0  0  0
   -0.6850    9.6760   -6.6950 C   0  0  0  0  0  0  0  0  0  0  0  0
   -0.5360   10.9380   -6.0610 C   0  0  0  0  0  0  0  0  0  0  0  0
   -1.8670    8.9600   -6.5700 C   0  0  0  0  0  0  0  0  0  0  0  0
    0.6650   11.6070   -6.2140 O   0  0  0  0  0  0  0  0  0  0  0  0
   -1.6140   11.4940   -5.2940 C   0  0  0  0  0  0  0  0  0  0  0  0
   -2.9190    9.4780   -5.8260 C   0  0  0  0  0  0  0  0  0  0  0  0
   -1.5620   12.8670   -4.5860 C   0  0  0  0  0  0  0  0  0  0  0  0
    1.0390   12.5320   -5.1800 C   0  0  0  0  0  0  0  0  0  0  0  0
   -2.7970   10.7250   -5.2000 C   0  0  0  0  0  0  0  0  0  0  0  0
    0.8980   11.9590   -3.7740 C   0  0  0  0  0  0  0  0  0  0  0  0
   -2.3720   13.0480   -3.2700 C   0  0  0  0  0  0  0  0  0  0  0  0
    1.4240   12.7290   -2.7990 O   0  0  0  0  0  0  0  0  0  0  0  0
    0.3760   10.8960   -3.4810 O   0  0  0  0  0  0  0  0  0  0  0  0
   -2.3250   14.4760   -2.6300 C   0  0  0  0  0  0  0  0  0  0  0  0
   -3.3710   14.6300   -1.5300 C   0  0  0  0  0  0  0  0  0  0  0  0
   -4.6820   14.5870   -1.8390 C   0  0  0  0  0  0  0  0  0  0  0  0
   -2.9540   14.8030   -0.1220 C   0  0  0  0  0  0  0  0  0  0  0  0
   -5.6650   14.6560   -0.8230 C   0  0  0  0  0  0  0  0  0  0  0  0
   -3.8940   14.8760    0.8510 C   0  0  0  0  0  0  0  0  0  0  0  0
   -6.9760   14.6000   -0.8720 N   0  0  0  0  0  0  0  0  0  0  0  0
   -5.2450   14.7830    0.4910 N   0  0  0  0  0  0  0  0  0  0  0  0
   -6.4220   14.7900    1.2300 C   0  0  0  0  0  0  0  0  0  0  0  0
   -7.4490   14.6820    0.4150 N   0  0  0  0  0  0  0  0  0  0  0  0
   -6.4860   14.9050    2.5740 N   0  0  0  0  0  0  0  0  0  0  0  0
  1  2  1  0
  2  3  2  0
  2  4  1  0
  3  5  1  0
  3  6  1  0
  4  7  2  0
  6  8  1  0
  5  9  1  0
  6 10  2  0
  7 10  1  0
  9 11  1  0
  8 12  1  0
 11 13  1  0
 11 14  2  0
 12 15  1  0
 15 16  1  0
 16 17  2  0
 16 18  1  0
 17 19  1  0
 18 20  2  0
 19 21  2  0
 19 22  1  0
 20 22  1  0
 22 23  1  0
 21 24  1  0
 23 24  2  0
 23 25  1  0
M  END
