mac-x0179-mac-x0392
     RDKit          3D

 26 28  0  0  0  0  0  0  0  0999 V2000
    1.6620   12.7330   -2.1540 O   0  0  0  0  0  0  0  0  0  0  0  0
    1.0190   12.0480   -3.1210 C   0  0  0  0  0  0  0  0  0  0  0  0
    0.5980   10.9270   -2.8830 O   0  0  0  0  0  0  0  0  0  0  0  0
    0.8960   12.7830   -4.4440 C   0  0  2  0  0  0  0  0  0  0  0  0
    0.4340   14.2230   -4.1650 C   0  0  0  0  0  0  0  0  0  0  0  0
    0.1360   12.0160   -5.4460 N   0  0  0  0  0  0  0  0  0  0  0  0
   -0.0040   14.4090   -2.7920 O   0  0  0  0  0  0  0  0  0  0  0  0
    0.7660   11.4920   -6.5290 C   0  0  0  0  0  0  0  0  0  0  0  0
   -0.9820   11.2650   -5.1530 C   0  0  0  0  0  0  0  0  0  0  0  0
    1.8270   11.8040   -6.9780 O   0  0  0  0  0  0  0  0  0  0  0  0
   -1.7430   11.3520   -4.2090 O   0  0  0  0  0  0  0  0  0  0  0  0
   -1.3270   14.6780   -2.6890 C   0  0  0  0  0  0  0  0  0  0  0  0
   -0.0590   10.4170   -7.0690 C   0  0  0  0  0  0  0  0  0  0  0  0
   -1.1360   10.2730   -6.2230 C   0  0  0  0  0  0  0  0  0  0  0  0
   -2.0460   14.8870   -3.6510 O   0  0  0  0  0  0  0  0  0  0  0  0
    0.1070    9.6280   -8.1920 C   0  0  0  0  0  0  0  0  0  0  0  0
   -2.1200    9.3250   -6.4490 C   0  0  0  0  0  0  0  0  0  0  0  0
   -1.8420   14.7100   -1.2850 C   0  0  0  0  0  0  0  0  0  0  0  0
   -0.8740    8.6610   -8.4440 C   0  0  0  0  0  0  0  0  0  0  0  0
   -1.9800    8.5100   -7.5790 C   0  0  0  0  0  0  0  0  0  0  0  0
   -1.0340   14.3930   -0.1660 C   0  0  0  0  0  0  0  0  0  0  0  0
   -3.1850   15.0750   -1.1050 C   0  0  0  0  0  0  0  0  0  0  0  0
    0.3200   14.0120   -0.2750 N   0  0  0  0  0  0  0  0  0  0  0  0
   -3.6900   15.1230    0.1710 C   0  0  0  0  0  0  0  0  0  0  0  0
   -1.6680   14.4780    1.0730 C   0  0  0  0  0  0  0  0  0  0  0  0
   -2.9650   14.8340    1.2640 N   0  0  0  0  0  0  0  0  0  0  0  0
  1  2  1  0
  2  3  2  0
  2  4  1  0
  4  5  1  1
  4  6  1  0
  5  7  1  0
  6  8  1  0
  6  9  1  0
  8 10  2  0
  9 11  2  0
  7 12  1  0
  8 13  1  0
  9 14  1  0
 13 14  2  0
 12 15  2  0
 13 16  1  0
 14 17  1  0
 12 18  1  0
 16 19  2  0
 17 20  2  0
 19 20  1  0
 18 21  2  0
 18 22  1  0
 21 23  1  0
 22 24  2  0
 21 25  1  0
 24 26  1  0
 25 26  2  0
M  END
