mac-x0348-mac-x0433
     RDKit          3D

 25 27  0  0  0  0  0  0  0  0999 V2000
    0.2570   18.5690   -6.3570 C   0  0  0  0  0  0  0  0  0  0  0  0
   -0.1400   17.4410   -5.5440 N   0  0  0  0  0  0  0  0  0  0  0  0
    0.7000   16.8030   -4.6900 C   0  0  0  0  0  0  0  0  0  0  0  0
   -1.3840   16.8430   -5.4990 C   0  0  0  0  0  0  0  0  0  0  0  0
    0.0370   15.7810   -4.0710 C   0  0  0  0  0  0  0  0  0  0  0  0
   -1.2910   15.8080   -4.5680 C   0  0  0  0  0  0  0  0  0  0  0  0
   -2.5800   17.0960   -6.1740 C   0  0  0  0  0  0  0  0  0  0  0  0
    0.6040   14.8300   -3.0680 C   0  0  0  0  0  0  0  0  0  0  0  0
   -2.4150   15.0190   -4.2810 C   0  0  0  0  0  0  0  0  0  0  0  0
   -3.6850   16.2750   -5.8710 C   0  0  0  0  0  0  0  0  0  0  0  0
    0.7070   13.4020   -3.6150 C   0  0  0  0  0  0  0  0  0  0  0  0
   -3.6290   15.2480   -4.9180 C   0  0  0  0  0  0  0  0  0  0  0  0
    0.5440   12.3980   -2.5060 C   0  0  0  0  0  0  0  0  0  0  0  0
   -4.8320   14.3650   -4.5360 C   0  0  0  0  0  0  0  0  0  0  0  0
    0.6330   12.6090   -1.3090 O   0  0  0  0  0  0  0  0  0  0  0  0
    0.2620   11.1640   -2.9670 O   0  0  0  0  0  0  0  0  0  0  0  0
   -5.7720   14.9590   -3.5450 N   0  0  0  0  0  0  0  0  0  0  0  0
   -5.6740   14.9350   -2.1380 C   0  0  0  0  0  0  0  0  0  0  0  0
   -4.4510   15.0650   -1.5830 N   0  0  0  0  0  0  0  0  0  0  0  0
   -6.7920   14.7810   -1.4020 N   0  0  0  0  0  0  0  0  0  0  0  0
   -4.3730   15.0330   -0.2260 C   0  0  0  0  0  0  0  0  0  0  0  0
   -6.6830   14.7530   -0.0590 C   0  0  0  0  0  0  0  0  0  0  0  0
   -3.0300   15.1680    0.4220 C   0  0  0  0  0  0  0  0  0  0  0  0
   -7.9380   14.5800    0.7410 C   0  0  0  0  0  0  0  0  0  0  0  0
   -5.4710   14.8780    0.5810 C   0  0  0  0  0  0  0  0  0  0  0  0
  1  2  1  0
  2  3  1  0
  2  4  1  0
  3  5  2  0
  4  6  2  0
  5  6  1  0
  4  7  1  0
  5  8  1  0
  6  9  1  0
  7 10  2  0
  8 11  1  0
  9 12  2  0
 10 12  1  0
 11 13  1  0
 12 14  1  0
 13 15  2  0
 13 16  1  0
 14 17  1  0
 17 18  1  0
 18 19  2  0
 18 20  1  0
 19 21  1  0
 20 22  2  0
 21 23  1  0
 22 24  1  0
 21 25  2  0
 22 25  1  0
M  END
