mac-x0255-mac-x0417
     RDKit          3D

 22 25  0  0  0  0  0  0  0  0999 V2000
    0.9830   12.9290   -2.0420 O   0  0  0  0  0  0  0  0  0  0  0  0
    0.6540   12.1080   -3.0660 C   0  0  0  0  0  0  0  0  0  0  0  0
    0.1760   11.0050   -2.8340 O   0  0  0  0  0  0  0  0  0  0  0  0
    0.9120   12.6020   -4.4920 C   0  0  2  0  0  0  0  0  0  0  0  0
    0.3410   13.9790   -4.7120 C   0  0  0  0  0  0  0  0  0  0  0  0
    0.5720   11.6900   -5.6630 C   0  0  0  0  0  0  0  0  0  0  0  0
    1.0160   15.1780   -4.8390 C   0  0  0  0  0  0  0  0  0  0  0  0
   -1.3440   14.1970   -4.8510 S   0  0  0  0  0  0  0  0  0  0  0  0
    1.4120   11.6370   -6.7080 N   0  0  0  0  0  0  0  0  0  0  0  0
   -0.5460   10.8060   -5.8910 C   0  0  0  0  0  0  0  0  0  0  0  0
    0.1450   16.2850   -5.0790 C   0  0  0  0  0  0  0  0  0  0  0  0
   -1.1910   15.8820   -5.1110 C   0  0  0  0  0  0  0  0  0  0  0  0
    0.8800   10.7410   -7.6160 O   0  0  0  0  0  0  0  0  0  0  0  0
   -0.2810   10.2450   -7.1360 C   0  0  0  0  0  0  0  0  0  0  0  0
   -1.7240   10.4070   -5.2320 C   0  0  0  0  0  0  0  0  0  0  0  0
    0.4280   17.6500   -5.2860 C   0  0  0  0  0  0  0  0  0  0  0  0
   -2.2370   16.7840   -5.3400 C   0  0  0  0  0  0  0  0  0  0  0  0
   -1.0910    9.3130   -7.7830 C   0  0  0  0  0  0  0  0  0  0  0  0
   -2.5670    9.4670   -5.8580 C   0  0  0  0  0  0  0  0  0  0  0  0
   -0.6110   18.5430   -5.5220 C   0  0  0  0  0  0  0  0  0  0  0  0
   -1.9210   18.1230   -5.5490 C   0  0  0  0  0  0  0  0  0  0  0  0
   -2.2540    8.9310   -7.1090 C   0  0  0  0  0  0  0  0  0  0  0  0
  1  2  1  0
  2  3  2  0
  4  2  1  1
  4  5  1  0
  4  6  1  0
  5  7  2  0
  5  8  1  0
  6  9  2  0
  6 10  1  0
  7 11  1  0
  8 12  1  0
 11 12  2  0
  9 13  1  0
 10 14  2  0
 13 14  1  0
 10 15  1  0
 11 16  1  0
 12 17  1  0
 14 18  1  0
 15 19  2  0
 16 20  2  0
 17 21  2  0
 20 21  1  0
 18 22  2  0
 19 22  1  0
M  END
