mac-x0301-mac-x0347
     RDKit          3D

 19 21  0  0  0  0  0  0  0  0999 V2000
    0.6330   14.2750   -2.8820 C   0  0  0  0  0  0  0  0  0  0  0  0
   -0.8390   14.5090   -3.2400 C   0  0  0  0  0  0  0  0  0  0  0  0
   -1.1470   14.7910   -4.3980 O   0  0  0  0  0  0  0  0  0  0  0  0
    1.4900   14.7840   -3.7700 O   0  0  0  0  0  0  0  0  0  0  0  0
    1.0080   13.6760   -1.8910 O   0  0  0  0  0  0  0  0  0  0  0  0
   -1.8600   14.3490   -2.1240 C   0  0  1  0  0  0  0  0  0  0  0  0
   -1.2080   14.1180   -0.7470 C   0  0  2  0  0  0  0  0  0  0  0  0
   -2.9660   15.3690   -2.1650 C   0  0  0  0  0  0  0  0  0  0  0  0
   -2.1030   14.3650    0.4740 C   0  0  2  0  0  0  0  0  0  0  0  0
   -3.7590   15.5770   -1.1110 C   0  0  0  0  0  0  0  0  0  0  0  0
   -0.0060   14.8270   -0.4690 O   0  0  0  0  0  0  0  0  0  0  0  0
   -3.5930   14.7680    0.1480 C   0  0  0  0  0  0  0  0  0  0  0  0
   -1.3460   15.2120    1.3630 O   0  0  0  0  0  0  0  0  0  0  0  0
   -0.0170   14.8890    0.9540 C   0  0  0  0  0  0  0  0  0  0  0  0
   -4.4450   15.2820    1.3100 C   0  0  0  0  0  0  0  0  0  0  0  0
   -4.1810   13.4610   -0.3410 C   0  0  0  0  0  0  0  0  0  0  0  0
   -5.7220   14.8980    1.4960 C   0  0  0  0  0  0  0  0  0  0  0  0
   -5.4510   13.0990   -0.1550 C   0  0  0  0  0  0  0  0  0  0  0  0
   -6.4230   13.9550    0.5780 C   0  0  0  0  0  0  0  0  0  0  0  0
  1  2  1  0
  2  3  2  0
  1  4  1  0
  1  5  2  0
  6  2  1  6
  6  7  1  0
  6  8  1  0
  7  9  1  0
  8 10  2  0
  7 11  1  1
  9 12  1  0
 12 10  1  0
  9 13  1  6
 11 14  1  0
 13 14  1  0
 12 15  1  0
 12 16  1  0
 15 17  2  0
 16 18  2  0
 17 19  1  0
 18 19  1  0
M  END
