mac-x0302-mac-x0226
     RDKit          3D

 27 29  0  0  0  0  0  0  0  0999 V2000
    1.2210   15.1750   -2.3230 O   0  0  0  0  0  0  0  0  0  0  0  0
    0.5480   14.0690   -2.6550 C   0  0  0  0  0  0  0  0  0  0  0  0
    1.1240   12.9560   -2.3620 N   0  0  0  0  0  0  0  0  0  0  0  0
   -0.7870   14.3690   -3.3290 C   0  0  0  0  0  0  0  0  0  0  0  0
   -1.7280   14.5710   -2.2500 N   0  0  0  0  0  0  0  0  0  0  0  0
    0.5470   11.7830   -2.7360 C   0  0  0  0  0  0  0  0  0  0  0  0
   -2.9940   15.0860   -2.4420 C   0  0  0  0  0  0  0  0  0  0  0  0
    0.0640   10.8800   -2.0310 O   0  0  0  0  0  0  0  0  0  0  0  0
    0.6430   11.7430   -4.1780 C   0  0  0  0  0  0  0  0  0  0  0  0
   -3.3810   15.5220   -3.5240 O   0  0  0  0  0  0  0  0  0  0  0  0
   -3.8560   15.0730   -1.2320 C   0  0  0  0  0  0  0  0  0  0  0  0
    1.4750   12.5830   -4.9550 C   0  0  0  0  0  0  0  0  0  0  0  0
    0.0180   10.9410   -5.1120 C   0  0  0  0  0  0  0  0  0  0  0  0
   -5.2440   15.0510   -1.3860 C   0  0  0  0  0  0  0  0  0  0  0  0
   -3.2940   15.0780    0.0500 C   0  0  0  0  0  0  0  0  0  0  0  0
    1.3970   12.3350   -6.2520 N   0  0  0  0  0  0  0  0  0  0  0  0
    0.5040   11.3180   -6.3500 N   0  0  0  0  0  0  0  0  0  0  0  0
   -6.0480   15.0260   -0.2570 C   0  0  0  0  0  0  0  0  0  0  0  0
   -4.1080   15.0550    1.1750 C   0  0  0  0  0  0  0  0  0  0  0  0
    0.1860   10.7750   -7.6120 C   0  0  0  0  0  0  0  0  0  0  0  0
   -7.3970   15.0030   -0.4510 O   0  0  0  0  0  0  0  0  0  0  0  0
   -5.4920   15.0250    1.0230 C   0  0  0  0  0  0  0  0  0  0  0  0
   -1.0370   10.1430   -7.8460 C   0  0  0  0  0  0  0  0  0  0  0  0
    1.1280   10.8710   -8.6450 C   0  0  0  0  0  0  0  0  0  0  0  0
   -1.3120    9.6150   -9.1090 C   0  0  0  0  0  0  0  0  0  0  0  0
    0.8480   10.3450   -9.9020 C   0  0  0  0  0  0  0  0  0  0  0  0
   -0.3720    9.7170  -10.1360 C   0  0  0  0  0  0  0  0  0  0  0  0
  1  2  1  0
  2  3  2  3
  2  4  1  0
  4  5  1  0
  3  6  1  0
  5  7  1  0
  6  8  2  0
  6  9  1  0
  7 10  2  0
  7 11  1  0
  9 12  1  0
  9 13  2  0
 11 14  2  0
 11 15  1  0
 12 16  2  0
 13 17  1  0
 16 17  1  0
 14 18  1  0
 15 19  2  0
 17 20  1  0
 18 21  1  0
 18 22  2  0
 19 22  1  0
 20 23  2  0
 20 24  1  0
 23 25  1  0
 24 26  2  0
 25 27  2  0
 26 27  1  0
M  END
