mac-x1493-mac-x0588
     RDKit          3D

 28 32  0  0  0  0  0  0  0  0999 V2000
   -3.2300   13.6910   -4.6000 O   0  0  0  0  0  0  0  0  0  0  0  0
   -3.1990   14.3500   -3.3870 C   0  0  0  0  0  0  0  0  0  0  0  0
   -2.2210   15.2240   -3.0600 C   0  0  0  0  0  0  0  0  0  0  0  0
   -4.3060   14.1130   -2.4340 C   0  0  0  0  0  0  0  0  0  0  0  0
   -4.1040   13.6080   -1.1340 C   0  0  0  0  0  0  0  0  0  0  0  0
   -5.6180   14.4160   -2.7910 C   0  0  0  0  0  0  0  0  0  0  0  0
   -2.4190   15.7370   -1.7730 N   0  0  0  0  0  0  0  0  0  0  0  0
   -1.0470   15.6280   -3.9890 C   0  0  1  0  0  0  0  0  0  0  0  0
   -5.1990   13.4540   -0.2560 C   0  0  0  0  0  0  0  0  0  0  0  0
   -6.6890   14.2690   -1.9750 N   0  0  0  0  0  0  0  0  0  0  0  0
   -3.8320   15.6570   -1.4260 C   0  0  0  0  0  0  0  0  0  0  0  0
   -1.6720   15.0360   -0.7310 C   0  0  2  0  0  0  0  0  0  0  0  0
   -1.5100   16.5860   -4.9800 O   0  0  0  0  0  0  0  0  0  0  0  0
    0.1840   16.2630   -3.3380 C   0  0  0  0  0  0  0  0  0  0  0  0
   -6.4820   13.8060   -0.7280 C   0  0  0  0  0  0  0  0  0  0  0  0
   -5.0400   12.9720    1.0610 C   0  0  0  0  0  0  0  0  0  0  0  0
   -4.3840   15.8950   -0.1170 N   0  0  0  0  0  0  0  0  0  0  0  0
   -2.0750   15.4200    0.7020 C   0  0  1  0  0  0  0  0  0  0  0  0
   -0.2330   15.1700   -0.5900 N   0  0  0  0  0  0  0  0  0  0  0  0
    0.6620   17.2350   -4.3960 C   0  0  0  0  0  0  0  0  0  0  0  0
   -0.6420   17.7240   -4.9700 C   0  0  0  0  0  0  0  0  0  0  0  0
   -7.5610   13.6680    0.1350 C   0  0  0  0  0  0  0  0  0  0  0  0
   -6.1400   12.8460    1.9030 C   0  0  0  0  0  0  0  0  0  0  0  0
   -3.5990   15.2890    0.8960 C   0  0  1  0  0  0  0  0  0  0  0  0
   -1.2220   14.5130    1.4710 N   0  0  0  0  0  0  0  0  0  0  0  0
    0.0310   14.6390    0.7350 C   0  0  0  0  0  0  0  0  0  0  0  0
   -4.1330   15.9550    2.0580 N   0  0  0  0  0  0  0  0  0  0  0  0
   -7.4030   13.1940    1.4410 C   0  0  0  0  0  0  0  0  0  0  0  0
  1  2  1  0
  2  3  2  3
  2  4  1  0
  4  5  2  0
  4  6  1  0
  3  7  1  0
  8  3  1  1
  5  9  1  0
  6 10  2  0
  7 11  1  0
  7 12  1  0
  8 13  1  0
  8 14  1  0
  9 15  2  0
 10 15  1  0
  9 16  1  0
 11 17  1  0
 12 18  1  0
 12 19  1  6
 14 20  1  0
 13 21  1  0
 20 21  1  0
 15 22  1  0
 16 23  2  0
 17 24  1  0
 18 24  1  0
 18 25  1  1
 19 26  1  0
 25 26  1  0
 24 27  1  1
 22 28  2  0
 23 28  1  0
M  END
