mac-x0178-diamond-x0685_1_A
     RDKit          3D

 23 24  0  0  0  0  0  0  0  0999 V2000
   -0.3180   18.3410   -6.5050 N   0  0  0  0  0  0  0  0  0  0  0  0
   -1.6390   17.6340   -5.6220 S   0  0  0  0  0  0  0  0  0  0  0  0
   -2.6850   17.2930   -6.6250 O   0  0  0  0  0  0  0  0  0  0  0  0
   -2.0990   18.6910   -4.6720 O   0  0  0  0  0  0  0  0  0  0  0  0
   -0.9990   16.2340   -4.8150 C   0  0  0  0  0  0  0  0  0  0  0  0
    0.2730   16.2900   -4.2990 C   0  0  0  0  0  0  0  0  0  0  0  0
   -1.6980   15.0640   -4.6790 C   0  0  0  0  0  0  0  0  0  0  0  0
    0.8430   15.2030   -3.6890 C   0  0  0  0  0  0  0  0  0  0  0  0
   -1.1130   13.9820   -4.0650 C   0  0  0  0  0  0  0  0  0  0  0  0
    0.1570   14.0500   -3.5870 C   0  0  0  0  0  0  0  0  0  0  0  0
    0.9280   12.5820   -2.8830 S   0  0  0  0  0  0  0  0  0  0  0  0
    0.7130   12.9200   -1.4730 O   0  0  0  0  0  0  0  0  0  0  0  0
   -0.0810   11.2800   -2.6410 O   0  0  0  0  0  0  0  0  0  0  0  0
    0.7740   12.2700   -4.4660 C   0  0  0  0  0  0  0  0  0  0  0  0
    2.3770   12.5010   -2.8530 O   0  0  0  0  0  0  0  0  0  0  0  0
   -0.6440   12.0820   -4.9840 C   0  0  0  0  0  0  0  0  0  0  0  0
   -1.0660   10.7370   -5.1550 N   0  0  0  0  0  0  0  0  0  0  0  0
   -0.6020   10.2650   -6.4390 C   0  0  0  0  0  0  0  0  0  0  0  0
   -0.6150    8.7730   -6.5630 C   0  0  0  0  0  0  0  0  0  0  0  0
   -1.6260   10.7640   -7.4430 C   0  0  0  0  0  0  0  0  0  0  0  0
   -0.0590    8.3860   -7.8990 C   0  0  0  0  0  0  0  0  0  0  0  0
   -0.9880   10.5620   -8.8000 C   0  0  0  0  0  0  0  0  0  0  0  0
   -0.7890    9.0800   -9.0220 C   0  0  0  0  0  0  0  0  0  0  0  0
  2  1  1  0
  2  3  2  0
  2  4  2  0
  2  5  1  0
  5  6  2  0
  5  7  1  0
  6  8  1  0
  7  9  2  0
  8 10  2  0
  9 10  1  0
 10 11  1  0
 11 12  2  0
 11 13  1  0
 11 14  1  0
 11 15  1  0
 14 16  1  0
 16 17  1  0
 17 18  1  0
 18 19  1  0
 18 20  1  0
 19 21  1  0
 20 22  1  0
 21 23  1  0
 22 23  1  0
M  END
