mac-x0527-diamond-x0421_0_A
     RDKit          3D

 18 20  0  0  0  0  0  0  0  0999 V2000
   -3.6570   15.2730   -3.8310 O   0  0  0  0  0  0  0  0  0  0  0  0
   -3.1010   15.0260   -2.7710 C   0  0  0  0  0  0  0  0  0  0  0  0
   -1.7580   14.7220   -2.7150 N   0  0  0  0  0  0  0  0  0  0  0  0
   -3.8790   15.0450   -1.4620 C   0  0  0  0  0  0  0  0  0  0  0  0
   -0.9420   14.8390   -3.9150 C   0  0  0  0  0  0  0  0  0  0  0  0
   -5.1990   15.1690   -1.6430 C   0  0  0  0  0  0  0  0  0  0  0  0
   -3.2960   14.9490   -0.1940 N   0  0  0  0  0  0  0  0  0  0  0  0
   -0.8900   13.5600   -4.7370 C   0  0  0  0  0  0  0  0  0  0  0  0
   -6.1260   15.2110   -0.6390 N   0  0  0  0  0  0  0  0  0  0  0  0
   -4.1380   14.7740    0.8110 C   0  0  0  0  0  0  0  0  0  0  0  0
   -2.0640   12.8730   -5.0760 C   0  0  0  0  0  0  0  0  0  0  0  0
    0.3300   13.0330   -5.1770 C   0  0  0  0  0  0  0  0  0  0  0  0
   -5.6520   14.6590    0.6280 C   0  0  0  0  0  0  0  0  0  0  0  0
   -2.0230   11.6880   -5.8110 C   0  0  0  0  0  0  0  0  0  0  0  0
    0.3690   11.8520   -5.9230 C   0  0  0  0  0  0  0  0  0  0  0  0
   -6.6460   14.7180    1.7770 C   0  0  0  0  0  0  0  0  0  0  0  0
   -6.3230   13.3990    1.1540 C   0  0  0  0  0  0  0  0  0  0  0  0
   -0.8060   11.1760   -6.2350 C   0  0  0  0  0  0  0  0  0  0  0  0
  1  2  2  0
  2  3  1  0
  2  4  1  0
  3  5  1  0
  4  6  2  0
  4  7  1  0
  5  8  1  0
  6  9  1  0
  7 10  2  0
  8 11  2  0
  8 12  1  0
  9 13  1  0
 13 10  1  0
 11 14  1  0
 12 15  2  0
 13 16  1  0
 13 17  1  0
 16 17  1  0
 14 18  2  0
 15 18  1  0
M  END
