mac-x0284-mac-x0436
     RDKit          3D

 26 28  0  0  0  0  0  0  0  0999 V2000
   -3.9950   15.4740    0.8690 C   0  0  0  0  0  0  0  0  0  0  0  0
   -3.5290   15.2680   -0.5420 C   0  0  0  0  0  0  0  0  0  0  0  0
   -4.4180   15.4670   -1.6050 C   0  0  0  0  0  0  0  0  0  0  0  0
   -2.2050   14.8780   -0.8140 C   0  0  0  0  0  0  0  0  0  0  0  0
   -1.7880   14.7050   -2.1430 C   0  0  0  0  0  0  0  0  0  0  0  0
   -3.9920   15.2850   -2.9200 C   0  0  0  0  0  0  0  0  0  0  0  0
   -0.4330   14.2970   -2.5250 C   0  0  0  0  0  0  0  0  0  0  0  0
   -2.6900   14.9130   -3.1830 C   0  0  0  0  0  0  0  0  0  0  0  0
   -2.3520   14.7630   -4.5010 O   0  0  0  0  0  0  0  0  0  0  0  0
   -0.0880   13.1150   -2.2600 N   0  0  0  0  0  0  0  0  0  0  0  0
    0.3360   15.1780   -3.1780 O   0  0  0  0  0  0  0  0  0  0  0  0
    1.1700   12.5570   -2.6890 C   0  0  1  0  0  0  0  0  0  0  0  0
    0.9970   11.1580   -2.6870 O   0  0  0  0  0  0  0  0  0  0  0  0
    1.5360   12.9960   -4.1310 C   0  0  0  0  0  0  0  0  0  0  0  0
    0.3670   13.2100   -5.1170 C   0  0  0  0  0  0  0  0  0  0  0  0
   -0.3600   11.9380   -5.5210 C   0  0  0  0  0  0  0  0  0  0  0  0
   -1.6440   11.5730   -4.7580 C   0  0  0  0  0  0  0  0  0  0  0  0
    0.1060   11.2050   -6.4950 N   0  0  0  0  0  0  0  0  0  0  0  0
   -2.0360   12.2530   -3.8200 O   0  0  0  0  0  0  0  0  0  0  0  0
   -2.3020   10.4500   -5.1930 N   0  0  0  0  0  0  0  0  0  0  0  0
   -0.6000   10.0460   -6.8550 C   0  0  0  0  0  0  0  0  0  0  0  0
   -1.7920    9.6610   -6.2220 C   0  0  0  0  0  0  0  0  0  0  0  0
   -0.0950    9.2500   -7.8810 C   0  0  0  0  0  0  0  0  0  0  0  0
   -0.7680    8.0890   -8.2700 C   0  0  0  0  0  0  0  0  0  0  0  0
   -2.4680    8.5070   -6.6020 C   0  0  0  0  0  0  0  0  0  0  0  0
   -1.9550    7.7190   -7.6300 C   0  0  0  0  0  0  0  0  0  0  0  0
  1  2  1  0
  2  3  2  0
  2  4  1  0
  4  5  2  0
  3  6  1  0
  5  7  1  0
  5  8  1  0
  6  8  2  0
  8  9  1  0
  7 10  2  3
  7 11  1  0
 10 12  1  0
 12 13  1  6
 12 14  1  0
 14 15  1  0
 15 16  1  0
 16 17  1  0
 16 18  2  0
 17 19  2  0
 17 20  1  0
 18 21  1  0
 20 22  1  0
 21 22  2  0
 21 23  1  0
 23 24  2  0
 22 25  1  0
 24 26  1  0
 25 26  2  0
M  END
