mac-x0354-mac-x0441
     RDKit          3D

 19 20  0  0  0  0  0  0  0  0999 V2000
    1.0120   10.6930   -8.5480 C   0  0  0  0  0  0  0  0  0  0  0  0
    1.1500   11.3130   -7.2020 N   0  0  0  0  0  0  0  0  0  0  0  0
    2.1320   12.1940   -6.9390 N   0  0  0  0  0  0  0  0  0  0  0  0
    1.3610    9.3770   -8.5350 F   0  0  0  0  0  0  0  0  0  0  0  0
   -0.2130   10.7700   -9.1270 F   0  0  0  0  0  0  0  0  0  0  0  0
    1.8410   11.2260   -9.4540 F   0  0  0  0  0  0  0  0  0  0  0  0
    0.3650   11.0960   -6.0830 C   0  0  0  0  0  0  0  0  0  0  0  0
    1.9910   12.5390   -5.6750 C   0  0  0  0  0  0  0  0  0  0  0  0
    0.9160   11.8890   -5.0670 C   0  0  0  0  0  0  0  0  0  0  0  0
   -0.7630   10.1920   -6.0800 C   0  0  0  0  0  0  0  0  0  0  0  0
    0.5190   12.0550   -3.6490 C   0  0  0  0  0  0  0  0  0  0  0  0
   -0.5820    8.8530   -6.4300 C   0  0  0  0  0  0  0  0  0  0  0  0
   -2.0350   10.6490   -5.7300 C   0  0  0  0  0  0  0  0  0  0  0  0
    1.6230   12.3810   -2.8200 O   0  0  0  0  0  0  0  0  0  0  0  0
    0.0080   10.8580   -3.0750 O   0  0  0  0  0  0  0  0  0  0  0  0
   -0.5070   13.1710   -3.6180 C   0  0  0  0  0  0  0  0  0  0  0  0
   -1.6630    7.9770   -6.4280 C   0  0  0  0  0  0  0  0  0  0  0  0
   -3.1150    9.7730   -5.7320 C   0  0  0  0  0  0  0  0  0  0  0  0
   -2.9280    8.4360   -6.0790 C   0  0  0  0  0  0  0  0  0  0  0  0
  1  2  1  0
  2  3  1  0
  1  4  1  0
  1  5  1  0
  1  6  1  0
  2  7  1  0
  3  8  2  0
  7  9  2  0
  8  9  1  0
  7 10  1  0
  9 11  1  0
 10 12  2  0
 10 13  1  0
 11 14  1  0
 11 15  1  0
 11 16  1  0
 12 17  1  0
 13 18  2  0
 17 19  2  0
 18 19  1  0
M  END
