mac-x0319-diamond-x0592_0_A
     RDKit          3D

 25 26  0  0  0  0  0  0  0  0999 V2000
    0.4570   10.4050   -2.5540 O   0  0  0  0  0  0  0  0  0  0  0  0
    0.7070   11.7470   -2.4860 C   0  0  0  0  0  0  0  0  0  0  0  0
    0.5270   12.3700   -1.3780 N   0  0  0  0  0  0  0  0  0  0  0  0
    1.1890   12.3960   -3.7820 C   0  0  0  0  0  0  0  0  0  0  0  0
    0.7940   13.8060   -1.2460 C   0  0  0  0  0  0  0  0  0  0  0  0
    0.5750   13.7400   -4.1200 C   0  0  0  0  0  0  0  0  0  0  0  0
   -0.4610   14.4890   -0.7330 C   0  0  0  0  0  0  0  0  0  0  0  0
    1.2880   14.9530   -4.0180 C   0  0  0  0  0  0  0  0  0  0  0  0
   -0.7680   13.7910   -4.5450 C   0  0  0  0  0  0  0  0  0  0  0  0
   -1.5130   14.4940   -1.8280 C   0  0  0  0  0  0  0  0  0  0  0  0
    0.6510   16.1600   -4.3300 C   0  0  0  0  0  0  0  0  0  0  0  0
   -1.3840   15.0070   -4.8560 C   0  0  0  0  0  0  0  0  0  0  0  0
    1.2810   17.3630   -4.2410 O   0  0  0  0  0  0  0  0  0  0  0  0
   -2.8940   14.6240   -1.4040 N   0  0  0  0  0  0  0  0  0  0  0  0
   -0.6680   16.1950   -4.7450 C   0  0  0  0  0  0  0  0  0  0  0  0
   -3.3610   14.7770   -0.2260 C   0  0  0  0  0  0  0  0  0  0  0  0
   -2.7730   14.8770    1.0110 N   0  0  0  0  0  0  0  0  0  0  0  0
   -4.8030   14.8400   -0.2430 C   0  0  0  0  0  0  0  0  0  0  0  0
   -5.6630   15.2460   -1.2940 C   0  0  0  0  0  0  0  0  0  0  0  0
   -5.6750   14.5030    0.7700 C   0  0  0  0  0  0  0  0  0  0  0  0
   -6.9570   15.1710   -0.9780 N   0  0  0  0  0  0  0  0  0  0  0  0
   -6.9340   14.7140    0.2900 N   0  0  0  0  0  0  0  0  0  0  0  0
   -8.1780   14.4980    1.0030 C   0  0  0  0  0  0  0  0  0  0  0  0
   -7.9140   14.0790    2.4440 C   0  0  0  0  0  0  0  0  0  0  0  0
   -7.1630   15.0700    3.1510 O   0  0  0  0  0  0  0  0  0  0  0  0
  1  2  1  0
  2  3  2  3
  2  4  1  0
  3  5  1  0
  4  6  1  0
  5  7  1  0
  6  8  2  0
  6  9  1  0
  7 10  1  0
  8 11  1  0
  9 12  2  0
 11 13  1  0
 10 14  1  0
 11 15  2  0
 12 15  1  0
 14 16  2  3
 16 17  1  0
 16 18  1  0
 18 19  1  0
 18 20  2  0
 19 21  2  0
 20 22  1  0
 21 22  1  0
 22 23  1  0
 23 24  1  0
 24 25  1  0
M  END
