mac-x0584-mac-x0344
     RDKit          3D

 31 35  0  0  0  0  0  0  0  0999 V2000
    2.5060   12.7420   -6.0350 O   0  0  0  0  0  0  0  0  0  0  0  0
    1.5270   12.9660   -5.0400 C   0  0  0  0  0  0  0  0  0  0  0  0
    2.2480   13.0690   -3.8350 O   0  0  0  0  0  0  0  0  0  0  0  0
    0.5220   11.7830   -5.1700 C   0  0  0  0  0  0  0  0  0  0  0  0
    0.7220   14.2110   -5.3880 C   0  0  0  0  0  0  0  0  0  0  0  0
    0.3550   10.9850   -4.2440 O   0  0  0  0  0  0  0  0  0  0  0  0
   -0.2170   11.5300   -6.2450 N   0  0  0  0  0  0  0  0  0  0  0  0
   -0.5370   14.2770   -4.5420 C   0  0  1  0  0  0  0  0  0  0  0  0
   -0.1870   14.4100   -3.0500 C   0  0  2  0  0  0  0  0  0  0  0  0
   -1.5700   15.3840   -4.7480 C   0  0  0  0  0  0  0  0  0  0  0  0
   -0.9650   10.4360   -6.6280 C   0  0  0  0  0  0  0  0  0  0  0  0
    0.1300   13.1000   -2.3160 C   0  0  0  0  0  0  0  0  0  0  0  0
   -1.4330   14.8590   -2.4710 N   0  0  0  0  0  0  0  0  0  0  0  0
   -2.4330   15.1720   -3.5080 C   0  0  0  0  0  0  0  0  0  0  0  0
   -0.6910    9.6110   -7.7060 C   0  0  0  0  0  0  0  0  0  0  0  0
   -2.0910   10.1620   -5.8350 C   0  0  0  0  0  0  0  0  0  0  0  0
    1.3060   12.2130   -2.7900 C   0  0  0  0  0  0  0  0  0  0  0  0
   -0.8040   11.8890   -2.6280 C   0  0  0  0  0  0  0  0  0  0  0  0
   -1.6610   14.8230   -1.1210 C   0  0  0  0  0  0  0  0  0  0  0  0
   -1.5200    8.5300   -7.9980 C   0  0  0  0  0  0  0  0  0  0  0  0
   -2.9220    9.0850   -6.1200 C   0  0  0  0  0  0  0  0  0  0  0  0
    0.4210   10.9830   -2.5070 C   0  0  0  0  0  0  0  0  0  0  0  0
   -0.5710   14.6180   -0.2960 N   0  0  0  0  0  0  0  0  0  0  0  0
   -2.8230   14.9850   -0.5060 C   0  0  0  0  0  0  0  0  0  0  0  0
   -2.6380    8.2640   -7.2080 C   0  0  0  0  0  0  0  0  0  0  0  0
   -0.6710   14.5450    1.0560 C   0  0  0  0  0  0  0  0  0  0  0  0
   -2.8650   14.9280    0.9740 C   0  0  0  0  0  0  0  0  0  0  0  0
   -4.1740   15.2330   -0.8740 C   0  0  0  0  0  0  0  0  0  0  0  0
   -1.7550   14.6800    1.7330 N   0  0  0  0  0  0  0  0  0  0  0  0
   -4.0620   15.1400    1.4260 N   0  0  0  0  0  0  0  0  0  0  0  0
   -4.8290   15.3130    0.2830 C   0  0  0  0  0  0  0  0  0  0  0  0
  2  1  1  0
  2  3  1  0
  2  4  1  0
  2  5  1  0
  4  6  2  0
  4  7  1  0
  8  5  1  6
  8  9  1  0
  8 10  1  0
  7 11  1  0
  9 12  1  1
  9 13  1  0
 10 14  1  0
 13 14  1  0
 11 15  2  0
 11 16  1  0
 12 17  1  0
 12 18  1  0
 13 19  1  0
 15 20  1  0
 16 21  2  0
 17 22  1  0
 18 22  1  0
 19 23  1  0
 19 24  2  0
 20 25  2  0
 21 25  1  0
 23 26  1  0
 24 27  1  0
 24 28  1  0
 26 29  2  0
 27 29  1  0
 27 30  2  0
 28 31  2  0
 30 31  1  0
M  END
