mac-x0402-diamond-x0626_0_A
     RDKit          3D

 21 23  0  0  0  0  0  0  0  0999 V2000
   -1.4330   15.9680   -3.4860 Cl  0  0  0  0  0  0  0  0  0  0  0  0
   -2.8060   15.7180   -2.4890 C   0  0  0  0  0  0  0  0  0  0  0  0
   -3.9860   15.3490   -3.1080 C   0  0  0  0  0  0  0  0  0  0  0  0
   -2.7080   15.8850   -1.1020 C   0  0  0  0  0  0  0  0  0  0  0  0
   -3.8570   15.6390   -0.3500 C   0  0  0  0  0  0  0  0  0  0  0  0
   -5.1160   15.1180   -2.3540 C   0  0  0  0  0  0  0  0  0  0  0  0
   -5.0390   15.2500   -0.9780 C   0  0  0  0  0  0  0  0  0  0  0  0
   -4.1160   15.7110    1.3520 S   0  0  0  0  0  0  0  0  0  0  0  0
   -5.6970   15.1500    1.0320 C   0  0  0  0  0  0  0  0  0  0  0  0
   -6.0660   14.9970   -0.1780 N   0  0  0  0  0  0  0  0  0  0  0  0
   -6.5540   14.7800    1.9710 N   0  0  0  0  0  0  0  0  0  0  0  0
   -8.0030   14.9200    1.8230 C   0  0  0  0  0  0  0  0  0  0  0  0
   -6.1370   13.5700    1.5000 C   0  0  0  0  0  0  0  0  0  0  0  0
   -4.8480   13.1430    1.7480 N   0  0  0  0  0  0  0  0  0  0  0  0
   -6.8570   12.9000    0.7570 O   0  0  0  0  0  0  0  0  0  0  0  0
   -3.6430   13.5470    1.1420 C   0  0  0  0  0  0  0  0  0  0  0  0
   -2.5270   14.0740    1.6840 N   0  0  0  0  0  0  0  0  0  0  0  0
   -3.5810   13.3110   -0.5520 S   0  0  0  0  0  0  0  0  0  0  0  0
   -1.9820   13.9340   -0.5860 C   0  0  0  0  0  0  0  0  0  0  0  0
   -1.5810   14.2870    0.6860 C   0  0  0  0  0  0  0  0  0  0  0  0
   -0.2600   14.8440    1.0330 C   0  0  0  0  0  0  0  0  0  0  0  0
  1  2  1  0
  2  3  2  0
  2  4  1  0
  4  5  2  0
  3  6  1  0
  5  7  1  0
  6  7  2  0
  5  8  1  0
  8  9  1  0
  7 10  1  0
  9 10  2  0
  9 11  1  0
 11 12  1  0
 11 13  1  0
 13 14  1  0
 13 15  2  0
 14 16  1  0
 16 17  2  0
 16 18  1  0
 18 19  1  0
 17 20  1  0
 19 20  2  0
 20 21  1  0
M  END
