mac-x0139-mac-x0282
     RDKit          3D

 16 17  0  0  0  0  0  0  0  0999 V2000
   -2.1140   15.2430   -3.3430 C   0  0  0  0  0  0  0  0  0  0  0  0
   -0.9640   15.4180   -2.4200 N   0  0  0  0  0  0  0  0  0  0  0  0
    0.3360   14.9460   -3.0090 C   0  0  0  0  0  0  0  0  0  0  0  0
   -1.1900   15.2370   -1.0260 C   0  0  0  0  0  0  0  0  0  0  0  0
    0.1960   13.5940   -3.7140 C   0  0  0  0  0  0  0  0  0  0  0  0
   -2.4360   15.3230   -0.5090 C   0  0  0  0  0  0  0  0  0  0  0  0
   -0.0980   14.9700   -0.2040 N   0  0  0  0  0  0  0  0  0  0  0  0
    0.8830   12.4890   -2.9490 C   0  0  0  0  0  0  0  0  0  0  0  0
   -2.6090   15.1250    0.9440 C   0  0  0  0  0  0  0  0  0  0  0  0
   -0.3160   14.7980    1.0670 C   0  0  0  0  0  0  0  0  0  0  0  0
   -3.7570   15.5680   -0.9730 C   0  0  0  0  0  0  0  0  0  0  0  0
    1.8180   12.6760   -2.1950 O   0  0  0  0  0  0  0  0  0  0  0  0
    0.3730   11.2550   -3.1610 O   0  0  0  0  0  0  0  0  0  0  0  0
   -1.5230   14.8370    1.6790 N   0  0  0  0  0  0  0  0  0  0  0  0
   -3.8450   15.2610    1.3040 N   0  0  0  0  0  0  0  0  0  0  0  0
   -4.5210   15.5230    0.1240 C   0  0  0  0  0  0  0  0  0  0  0  0
  1  2  1  0
  2  3  1  0
  2  4  1  0
  3  5  1  0
  4  6  2  0
  4  7  1  0
  5  8  1  0
  6  9  1  0
  7 10  2  0
  6 11  1  0
  8 12  2  0
  8 13  1  0
  9 14  1  0
 10 14  1  0
  9 15  2  0
 11 16  2  0
 15 16  1  0
M  END
