mac-x0182-mac-x0375
     RDKit          3D

 15 17  0  0  0  0  0  0  0  0999 V2000
    1.4540   12.1020   -6.3030 N   0  0  0  0  0  0  0  0  0  0  0  0
    1.7100   12.8710   -5.0970 C   0  0  0  0  0  0  0  0  0  0  0  0
    1.0020   12.1560   -3.9690 C   0  0  0  0  0  0  0  0  0  0  0  0
    0.2360   11.7320   -6.5560 C   0  0  0  0  0  0  0  0  0  0  0  0
   -0.9860   12.0850   -5.5720 S   0  0  0  0  0  0  0  0  0  0  0  0
   -0.1860   10.9880   -7.8130 C   0  0  1  0  0  0  0  0  0  0  0  0
   -2.0250   12.7340   -4.7770 O   0  0  0  0  0  0  0  0  0  0  0  0
   -0.1760   11.7900   -4.2170 N   0  0  0  0  0  0  0  0  0  0  0  0
    1.5960   11.9460   -2.7620 O   0  0  0  0  0  0  0  0  0  0  0  0
   -2.0670   11.1130   -6.3920 C   0  0  1  0  0  0  0  0  0  0  0  0
    0.1030    9.5630   -7.8690 C   0  0  0  0  0  0  0  0  0  0  0  0
   -1.6880   11.1580   -7.8470 C   0  0  0  0  0  0  0  0  0  0  0  0
   -2.2260    9.7150   -5.9170 C   0  0  0  0  0  0  0  0  0  0  0  0
   -0.4660    8.5500   -7.2420 C   0  0  0  0  0  0  0  0  0  0  0  0
   -1.5750    8.6330   -6.2650 C   0  0  0  0  0  0  0  0  0  0  0  0
  1  2  1  0
  2  3  1  0
  1  4  2  0
  4  5  1  0
  4  6  1  0
  5  7  2  0
  3  8  2  0
  5  8  1  0
  3  9  1  0
  5 10  1  0
  6 11  1  1
  6 12  1  0
 10 12  1  0
 10 13  1  1
 11 14  2  0
 13 15  2  0
 14 15  1  0
M  END
