mac-x0206-mac-x0231
     RDKit          3D

 26 28  0  0  0  0  0  0  0  0999 V2000
   -3.1920   15.1490   -1.2230 N   0  0  0  0  0  0  0  0  0  0  0  0
   -4.5060   14.9310   -1.5640 C   0  0  0  0  0  0  0  0  0  0  0  0
   -5.0230   14.7220   -2.7670 N   0  0  0  0  0  0  0  0  0  0  0  0
   -5.5570   14.8790   -0.4530 C   0  0  0  0  0  0  0  0  0  0  0  0
   -4.4320   14.6380   -4.1490 C   0  0  0  0  0  0  0  0  0  0  0  0
   -6.9110   14.7070   -0.7800 C   0  0  0  0  0  0  0  0  0  0  0  0
   -5.2320   14.9880    0.9170 C   0  0  0  0  0  0  0  0  0  0  0  0
   -7.2820   14.5960   -2.0910 O   0  0  0  0  0  0  0  0  0  0  0  0
   -7.9110   14.6370    0.1930 C   0  0  0  0  0  0  0  0  0  0  0  0
   -6.2470   14.9210    1.8950 C   0  0  0  0  0  0  0  0  0  0  0  0
   -2.9430   14.5280   -4.2780 C   0  0  0  0  0  0  0  0  0  0  0  0
   -7.5790   14.7430    1.5350 C   0  0  0  0  0  0  0  0  0  0  0  0
   -2.0980   15.6550   -4.3800 C   0  0  0  0  0  0  0  0  0  0  0  0
   -2.3940   13.2520   -4.2890 C   0  0  0  0  0  0  0  0  0  0  0  0
   -0.7090   15.4680   -4.4610 C   0  0  0  0  0  0  0  0  0  0  0  0
   -1.0320   13.0730   -4.3690 C   0  0  0  0  0  0  0  0  0  0  0  0
   -0.1940   14.1770   -4.4400 C   0  0  0  0  0  0  0  0  0  0  0  0
    0.2420   16.5950   -4.5540 C   0  0  0  0  0  0  0  0  0  0  0  0
   -0.1330   17.7570   -4.6910 O   0  0  0  0  0  0  0  0  0  0  0  0
    1.2540   14.0160   -4.4700 C   0  0  0  0  0  0  0  0  0  0  0  0
    1.5690   16.2590   -4.4770 N   0  0  0  0  0  0  0  0  0  0  0  0
    1.7840   12.6180   -4.4150 C   0  0  0  0  0  0  0  0  0  0  0  0
    2.0780   15.0010   -4.4700 N   0  0  0  0  0  0  0  0  0  0  0  0
    1.3070   12.0150   -3.1260 C   0  0  0  0  0  0  0  0  0  0  0  0
    0.5470   10.9120   -3.2840 O   0  0  0  0  0  0  0  0  0  0  0  0
    1.5320   12.4350   -2.0110 O   0  0  0  0  0  0  0  0  0  0  0  0
  1  2  1  0
  2  3  2  3
  2  4  1  0
  3  5  1  0
  4  6  2  0
  4  7  1  0
  6  8  1  0
  6  9  1  0
  7 10  2  0
  5 11  1  0
  9 12  2  0
 10 12  1  0
 11 13  2  0
 11 14  1  0
 13 15  1  0
 14 16  2  0
 15 17  2  0
 16 17  1  0
 15 18  1  0
 18 19  2  0
 17 20  1  0
 18 21  1  0
 20 22  1  0
 20 23  2  0
 21 23  1  0
 22 24  1  0
 24 25  1  0
 24 26  2  0
M  END
