mac-x0139-mac-x0193
     RDKit          3D

 26 28  0  0  0  0  0  0  0  0999 V2000
   -2.3290   15.0470   -3.6130 C   0  0  0  0  0  0  0  0  0  0  0  0
   -1.1960   14.6880   -2.7680 N   0  0  0  0  0  0  0  0  0  0  0  0
    0.0160   14.2830   -3.6090 C   0  0  0  0  0  0  0  0  0  0  0  0
   -1.2810   14.7640   -1.3240 C   0  0  0  0  0  0  0  0  0  0  0  0
   -0.0150   12.7740   -4.1080 C   0  0  2  0  0  0  0  0  0  0  0  0
   -2.4880   14.8810   -0.6830 C   0  0  0  0  0  0  0  0  0  0  0  0
   -0.1030   14.7670   -0.5370 N   0  0  0  0  0  0  0  0  0  0  0  0
    0.8800   11.9840   -3.1530 C   0  0  0  0  0  0  0  0  0  0  0  0
   -0.0220   12.4160   -5.6100 N   0  0  0  0  0  0  0  0  0  0  0  0
   -2.5230   14.9680    0.8040 C   0  0  0  0  0  0  0  0  0  0  0  0
   -0.2200   14.8250    0.7690 C   0  0  0  0  0  0  0  0  0  0  0  0
   -3.8730   14.9770   -1.0230 C   0  0  0  0  0  0  0  0  0  0  0  0
    1.7800   12.4740   -2.4810 O   0  0  0  0  0  0  0  0  0  0  0  0
    0.5900   10.6690   -3.0730 O   0  0  0  0  0  0  0  0  0  0  0  0
    0.9360   11.9310   -6.5180 C   0  0  0  0  0  0  0  0  0  0  0  0
   -1.3700   14.8370    1.4770 N   0  0  0  0  0  0  0  0  0  0  0  0
   -3.7170   15.1620    1.2630 N   0  0  0  0  0  0  0  0  0  0  0  0
   -4.5170   15.1590    0.1360 C   0  0  0  0  0  0  0  0  0  0  0  0
    2.1220   11.9720   -6.2540 O   0  0  0  0  0  0  0  0  0  0  0  0
    0.5640   11.4850   -7.7940 N   0  0  0  0  0  0  0  0  0  0  0  0
    0.2310   10.1740   -8.4550 C   0  0  0  0  0  0  0  0  0  0  0  0
    1.2450    9.0270   -8.1800 C   0  0  0  0  0  0  0  0  0  0  0  0
   -0.1330   10.4240   -9.9460 C   0  0  0  0  0  0  0  0  0  0  0  0
    1.7920    8.1770   -9.3580 C   0  0  0  0  0  0  0  0  0  0  0  0
    0.8660    9.8850  -10.9630 C   0  0  0  0  0  0  0  0  0  0  0  0
    1.1380    8.4170  -10.7120 C   0  0  0  0  0  0  0  0  0  0  0  0
  1  2  1  0
  2  3  1  0
  2  4  1  0
  5  3  1  6
  4  6  2  0
  4  7  1  0
  5  8  1  0
  5  9  1  0
  6 10  1  0
  7 11  2  0
  6 12  1  0
  8 13  2  0
  8 14  1  0
  9 15  1  0
 10 16  1  0
 11 16  1  0
 10 17  2  0
 12 18  2  0
 17 18  1  0
 15 19  2  0
 15 20  1  0
 20 21  1  0
 21 22  1  0
 21 23  1  0
 22 24  1  0
 23 25  1  0
 24 26  1  0
 25 26  1  0
M  END
