mac-x0116-diamond-x0905_0_A
     RDKit          3D

 17 19  0  0  0  0  0  0  0  0999 V2000
   -6.1130   14.6600    1.8470 C   0  0  0  0  0  0  0  0  0  0  0  0
   -4.7100   15.0300    1.7710 N   0  0  0  0  0  0  0  0  0  0  0  0
   -3.9160   14.9600    0.6370 C   0  0  0  0  0  0  0  0  0  0  0  0
   -6.4450   13.2150    1.8020 C   0  0  0  0  0  0  0  0  0  0  0  0
   -6.3310   12.5810    0.5960 O   0  0  0  0  0  0  0  0  0  0  0  0
   -6.8780   12.3390    2.7660 C   0  0  0  0  0  0  0  0  0  0  0  0
   -7.0490   11.1030    2.1190 C   0  0  0  0  0  0  0  0  0  0  0  0
   -6.7010   11.2970    0.8050 C   0  0  0  0  0  0  0  0  0  0  0  0
   -4.5010   15.1140   -0.6300 N   0  0  0  0  0  0  0  0  0  0  0  0
   -2.5870   14.7520    0.6410 C   0  0  0  0  0  0  0  0  0  0  0  0
   -5.9020   15.1310   -0.7900 O   0  0  0  0  0  0  0  0  0  0  0  0
   -3.7550   15.0190   -1.7840 C   0  0  0  0  0  0  0  0  0  0  0  0
   -1.8580   14.6910   -0.6310 C   0  0  0  0  0  0  0  0  0  0  0  0
   -1.6710   14.5710    1.6420 N   0  0  0  0  0  0  0  0  0  0  0  0
   -2.4690   14.8120   -1.8500 N   0  0  0  0  0  0  0  0  0  0  0  0
   -0.5920   14.5170   -0.3980 N   0  0  0  0  0  0  0  0  0  0  0  0
   -0.5550   14.4570    0.9910 C   0  0  0  0  0  0  0  0  0  0  0  0
  1  2  1  0
  2  3  1  0
  1  4  1  0
  4  5  1  0
  4  6  2  0
  6  7  1  0
  5  8  1  0
  7  8  2  0
  3  9  1  0
  3 10  2  0
  9 11  1  0
  9 12  1  0
 10 13  1  0
 10 14  1  0
 12 15  2  0
 13 15  1  0
 13 16  2  0
 14 17  2  0
 16 17  1  0
M  END
