mac-x0212-mac-x0546
     RDKit          3D

 30 32  0  0  0  0  0  0  0  0999 V2000
   -6.6170   12.7370    1.4510 C   0  0  0  0  0  0  0  0  0  0  0  0
   -7.1090   14.4120    1.0960 S   0  0  0  0  0  0  0  0  0  0  0  0
   -7.9870   14.8650    2.1530 O   0  0  0  0  0  0  0  0  0  0  0  0
   -7.4940   14.5200   -0.2930 O   0  0  0  0  0  0  0  0  0  0  0  0
   -5.6360   15.1910    1.3750 N   0  0  0  0  0  0  0  0  0  0  0  0
   -4.7000   15.0140    0.3370 C   0  0  0  0  0  0  0  0  0  0  0  0
   -3.5500   14.3810    0.7160 C   0  0  0  0  0  0  0  0  0  0  0  0
   -4.9170   15.4330   -0.9910 C   0  0  0  0  0  0  0  0  0  0  0  0
   -2.5910   14.1340   -0.2120 C   0  0  0  0  0  0  0  0  0  0  0  0
   -3.9240   15.1760   -1.9510 C   0  0  0  0  0  0  0  0  0  0  0  0
   -2.7640   14.5120   -1.5270 C   0  0  0  0  0  0  0  0  0  0  0  0
   -1.6410   14.1360   -2.3410 C   0  0  0  0  0  0  0  0  0  0  0  0
   -0.5700   13.9740   -1.6610 N   0  0  0  0  0  0  0  0  0  0  0  0
   -1.8980   13.9770   -3.6460 O   0  0  0  0  0  0  0  0  0  0  0  0
    0.7330   13.5560   -2.0660 C   0  0  0  0  0  0  0  0  0  0  0  0
    0.6680   12.3090   -2.9530 C   0  0  0  0  0  0  0  0  0  0  0  0
    0.1490   12.7200   -4.3230 C   0  0  0  0  0  0  0  0  0  0  0  0
    2.0230   11.9810   -3.0880 O   0  0  0  0  0  0  0  0  0  0  0  0
    0.0410   11.1720   -2.3760 O   0  0  0  0  0  0  0  0  0  0  0  0
    0.4010   14.1640   -4.5640 C   0  0  0  0  0  0  0  0  0  0  0  0
   -0.6150   15.2380   -4.4050 C   0  0  2  0  0  0  0  0  0  0  0  0
    1.5340   14.7200   -4.8830 C   0  0  0  0  0  0  0  0  0  0  0  0
   -1.8970   15.2670   -5.1450 C   0  0  0  0  0  0  0  0  0  0  0  0
    0.2550   16.3790   -4.8430 C   0  0  0  0  0  0  0  0  0  0  0  0
    1.4770   16.0780   -5.0710 N   0  0  0  0  0  0  0  0  0  0  0  0
   -2.3880   16.4360   -5.5420 C   0  0  0  0  0  0  0  0  0  0  0  0
   -0.3570   17.7080   -4.9470 C   0  0  0  0  0  0  0  0  0  0  0  0
   -3.5650   16.5900   -6.1990 O   0  0  0  0  0  0  0  0  0  0  0  0
   -1.6610   17.6820   -5.2930 C   0  0  0  0  0  0  0  0  0  0  0  0
   -4.4340   15.4540   -6.1680 C   0  0  0  0  0  0  0  0  0  0  0  0
  1  2  1  0
  2  3  2  0
  2  4  2  0
  2  5  1  0
  5  6  1  0
  6  7  2  0
  6  8  1  0
  7  9  1  0
  8 10  2  0
  9 11  2  0
 10 11  1  0
 11 12  1  0
 12 13  2  3
 12 14  1  0
 13 15  1  0
 15 16  1  0
 16 17  1  0
 16 18  1  0
 16 19  1  0
 17 20  1  0
 20 21  1  0
 20 22  2  0
 21 23  1  6
 21 24  1  0
 22 25  1  0
 24 25  2  0
 23 26  2  0
 24 27  1  0
 26 28  1  0
 26 29  1  0
 27 29  2  0
 28 30  1  0
M  END
