mac-x0588-diamond-x0905_0_A
     RDKit          3D

 17 19  0  0  0  0  0  0  0  0999 V2000
   -4.2730   15.5430    1.4130 N   0  0  0  0  0  0  0  0  0  0  0  0
   -3.7490   14.7990    0.2600 C   0  0  2  0  0  0  0  0  0  0  0  0
   -2.2190   14.5680    0.2560 C   0  0  1  0  0  0  0  0  0  0  0  0
   -4.2640   15.3900   -0.9820 N   0  0  0  0  0  0  0  0  0  0  0  0
   -5.6620   14.9640   -1.1850 O   0  0  0  0  0  0  0  0  0  0  0  0
   -3.4220   15.0270   -2.1510 C   0  0  0  0  0  0  0  0  0  0  0  0
   -1.4880   15.4630   -0.7250 C   0  0  2  0  0  0  0  0  0  0  0  0
   -1.4080   14.8720    1.4390 N   0  0  0  0  0  0  0  0  0  0  0  0
   -2.0110   15.4910   -2.0740 N   0  0  0  0  0  0  0  0  0  0  0  0
   -0.1980   14.8220   -0.5840 N   0  0  0  0  0  0  0  0  0  0  0  0
   -0.0770   14.6570    0.8610 C   0  0  0  0  0  0  0  0  0  0  0  0
   -1.0940   14.9960   -3.1300 C   0  0  0  0  0  0  0  0  0  0  0  0
   -0.7900   15.9550   -4.3040 C   0  0  1  0  0  0  0  0  0  0  0  0
   -1.4910   17.2120   -4.2470 O   0  0  0  0  0  0  0  0  0  0  0  0
    0.6780   16.2930   -4.5720 C   0  0  0  0  0  0  0  0  0  0  0  0
    0.6130   17.6420   -5.2610 C   0  0  0  0  0  0  0  0  0  0  0  0
   -0.8600   18.0200   -5.2440 C   0  0  0  0  0  0  0  0  0  0  0  0
  2  1  1  1
  2  3  1  0
  2  4  1  0
  4  5  1  0
  4  6  1  0
  3  7  1  0
  3  8  1  1
  6  9  1  0
  7  9  1  0
  7 10  1  6
  8 11  1  0
 10 11  1  0
  9 12  1  0
 13 12  1  1
 13 14  1  0
 13 15  1  0
 15 16  1  0
 14 17  1  0
 16 17  1  0
M  END
