mac-x0412-mac-x0361
     RDKit          3D

 14 16  0  0  0  0  0  0  0  0999 V2000
   -7.5540   14.8760    0.0890 N   0  0  0  0  0  0  0  0  0  0  0  0
   -7.0710   15.0110   -1.0920 C   0  0  0  0  0  0  0  0  0  0  0  0
   -7.8670   15.1250   -2.1360 N   0  0  0  0  0  0  0  0  0  0  0  0
   -6.4110   14.8200    0.8620 C   0  0  0  0  0  0  0  0  0  0  0  0
   -5.2750   14.9050    0.1190 C   0  0  0  0  0  0  0  0  0  0  0  0
   -6.4260   14.7050    2.1780 N   0  0  0  0  0  0  0  0  0  0  0  0
   -5.6100   15.0210   -1.1740 C   0  0  0  0  0  0  0  0  0  0  0  0
   -4.0040   14.8730    0.6320 C   0  0  0  0  0  0  0  0  0  0  0  0
   -5.1930   14.6790    2.7390 C   0  0  0  0  0  0  0  0  0  0  0  0
   -4.6380   15.1120   -2.1490 C   0  0  0  0  0  0  0  0  0  0  0  0
   -3.9750   14.7540    2.0350 C   0  0  0  0  0  0  0  0  0  0  0  0
   -2.9740   14.9630   -0.3360 C   0  0  0  0  0  0  0  0  0  0  0  0
   -3.3070   15.0790   -1.7160 C   0  0  0  0  0  0  0  0  0  0  0  0
   -2.3470   15.1670   -2.6970 O   0  0  0  0  0  0  0  0  0  0  0  0
  1  2  2  0
  2  3  1  0
  1  4  1  0
  4  5  1  0
  4  6  2  0
  2  7  1  0
  5  7  2  0
  5  8  1  0
  6  9  1  0
  7 10  1  0
  8 11  1  0
  9 11  2  0
  8 12  2  0
 10 13  2  0
 12 13  1  0
 13 14  1  0
M  END
