mac-x0255-mac-x0373
     RDKit          3D

 28 31  0  0  0  0  0  0  0  0999 V2000
    0.5070   12.8290   -1.6750 O   0  0  0  0  0  0  0  0  0  0  0  0
    0.7360   12.1230   -2.8140 C   0  0  0  0  0  0  0  0  0  0  0  0
    0.4400   10.9470   -2.9710 O   0  0  0  0  0  0  0  0  0  0  0  0
    0.1060   14.1270   -1.8350 C   0  0  0  0  0  0  0  0  0  0  0  0
    1.4280   12.9380   -3.9280 C   0  0  0  0  0  0  0  0  0  0  0  0
    0.7490   15.1170   -1.5270 O   0  0  0  0  0  0  0  0  0  0  0  0
   -1.2920   14.2150   -2.4760 C   0  0  0  0  0  0  0  0  0  0  0  0
    0.6980   14.1990   -4.3670 C   0  0  0  0  0  0  0  0  0  0  0  0
   -1.6910   12.9820   -3.3260 C   0  0  0  0  0  0  0  0  0  0  0  0
   -2.3890   14.6950   -1.5390 C   0  0  0  0  0  0  0  0  0  0  0  0
    1.2060   15.4770   -4.4360 C   0  0  0  0  0  0  0  0  0  0  0  0
   -0.9440   14.1900   -4.8660 S   0  0  0  0  0  0  0  0  0  0  0  0
   -1.0200   12.5790   -4.5100 C   0  0  0  0  0  0  0  0  0  0  0  0
   -2.7850   12.2090   -2.9120 C   0  0  0  0  0  0  0  0  0  0  0  0
   -3.5680   15.2390   -2.0840 C   0  0  0  0  0  0  0  0  0  0  0  0
   -2.2680   14.6170   -0.1420 C   0  0  0  0  0  0  0  0  0  0  0  0
    0.2490   16.4490   -4.8860 C   0  0  0  0  0  0  0  0  0  0  0  0
   -0.9900   15.8720   -5.1470 C   0  0  0  0  0  0  0  0  0  0  0  0
   -1.4270   11.4650   -5.2380 C   0  0  0  0  0  0  0  0  0  0  0  0
   -3.1910   11.0890   -3.6450 C   0  0  0  0  0  0  0  0  0  0  0  0
   -4.5920   15.6860   -1.2510 C   0  0  0  0  0  0  0  0  0  0  0  0
   -3.2940   15.0670    0.6840 C   0  0  0  0  0  0  0  0  0  0  0  0
    0.3790   17.8350   -5.0910 C   0  0  0  0  0  0  0  0  0  0  0  0
   -2.0980   16.6210   -5.5900 C   0  0  0  0  0  0  0  0  0  0  0  0
   -2.5140   10.7190   -4.8040 C   0  0  0  0  0  0  0  0  0  0  0  0
   -4.4500   15.5970    0.1280 C   0  0  0  0  0  0  0  0  0  0  0  0
   -0.7110   18.5820   -5.5380 C   0  0  0  0  0  0  0  0  0  0  0  0
   -1.9310   17.9850   -5.7810 C   0  0  0  0  0  0  0  0  0  0  0  0
  1  2  1  0
  2  3  2  0
  1  4  1  0
  2  5  1  0
  4  6  2  0
  4  7  1  0
  5  8  1  0
  7  9  1  0
  7 10  1  0
  8 11  2  0
  8 12  1  0
  9 13  2  0
  9 14  1  0
 10 15  2  0
 10 16  1  0
 11 17  1  0
 12 18  1  0
 17 18  2  0
 13 19  1  0
 14 20  2  0
 15 21  1  0
 16 22  2  0
 17 23  1  0
 18 24  1  0
 19 25  2  0
 20 25  1  0
 21 26  2  0
 22 26  1  0
 23 27  2  0
 24 28  2  0
 27 28  1  0
M  END
