mac-x0588-diamond-x0962_1_A
     RDKit          3D

 22 25  0  0  0  0  0  0  0  0999 V2000
   -4.4340   14.4400    0.5100 N   0  0  0  0  0  0  0  0  0  0  0  0
   -3.4330   15.4190    0.0760 C   0  0  1  0  0  0  0  0  0  0  0  0
   -2.0810   14.7410    0.3410 C   0  0  1  0  0  0  0  0  0  0  0  0
   -4.2250   13.2580   -0.3680 N   0  0  0  0  0  0  0  0  0  0  0  0
   -5.6190   14.8390    0.5920 N   0  0  0  0  0  0  0  0  0  0  0  0
   -3.7510   15.9130   -1.2730 N   0  0  0  0  0  0  0  0  0  0  0  0
   -6.3570   15.2390   -0.4980 C   0  0  0  0  0  0  0  0  0  0  0  0
   -6.5510   14.3290    1.6310 C   0  0  0  0  0  0  0  0  0  0  0  0
   -3.1740   15.1400   -2.3310 C   0  0  0  0  0  0  0  0  0  0  0  0
   -1.3100   14.4240   -0.9440 C   0  0  1  0  0  0  0  0  0  0  0  0
   -1.1660   15.4580    1.2240 N   0  0  0  0  0  0  0  0  0  0  0  0
   -7.8020   14.2550    0.8690 N   0  0  0  0  0  0  0  0  0  0  0  0
   -7.6290   14.8920   -0.3410 C   0  0  0  0  0  0  0  0  0  0  0  0
   -1.7700   15.1090   -2.1200 N   0  0  0  0  0  0  0  0  0  0  0  0
    0.0260   14.9040   -0.6310 N   0  0  0  0  0  0  0  0  0  0  0  0
    0.1110   14.9440    0.8040 C   0  0  0  0  0  0  0  0  0  0  0  0
   -0.8780   15.1770   -3.2700 C   0  0  0  0  0  0  0  0  0  0  0  0
   -0.4400   16.5610   -3.7960 C   0  0  2  0  0  0  0  0  0  0  0  0
   -1.5110   17.3710   -4.3880 O   0  0  0  0  0  0  0  0  0  0  0  0
    0.6380   16.4630   -4.8640 C   0  0  0  0  0  0  0  0  0  0  0  0
    0.5830   17.8470   -5.4490 C   0  0  0  0  0  0  0  0  0  0  0  0
   -0.9030   18.1550   -5.4390 C   0  0  0  0  0  0  0  0  0  0  0  0
  2  1  1  6
  2  3  1  0
  1  4  2  0
  1  5  1  0
  2  6  1  0
  5  7  1  0
  5  8  1  0
  6  9  1  0
  3 10  1  0
  3 11  1  1
  8 12  1  0
  7 13  2  0
 12 13  1  0
  9 14  1  0
 10 14  1  0
 10 15  1  1
 11 16  1  0
 15 16  1  0
 14 17  1  0
 18 17  1  6
 18 19  1  0
 18 20  1  0
 20 21  1  0
 19 22  1  0
 21 22  1  0
M  CHG  2   1   1   4  -1
M  END
