mac-x0394-diamond-x0864_0_A
     RDKit          3D

 20 21  0  0  0  0  0  0  0  0999 V2000
    1.0290   18.1570   -4.8340 Cl  0  0  0  0  0  0  0  0  0  0  0  0
    0.1330   16.7100   -4.8480 C   0  0  0  0  0  0  0  0  0  0  0  0
   -1.1840   16.8290   -5.2590 C   0  0  0  0  0  0  0  0  0  0  0  0
    0.6770   15.4600   -4.4630 C   0  0  0  0  0  0  0  0  0  0  0  0
   -0.1640   14.3180   -4.5020 C   0  0  0  0  0  0  0  0  0  0  0  0
   -1.9710   15.7000   -5.2920 C   0  0  0  0  0  0  0  0  0  0  0  0
   -3.5990   15.7550   -5.7990 Cl  0  0  0  0  0  0  0  0  0  0  0  0
    0.0930   12.8630   -4.1420 C   0  0  2  0  0  0  0  0  0  0  0  0
   -1.4730   14.4810   -4.9230 C   0  0  0  0  0  0  0  0  0  0  0  0
    0.9230   12.4320   -2.9420 C   0  0  0  0  0  0  0  0  0  0  0  0
   -0.2300   11.8330   -5.1750 N   0  0  0  0  0  0  0  0  0  0  0  0
    0.5960   11.1880   -2.5350 O   0  0  0  0  0  0  0  0  0  0  0  0
    1.7630   13.0690   -2.3390 O   0  0  0  0  0  0  0  0  0  0  0  0
   -1.2440   10.9710   -4.8230 C   0  0  0  0  0  0  0  0  0  0  0  0
    0.5980   11.5820   -6.2770 C   0  0  0  0  0  0  0  0  0  0  0  0
    1.7040   12.0890   -6.4250 O   0  0  0  0  0  0  0  0  0  0  0  0
   -1.8020   10.1430   -5.6920 C   0  0  0  0  0  0  0  0  0  0  0  0
    0.0690   10.5990   -7.3220 C   0  0  0  0  0  0  0  0  0  0  0  0
   -1.3540   10.1070   -7.1040 C   0  0  1  0  0  0  0  0  0  0  0  0
   -1.5770    8.2550   -7.6890 Br  0  0  0  0  0  0  0  0  0  0  0  0
  1  2  1  0
  2  3  2  0
  2  4  1  0
  4  5  2  0
  3  6  1  0
  6  7  1  0
  5  8  1  0
  5  9  1  0
  6  9  2  0
  8 10  1  6
  8 11  1  0
 10 12  1  0
 10 13  2  0
 11 14  1  0
 11 15  1  0
 15 16  2  0
 14 17  2  0
 15 18  1  0
 17 19  1  0
 18 19  1  0
 19 20  1  1
M  END
