mac-x0204-mac-x0433
     RDKit          3D

 21 22  0  0  0  0  0  0  0  0999 V2000
    1.0310   13.0020   -2.2070 O   0  0  0  0  0  0  0  0  0  0  0  0
    0.4510   14.1030   -2.7170 C   0  0  0  0  0  0  0  0  0  0  0  0
    0.7430   15.2360   -2.3900 O   0  0  0  0  0  0  0  0  0  0  0  0
   -0.5810   13.7940   -3.7130 C   0  0  0  0  0  0  0  0  0  0  0  0
   -1.2020   14.8230   -4.4050 C   0  0  0  0  0  0  0  0  0  0  0  0
   -0.9550   12.4850   -3.9790 C   0  0  0  0  0  0  0  0  0  0  0  0
   -2.1710   14.4770   -5.3260 C   0  0  0  0  0  0  0  0  0  0  0  0
   -1.8970   12.1350   -4.8800 N   0  0  0  0  0  0  0  0  0  0  0  0
   -2.8910   15.2900   -6.0660 O   0  0  0  0  0  0  0  0  0  0  0  0
   -2.4810   13.1530   -5.5310 C   0  0  0  0  0  0  0  0  0  0  0  0
   -3.9820   15.6630   -5.2810 C   0  0  0  0  0  0  0  0  0  0  0  0
   -4.4850   14.5750   -4.2710 C   0  0  0  0  0  0  0  0  0  0  0  0
   -5.7070   14.9360   -3.4840 N   0  0  0  0  0  0  0  0  0  0  0  0
   -5.6650   14.9380   -2.0760 C   0  0  0  0  0  0  0  0  0  0  0  0
   -4.4630   15.0880   -1.4980 N   0  0  0  0  0  0  0  0  0  0  0  0
   -6.8050   14.7800   -1.3740 N   0  0  0  0  0  0  0  0  0  0  0  0
   -4.4110   15.0740   -0.1420 C   0  0  0  0  0  0  0  0  0  0  0  0
   -6.7240   14.7700   -0.0270 C   0  0  0  0  0  0  0  0  0  0  0  0
   -3.0830   15.2280    0.5260 C   0  0  0  0  0  0  0  0  0  0  0  0
   -7.9970   14.5910    0.7470 C   0  0  0  0  0  0  0  0  0  0  0  0
   -5.5310   14.9140    0.6400 C   0  0  0  0  0  0  0  0  0  0  0  0
  1  2  1  0
  2  3  2  0
  2  4  1  0
  4  5  2  0
  4  6  1  0
  5  7  1  0
  6  8  2  0
  7  9  1  0
  7 10  2  0
  8 10  1  0
  9 11  1  0
 11 12  1  0
 12 13  1  0
 13 14  1  0
 14 15  2  0
 14 16  1  0
 15 17  1  0
 16 18  2  0
 17 19  1  0
 18 20  1  0
 17 21  2  0
 18 21  1  0
M  END
