mac-x0305-mac-x0124
     RDKit          3D

 15 16  0  0  0  0  0  0  0  0999 V2000
    0.2150   12.1350   -1.2050 O   0  0  0  0  0  0  0  0  0  0  0  0
   -0.1520   13.3860   -1.5030 C   0  0  0  0  0  0  0  0  0  0  0  0
    0.1730   13.8600   -2.5930 O   0  0  0  0  0  0  0  0  0  0  0  0
   -0.9640   14.1920   -0.4760 C   0  0  1  0  0  0  0  0  0  0  0  0
   -0.6820   13.9030    1.0080 C   0  0  0  0  0  0  0  0  0  0  0  0
   -0.3280   15.4800   -0.5600 N   0  0  0  0  0  0  0  0  0  0  0  0
   -2.4610   14.1900   -0.6870 C   0  0  1  0  0  0  0  0  0  0  0  0
    0.1600   12.8430    1.2580 O   0  0  0  0  0  0  0  0  0  0  0  0
   -3.1050   15.0710    0.4460 C   0  0  2  0  0  0  0  0  0  0  0  0
   -2.8740   14.8470   -2.0000 N   0  0  0  0  0  0  0  0  0  0  0  0
   -0.9550   16.2410    0.1850 C   0  0  0  0  0  0  0  0  0  0  0  0
   -3.8260   14.3210    1.4460 N   0  0  0  0  0  0  0  0  0  0  0  0
   -4.1550   15.7900   -0.3800 C   0  0  0  0  0  0  0  0  0  0  0  0
   -3.9740   15.6130   -1.6940 C   0  0  0  0  0  0  0  0  0  0  0  0
   -2.0960   15.9990    0.9020 N   0  0  0  0  0  0  0  0  0  0  0  0
  1  2  1  0
  2  3  2  0
  4  2  1  0
  4  5  1  1
  4  6  1  0
  4  7  1  0
  5  8  1  0
  7  9  1  0
  7 10  1  6
  6 11  2  0
  9 12  1  1
  9 13  1  0
 10 14  1  0
 13 14  2  0
  9 15  1  0
 11 15  1  0
M  END
