mac-x0305-diamond-x1012_0_A
     RDKit          3D

 20 21  0  0  0  0  0  0  0  0999 V2000
    0.2070   12.9920   -0.1340 O   0  0  0  0  0  0  0  0  0  0  0  0
   -0.2790   13.7580   -1.1950 C   0  0  0  0  0  0  0  0  0  0  0  0
    0.5290   13.6920   -2.2850 C   0  0  0  0  0  0  0  0  0  0  0  0
   -1.5690   14.4250   -0.8480 C   0  0  0  0  0  0  0  0  0  0  0  0
    1.6120   12.8100   -2.0670 O   0  0  0  0  0  0  0  0  0  0  0  0
   -1.9220   14.7750    0.4840 C   0  0  0  0  0  0  0  0  0  0  0  0
   -2.4200   14.6700   -1.8820 N   0  0  0  0  0  0  0  0  0  0  0  0
    0.5930   14.2610   -3.7020 C   0  0  1  0  0  0  0  0  0  0  0  0
   -1.1230   14.5700    1.5940 O   0  0  0  0  0  0  0  0  0  0  0  0
   -3.1610   15.3700    0.7250 C   0  0  0  0  0  0  0  0  0  0  0  0
   -3.6120   15.2520   -1.6080 C   0  0  0  0  0  0  0  0  0  0  0  0
   -0.1670   13.3460   -4.6230 C   0  0  0  0  0  0  0  0  0  0  0  0
    0.3060   15.7270   -4.0520 C   0  0  0  0  0  0  0  0  0  0  0  0
   -4.0240   15.6150   -0.3410 C   0  0  0  0  0  0  0  0  0  0  0  0
   -1.6350   13.5570   -4.3750 C   0  0  0  0  0  0  0  0  0  0  0  0
   -0.9600   16.0000   -4.7340 N   0  0  0  0  0  0  0  0  0  0  0  0
   -1.2560   17.3400   -4.8210 C   0  0  0  0  0  0  0  0  0  0  0  0
   -2.0410   14.9990   -4.6730 C   0  0  0  0  0  0  0  0  0  0  0  0
   -0.2210   18.2050   -4.7780 N   0  0  0  0  0  0  0  0  0  0  0  0
   -2.3800   17.7970   -4.9130 O   0  0  0  0  0  0  0  0  0  0  0  0
  1  2  1  0
  2  3  2  3
  2  4  1  0
  3  5  1  0
  4  6  2  0
  4  7  1  0
  8  3  1  1
  6  9  1  0
  6 10  1  0
  7 11  2  0
  8 12  1  0
  8 13  1  0
 10 14  2  0
 11 14  1  0
 12 15  1  0
 13 16  1  0
 16 17  1  0
 15 18  1  0
 16 18  1  0
 17 19  1  0
 17 20  2  0
M  END
