mac-x0228-mac-x0190
     RDKit          3D

 14 15  0  0  0  0  0  0  0  0999 V2000
   -1.1610   14.5100   -1.6630 O   0  0  0  0  0  0  0  0  0  0  0  0
   -2.1230   14.7270   -2.5810 C   0  0  0  0  0  0  0  0  0  0  0  0
   -1.9000   14.8320   -3.7760 O   0  0  0  0  0  0  0  0  0  0  0  0
   -3.4900   14.8240   -2.0010 C   0  0  0  0  0  0  0  0  0  0  0  0
   -3.7580   14.5430   -0.6460 C   0  0  0  0  0  0  0  0  0  0  0  0
   -4.5250   15.2100   -2.8660 C   0  0  0  0  0  0  0  0  0  0  0  0
   -5.0810   14.6550   -0.2130 C   0  0  0  0  0  0  0  0  0  0  0  0
   -5.8440   15.3180   -2.4030 C   0  0  0  0  0  0  0  0  0  0  0  0
   -6.0900   15.0390   -1.0810 C   0  0  0  0  0  0  0  0  0  0  0  0
   -5.7000   14.4190    1.1190 C   0  0  0  0  0  0  0  0  0  0  0  0
   -7.3270   15.0920   -0.4740 O   0  0  0  0  0  0  0  0  0  0  0  0
   -7.1200   14.1300    0.5930 C   0  0  2  0  0  0  0  0  0  0  0  0
   -8.2730   14.1330    1.6180 C   0  0  0  0  0  0  0  0  0  0  0  0
   -8.7370   15.4330    1.9690 O   0  0  0  0  0  0  0  0  0  0  0  0
  1  2  1  0
  2  3  2  0
  2  4  1  0
  4  5  2  0
  4  6  1  0
  5  7  1  0
  6  8  2  0
  7  9  2  0
  8  9  1  0
  7 10  1  0
  9 11  1  0
 10 12  1  0
 11 12  1  0
 12 13  1  1
 13 14  1  0
M  END
