mac-x0321-mac-x0572
     RDKit          3D

 18 19  0  0  0  0  0  0  0  0999 V2000
   -4.2990   15.5650    1.6140 Cl  0  0  0  0  0  0  0  0  0  0  0  0
   -4.7750   15.6190   -0.1220 C   0  0  1  0  0  0  0  0  0  0  0  0
   -3.4500   15.4550   -0.8800 C   0  0  0  0  0  0  0  0  0  0  0  0
   -5.8420   14.5690   -0.5170 C   0  0  2  0  0  0  0  0  0  0  0  0
   -3.2810   14.2970   -1.8430 C   0  0  2  0  0  0  0  0  0  0  0  0
   -5.7040   14.3050   -2.0130 C   0  0  0  0  0  0  0  0  0  0  0  0
   -7.3130   14.9990   -0.4160 C   0  0  0  0  0  0  0  0  0  0  0  0
   -5.6410   13.3580    0.4340 C   0  0  0  0  0  0  0  0  0  0  0  0
   -2.0520   14.5070   -2.7360 C   0  0  0  0  0  0  0  0  0  0  0  0
   -7.9030   15.4200   -1.4050 O   0  0  0  0  0  0  0  0  0  0  0  0
   -4.5340   14.1830   -2.6240 C   0  0  0  0  0  0  0  0  0  0  0  0
   -8.0990   14.8600    0.8840 C   0  0  1  0  0  0  0  0  0  0  0  0
   -6.2870   13.4100    1.7670 N   0  0  0  0  0  0  0  0  0  0  0  0
   -0.9060   14.6090   -2.0280 O   0  0  0  0  0  0  0  0  0  0  0  0
   -2.0160   14.5890   -3.9540 O   0  0  0  0  0  0  0  0  0  0  0  0
   -9.1400   13.9060    0.7610 O   0  0  0  0  0  0  0  0  0  0  0  0
   -7.1330   14.5650    2.0350 C   0  0  2  0  0  0  0  0  0  0  0  0
   -7.8710   14.3670    3.3590 C   0  0  0  0  0  0  0  0  0  0  0  0
  2  1  1  1
  2  3  1  0
  2  4  1  0
  3  5  1  0
  4  6  1  6
  4  7  1  0
  4  8  1  0
  5  9  1  6
  7 10  2  0
  5 11  1  0
  6 11  2  0
  7 12  1  0
  8 13  1  0
  9 14  1  0
  9 15  2  0
 12 16  1  6
 12 17  1  0
 13 17  1  0
 17 18  1  1
M  END
