mac-x0124-mac-x0412
     RDKit          3D

 21 24  0  0  0  0  0  0  0  0999 V2000
    0.3330   15.6860   -2.9750 C   0  0  0  0  0  0  0  0  0  0  0  0
   -0.8850   15.6020   -2.2120 N   0  0  0  0  0  0  0  0  0  0  0  0
   -2.1320   15.7880   -2.7260 C   0  0  0  0  0  0  0  0  0  0  0  0
   -0.9610   15.3210   -0.8660 C   0  0  0  0  0  0  0  0  0  0  0  0
   -3.0250   15.6150   -1.6980 C   0  0  0  0  0  0  0  0  0  0  0  0
   -2.2880   15.3090   -0.5200 C   0  0  0  0  0  0  0  0  0  0  0  0
    0.0520   15.0910   -0.0380 N   0  0  0  0  0  0  0  0  0  0  0  0
   -2.6080   15.0100    0.8050 C   0  0  0  0  0  0  0  0  0  0  0  0
   -0.3700   14.8330    1.2240 C   0  0  0  0  0  0  0  0  0  0  0  0
   -1.6410   14.7760    1.7120 N   0  0  0  0  0  0  0  0  0  0  0  0
   -4.0550   14.9470    0.9470 C   0  0  0  0  0  0  0  0  0  0  0  0
   -4.5340   14.5480   -0.1820 C   0  0  0  0  0  0  0  0  0  0  0  0
   -5.0520   15.1630    2.0130 C   0  0  0  0  0  0  0  0  0  0  0  0
   -5.9640   14.2810   -0.5080 C   0  0  1  0  0  0  0  0  0  0  0  0
   -6.3570   15.0380    1.8660 N   0  0  0  0  0  0  0  0  0  0  0  0
   -3.6100   14.3190   -1.2620 C   0  0  0  0  0  0  0  0  0  0  0  0
   -6.9070   14.7370    0.6100 C   0  0  0  0  0  0  0  0  0  0  0  0
   -3.9850   14.4530   -2.5240 C   0  0  0  0  0  0  0  0  0  0  0  0
   -6.2800   14.7730   -1.8980 C   0  0  0  0  0  0  0  0  0  0  0  0
   -8.1130   14.8480    0.3890 O   0  0  0  0  0  0  0  0  0  0  0  0
   -5.3260   14.8340   -2.8370 C   0  0  0  0  0  0  0  0  0  0  0  0
  1  2  1  0
  2  3  1  0
  2  4  1  0
  3  5  2  0
  4  6  2  0
  5  6  1  0
  4  7  1  0
  6  8  1  0
  7  9  2  0
  8 10  2  0
  9 10  1  0
  8 11  1  0
 11 12  2  0
 11 13  1  0
 12 14  1  0
 13 15  2  0
 12 16  1  0
 14 17  1  0
 15 17  1  0
 16 18  2  0
 14 19  1  6
 17 20  2  0
 18 21  1  0
 19 21  2  0
M  END
