mac-x0437-mac-x0306
     RDKit          3D

 28 31  0  0  0  0  0  0  0  0999 V2000
    1.7310   12.8740   -2.1270 O   0  0  0  0  0  0  0  0  0  0  0  0
    1.2540   12.2670   -3.2250 C   0  0  0  0  0  0  0  0  0  0  0  0
    0.6070   11.2310   -3.1620 O   0  0  0  0  0  0  0  0  0  0  0  0
    1.5800   12.9710   -4.5220 C   0  0  0  0  0  0  0  0  0  0  0  0
    0.2980   13.2920   -5.2940 C   0  0  2  0  0  0  0  0  0  0  0  0
   -0.4180   14.5890   -4.7750 C   0  0  0  0  0  0  0  0  0  0  0  0
   -0.5150   12.0930   -5.5680 N   0  0  0  0  0  0  0  0  0  0  0  0
   -1.8340   14.5160   -4.1780 C   0  0  0  0  0  0  0  0  0  0  0  0
   -1.6680   11.7520   -4.9030 C   0  0  0  0  0  0  0  0  0  0  0  0
   -0.2840   11.1030   -6.5080 C   0  0  0  0  0  0  0  0  0  0  0  0
   -1.8170   14.2240   -2.6660 C   0  0  0  0  0  0  0  0  0  0  0  0
   -2.1830   10.6270   -5.3440 N   0  0  0  0  0  0  0  0  0  0  0  0
   -1.3420   10.2070   -6.3350 C   0  0  0  0  0  0  0  0  0  0  0  0
    0.7060   10.8760   -7.4740 C   0  0  0  0  0  0  0  0  0  0  0  0
   -1.4240    9.0570   -7.1340 C   0  0  0  0  0  0  0  0  0  0  0  0
    0.6100    9.7240   -8.2630 C   0  0  0  0  0  0  0  0  0  0  0  0
   -2.9610   14.8520   -1.9580 N   0  0  0  0  0  0  0  0  0  0  0  0
   -0.4390    8.8240   -8.0990 C   0  0  0  0  0  0  0  0  0  0  0  0
   -4.2210   14.9220   -2.5650 C   0  0  0  0  0  0  0  0  0  0  0  0
   -2.9430   14.7570   -0.5650 C   0  0  0  0  0  0  0  0  0  0  0  0
   -5.3520   15.1770   -1.8860 C   0  0  0  0  0  0  0  0  0  0  0  0
   -3.9990   15.0010    0.2170 C   0  0  0  0  0  0  0  0  0  0  0  0
   -5.3190   15.4200   -0.3900 C   0  0  0  0  0  0  0  0  0  0  0  0
   -6.5380   14.8940    0.3440 C   0  0  0  0  0  0  0  0  0  0  0  0
   -6.5210   14.5160    1.6770 N   0  0  0  0  0  0  0  0  0  0  0  0
   -7.7530   14.7400   -0.1510 N   0  0  0  0  0  0  0  0  0  0  0  0
   -8.5230   14.2650    0.8730 C   0  0  0  0  0  0  0  0  0  0  0  0
   -7.7790   14.1220    2.0150 C   0  0  0  0  0  0  0  0  0  0  0  0
  1  2  1  0
  2  3  2  0
  2  4  1  0
  5  4  1  1
  5  6  1  0
  5  7  1  0
  6  8  1  0
  7  9  1  0
  7 10  1  0
  8 11  1  0
  9 12  2  0
 10 13  2  0
 12 13  1  0
 10 14  1  0
 13 15  1  0
 14 16  2  0
 11 17  1  0
 15 18  2  0
 16 18  1  0
 17 19  1  0
 17 20  1  0
 19 21  2  0
 20 22  2  0
 21 23  1  0
 22 23  1  0
 23 24  1  0
 24 25  1  0
 24 26  2  0
 26 27  1  0
 25 28  1  0
 27 28  2  0
M  END
