mac-x0341-diamond-x0128_0_A
     RDKit          3D

 21 23  0  0  0  0  0  0  0  0999 V2000
   -6.9400   14.4370    2.3820 N   0  0  0  0  0  0  0  0  0  0  0  0
   -7.9060   15.2160    2.9840 C   0  0  0  0  0  0  0  0  0  0  0  0
   -8.8180   15.6760    2.3000 O   0  0  0  0  0  0  0  0  0  0  0  0
   -6.1500   14.6210    1.2640 C   0  0  0  0  0  0  0  0  0  0  0  0
   -7.6970   15.3680    4.3250 N   0  0  0  0  0  0  0  0  0  0  0  0
   -6.7770   14.7820    0.0550 N   0  0  0  0  0  0  0  0  0  0  0  0
   -4.8670   14.6130    1.3970 N   0  0  0  0  0  0  0  0  0  0  0  0
   -6.0730   15.0240   -1.1080 C   0  0  0  0  0  0  0  0  0  0  0  0
   -4.0670   14.7390    0.2600 C   0  0  0  0  0  0  0  0  0  0  0  0
   -8.4700   16.0720    5.2750 C   0  0  0  0  0  0  0  0  0  0  0  0
   -6.6300   15.2740   -2.1660 O   0  0  0  0  0  0  0  0  0  0  0  0
   -4.6070   14.9410   -1.0060 C   0  0  0  0  0  0  0  0  0  0  0  0
   -2.6830   14.6420    0.4020 C   0  0  0  0  0  0  0  0  0  0  0  0
   -9.1530   17.2200    4.8670 C   0  0  0  0  0  0  0  0  0  0  0  0
   -8.6100   15.7090    6.6110 C   0  0  0  0  0  0  0  0  0  0  0  0
   -1.8560   14.7450   -0.7180 C   0  0  0  0  0  0  0  0  0  0  0  0
   -3.7940   15.0510   -2.1340 C   0  0  0  0  0  0  0  0  0  0  0  0
   -9.9310   17.9890    5.6650 N   0  0  0  0  0  0  0  0  0  0  0  0
   -9.4050   16.4810    7.4630 C   0  0  0  0  0  0  0  0  0  0  0  0
   -2.4140   14.9500   -1.9840 C   0  0  0  0  0  0  0  0  0  0  0  0
  -10.0390   17.6020    6.9480 C   0  0  0  0  0  0  0  0  0  0  0  0
  1  2  1  0
  2  3  2  0
  1  4  1  0
  2  5  1  0
  4  6  1  0
  4  7  2  0
  6  8  1  0
  7  9  1  0
  5 10  1  0
  8 11  2  0
  8 12  1  0
  9 12  2  0
  9 13  1  0
 10 14  2  0
 10 15  1  0
 13 16  2  0
 12 17  1  0
 14 18  1  0
 15 19  2  0
 16 20  1  0
 17 20  2  0
 18 21  2  0
 19 21  1  0
M  END
