mac-x0333-mac-x0404
     RDKit          3D

 26 29  0  0  0  0  0  0  0  0999 V2000
   -1.7570   15.0150   -2.2990 O   0  0  0  0  0  0  0  0  0  0  0  0
   -2.9260   15.0030   -1.6150 C   0  0  0  0  0  0  0  0  0  0  0  0
   -2.8540   15.0150   -0.2150 C   0  0  0  0  0  0  0  0  0  0  0  0
   -4.1070   14.9800   -2.3530 C   0  0  0  0  0  0  0  0  0  0  0  0
   -3.9360   14.9590   -3.9090 C   0  0  0  0  0  0  0  0  0  0  0  0
   -5.2820   14.9690   -1.5250 C   0  0  0  0  0  0  0  0  0  0  0  0
   -3.9990   15.0070    0.5450 C   0  0  0  0  0  0  0  0  0  0  0  0
   -5.1930   14.9820   -0.1270 C   0  0  0  0  0  0  0  0  0  0  0  0
   -6.5980   14.9410   -1.8910 O   0  0  0  0  0  0  0  0  0  0  0  0
   -2.4520   14.9480   -4.2950 C   0  0  0  0  0  0  0  0  0  0  0  0
   -6.3960   14.9640    0.5070 O   0  0  0  0  0  0  0  0  0  0  0  0
   -7.2750   14.8260   -0.6130 C   0  0  0  0  0  0  0  0  0  0  0  0
   -1.5160   15.9980   -4.7240 C   0  0  0  0  0  0  0  0  0  0  0  0
   -1.9800   13.6550   -4.1610 C   0  0  0  0  0  0  0  0  0  0  0  0
   -0.1540   15.6250   -4.9310 C   0  0  0  0  0  0  0  0  0  0  0  0
   -0.6770   13.3220   -4.3800 C   0  0  0  0  0  0  0  0  0  0  0  0
   -1.7940   17.3710   -4.9530 C   0  0  0  0  0  0  0  0  0  0  0  0
    0.2370   14.2870   -4.7430 C   0  0  0  0  0  0  0  0  0  0  0  0
   -0.8280   18.3130   -5.3410 C   0  0  0  0  0  0  0  0  0  0  0  0
    0.8030   16.5910   -5.3160 C   0  0  0  0  0  0  0  0  0  0  0  0
    1.5490   13.9920   -4.9290 O   0  0  0  0  0  0  0  0  0  0  0  0
    0.4840   17.9210   -5.5210 C   0  0  0  0  0  0  0  0  0  0  0  0
    1.9800   12.7200   -4.4730 C   0  0  0  0  0  0  0  0  0  0  0  0
    1.2750   12.2170   -3.2050 C   0  0  0  0  0  0  0  0  0  0  0  0
    1.4070   12.9840   -2.1070 O   0  0  0  0  0  0  0  0  0  0  0  0
    0.6260   11.1790   -3.1200 O   0  0  0  0  0  0  0  0  0  0  0  0
  1  2  1  0
  2  3  2  0
  2  4  1  0
  4  5  1  0
  4  6  2  0
  3  7  1  0
  6  8  1  0
  7  8  2  0
  6  9  1  0
  5 10  1  0
  8 11  1  0
  9 12  1  0
 11 12  1  0
 10 13  1  0
 10 14  2  0
 13 15  2  0
 14 16  1  0
 13 17  1  0
 15 18  1  0
 16 18  2  0
 17 19  2  0
 15 20  1  0
 18 21  1  0
 19 22  1  0
 20 22  2  0
 21 23  1  0
 23 24  1  0
 24 25  1  0
 24 26  2  0
M  END
