mac-x0584-diamond-x0844_0_A
     RDKit          3D

 20 23  0  0  0  0  0  0  0  0999 V2000
   -5.9560   14.9670    0.2320 O   0  0  0  0  0  0  0  0  0  0  0  0
   -4.7150   14.9510    0.2330 C   0  0  0  0  0  0  0  0  0  0  0  0
   -3.8660   14.9400    1.3180 N   0  0  0  0  0  0  0  0  0  0  0  0
   -3.8800   14.8970   -0.9940 C   0  0  0  0  0  0  0  0  0  0  0  0
   -4.6170   14.8810   -2.6550 Br  0  0  0  0  0  0  0  0  0  0  0  0
   -2.6850   14.8670    0.8110 C   0  0  0  0  0  0  0  0  0  0  0  0
   -2.6070   14.8640   -0.6240 C   0  0  0  0  0  0  0  0  0  0  0  0
   -1.5390   14.7780    1.5230 N   0  0  0  0  0  0  0  0  0  0  0  0
   -1.2850   14.8280   -1.2670 C   0  0  0  0  0  0  0  0  0  0  0  0
   -1.1210   14.9020   -2.6520 N   0  0  0  0  0  0  0  0  0  0  0  0
   -0.2450   14.7550   -0.4850 N   0  0  0  0  0  0  0  0  0  0  0  0
   -0.4200   14.7310    0.8780 C   0  0  0  0  0  0  0  0  0  0  0  0
    0.1730   14.9190   -3.3480 C   0  0  1  0  0  0  0  0  0  0  0  0
   -2.2410   14.9630   -3.5900 C   0  0  0  0  0  0  0  0  0  0  0  0
    0.6510   13.4910   -3.2940 C   0  0  0  0  0  0  0  0  0  0  0  0
   -0.1460   15.3560   -4.7920 C   0  0  0  0  0  0  0  0  0  0  0  0
   -1.6620   15.2750   -4.9610 C   0  0  0  0  0  0  0  0  0  0  0  0
    1.5640   12.8670   -4.3810 C   0  0  0  0  0  0  0  0  0  0  0  0
   -0.4330   12.5720   -3.8570 C   0  0  0  0  0  0  0  0  0  0  0  0
    0.6650   11.6190   -4.2110 C   0  0  0  0  0  0  0  0  0  0  0  0
  1  2  2  0
  2  3  1  0
  2  4  1  0
  4  5  1  0
  3  6  2  0
  4  7  2  0
  6  7  1  0
  6  8  1  0
  7  9  1  0
  9 10  1  0
  9 11  2  0
  8 12  2  0
 11 12  1  0
 10 13  1  0
 10 14  1  0
 13 15  1  6
 13 16  1  0
 14 17  1  0
 16 17  1  0
 15 18  1  0
 15 19  1  0
 18 20  1  0
 19 20  1  0
M  END
