mac-x0436-mac-x0212
     RDKit          3D

 31 33  0  0  0  0  0  0  0  0999 V2000
    0.6150   11.1620   -3.1190 O   0  0  0  0  0  0  0  0  0  0  0  0
    1.2990   12.3220   -3.0660 C   0  0  0  0  0  0  0  0  0  0  0  0
    1.5920   12.7960   -1.9850 O   0  0  0  0  0  0  0  0  0  0  0  0
    1.5930   12.9100   -4.4240 C   0  0  0  0  0  0  0  0  0  0  0  0
    0.3200   13.1930   -5.2250 C   0  0  0  0  0  0  0  0  0  0  0  0
   -0.4280   11.9170   -5.5790 C   0  0  0  0  0  0  0  0  0  0  0  0
   -1.7300   11.4960   -4.8250 C   0  0  0  0  0  0  0  0  0  0  0  0
    0.0420   11.1830   -6.5470 N   0  0  0  0  0  0  0  0  0  0  0  0
   -2.0020   12.0360   -3.6870 N   0  0  0  0  0  0  0  0  0  0  0  0
   -2.5010   10.5520   -5.4530 N   0  0  0  0  0  0  0  0  0  0  0  0
   -0.6450   10.0100   -6.9090 C   0  0  0  0  0  0  0  0  0  0  0  0
   -1.1080   13.0220   -3.0870 C   0  0  0  0  0  0  0  0  0  0  0  0
   -1.9060    9.6860   -6.3720 C   0  0  0  0  0  0  0  0  0  0  0  0
   -0.0510    9.1510   -7.8300 C   0  0  0  0  0  0  0  0  0  0  0  0
   -1.6830   14.4490   -2.9670 C   0  0  0  0  0  0  0  0  0  0  0  0
   -0.6990    7.9780   -8.2200 C   0  0  0  0  0  0  0  0  0  0  0  0
   -2.5500    8.5090   -6.7630 C   0  0  0  0  0  0  0  0  0  0  0  0
   -0.5300   15.2650   -2.7910 O   0  0  0  0  0  0  0  0  0  0  0  0
   -2.2720   14.7960   -4.2210 O   0  0  0  0  0  0  0  0  0  0  0  0
   -1.9470    7.6570   -7.6840 C   0  0  0  0  0  0  0  0  0  0  0  0
   -2.6830   14.6600   -1.8390 C   0  0  0  0  0  0  0  0  0  0  0  0
   -2.3960   14.2430   -0.5340 C   0  0  0  0  0  0  0  0  0  0  0  0
   -3.9320   15.2760   -2.0800 C   0  0  0  0  0  0  0  0  0  0  0  0
   -3.3110   14.4170    0.4980 C   0  0  0  0  0  0  0  0  0  0  0  0
   -4.8550   15.4530   -1.0420 C   0  0  0  0  0  0  0  0  0  0  0  0
   -4.5340   15.0130    0.2450 C   0  0  0  0  0  0  0  0  0  0  0  0
   -5.4460   15.1520    1.3320 N   0  0  0  0  0  0  0  0  0  0  0  0
   -6.9610   14.4190    1.1010 S   0  0  0  0  0  0  0  0  0  0  0  0
   -6.5130   12.7250    1.4090 C   0  0  0  0  0  0  0  0  0  0  0  0
   -7.8950   14.8520    2.1140 O   0  0  0  0  0  0  0  0  0  0  0  0
   -7.2720   14.5550   -0.3050 O   0  0  0  0  0  0  0  0  0  0  0  0
  1  2  1  0
  2  3  2  0
  2  4  1  0
  4  5  1  0
  5  6  1  0
  6  7  1  0
  6  8  2  0
  7  9  2  3
  7 10  1  0
  8 11  1  0
  9 12  1  0
 10 13  1  0
 11 13  2  0
 11 14  1  0
 12 15  1  0
 14 16  2  0
 13 17  1  0
 15 18  1  0
 15 19  1  0
 16 20  1  0
 17 20  2  0
 15 21  1  0
 21 22  2  0
 21 23  1  0
 22 24  1  0
 23 25  2  0
 24 26  2  0
 25 26  1  0
 26 27  1  0
 28 27  1  0
 28 29  1  0
 28 30  2  0
 28 31  2  0
M  END
