mac-x0326-mac-x0161
     RDKit          3D

 28 31  0  0  0  0  0  0  0  0999 V2000
   -5.7370   15.0630   -1.9610 Cl  0  0  0  0  0  0  0  0  0  0  0  0
   -3.9580   15.3240   -1.8900 C   0  0  2  0  0  0  0  0  0  0  0  0
   -3.2210   15.0680   -3.2500 C   0  0  2  0  0  0  0  0  0  0  0  0
   -3.3430   14.6110   -0.6430 C   0  0  2  0  0  0  0  0  0  0  0  0
   -4.0190   15.1280    0.5840 N   0  0  0  0  0  0  0  0  0  0  0  0
   -3.8210   13.9290   -4.0970 C   0  0  0  0  0  0  0  0  0  0  0  0
   -1.7360   14.9370   -3.0840 C   0  0  0  0  0  0  0  0  0  0  0  0
   -1.7500   14.7000   -0.5310 C   0  0  2  0  0  0  0  0  0  0  0  0
   -0.8980   14.9730   -4.1840 N   0  0  0  0  0  0  0  0  0  0  0  0
   -1.1040   14.7730   -1.8800 C   0  0  0  0  0  0  0  0  0  0  0  0
   -2.9260   12.7350   -4.2310 C   0  0  0  0  0  0  0  0  0  0  0  0
   -1.1900   13.4990    0.1360 N   0  0  0  0  0  0  0  0  0  0  0  0
   -1.2630   15.8350    0.3610 C   0  0  0  0  0  0  0  0  0  0  0  0
    0.3500   14.8310   -3.7860 C   0  0  0  0  0  0  0  0  0  0  0  0
    0.5850   14.6600   -2.1040 S   0  0  0  0  0  0  0  0  0  0  0  0
   -1.9400   12.3450   -5.1120 C   0  0  0  0  0  0  0  0  0  0  0  0
   -3.0800   11.7640   -3.2860 O   0  0  0  0  0  0  0  0  0  0  0  0
   -0.1250   15.2350    1.0450 N   0  0  0  0  0  0  0  0  0  0  0  0
   -0.6320   13.9500    1.3880 C   0  0  0  0  0  0  0  0  0  0  0  0
    1.5300   14.8140   -4.6950 C   0  0  0  0  0  0  0  0  0  0  0  0
   -2.2020   10.7200   -3.5340 N   0  0  0  0  0  0  0  0  0  0  0  0
   -1.5330   11.0870   -4.6270 C   0  0  0  0  0  0  0  0  0  0  0  0
    2.0640   13.3910   -4.8710 C   0  0  0  0  0  0  0  0  0  0  0  0
   -0.5770   10.2950   -5.1700 O   0  0  0  0  0  0  0  0  0  0  0  0
    1.8100   12.5540   -3.6610 C   0  0  0  0  0  0  0  0  0  0  0  0
   -1.0290    8.9970   -5.5470 C   0  0  0  0  0  0  0  0  0  0  0  0
    0.8920   11.5980   -3.8960 O   0  0  0  0  0  0  0  0  0  0  0  0
    2.3530   12.6880   -2.5790 O   0  0  0  0  0  0  0  0  0  0  0  0
  2  1  1  6
  2  3  1  0
  2  4  1  0
  4  5  1  1
  3  6  1  1
  3  7  1  0
  4  8  1  0
  7  9  1  0
  7 10  2  0
  8 10  1  0
  6 11  1  0
  8 12  1  0
  8 13  1  1
  9 14  2  0
 10 15  1  0
 14 15  1  0
 11 16  2  0
 11 17  1  0
 13 18  1  0
 12 19  1  0
 18 19  1  0
 14 20  1  0
 17 21  1  0
 16 22  1  0
 21 22  2  0
 20 23  1  0
 22 24  1  0
 23 25  1  0
 24 26  1  0
 25 27  1  0
 25 28  2  0
M  END
