mac-x0326-mac-x0451
     RDKit          3D

 21 23  0  0  0  0  0  0  0  0999 V2000
   -6.0180   15.7020   -1.6500 Cl  0  0  0  0  0  0  0  0  0  0  0  0
   -4.5020   14.7460   -1.5500 C   0  0  1  0  0  0  0  0  0  0  0  0
   -3.5760   14.8670   -2.7830 C   0  0  1  0  0  0  0  0  0  0  0  0
   -3.9060   14.6410   -0.1180 C   0  0  2  0  0  0  0  0  0  0  0  0
   -3.6460   16.0640   -3.3590 F   0  0  0  0  0  0  0  0  0  0  0  0
   -2.1450   14.7360   -2.5090 C   0  0  0  0  0  0  0  0  0  0  0  0
   -2.3450   14.5950    0.0190 C   0  0  0  0  0  0  0  0  0  0  0  0
   -4.6020   13.3780    0.3850 C   0  0  0  0  0  0  0  0  0  0  0  0
   -4.4350   15.7750    1.2340 S   0  0  0  0  0  0  0  0  0  0  0  0
   -1.2650   14.7350   -3.5650 N   0  0  0  0  0  0  0  0  0  0  0  0
   -1.5990   14.6220   -1.2690 C   0  0  0  0  0  0  0  0  0  0  0  0
   -5.4690   14.5150    1.9680 C   0  0  2  0  0  0  0  0  0  0  0  0
   -5.9270   13.7960    0.8600 N   0  0  0  0  0  0  0  0  0  0  0  0
   -6.5940   14.9490    2.7400 N   0  0  0  0  0  0  0  0  0  0  0  0
   -0.0460   14.6190   -3.1090 C   0  0  0  0  0  0  0  0  0  0  0  0
    0.0970   14.5090   -1.3910 S   0  0  0  0  0  0  0  0  0  0  0  0
    1.1580   14.5730   -4.0070 C   0  0  0  0  0  0  0  0  0  0  0  0
    1.3950   13.1410   -4.4490 C   0  0  0  0  0  0  0  0  0  0  0  0
    1.1800   12.2170   -3.2800 C   0  0  0  0  0  0  0  0  0  0  0  0
    0.3600   11.1730   -3.5070 O   0  0  0  0  0  0  0  0  0  0  0  0
    1.7100   12.4110   -2.2020 O   0  0  0  0  0  0  0  0  0  0  0  0
  2  1  1  1
  2  3  1  0
  2  4  1  0
  3  5  1  1
  3  6  1  0
  4  7  1  6
  4  8  1  0
  4  9  1  0
  6 10  1  0
  6 11  2  0
  7 11  1  0
  9 12  1  0
  8 13  1  0
 12 13  1  0
 12 14  1  6
 10 15  2  0
 11 16  1  0
 15 16  1  0
 15 17  1  0
 17 18  1  0
 18 19  1  0
 19 20  1  0
 19 21  2  0
M  END
