mac-x0527-diamond-x1018_0_A
     RDKit          3D

 21 23  0  0  0  0  0  0  0  0999 V2000
   -3.4630   15.9390   -4.0350 O   0  0  0  0  0  0  0  0  0  0  0  0
   -3.3060   15.0960   -3.1680 C   0  0  0  0  0  0  0  0  0  0  0  0
   -2.0590   14.5770   -2.8900 N   0  0  0  0  0  0  0  0  0  0  0  0
   -4.4760   14.5380   -2.3530 C   0  0  0  0  0  0  0  0  0  0  0  0
   -1.0140   14.6200   -3.8890 C   0  0  0  0  0  0  0  0  0  0  0  0
   -4.2820   14.7790   -0.8970 C   0  0  0  0  0  0  0  0  0  0  0  0
   -0.9280   13.2900   -4.5890 C   0  0  0  0  0  0  0  0  0  0  0  0
   -5.3720   14.9820    0.0050 N   0  0  0  0  0  0  0  0  0  0  0  0
   -3.0160   14.8130   -0.3890 C   0  0  0  0  0  0  0  0  0  0  0  0
   -7.0100   14.5340   -0.3000 Cl  0  0  0  0  0  0  0  0  0  0  0  0
   -1.8520   12.2730   -4.2990 C   0  0  0  0  0  0  0  0  0  0  0  0
    0.0760   13.0470   -5.5390 C   0  0  0  0  0  0  0  0  0  0  0  0
   -5.1110   15.1860    1.3360 C   0  0  0  0  0  0  0  0  0  0  0  0
   -2.7990   15.0540    0.9560 N   0  0  0  0  0  0  0  0  0  0  0  0
   -1.8020   14.6350   -1.0410 N   0  0  0  0  0  0  0  0  0  0  0  0
   -1.7710   11.0390   -4.9440 C   0  0  0  0  0  0  0  0  0  0  0  0
    0.1550   11.8130   -6.1840 C   0  0  0  0  0  0  0  0  0  0  0  0
   -3.8590   15.2280    1.7870 C   0  0  0  0  0  0  0  0  0  0  0  0
   -1.5260   14.6430    1.2370 N   0  0  0  0  0  0  0  0  0  0  0  0
   -0.9770   14.5450   -0.0280 C   0  0  0  0  0  0  0  0  0  0  0  0
   -0.7690   10.8100   -5.8860 C   0  0  0  0  0  0  0  0  0  0  0  0
  1  2  2  0
  2  3  1  0
  2  4  1  0
  3  5  1  0
  4  6  1  0
  5  7  1  0
  6  8  1  0
  6  9  2  0
  8 10  1  0
  7 11  2  0
  7 12  1  0
  8 13  1  0
  9 14  1  0
  9 15  1  0
 11 16  1  0
 12 17  2  0
 13 18  2  0
 14 18  1  0
 14 19  1  0
 15 20  2  0
 19 20  1  0
 16 21  2  0
 17 21  1  0
M  END
