mac-x0277-diamond-x0900_0_A
     RDKit          3D

 21 22  0  0  0  0  0  0  0  0999 V2000
   -1.3460   18.3410   -5.2370 Cl  0  0  0  0  0  0  0  0  0  0  0  0
   -0.6240   16.8040   -4.9400 C   0  0  0  0  0  0  0  0  0  0  0  0
   -1.3640   15.6130   -4.9680 C   0  0  0  0  0  0  0  0  0  0  0  0
    0.7440   16.7710   -4.6660 C   0  0  0  0  0  0  0  0  0  0  0  0
   -2.8460   15.5350   -5.2500 C   0  0  0  0  0  0  0  0  0  0  0  0
   -0.6970   14.4040   -4.7220 C   0  0  0  0  0  0  0  0  0  0  0  0
    1.3890   15.5550   -4.4210 C   0  0  0  0  0  0  0  0  0  0  0  0
   -3.6700   15.3340   -3.9700 C   0  0  0  0  0  0  0  0  0  0  0  0
    0.6700   14.3570   -4.4480 C   0  0  0  0  0  0  0  0  0  0  0  0
    1.3510   13.0350   -4.1850 C   0  0  0  0  0  0  0  0  0  0  0  0
   -3.2920   14.1460   -3.0910 C   0  0  0  0  0  0  0  0  0  0  0  0
    0.9660   12.4300   -2.8510 C   0  0  0  0  0  0  0  0  0  0  0  0
   -4.4240   13.7150   -2.1400 C   0  0  0  0  0  0  0  0  0  0  0  0
    0.4560   11.1870   -2.9670 O   0  0  0  0  0  0  0  0  0  0  0  0
    1.0670   12.9350   -1.7470 O   0  0  0  0  0  0  0  0  0  0  0  0
   -4.6920   14.6810   -1.0850 N   0  0  0  0  0  0  0  0  0  0  0  0
   -5.8650   14.7630   -0.3610 C   0  0  0  0  0  0  0  0  0  0  0  0
   -3.6430   15.3120   -0.3450 C   0  0  0  0  0  0  0  0  0  0  0  0
   -7.0000   14.9270   -0.7790 O   0  0  0  0  0  0  0  0  0  0  0  0
   -5.4640   14.6120    1.0820 C   0  0  0  0  0  0  0  0  0  0  0  0
   -4.0800   15.2610    1.1110 C   0  0  0  0  0  0  0  0  0  0  0  0
  1  2  1  0
  2  3  2  0
  2  4  1  0
  3  5  1  0
  3  6  1  0
  4  7  2  0
  5  8  1  0
  6  9  2  0
  7  9  1  0
  9 10  1  0
  8 11  1  0
 10 12  1  0
 11 13  1  0
 12 14  1  0
 12 15  2  0
 13 16  1  0
 16 17  1  0
 16 18  1  0
 17 19  2  0
 17 20  1  0
 18 21  1  0
 20 21  1  0
M  END
