mac-x0326-diamond-x0662_0_A
     RDKit          3D

 32 35  0  0  0  0  0  0  0  0999 V2000
   -6.1770   15.5760   -1.3660 Cl  0  0  0  0  0  0  0  0  0  0  0  0
   -4.4840   15.2760   -1.4210 C   0  0  0  0  0  0  0  0  0  0  0  0
   -3.8630   15.1120   -2.6570 C   0  0  0  0  0  0  0  0  0  0  0  0
   -3.7630   15.1950   -0.2360 C   0  0  0  0  0  0  0  0  0  0  0  0
   -2.4850   14.8530   -2.7080 C   0  0  0  0  0  0  0  0  0  0  0  0
   -2.3870   14.9410   -0.2600 C   0  0  0  0  0  0  0  0  0  0  0  0
   -1.7510   14.6540   -3.8650 N   0  0  0  0  0  0  0  0  0  0  0  0
   -1.7620   14.7720   -1.5160 C   0  0  0  0  0  0  0  0  0  0  0  0
   -0.4870   14.4070   -3.5940 C   0  0  0  0  0  0  0  0  0  0  0  0
   -0.1050   14.4450   -1.9040 S   0  0  0  0  0  0  0  0  0  0  0  0
    0.5340   14.1000   -4.6880 C   0  0  0  0  0  0  0  0  0  0  0  0
    0.8490   12.5800   -4.8920 C   0  0  1  0  0  0  0  0  0  0  0  0
    1.1040   12.0770   -3.4920 C   0  0  0  0  0  0  0  0  0  0  0  0
   -0.1770   11.6510   -5.6250 C   0  0  0  0  0  0  0  0  0  0  0  0
    0.5360   10.9030   -3.1980 O   0  0  0  0  0  0  0  0  0  0  0  0
    1.7640   12.6510   -2.6380 O   0  0  0  0  0  0  0  0  0  0  0  0
   -1.2690   11.4800   -5.1060 O   0  0  0  0  0  0  0  0  0  0  0  0
   -0.0570   10.8480   -6.9330 C   0  0  0  0  0  0  0  0  0  0  0  0
   -0.9730    9.7880   -7.0620 C   0  0  0  0  0  0  0  0  0  0  0  0
    0.8370   11.0500   -8.0030 C   0  0  0  0  0  0  0  0  0  0  0  0
   -1.0040    8.9790   -8.1990 C   0  0  0  0  0  0  0  0  0  0  0  0
    0.8090   10.2410   -9.1780 C   0  0  0  0  0  0  0  0  0  0  0  0
    1.6500   10.3880  -10.3210 N   0  0  0  0  0  0  0  0  0  0  0  0
   -0.1200    9.2060   -9.2530 C   0  0  0  0  0  0  0  0  0  0  0  0
    2.1920    9.3990  -11.1500 C   0  0  0  0  0  0  0  0  0  0  0  0
    2.1700    8.1940  -10.9290 O   0  0  0  0  0  0  0  0  0  0  0  0
    2.8630    9.9280  -12.3730 C   0  0  0  0  0  0  0  0  0  0  0  0
    2.6470   11.1670  -13.0430 C   0  0  0  0  0  0  0  0  0  0  0  0
    3.8270    9.2110  -13.0010 N   0  0  0  0  0  0  0  0  0  0  0  0
    4.2060    9.9920  -14.0330 N   0  0  0  0  0  0  0  0  0  0  0  0
    3.5290   11.1730  -14.1010 C   0  0  0  0  0  0  0  0  0  0  0  0
    5.2470    9.5320  -14.9230 C   0  0  0  0  0  0  0  0  0  0  0  0
  1  2  1  0
  2  3  2  0
  2  4  1  0
  3  5  1  0
  4  6  2  0
  5  7  1  0
  5  8  2  0
  6  8  1  0
  7  9  2  0
  8 10  1  0
  9 10  1  0
  9 11  1  0
 12 11  1  1
 12 13  1  0
 12 14  1  0
 13 15  1  0
 13 16  2  0
 14 17  2  0
 14 18  1  0
 18 19  2  0
 18 20  1  0
 19 21  1  0
 20 22  2  0
 22 23  1  0
 21 24  2  0
 22 24  1  0
 23 25  1  0
 25 26  2  0
 25 27  1  0
 27 28  1  0
 27 29  2  0
 29 30  1  0
 28 31  2  0
 30 31  1  0
 30 32  1  0
M  END
