mac-x0555-mac-x0178
     RDKit          3D

 26 28  0  0  0  0  0  0  0  0999 V2000
   -7.6120   14.4480    2.8430 N   0  0  0  0  0  0  0  0  0  0  0  0
   -6.9850   14.5520    1.6020 C   0  0  0  0  0  0  0  0  0  0  0  0
   -7.6290   14.5430    0.3690 C   0  0  0  0  0  0  0  0  0  0  0  0
   -5.6140   14.6760    1.5720 C   0  0  0  0  0  0  0  0  0  0  0  0
   -4.9270   14.7750    0.3750 C   0  0  0  0  0  0  0  0  0  0  0  0
   -7.0030   14.6440   -0.8450 N   0  0  0  0  0  0  0  0  0  0  0  0
   -5.6480   14.7540   -0.8340 C   0  0  0  0  0  0  0  0  0  0  0  0
   -3.5410   14.8860    0.4000 C   0  0  0  0  0  0  0  0  0  0  0  0
   -4.9000   14.8430   -2.0130 C   0  0  0  0  0  0  0  0  0  0  0  0
   -2.8320   14.9640   -0.7700 C   0  0  0  0  0  0  0  0  0  0  0  0
   -3.4850   14.9410   -1.9850 C   0  0  0  0  0  0  0  0  0  0  0  0
   -2.6130   15.0160   -3.2060 C   0  0  0  0  0  0  0  0  0  0  0  0
   -3.2180   15.9120   -4.2540 C   0  0  0  0  0  0  0  0  0  0  0  0
   -2.5140   17.2120   -4.5090 N   0  0  0  0  0  0  0  0  0  0  0  0
   -1.7350   17.1200   -5.7300 S   0  0  2  0  0  0  0  0  0  0  0  0
   -0.7680   18.4740   -5.8140 N   0  0  0  0  0  0  0  0  0  0  0  0
   -2.4440   17.0280   -6.9630 O   0  0  0  0  0  0  0  0  0  0  0  0
   -0.9430   15.7400   -4.9870 C   0  0  0  0  0  0  0  0  0  0  0  0
    0.1350   16.0110   -4.1370 C   0  0  0  0  0  0  0  0  0  0  0  0
   -1.4030   14.4380   -5.1980 C   0  0  0  0  0  0  0  0  0  0  0  0
    0.7450   14.9630   -3.4650 C   0  0  0  0  0  0  0  0  0  0  0  0
   -0.7880   13.3900   -4.5230 C   0  0  0  0  0  0  0  0  0  0  0  0
    0.2730   13.6620   -3.6550 C   0  0  0  0  0  0  0  0  0  0  0  0
    0.8850   12.5420   -2.9320 C   0  0  0  0  0  0  0  0  0  0  0  0
    1.6460   12.6990   -2.0020 O   0  0  0  0  0  0  0  0  0  0  0  0
    0.4850   11.3540   -3.4120 O   0  0  0  0  0  0  0  0  0  0  0  0
  1  2  1  0
  2  3  2  0
  2  4  1  0
  4  5  2  0
  3  6  1  0
  5  7  1  0
  6  7  2  0
  5  8  1  0
  7  9  1  0
  8 10  2  0
  9 11  2  0
 10 11  1  0
 11 12  1  0
 12 13  1  0
 13 14  1  0
 14 15  2  0
 15 16  1  6
 15 17  2  0
 15 18  1  0
 18 19  2  0
 18 20  1  0
 19 21  1  0
 20 22  2  0
 21 23  2  0
 22 23  1  0
 23 24  1  0
 24 25  2  0
 24 26  1  0
M  END
