mac-x0148-mac-x0546
     RDKit          3D

 32 37  0  0  0  0  0  0  0  0999 V2000
   -3.4480   16.3460   -5.8440 C   0  0  0  0  0  0  0  0  0  0  0  0
   -2.7250   17.4420   -5.2110 O   0  0  0  0  0  0  0  0  0  0  0  0
   -1.4250   17.1240   -5.1480 C   0  0  0  0  0  0  0  0  0  0  0  0
   -1.1120   15.8750   -5.2450 C   0  0  0  0  0  0  0  0  0  0  0  0
   -0.4090   18.1440   -4.9850 C   0  0  0  0  0  0  0  0  0  0  0  0
    0.2840   15.4980   -5.2280 C   0  0  1  0  0  0  0  0  0  0  0  0
    0.8670   17.8440   -4.6220 C   0  0  0  0  0  0  0  0  0  0  0  0
    1.1220   16.3980   -4.4220 C   0  0  0  0  0  0  0  0  0  0  0  0
    0.6880   14.2410   -4.6640 C   0  0  0  0  0  0  0  0  0  0  0  0
   -0.0620   13.0420   -5.0560 C   0  0  2  0  0  0  0  0  0  0  0  0
    1.9840   15.7740   -3.6670 N   0  0  0  0  0  0  0  0  0  0  0  0
    1.7050   14.4420   -3.8280 C   0  0  0  0  0  0  0  0  0  0  0  0
   -1.4740   13.6260   -5.0830 C   0  0  1  0  0  0  0  0  0  0  0  0
   -0.0030   12.0300   -3.9830 C   0  0  0  0  0  0  0  0  0  0  0  0
   -2.6190   12.6740   -5.3020 C   0  0  0  0  0  0  0  0  0  0  0  0
   -1.8310   14.2150   -3.6790 C   0  0  1  0  0  0  0  0  0  0  0  0
    0.0220   12.8040   -2.6720 C   0  0  1  0  0  0  0  0  0  0  0  0
   -3.7350   13.4960   -4.9620 O   0  0  0  0  0  0  0  0  0  0  0  0
   -3.3640   14.1740   -3.7430 C   0  0  0  0  0  0  0  0  0  0  0  0
   -1.2210   13.5670   -2.4540 N   0  0  0  0  0  0  0  0  0  0  0  0
    0.4020   11.7740   -1.7420 N   0  0  0  0  0  0  0  0  0  0  0  0
   -1.4540   14.0460   -1.1380 C   0  0  0  0  0  0  0  0  0  0  0  0
    0.4350   10.6950   -2.4160 C   0  0  0  0  0  0  0  0  0  0  0  0
   -0.4380   13.8910   -0.1990 N   0  0  0  0  0  0  0  0  0  0  0  0
   -2.5620   14.6420   -0.6570 C   0  0  0  0  0  0  0  0  0  0  0  0
    0.1020   10.6670   -3.7010 O   0  0  0  0  0  0  0  0  0  0  0  0
   -0.5660   14.2630    1.1120 C   0  0  0  0  0  0  0  0  0  0  0  0
   -2.6200   15.0330    0.7820 C   0  0  0  0  0  0  0  0  0  0  0  0
   -3.8490   15.0560   -1.1330 C   0  0  0  0  0  0  0  0  0  0  0  0
   -1.5910   14.8190    1.6450 N   0  0  0  0  0  0  0  0  0  0  0  0
   -3.7530   15.5780    1.1070 N   0  0  0  0  0  0  0  0  0  0  0  0
   -4.4730   15.5820   -0.0740 C   0  0  0  0  0  0  0  0  0  0  0  0
  1  2  1  0
  2  3  1  0
  3  4  2  0
  3  5  1  0
  6  4  1  1
  5  7  2  0
  6  8  1  0
  7  8  1  0
  6  9  1  0
 10  9  1  1
  8 11  2  0
  9 12  2  0
 11 12  1  0
 10 13  1  0
 10 14  1  0
 13 15  1  1
 13 16  1  0
 14 17  1  0
 15 18  1  0
 16 19  1  1
 18 19  1  0
 16 20  1  0
 17 20  1  0
 17 21  1  1
 20 22  1  0
 21 23  2  3
 22 24  1  0
 22 25  2  0
 23 26  1  0
 24 27  1  0
 25 28  1  0
 25 29  1  0
 27 30  2  0
 28 30  1  0
 28 31  2  0
 29 32  2  0
 31 32  1  0
M  END
