mac-x0546-diamond-x0962_0_A
     RDKit          3D

 24 26  0  0  0  0  0  0  0  0999 V2000
   -3.9980   15.0820   -6.8270 C   0  0  0  0  0  0  0  0  0  0  0  0
   -3.7260   15.6620   -5.5290 N   0  0  0  0  0  0  0  0  0  0  0  0
   -4.3950   14.6930   -4.6360 C   0  0  0  0  0  0  0  0  0  0  0  0
   -2.4240   15.9390   -5.1190 C   0  0  0  0  0  0  0  0  0  0  0  0
   -3.4150   13.8290   -3.8380 C   0  0  0  0  0  0  0  0  0  0  0  0
   -1.7450   14.8930   -4.6550 C   0  0  0  0  0  0  0  0  0  0  0  0
   -1.7610   17.2690   -5.1020 C   0  0  0  0  0  0  0  0  0  0  0  0
   -3.1950   14.3730   -2.5100 C   0  0  0  0  0  0  0  0  0  0  0  0
   -0.4130   15.0050   -4.0840 C   0  0  2  0  0  0  0  0  0  0  0  0
   -0.4280   17.4350   -4.8790 C   0  0  0  0  0  0  0  0  0  0  0  0
   -3.3740   14.7340   -1.4130 C   0  0  0  0  0  0  0  0  0  0  0  0
    0.3160   16.1750   -4.6710 C   0  0  0  0  0  0  0  0  0  0  0  0
    0.6430   13.9830   -4.2770 C   0  0  0  0  0  0  0  0  0  0  0  0
    0.5110   12.5140   -4.0500 C   0  0  0  0  0  0  0  0  0  0  0  0
    1.5550   15.9460   -4.9210 N   0  0  0  0  0  0  0  0  0  0  0  0
    1.7240   14.6000   -4.6780 C   0  0  0  0  0  0  0  0  0  0  0  0
   -3.9810   14.9780   -0.1920 C   0  0  0  0  0  0  0  0  0  0  0  0
    0.3330   12.0250   -2.6290 C   0  0  0  0  0  0  0  0  0  0  0  0
   -3.4000   15.4000    0.9590 N   0  0  0  0  0  0  0  0  0  0  0  0
   -5.3060   14.8260    0.0750 C   0  0  0  0  0  0  0  0  0  0  0  0
    0.5220   12.5770   -1.5550 O   0  0  0  0  0  0  0  0  0  0  0  0
   -0.1080   10.7550   -2.6580 O   0  0  0  0  0  0  0  0  0  0  0  0
   -4.4070   15.4880    1.8770 C   0  0  0  0  0  0  0  0  0  0  0  0
   -5.5680   15.1370    1.3690 N   0  0  0  0  0  0  0  0  0  0  0  0
  1  2  1  0
  2  3  1  0
  2  4  1  0
  3  5  1  0
  4  6  2  0
  4  7  1  0
  5  8  1  0
  9  6  1  6
  7 10  2  0
  8 11  3  0
  9 12  1  0
 10 12  1  0
  9 13  1  0
 13 14  1  0
 12 15  2  0
 13 16  2  0
 15 16  1  0
 11 17  1  0
 14 18  1  0
 17 19  1  0
 17 20  2  0
 18 21  2  0
 18 22  1  0
 19 23  1  0
 20 24  1  0
 23 24  2  0
M  END
