mac-x0397-mac-x0354
     RDKit          3D

 29 32  0  0  0  0  0  0  0  0999 V2000
   -6.4680   14.8860   -2.6660 Cl  0  0  0  0  0  0  0  0  0  0  0  0
   -4.9230   14.8880   -1.9460 C   0  0  0  0  0  0  0  0  0  0  0  0
   -4.9220   14.9530   -0.5550 C   0  0  0  0  0  0  0  0  0  0  0  0
   -3.7290   14.8230   -2.6790 C   0  0  0  0  0  0  0  0  0  0  0  0
   -6.0090   14.9970    0.3030 N   0  0  0  0  0  0  0  0  0  0  0  0
   -3.6880   14.9710    0.0630 C   0  0  0  0  0  0  0  0  0  0  0  0
   -2.5070   14.8230   -1.9930 C   0  0  0  0  0  0  0  0  0  0  0  0
   -1.1590   14.7430   -2.6660 C   0  0  0  0  0  0  0  0  0  0  0  0
   -5.5820   15.0510    1.5310 C   0  0  0  0  0  0  0  0  0  0  0  0
   -3.8820   15.0880    1.7230 S   0  0  0  0  0  0  0  0  0  0  0  0
   -2.4950   14.9020   -0.6120 C   0  0  0  0  0  0  0  0  0  0  0  0
   -6.4190   15.0760    2.5820 N   0  0  0  0  0  0  0  0  0  0  0  0
   -0.0140   14.7450   -1.6230 C   0  0  0  0  0  0  0  0  0  0  0  0
    0.7720   13.4420   -1.5680 C   0  0  0  0  0  0  0  0  0  0  0  0
    0.9480   13.0270   -2.9280 N   0  0  0  0  0  0  0  0  0  0  0  0
    0.6390   11.9040   -3.4300 C   0  0  0  0  0  0  0  0  0  0  0  0
    0.1190   10.8200   -2.7910 O   0  0  0  0  0  0  0  0  0  0  0  0
    0.8890   11.8620   -4.8340 C   0  0  0  0  0  0  0  0  0  0  0  0
    1.8920   12.5940   -5.4790 C   0  0  0  0  0  0  0  0  0  0  0  0
    0.2670   11.1520   -5.8590 C   0  0  0  0  0  0  0  0  0  0  0  0
    0.9290   11.5030   -6.9930 N   0  0  0  0  0  0  0  0  0  0  0  0
    1.9150   12.3750   -6.7710 N   0  0  0  0  0  0  0  0  0  0  0  0
   -0.8280   10.2100   -5.8950 C   0  0  0  0  0  0  0  0  0  0  0  0
    0.6520   11.0210   -8.3330 C   0  0  0  0  0  0  0  0  0  0  0  0
   -0.6180    8.9550   -6.4780 C   0  0  0  0  0  0  0  0  0  0  0  0
   -2.0740   10.5350   -5.3670 C   0  0  0  0  0  0  0  0  0  0  0  0
   -1.6530    8.0280   -6.5310 C   0  0  0  0  0  0  0  0  0  0  0  0
   -3.1120    9.6050   -5.4210 C   0  0  0  0  0  0  0  0  0  0  0  0
   -2.9000    8.3560   -6.0010 C   0  0  0  0  0  0  0  0  0  0  0  0
  1  2  1  0
  2  3  2  0
  2  4  1  0
  3  5  1  0
  3  6  1  0
  4  7  2  0
  7  8  1  0
  5  9  2  0
  6 10  1  0
  9 10  1  0
  6 11  2  0
  7 11  1  0
  9 12  1  0
  8 13  1  0
 13 14  1  0
 14 15  1  0
 15 16  2  3
 16 17  1  0
 16 18  1  0
 18 19  1  0
 18 20  2  0
 20 21  1  0
 19 22  2  0
 21 22  1  0
 20 23  1  0
 21 24  1  0
 23 25  2  0
 23 26  1  0
 25 27  1  0
 26 28  2  0
 27 29  2  0
 28 29  1  0
M  END
