mac-x0182-diamond-x0159_0_B
     RDKit          3D

 31 35  0  0  0  0  0  0  0  0999 V2000
    1.9340   12.0500   -7.0280 O   0  0  0  0  0  0  0  0  0  0  0  0
    1.0140   11.6380   -6.4400 C   0  0  0  0  0  0  0  0  0  0  0  0
    0.8240   12.0440   -5.1370 N   0  0  0  0  0  0  0  0  0  0  0  0
   -0.0090   10.6400   -6.8610 C   0  0  0  0  0  0  0  0  0  0  0  0
   -0.4640   11.3410   -4.4350 S   0  0  0  0  0  0  0  0  0  0  0  0
   -0.8780   10.3590   -5.8150 C   0  0  0  0  0  0  0  0  0  0  0  0
   -0.1630   10.0080   -8.0960 C   0  0  0  0  0  0  0  0  0  0  0  0
   -1.3680   12.4600   -4.3770 O   0  0  0  0  0  0  0  0  0  0  0  0
   -0.0470   10.5150   -3.3270 O   0  0  0  0  0  0  0  0  0  0  0  0
    0.7520   10.3290   -9.2740 C   0  0  0  0  0  0  0  0  0  0  0  0
   -1.9210    9.4300   -5.9010 C   0  0  0  0  0  0  0  0  0  0  0  0
   -1.2230    9.0590   -8.2010 C   0  0  0  0  0  0  0  0  0  0  0  0
    1.3520    9.1610   -9.9710 N   0  0  0  0  0  0  0  0  0  0  0  0
   -2.0870    8.7710   -7.1140 C   0  0  0  0  0  0  0  0  0  0  0  0
    1.7690    8.0710   -9.0870 C   0  0  0  0  0  0  0  0  0  0  0  0
    2.1380    9.4090  -11.0730 C   0  0  0  0  0  0  0  0  0  0  0  0
    1.0150    6.8550   -9.5590 C   0  0  0  0  0  0  0  0  0  0  0  0
    1.9440   10.5520  -11.8130 N   0  0  0  0  0  0  0  0  0  0  0  0
    3.1230    8.6850  -11.5770 N   0  0  0  0  0  0  0  0  0  0  0  0
    3.5820    9.3870  -12.6680 C   0  0  0  0  0  0  0  0  0  0  0  0
    2.8570   10.5670  -12.8380 C   0  0  0  0  0  0  0  0  0  0  0  0
    1.0920    5.6410   -8.7000 C   0  0  0  0  0  0  0  0  0  0  0  0
    1.3360    4.4320   -9.3380 C   0  0  0  0  0  0  0  0  0  0  0  0
    0.9200    5.6830   -7.3140 C   0  0  0  0  0  0  0  0  0  0  0  0
    3.1010   11.4870  -13.8610 C   0  0  0  0  0  0  0  0  0  0  0  0
    4.6250    9.0770  -13.5600 C   0  0  0  0  0  0  0  0  0  0  0  0
    1.3980    3.2700   -8.6080 C   0  0  0  0  0  0  0  0  0  0  0  0
    0.9900    4.4960   -6.5870 C   0  0  0  0  0  0  0  0  0  0  0  0
    4.1430   11.1700  -14.7430 C   0  0  0  0  0  0  0  0  0  0  0  0
    4.8910    9.9910  -14.6000 C   0  0  0  0  0  0  0  0  0  0  0  0
    1.2280    3.2990   -7.2510 C   0  0  0  0  0  0  0  0  0  0  0  0
  1  2  2  0
  2  3  1  0
  2  4  1  0
  5  3  1  0
  4  6  2  0
  5  6  1  0
  4  7  1  0
  5  8  2  0
  5  9  2  0
  7 10  1  0
  6 11  1  0
  7 12  2  0
 10 13  1  0
 11 14  2  0
 12 14  1  0
 13 15  1  0
 13 16  1  0
 15 17  1  0
 16 18  1  0
 16 19  2  0
 19 20  1  0
 18 21  1  0
 20 21  2  0
 17 22  1  0
 22 23  2  0
 22 24  1  0
 21 25  1  0
 20 26  1  0
 23 27  1  0
 24 28  2  0
 25 29  2  0
 26 30  2  0
 29 30  1  0
 27 31  2  0
 28 31  1  0
M  END
