mac-x0568-diamond-x1012_0_A
     RDKit          3D

 24 25  0  0  0  0  0  0  0  0999 V2000
   -8.7470   14.4250    1.5090 C   0  0  0  0  0  0  0  0  0  0  0  0
   -7.4090   14.6230    0.8640 C   0  0  0  0  0  0  0  0  0  0  0  0
   -6.2660   14.6720    1.6570 C   0  0  0  0  0  0  0  0  0  0  0  0
   -7.3800   14.7500   -0.4780 N   0  0  0  0  0  0  0  0  0  0  0  0
   -6.1730   14.9320   -1.0410 C   0  0  0  0  0  0  0  0  0  0  0  0
   -5.0250   14.8600    1.0550 C   0  0  0  0  0  0  0  0  0  0  0  0
   -4.9910   14.9900   -0.3220 C   0  0  0  0  0  0  0  0  0  0  0  0
   -3.7710   15.1840   -1.0900 C   0  0  0  0  0  0  0  0  0  0  0  0
   -3.7940   15.1520   -2.3660 N   0  0  0  0  0  0  0  0  0  0  0  0
   -2.5760   15.3940   -0.4460 N   0  0  0  0  0  0  0  0  0  0  0  0
   -2.6190   15.3230   -3.1790 C   0  0  0  0  0  0  0  0  0  0  0  0
   -3.0000   15.9270   -4.5220 C   0  0  0  0  0  0  0  0  0  0  0  0
   -2.3500   17.2190   -4.5990 N   0  0  0  0  0  0  0  0  0  0  0  0
   -1.1040   17.0740   -4.6910 C   0  0  0  0  0  0  0  0  0  0  0  0
   -0.3090   18.1650   -4.7510 N   0  0  0  0  0  0  0  0  0  0  0  0
   -0.3910   15.9000   -4.7370 N   0  0  0  0  0  0  0  0  0  0  0  0
   -1.0250   14.6290   -5.1180 C   0  0  0  0  0  0  0  0  0  0  0  0
    1.0200   15.8020   -4.4000 C   0  0  0  0  0  0  0  0  0  0  0  0
   -0.9560   13.6280   -3.9740 C   0  0  0  0  0  0  0  0  0  0  0  0
    1.2260   14.7150   -3.3250 C   0  0  0  0  0  0  0  0  0  0  0  0
    0.5000   13.3690   -3.5960 C   0  0  0  0  0  0  0  0  0  0  0  0
    0.5180   12.4350   -2.3930 C   0  0  0  0  0  0  0  0  0  0  0  0
    0.3990   11.1420   -2.7480 O   0  0  0  0  0  0  0  0  0  0  0  0
    0.6130   12.7280   -1.2130 O   0  0  0  0  0  0  0  0  0  0  0  0
  1  2  1  0
  2  3  2  0
  2  4  1  0
  4  5  2  0
  3  6  1  0
  5  7  1  0
  6  7  2  0
  7  8  1  0
  8  9  2  3
  8 10  1  0
  9 11  1  0
 11 12  1  0
 12 13  1  0
 13 14  2  3
 14 15  1  0
 14 16  1  0
 16 17  1  0
 16 18  1  0
 17 19  1  0
 18 20  1  0
 19 21  1  0
 20 21  1  0
 21 22  1  0
 22 23  1  0
 22 24  2  0
M  END
