mac-x0138-mac-x0439
     RDKit          3D

 27 30  0  0  0  0  0  0  0  0999 V2000
   -1.8940   14.6750   -3.3560 C   0  0  0  0  0  0  0  0  0  0  0  0
   -2.8660   14.9340   -2.3450 N   0  0  0  0  0  0  0  0  0  0  0  0
   -4.1640   15.2850   -2.5000 C   0  0  0  0  0  0  0  0  0  0  0  0
   -2.6290   14.8650   -1.0270 C   0  0  0  0  0  0  0  0  0  0  0  0
   -4.7650   15.4450   -1.3330 N   0  0  0  0  0  0  0  0  0  0  0  0
   -3.7910   15.1760   -0.3970 C   0  0  0  0  0  0  0  0  0  0  0  0
   -1.5080   14.5600   -0.4650 N   0  0  0  0  0  0  0  0  0  0  0  0
   -3.7610   15.1580    1.0050 C   0  0  0  0  0  0  0  0  0  0  0  0
   -1.5930   14.5700    0.8470 C   0  0  0  0  0  0  0  0  0  0  0  0
   -4.8540   15.4530    1.7850 N   0  0  0  0  0  0  0  0  0  0  0  0
   -0.4740   14.2630    1.4270 N   0  0  0  0  0  0  0  0  0  0  0  0
   -2.6110   14.8330    1.6270 N   0  0  0  0  0  0  0  0  0  0  0  0
    0.3790   13.9970    0.3170 C   0  0  0  0  0  0  0  0  0  0  0  0
   -0.0840   13.7150   -1.1060 C   0  0  0  0  0  0  0  0  0  0  0  0
    1.2240   13.4430   -1.7190 N   0  0  0  0  0  0  0  0  0  0  0  0
    1.5990   14.0570   -2.7530 C   0  0  0  0  0  0  0  0  0  0  0  0
    2.8480   13.7310   -3.1460 O   0  0  0  0  0  0  0  0  0  0  0  0
    1.0030   15.0660   -3.6610 C   0  0  0  0  0  0  0  0  0  0  0  0
   -0.0100   14.7860   -4.4680 C   0  0  0  0  0  0  0  0  0  0  0  0
    1.4350   16.3620   -3.7770 N   0  0  0  0  0  0  0  0  0  0  0  0
   -0.2980   15.9720   -5.2840 C   0  0  2  0  0  0  0  0  0  0  0  0
    0.7070   16.8860   -4.6920 C   0  0  0  0  0  0  0  0  0  0  0  0
   -1.6160   16.6740   -5.4710 C   0  0  0  0  0  0  0  0  0  0  0  0
    0.7720   18.2480   -5.2410 C   0  0  0  0  0  0  0  0  0  0  0  0
   -3.0860   15.7790   -5.4420 Cl  0  0  0  0  0  0  0  0  0  0  0  0
   -1.6270   17.9900   -5.6880 C   0  0  0  0  0  0  0  0  0  0  0  0
   -0.3880   18.7350   -5.7240 C   0  0  0  0  0  0  0  0  0  0  0  0
  1  2  1  0
  2  3  1  0
  2  4  1  0
  3  5  2  0
  4  6  2  0
  5  6  1  0
  4  7  1  0
  6  8  1  0
  7  9  2  0
  8 10  1  0
  9 11  1  0
  8 12  2  0
  9 12  1  0
 11 13  1  0
 13 14  1  0
 14 15  1  0
 15 16  2  3
 16 17  1  0
 16 18  1  0
 18 19  2  0
 18 20  1  0
 21 19  1  1
 20 22  2  0
 21 22  1  0
 21 23  1  0
 22 24  1  0
 23 25  1  0
 23 26  2  0
 24 27  2  0
 26 27  1  0
M  END
