mac-x0365-mac-x0116
     RDKit          3D

 22 24  0  0  0  0  0  0  0  0999 V2000
   -0.5500   15.2420   -1.7630 O   0  0  0  0  0  0  0  0  0  0  0  0
   -1.5850   15.0910   -2.6010 C   0  0  0  0  0  0  0  0  0  0  0  0
   -1.4300   15.2870   -3.7920 O   0  0  0  0  0  0  0  0  0  0  0  0
   -2.8940   14.6590   -1.9870 C   0  0  2  0  0  0  0  0  0  0  0  0
   -4.1220   15.1910   -2.7240 C   0  0  0  0  0  0  0  0  0  0  0  0
   -2.9230   14.7300   -0.4290 C   0  0  1  0  0  0  0  0  0  0  0  0
   -5.4320   14.8350   -2.0730 C   0  0  2  0  0  0  0  0  0  0  0  0
   -4.3900   14.5790    0.1720 C   0  0  1  0  0  0  0  0  0  0  0  0
   -2.0050   13.6220    0.0010 C   0  0  0  0  0  0  0  0  0  0  0  0
   -2.1300   15.8650    0.1990 N   0  0  0  0  0  0  0  0  0  0  0  0
   -6.4730   15.3900   -2.7500 F   0  0  0  0  0  0  0  0  0  0  0  0
   -4.4940   14.9030    1.6010 N   0  0  0  0  0  0  0  0  0  0  0  0
   -5.4680   15.3280   -0.6570 C   0  0  2  0  0  0  0  0  0  0  0  0
   -0.6630   14.1540   -0.1270 N   0  0  0  0  0  0  0  0  0  0  0  0
   -0.8230   15.3390    0.6300 C   0  0  0  0  0  0  0  0  0  0  0  0
   -6.7970   15.1020   -0.1520 O   0  0  0  0  0  0  0  0  0  0  0  0
   -5.8600   14.6270    2.0800 C   0  0  0  0  0  0  0  0  0  0  0  0
   -6.3020   13.2170    1.9220 C   0  0  0  0  0  0  0  0  0  0  0  0
   -6.2140   12.6570    0.6740 O   0  0  0  0  0  0  0  0  0  0  0  0
   -6.8180   12.2970    2.8040 C   0  0  0  0  0  0  0  0  0  0  0  0
   -7.0620   11.1260    2.0670 C   0  0  0  0  0  0  0  0  0  0  0  0
   -6.6780   11.3900    0.7750 C   0  0  0  0  0  0  0  0  0  0  0  0
  1  2  1  0
  2  3  2  0
  4  2  1  6
  4  5  1  0
  4  6  1  0
  5  7  1  0
  6  8  1  0
  6  9  1  1
  6 10  1  0
  7 11  1  6
  8 12  1  1
  7 13  1  0
  8 13  1  0
  9 14  1  0
 10 15  1  0
 14 15  1  0
 13 16  1  1
 12 17  1  0
 17 18  1  0
 18 19  1  0
 18 20  2  0
 20 21  1  0
 19 22  1  0
 21 22  2  0
M  END
