mac-x0301-diamond-x0926_0_A
     RDKit          3D

 13 14  0  0  0  0  0  0  0  0999 V2000
    0.3720   14.4240   -2.9200 O   0  0  0  0  0  0  0  0  0  0  0  0
   -0.9520   14.5770   -3.1360 C   0  0  0  0  0  0  0  0  0  0  0  0
   -1.4830   14.2300   -4.1770 O   0  0  0  0  0  0  0  0  0  0  0  0
   -1.6800   15.2270   -1.9680 C   0  0  2  0  0  0  0  0  0  0  0  0
   -1.4370   14.4960   -0.6680 C   0  0  2  0  0  0  0  0  0  0  0  0
   -3.1930   15.3160   -2.1910 C   0  0  0  0  0  0  0  0  0  0  0  0
   -1.9160   15.3340    0.4770 C   0  0  1  0  0  0  0  0  0  0  0  0
   -4.0420   15.2470   -0.8930 C   0  0  0  0  0  0  0  0  0  0  0  0
   -0.0520   14.3290   -0.3570 O   0  0  0  0  0  0  0  0  0  0  0  0
   -5.2630   15.0060   -0.9700 O   0  0  0  0  0  0  0  0  0  0  0  0
   -3.4270   15.4690    0.4930 C   0  0  0  0  0  0  0  0  0  0  0  0
   -1.3580   14.6500    1.5840 O   0  0  0  0  0  0  0  0  0  0  0  0
   -0.0490   14.3870    1.0870 C   0  0  0  0  0  0  0  0  0  0  0  0
  1  2  1  0
  2  3  2  0
  4  2  1  6
  4  5  1  0
  4  6  1  0
  5  7  1  0
  6  8  1  0
  5  9  1  1
  8 10  2  0
  7 11  1  1
  8 11  1  0
  7 12  1  0
  9 13  1  0
 12 13  1  0
M  END
