mac-x0357-diamond-x0626_0_A
     RDKit          3D

 24 25  0  0  0  0  0  0  0  0999 V2000
    2.4930   12.9800   -4.6220 C   0  0  0  0  0  0  0  0  0  0  0  0
    1.1060   12.4370   -4.8530 C   0  0  0  0  0  0  0  0  0  0  0  0
    0.7540   11.8640   -6.0750 C   0  0  0  0  0  0  0  0  0  0  0  0
    0.1320   12.4850   -3.8420 C   0  0  0  0  0  0  0  0  0  0  0  0
    1.6970   11.7910   -7.0500 O   0  0  0  0  0  0  0  0  0  0  0  0
    0.5200   13.0600   -2.5390 C   0  0  0  0  0  0  0  0  0  0  0  0
   -1.1610   11.9850   -4.0590 C   0  0  0  0  0  0  0  0  0  0  0  0
   -0.5240   11.3630   -6.3090 C   0  0  0  0  0  0  0  0  0  0  0  0
    0.6590   14.3010   -2.2590 N   0  0  0  0  0  0  0  0  0  0  0  0
    0.7860   12.0900   -1.6290 O   0  0  0  0  0  0  0  0  0  0  0  0
   -1.4870   11.4250   -5.2990 C   0  0  0  0  0  0  0  0  0  0  0  0
    1.2290   14.4200   -0.9190 C   0  0  0  0  0  0  0  0  0  0  0  0
    0.5000   15.1920    0.1540 C   0  0  0  0  0  0  0  0  0  0  0  0
   -0.3500   14.3220    1.0260 C   0  0  0  0  0  0  0  0  0  0  0  0
   -1.7230   14.5310    0.6020 C   0  0  0  0  0  0  0  0  0  0  0  0
   -2.6920   14.6280    1.5560 N   0  0  0  0  0  0  0  0  0  0  0  0
   -2.1250   14.6460   -0.7110 C   0  0  0  0  0  0  0  0  0  0  0  0
   -3.8280   14.8070    0.9250 C   0  0  0  0  0  0  0  0  0  0  0  0
   -3.8060   14.8880   -0.7780 S   0  0  0  0  0  0  0  0  0  0  0  0
   -5.0600   14.9360    1.4570 N   0  0  0  0  0  0  0  0  0  0  0  0
   -6.2150   14.7010    0.7850 C   0  0  0  0  0  0  0  0  0  0  0  0
   -6.2320   14.8110   -0.4450 O   0  0  0  0  0  0  0  0  0  0  0  0
   -7.4510   14.3180    1.5730 C   0  0  0  0  0  0  0  0  0  0  0  0
   -8.7250   14.6470    0.8160 C   0  0  0  0  0  0  0  0  0  0  0  0
  1  2  1  0
  2  3  2  0
  2  4  1  0
  3  5  1  0
  4  6  1  0
  4  7  2  0
  3  8  1  0
  6  9  2  3
  6 10  1  0
  7 11  1  0
  8 11  2  0
  9 12  1  0
 12 13  1  0
 13 14  1  0
 14 15  1  0
 15 16  1  0
 15 17  2  0
 16 18  2  0
 17 19  1  0
 18 19  1  0
 18 20  1  0
 20 21  1  0
 21 22  2  0
 21 23  1  0
 23 24  1  0
M  END
