mac-x0555-diamond-x0926_0_A
     RDKit          3D

 12 13  0  0  0  0  0  0  0  0999 V2000
   -7.5700   13.5750    2.8170 N   0  0  0  0  0  0  0  0  0  0  0  0
   -7.1630   14.5210    1.7820 C   0  0  2  0  0  0  0  0  0  0  0  0
   -7.7330   14.1140    0.4160 C   0  0  0  0  0  0  0  0  0  0  0  0
   -5.6270   14.6020    1.6880 C   0  0  0  0  0  0  0  0  0  0  0  0
   -5.1350   14.6340    0.2350 C   0  0  1  0  0  0  0  0  0  0  0  0
   -7.4810   15.1410   -0.5880 N   0  0  0  0  0  0  0  0  0  0  0  0
   -6.0370   15.4270   -0.7140 C   0  0  2  0  0  0  0  0  0  0  0  0
   -3.7020   15.1580    0.0970 C   0  0  0  0  0  0  0  0  0  0  0  0
   -5.5960   15.0220   -2.0930 C   0  0  0  0  0  0  0  0  0  0  0  0
   -3.2860   15.2190   -1.3480 C   0  0  0  0  0  0  0  0  0  0  0  0
   -6.3610   14.5750   -2.9160 O   0  0  0  0  0  0  0  0  0  0  0  0
   -4.1440   15.1660   -2.3790 C   0  0  0  0  0  0  0  0  0  0  0  0
  2  1  1  1
  2  3  1  0
  2  4  1  0
  5  4  1  1
  3  6  1  0
  5  7  1  0
  7  6  1  1
  5  8  1  0
  7  9  1  0
  8 10  1  0
  9 11  2  0
  9 12  1  0
 10 12  2  0
M  END
