mac-x0392-mac-x0375
     RDKit          3D

 22 23  0  0  0  0  0  0  0  0999 V2000
    0.2110   14.0290    0.0500 N   0  0  0  0  0  0  0  0  0  0  0  0
   -1.1430   14.4030   -0.0230 C   0  0  0  0  0  0  0  0  0  0  0  0
   -1.9240   14.4700    1.1190 C   0  0  0  0  0  0  0  0  0  0  0  0
   -1.7930   14.7280   -1.2280 C   0  0  0  0  0  0  0  0  0  0  0  0
   -1.0340   14.6940   -2.5040 C   0  0  0  0  0  0  0  0  0  0  0  0
   -3.1520   15.0920   -1.2310 C   0  0  0  0  0  0  0  0  0  0  0  0
   -3.2300   14.8200    1.1470 N   0  0  0  0  0  0  0  0  0  0  0  0
   -1.5490   14.5100   -3.5940 O   0  0  0  0  0  0  0  0  0  0  0  0
    0.2820   14.9130   -2.2560 O   0  0  0  0  0  0  0  0  0  0  0  0
   -3.8160   15.1220   -0.0240 C   0  0  0  0  0  0  0  0  0  0  0  0
    1.2010   14.3060   -3.1690 C   0  0  0  0  0  0  0  0  0  0  0  0
    1.4940   12.9650   -2.7590 O   0  0  0  0  0  0  0  0  0  0  0  0
    0.9560   12.0120   -3.5660 C   0  0  0  0  0  0  0  0  0  0  0  0
    0.6320   10.8970   -3.1730 O   0  0  0  0  0  0  0  0  0  0  0  0
    0.8370   12.5490   -4.9960 C   0  0  0  0  0  0  0  0  0  0  0  0
    0.7450   11.5730   -6.0160 O   0  0  0  0  0  0  0  0  0  0  0  0
   -0.3490   10.7580   -6.1070 C   0  0  0  0  0  0  0  0  0  0  0  0
   -0.3950    9.5560   -6.8060 C   0  0  0  0  0  0  0  0  0  0  0  0
   -1.4980   11.1950   -5.4320 C   0  0  0  0  0  0  0  0  0  0  0  0
   -1.5660    8.7970   -6.8330 C   0  0  0  0  0  0  0  0  0  0  0  0
   -2.6700   10.4370   -5.4600 C   0  0  0  0  0  0  0  0  0  0  0  0
   -2.7050    9.2370   -6.1610 C   0  0  0  0  0  0  0  0  0  0  0  0
  1  2  1  0
  2  3  2  0
  2  4  1  0
  4  5  1  0
  4  6  2  0
  3  7  1  0
  5  8  2  0
  5  9  1  0
  6 10  1  0
  7 10  2  0
  9 11  1  0
 11 12  1  0
 12 13  1  0
 13 14  2  0
 13 15  1  0
 15 16  1  0
 16 17  1  0
 17 18  2  0
 17 19  1  0
 18 20  1  0
 19 21  2  0
 20 22  2  0
 21 22  1  0
M  END
