mac-x0255-diamond-x0662_0_A
     RDKit          3D

 30 33  0  0  0  0  0  0  0  0999 V2000
    1.4580   12.8960   -2.4250 O   0  0  0  0  0  0  0  0  0  0  0  0
    0.8340   12.0490   -3.2650 C   0  0  0  0  0  0  0  0  0  0  0  0
    0.2680   11.0580   -2.8170 O   0  0  0  0  0  0  0  0  0  0  0  0
    0.8090   12.3530   -4.7740 C   0  0  1  0  0  0  0  0  0  0  0  0
   -0.1530   11.4050   -5.5330 C   0  0  0  0  0  0  0  0  0  0  0  0
    0.3100   13.7810   -4.9050 C   0  0  0  0  0  0  0  0  0  0  0  0
   -1.2080   11.1770   -4.9430 O   0  0  0  0  0  0  0  0  0  0  0  0
    1.0120   14.9740   -4.9600 C   0  0  0  0  0  0  0  0  0  0  0  0
   -1.3730   14.0550   -5.0130 S   0  0  0  0  0  0  0  0  0  0  0  0
   -0.0500   10.6720   -6.8820 C   0  0  0  0  0  0  0  0  0  0  0  0
    0.1590   16.1190   -5.1220 C   0  0  0  0  0  0  0  0  0  0  0  0
   -1.1870   15.7490   -5.1650 C   0  0  0  0  0  0  0  0  0  0  0  0
   -0.9190    9.5910   -7.0730 C   0  0  0  0  0  0  0  0  0  0  0  0
    0.8310   10.9990   -7.9460 C   0  0  0  0  0  0  0  0  0  0  0  0
    0.4680   17.4900   -5.2470 C   0  0  0  0  0  0  0  0  0  0  0  0
   -2.2160   16.6930   -5.3280 C   0  0  0  0  0  0  0  0  0  0  0  0
   -0.9310    8.8590   -8.2570 C   0  0  0  0  0  0  0  0  0  0  0  0
    0.8180   10.2530   -9.1730 C   0  0  0  0  0  0  0  0  0  0  0  0
    1.6250   10.4650  -10.3340 N   0  0  0  0  0  0  0  0  0  0  0  0
   -0.5500   18.4200   -5.4170 C   0  0  0  0  0  0  0  0  0  0  0  0
   -1.8660   18.0320   -5.4570 C   0  0  0  0  0  0  0  0  0  0  0  0
   -0.0720    9.1890   -9.2980 C   0  0  0  0  0  0  0  0  0  0  0  0
    2.1780    9.4790  -11.1710 C   0  0  0  0  0  0  0  0  0  0  0  0
    2.1440    8.2760  -10.9290 O   0  0  0  0  0  0  0  0  0  0  0  0
    2.8530    9.9860  -12.4050 C   0  0  0  0  0  0  0  0  0  0  0  0
    2.6590   11.2150  -13.1120 C   0  0  0  0  0  0  0  0  0  0  0  0
    3.8090    9.2580  -13.0130 N   0  0  0  0  0  0  0  0  0  0  0  0
    4.2080   10.0000  -14.0600 N   0  0  0  0  0  0  0  0  0  0  0  0
    3.5450   11.1870  -14.1660 C   0  0  0  0  0  0  0  0  0  0  0  0
    5.2460    9.4930  -14.9230 C   0  0  0  0  0  0  0  0  0  0  0  0
  1  2  1  0
  2  3  2  0
  4  2  1  1
  4  5  1  0
  4  6  1  0
  5  7  2  0
  6  8  2  0
  6  9  1  0
  5 10  1  0
  8 11  1  0
  9 12  1  0
 11 12  2  0
 10 13  2  0
 10 14  1  0
 11 15  1  0
 12 16  1  0
 13 17  1  0
 14 18  2  0
 18 19  1  0
 15 20  2  0
 16 21  2  0
 20 21  1  0
 17 22  2  0
 18 22  1  0
 19 23  1  0
 23 24  2  0
 23 25  1  0
 25 26  1  0
 25 27  2  0
 27 28  1  0
 26 29  2  0
 28 29  1  0
 28 30  1  0
M  END
