mac-x0277-mac-x0180
     RDKit          3D

 25 26  0  0  0  0  0  0  0  0999 V2000
   -0.9340   18.3420   -5.9690 Cl  0  0  0  0  0  0  0  0  0  0  0  0
   -0.2890   16.8760   -5.3140 C   0  0  0  0  0  0  0  0  0  0  0  0
   -1.0830   15.8880   -4.8390 C   0  0  0  0  0  0  0  0  0  0  0  0
    1.0680   16.6900   -5.2580 C   0  0  0  0  0  0  0  0  0  0  0  0
   -2.8090   16.0550   -4.8860 Cl  0  0  0  0  0  0  0  0  0  0  0  0
   -0.5430   14.7190   -4.2960 C   0  0  0  0  0  0  0  0  0  0  0  0
    1.6140   15.5000   -4.7260 C   0  0  0  0  0  0  0  0  0  0  0  0
   -1.5410   13.9660   -3.8250 N   0  0  0  0  0  0  0  0  0  0  0  0
    0.8240   14.4740   -4.2390 C   0  0  0  0  0  0  0  0  0  0  0  0
    1.4890   13.2170   -3.6840 C   0  0  0  0  0  0  0  0  0  0  0  0
   -1.5400   14.6510   -2.7390 C   0  0  0  0  0  0  0  0  0  0  0  0
    0.7670   12.4380   -2.6010 C   0  0  0  0  0  0  0  0  0  0  0  0
   -0.5280   15.5190   -2.5200 O   0  0  0  0  0  0  0  0  0  0  0  0
   -2.5260   14.6640   -1.6960 C   0  0  0  0  0  0  0  0  0  0  0  0
    0.1570   11.3300   -3.0780 O   0  0  0  0  0  0  0  0  0  0  0  0
    0.7000   12.6980   -1.4040 O   0  0  0  0  0  0  0  0  0  0  0  0
   -2.2280   14.4630   -0.3480 C   0  0  0  0  0  0  0  0  0  0  0  0
   -3.8130   14.9180   -2.1280 C   0  0  0  0  0  0  0  0  0  0  0  0
   -3.2750   14.5160    0.5760 C   0  0  0  0  0  0  0  0  0  0  0  0
   -4.8360   14.9690   -1.2190 C   0  0  0  0  0  0  0  0  0  0  0  0
   -4.5840   14.7670    0.1290 C   0  0  0  0  0  0  0  0  0  0  0  0
   -5.6280   14.8030    1.0540 N   0  0  0  0  0  0  0  0  0  0  0  0
   -6.9470   14.6780    0.6510 C   0  0  0  0  0  0  0  0  0  0  0  0
   -7.8980   14.5240    1.8030 C   0  0  0  0  0  0  0  0  0  0  0  0
   -7.3620   14.6920   -0.5050 O   0  0  0  0  0  0  0  0  0  0  0  0
  1  2  1  0
  2  3  2  0
  2  4  1  0
  3  5  1  0
  3  6  1  0
  4  7  2  0
  6  8  1  0
  6  9  2  0
  7  9  1  0
  9 10  1  0
  8 11  2  3
 10 12  1  0
 11 13  1  0
 11 14  1  0
 12 15  1  0
 12 16  2  0
 14 17  2  0
 14 18  1  0
 17 19  1  0
 18 20  2  0
 19 21  2  0
 20 21  1  0
 21 22  1  0
 22 23  1  0
 23 24  1  0
 23 25  2  0
M  END
