mac-x0565-mac-x0271
     RDKit          3D

 23 26  0  0  0  0  0  0  0  0999 V2000
   -7.1810   15.2200   -2.8070 O   0  0  0  0  0  0  0  0  0  0  0  0
   -6.5670   14.4810   -3.7510 C   0  0  0  0  0  0  0  0  0  0  0  0
   -7.1930   13.8300   -4.5420 O   0  0  0  0  0  0  0  0  0  0  0  0
   -5.1130   14.5910   -3.5940 C   0  0  0  0  0  0  0  0  0  0  0  0
   -4.0130   14.5480   -4.4560 C   0  0  0  0  0  0  0  0  0  0  0  0
   -4.9130   14.7650   -2.3250 C   0  0  0  0  0  0  0  0  0  0  0  0
   -2.7450   14.6950   -3.8640 C   0  0  0  0  0  0  0  0  0  0  0  0
   -3.7250   14.9030   -1.7480 C   0  0  0  0  0  0  0  0  0  0  0  0
   -2.5900   14.8690   -2.5140 C   0  0  0  0  0  0  0  0  0  0  0  0
   -1.5500   14.6830   -4.5080 O   0  0  0  0  0  0  0  0  0  0  0  0
   -4.1560   15.0360   -0.4380 C   0  0  0  0  0  0  0  0  0  0  0  0
   -1.2830   14.9800   -2.1520 O   0  0  0  0  0  0  0  0  0  0  0  0
   -0.6500   15.0250   -3.4420 C   0  0  0  0  0  0  0  0  0  0  0  0
   -5.5040   14.6970   -0.5040 C   0  0  0  0  0  0  0  0  0  0  0  0
   -3.5790   15.4020    0.7530 C   0  0  0  0  0  0  0  0  0  0  0  0
   -6.2980   14.7100    0.5710 C   0  0  0  0  0  0  0  0  0  0  0  0
   -4.4140   15.4180    1.8790 C   0  0  0  0  0  0  0  0  0  0  0  0
   -5.7850   15.0670    1.7870 C   0  0  0  0  0  0  0  0  0  0  0  0
   -7.6440   14.3550    0.3680 O   0  0  0  0  0  0  0  0  0  0  0  0
   -6.7240   15.0710    2.9000 C   0  0  0  0  0  0  0  0  0  0  0  0
   -8.5750   14.6670    1.3330 C   0  0  0  0  0  0  0  0  0  0  0  0
   -9.7750   14.7700    1.1010 O   0  0  0  0  0  0  0  0  0  0  0  0
   -8.0320   14.8830    2.6790 C   0  0  0  0  0  0  0  0  0  0  0  0
  1  2  1  0
  2  3  2  0
  2  4  1  0
  4  5  2  0
  4  6  1  0
  5  7  1  0
  6  8  2  0
  7  9  2  0
  8  9  1  0
  7 10  1  0
  8 11  1  0
  9 12  1  0
 10 13  1  0
 12 13  1  0
 11 14  2  0
 11 15  1  0
 14 16  1  0
 15 17  2  0
 16 18  2  0
 17 18  1  0
 16 19  1  0
 18 20  1  0
 19 21  1  0
 21 22  2  0
 20 23  2  0
 21 23  1  0
M  END
