mac-x0263-mac-x0412
     RDKit          3D

 14 15  0  0  0  0  0  0  0  0999 V2000
  -11.4800   14.3150    2.4540 O   0  0  0  0  0  0  0  0  0  0  0  0
  -10.8130   15.4410    2.7910 C   0  0  0  0  0  0  0  0  0  0  0  0
  -11.2280   16.2160    3.6360 O   0  0  0  0  0  0  0  0  0  0  0  0
   -9.5380   15.6300    2.0190 C   0  0  0  0  0  0  0  0  0  0  0  0
   -8.9510   14.3100    1.5280 C   0  0  0  0  0  0  0  0  0  0  0  0
   -7.6160   14.5560    0.9250 C   0  0  0  0  0  0  0  0  0  0  0  0
   -7.4570   14.8960   -0.3940 N   0  0  0  0  0  0  0  0  0  0  0  0
   -6.4570   14.5010    1.5370 N   0  0  0  0  0  0  0  0  0  0  0  0
   -6.1200   15.0690   -0.6310 C   0  0  0  0  0  0  0  0  0  0  0  0
   -5.5170   14.8160    0.5930 C   0  0  0  0  0  0  0  0  0  0  0  0
   -5.4100   15.4160   -1.7730 C   0  0  0  0  0  0  0  0  0  0  0  0
   -4.1250   14.9050    0.7100 C   0  0  0  0  0  0  0  0  0  0  0  0
   -4.0210   15.4990   -1.6430 C   0  0  0  0  0  0  0  0  0  0  0  0
   -3.3900   15.2460   -0.4230 C   0  0  0  0  0  0  0  0  0  0  0  0
  1  2  1  0
  2  3  2  0
  2  4  1  0
  4  5  1  0
  5  6  1  0
  6  7  1  0
  6  8  2  0
  7  9  1  0
  8 10  1  0
  9 10  2  0
  9 11  1  0
 10 12  1  0
 11 13  2  0
 12 14  2  0
 13 14  1  0
M  END
