mac-x0436-diamond-x0628_0_A
     RDKit          3D

 17 18  0  0  0  0  0  0  0  0999 V2000
    0.5690   11.2860   -2.8480 O   0  0  0  0  0  0  0  0  0  0  0  0
    1.1990   12.4710   -2.9320 C   0  0  0  0  0  0  0  0  0  0  0  0
    1.4650   13.0700   -1.9080 O   0  0  0  0  0  0  0  0  0  0  0  0
    1.5060   12.9370   -4.3400 C   0  0  0  0  0  0  0  0  0  0  0  0
    0.3660   12.7310   -5.3500 C   0  0  0  0  0  0  0  0  0  0  0  0
   -0.3570   11.3690   -5.2020 C   0  0  1  0  0  0  0  0  0  0  0  0
   -1.8530   11.5100   -4.8510 C   0  0  0  0  0  0  0  0  0  0  0  0
   -0.1040   10.3730   -6.2910 N   0  0  0  0  0  0  0  0  0  0  0  0
   -2.3000   12.3400   -4.0600 O   0  0  0  0  0  0  0  0  0  0  0  0
   -0.3020    8.9900   -5.8400 C   0  0  0  0  0  0  0  0  0  0  0  0
   -2.7120   10.6330   -5.4670 N   0  0  0  0  0  0  0  0  0  0  0  0
   -1.0610   10.4830   -7.3720 C   0  0  2  0  0  0  0  0  0  0  0  0
   -2.4950   10.1540   -6.8240 C   0  0  1  0  0  0  0  0  0  0  0  0
   -0.6100    9.5210   -8.4480 C   0  0  0  0  0  0  0  0  0  0  0  0
   -1.1230    8.2850   -8.5470 C   0  0  0  0  0  0  0  0  0  0  0  0
   -2.7880    8.6770   -6.8170 C   0  0  0  0  0  0  0  0  0  0  0  0
   -2.1380    7.8210   -7.6260 C   0  0  0  0  0  0  0  0  0  0  0  0
  1  2  1  0
  2  3  2  0
  2  4  1  0
  4  5  1  0
  6  5  1  6
  6  7  1  0
  6  8  1  0
  7  9  2  0
  8 10  1  0
  7 11  1  0
  8 12  1  0
 11 13  1  0
 12 13  1  0
 12 14  1  6
 14 15  2  0
 13 16  1  1
 15 17  1  0
 16 17  2  0
M  END
