mac-x0284-mac-x0302
     RDKit          3D

 22 23  0  0  0  0  0  0  0  0999 V2000
   -4.2260   13.3550    0.7470 C   0  0  0  0  0  0  0  0  0  0  0  0
   -3.7270   13.6070   -0.6430 C   0  0  0  0  0  0  0  0  0  0  0  0
   -4.5660   13.4820   -1.7580 C   0  0  0  0  0  0  0  0  0  0  0  0
   -2.4070   13.9780   -0.8370 C   0  0  0  0  0  0  0  0  0  0  0  0
   -1.9230   14.2280   -2.1230 C   0  0  0  0  0  0  0  0  0  0  0  0
   -4.0850   13.7220   -3.0510 C   0  0  0  0  0  0  0  0  0  0  0  0
   -0.5370   14.6850   -2.2510 C   0  0  1  0  0  0  0  0  0  0  0  0
   -2.7640   14.0930   -3.2230 C   0  0  0  0  0  0  0  0  0  0  0  0
   -2.2780   14.3450   -4.4850 O   0  0  0  0  0  0  0  0  0  0  0  0
    0.4500   14.5120   -1.2440 O   0  0  0  0  0  0  0  0  0  0  0  0
   -0.0060   14.3830   -3.5690 O   0  0  0  0  0  0  0  0  0  0  0  0
   -1.0530   15.9910   -2.2420 N   0  0  0  0  0  0  0  0  0  0  0  0
    1.4680   14.3180   -3.4740 O   0  0  0  0  0  0  0  0  0  0  0  0
   -2.4550   16.0590   -2.4400 C   0  0  0  0  0  0  0  0  0  0  0  0
   -2.9520   16.3000   -3.5370 O   0  0  0  0  0  0  0  0  0  0  0  0
   -3.4270   15.8080   -1.2880 C   0  0  0  0  0  0  0  0  0  0  0  0
   -4.8170   15.5820   -1.5050 C   0  0  0  0  0  0  0  0  0  0  0  0
   -2.9450   15.7960    0.0340 C   0  0  0  0  0  0  0  0  0  0  0  0
   -5.6690   15.3490   -0.4220 C   0  0  0  0  0  0  0  0  0  0  0  0
   -3.8130   15.5610    1.1030 C   0  0  0  0  0  0  0  0  0  0  0  0
   -7.0140   15.1260   -0.5860 O   0  0  0  0  0  0  0  0  0  0  0  0
   -5.1710   15.3360    0.8780 C   0  0  0  0  0  0  0  0  0  0  0  0
  1  2  1  0
  2  3  2  0
  2  4  1  0
  4  5  2  0
  3  6  1  0
  5  7  1  0
  5  8  1  0
  6  8  2  0
  8  9  1  0
  7 10  1  1
  7 11  1  0
  7 12  1  0
 11 13  1  0
 12 14  1  0
 14 15  2  0
 14 16  1  0
 16 17  2  0
 16 18  1  0
 17 19  1  0
 18 20  2  0
 19 21  1  0
 19 22  2  0
 20 22  1  0
M  END
