mac-x0510-mac-x0204
     RDKit          3D

 21 23  0  0  0  0  0  0  0  0999 V2000
   -6.0500   15.0310    0.6170 O   0  0  0  0  0  0  0  0  0  0  0  0
   -4.8610   15.2730    0.4460 C   0  0  0  0  0  0  0  0  0  0  0  0
   -4.3860   15.8200   -0.7270 N   0  0  0  0  0  0  0  0  0  0  0  0
   -3.9070   15.0020    1.3760 N   0  0  0  0  0  0  0  0  0  0  0  0
   -2.6360   14.8170    0.9420 C   0  0  0  0  0  0  0  0  0  0  0  0
   -3.2970   15.2910   -1.3740 C   0  0  0  0  0  0  0  0  0  0  0  0
   -3.2730   15.1570   -2.6900 N   0  0  0  0  0  0  0  0  0  0  0  0
   -2.3080   14.9410   -0.3940 C   0  0  0  0  0  0  0  0  0  0  0  0
   -1.5750   14.5120    1.7160 N   0  0  0  0  0  0  0  0  0  0  0  0
   -0.9740   14.6930   -0.4310 N   0  0  0  0  0  0  0  0  0  0  0  0
   -0.5780   14.4410    0.8620 C   0  0  0  0  0  0  0  0  0  0  0  0
   -2.3960   14.5680   -3.6750 C   0  0  0  0  0  0  0  0  0  0  0  0
   -1.0750   14.0360   -3.6050 C   0  0  0  0  0  0  0  0  0  0  0  0
   -3.0280   14.5040   -4.9280 C   0  0  0  0  0  0  0  0  0  0  0  0
   -0.1020   13.9680   -2.4990 C   0  0  0  0  0  0  0  0  0  0  0  0
   -4.2620   15.0310   -5.1120 O   0  0  0  0  0  0  0  0  0  0  0  0
   -2.4410   13.9140   -5.9970 C   0  0  0  0  0  0  0  0  0  0  0  0
   -0.5770   13.4580   -4.7580 C   0  0  0  0  0  0  0  0  0  0  0  0
    0.1030   12.7370   -1.9980 O   0  0  0  0  0  0  0  0  0  0  0  0
    0.5100   14.9490   -2.1000 O   0  0  0  0  0  0  0  0  0  0  0  0
   -1.2310   13.3720   -5.9310 N   0  0  0  0  0  0  0  0  0  0  0  0
  1  2  2  0
  2  3  1  0
  2  4  1  0
  4  5  1  0
  3  6  1  0
  6  7  2  3
  5  8  2  0
  6  8  1  0
  5  9  1  0
  8 10  1  0
  9 11  2  0
 10 11  1  0
  7 12  1  0
 12 13  2  0
 12 14  1  0
 13 15  1  0
 14 16  1  0
 14 17  2  0
 13 18  1  0
 15 19  1  0
 15 20  2  0
 17 21  1  0
 18 21  2  0
M  END
