mac-x0333-mac-x0587
     RDKit          3D

 19 20  0  0  0  0  0  0  0  0999 V2000
   -2.3250   15.0040   -3.3830 C   0  0  0  0  0  0  0  0  0  0  0  0
   -0.8010   14.7640   -3.5330 C   0  0  2  0  0  0  0  0  0  0  0  0
    0.0070   16.0030   -3.9110 C   0  0  0  0  0  0  0  0  0  0  0  0
   -2.8940   15.5770   -4.3180 O   0  0  0  0  0  0  0  0  0  0  0  0
   -3.1540   14.5600   -2.1600 C   0  0  2  0  0  0  0  0  0  0  0  0
   -0.4300   13.4510   -4.7630 S   0  0  0  0  0  0  0  0  0  0  0  0
   -4.6460   14.9370   -2.2640 C   0  0  0  0  0  0  0  0  0  0  0  0
   -2.6160   14.8370   -0.7560 C   0  0  0  0  0  0  0  0  0  0  0  0
   -0.7420   11.9170   -3.8180 C   0  0  0  0  0  0  0  0  0  0  0  0
   -1.3820   14.9070   -0.6170 O   0  0  0  0  0  0  0  0  0  0  0  0
   -5.4260   14.5280   -1.0340 C   0  0  1  0  0  0  0  0  0  0  0  0
   -3.5190   15.0120    0.4780 C   0  0  0  0  0  0  0  0  0  0  0  0
    0.3900   11.4850   -2.9080 C   0  0  0  0  0  0  0  0  0  0  0  0
   -4.9740   15.2780    0.1550 C   0  0  2  0  0  0  0  0  0  0  0  0
   -6.8200   14.8070   -1.0400 O   0  0  0  0  0  0  0  0  0  0  0  0
    0.5980   10.3620   -2.4740 O   0  0  0  0  0  0  0  0  0  0  0  0
    1.2180   12.5090   -2.5790 O   0  0  0  0  0  0  0  0  0  0  0  0
   -5.9490   14.8840    1.1340 O   0  0  0  0  0  0  0  0  0  0  0  0
   -7.1330   14.6170    0.3410 C   0  0  0  0  0  0  0  0  0  0  0  0
  1  2  1  0
  2  3  1  6
  1  4  2  0
  5  1  1  6
  2  6  1  0
  5  7  1  0
  5  8  1  0
  6  9  1  0
  8 10  2  0
 11  7  1  6
  8 12  1  0
  9 13  1  0
 11 14  1  0
 14 12  1  1
 11 15  1  0
 13 16  2  0
 13 17  1  0
 14 18  1  0
 15 19  1  0
 18 19  1  0
M  END
