mac-x0138-diamond-x0626_0_A
     RDKit          3D

 16 17  0  0  0  0  0  0  0  0999 V2000
   -0.9620   14.7530   -3.2930 C   0  0  0  0  0  0  0  0  0  0  0  0
   -2.0220   14.8500   -2.3240 N   0  0  0  0  0  0  0  0  0  0  0  0
   -3.3390   15.0880   -2.5950 C   0  0  0  0  0  0  0  0  0  0  0  0
   -1.8890   14.7220   -0.9650 C   0  0  0  0  0  0  0  0  0  0  0  0
   -4.0660   15.1190   -1.5010 N   0  0  0  0  0  0  0  0  0  0  0  0
   -3.1740   14.8940   -0.4760 C   0  0  0  0  0  0  0  0  0  0  0  0
   -0.7710   14.4820   -0.2500 N   0  0  0  0  0  0  0  0  0  0  0  0
   -3.3320   14.8100    0.9090 C   0  0  0  0  0  0  0  0  0  0  0  0
   -1.0280   14.4170    1.0720 C   0  0  0  0  0  0  0  0  0  0  0  0
   -4.6250   14.9670    1.4390 N   0  0  0  0  0  0  0  0  0  0  0  0
    0.0180   14.1640    1.9400 N   0  0  0  0  0  0  0  0  0  0  0  0
   -2.2190   14.5710    1.6660 N   0  0  0  0  0  0  0  0  0  0  0  0
   -5.8460   14.7700    0.8280 C   0  0  0  0  0  0  0  0  0  0  0  0
   -5.9460   14.9230   -0.3920 O   0  0  0  0  0  0  0  0  0  0  0  0
   -7.0550   14.3730    1.6640 C   0  0  0  0  0  0  0  0  0  0  0  0
   -8.3810   14.6090    0.9450 C   0  0  0  0  0  0  0  0  0  0  0  0
  1  2  1  0
  2  3  1  0
  2  4  1  0
  3  5  2  0
  4  6  2  0
  5  6  1  0
  4  7  1  0
  6  8  1  0
  7  9  2  0
  8 10  1  0
  9 11  1  0
  8 12  2  0
  9 12  1  0
 10 13  1  0
 13 14  2  0
 13 15  1  0
 15 16  1  0
M  END
