mac-x0546-mac-x0223
     RDKit          3D

 17 18  0  0  0  0  0  0  0  0999 V2000
   -4.6150   15.0930   -5.7840 C   0  0  0  0  0  0  0  0  0  0  0  0
   -3.8070   15.8230   -4.8700 O   0  0  0  0  0  0  0  0  0  0  0  0
   -2.4730   15.7390   -5.0640 C   0  0  0  0  0  0  0  0  0  0  0  0
   -1.6890   14.6710   -4.8340 C   0  0  0  0  0  0  0  0  0  0  0  0
   -1.9360   16.9720   -5.5860 C   0  0  0  0  0  0  0  0  0  0  0  0
   -0.2390   14.7520   -5.1490 C   0  0  1  0  0  0  0  0  0  0  0  0
   -0.6440   17.2610   -5.5660 C   0  0  0  0  0  0  0  0  0  0  0  0
    0.2010   16.1920   -4.9470 C   0  0  0  0  0  0  0  0  0  0  0  0
    0.8200   14.1030   -4.3330 C   0  0  0  0  0  0  0  0  0  0  0  0
   -0.0220   18.4880   -6.0910 C   0  0  0  0  0  0  0  0  0  0  0  0
    0.9230   12.6240   -4.1220 C   0  0  0  0  0  0  0  0  0  0  0  0
    1.2710   16.3350   -4.2420 N   0  0  0  0  0  0  0  0  0  0  0  0
    1.6360   15.0590   -3.8790 C   0  0  0  0  0  0  0  0  0  0  0  0
    1.4160   18.5930   -5.7430 C   0  0  0  0  0  0  0  0  0  0  0  0
    0.4320   12.0990   -2.7730 C   0  0  0  0  0  0  0  0  0  0  0  0
    0.5920   12.5580   -1.6450 O   0  0  0  0  0  0  0  0  0  0  0  0
   -0.2650   10.9560   -2.9230 O   0  0  0  0  0  0  0  0  0  0  0  0
  1  2  1  0
  2  3  1  0
  3  4  2  0
  3  5  1  0
  6  4  1  1
  5  7  2  0
  6  8  1  0
  7  8  1  0
  6  9  1  0
  7 10  1  0
  9 11  1  0
  8 12  2  0
  9 13  2  0
 12 13  1  0
 10 14  1  0
 11 15  1  0
 15 16  2  0
 15 17  1  0
M  END
