mac-x0142-mac-x0263
     RDKit          3D

 26 30  0  0  0  0  0  0  0  0999 V2000
  -11.1230   13.9620    2.5170 O   0  0  0  0  0  0  0  0  0  0  0  0
  -10.3660   15.0720    2.5230 C   0  0  0  0  0  0  0  0  0  0  0  0
  -10.5280   15.9130    3.3990 O   0  0  0  0  0  0  0  0  0  0  0  0
   -9.3620   15.1460    1.3900 C   0  0  0  0  0  0  0  0  0  0  0  0
   -8.2770   14.0350    1.3040 C   0  0  0  0  0  0  0  0  0  0  0  0
   -6.9120   14.5820    0.7820 C   0  0  2  0  0  0  0  0  0  0  0  0
   -7.1140   15.3490   -0.4190 N   0  0  0  0  0  0  0  0  0  0  0  0
   -5.8380   13.7240    0.2810 N   0  0  0  0  0  0  0  0  0  0  0  0
   -4.8010   14.7420   -0.0820 C   0  0  1  0  0  0  0  0  0  0  0  0
   -5.7360   15.8060   -0.7110 C   0  0  0  0  0  0  0  0  0  0  0  0
   -3.9570   15.1110    1.0660 N   0  0  0  0  0  0  0  0  0  0  0  0
   -3.8350   14.5120   -1.3030 C   0  0  0  0  0  0  0  0  0  0  0  0
   -2.5920   14.9760    0.6340 C   0  0  0  0  0  0  0  0  0  0  0  0
   -2.4680   14.6770   -0.7180 C   0  0  0  0  0  0  0  0  0  0  0  0
   -1.5540   15.1390    1.4530 N   0  0  0  0  0  0  0  0  0  0  0  0
   -1.1860   14.5840   -1.2650 C   0  0  0  0  0  0  0  0  0  0  0  0
   -0.9010   14.3180   -2.6210 N   0  0  0  0  0  0  0  0  0  0  0  0
   -0.1300   14.7500   -0.4510 N   0  0  0  0  0  0  0  0  0  0  0  0
   -0.3600   15.0080    0.8490 C   0  0  0  0  0  0  0  0  0  0  0  0
   -1.9670   14.3890   -3.6230 C   0  0  0  0  0  0  0  0  0  0  0  0
    0.4250   14.7170   -3.0940 C   0  0  0  0  0  0  0  0  0  0  0  0
    0.8450   13.6780   -4.0930 C   0  0  0  0  0  0  0  0  0  0  0  0
   -1.5820   13.5510   -4.8650 C   0  0  0  0  0  0  0  0  0  0  0  0
    2.3040   13.3000   -4.2770 C   0  0  0  0  0  0  0  0  0  0  0  0
    1.3800   12.3920   -3.5160 C   0  0  0  0  0  0  0  0  0  0  0  0
   -0.0960   13.5730   -5.2680 C   0  0  0  0  0  0  0  0  0  0  0  0
  1  2  1  0
  2  3  2  0
  2  4  1  0
  4  5  1  0
  6  5  1  6
  6  7  1  0
  6  8  1  0
  9  8  1  0
  7 10  1  0
  9 10  1  6
  9 11  1  0
  9 12  1  0
 11 13  1  0
 12 14  1  0
 13 14  2  0
 13 15  1  0
 14 16  1  0
 16 17  1  0
 16 18  2  0
 15 19  2  0
 18 19  1  0
 17 20  1  0
 17 21  1  0
 22 21  1  0
 20 23  1  0
 22 24  1  0
 22 25  1  0
 24 25  1  0
 22 26  1  0
 23 26  1  0
M  END
