mac-x0392-diamond-x0128_0_A
     RDKit          3D

 25 27  0  0  0  0  0  0  0  0999 V2000
    0.2700   13.9040   -0.2060 N   0  0  0  0  0  0  0  0  0  0  0  0
   -0.7200   14.9250    0.1800 C   0  0  2  0  0  0  0  0  0  0  0  0
   -1.7480   14.3490    1.1610 C   0  0  0  0  0  0  0  0  0  0  0  0
   -1.4670   15.5170   -1.0320 C   0  0  1  0  0  0  0  0  0  0  0  0
   -1.1200   14.8270   -2.3390 C   0  0  0  0  0  0  0  0  0  0  0  0
   -2.9640   15.7950   -0.7490 C   0  0  0  0  0  0  0  0  0  0  0  0
   -2.8640   13.7010    0.4640 N   0  0  0  0  0  0  0  0  0  0  0  0
   -1.9080   14.5340   -3.2300 O   0  0  0  0  0  0  0  0  0  0  0  0
    0.1870   14.5470   -2.5040 O   0  0  0  0  0  0  0  0  0  0  0  0
   -3.7910   14.6910   -0.0820 C   0  0  2  0  0  0  0  0  0  0  0  0
   -4.7020   14.1270   -1.2370 C   0  0  0  0  0  0  0  0  0  0  0  0
   -4.6500   15.2140    1.1090 C   0  0  0  0  0  0  0  0  0  0  0  0
   -6.1530   14.5120   -1.1930 C   0  0  0  0  0  0  0  0  0  0  0  0
   -5.9850   14.4510    1.2250 C   0  0  1  0  0  0  0  0  0  0  0  0
   -6.8960   14.8980    2.2790 N   0  0  0  0  0  0  0  0  0  0  0  0
   -6.7580   14.6560   -0.0300 C   0  0  0  0  0  0  0  0  0  0  0  0
   -7.8800   15.2140    3.1050 C   0  0  0  0  0  0  0  0  0  0  0  0
   -8.9930   15.2710    2.6060 O   0  0  0  0  0  0  0  0  0  0  0  0
   -7.5770   15.4720    4.4000 N   0  0  0  0  0  0  0  0  0  0  0  0
   -8.4110   16.1810    5.2880 C   0  0  0  0  0  0  0  0  0  0  0  0
   -9.1410   17.3120    4.9270 C   0  0  0  0  0  0  0  0  0  0  0  0
   -8.5300   15.7430    6.6050 C   0  0  0  0  0  0  0  0  0  0  0  0
   -9.9510   18.0010    5.7670 N   0  0  0  0  0  0  0  0  0  0  0  0
   -9.3570   16.4360    7.4950 C   0  0  0  0  0  0  0  0  0  0  0  0
  -10.0390   17.5510    7.0290 C   0  0  0  0  0  0  0  0  0  0  0  0
  2  1  1  6
  2  3  1  0
  2  4  1  0
  4  5  1  6
  4  6  1  0
  3  7  1  0
  5  8  2  0
  5  9  1  0
 10  6  1  6
 10  7  1  0
 10 11  1  0
 10 12  1  0
 11 13  1  0
 12 14  1  0
 14 15  1  1
 13 16  2  0
 14 16  1  0
 15 17  1  0
 17 18  2  0
 17 19  1  0
 19 20  1  0
 20 21  2  0
 20 22  1  0
 21 23  1  0
 22 24  2  0
 23 25  2  0
 24 25  1  0
M  END
