mac-x0337-mac-x0231
     RDKit          3D

 27 29  0  0  0  0  0  0  0  0999 V2000
   -5.7490    9.1020   -2.0190 C   0  0  0  0  0  0  0  0  0  0  0  0
   -5.3040   10.5270   -1.8330 C   0  0  0  0  0  0  0  0  0  0  0  0
   -6.1110   11.4310   -1.1360 C   0  0  0  0  0  0  0  0  0  0  0  0
   -4.0790   10.9560   -2.3610 C   0  0  0  0  0  0  0  0  0  0  0  0
   -3.6740   12.2810   -2.2050 C   0  0  0  0  0  0  0  0  0  0  0  0
   -5.7100   12.7580   -0.9790 C   0  0  0  0  0  0  0  0  0  0  0  0
   -4.4960   13.1720   -1.5240 C   0  0  0  0  0  0  0  0  0  0  0  0
   -4.0170   14.8570   -1.3550 S   0  0  2  0  0  0  0  0  0  0  0  0
   -4.3200   15.5580   -2.7010 N   0  0  0  0  0  0  0  0  0  0  0  0
   -2.8520   14.9590   -0.5020 O   0  0  0  0  0  0  0  0  0  0  0  0
   -5.1690   15.6290   -0.4140 N   0  0  0  0  0  0  0  0  0  0  0  0
   -4.2600   14.8380   -4.0170 C   0  0  0  0  0  0  0  0  0  0  0  0
   -2.8290   14.5630   -4.2500 C   0  0  0  0  0  0  0  0  0  0  0  0
   -1.9400   15.6330   -4.3400 C   0  0  0  0  0  0  0  0  0  0  0  0
   -2.3790   13.2510   -4.3430 C   0  0  0  0  0  0  0  0  0  0  0  0
   -0.5860   15.3770   -4.4710 C   0  0  0  0  0  0  0  0  0  0  0  0
   -1.0310   13.0000   -4.4740 C   0  0  0  0  0  0  0  0  0  0  0  0
   -0.1410   14.0660   -4.5130 C   0  0  0  0  0  0  0  0  0  0  0  0
    0.3840   16.4770   -4.5430 C   0  0  0  0  0  0  0  0  0  0  0  0
    0.0340   17.6480   -4.6670 O   0  0  0  0  0  0  0  0  0  0  0  0
    1.2990   13.8500   -4.5630 C   0  0  0  0  0  0  0  0  0  0  0  0
    1.6910   16.0920   -4.4640 N   0  0  0  0  0  0  0  0  0  0  0  0
    1.7830   12.4300   -4.5540 C   0  0  0  0  0  0  0  0  0  0  0  0
    2.1510   14.8130   -4.5160 N   0  0  0  0  0  0  0  0  0  0  0  0
    1.3960   11.8830   -3.2110 C   0  0  0  0  0  0  0  0  0  0  0  0
    0.9610   10.6120   -3.2210 O   0  0  0  0  0  0  0  0  0  0  0  0
    1.4400   12.4840   -2.1510 O   0  0  0  0  0  0  0  0  0  0  0  0
  1  2  1  0
  2  3  2  0
  2  4  1  0
  4  5  2  0
  3  6  1  0
  5  7  1  0
  6  7  2  0
  7  8  1  0
  8  9  2  0
  8 10  2  0
  8 11  1  1
  9 12  1  0
 12 13  1  0
 13 14  2  0
 13 15  1  0
 14 16  1  0
 15 17  2  0
 16 18  2  0
 17 18  1  0
 16 19  1  0
 19 20  2  0
 18 21  1  0
 19 22  1  0
 21 23  1  0
 21 24  2  0
 22 24  1  0
 23 25  1  0
 25 26  1  0
 25 27  2  0
M  END
