mac-x0263-mac-x0188
     RDKit          3D

 22 24  0  0  0  0  0  0  0  0999 V2000
  -11.0280   14.0380    2.1980 O   0  0  0  0  0  0  0  0  0  0  0  0
  -10.3140   15.1480    2.4570 C   0  0  0  0  0  0  0  0  0  0  0  0
  -10.7370   15.9890    3.2510 O   0  0  0  0  0  0  0  0  0  0  0  0
   -8.9780   15.2940    1.7230 C   0  0  0  0  0  0  0  0  0  0  0  0
   -8.3150   14.0000    1.1910 C   0  0  0  0  0  0  0  0  0  0  0  0
   -6.9510   14.2290    0.5330 C   0  0  0  0  0  0  0  0  0  0  0  0
   -6.4540   13.5680   -0.6020 N   0  0  0  0  0  0  0  0  0  0  0  0
   -6.0420   15.0870    0.9440 N   0  0  0  0  0  0  0  0  0  0  0  0
   -5.1710   14.0690   -0.8750 C   0  0  0  0  0  0  0  0  0  0  0  0
   -4.9900   15.0010    0.0820 C   0  0  0  0  0  0  0  0  0  0  0  0
   -4.1450   13.7120   -1.9720 C   0  0  0  0  0  0  0  0  0  0  0  0
   -3.8100   15.7710    0.1070 C   0  0  0  0  0  0  0  0  0  0  0  0
   -2.8730   14.7130   -2.1300 C   0  0  2  0  0  0  0  0  0  0  0  0
   -2.8570   15.6820   -0.8800 C   0  0  0  0  0  0  0  0  0  0  0  0
   -3.0370   15.2680   -3.5180 N   0  0  0  0  0  0  0  0  0  0  0  0
   -1.3020   14.4400   -2.4350 C   0  0  1  0  0  0  0  0  0  0  0  0
   -0.2430   13.8380   -1.5260 C   0  0  0  0  0  0  0  0  0  0  0  0
   -1.0650   14.1620   -3.9210 C   0  0  2  0  0  0  0  0  0  0  0  0
   -2.3750   14.3030   -4.4510 O   0  0  0  0  0  0  0  0  0  0  0  0
   -0.2870   12.9280   -4.4020 C   0  0  0  0  0  0  0  0  0  0  0  0
    0.6840   14.4660   -1.0520 O   0  0  0  0  0  0  0  0  0  0  0  0
   -0.3350   12.5060   -1.2720 O   0  0  0  0  0  0  0  0  0  0  0  0
  1  2  1  0
  2  3  2  0
  2  4  1  0
  4  5  1  0
  5  6  1  0
  6  7  1  0
  6  8  2  0
  7  9  1  0
  8 10  1  0
  9 10  2  0
  9 11  1  0
 10 12  1  0
 13 11  1  1
 12 14  2  0
 13 14  1  0
 13 15  1  0
 13 16  1  0
 16 17  1  1
 16 18  1  0
 15 19  1  0
 18 19  1  0
 18 20  1  1
 17 21  2  0
 17 22  1  0
M  END
