mac-x0451-diamond-x0950_0_A
     RDKit          3D

 19 20  0  0  0  0  0  0  0  0999 V2000
   -6.7380   14.7410    2.6120 N   0  0  0  0  0  0  0  0  0  0  0  0
   -5.8740   14.7920    1.5880 C   0  0  0  0  0  0  0  0  0  0  0  0
   -6.2450   14.9560    0.3430 N   0  0  0  0  0  0  0  0  0  0  0  0
   -4.1890   14.6470    1.8470 S   0  0  0  0  0  0  0  0  0  0  0  0
   -5.1310   14.9740   -0.4740 C   0  0  0  0  0  0  0  0  0  0  0  0
   -3.9220   14.8110    0.1840 C   0  0  0  0  0  0  0  0  0  0  0  0
   -5.1130   15.1370   -1.8700 C   0  0  0  0  0  0  0  0  0  0  0  0
   -2.7020   14.7910   -0.4620 C   0  0  0  0  0  0  0  0  0  0  0  0
   -3.8800   15.1210   -2.5400 C   0  0  0  0  0  0  0  0  0  0  0  0
   -2.6860   14.9450   -1.8330 C   0  0  0  0  0  0  0  0  0  0  0  0
   -1.5200   14.9360   -2.5320 O   0  0  0  0  0  0  0  0  0  0  0  0
   -0.3510   14.7120   -1.7170 C   0  0  0  0  0  0  0  0  0  0  0  0
    0.8580   14.2660   -2.5140 C   0  0  0  0  0  0  0  0  0  0  0  0
    1.1970   12.9110   -2.1660 O   0  0  0  0  0  0  0  0  0  0  0  0
    1.0190   12.0100   -3.1630 C   0  0  0  0  0  0  0  0  0  0  0  0
    1.6030   12.5640   -4.4670 C   0  0  1  0  0  0  0  0  0  0  0  0
    0.4770   10.9220   -3.0330 O   0  0  0  0  0  0  0  0  0  0  0  0
    3.1040   12.3270   -4.4650 C   0  0  0  0  0  0  0  0  0  0  0  0
    1.0250   12.0090   -5.6390 O   0  0  0  0  0  0  0  0  0  0  0  0
  1  2  1  0
  2  3  2  0
  2  4  1  0
  3  5  1  0
  4  6  1  0
  5  6  2  0
  5  7  1  0
  6  8  1  0
  7  9  2  0
  8 10  2  0
  9 10  1  0
 10 11  1  0
 11 12  1  0
 12 13  1  0
 13 14  1  0
 14 15  1  0
 15 16  1  0
 15 17  2  0
 16 18  1  1
 16 19  1  0
M  END
