mac-x0123-mac-x0271
     RDKit          3D

 15 17  0  0  0  0  0  0  0  0999 V2000
   -3.4530   14.6430    1.7420 N   0  0  0  0  0  0  0  0  0  0  0  0
   -4.6440   15.0860    1.0260 C   0  0  2  0  0  0  0  0  0  0  0  0
   -5.8370   14.1180    1.2680 C   0  0  2  0  0  0  0  0  0  0  0  0
   -4.2310   15.3600   -0.3320 N   0  0  0  0  0  0  0  0  0  0  0  0
   -5.3410   15.4950   -1.2600 C   0  0  2  0  0  0  0  0  0  0  0  0
   -6.7720   13.9070    0.0510 C   0  0  2  0  0  0  0  0  0  0  0  0
   -6.7470   14.6880    2.3400 C   0  0  0  0  0  0  0  0  0  0  0  0
   -3.2750   14.4170   -0.9220 N   0  0  0  0  0  0  0  0  0  0  0  0
   -6.2460   14.3810   -1.2500 N   0  0  0  0  0  0  0  0  0  0  0  0
   -8.1230   14.4180    0.5840 C   0  0  0  0  0  0  0  0  0  0  0  0
   -8.0170   14.8400    1.9870 C   0  0  0  0  0  0  0  0  0  0  0  0
   -4.6910   15.3390   -2.5650 N   0  0  0  0  0  0  0  0  0  0  0  0
   -3.3690   14.7540   -2.3370 C   0  0  0  0  0  0  0  0  0  0  0  0
   -5.4690   13.3730   -1.9650 O   0  0  0  0  0  0  0  0  0  0  0  0
   -9.2050   14.5130    0.0130 O   0  0  0  0  0  0  0  0  0  0  0  0
  2  1  1  1
  2  3  1  0
  2  4  1  0
  4  5  1  0
  3  6  1  0
  3  7  1  1
  4  8  1  0
  5  9  1  0
  6  9  1  0
  6 10  1  1
  7 11  2  0
 10 11  1  0
  5 12  1  6
  8 13  1  0
 12 13  1  0
  9 14  1  0
 10 15  2  0
M  END
