mac-x0360-mac-x1493
     RDKit          3D

 24 26  0  0  0  0  0  0  0  0999 V2000
   -7.2520   11.7550    1.8800 Cl  0  0  0  0  0  0  0  0  0  0  0  0
   -6.0870   11.7780    0.6120 C   0  0  0  0  0  0  0  0  0  0  0  0
   -6.2850   10.9350   -0.4780 C   0  0  0  0  0  0  0  0  0  0  0  0
   -4.9680   12.6210    0.6730 C   0  0  0  0  0  0  0  0  0  0  0  0
   -4.0450   12.6130   -0.3960 C   0  0  0  0  0  0  0  0  0  0  0  0
   -5.3610   10.9290   -1.5160 C   0  0  0  0  0  0  0  0  0  0  0  0
   -5.5880    9.8770   -2.8570 Cl  0  0  0  0  0  0  0  0  0  0  0  0
   -2.5850   13.6790   -0.4630 S   0  0  0  0  0  0  0  0  0  0  0  0
   -4.2460   11.7620   -1.4850 C   0  0  0  0  0  0  0  0  0  0  0  0
   -2.9340   14.4020   -2.0640 N   0  0  1  0  0  0  0  0  0  0  0  0
   -2.7330   14.7390    0.5270 O   0  0  0  0  0  0  0  0  0  0  0  0
   -1.3780   12.9020   -0.5640 O   0  0  0  0  0  0  0  0  0  0  0  0
   -2.0710   15.4410   -2.3940 O   0  0  0  0  0  0  0  0  0  0  0  0
   -2.8230   13.5600   -3.1270 O   0  0  0  0  0  0  0  0  0  0  0  0
   -4.3350   14.6630   -1.6820 C   0  0  0  0  0  0  0  0  0  0  0  0
   -4.5650   14.6390   -0.3100 C   0  0  0  0  0  0  0  0  0  0  0  0
   -5.4240   14.8850   -2.5000 C   0  0  0  0  0  0  0  0  0  0  0  0
   -5.8130   14.7880    0.2230 C   0  0  0  0  0  0  0  0  0  0  0  0
   -6.6820   15.0520   -2.0100 N   0  0  0  0  0  0  0  0  0  0  0  0
   -6.8740   14.9890   -0.6690 C   0  0  0  0  0  0  0  0  0  0  0  0
   -6.0050   14.7230    1.6110 C   0  0  0  0  0  0  0  0  0  0  0  0
   -8.1380   15.1150   -0.1130 C   0  0  0  0  0  0  0  0  0  0  0  0
   -7.2760   14.8450    2.1450 C   0  0  0  0  0  0  0  0  0  0  0  0
   -8.3510   15.0420    1.2760 C   0  0  0  0  0  0  0  0  0  0  0  0
  1  2  1  0
  2  3  2  0
  2  4  1  0
  4  5  2  0
  3  6  1  0
  6  7  1  0
  8  5  1  0
  5  9  1  0
  6  9  2  0
  8 10  1  0
  8 11  2  0
  8 12  2  0
 10 13  1  6
 10 14  1  0
 10 15  1  0
 15 16  2  0
 15 17  1  0
 16 18  1  0
 17 19  2  0
 18 20  2  0
 19 20  1  0
 18 21  1  0
 20 22  1  0
 21 23  2  0
 22 24  2  0
 23 24  1  0
M  CHG  2  10   1  14  -1
M  END
