mac-x0415-diamond-x0864_0_A
     RDKit          3D

 22 24  0  0  0  0  0  0  0  0999 V2000
    0.5050   10.7320   -2.5260 O   0  0  0  0  0  0  0  0  0  0  0  0
    0.9120   11.9980   -2.7640 C   0  0  0  0  0  0  0  0  0  0  0  0
    1.7700   12.5510   -2.1010 O   0  0  0  0  0  0  0  0  0  0  0  0
    0.1790   12.6650   -3.9150 C   0  0  1  0  0  0  0  0  0  0  0  0
    0.4440   14.0550   -4.3010 C   0  0  0  0  0  0  0  0  0  0  0  0
   -0.2250   11.7490   -5.0270 N   0  0  0  0  0  0  0  0  0  0  0  0
    1.6220   14.8740   -3.9850 C   0  0  0  0  0  0  0  0  0  0  0  0
   -0.2850   14.9130   -4.9220 C   0  0  0  0  0  0  0  0  0  0  0  0
   -1.3080   10.9410   -4.7460 C   0  0  0  0  0  0  0  0  0  0  0  0
    0.5530   11.5690   -6.1860 C   0  0  0  0  0  0  0  0  0  0  0  0
    1.6330   12.1260   -6.3650 O   0  0  0  0  0  0  0  0  0  0  0  0
    1.5970   16.1130   -4.3730 N   0  0  0  0  0  0  0  0  0  0  0  0
    0.3530   16.2310   -5.1240 C   0  0  2  0  0  0  0  0  0  0  0  0
   -1.5930   14.6980   -5.3980 C   0  0  0  0  0  0  0  0  0  0  0  0
   -1.8870   10.1750   -5.6620 C   0  0  0  0  0  0  0  0  0  0  0  0
    0.0200   10.6200   -7.2560 C   0  0  0  0  0  0  0  0  0  0  0  0
   -0.6070   17.3380   -4.8800 C   0  0  0  0  0  0  0  0  0  0  0  0
   -2.4000   15.7410   -5.4660 C   0  0  0  0  0  0  0  0  0  0  0  0
   -1.4080   10.1340   -7.0630 C   0  0  1  0  0  0  0  0  0  0  0  0
   -4.1200   15.4280   -6.0870 Br  0  0  0  0  0  0  0  0  0  0  0  0
   -1.6090    8.2780   -7.6480 Br  0  0  0  0  0  0  0  0  0  0  0  0
   -1.9280   17.0810   -5.0630 C   0  0  0  0  0  0  0  0  0  0  0  0
  1  2  1  0
  2  3  2  0
  4  2  1  6
  4  5  1  0
  4  6  1  0
  5  7  1  0
  5  8  2  0
  6  9  1  0
  6 10  1  0
 10 11  2  0
  7 12  2  0
  8 13  1  0
 12 13  1  0
  8 14  1  0
  9 15  2  0
 10 16  1  0
 13 17  1  1
 14 18  2  0
 15 19  1  0
 16 19  1  0
 18 20  1  0
 19 21  1  1
 17 22  2  0
 18 22  1  0
M  END
