mac-x0451-diamond-x0438_0_A
     RDKit          3D

 16 17  0  0  0  0  0  0  0  0999 V2000
   -6.3100   14.9940    2.9160 N   0  0  0  0  0  0  0  0  0  0  0  0
   -5.8460   14.1020    1.9110 C   0  0  1  0  0  0  0  0  0  0  0  0
   -6.4940   14.5230    0.7020 N   0  0  0  0  0  0  0  0  0  0  0  0
   -4.0670   14.2020    1.7180 S   0  0  0  0  0  0  0  0  0  0  0  0
   -8.0060   14.6490    0.7580 C   0  0  0  0  0  0  0  0  0  0  0  0
   -5.5790   15.2540   -0.2670 C   0  0  1  0  0  0  0  0  0  0  0  0
   -4.1090   15.3110    0.3060 C   0  0  2  0  0  0  0  0  0  0  0  0
   -9.0820   15.2810    2.1320 S   0  0  0  0  0  0  0  0  0  0  0  0
   -5.6240   14.7290   -1.6790 C   0  0  0  0  0  0  0  0  0  0  0  0
   -3.0000   14.7950   -0.6090 C   0  0  0  0  0  0  0  0  0  0  0  0
   -8.1360   15.4750    3.6340 C   0  0  0  0  0  0  0  0  0  0  0  0
  -10.1270   14.3160    2.4560 O   0  0  0  0  0  0  0  0  0  0  0  0
   -9.5280   16.6000    1.7340 O   0  0  0  0  0  0  0  0  0  0  0  0
   -4.5610   14.7160   -2.4890 C   0  0  0  0  0  0  0  0  0  0  0  0
   -3.2570   15.2190   -2.0300 C   0  0  2  0  0  0  0  0  0  0  0  0
   -2.2220   14.8260   -2.8220 F   0  0  0  0  0  0  0  0  0  0  0  0
  2  1  1  1
  2  3  1  0
  2  4  1  0
  3  5  1  0
  3  6  1  0
  4  7  1  0
  6  7  1  0
  8  5  1  0
  6  9  1  6
  7 10  1  6
  8 11  1  0
  8 12  2  0
  8 13  2  0
  9 14  2  0
 10 15  1  0
 14 15  1  0
 15 16  1  6
M  END
