mac-x0263-diamond-x0592_0_A
     RDKit          3D

 18 19  0  0  0  0  0  0  0  0999 V2000
  -11.1000   14.0880    2.6180 O   0  0  0  0  0  0  0  0  0  0  0  0
  -10.2810   15.1500    2.7070 C   0  0  0  0  0  0  0  0  0  0  0  0
  -10.4540   15.9710    3.5990 O   0  0  0  0  0  0  0  0  0  0  0  0
   -9.2020   15.1890    1.6500 C   0  0  0  0  0  0  0  0  0  0  0  0
   -7.8790   14.4800    2.0320 C   0  0  2  0  0  0  0  0  0  0  0  0
   -7.3190   15.1050    3.1990 O   0  0  0  0  0  0  0  0  0  0  0  0
   -6.8640   14.6740    0.9000 C   0  0  0  0  0  0  0  0  0  0  0  0
   -7.2740   14.8400   -0.3670 N   0  0  0  0  0  0  0  0  0  0  0  0
   -5.4270   14.7360    0.8810 N   0  0  0  0  0  0  0  0  0  0  0  0
   -4.2610   14.6660    1.6390 C   0  0  0  0  0  0  0  0  0  0  0  0
   -6.1340   15.0020   -1.1120 C   0  0  0  0  0  0  0  0  0  0  0  0
   -5.0360   14.9430   -0.3360 C   0  0  0  0  0  0  0  0  0  0  0  0
   -4.1450   15.5340    2.6300 N   0  0  0  0  0  0  0  0  0  0  0  0
   -3.3710   13.8930    1.2870 O   0  0  0  0  0  0  0  0  0  0  0  0
   -5.9110   15.2070   -2.4690 C   0  0  0  0  0  0  0  0  0  0  0  0
   -3.7210   15.0720   -0.7430 C   0  0  0  0  0  0  0  0  0  0  0  0
   -4.5760   15.3350   -2.9230 C   0  0  0  0  0  0  0  0  0  0  0  0
   -3.5040   15.2720   -2.0680 C   0  0  0  0  0  0  0  0  0  0  0  0
  1  2  1  0
  2  3  2  0
  2  4  1  0
  4  5  1  0
  5  6  1  1
  5  7  1  0
  7  8  2  0
  7  9  1  0
  9 10  1  0
  8 11  1  0
  9 12  1  0
 11 12  2  0
 10 13  1  0
 10 14  2  0
 11 15  1  0
 12 16  1  0
 15 17  2  0
 16 18  2  0
 17 18  1  0
M  END
