mac-x0565-diamond-x0438_0_A
     RDKit          3D

 26 29  0  0  0  0  0  0  0  0999 V2000
   -7.6220   13.5460   -1.4340 O   0  0  0  0  0  0  0  0  0  0  0  0
   -6.9070   14.7320   -1.3730 C   0  0  0  0  0  0  0  0  0  0  0  0
   -7.7930   15.8040   -1.6330 O   0  0  0  0  0  0  0  0  0  0  0  0
   -5.5840   14.7060   -2.1980 C   0  0  0  0  0  0  0  0  0  0  0  0
   -6.3990   14.7500   -0.0830 N   0  0  0  0  0  0  0  0  0  0  0  0
   -4.2880   14.5810   -1.5790 C   0  0  0  0  0  0  0  0  0  0  0  0
   -5.5980   14.8040   -3.5970 C   0  0  0  0  0  0  0  0  0  0  0  0
   -6.9090   14.4370    1.1660 C   0  0  0  0  0  0  0  0  0  0  0  0
   -5.1350   15.1290   -0.0070 C   0  0  0  0  0  0  0  0  0  0  0  0
   -8.2930   13.9770    1.5230 C   0  0  0  0  0  0  0  0  0  0  0  0
   -3.1300   14.5830   -2.3670 C   0  0  0  0  0  0  0  0  0  0  0  0
   -4.4170   14.8020   -4.3630 C   0  0  0  0  0  0  0  0  0  0  0  0
   -5.9300   14.6010    2.0290 N   0  0  0  0  0  0  0  0  0  0  0  0
   -4.8280   15.0170    1.3010 C   0  0  0  0  0  0  0  0  0  0  0  0
   -4.2500   15.5520   -1.0030 C   0  0  0  0  0  0  0  0  0  0  0  0
   -9.1690   15.2030    2.5250 S   0  0  0  0  0  0  0  0  0  0  0  0
   -3.2070   14.6970   -3.7220 C   0  0  0  0  0  0  0  0  0  0  0  0
   -1.8260   14.4830   -1.9480 O   0  0  0  0  0  0  0  0  0  0  0  0
   -2.9620   15.8600   -0.6190 C   0  0  0  0  0  0  0  0  0  0  0  0
   -3.5220   15.3230    1.6680 C   0  0  0  0  0  0  0  0  0  0  0  0
   -8.1170   15.5370    3.9280 C   0  0  0  0  0  0  0  0  0  0  0  0
  -10.3640   14.5620    3.0510 O   0  0  0  0  0  0  0  0  0  0  0  0
   -9.3410   16.4240    1.7590 O   0  0  0  0  0  0  0  0  0  0  0  0
   -1.9800   14.6920   -4.3150 O   0  0  0  0  0  0  0  0  0  0  0  0
   -1.1540   14.9050   -3.1520 C   0  0  0  0  0  0  0  0  0  0  0  0
   -2.5980   15.7400    0.7010 C   0  0  0  0  0  0  0  0  0  0  0  0
  2  1  1  0
  2  3  1  0
  2  4  1  0
  2  5  1  0
  4  6  2  0
  4  7  1  0
  5  8  1  0
  5  9  1  0
  8 10  1  0
  6 11  1  0
  7 12  2  0
  8 13  2  0
  9 14  2  0
 13 14  1  0
  9 15  1  0
 16 10  1  0
 11 17  2  0
 12 17  1  0
 11 18  1  0
 15 19  2  0
 14 20  1  0
 16 21  1  0
 16 22  2  0
 16 23  2  0
 17 24  1  0
 18 25  1  0
 24 25  1  0
 19 26  1  0
 20 26  2  0
M  END
