mac-x0326-mac-x0115
     RDKit          3D

 21 22  0  0  0  0  0  0  0  0999 V2000
   -6.5470   15.4730   -1.4620 Cl  0  0  0  0  0  0  0  0  0  0  0  0
   -4.8470   15.2550   -1.3580 C   0  0  0  0  0  0  0  0  0  0  0  0
   -4.1100   15.1360   -2.5350 C   0  0  0  0  0  0  0  0  0  0  0  0
   -4.2550   15.2000   -0.0980 C   0  0  0  0  0  0  0  0  0  0  0  0
   -2.7300   14.9540   -2.4510 C   0  0  0  0  0  0  0  0  0  0  0  0
   -2.8840   15.0210    0.0270 C   0  0  0  0  0  0  0  0  0  0  0  0
   -1.8530   14.8150   -3.5670 N   0  0  0  0  0  0  0  0  0  0  0  0
   -2.1630   14.9040   -1.1640 C   0  0  0  0  0  0  0  0  0  0  0  0
   -0.5780   14.6520   -3.2110 C   0  0  0  0  0  0  0  0  0  0  0  0
   -0.5390   14.6910   -1.5020 S   0  0  0  0  0  0  0  0  0  0  0  0
    0.4960   14.4830   -4.2650 C   0  0  2  0  0  0  0  0  0  0  0  0
    0.6310   14.5730   -0.3400 O   0  0  0  0  0  0  0  0  0  0  0  0
    1.6630   13.5550   -3.9410 C   0  0  0  0  0  0  0  0  0  0  0  0
    0.8570   15.8680   -4.7960 C   0  0  0  0  0  0  0  0  0  0  0  0
    1.2250   12.3280   -3.1910 C   0  0  0  0  0  0  0  0  0  0  0  0
   -0.4140   16.5170   -5.0200 O   0  0  0  0  0  0  0  0  0  0  0  0
    0.5070   11.4200   -3.8770 O   0  0  0  0  0  0  0  0  0  0  0  0
    1.5080   12.1730   -2.0270 O   0  0  0  0  0  0  0  0  0  0  0  0
   -0.3490   17.7330   -5.7730 C   0  0  0  0  0  0  0  0  0  0  0  0
   -1.3960   18.7090   -5.2660 C   0  0  0  0  0  0  0  0  0  0  0  0
    1.0560   18.2770   -5.6210 C   0  0  0  0  0  0  0  0  0  0  0  0
  1  2  1  0
  2  3  2  0
  2  4  1  0
  3  5  1  0
  4  6  2  0
  5  7  1  0
  5  8  2  0
  6  8  1  0
  7  9  2  0
  8 10  1  0
  9 10  1  0
  9 11  1  0
 10 12  2  0
 11 13  1  1
 11 14  1  0
 13 15  1  0
 14 16  1  0
 15 17  1  0
 15 18  2  0
 16 19  1  0
 19 20  1  0
 19 21  1  0
M  END
