mac-x0277-diamond-x0967_0_A
     RDKit          3D

 24 26  0  0  0  0  0  0  0  0999 V2000
   -1.3320   18.3540   -5.3710 Cl  0  0  0  0  0  0  0  0  0  0  0  0
   -0.6330   16.8080   -5.0460 C   0  0  0  0  0  0  0  0  0  0  0  0
   -1.3850   15.6220   -5.0510 C   0  0  0  0  0  0  0  0  0  0  0  0
    0.7370   16.7700   -4.7730 C   0  0  0  0  0  0  0  0  0  0  0  0
   -2.8740   15.5460   -5.3250 C   0  0  0  0  0  0  0  0  0  0  0  0
   -0.7200   14.4100   -4.7850 C   0  0  0  0  0  0  0  0  0  0  0  0
    1.3730   15.5560   -4.5080 C   0  0  0  0  0  0  0  0  0  0  0  0
   -3.6060   14.7910   -4.2040 C   0  0  0  0  0  0  0  0  0  0  0  0
    0.6500   14.3620   -4.5150 C   0  0  0  0  0  0  0  0  0  0  0  0
    1.3330   13.0460   -4.2380 C   0  0  0  0  0  0  0  0  0  0  0  0
   -2.8670   14.8740   -2.8630 C   0  0  0  0  0  0  0  0  0  0  0  0
    1.0030   12.4220   -2.8960 C   0  0  0  0  0  0  0  0  0  0  0  0
   -3.7170   14.8660   -1.6170 C   0  0  0  0  0  0  0  0  0  0  0  0
    0.5020   11.1690   -3.0170 O   0  0  0  0  0  0  0  0  0  0  0  0
    1.1520   12.9490   -1.8080 O   0  0  0  0  0  0  0  0  0  0  0  0
   -5.0510   14.7150   -1.7650 N   0  0  0  0  0  0  0  0  0  0  0  0
   -3.1180   15.0120   -0.3730 C   0  0  0  0  0  0  0  0  0  0  0  0
   -5.8360   14.7000   -0.6890 C   0  0  0  0  0  0  0  0  0  0  0  0
   -3.9200   15.0040    0.7520 C   0  0  0  0  0  0  0  0  0  0  0  0
   -7.1500   14.5420   -0.8710 N   0  0  0  0  0  0  0  0  0  0  0  0
   -5.3020   14.8460    0.5990 C   0  0  0  0  0  0  0  0  0  0  0  0
   -6.1800   14.8280    1.6930 C   0  0  0  0  0  0  0  0  0  0  0  0
   -7.9700   14.5200    0.2010 C   0  0  0  0  0  0  0  0  0  0  0  0
   -7.5360   14.6580    1.4970 C   0  0  0  0  0  0  0  0  0  0  0  0
  1  2  1  0
  2  3  2  0
  2  4  1  0
  3  5  1  0
  3  6  1  0
  4  7  2  0
  5  8  1  0
  6  9  2  0
  7  9  1  0
  9 10  1  0
  8 11  1  0
 10 12  1  0
 11 13  1  0
 12 14  1  0
 12 15  2  0
 13 16  2  0
 13 17  1  0
 16 18  1  0
 17 19  2  0
 18 20  2  0
 18 21  1  0
 19 21  1  0
 21 22  2  0
 20 23  1  0
 22 24  1  0
 23 24  2  0
M  END
