mac-x0588-mac-x0455
     RDKit          3D

 27 30  0  0  0  0  0  0  0  0999 V2000
   -4.4390   15.4320    1.3370 N   0  0  0  0  0  0  0  0  0  0  0  0
   -3.6370   14.6470    0.3910 C   0  0  2  0  0  0  0  0  0  0  0  0
   -2.1880   15.0230    0.5530 C   0  0  2  0  0  0  0  0  0  0  0  0
   -3.9150   14.9750   -0.9310 N   0  0  0  0  0  0  0  0  0  0  0  0
   -3.1220   14.0690   -1.7800 C   0  0  0  0  0  0  0  0  0  0  0  0
   -1.2620   14.7550   -0.5920 C   0  0  2  0  0  0  0  0  0  0  0  0
   -1.5870   14.2960    1.6050 N   0  0  0  0  0  0  0  0  0  0  0  0
   -1.9070   14.5270   -1.8050 N   0  0  0  0  0  0  0  0  0  0  0  0
   -0.4700   13.6250   -0.0870 N   0  0  0  0  0  0  0  0  0  0  0  0
   -0.2070   14.1870    1.2520 C   0  0  0  0  0  0  0  0  0  0  0  0
   -1.0890   14.5740   -3.5130 S   0  0  0  0  0  0  0  0  0  0  0  0
   -2.7590   15.0540   -4.0230 C   0  0  0  0  0  0  0  0  0  0  0  0
   -0.1220   15.7430   -2.3970 O   0  0  0  0  0  0  0  0  0  0  0  0
    0.5740   13.9220   -2.7860 C   0  0  0  0  0  0  0  0  0  0  0  0
   -0.4260   15.9230   -4.8260 C   0  0  1  0  0  0  0  0  0  0  0  0
   -1.0780   12.9490   -4.4540 C   0  0  0  0  0  0  0  0  0  0  0  0
    1.5470   14.7100   -2.4960 O   0  0  0  0  0  0  0  0  0  0  0  0
    1.0240   12.7050   -2.4730 O   0  0  0  0  0  0  0  0  0  0  0  0
   -1.2900   17.0150   -4.6400 O   0  0  0  0  0  0  0  0  0  0  0  0
    0.8520   16.4780   -4.7070 C   0  0  0  0  0  0  0  0  0  0  0  0
   -2.0530   11.9820   -4.3570 C   0  0  0  0  0  0  0  0  0  0  0  0
   -0.0780   12.6370   -5.3150 C   0  0  0  0  0  0  0  0  0  0  0  0
    0.8060   17.9050   -5.1820 C   0  0  0  0  0  0  0  0  0  0  0  0
   -0.7010   18.1140   -5.1000 C   0  0  0  0  0  0  0  0  0  0  0  0
   -2.0320   10.7950   -5.0620 C   0  0  0  0  0  0  0  0  0  0  0  0
    0.0290   11.4810   -6.0600 C   0  0  0  0  0  0  0  0  0  0  0  0
   -0.9810   10.6030   -5.8870 C   0  0  0  0  0  0  0  0  0  0  0  0
  2  1  1  1
  2  3  1  0
  2  4  1  0
  4  5  1  0
  3  6  1  0
  3  7  1  1
  5  8  1  0
  6  8  1  0
  6  9  1  1
  7 10  1  0
  9 10  1  0
  8 11  1  0
 11 12  1  0
 11 13  1  0
 11 14  1  0
 15 11  1  1
 11 16  1  0
 14 17  2  0
 14 18  1  0
 15 19  1  0
 15 20  1  0
 16 21  2  0
 16 22  1  0
 20 23  1  0
 19 24  1  0
 23 24  1  0
 21 25  1  0
 22 26  2  0
 25 27  2  0
 26 27  1  0
M  END
