mac-x0179-diamond-x0742_0_A
     RDKit          3D

 34 38  0  0  0  0  0  0  0  0999 V2000
    1.7160   12.9410   -2.4240 O   0  0  0  0  0  0  0  0  0  0  0  0
    0.9750   12.2020   -3.2720 C   0  0  0  0  0  0  0  0  0  0  0  0
    0.6700   11.0540   -2.9890 O   0  0  0  0  0  0  0  0  0  0  0  0
    0.5900   12.9270   -4.5590 C   0  0  0  0  0  0  0  0  0  0  0  0
    0.0030   11.9840   -5.4980 N   0  0  0  0  0  0  0  0  0  0  0  0
    0.7250   11.4710   -6.5220 C   0  0  0  0  0  0  0  0  0  0  0  0
   -1.0080   11.1280   -5.1420 C   0  0  0  0  0  0  0  0  0  0  0  0
    1.8150   11.7950   -6.9090 O   0  0  0  0  0  0  0  0  0  0  0  0
   -1.6050   11.2710   -4.0250 N   0  0  0  0  0  0  0  0  0  0  0  0
   -0.0760   10.3860   -7.0910 C   0  0  0  0  0  0  0  0  0  0  0  0
   -1.1520   10.1680   -6.2430 C   0  0  0  0  0  0  0  0  0  0  0  0
   -2.6760   10.3940   -3.5820 C   0  0  0  0  0  0  0  0  0  0  0  0
    0.1300    9.6600   -8.2490 C   0  0  0  0  0  0  0  0  0  0  0  0
   -2.0850    9.1890   -6.5370 C   0  0  0  0  0  0  0  0  0  0  0  0
   -4.0050   11.1280   -3.7310 C   0  0  0  0  0  0  0  0  0  0  0  0
   -0.8060    8.6680   -8.5540 C   0  0  0  0  0  0  0  0  0  0  0  0
   -1.9040    8.4360   -7.7040 C   0  0  0  0  0  0  0  0  0  0  0  0
   -4.1900   12.2630   -2.7320 C   0  0  0  0  0  0  0  0  0  0  0  0
   -4.9680   11.7720   -1.6070 N   0  0  0  0  0  0  0  0  0  0  0  0
   -5.3280   12.5380   -0.6260 C   0  0  0  0  0  0  0  0  0  0  0  0
   -6.1500   11.9930    0.5290 C   0  0  0  0  0  0  0  0  0  0  0  0
   -4.9380   14.0600   -0.6250 C   0  0  2  0  0  0  0  0  0  0  0  0
   -4.9660   14.7210    0.7580 C   0  0  1  0  0  0  0  0  0  0  0  0
   -6.1170   14.8490   -1.2160 C   0  0  0  0  0  0  0  0  0  0  0  0
   -3.5840   14.4070   -1.3120 C   0  0  0  0  0  0  0  0  0  0  0  0
   -6.4120   14.4940    1.1990 C   0  0  0  0  0  0  0  0  0  0  0  0
   -2.3850   14.3930   -0.3850 C   0  0  0  0  0  0  0  0  0  0  0  0
   -3.8400   14.2710    1.6590 C   0  0  0  0  0  0  0  0  0  0  0  0
   -7.1910   14.7030   -0.1180 C   0  0  0  0  0  0  0  0  0  0  0  0
   -1.0890   14.4430   -0.9070 C   0  0  0  0  0  0  0  0  0  0  0  0
   -2.5130   14.3350    1.0020 C   0  0  0  0  0  0  0  0  0  0  0  0
   -1.4670   14.3320    1.8460 N   0  0  0  0  0  0  0  0  0  0  0  0
    0.0050   14.4360   -0.0500 C   0  0  0  0  0  0  0  0  0  0  0  0
   -0.2450   14.3810    1.3090 C   0  0  0  0  0  0  0  0  0  0  0  0
  1  2  1  0
  2  3  2  0
  2  4  1  0
  4  5  1  0
  5  6  1  0
  5  7  1  0
  6  8  2  0
  7  9  2  3
  6 10  1  0
  7 11  1  0
 10 11  2  0
  9 12  1  0
 10 13  1  0
 11 14  1  0
 12 15  1  0
 13 16  2  0
 14 17  2  0
 16 17  1  0
 15 18  1  0
 18 19  1  0
 19 20  2  3
 20 21  1  0
 22 20  1  1
 22 23  1  0
 22 24  1  0
 22 25  1  0
 23 26  1  1
 25 27  1  0
 23 28  1  0
 24 29  1  0
 26 29  1  0
 27 30  2  0
 27 31  1  0
 28 31  1  0
 31 32  2  0
 30 33  1  0
 32 34  1  0
 33 34  2  0
M  END
