mac-x0455-mac-x0345
     RDKit          3D

 24 25  0  0  0  0  0  0  0  0999 V2000
   -2.1440   14.0300   -2.3770 C   0  0  0  0  0  0  0  0  0  0  0  0
   -1.0370   14.1600   -3.4400 C   0  0  1  0  0  0  0  0  0  0  0  0
   -1.3750   15.3410   -4.2180 O   0  0  0  0  0  0  0  0  0  0  0  0
    0.2530   14.3390   -2.5850 C   0  0  0  0  0  0  0  0  0  0  0  0
   -1.0130   12.9370   -4.3650 C   0  0  0  0  0  0  0  0  0  0  0  0
    0.9880   15.3090   -2.5550 O   0  0  0  0  0  0  0  0  0  0  0  0
    0.5640   13.2800   -1.8010 O   0  0  0  0  0  0  0  0  0  0  0  0
   -2.7330   15.8260   -4.1590 C   0  0  0  0  0  0  0  0  0  0  0  0
   -2.0370   11.9750   -4.3660 C   0  0  0  0  0  0  0  0  0  0  0  0
    0.0660   12.7510   -5.2550 C   0  0  0  0  0  0  0  0  0  0  0  0
   -3.6520   15.1330   -5.1710 C   0  0  0  0  0  0  0  0  0  0  0  0
   -1.9820   10.8740   -5.2220 C   0  0  0  0  0  0  0  0  0  0  0  0
    0.1190   11.6510   -6.1090 C   0  0  0  0  0  0  0  0  0  0  0  0
   -4.8040   14.2670   -4.5990 C   0  0  0  0  0  0  0  0  0  0  0  0
   -0.9090   10.7100   -6.0900 C   0  0  0  0  0  0  0  0  0  0  0  0
   -5.7930   14.8900   -3.6920 N   0  0  0  0  0  0  0  0  0  0  0  0
   -5.5850   14.9870   -2.3250 C   0  0  0  0  0  0  0  0  0  0  0  0
   -4.3360   15.3720   -1.8820 C   0  0  0  0  0  0  0  0  0  0  0  0
   -6.5810   14.7040   -1.4630 N   0  0  0  0  0  0  0  0  0  0  0  0
   -6.3370   14.7960   -0.1350 C   0  0  0  0  0  0  0  0  0  0  0  0
   -4.0840   15.4630   -0.5360 C   0  0  0  0  0  0  0  0  0  0  0  0
   -7.4880   14.4650    0.7710 C   0  0  0  0  0  0  0  0  0  0  0  0
   -5.0890   15.1700    0.3420 C   0  0  0  0  0  0  0  0  0  0  0  0
   -4.6380   15.3180    2.1370 Br  0  0  0  0  0  0  0  0  0  0  0  0
  2  1  1  1
  2  3  1  0
  2  4  1  0
  2  5  1  0
  4  6  2  0
  4  7  1  0
  3  8  1  0
  5  9  2  0
  5 10  1  0
  8 11  1  0
  9 12  1  0
 10 13  2  0
 11 14  1  0
 12 15  2  0
 13 15  1  0
 14 16  1  0
 16 17  1  0
 17 18  2  0
 17 19  1  0
 19 20  2  0
 18 21  1  0
 20 22  1  0
 20 23  1  0
 21 23  2  0
 23 24  1  0
M  END
