mac-x0588-mac-x0417
     RDKit          3D

 30 34  0  0  0  0  0  0  0  0999 V2000
   -4.6060   15.0320    0.7760 N   0  0  0  0  0  0  0  0  0  0  0  0
   -3.5230   15.3980   -0.1190 C   0  0  1  0  0  0  0  0  0  0  0  0
   -2.2310   14.6540    0.1810 C   0  0  1  0  0  0  0  0  0  0  0  0
   -3.9700   15.1240   -1.4720 N   0  0  0  0  0  0  0  0  0  0  0  0
   -2.9590   15.3070   -2.5390 C   0  0  0  0  0  0  0  0  0  0  0  0
   -1.2650   15.1090   -0.8870 C   0  0  2  0  0  0  0  0  0  0  0  0
   -1.4840   14.9900    1.3940 N   0  0  0  0  0  0  0  0  0  0  0  0
   -1.6550   14.7040   -2.2250 N   0  0  0  0  0  0  0  0  0  0  0  0
   -0.0380   14.5090   -0.4170 N   0  0  0  0  0  0  0  0  0  0  0  0
   -0.1240   14.5860    1.0340 C   0  0  0  0  0  0  0  0  0  0  0  0
   -0.5850   14.9000   -3.2620 C   0  0  1  0  0  0  0  0  0  0  0  0
   -0.7520   13.9310   -4.4910 C   0  0  0  0  0  0  0  0  0  0  0  0
   -0.2750   16.3680   -3.7080 C   0  0  2  0  0  0  0  0  0  0  0  0
   -0.3750   12.4310   -4.2910 C   0  0  2  0  0  0  0  0  0  0  0  0
   -1.4130   17.0290   -4.3080 O   0  0  0  0  0  0  0  0  0  0  0  0
    0.7860   16.4320   -4.7910 C   0  0  0  0  0  0  0  0  0  0  0  0
    0.7050   12.0240   -3.3060 C   0  0  0  0  0  0  0  0  0  0  0  0
    0.5910   17.8140   -5.3510 C   0  0  0  0  0  0  0  0  0  0  0  0
   -0.9200   17.9720   -5.2780 C   0  0  0  0  0  0  0  0  0  0  0  0
   -0.1340   11.6470   -5.5590 C   0  0  0  0  0  0  0  0  0  0  0  0
    1.6220   12.9420   -2.9730 O   0  0  0  0  0  0  0  0  0  0  0  0
    0.7790   10.9180   -2.7980 O   0  0  0  0  0  0  0  0  0  0  0  0
    0.9240   11.8230   -6.3760 N   0  0  0  0  0  0  0  0  0  0  0  0
   -0.9810   10.6340   -6.0330 C   0  0  0  0  0  0  0  0  0  0  0  0
    0.7550   10.8960   -7.4070 O   0  0  0  0  0  0  0  0  0  0  0  0
   -0.3870   10.1890   -7.1930 C   0  0  0  0  0  0  0  0  0  0  0  0
   -2.1770   10.0540   -5.5990 C   0  0  0  0  0  0  0  0  0  0  0  0
   -0.9130    9.1720   -7.9840 C   0  0  0  0  0  0  0  0  0  0  0  0
   -2.7350    9.0310   -6.3660 C   0  0  0  0  0  0  0  0  0  0  0  0
   -2.1140    8.5990   -7.5360 C   0  0  0  0  0  0  0  0  0  0  0  0
  2  1  1  1
  2  3  1  0
  2  4  1  0
  4  5  1  0
  3  6  1  0
  3  7  1  1
  5  8  1  0
  6  8  1  0
  6  9  1  1
  7 10  1  0
  9 10  1  0
  8 11  1  0
 11 12  1  6
 11 13  1  0
 14 12  1  6
 13 15  1  0
 13 16  1  6
 14 17  1  0
 16 18  1  0
 15 19  1  0
 18 19  1  0
 14 20  1  0
 17 21  1  0
 17 22  2  0
 20 23  2  0
 20 24  1  0
 23 25  1  0
 24 26  2  0
 25 26  1  0
 24 27  1  0
 26 28  1  0
 27 29  2  0
 28 30  2  0
 29 30  1  0
M  END
