mac-x0380-mac-x0344
     RDKit          3D

 29 31  0  0  0  0  0  0  0  0999 V2000
   -1.4580   15.2830   -2.4480 O   0  0  0  0  0  0  0  0  0  0  0  0
   -2.7230   14.7800   -2.8050 C   0  0  0  0  0  0  0  0  0  0  0  0
   -3.2110   15.5500   -3.8890 O   0  0  0  0  0  0  0  0  0  0  0  0
   -2.4260   13.3590   -3.2710 C   0  0  0  0  0  0  0  0  0  0  0  0
   -3.5930   14.8740   -1.5660 C   0  0  0  0  0  0  0  0  0  0  0  0
   -1.1940   12.8210   -2.5440 C   0  0  0  0  0  0  0  0  0  0  0  0
   -4.9830   14.9480   -1.6290 C   0  0  0  0  0  0  0  0  0  0  0  0
   -2.9910   14.8720   -0.2900 C   0  0  0  0  0  0  0  0  0  0  0  0
    0.0440   13.6620   -2.9250 C   0  0  0  0  0  0  0  0  0  0  0  0
   -5.7580   14.9990   -0.4710 C   0  0  0  0  0  0  0  0  0  0  0  0
   -3.7550   14.9270    0.8770 C   0  0  0  0  0  0  0  0  0  0  0  0
    1.1240   12.8280   -3.5930 C   0  0  0  0  0  0  0  0  0  0  0  0
   -5.1460   14.9820    0.7860 C   0  0  0  0  0  0  0  0  0  0  0  0
   -7.5220   15.0690   -0.6480 S   0  0  0  0  0  0  0  0  0  0  0  0
    1.7330   13.5400   -4.6520 O   0  0  0  0  0  0  0  0  0  0  0  0
    2.1100   12.5430   -2.6260 O   0  0  0  0  0  0  0  0  0  0  0  0
    0.4410   11.5110   -4.0720 C   0  0  0  0  0  0  0  0  0  0  0  0
   -5.8970   15.0100    1.9760 N   0  0  0  0  0  0  0  0  0  0  0  0
   -7.9020   14.1160    0.8300 C   0  0  0  0  0  0  0  0  0  0  0  0
    0.2660   10.5980   -3.2640 O   0  0  0  0  0  0  0  0  0  0  0  0
    0.0870   11.5290   -5.4060 N   0  0  0  0  0  0  0  0  0  0  0  0
   -7.2220   14.6650    2.0590 C   0  0  0  0  0  0  0  0  0  0  0  0
   -7.8440   14.8120    3.1170 O   0  0  0  0  0  0  0  0  0  0  0  0
   -0.7850   10.6180   -6.0170 C   0  0  0  0  0  0  0  0  0  0  0  0
   -0.3910   10.0550   -7.2390 C   0  0  0  0  0  0  0  0  0  0  0  0
   -2.0110   10.2510   -5.4670 C   0  0  0  0  0  0  0  0  0  0  0  0
   -1.2180    9.1370   -7.8930 C   0  0  0  0  0  0  0  0  0  0  0  0
   -2.8380    9.3340   -6.1200 C   0  0  0  0  0  0  0  0  0  0  0  0
   -2.4400    8.7770   -7.3330 C   0  0  0  0  0  0  0  0  0  0  0  0
  2  1  1  0
  2  3  1  0
  2  4  1  0
  2  5  1  0
  4  6  1  0
  5  7  2  0
  5  8  1  0
  6  9  1  0
  7 10  1  0
  8 11  2  0
  9 12  1  0
 10 13  2  0
 11 13  1  0
 10 14  1  0
 12 15  1  0
 12 16  1  0
 12 17  1  0
 13 18  1  0
 14 19  1  0
 17 20  2  0
 17 21  1  0
 18 22  1  0
 19 22  1  0
 22 23  2  0
 21 24  1  0
 24 25  2  0
 24 26  1  0
 25 27  1  0
 26 28  2  0
 27 29  2  0
 28 29  1  0
M  END
