mac-x0568-mac-x0394
     RDKit          3D

 24 25  0  0  0  0  0  0  0  0999 V2000
   -8.7800   14.5980    1.6090 C   0  0  0  0  0  0  0  0  0  0  0  0
   -7.4340   14.6630    0.9650 C   0  0  0  0  0  0  0  0  0  0  0  0
   -6.2860   14.7060    1.7570 C   0  0  0  0  0  0  0  0  0  0  0  0
   -7.3980   14.6810   -0.3820 N   0  0  0  0  0  0  0  0  0  0  0  0
   -6.1810   14.7400   -0.9500 C   0  0  0  0  0  0  0  0  0  0  0  0
   -5.0340   14.7660    1.1490 C   0  0  0  0  0  0  0  0  0  0  0  0
   -5.0040   14.7790   -0.2280 C   0  0  0  0  0  0  0  0  0  0  0  0
   -3.7920   14.8230   -1.0120 C   0  0  0  0  0  0  0  0  0  0  0  0
   -3.9230   14.7140   -2.2640 N   0  0  0  0  0  0  0  0  0  0  0  0
   -2.5650   14.9580   -0.4250 N   0  0  0  0  0  0  0  0  0  0  0  0
   -2.9020   14.7230   -3.2580 C   0  0  0  0  0  0  0  0  0  0  0  0
   -3.5960   15.4170   -4.4040 C   0  0  0  0  0  0  0  0  0  0  0  0
   -2.8640   15.1890   -5.6720 C   0  0  0  0  0  0  0  0  0  0  0  0
   -1.4440   15.3380   -5.2750 C   0  0  0  0  0  0  0  0  0  0  0  0
   -0.6830   14.2210   -4.9370 C   0  0  0  0  0  0  0  0  0  0  0  0
   -0.8840   16.5970   -5.2400 C   0  0  0  0  0  0  0  0  0  0  0  0
    0.6530   14.3590   -4.5580 C   0  0  0  0  0  0  0  0  0  0  0  0
    0.4300   16.7400   -4.8730 C   0  0  0  0  0  0  0  0  0  0  0  0
    1.0530   18.3110   -4.8600 Cl  0  0  0  0  0  0  0  0  0  0  0  0
    1.4530   13.1370   -4.1900 C   0  0  0  0  0  0  0  0  0  0  0  0
    1.2110   15.6380   -4.5290 C   0  0  0  0  0  0  0  0  0  0  0  0
    0.9000   12.4580   -2.9580 C   0  0  0  0  0  0  0  0  0  0  0  0
    0.2580   11.3070   -3.2510 O   0  0  0  0  0  0  0  0  0  0  0  0
    0.9700   12.8290   -1.8010 O   0  0  0  0  0  0  0  0  0  0  0  0
  1  2  1  0
  2  3  2  0
  2  4  1  0
  4  5  2  0
  3  6  1  0
  5  7  1  0
  6  7  2  0
  7  8  1  0
  8  9  2  3
  8 10  1  0
  9 11  1  0
 11 12  1  0
 12 13  1  0
 13 14  1  0
 14 15  2  0
 14 16  1  0
 15 17  1  0
 16 18  2  0
 18 19  1  0
 17 20  1  0
 17 21  2  0
 18 21  1  0
 20 22  1  0
 22 23  1  0
 22 24  2  0
M  END
