mac-x0263-mac-x0510
     RDKit          3D

 20 22  0  0  0  0  0  0  0  0999 V2000
  -11.5250   14.1580    2.2020 O   0  0  0  0  0  0  0  0  0  0  0  0
  -10.8470   15.1990    2.7110 C   0  0  0  0  0  0  0  0  0  0  0  0
  -11.3690   15.9080    3.5580 O   0  0  0  0  0  0  0  0  0  0  0  0
   -9.4740   15.3680    2.1180 C   0  0  0  0  0  0  0  0  0  0  0  0
   -8.9210   14.1250    1.4190 C   0  0  0  0  0  0  0  0  0  0  0  0
   -7.6020   14.4690    0.8250 C   0  0  0  0  0  0  0  0  0  0  0  0
   -7.3360   14.5020   -0.5310 N   0  0  0  0  0  0  0  0  0  0  0  0
   -6.5440   14.7960    1.5120 N   0  0  0  0  0  0  0  0  0  0  0  0
   -6.0270   14.8880   -0.6650 C   0  0  0  0  0  0  0  0  0  0  0  0
   -5.5690   15.0690    0.5980 C   0  0  0  0  0  0  0  0  0  0  0  0
   -5.2670   15.0810   -1.9090 C   0  0  0  0  0  0  0  0  0  0  0  0
   -4.2360   15.5100    0.8700 C   0  0  0  0  0  0  0  0  0  0  0  0
   -4.0130   16.1320    1.8760 O   0  0  0  0  0  0  0  0  0  0  0  0
   -3.7500   15.1910   -1.6370 C   0  0  0  0  0  0  0  0  0  0  0  0
   -3.1770   15.1520   -0.1760 C   0  0  1  0  0  0  0  0  0  0  0  0
   -2.9990   15.3220   -2.6080 O   0  0  0  0  0  0  0  0  0  0  0  0
   -1.9280   16.0240   -0.1400 N   0  0  0  0  0  0  0  0  0  0  0  0
   -2.5920   13.8280    0.2910 C   0  0  0  0  0  0  0  0  0  0  0  0
   -1.4830   14.2460    1.1690 N   0  0  0  0  0  0  0  0  0  0  0  0
   -0.8140   15.2150    0.3620 C   0  0  0  0  0  0  0  0  0  0  0  0
  1  2  1  0
  2  3  2  0
  2  4  1  0
  4  5  1  0
  5  6  1  0
  6  7  1  0
  6  8  2  0
  7  9  1  0
  8 10  1  0
  9 10  2  0
  9 11  1  0
 10 12  1  0
 12 13  2  0
 11 14  1  0
 15 12  1  0
 14 15  1  0
 14 16  2  0
 15 17  1  0
 15 18  1  1
 18 19  1  0
 17 20  1  0
 19 20  1  0
M  END
