mac-x0555-diamond-x0900_0_A
     RDKit          3D

 12 13  0  0  0  0  0  0  0  0999 V2000
   -7.5260   14.3560    3.0330 N   0  0  0  0  0  0  0  0  0  0  0  0
   -7.0230   14.0310    1.6980 C   0  0  1  0  0  0  0  0  0  0  0  0
   -7.9800   14.6320    0.6450 C   0  0  0  0  0  0  0  0  0  0  0  0
   -5.5690   14.5330    1.5810 C   0  0  0  0  0  0  0  0  0  0  0  0
   -5.0760   14.5570    0.1460 C   0  0  1  0  0  0  0  0  0  0  0  0
   -7.4330   14.7280   -0.7040 N   0  0  0  0  0  0  0  0  0  0  0  0
   -6.0630   15.2640   -0.7770 C   0  0  2  0  0  0  0  0  0  0  0  0
   -3.6970   15.1990    0.0070 C   0  0  0  0  0  0  0  0  0  0  0  0
   -5.5900   15.0230   -2.1820 C   0  0  0  0  0  0  0  0  0  0  0  0
   -3.2800   15.2400   -1.4310 C   0  0  0  0  0  0  0  0  0  0  0  0
   -6.3590   14.6940   -3.0610 O   0  0  0  0  0  0  0  0  0  0  0  0
   -4.1350   15.1680   -2.4580 C   0  0  0  0  0  0  0  0  0  0  0  0
  2  1  1  1
  2  3  1  0
  2  4  1  0
  5  4  1  1
  3  6  1  0
  5  7  1  0
  7  6  1  6
  5  8  1  0
  7  9  1  0
  8 10  1  0
  9 11  2  0
  9 12  1  0
 10 12  2  0
M  END
