mac-x0206-mac-x0433
     RDKit          3D

 10 10  0  0  0  0  0  0  0  0999 V2000
   -3.0560   15.0550   -0.3640 N   0  0  0  0  0  0  0  0  0  0  0  0
   -4.2840   15.1500   -0.9590 C   0  0  0  0  0  0  0  0  0  0  0  0
   -4.3960   15.3670   -2.1540 O   0  0  0  0  0  0  0  0  0  0  0  0
   -5.4590   14.9690   -0.0650 C   0  0  0  0  0  0  0  0  0  0  0  0
   -6.7350   14.7670   -0.5970 C   0  0  0  0  0  0  0  0  0  0  0  0
   -5.2870   15.0030    1.3290 C   0  0  0  0  0  0  0  0  0  0  0  0
   -6.9180   14.7320   -1.9440 O   0  0  0  0  0  0  0  0  0  0  0  0
   -7.8370   14.5960    0.2400 C   0  0  0  0  0  0  0  0  0  0  0  0
   -6.4000   14.8340    2.1640 C   0  0  0  0  0  0  0  0  0  0  0  0
   -7.6660   14.6290    1.6220 C   0  0  0  0  0  0  0  0  0  0  0  0
  1  2  1  0
  2  3  2  0
  2  4  1  0
  4  5  2  0
  4  6  1  0
  5  7  1  0
  5  8  1  0
  6  9  2  0
  8 10  2  0
  9 10  1  0
M  END
