mac-x0510-mac-x0283
     RDKit          3D

 14 16  0  0  0  0  0  0  0  0999 V2000
   -3.3260   15.7770   -2.3850 O   0  0  0  0  0  0  0  0  0  0  0  0
   -3.4310   15.6430   -1.1730 C   0  0  0  0  0  0  0  0  0  0  0  0
   -2.3760   15.3580   -0.2800 C   0  0  0  0  0  0  0  0  0  0  0  0
   -4.6190   15.7460   -0.4760 N   0  0  0  0  0  0  0  0  0  0  0  0
   -4.9600   14.6160    0.3820 C   0  0  1  0  0  0  0  0  0  0  0  0
   -2.5780   14.6910    0.8800 C   0  0  0  0  0  0  0  0  0  0  0  0
   -1.0420   15.6220   -0.3100 N   0  0  0  0  0  0  0  0  0  0  0  0
   -3.8050   14.2570    1.2130 N   0  0  0  0  0  0  0  0  0  0  0  0
   -1.4470   14.5290    1.6010 N   0  0  0  0  0  0  0  0  0  0  0  0
   -0.5180   15.1030    0.8480 C   0  0  0  0  0  0  0  0  0  0  0  0
   -6.2580   14.6420    1.2050 C   0  0  0  0  0  0  0  0  0  0  0  0
   -5.4640   13.5620   -0.5750 C   0  0  0  0  0  0  0  0  0  0  0  0
   -7.3260   14.7720    0.1990 N   0  0  0  0  0  0  0  0  0  0  0  0
   -6.7930   14.0140   -0.9390 O   0  0  0  0  0  0  0  0  0  0  0  0
  1  2  2  0
  2  3  1  0
  2  4  1  0
  5  4  1  0
  3  6  2  0
  3  7  1  0
  5  8  1  0
  6  8  1  0
  6  9  1  0
  7 10  1  0
  9 10  2  0
  5 11  1  1
  5 12  1  0
 11 13  1  0
 12 14  1  0
 13 14  1  0
M  END
