mac-x0453-mac-x0433
     RDKit          3D

 16 17  0  0  0  0  0  0  0  0999 V2000
   -6.2920   13.7830    2.4130 N   0  0  0  0  0  0  0  0  0  0  0  0
   -5.0800   13.3120    1.7160 C   0  0  0  0  0  0  0  0  0  0  0  0
   -3.8890   14.3100    1.7700 C   0  0  0  0  0  0  0  0  0  0  0  0
   -3.2550   14.5300    0.4520 C   0  0  0  0  0  0  0  0  0  0  0  0
   -3.8550   14.7640   -0.6780 C   0  0  0  0  0  0  0  0  0  0  0  0
   -1.9160   14.5050    0.2350 N   0  0  0  0  0  0  0  0  0  0  0  0
   -2.9090   14.8900   -1.6510 N   0  0  0  0  0  0  0  0  0  0  0  0
   -1.7400   14.7230   -1.0490 C   0  0  0  0  0  0  0  0  0  0  0  0
   -5.1890   14.8580   -0.9180 C   0  0  0  0  0  0  0  0  0  0  0  0
   -5.4070   14.8340   -2.1970 N   0  0  0  0  0  0  0  0  0  0  0  0
   -6.1130   14.9350    0.0710 C   0  0  0  0  0  0  0  0  0  0  0  0
   -6.6550   14.8770   -2.5240 C   0  0  0  0  0  0  0  0  0  0  0  0
   -7.3980   14.9760   -0.3590 C   0  0  0  0  0  0  0  0  0  0  0  0
   -8.5190   15.0440    0.6300 C   0  0  0  0  0  0  0  0  0  0  0  0
   -6.8800   14.8280   -3.8620 N   0  0  0  0  0  0  0  0  0  0  0  0
   -7.6880   14.9480   -1.6720 N   0  0  0  0  0  0  0  0  0  0  0  0
  1  2  1  0
  2  3  1  0
  3  4  1  0
  4  5  2  0
  4  6  1  0
  5  7  1  0
  6  8  2  0
  7  8  1  0
  5  9  1  0
  9 10  2  0
  9 11  1  0
 10 12  1  0
 11 13  2  0
 13 14  1  0
 12 15  1  0
 12 16  2  0
 13 16  1  0
M  END
