mac-x0159-mac-x0182
     RDKit          3D

 30 34  0  0  0  0  0  0  0  0999 V2000
   -4.2190   15.4230    1.1080 N   0  0  0  0  0  0  0  0  0  0  0  0
   -3.5660   14.7010    0.0260 C   0  0  2  0  0  0  0  0  0  0  0  0
   -2.0860   14.4120    0.3210 C   0  0  1  0  0  0  0  0  0  0  0  0
   -3.8120   15.4810   -1.1610 N   0  0  0  0  0  0  0  0  0  0  0  0
   -3.1450   14.9680   -2.3450 C   0  0  0  0  0  0  0  0  0  0  0  0
   -1.2670   14.1620   -0.9760 C   0  0  1  0  0  0  0  0  0  0  0  0
   -1.2970   15.3610    1.0770 N   0  0  0  0  0  0  0  0  0  0  0  0
   -1.7040   14.8610   -2.1690 N   0  0  0  0  0  0  0  0  0  0  0  0
    0.0850   14.6020   -0.6130 N   0  0  0  0  0  0  0  0  0  0  0  0
    0.0240   14.8560    0.8200 C   0  0  0  0  0  0  0  0  0  0  0  0
   -0.9180   14.5950   -3.4090 C   0  0  1  0  0  0  0  0  0  0  0  0
   -1.6060   13.5810   -4.3940 C   0  0  0  0  0  0  0  0  0  0  0  0
   -0.4550   15.8650   -4.1400 C   0  0  0  0  0  0  0  0  0  0  0  0
   -1.7500   12.1730   -3.9150 N   0  0  0  0  0  0  0  0  0  0  0  0
    0.8330   16.3810   -4.1620 C   0  0  0  0  0  0  0  0  0  0  0  0
   -1.3680   16.6280   -4.8840 N   0  0  0  0  0  0  0  0  0  0  0  0
   -0.7680   17.6680   -5.4280 C   0  0  0  0  0  0  0  0  0  0  0  0
    0.8990   17.8110   -5.1000 S   0  0  0  0  0  0  0  0  0  0  0  0
   -0.6590   11.1560   -4.2230 S   0  0  2  0  0  0  0  0  0  0  0  0
   -1.4330   18.6910   -6.2850 C   0  0  0  0  0  0  0  0  0  0  0  0
    0.0450   10.3250   -3.2780 O   0  0  0  0  0  0  0  0  0  0  0  0
    0.5160   12.0580   -5.0210 N   0  0  0  0  0  0  0  0  0  0  0  0
   -1.0930   10.2010   -5.6080 C   0  0  0  0  0  0  0  0  0  0  0  0
    0.7560   11.5500   -6.2700 C   0  0  0  0  0  0  0  0  0  0  0  0
   -0.2390   10.5210   -6.6520 C   0  0  0  0  0  0  0  0  0  0  0  0
   -2.1010    9.2640   -5.7190 C   0  0  0  0  0  0  0  0  0  0  0  0
    1.6790   11.8620   -6.9810 O   0  0  0  0  0  0  0  0  0  0  0  0
   -2.2380    8.6270   -6.9570 C   0  0  0  0  0  0  0  0  0  0  0  0
   -0.3650    9.8960   -7.8830 C   0  0  0  0  0  0  0  0  0  0  0  0
   -1.3780    8.9390   -8.0300 C   0  0  0  0  0  0  0  0  0  0  0  0
  2  1  1  1
  2  3  1  0
  2  4  1  0
  4  5  1  0
  3  6  1  0
  3  7  1  6
  5  8  1  0
  6  8  1  0
  6  9  1  1
  7 10  1  0
  9 10  1  0
  8 11  1  0
 11 12  1  6
 11 13  1  0
 12 14  1  0
 13 15  2  0
 13 16  1  0
 16 17  2  0
 15 18  1  0
 17 18  1  0
 14 19  2  0
 17 20  1  0
 19 21  2  0
 19 22  1  6
 19 23  1  0
 22 24  1  0
 23 25  2  0
 24 25  1  0
 23 26  1  0
 24 27  2  0
 26 28  2  0
 25 29  1  0
 28 30  1  0
 29 30  2  0
M  END
