mac-x0358-mac-x0124
     RDKit          3D

 23 25  0  0  0  0  0  0  0  0999 V2000
    1.9250   12.3790   -2.4490 O   0  0  0  0  0  0  0  0  0  0  0  0
    0.7940   12.1860   -3.1460 C   0  0  0  0  0  0  0  0  0  0  0  0
    0.4850   11.0680   -3.5180 O   0  0  0  0  0  0  0  0  0  0  0  0
    0.0260   13.4690   -3.3310 C   0  0  1  0  0  0  0  0  0  0  0  0
    0.8370   14.7670   -3.3490 C   0  0  0  0  0  0  0  0  0  0  0  0
   -1.0520   13.5470   -4.4060 C   0  0  0  0  0  0  0  0  0  0  0  0
   -0.0810   15.9670   -3.1290 C   0  0  0  0  0  0  0  0  0  0  0  0
   -1.6270   12.4670   -5.0750 C   0  0  0  0  0  0  0  0  0  0  0  0
   -1.5060   14.8370   -4.7230 C   0  0  0  0  0  0  0  0  0  0  0  0
   -1.2100   11.1940   -4.8000 O   0  0  0  0  0  0  0  0  0  0  0  0
   -2.6330   12.6810   -6.0250 C   0  0  0  0  0  0  0  0  0  0  0  0
   -2.5030   15.0550   -5.6570 C   0  0  0  0  0  0  0  0  0  0  0  0
   -1.2340   15.7390   -2.2530 N   0  0  0  0  0  0  0  0  0  0  0  0
   -3.0680   13.9760   -6.3090 C   0  0  0  0  0  0  0  0  0  0  0  0
   -2.5490   15.8370   -2.6460 C   0  0  0  0  0  0  0  0  0  0  0  0
   -1.1840   15.4060   -0.9200 C   0  0  0  0  0  0  0  0  0  0  0  0
   -3.3430   15.5800   -1.5520 C   0  0  0  0  0  0  0  0  0  0  0  0
   -2.4860   15.3130   -0.4560 C   0  0  0  0  0  0  0  0  0  0  0  0
   -0.0770   15.2130   -0.1980 N   0  0  0  0  0  0  0  0  0  0  0  0
   -2.6560   15.0010    0.8960 C   0  0  0  0  0  0  0  0  0  0  0  0
   -0.3650   14.9090    1.0770 C   0  0  0  0  0  0  0  0  0  0  0  0
   -3.9100   14.9000    1.4760 N   0  0  0  0  0  0  0  0  0  0  0  0
   -1.5740   14.7960    1.6650 N   0  0  0  0  0  0  0  0  0  0  0  0
  1  2  1  0
  2  3  2  0
  2  4  1  0
  4  5  1  6
  4  6  1  0
  5  7  1  0
  6  8  2  0
  6  9  1  0
  8 10  1  0
  8 11  1  0
  9 12  2  0
  7 13  1  0
 11 14  2  0
 12 14  1  0
 13 15  1  0
 13 16  1  0
 15 17  2  0
 16 18  2  0
 17 18  1  0
 16 19  1  0
 18 20  1  0
 19 21  2  0
 20 22  1  0
 20 23  2  0
 21 23  1  0
M  END
