mac-x0510-mac-x0365
     RDKit          3D

 14 15  0  0  0  0  0  0  0  0999 V2000
   -6.1450   14.9860    0.5630 O   0  0  0  0  0  0  0  0  0  0  0  0
   -4.9500   14.9630    0.2840 C   0  0  0  0  0  0  0  0  0  0  0  0
   -4.4470   15.0020   -1.0260 N   0  0  0  0  0  0  0  0  0  0  0  0
   -4.0230   14.8810    1.3100 N   0  0  0  0  0  0  0  0  0  0  0  0
   -5.3660   15.2110   -2.0540 F   0  0  0  0  0  0  0  0  0  0  0  0
   -2.7120   14.7860    1.0550 C   0  0  0  0  0  0  0  0  0  0  0  0
   -3.0780   14.9130   -1.2910 C   0  0  0  0  0  0  0  0  0  0  0  0
   -2.4470   14.9130   -2.6270 C   0  0  0  0  0  0  0  0  0  0  0  0
   -2.2310   14.8110   -0.2900 C   0  0  0  0  0  0  0  0  0  0  0  0
   -1.7260   14.6530    1.8700 N   0  0  0  0  0  0  0  0  0  0  0  0
   -1.0860   14.8560   -2.5540 O   0  0  0  0  0  0  0  0  0  0  0  0
   -3.0050   14.9470   -3.7020 O   0  0  0  0  0  0  0  0  0  0  0  0
   -0.8610   14.7140   -0.2480 N   0  0  0  0  0  0  0  0  0  0  0  0
   -0.6220   14.6290    1.0320 C   0  0  0  0  0  0  0  0  0  0  0  0
  1  2  2  0
  2  3  1  0
  2  4  1  0
  3  5  1  0
  4  6  1  0
  3  7  1  0
  7  8  1  0
  6  9  1  0
  7  9  2  0
  6 10  2  0
  8 11  1  0
  8 12  2  0
  9 13  1  0
 10 14  1  0
 13 14  2  0
M  END
