mac-x0354-mac-x0361
     RDKit          3D

 28 30  0  0  0  0  0  0  0  0999 V2000
    0.5460   11.2160   -8.1880 C   0  0  0  0  0  0  0  0  0  0  0  0
    0.8690   11.6160   -6.8280 N   0  0  0  0  0  0  0  0  0  0  0  0
    1.8530   12.4930   -6.5730 N   0  0  0  0  0  0  0  0  0  0  0  0
    0.2430   11.1620   -5.7110 C   0  0  0  0  0  0  0  0  0  0  0  0
    1.8610   12.5980   -5.2520 C   0  0  0  0  0  0  0  0  0  0  0  0
    0.8830   11.7880   -4.6190 C   0  0  0  0  0  0  0  0  0  0  0  0
   -0.8420   10.2030   -5.8460 C   0  0  0  0  0  0  0  0  0  0  0  0
    0.6600   11.6580   -3.1760 C   0  0  0  0  0  0  0  0  0  0  0  0
   -0.6000    8.8880   -6.2680 C   0  0  0  0  0  0  0  0  0  0  0  0
   -2.1440   10.5970   -5.5650 C   0  0  0  0  0  0  0  0  0  0  0  0
    0.9370   12.6220   -2.3630 N   0  0  0  0  0  0  0  0  0  0  0  0
    0.1800   10.4530   -2.7240 O   0  0  0  0  0  0  0  0  0  0  0  0
   -1.6480    7.9830   -6.4020 C   0  0  0  0  0  0  0  0  0  0  0  0
   -3.1930    9.6890   -5.7040 C   0  0  0  0  0  0  0  0  0  0  0  0
    1.4620   13.9120   -2.8220 C   0  0  0  0  0  0  0  0  0  0  0  0
   -2.9440    8.3890   -6.1180 C   0  0  0  0  0  0  0  0  0  0  0  0
    0.3310   14.8940   -3.1750 C   0  0  0  0  0  0  0  0  0  0  0  0
   -1.0730   14.2880   -3.3510 C   0  0  0  0  0  0  0  0  0  0  0  0
   -2.1850   15.1840   -3.3100 O   0  0  0  0  0  0  0  0  0  0  0  0
   -3.1400   15.0530   -2.3370 C   0  0  0  0  0  0  0  0  0  0  0  0
   -2.9140   14.8730   -0.9750 C   0  0  0  0  0  0  0  0  0  0  0  0
   -4.4530   15.1140   -2.8040 C   0  0  0  0  0  0  0  0  0  0  0  0
   -3.9890   14.7540   -0.0840 C   0  0  0  0  0  0  0  0  0  0  0  0
   -5.5340   14.9990   -1.9240 C   0  0  0  0  0  0  0  0  0  0  0  0
   -5.2990   14.8160   -0.5580 C   0  0  0  0  0  0  0  0  0  0  0  0
   -6.4660   14.6890    0.3570 C   0  0  0  0  0  0  0  0  0  0  0  0
   -6.2590   14.8710    1.7060 N   0  0  0  0  0  0  0  0  0  0  0  0
   -7.5870   14.4440   -0.0690 O   0  0  0  0  0  0  0  0  0  0  0  0
  1  2  1  0
  2  3  1  0
  2  4  1  0
  3  5  2  0
  4  6  2  0
  5  6  1  0
  4  7  1  0
  6  8  1  0
  7  9  2  0
  7 10  1  0
  8 11  2  3
  8 12  1  0
  9 13  1  0
 10 14  2  0
 11 15  1  0
 13 16  2  0
 14 16  1  0
 15 17  1  0
 17 18  1  0
 18 19  1  0
 19 20  1  0
 20 21  2  0
 20 22  1  0
 21 23  1  0
 22 24  2  0
 23 25  2  0
 24 25  1  0
 25 26  1  0
 26 27  1  0
 26 28  2  0
M  END
