mac-x0564-mac-x0277
     RDKit          3D

 25 28  0  0  0  0  0  0  0  0999 V2000
    0.6010   12.8550   -2.1110 N   0  0  0  0  0  0  0  0  0  0  0  0
    1.5930   12.9530   -2.9160 C   0  0  0  0  0  0  0  0  0  0  0  0
    2.7830   12.6110   -2.4490 O   0  0  0  0  0  0  0  0  0  0  0  0
   -0.5470   13.2050   -2.7640 C   0  0  0  0  0  0  0  0  0  0  0  0
    1.6130   13.4130   -4.3580 C   0  0  0  0  0  0  0  0  0  0  0  0
   -1.6380   13.7900   -2.1870 C   0  0  0  0  0  0  0  0  0  0  0  0
   -0.5630   12.9270   -4.0670 N   0  0  0  0  0  0  0  0  0  0  0  0
   -2.7280   14.0830   -2.9930 C   0  0  0  0  0  0  0  0  0  0  0  0
   -1.6560   13.2490   -4.7680 C   0  0  0  0  0  0  0  0  0  0  0  0
   -1.8580   14.1470   -0.9030 O   0  0  0  0  0  0  0  0  0  0  0  0
    0.8310   14.7050   -4.5570 C   0  0  0  0  0  0  0  0  0  0  0  0
   -2.7740   13.8270   -4.3170 N   0  0  0  0  0  0  0  0  0  0  0  0
   -3.1120   14.6590   -0.8910 C   0  0  0  0  0  0  0  0  0  0  0  0
   -3.6880   14.6510   -2.1540 C   0  0  0  0  0  0  0  0  0  0  0  0
   -0.5040   14.7370   -5.0020 C   0  0  0  0  0  0  0  0  0  0  0  0
    1.4510   15.9080   -4.2850 C   0  0  0  0  0  0  0  0  0  0  0  0
   -4.9870   15.1540   -2.3230 C   0  0  0  0  0  0  0  0  0  0  0  0
   -3.7360   15.1220    0.2340 C   0  0  0  0  0  0  0  0  0  0  0  0
   -1.1880   15.9530   -5.1650 C   0  0  0  0  0  0  0  0  0  0  0  0
    0.7870   17.1280   -4.4580 C   0  0  0  0  0  0  0  0  0  0  0  0
   -2.8390   15.9380   -5.6940 Cl  0  0  0  0  0  0  0  0  0  0  0  0
   -5.6450   15.6300   -1.1920 C   0  0  0  0  0  0  0  0  0  0  0  0
   -5.0120   15.5970    0.0510 C   0  0  0  0  0  0  0  0  0  0  0  0
   -0.5340   17.1430   -4.9030 C   0  0  0  0  0  0  0  0  0  0  0  0
   -1.3330   18.6530   -5.1190 Cl  0  0  0  0  0  0  0  0  0  0  0  0
  1  2  2  3
  2  3  1  0
  1  4  1  0
  2  5  1  0
  4  6  1  0
  4  7  2  0
  6  8  2  0
  7  9  1  0
  6 10  1  0
  5 11  1  0
  8 12  1  0
  9 12  2  0
 10 13  1  0
  8 14  1  0
 13 14  2  0
 11 15  2  0
 11 16  1  0
 14 17  1  0
 13 18  1  0
 15 19  1  0
 16 20  2  0
 19 21  1  0
 17 22  2  0
 18 23  2  0
 22 23  1  0
 19 24  2  0
 20 24  1  0
 24 25  1  0
M  END
