mac-x0436-mac-x0546
     RDKit          3D

 27 30  0  0  0  0  0  0  0  0999 V2000
    0.5320   10.5420   -2.2950 O   0  0  0  0  0  0  0  0  0  0  0  0
    0.8650   11.8450   -2.1540 C   0  0  0  0  0  0  0  0  0  0  0  0
    0.6360   12.4300   -1.1220 O   0  0  0  0  0  0  0  0  0  0  0  0
    1.4800   12.4430   -3.3550 C   0  0  0  0  0  0  0  0  0  0  0  0
    0.3570   12.9590   -4.1620 C   0  0  2  0  0  0  0  0  0  0  0  0
   -0.3340   11.9190   -5.0900 C   0  0  0  0  0  0  0  0  0  0  0  0
    0.5720   14.3740   -4.4220 C   0  0  0  0  0  0  0  0  0  0  0  0
   -1.7670   11.5960   -4.6410 C   0  0  0  0  0  0  0  0  0  0  0  0
    0.2170   11.2990   -6.1110 N   0  0  0  0  0  0  0  0  0  0  0  0
   -0.2610   15.1040   -5.3040 C   0  0  1  0  0  0  0  0  0  0  0  0
    1.5010   15.1910   -3.9160 C   0  0  0  0  0  0  0  0  0  0  0  0
   -2.3430   12.3140   -3.8400 O   0  0  0  0  0  0  0  0  0  0  0  0
   -2.3440   10.4810   -5.1770 N   0  0  0  0  0  0  0  0  0  0  0  0
   -0.5230   10.2510   -6.7360 C   0  0  0  0  0  0  0  0  0  0  0  0
   -1.7260   15.1160   -5.1830 C   0  0  0  0  0  0  0  0  0  0  0  0
    0.3240   16.4650   -5.0530 C   0  0  0  0  0  0  0  0  0  0  0  0
    1.3590   16.4890   -4.3060 N   0  0  0  0  0  0  0  0  0  0  0  0
   -1.7850    9.8370   -6.2700 C   0  0  0  0  0  0  0  0  0  0  0  0
    0.0160    9.5790   -7.8390 C   0  0  0  0  0  0  0  0  0  0  0  0
   -2.3690   16.2420   -5.4630 C   0  0  0  0  0  0  0  0  0  0  0  0
   -0.3220   17.6250   -5.6680 C   0  0  0  0  0  0  0  0  0  0  0  0
   -3.7070   16.3640   -5.4450 O   0  0  0  0  0  0  0  0  0  0  0  0
   -0.6900    8.5270   -8.4500 C   0  0  0  0  0  0  0  0  0  0  0  0
   -2.4920    8.7940   -6.8710 C   0  0  0  0  0  0  0  0  0  0  0  0
   -1.6530   17.4650   -5.8430 C   0  0  0  0  0  0  0  0  0  0  0  0
   -4.4570   15.2750   -5.9760 C   0  0  0  0  0  0  0  0  0  0  0  0
   -1.9400    8.1380   -7.9640 C   0  0  0  0  0  0  0  0  0  0  0  0
  1  2  1  0
  2  3  2  0
  2  4  1  0
  5  4  1  6
  5  6  1  0
  5  7  1  0
  6  8  1  0
  6  9  2  0
  7 10  1  0
  7 11  2  0
  8 12  2  0
  8 13  1  0
  9 14  1  0
 10 15  1  1
 10 16  1  0
 11 17  1  0
 16 17  2  0
 13 18  1  0
 14 18  2  0
 14 19  1  0
 15 20  2  0
 16 21  1  0
 20 22  1  0
 19 23  2  0
 18 24  1  0
 20 25  1  0
 21 25  2  0
 22 26  1  0
 23 27  1  0
 24 27  2  0
M  END
