mac-x0394-mac-x0116
     RDKit          3D

 29 32  0  0  0  0  0  0  0  0999 V2000
    1.0140   18.3150   -5.1180 Cl  0  0  0  0  0  0  0  0  0  0  0  0
    0.2030   16.8210   -5.0830 C   0  0  0  0  0  0  0  0  0  0  0  0
   -1.1660   16.8120   -5.2890 C   0  0  0  0  0  0  0  0  0  0  0  0
    0.9140   15.6430   -4.8550 C   0  0  0  0  0  0  0  0  0  0  0  0
    0.2270   14.4230   -4.8360 C   0  0  0  0  0  0  0  0  0  0  0  0
   -1.8340   15.5990   -5.2700 C   0  0  0  0  0  0  0  0  0  0  0  0
   -3.5210   15.5410   -5.5350 Cl  0  0  0  0  0  0  0  0  0  0  0  0
    0.9180   13.1210   -4.5790 C   0  0  0  0  0  0  0  0  0  0  0  0
   -1.1480   14.4170   -5.0460 C   0  0  0  0  0  0  0  0  0  0  0  0
    0.8090   12.9470   -3.1090 C   0  0  0  0  0  0  0  0  0  0  0  0
    0.8270   11.6700   -2.6720 O   0  0  0  0  0  0  0  0  0  0  0  0
    0.6920   13.9250   -2.2870 N   0  0  0  0  0  0  0  0  0  0  0  0
    0.6270   13.7160   -0.8750 C   0  0  0  0  0  0  0  0  0  0  0  0
   -0.5550   14.0920   -0.1250 N   0  0  0  0  0  0  0  0  0  0  0  0
   -1.8150   14.4640   -0.5340 C   0  0  0  0  0  0  0  0  0  0  0  0
   -0.5470   14.1090    1.2420 C   0  0  0  0  0  0  0  0  0  0  0  0
   -2.3080   14.6050   -1.7760 N   0  0  0  0  0  0  0  0  0  0  0  0
   -2.5020   14.6630    0.6580 C   0  0  0  0  0  0  0  0  0  0  0  0
   -1.6980   14.4430    1.7470 N   0  0  0  0  0  0  0  0  0  0  0  0
   -3.6080   14.9780   -1.7370 C   0  0  0  0  0  0  0  0  0  0  0  0
   -3.8510   15.0350    0.5830 C   0  0  0  0  0  0  0  0  0  0  0  0
   -4.6190   15.2330    1.7380 N   0  0  0  0  0  0  0  0  0  0  0  0
   -4.3890   15.1940   -0.6550 N   0  0  0  0  0  0  0  0  0  0  0  0
   -6.0070   14.7840    1.6820 C   0  0  0  0  0  0  0  0  0  0  0  0
   -6.3370   13.3320    1.6850 C   0  0  0  0  0  0  0  0  0  0  0  0
   -6.2200   12.6550    0.5040 O   0  0  0  0  0  0  0  0  0  0  0  0
   -6.7750   12.4830    2.6740 C   0  0  0  0  0  0  0  0  0  0  0  0
   -6.9400   11.2260    2.0730 C   0  0  0  0  0  0  0  0  0  0  0  0
   -6.5890   11.3780    0.7530 C   0  0  0  0  0  0  0  0  0  0  0  0
  1  2  1  0
  2  3  2  0
  2  4  1  0
  4  5  2  0
  3  6  1  0
  6  7  1  0
  5  8  1  0
  5  9  1  0
  6  9  2  0
  8 10  1  0
 10 11  1  0
 10 12  2  3
 12 13  1  0
 13 14  1  0
 14 15  1  0
 14 16  1  0
 15 17  2  0
 15 18  1  0
 16 19  2  0
 18 19  1  0
 17 20  1  0
 18 21  2  0
 21 22  1  0
 20 23  2  0
 21 23  1  0
 22 24  1  0
 24 25  1  0
 25 26  1  0
 25 27  2  0
 27 28  1  0
 26 29  1  0
 28 29  2  0
M  END
