mac-x0375-diamond-x0591_0_A
     RDKit          3D

 26 27  0  0  0  0  0  0  0  0999 V2000
    1.3760   12.8390   -2.6080 O   0  0  0  0  0  0  0  0  0  0  0  0
    0.9130   12.0150   -3.5830 C   0  0  0  0  0  0  0  0  0  0  0  0
    0.4560   10.9140   -3.3200 O   0  0  0  0  0  0  0  0  0  0  0  0
    1.0390   12.5940   -4.9920 C   0  0  1  0  0  0  0  0  0  0  0  0
    0.7390   11.5470   -5.9450 O   0  0  0  0  0  0  0  0  0  0  0  0
    0.1160   13.8230   -5.0780 C   0  0  0  0  0  0  0  0  0  0  0  0
   -1.3310   13.5280   -4.8580 N   0  0  0  0  0  0  0  0  0  0  0  0
   -0.4510   10.8710   -6.0060 C   0  0  0  0  0  0  0  0  0  0  0  0
   -2.3020   14.7050   -4.9630 S   0  0  1  0  0  0  0  0  0  0  0  0
   -0.3710    9.6500   -6.6890 C   0  0  0  0  0  0  0  0  0  0  0  0
   -1.6800   11.2560   -5.4840 C   0  0  0  0  0  0  0  0  0  0  0  0
   -1.2230   15.9650   -4.7470 N   0  0  0  0  0  0  0  0  0  0  0  0
   -3.0350   15.1210   -6.1360 O   0  0  0  0  0  0  0  0  0  0  0  0
   -1.4870    8.8340   -6.8430 C   0  0  0  0  0  0  0  0  0  0  0  0
   -2.8020   10.4420   -5.6380 C   0  0  0  0  0  0  0  0  0  0  0  0
   -3.4180   14.6950   -3.5910 C   0  0  0  0  0  0  0  0  0  0  0  0
   -2.7100    9.2300   -6.3150 C   0  0  0  0  0  0  0  0  0  0  0  0
   -2.9690   14.5480   -2.2760 C   0  0  0  0  0  0  0  0  0  0  0  0
   -4.7700   14.8420   -3.8620 C   0  0  0  0  0  0  0  0  0  0  0  0
   -3.9000   14.5540   -1.2280 C   0  0  0  0  0  0  0  0  0  0  0  0
   -5.6940   14.8520   -2.8240 C   0  0  0  0  0  0  0  0  0  0  0  0
   -5.2660   14.7090   -1.5070 C   0  0  0  0  0  0  0  0  0  0  0  0
   -6.2530   14.7170   -0.4040 C   0  0  0  0  0  0  0  0  0  0  0  0
   -5.8820   14.5500    0.9000 N   0  0  0  0  0  0  0  0  0  0  0  0
   -7.4430   14.8730   -0.6710 O   0  0  0  0  0  0  0  0  0  0  0  0
   -6.7580   14.5330    2.0500 C   0  0  0  0  0  0  0  0  0  0  0  0
  1  2  1  0
  2  3  2  0
  2  4  1  0
  4  5  1  0
  4  6  1  1
  6  7  1  0
  5  8  1  0
  7  9  2  0
  8 10  2  0
  8 11  1  0
  9 12  1  1
  9 13  2  0
 10 14  1  0
 11 15  2  0
  9 16  1  0
 14 17  2  0
 15 17  1  0
 16 18  2  0
 16 19  1  0
 18 20  1  0
 19 21  2  0
 20 22  2  0
 21 22  1  0
 22 23  1  0
 23 24  1  0
 23 25  2  0
 24 26  1  0
M  END
