mac-x0404-mac-x0123
     RDKit          3D

 29 33  0  0  0  0  0  0  0  0999 V2000
    1.1590   12.8910   -1.9740 O   0  0  0  0  0  0  0  0  0  0  0  0
    1.0210   12.1420   -3.0840 C   0  0  0  0  0  0  0  0  0  0  0  0
    0.5200   11.0310   -2.9950 O   0  0  0  0  0  0  0  0  0  0  0  0
    1.5200   12.7910   -4.3690 C   0  0  0  0  0  0  0  0  0  0  0  0
    1.3080   14.1960   -4.3830 O   0  0  0  0  0  0  0  0  0  0  0  0
    0.0240   14.6810   -4.5250 C   0  0  0  0  0  0  0  0  0  0  0  0
   -0.1030   16.0120   -4.9720 C   0  0  0  0  0  0  0  0  0  0  0  0
   -1.1230   13.9610   -4.2540 C   0  0  0  0  0  0  0  0  0  0  0  0
   -1.3680   16.6040   -5.1490 C   0  0  0  0  0  0  0  0  0  0  0  0
   -2.3740   14.5550   -4.4250 C   0  0  0  0  0  0  0  0  0  0  0  0
    1.0090   16.7750   -5.2520 C   0  0  0  0  0  0  0  0  0  0  0  0
   -3.5910   13.7800   -4.1250 C   0  0  0  0  0  0  0  0  0  0  0  0
   -2.4950   15.8610   -4.8720 C   0  0  0  0  0  0  0  0  0  0  0  0
   -1.4770   17.9230   -5.5950 C   0  0  0  0  0  0  0  0  0  0  0  0
    0.9130   18.0920   -5.6930 C   0  0  0  0  0  0  0  0  0  0  0  0
   -0.3370   18.6640   -5.8660 C   0  0  0  0  0  0  0  0  0  0  0  0
   -4.1390   14.0880   -2.7640 C   0  0  0  0  0  0  0  0  0  0  0  0
   -5.4740   14.1780   -2.7300 N   0  0  0  0  0  0  0  0  0  0  0  0
   -3.5100   14.2540   -1.5620 N   0  0  0  0  0  0  0  0  0  0  0  0
   -4.6000   14.4140   -0.7160 N   0  0  0  0  0  0  0  0  0  0  0  0
   -5.7700   14.3630   -1.4950 C   0  0  0  0  0  0  0  0  0  0  0  0
   -4.6930   14.5660    0.7130 C   0  0  0  0  0  0  0  0  0  0  0  0
   -7.0190   14.4650   -0.9970 N   0  0  0  0  0  0  0  0  0  0  0  0
   -3.5310   14.6350    1.4930 N   0  0  0  0  0  0  0  0  0  0  0  0
   -7.0900   14.5450    0.2670 C   0  0  0  0  0  0  0  0  0  0  0  0
   -5.9490   14.5790    1.2210 C   0  0  0  0  0  0  0  0  0  0  0  0
   -6.5160   14.6260    2.5890 C   0  0  0  0  0  0  0  0  0  0  0  0
   -8.4090   14.6360    0.9610 C   0  0  0  0  0  0  0  0  0  0  0  0
   -8.0310   14.7930    2.4330 C   0  0  0  0  0  0  0  0  0  0  0  0
  1  2  1  0
  2  3  2  0
  2  4  1  0
  4  5  1  0
  5  6  1  0
  6  7  2  0
  6  8  1  0
  7  9  1  0
  8 10  2  0
  7 11  1  0
 10 12  1  0
  9 13  2  0
 10 13  1  0
  9 14  1  0
 11 15  2  0
 14 16  2  0
 15 16  1  0
 12 17  1  0
 17 18  1  0
 17 19  2  0
 19 20  1  0
 18 21  2  0
 20 21  1  0
 20 22  1  0
 21 23  1  0
 22 24  1  0
 23 25  2  0
 22 26  2  0
 25 26  1  0
 26 27  1  0
 25 28  1  0
 27 29  1  0
 28 29  1  0
M  END
