mac-x0224-mac-x0358
     RDKit          3D

 21 22  0  0  0  0  0  0  0  0999 V2000
   -5.1200   14.7790    1.5570 C   0  0  0  0  0  0  0  0  0  0  0  0
   -3.3290   15.0200    1.6000 S   0  0  0  0  0  0  0  0  0  0  0  0
   -2.9430   14.9280   -0.1320 C   0  0  0  0  0  0  0  0  0  0  0  0
   -1.6410   14.5800   -0.5160 C   0  0  0  0  0  0  0  0  0  0  0  0
   -3.9180   15.2020   -1.0960 C   0  0  0  0  0  0  0  0  0  0  0  0
   -1.3000   14.4990   -1.8650 C   0  0  0  0  0  0  0  0  0  0  0  0
   -3.5970   15.1230   -2.4390 C   0  0  0  0  0  0  0  0  0  0  0  0
    0.1000   14.1300   -2.2730 C   0  0  0  0  0  0  0  0  0  0  0  0
   -2.3060   14.7750   -2.8120 C   0  0  0  0  0  0  0  0  0  0  0  0
   -2.1220   14.7310   -4.1470 O   0  0  0  0  0  0  0  0  0  0  0  0
    1.0020   14.3960   -1.4680 O   0  0  0  0  0  0  0  0  0  0  0  0
    0.3290   13.5120   -3.5060 N   0  0  0  0  0  0  0  0  0  0  0  0
    0.9310   12.2610   -3.4460 C   0  0  0  0  0  0  0  0  0  0  0  0
   -0.7610   13.7110   -4.4300 C   0  0  0  0  0  0  0  0  0  0  0  0
    0.5740   11.2890   -2.7800 O   0  0  0  0  0  0  0  0  0  0  0  0
   -1.4650   12.6770   -5.0910 C   0  0  0  0  0  0  0  0  0  0  0  0
   -1.1840   15.0350   -4.6880 C   0  0  0  0  0  0  0  0  0  0  0  0
   -1.1770   11.3410   -4.9550 O   0  0  0  0  0  0  0  0  0  0  0  0
   -2.5380   12.9570   -5.9460 C   0  0  0  0  0  0  0  0  0  0  0  0
   -2.2620   15.3150   -5.5400 C   0  0  0  0  0  0  0  0  0  0  0  0
   -2.9400   14.2740   -6.1690 C   0  0  0  0  0  0  0  0  0  0  0  0
  1  2  1  0
  2  3  1  0
  3  4  2  0
  3  5  1  0
  4  6  1  0
  5  7  2  0
  6  8  1  0
  6  9  2  0
  7  9  1  0
  9 10  1  0
  8 11  2  0
  8 12  1  0
 12 13  1  0
 12 14  1  0
 13 15  2  0
 14 16  2  0
 14 17  1  0
 16 18  1  0
 16 19  1  0
 17 20  2  0
 19 21  2  0
 20 21  1  0
M  END
