mac-x0375-mac-x0326
     RDKit          3D

 22 24  0  0  0  0  0  0  0  0999 V2000
    2.0560   12.6670   -2.7490 O   0  0  0  0  0  0  0  0  0  0  0  0
    1.0640   11.9370   -3.2880 C   0  0  0  0  0  0  0  0  0  0  0  0
    0.7540   10.8370   -2.8660 O   0  0  0  0  0  0  0  0  0  0  0  0
    0.3580   12.5980   -4.4550 C   0  0  2  0  0  0  0  0  0  0  0  0
    0.5390   12.0130   -5.7440 O   0  0  0  0  0  0  0  0  0  0  0  0
    0.5080   14.1190   -4.3120 C   0  0  0  0  0  0  0  0  0  0  0  0
   -0.3830   11.0310   -6.0430 C   0  0  0  0  0  0  0  0  0  0  0  0
   -0.5640   14.4430   -3.3100 C   0  0  0  0  0  0  0  0  0  0  0  0
   -0.2180    9.9040   -6.8520 C   0  0  0  0  0  0  0  0  0  0  0  0
   -1.6290   11.2330   -5.4280 C   0  0  0  0  0  0  0  0  0  0  0  0
   -1.8030   14.6910   -3.6490 N   0  0  0  0  0  0  0  0  0  0  0  0
   -0.2360   14.4550   -1.6150 S   0  0  0  0  0  0  0  0  0  0  0  0
   -1.2770    9.0040   -7.0320 C   0  0  0  0  0  0  0  0  0  0  0  0
   -2.6830   10.3390   -5.6080 C   0  0  0  0  0  0  0  0  0  0  0  0
   -2.5780   14.8790   -2.5240 C   0  0  0  0  0  0  0  0  0  0  0  0
   -1.9020   14.7830   -1.3040 C   0  0  0  0  0  0  0  0  0  0  0  0
   -2.5070    9.2190   -6.4110 C   0  0  0  0  0  0  0  0  0  0  0  0
   -3.9510   15.1450   -2.5330 C   0  0  0  0  0  0  0  0  0  0  0  0
   -2.5740   14.9440   -0.0740 C   0  0  0  0  0  0  0  0  0  0  0  0
   -4.6200   15.3030   -1.3220 C   0  0  0  0  0  0  0  0  0  0  0  0
   -3.9460   15.2070   -0.1080 C   0  0  0  0  0  0  0  0  0  0  0  0
   -6.3070   15.6150   -1.3380 Cl  0  0  0  0  0  0  0  0  0  0  0  0
  1  2  1  0
  2  3  2  0
  2  4  1  0
  4  5  1  0
  4  6  1  6
  5  7  1  0
  6  8  1  0
  7  9  2  0
  7 10  1  0
  8 11  2  0
  8 12  1  0
  9 13  1  0
 10 14  2  0
 11 15  1  0
 12 16  1  0
 15 16  2  0
 13 17  2  0
 14 17  1  0
 15 18  1  0
 16 19  1  0
 18 20  2  0
 19 21  2  0
 20 21  1  0
 20 22  1  0
M  END
