mac-x0284-diamond-x0282_0_A
     RDKit          3D

 24 26  0  0  0  0  0  0  0  0999 V2000
   -4.3960   15.8820   -0.1780 C   0  0  0  0  0  0  0  0  0  0  0  0
   -3.7810   15.4300   -1.4780 C   0  0  0  0  0  0  0  0  0  0  0  0
   -4.5770   15.4280   -2.6080 C   0  0  0  0  0  0  0  0  0  0  0  0
   -2.4450   15.0150   -1.6200 C   0  0  0  0  0  0  0  0  0  0  0  0
   -1.8910   14.6280   -2.8340 C   0  0  0  0  0  0  0  0  0  0  0  0
   -4.0440   15.0380   -3.8310 C   0  0  0  0  0  0  0  0  0  0  0  0
   -1.5980   14.9700   -0.5750 N   0  0  0  0  0  0  0  0  0  0  0  0
   -0.4280   14.2140   -2.8720 C   0  0  0  0  0  0  0  0  0  0  0  0
   -2.7150   14.6500   -3.9380 C   0  0  0  0  0  0  0  0  0  0  0  0
   -0.3880   14.4790   -0.8380 C   0  0  0  0  0  0  0  0  0  0  0  0
   -2.2620   14.6700    0.6730 C   0  0  1  0  0  0  0  0  0  0  0  0
   -2.2710   14.2970   -5.1760 O   0  0  0  0  0  0  0  0  0  0  0  0
    0.1760   14.3730   -4.1540 O   0  0  0  0  0  0  0  0  0  0  0  0
   -3.4400   13.8180    0.6840 N   0  0  0  0  0  0  0  0  0  0  0  0
    0.3550   14.0150    0.0790 C   0  0  0  0  0  0  0  0  0  0  0  0
   -1.4570   14.2730    1.7890 N   0  0  0  0  0  0  0  0  0  0  0  0
   -4.1720   13.8540    1.8910 C   0  0  0  0  0  0  0  0  0  0  0  0
   -4.1410   13.3950   -0.5130 C   0  0  0  0  0  0  0  0  0  0  0  0
   -0.0730   14.0060    1.5090 C   0  0  0  0  0  0  0  0  0  0  0  0
   -5.3450   14.8110    1.7700 C   0  0  0  0  0  0  0  0  0  0  0  0
   -5.6410   13.7790   -0.6130 C   0  0  0  0  0  0  0  0  0  0  0  0
   -6.2820   14.5300    0.5690 C   0  0  0  0  0  0  0  0  0  0  0  0
   -7.5690   13.8540    1.0270 C   0  0  0  0  0  0  0  0  0  0  0  0
   -8.6860   14.4370    0.3650 O   0  0  0  0  0  0  0  0  0  0  0  0
  1  2  1  0
  2  3  2  0
  2  4  1  0
  4  5  2  0
  3  6  1  0
  4  7  1  0
  5  8  1  0
  5  9  1  0
  6  9  2  0
  7 10  1  0
  7 11  1  0
  9 12  1  0
  8 13  1  0
 11 14  1  6
 10 15  2  0
 11 16  1  0
 14 17  1  0
 14 18  1  0
 15 19  1  0
 16 19  1  0
 17 20  1  0
 18 21  1  0
 20 22  1  0
 21 22  1  0
 22 23  1  0
 23 24  1  0
M  END
