mac-x0226-mac-x0411
     RDKit          3D

 24 26  0  0  0  0  0  0  0  0999 V2000
    1.6100   12.3200   -2.4380 O   0  0  0  0  0  0  0  0  0  0  0  0
    0.4630   12.1000   -3.2440 C   0  0  0  0  0  0  0  0  0  0  0  0
   -0.5140   13.0320   -2.8240 O   0  0  0  0  0  0  0  0  0  0  0  0
   -0.0440   10.6610   -3.0740 C   0  0  0  0  0  0  0  0  0  0  0  0
    0.7790   12.1170   -4.6800 C   0  0  0  0  0  0  0  0  0  0  0  0
    0.0100   10.0150   -4.3830 O   0  0  0  0  0  0  0  0  0  0  0  0
    1.8310   12.6880   -5.4020 C   0  0  0  0  0  0  0  0  0  0  0  0
    0.0310   11.4950   -5.6360 C   0  0  0  0  0  0  0  0  0  0  0  0
    1.7360   12.4140   -6.7040 N   0  0  0  0  0  0  0  0  0  0  0  0
    0.6080   11.6640   -6.8390 N   0  0  0  0  0  0  0  0  0  0  0  0
   -1.1690    9.8810   -5.1060 C   0  0  0  0  0  0  0  0  0  0  0  0
    0.0870   11.1080   -8.0470 C   0  0  0  0  0  0  0  0  0  0  0  0
   -2.3260   10.6660   -4.8860 C   0  0  0  0  0  0  0  0  0  0  0  0
   -1.2350    8.9000   -6.1370 C   0  0  0  0  0  0  0  0  0  0  0  0
    0.0540    7.8550   -6.5970 Cl  0  0  0  0  0  0  0  0  0  0  0  0
   -2.4560   11.9220   -3.7080 Cl  0  0  0  0  0  0  0  0  0  0  0  0
   -1.2190   10.6220   -8.0420 C   0  0  0  0  0  0  0  0  0  0  0  0
    0.8190   11.0130   -9.2340 C   0  0  0  0  0  0  0  0  0  0  0  0
   -3.4780   10.4610   -5.6440 C   0  0  0  0  0  0  0  0  0  0  0  0
   -2.3980    8.7150   -6.8780 C   0  0  0  0  0  0  0  0  0  0  0  0
   -1.7740   10.0520   -9.1900 C   0  0  0  0  0  0  0  0  0  0  0  0
    0.2700   10.4490  -10.3770 C   0  0  0  0  0  0  0  0  0  0  0  0
   -3.5180    9.4900   -6.6320 C   0  0  0  0  0  0  0  0  0  0  0  0
   -1.0270    9.9660  -10.3580 C   0  0  0  0  0  0  0  0  0  0  0  0
  2  1  1  0
  2  3  1  0
  2  4  1  0
  2  5  1  0
  4  6  1  0
  5  7  1  0
  5  8  2  0
  7  9  2  0
  8 10  1  0
  9 10  1  0
  6 11  1  0
 10 12  1  0
 11 13  2  0
 11 14  1  0
 14 15  1  0
 13 16  1  0
 12 17  2  0
 12 18  1  0
 13 19  1  0
 14 20  2  0
 17 21  1  0
 18 22  2  0
 19 23  2  0
 20 23  1  0
 21 24  2  0
 22 24  1  0
M  END
