mac-x0224-mac-x0115
     RDKit          3D

 21 22  0  0  0  0  0  0  0  0999 V2000
   -5.0800   14.9470    1.1800 C   0  0  0  0  0  0  0  0  0  0  0  0
   -3.2770   15.0120    1.2140 S   0  0  0  0  0  0  0  0  0  0  0  0
   -2.8870   14.8710   -0.4780 C   0  0  0  0  0  0  0  0  0  0  0  0
   -1.5890   14.1490   -0.8430 C   0  0  1  0  0  0  0  0  0  0  0  0
   -3.7050   15.3950   -1.4170 C   0  0  0  0  0  0  0  0  0  0  0  0
   -1.0570   14.4840   -2.2790 C   0  0  1  0  0  0  0  0  0  0  0  0
   -3.3850   15.3120   -2.8180 C   0  0  0  0  0  0  0  0  0  0  0  0
   -0.5180   14.5400    0.2090 C   0  0  0  0  0  0  0  0  0  0  0  0
   -0.2630   13.3760   -3.0030 C   0  0  0  0  0  0  0  0  0  0  0  0
   -0.7980   14.8880    1.3550 O   0  0  0  0  0  0  0  0  0  0  0  0
   -2.1770   14.9080   -3.2390 C   0  0  0  0  0  0  0  0  0  0  0  0
    0.0650   15.3830   -2.1930 N   0  0  0  0  0  0  0  0  0  0  0  0
    0.7950   14.4820   -0.1940 N   0  0  0  0  0  0  0  0  0  0  0  0
   -1.9120   14.8420   -4.5930 O   0  0  0  0  0  0  0  0  0  0  0  0
    0.3220   13.8400   -4.2520 O   0  0  0  0  0  0  0  0  0  0  0  0
    1.0170   14.9070   -1.3680 C   0  0  0  0  0  0  0  0  0  0  0  0
    0.5760   15.2610   -4.4960 C   0  0  0  0  0  0  0  0  0  0  0  0
   -0.6010   16.0320   -4.8160 O   0  0  0  0  0  0  0  0  0  0  0  0
   -0.4090   17.2960   -5.5020 C   0  0  0  0  0  0  0  0  0  0  0  0
   -1.4660   18.3040   -5.0850 C   0  0  0  0  0  0  0  0  0  0  0  0
    0.9770   17.8200   -5.2140 C   0  0  0  0  0  0  0  0  0  0  0  0
  1  2  1  0
  2  3  1  0
  4  3  1  1
  3  5  2  0
  4  6  1  0
  5  7  1  0
  4  8  1  0
  6  9  1  6
  8 10  2  0
  6 11  1  0
  7 11  2  0
  6 12  1  0
  8 13  1  0
 11 14  1  0
  9 15  1  0
 12 16  1  0
 13 16  2  0
 15 17  1  0
 17 18  1  0
 18 19  1  0
 19 20  1  0
 19 21  1  0
M  END
