mac-x0228-mac-x0441
     RDKit          3D

 30 33  0  0  0  0  0  0  0  0999 V2000
   -1.0530   14.6780   -1.9800 O   0  0  0  0  0  0  0  0  0  0  0  0
   -2.0350   14.6070   -2.8870 C   0  0  0  0  0  0  0  0  0  0  0  0
   -1.7330   14.3690   -4.1320 N   0  0  0  0  0  0  0  0  0  0  0  0
   -3.3650   14.7800   -2.2570 C   0  0  0  0  0  0  0  0  0  0  0  0
   -0.3510   14.1220   -4.6360 C   0  0  0  0  0  0  0  0  0  0  0  0
   -3.5320   14.6550   -0.8640 C   0  0  0  0  0  0  0  0  0  0  0  0
   -4.4740   15.0480   -3.0740 C   0  0  0  0  0  0  0  0  0  0  0  0
   -0.0900   12.5920   -4.6010 C   0  0  2  0  0  0  0  0  0  0  0  0
   -4.8080   14.7870   -0.3490 C   0  0  0  0  0  0  0  0  0  0  0  0
   -5.7520   15.1850   -2.5240 C   0  0  0  0  0  0  0  0  0  0  0  0
    0.8200   12.1650   -3.4730 C   0  0  0  0  0  0  0  0  0  0  0  0
   -5.8960   15.0480   -1.1640 C   0  0  0  0  0  0  0  0  0  0  0  0
   -5.2820   14.6790    1.0450 C   0  0  0  0  0  0  0  0  0  0  0  0
   -0.0400   11.7880   -5.8570 N   0  0  0  0  0  0  0  0  0  0  0  0
    0.6930   10.8820   -3.0750 O   0  0  0  0  0  0  0  0  0  0  0  0
    1.6150   12.9220   -2.9310 O   0  0  0  0  0  0  0  0  0  0  0  0
   -7.0860   15.1420   -0.4850 O   0  0  0  0  0  0  0  0  0  0  0  0
   -6.7770   14.4990    0.7730 C   0  0  0  0  0  0  0  0  0  0  0  0
    0.8420   11.9110   -6.9220 N   0  0  0  0  0  0  0  0  0  0  0  0
   -0.9270   10.7800   -6.0790 C   0  0  0  0  0  0  0  0  0  0  0  0
    0.4400   10.9220   -7.8060 C   0  0  0  0  0  0  0  0  0  0  0  0
   -0.6480   10.2210   -7.2840 C   0  0  0  0  0  0  0  0  0  0  0  0
   -2.0140   10.3510   -5.1820 C   0  0  0  0  0  0  0  0  0  0  0  0
    0.9680   10.5110   -9.1750 C   0  0  0  0  0  0  0  0  0  0  0  0
   -1.4060    9.0860   -7.8670 C   0  0  0  0  0  0  0  0  0  0  0  0
   -2.9990    9.4340   -5.9280 C   0  0  0  0  0  0  0  0  0  0  0  0
    1.6400    9.3290   -9.1570 F   0  0  0  0  0  0  0  0  0  0  0  0
   -0.0780   10.2920  -10.0090 F   0  0  0  0  0  0  0  0  0  0  0  0
    1.7040   11.3920   -9.8660 F   0  0  0  0  0  0  0  0  0  0  0  0
   -2.2710    8.4050   -6.7970 C   0  0  0  0  0  0  0  0  0  0  0  0
  1  2  1  0
  2  3  2  3
  2  4  1  0
  3  5  1  0
  4  6  2  0
  4  7  1  0
  8  5  1  6
  6  9  1  0
  7 10  2  0
  8 11  1  0
  9 12  2  0
 10 12  1  0
  9 13  1  0
  8 14  1  0
 11 15  1  0
 11 16  2  0
 12 17  1  0
 13 18  1  0
 17 18  1  0
 14 19  1  0
 14 20  1  0
 19 21  2  0
 20 22  2  0
 21 22  1  0
 20 23  1  0
 21 24  1  0
 22 25  1  0
 23 26  1  0
 24 27  1  0
 24 28  1  0
 24 29  1  0
 25 30  1  0
 26 30  1  0
M  END
