mac-x0190-diamond-x0290_0_A
     RDKit          3D

 23 25  0  0  0  0  0  0  0  0999 V2000
   -9.4910   14.2360    1.0160 O   0  0  0  0  0  0  0  0  0  0  0  0
   -8.2700   14.2600    1.7150 C   0  0  1  0  0  0  0  0  0  0  0  0
   -7.7840   12.9340    1.9710 N   0  0  0  0  0  0  0  0  0  0  0  0
   -7.1590   14.6800    0.8770 C   0  0  0  0  0  0  0  0  0  0  0  0
   -6.3580   13.0560    2.4210 C   0  0  0  0  0  0  0  0  0  0  0  0
   -7.1290   14.7150   -0.4880 N   0  0  0  0  0  0  0  0  0  0  0  0
   -6.0290   15.0470    1.4100 N   0  0  0  0  0  0  0  0  0  0  0  0
   -5.2410   13.3190    1.3630 C   0  0  0  0  0  0  0  0  0  0  0  0
   -5.8630   15.1240   -0.8360 C   0  0  0  0  0  0  0  0  0  0  0  0
   -5.2150   15.3240    0.3740 C   0  0  0  0  0  0  0  0  0  0  0  0
   -5.4510   13.0750    0.1600 O   0  0  0  0  0  0  0  0  0  0  0  0
   -3.9960   13.8390    1.7060 N   0  0  0  0  0  0  0  0  0  0  0  0
   -5.2370   15.3280   -2.0520 C   0  0  0  0  0  0  0  0  0  0  0  0
   -3.8930   15.7530    0.4180 C   0  0  0  0  0  0  0  0  0  0  0  0
   -3.9000   15.7460   -1.9990 C   0  0  0  0  0  0  0  0  0  0  0  0
   -3.2400   15.9570   -0.7870 C   0  0  0  0  0  0  0  0  0  0  0  0
   -2.7920   14.0940    1.0090 C   0  0  0  0  0  0  0  0  0  0  0  0
   -1.7260   14.3280    1.8170 N   0  0  0  0  0  0  0  0  0  0  0  0
   -2.6500   14.1180   -0.3750 C   0  0  0  0  0  0  0  0  0  0  0  0
   -0.5280   14.5740    1.2430 C   0  0  0  0  0  0  0  0  0  0  0  0
   -1.3990   14.3890   -0.9510 C   0  0  0  0  0  0  0  0  0  0  0  0
   -1.2400   14.4280   -2.4410 C   0  0  0  0  0  0  0  0  0  0  0  0
   -0.3120   14.6200   -0.1160 C   0  0  0  0  0  0  0  0  0  0  0  0
  2  1  1  6
  2  3  1  0
  2  4  1  0
  3  5  1  0
  4  6  1  0
  4  7  2  0
  5  8  1  0
  6  9  1  0
  7 10  1  0
  9 10  2  0
  8 11  2  0
  8 12  1  0
  9 13  1  0
 10 14  1  0
 13 15  2  0
 14 16  2  0
 15 16  1  0
 12 17  1  0
 17 18  2  0
 17 19  1  0
 18 20  1  0
 19 21  2  0
 21 22  1  0
 20 23  2  0
 21 23  1  0
M  END
