mac-x0587-mac-x0555
     RDKit          3D

 21 22  0  0  0  0  0  0  0  0999 V2000
   -0.0070   16.1150   -4.1100 C   0  0  0  0  0  0  0  0  0  0  0  0
   -0.7040   14.8350   -3.6290 C   0  0  2  0  0  0  0  0  0  0  0  0
   -0.3830   13.5370   -4.9080 S   0  0  0  0  0  0  0  0  0  0  0  0
   -2.2370   15.0490   -3.4060 C   0  0  0  0  0  0  0  0  0  0  0  0
   -0.7490   12.0230   -3.9690 C   0  0  0  0  0  0  0  0  0  0  0  0
   -2.9600   15.2590   -4.3830 O   0  0  0  0  0  0  0  0  0  0  0  0
   -2.7460   15.0040   -2.0910 N   0  0  0  0  0  0  0  0  0  0  0  0
    0.4040   11.5910   -3.0980 C   0  0  0  0  0  0  0  0  0  0  0  0
   -4.0480   15.4550   -1.5710 C   0  0  0  0  0  0  0  0  0  0  0  0
   -2.0510   14.5530   -0.9690 C   0  0  0  0  0  0  0  0  0  0  0  0
    0.5900   10.4530   -2.7120 O   0  0  0  0  0  0  0  0  0  0  0  0
    1.2530   12.5810   -2.7410 O   0  0  0  0  0  0  0  0  0  0  0  0
   -0.8650   14.5990   -0.6980 O   0  0  0  0  0  0  0  0  0  0  0  0
   -4.3570   14.5010   -0.3980 C   0  0  1  0  0  0  0  0  0  0  0  0
   -3.0160   13.9870   -0.1220 N   0  0  0  0  0  0  0  0  0  0  0  0
   -5.0000   15.0550    0.9030 C   0  0  0  0  0  0  0  0  0  0  0  0
   -5.3840   13.4760   -0.9410 C   0  0  0  0  0  0  0  0  0  0  0  0
   -6.3050   14.2850    1.2940 C   0  0  1  0  0  0  0  0  0  0  0  0
   -6.7480   14.0270   -1.1270 N   0  0  0  0  0  0  0  0  0  0  0  0
   -6.9140   14.7270    2.5640 N   0  0  0  0  0  0  0  0  0  0  0  0
   -7.3470   14.3890    0.1640 C   0  0  0  0  0  0  0  0  0  0  0  0
  2  1  1  6
  2  3  1  0
  2  4  1  0
  3  5  1  0
  4  6  2  0
  4  7  1  0
  5  8  1  0
  7  9  1  0
  7 10  1  0
  8 11  2  0
  8 12  1  0
 10 13  2  0
 14  9  1  6
 10 15  1  0
 14 15  1  0
 14 16  1  0
 14 17  1  0
 16 18  1  0
 17 19  1  0
 18 20  1  1
 18 21  1  0
 19 21  1  0
M  END
