mac-x0204-mac-x0437
     RDKit          3D

 23 25  0  0  0  0  0  0  0  0999 V2000
    0.3940   13.1520   -2.2600 O   0  0  0  0  0  0  0  0  0  0  0  0
    0.1660   14.4060   -2.7160 C   0  0  0  0  0  0  0  0  0  0  0  0
    0.7850   15.4160   -2.4530 O   0  0  0  0  0  0  0  0  0  0  0  0
    0.8590   12.2030   -3.1230 C   0  0  0  0  0  0  0  0  0  0  0  0
    0.7910   10.9940   -2.9790 O   0  0  0  0  0  0  0  0  0  0  0  0
    1.4920   12.8780   -4.3260 C   0  0  0  0  0  0  0  0  0  0  0  0
   -1.0020   14.4320   -3.6420 C   0  0  0  0  0  0  0  0  0  0  0  0
    0.5240   12.9750   -5.5070 C   0  0  0  0  0  0  0  0  0  0  0  0
   -1.3210   15.5240   -4.4650 C   0  0  0  0  0  0  0  0  0  0  0  0
   -1.8340   13.3180   -3.7050 C   0  0  0  0  0  0  0  0  0  0  0  0
   -2.4380   15.4430   -5.2930 C   0  0  0  0  0  0  0  0  0  0  0  0
   -2.9280   13.2250   -4.5130 N   0  0  0  0  0  0  0  0  0  0  0  0
   -0.3000   11.7870   -5.6630 N   0  0  0  0  0  0  0  0  0  0  0  0
   -2.8100   16.4670   -6.1160 O   0  0  0  0  0  0  0  0  0  0  0  0
   -3.2030   14.2920   -5.2900 C   0  0  0  0  0  0  0  0  0  0  0  0
   -1.3460   11.4000   -4.8740 C   0  0  0  0  0  0  0  0  0  0  0  0
   -0.1530   10.8510   -6.6410 C   0  0  0  0  0  0  0  0  0  0  0  0
   -1.8870   10.2760   -5.2810 N   0  0  0  0  0  0  0  0  0  0  0  0
   -1.1540    9.9190   -6.3780 C   0  0  0  0  0  0  0  0  0  0  0  0
    0.7360   10.7290   -7.7010 C   0  0  0  0  0  0  0  0  0  0  0  0
   -1.2820    8.8010   -7.2080 C   0  0  0  0  0  0  0  0  0  0  0  0
    0.5980    9.6100   -8.5200 C   0  0  0  0  0  0  0  0  0  0  0  0
   -0.3960    8.6580   -8.2790 C   0  0  0  0  0  0  0  0  0  0  0  0
  1  2  1  0
  2  3  2  0
  1  4  1  0
  4  5  2  0
  4  6  1  0
  2  7  1  0
  6  8  1  0
  7  9  2  0
  7 10  1  0
  9 11  1  0
 10 12  2  0
  8 13  1  0
 11 14  1  0
 11 15  2  0
 12 15  1  0
 13 16  1  0
 13 17  1  0
 16 18  2  0
 17 19  2  0
 18 19  1  0
 17 20  1  0
 19 21  1  0
 20 22  2  0
 21 23  2  0
 22 23  1  0
M  END
