mac-x0148-mac-x0226
     RDKit          3D

 32 37  0  0  0  0  0  0  0  0999 V2000
    1.6730   12.5260   -2.1760 O   0  0  0  0  0  0  0  0  0  0  0  0
    0.6220   11.8440   -2.8480 C   0  0  0  0  0  0  0  0  0  0  0  0
    0.5990   10.5040   -2.3230 O   0  0  0  0  0  0  0  0  0  0  0  0
   -0.7350   12.4920   -2.4630 C   0  0  2  0  0  0  0  0  0  0  0  0
    0.8080   11.8460   -4.3320 C   0  0  0  0  0  0  0  0  0  0  0  0
   -1.7640   11.7630   -3.3430 C   0  0  0  0  0  0  0  0  0  0  0  0
   -0.9630   13.9850   -2.5050 N   0  0  0  0  0  0  0  0  0  0  0  0
    1.6610   12.6240   -5.1450 C   0  0  0  0  0  0  0  0  0  0  0  0
    0.1460   11.0510   -5.2470 C   0  0  0  0  0  0  0  0  0  0  0  0
   -1.9970   14.2240   -3.5840 C   0  0  1  0  0  0  0  0  0  0  0  0
   -1.6470   12.1250   -4.8100 C   0  0  0  0  0  0  0  0  0  0  0  0
   -1.2290   14.4070   -1.1980 C   0  0  0  0  0  0  0  0  0  0  0  0
    1.5420   12.3340   -6.4420 N   0  0  0  0  0  0  0  0  0  0  0  0
    0.6010   11.3570   -6.5010 N   0  0  0  0  0  0  0  0  0  0  0  0
   -2.3480   15.6260   -4.0390 C   0  0  0  0  0  0  0  0  0  0  0  0
   -1.6380   13.6210   -4.9300 C   0  0  1  0  0  0  0  0  0  0  0  0
   -0.1840   14.4470   -0.2910 N   0  0  0  0  0  0  0  0  0  0  0  0
   -2.4310   14.7550   -0.7110 C   0  0  0  0  0  0  0  0  0  0  0  0
    0.1710   10.7540   -7.7150 C   0  0  0  0  0  0  0  0  0  0  0  0
   -2.7980   14.1140   -5.7460 C   0  0  0  0  0  0  0  0  0  0  0  0
   -2.9710   15.4730   -5.3380 O   0  0  0  0  0  0  0  0  0  0  0  0
   -0.3900   14.7070    1.0370 C   0  0  0  0  0  0  0  0  0  0  0  0
   -2.5540   15.1010    0.7250 C   0  0  0  0  0  0  0  0  0  0  0  0
   -3.7640   14.9020   -1.1950 C   0  0  0  0  0  0  0  0  0  0  0  0
   -0.9720    9.9530   -7.6870 C   0  0  0  0  0  0  0  0  0  0  0  0
    0.8360   10.9230   -8.9250 C   0  0  0  0  0  0  0  0  0  0  0  0
   -1.5020   15.0250    1.5790 N   0  0  0  0  0  0  0  0  0  0  0  0
   -3.7550   15.4580    1.0510 N   0  0  0  0  0  0  0  0  0  0  0  0
   -4.4690   15.3240   -0.1320 C   0  0  0  0  0  0  0  0  0  0  0  0
   -1.4270    9.3400   -8.8580 C   0  0  0  0  0  0  0  0  0  0  0  0
    0.3870   10.3180  -10.0880 C   0  0  0  0  0  0  0  0  0  0  0  0
   -0.7450    9.5260  -10.0570 C   0  0  0  0  0  0  0  0  0  0  0  0
  2  1  1  0
  2  3  1  0
  4  2  1  6
  2  5  1  0
  4  6  1  0
  4  7  1  0
  5  8  1  0
  5  9  2  0
  7 10  1  0
  6 11  1  0
  7 12  1  0
  8 13  2  0
  9 14  1  0
 13 14  1  0
 10 15  1  6
 10 16  1  0
 16 11  1  1
 12 17  1  0
 12 18  2  0
 14 19  1  0
 16 20  1  0
 15 21  1  0
 20 21  1  0
 17 22  1  0
 18 23  1  0
 18 24  1  0
 19 25  2  0
 19 26  1  0
 22 27  2  0
 23 27  1  0
 23 28  2  0
 24 29  2  0
 28 29  1  0
 25 30  1  0
 26 31  2  0
 30 32  2  0
 31 32  1  0
M  END
