mac-x0375-mac-x0223
     RDKit          3D

 20 21  0  0  0  0  0  0  0  0999 V2000
    1.6210   13.1800   -2.6620 O   0  0  0  0  0  0  0  0  0  0  0  0
    0.8840   12.2820   -3.3530 C   0  0  0  0  0  0  0  0  0  0  0  0
    0.8040   11.1290   -2.9510 O   0  0  0  0  0  0  0  0  0  0  0  0
    0.1580   12.7940   -4.6270 C   0  0  2  0  0  0  0  0  0  0  0  0
    0.3940   12.1090   -5.8690 O   0  0  0  0  0  0  0  0  0  0  0  0
   -0.3690   14.2660   -4.6770 C   0  0  0  0  0  0  0  0  0  0  0  0
   -0.5210   11.1000   -6.0620 C   0  0  0  0  0  0  0  0  0  0  0  0
   -1.7690   14.4040   -4.7690 C   0  0  0  0  0  0  0  0  0  0  0  0
    0.4170   15.4590   -4.6340 C   0  0  0  0  0  0  0  0  0  0  0  0
   -0.2650    9.9770   -6.8470 C   0  0  0  0  0  0  0  0  0  0  0  0
   -1.7550   11.2320   -5.4260 C   0  0  0  0  0  0  0  0  0  0  0  0
   -0.2230   16.7220   -4.6810 C   0  0  0  0  0  0  0  0  0  0  0  0
   -2.3850   15.6530   -4.8190 C   0  0  0  0  0  0  0  0  0  0  0  0
    0.3500   17.9640   -4.6420 O   0  0  0  0  0  0  0  0  0  0  0  0
   -1.2500    8.9930   -6.9860 C   0  0  0  0  0  0  0  0  0  0  0  0
   -2.7350   10.2540   -5.5660 C   0  0  0  0  0  0  0  0  0  0  0  0
   -1.6070   16.7900   -4.7730 C   0  0  0  0  0  0  0  0  0  0  0  0
    1.1900   18.2880   -5.7280 C   0  0  0  0  0  0  0  0  0  0  0  0
   -2.2150   18.0210   -4.8130 O   0  0  0  0  0  0  0  0  0  0  0  0
   -2.4820    9.1320   -6.3480 C   0  0  0  0  0  0  0  0  0  0  0  0
  1  2  1  0
  2  3  2  0
  2  4  1  0
  4  5  1  6
  4  6  1  0
  5  7  1  0
  6  8  2  0
  6  9  1  0
  7 10  2  0
  7 11  1  0
  9 12  2  0
  8 13  1  0
 12 14  1  0
 10 15  1  0
 11 16  2  0
 12 17  1  0
 13 17  2  0
 14 18  1  0
 17 19  1  0
 15 20  2  0
 16 20  1  0
M  END
