mac-x0123-diamond-x0926_0_A
     RDKit          3D

 14 16  0  0  0  0  0  0  0  0999 V2000
   -3.5510   14.7420    1.8080 N   0  0  0  0  0  0  0  0  0  0  0  0
   -4.6670   14.6750    0.9930 C   0  0  0  0  0  0  0  0  0  0  0  0
   -5.9570   14.5310    1.3640 C   0  0  0  0  0  0  0  0  0  0  0  0
   -4.4280   14.7590   -0.3870 N   0  0  0  0  0  0  0  0  0  0  0  0
   -5.4770   14.6980   -1.2970 C   0  0  0  0  0  0  0  0  0  0  0  0
   -6.9980   14.4820    0.2930 C   0  0  0  0  0  0  0  0  0  0  0  0
   -6.6610   14.3970    2.6600 C   0  0  0  0  0  0  0  0  0  0  0  0
   -3.2150   14.9010   -1.0760 N   0  0  0  0  0  0  0  0  0  0  0  0
   -6.7890   14.5610   -0.9640 N   0  0  0  0  0  0  0  0  0  0  0  0
   -8.3650   14.3270    0.8670 C   0  0  0  0  0  0  0  0  0  0  0  0
   -8.1390   14.6340    2.3440 C   0  0  0  0  0  0  0  0  0  0  0  0
   -4.9260   14.8000   -2.5950 N   0  0  0  0  0  0  0  0  0  0  0  0
   -3.6020   14.9150   -2.3740 C   0  0  0  0  0  0  0  0  0  0  0  0
   -5.6680   14.7690   -3.5670 O   0  0  0  0  0  0  0  0  0  0  0  0
  1  2  1  0
  2  3  2  0
  2  4  1  0
  4  5  1  0
  3  6  1  0
  3  7  1  0
  4  8  1  0
  5  9  1  0
  6  9  2  0
  6 10  1  0
  7 11  1  0
 10 11  1  0
  5 12  2  0
  8 13  2  0
 12 13  1  0
 12 14  1  0
M  CHG  2  12   1  14  -1
M  END
