mac-x0228-mac-x0472
     RDKit          3D

 25 28  0  0  0  0  0  0  0  0999 V2000
   -1.9350   16.0890   -2.2910 O   0  0  0  0  0  0  0  0  0  0  0  0
   -2.3960   14.8320   -1.7900 C   0  0  2  0  0  0  0  0  0  0  0  0
   -1.9290   13.7680   -2.6100 O   0  0  0  0  0  0  0  0  0  0  0  0
   -3.9030   14.8560   -1.6330 C   0  0  0  0  0  0  0  0  0  0  0  0
   -2.1560   14.7110   -0.3230 C   0  0  0  0  0  0  0  0  0  0  0  0
   -2.8480   13.5150   -3.9010 S   0  0  0  0  0  0  0  0  0  0  0  0
   -4.4090   14.2820   -0.4570 C   0  0  0  0  0  0  0  0  0  0  0  0
   -4.8160   15.4060   -2.5360 C   0  0  0  0  0  0  0  0  0  0  0  0
   -1.2230   14.1260    0.3850 N   0  0  0  0  0  0  0  0  0  0  0  0
   -3.4130   15.4820    0.5950 S   0  0  0  0  0  0  0  0  0  0  0  0
   -3.6840   14.7470   -4.0640 O   0  0  0  0  0  0  0  0  0  0  0  0
   -5.7450   14.2850   -0.2020 C   0  0  0  0  0  0  0  0  0  0  0  0
   -6.1970   15.3990   -2.2680 C   0  0  0  0  0  0  0  0  0  0  0  0
   -3.8940   12.2900   -3.0740 C   0  0  0  0  0  0  0  0  0  0  0  0
   -2.6220   14.9120    1.9490 C   0  0  0  0  0  0  0  0  0  0  0  0
   -1.5070   14.2480    1.7220 N   0  0  0  0  0  0  0  0  0  0  0  0
   -6.6300   14.8370   -1.0910 C   0  0  0  0  0  0  0  0  0  0  0  0
   -6.4530   13.7490    0.9740 C   0  0  0  0  0  0  0  0  0  0  0  0
   -3.4630   10.9690   -3.0770 C   0  0  0  0  0  0  0  0  0  0  0  0
   -5.1080   12.6120   -2.4440 C   0  0  0  0  0  0  0  0  0  0  0  0
   -7.9320   14.7580   -0.6780 O   0  0  0  0  0  0  0  0  0  0  0  0
   -7.8410   14.3160    0.7010 C   0  0  0  0  0  0  0  0  0  0  0  0
   -4.2230    9.9820   -2.4720 C   0  0  0  0  0  0  0  0  0  0  0  0
   -5.8710   11.6210   -1.8320 C   0  0  0  0  0  0  0  0  0  0  0  0
   -5.4310   10.3040   -1.8480 C   0  0  0  0  0  0  0  0  0  0  0  0
  2  1  1  6
  2  3  1  0
  2  4  1  0
  2  5  1  0
  6  3  1  1
  4  7  2  0
  4  8  1  0
  5  9  2  0
  5 10  1  0
  6 11  2  0
  7 12  1  0
  8 13  2  0
  6 14  1  0
 10 15  1  0
  9 16  1  0
 15 16  2  0
 12 17  2  0
 13 17  1  0
 12 18  1  0
 14 19  2  0
 14 20  1  0
 17 21  1  0
 18 22  1  0
 21 22  1  0
 19 23  1  0
 20 24  2  0
 23 25  2  0
 24 25  1  0
M  END
