mac-x0417-mac-x0212
     RDKit          3D

 28 30  0  0  0  0  0  0  0  0999 V2000
    1.6050   12.6670   -2.6070 O   0  0  0  0  0  0  0  0  0  0  0  0
    0.7580   11.8630   -3.2790 C   0  0  0  0  0  0  0  0  0  0  0  0
    0.6530   10.7070   -2.9180 O   0  0  0  0  0  0  0  0  0  0  0  0
    0.0060   12.5010   -4.4180 C   0  0  1  0  0  0  0  0  0  0  0  0
    0.1420   14.0280   -4.3920 C   0  0  0  0  0  0  0  0  0  0  0  0
    0.1660   11.7000   -5.6850 C   0  0  0  0  0  0  0  0  0  0  0  0
   -0.6080   14.3130   -3.1550 N   0  0  0  0  0  0  0  0  0  0  0  0
    1.1970   11.8120   -6.5390 N   0  0  0  0  0  0  0  0  0  0  0  0
   -0.7550   10.7120   -6.1220 C   0  0  0  0  0  0  0  0  0  0  0  0
   -1.8570   14.5790   -3.2310 C   0  0  0  0  0  0  0  0  0  0  0  0
    0.9450   10.8800   -7.5500 O   0  0  0  0  0  0  0  0  0  0  0  0
   -0.2200   10.2270   -7.2930 C   0  0  0  0  0  0  0  0  0  0  0  0
   -1.9670   10.1790   -5.6610 C   0  0  0  0  0  0  0  0  0  0  0  0
   -2.5220   14.6780   -4.3950 O   0  0  0  0  0  0  0  0  0  0  0  0
   -0.8140    9.2240   -8.0600 C   0  0  0  0  0  0  0  0  0  0  0  0
   -2.5930    9.1740   -6.3960 C   0  0  0  0  0  0  0  0  0  0  0  0
   -2.7670   14.7670   -2.0700 C   0  0  0  0  0  0  0  0  0  0  0  0
   -2.0260    8.7030   -7.5780 C   0  0  0  0  0  0  0  0  0  0  0  0
   -2.3030   14.5160   -0.7690 C   0  0  0  0  0  0  0  0  0  0  0  0
   -4.0910   15.1680   -2.2490 C   0  0  0  0  0  0  0  0  0  0  0  0
   -3.1570   14.6430    0.3300 C   0  0  0  0  0  0  0  0  0  0  0  0
   -4.9460   15.3010   -1.1510 C   0  0  0  0  0  0  0  0  0  0  0  0
   -4.4800   15.0270    0.1440 C   0  0  0  0  0  0  0  0  0  0  0  0
   -5.3810   15.1330    1.2450 N   0  0  0  0  0  0  0  0  0  0  0  0
   -6.9180   14.4600    1.0470 S   0  0  0  0  0  0  0  0  0  0  0  0
   -6.5430   12.7220    1.2010 C   0  0  0  0  0  0  0  0  0  0  0  0
   -7.7870   14.8630    2.1280 O   0  0  0  0  0  0  0  0  0  0  0  0
   -7.3060   14.6990   -0.3270 O   0  0  0  0  0  0  0  0  0  0  0  0
  1  2  1  0
  2  3  2  0
  2  4  1  0
  4  5  1  6
  4  6  1  0
  5  7  1  0
  6  8  2  0
  6  9  1  0
  7 10  2  3
  8 11  1  0
  9 12  2  0
 11 12  1  0
  9 13  1  0
 10 14  1  0
 12 15  1  0
 13 16  2  0
 10 17  1  0
 15 18  2  0
 16 18  1  0
 17 19  2  0
 17 20  1  0
 19 21  1  0
 20 22  2  0
 21 23  2  0
 22 23  1  0
 23 24  1  0
 25 24  1  0
 25 26  1  0
 25 27  2  0
 25 28  2  0
M  END
