mac-x0396-diamond-x0844_0_A
     RDKit          3D

  9  9  0  0  0  0  0  0  0  0999 V2000
   -2.9370   15.1030    1.0170 N   0  0  0  0  0  0  0  0  0  0  0  0
   -3.6310   15.0900   -0.1630 C   0  0  0  0  0  0  0  0  0  0  0  0
   -3.0500   15.2010   -1.2300 O   0  0  0  0  0  0  0  0  0  0  0  0
   -5.0990   14.9210   -0.0890 C   0  0  0  0  0  0  0  0  0  0  0  0
   -5.8620   14.9710   -1.2490 C   0  0  0  0  0  0  0  0  0  0  0  0
   -5.7630   14.7070    1.1090 C   0  0  0  0  0  0  0  0  0  0  0  0
   -7.2120   14.8160   -1.2630 N   0  0  0  0  0  0  0  0  0  0  0  0
   -7.1460   14.5440    1.1250 C   0  0  0  0  0  0  0  0  0  0  0  0
   -7.8210   14.6070   -0.0790 C   0  0  0  0  0  0  0  0  0  0  0  0
  1  2  1  0
  2  3  2  0
  2  4  1  0
  4  5  2  0
  4  6  1  0
  5  7  1  0
  6  8  2  0
  7  9  2  0
  8  9  1  0
M  END
