mac-x0116-mac-x0306
     RDKit          3D

 20 23  0  0  0  0  0  0  0  0999 V2000
   -6.0640   14.4440    2.2230 C   0  0  0  0  0  0  0  0  0  0  0  0
   -4.6760   14.6500    1.9420 N   0  0  0  0  0  0  0  0  0  0  0  0
   -4.0500   14.6500    0.7130 C   0  0  0  0  0  0  0  0  0  0  0  0
   -6.5180   13.0400    2.1340 C   0  0  0  0  0  0  0  0  0  0  0  0
   -6.3940   12.4270    0.9180 O   0  0  0  0  0  0  0  0  0  0  0  0
   -7.0640   12.1680    3.0360 C   0  0  0  0  0  0  0  0  0  0  0  0
   -7.2920   10.9660    2.3400 C   0  0  0  0  0  0  0  0  0  0  0  0
   -6.8650   11.1750    1.0500 C   0  0  0  0  0  0  0  0  0  0  0  0
   -4.9310   14.6560   -0.5260 C   0  0  0  0  0  0  0  0  0  0  0  0
   -2.7130   14.6440    0.5910 C   0  0  0  0  0  0  0  0  0  0  0  0
   -4.0520   14.7820   -1.8100 C   0  0  0  0  0  0  0  0  0  0  0  0
   -2.0440   14.6790   -0.6980 C   0  0  0  0  0  0  0  0  0  0  0  0
   -1.7360   14.6040    1.5640 N   0  0  0  0  0  0  0  0  0  0  0  0
   -5.8910   15.7610   -0.3680 N   0  0  0  0  0  0  0  0  0  0  0  0
   -5.7820   13.4150   -0.6120 N   0  0  0  0  0  0  0  0  0  0  0  0
   -2.7330   14.7760   -1.8760 N   0  0  0  0  0  0  0  0  0  0  0  0
   -0.7520   14.6340   -0.5260 N   0  0  0  0  0  0  0  0  0  0  0  0
   -0.6340   14.5970    0.8620 C   0  0  0  0  0  0  0  0  0  0  0  0
   -7.0080   13.7920   -0.4400 C   0  0  0  0  0  0  0  0  0  0  0  0
   -7.0730   15.2200   -0.2930 C   0  0  0  0  0  0  0  0  0  0  0  0
  1  2  1  0
  2  3  1  0
  1  4  1  0
  4  5  1  0
  4  6  2  0
  6  7  1  0
  5  8  1  0
  7  8  2  0
  3  9  1  0
  3 10  2  0
  9 11  1  0
 10 12  1  0
 10 13  1  0
  9 14  1  0
  9 15  1  0
 11 16  2  0
 12 16  1  0
 12 17  2  0
 13 18  2  0
 17 18  1  0
 15 19  2  0
 14 20  2  0
 19 20  1  0
M  END
