mac-x0182-mac-x0341
     RDKit          3D

 26 29  0  0  0  0  0  0  0  0999 V2000
    1.6650   11.8260   -7.1480 O   0  0  0  0  0  0  0  0  0  0  0  0
    0.8270   11.4480   -6.3890 C   0  0  0  0  0  0  0  0  0  0  0  0
    0.7240   11.8560   -5.0890 N   0  0  0  0  0  0  0  0  0  0  0  0
   -0.1850   10.4250   -6.7340 C   0  0  0  0  0  0  0  0  0  0  0  0
   -0.7640   11.4140   -4.4870 S   0  0  2  0  0  0  0  0  0  0  0  0
   -1.1420   10.2860   -5.7470 C   0  0  0  0  0  0  0  0  0  0  0  0
   -0.2400    9.6500   -7.8820 C   0  0  0  0  0  0  0  0  0  0  0  0
   -1.4790   12.7220   -4.7910 N   0  0  0  0  0  0  0  0  0  0  0  0
   -0.4980   10.7230   -3.2460 O   0  0  0  0  0  0  0  0  0  0  0  0
   -2.1850    9.3880   -5.8250 C   0  0  0  0  0  0  0  0  0  0  0  0
   -1.2880    8.7300   -7.9980 C   0  0  0  0  0  0  0  0  0  0  0  0
   -2.3940   13.3570   -3.8530 C   0  0  0  0  0  0  0  0  0  0  0  0
   -2.2510    8.5970   -6.9780 C   0  0  0  0  0  0  0  0  0  0  0  0
   -1.7680   14.5810   -3.1670 C   0  0  0  0  0  0  0  0  0  0  0  0
   -2.5270   14.7180   -1.8950 C   0  0  0  0  0  0  0  0  0  0  0  0
   -1.9170   14.7370   -0.6350 C   0  0  0  0  0  0  0  0  0  0  0  0
   -3.9100   14.8080   -2.0060 C   0  0  0  0  0  0  0  0  0  0  0  0
   -4.6770   14.8950   -0.8700 C   0  0  0  0  0  0  0  0  0  0  0  0
   -2.7100   14.8330    0.5120 C   0  0  0  0  0  0  0  0  0  0  0  0
   -6.1370   14.9620   -0.9480 C   0  0  0  0  0  0  0  0  0  0  0  0
   -4.1020   14.9050    0.3950 C   0  0  0  0  0  0  0  0  0  0  0  0
   -6.7320   15.2670   -1.9700 O   0  0  0  0  0  0  0  0  0  0  0  0
   -6.7710   14.6290    0.2230 N   0  0  0  0  0  0  0  0  0  0  0  0
   -4.8800   14.9680    1.5490 N   0  0  0  0  0  0  0  0  0  0  0  0
   -6.1620   14.8020    1.4320 C   0  0  0  0  0  0  0  0  0  0  0  0
   -6.9430   14.8050    2.5390 N   0  0  0  0  0  0  0  0  0  0  0  0
  1  2  2  0
  2  3  1  0
  2  4  1  0
  5  3  1  6
  4  6  2  0
  5  6  1  0
  4  7  1  0
  5  8  2  0
  5  9  2  0
  6 10  1  0
  7 11  2  0
  8 12  1  0
 10 13  2  0
 11 13  1  0
 12 14  1  0
 14 15  1  0
 15 16  2  0
 15 17  1  0
 17 18  2  0
 16 19  1  0
 18 20  1  0
 18 21  1  0
 19 21  2  0
 20 22  2  0
 20 23  1  0
 21 24  1  0
 23 25  1  0
 24 25  2  0
 25 26  1  0
M  END
