mac-x0228-diamond-x0711_0_A
     RDKit          3D

 17 18  0  0  0  0  0  0  0  0999 V2000
   -1.0450   14.3360   -2.0040 C   0  0  0  0  0  0  0  0  0  0  0  0
   -2.4420   14.5160   -2.6330 C   0  0  0  0  0  0  0  0  0  0  0  0
   -2.4420   14.5800   -3.8540 O   0  0  0  0  0  0  0  0  0  0  0  0
   -0.0740   14.9140   -2.4800 O   0  0  0  0  0  0  0  0  0  0  0  0
   -0.9420   13.4900   -0.9860 O   0  0  0  0  0  0  0  0  0  0  0  0
   -3.8070   14.6480   -1.9810 C   0  0  0  0  0  0  0  0  0  0  0  0
   -4.4120   14.4230   -0.6840 C   0  0  0  0  0  0  0  0  0  0  0  0
   -4.7130   15.1000   -2.9550 C   0  0  0  0  0  0  0  0  0  0  0  0
   -4.1130   13.9670    0.6320 C   0  0  0  0  0  0  0  0  0  0  0  0
   -5.7170   14.6570   -0.4670 C   0  0  0  0  0  0  0  0  0  0  0  0
   -6.0710   15.3120   -2.6730 C   0  0  0  0  0  0  0  0  0  0  0  0
   -3.5040   14.7370    1.5420 N   0  0  0  0  0  0  0  0  0  0  0  0
   -4.5850   12.8840    0.9070 O   0  0  0  0  0  0  0  0  0  0  0  0
   -6.5400   15.0910   -1.4210 C   0  0  0  0  0  0  0  0  0  0  0  0
   -6.4380   14.4710    0.8150 C   0  0  0  0  0  0  0  0  0  0  0  0
   -7.8320   15.2630   -0.9970 O   0  0  0  0  0  0  0  0  0  0  0  0
   -7.8620   14.6760    0.3280 C   0  0  0  0  0  0  0  0  0  0  0  0
  1  2  1  0
  2  3  2  0
  1  4  2  0
  1  5  1  0
  2  6  1  0
  6  7  2  0
  6  8  1  0
  7  9  1  0
  7 10  1  0
  8 11  2  0
  9 12  1  0
  9 13  2  0
 10 14  2  0
 11 14  1  0
 10 15  1  0
 14 16  1  0
 15 17  1  0
 16 17  1  0
M  END
