mac-x0572-mac-x0333
     RDKit          3D

 14 15  0  0  0  0  0  0  0  0999 V2000
   -7.9440   14.7080    3.3520 C   0  0  0  0  0  0  0  0  0  0  0  0
   -7.2170   14.7490    2.0270 C   0  0  0  0  0  0  0  0  0  0  0  0
   -5.8590   14.9830    2.1440 N   0  0  0  0  0  0  0  0  0  0  0  0
   -7.8600   14.5790    0.8580 C   0  0  0  0  0  0  0  0  0  0  0  0
   -9.2160   14.3530    0.7340 O   0  0  0  0  0  0  0  0  0  0  0  0
   -7.0480   14.6410   -0.3830 C   0  0  0  0  0  0  0  0  0  0  0  0
   -5.0750   14.7860    1.1290 C   0  0  0  0  0  0  0  0  0  0  0  0
   -7.6000   14.9230   -1.4440 O   0  0  0  0  0  0  0  0  0  0  0  0
   -5.5880   14.3190   -0.2130 C   0  0  2  0  0  0  0  0  0  0  0  0
   -3.6130   14.9990    1.2850 C   0  0  0  0  0  0  0  0  0  0  0  0
   -2.8580   15.1180    0.1810 C   0  0  0  0  0  0  0  0  0  0  0  0
   -4.6950   14.7080   -1.3540 C   0  0  0  0  0  0  0  0  0  0  0  0
   -3.4280   15.0600   -1.1580 C   0  0  0  0  0  0  0  0  0  0  0  0
   -2.6400   15.3630   -2.2430 O   0  0  0  0  0  0  0  0  0  0  0  0
  1  2  1  0
  2  3  1  0
  2  4  2  0
  4  5  1  0
  4  6  1  0
  3  7  2  0
  6  8  2  0
  6  9  1  0
  7  9  1  0
  7 10  1  0
 10 11  2  0
  9 12  1  6
 11 13  1  0
 12 13  2  0
 13 14  1  0
M  END
