mac-x0333-diamond-x0844_0_A
     RDKit          3D

 11 12  0  0  0  0  0  0  0  0999 V2000
   -3.0290   14.5220   -2.9660 O   0  0  0  0  0  0  0  0  0  0  0  0
   -3.6520   15.1880   -1.8870 C   0  0  2  0  0  0  0  0  0  0  0  0
   -2.9630   14.8230   -0.6110 C   0  0  0  0  0  0  0  0  0  0  0  0
   -5.1450   14.9030   -1.7210 C   0  0  0  0  0  0  0  0  0  0  0  0
   -5.8410   14.1690   -2.4130 O   0  0  0  0  0  0  0  0  0  0  0  0
   -5.7540   15.6090   -0.5590 C   0  0  2  0  0  0  0  0  0  0  0  0
   -3.5970   14.8150    0.5710 C   0  0  0  0  0  0  0  0  0  0  0  0
   -5.0390   15.1780    0.7110 C   0  0  2  0  0  0  0  0  0  0  0  0
   -7.1220   15.2340   -0.3830 O   0  0  0  0  0  0  0  0  0  0  0  0
   -5.8050   14.0640    1.1450 O   0  0  0  0  0  0  0  0  0  0  0  0
   -7.1390   14.3610    0.7420 C   0  0  0  0  0  0  0  0  0  0  0  0
  2  1  1  6
  2  3  1  0
  2  4  1  0
  4  5  2  0
  4  6  1  0
  3  7  2  0
  6  8  1  0
  8  7  1  6
  6  9  1  1
  8 10  1  0
  9 11  1  0
 10 11  1  0
M  END
