mac-x0204-mac-x0472
     RDKit          3D

 25 27  0  0  0  0  0  0  0  0999 V2000
    1.5890   12.7670   -3.2300 O   0  0  0  0  0  0  0  0  0  0  0  0
    1.2600   14.0500   -3.4580 C   0  0  0  0  0  0  0  0  0  0  0  0
    1.9940   15.0000   -3.3230 O   0  0  0  0  0  0  0  0  0  0  0  0
   -0.1210   14.2130   -3.8270 C   0  0  0  0  0  0  0  0  0  0  0  0
   -0.5760   15.3670   -4.4740 C   0  0  0  0  0  0  0  0  0  0  0  0
   -0.9680   13.1910   -3.4990 C   0  0  0  0  0  0  0  0  0  0  0  0
   -1.9240   15.4410   -4.7170 C   0  0  0  0  0  0  0  0  0  0  0  0
   -2.2570   13.2480   -3.7270 N   0  0  0  0  0  0  0  0  0  0  0  0
   -2.4860   16.5390   -5.3210 O   0  0  0  0  0  0  0  0  0  0  0  0
   -2.6790   14.3680   -4.2900 C   0  0  0  0  0  0  0  0  0  0  0  0
   -4.0530   14.4220   -4.3730 N   0  0  0  0  0  0  0  0  0  0  0  0
   -4.3920   14.4050   -2.8570 S   0  0  2  0  0  0  0  0  0  0  0  0
   -5.3850   15.2350   -2.2270 O   0  0  0  0  0  0  0  0  0  0  0  0
   -3.0030   14.7880   -1.9340 N   0  0  0  0  0  0  0  0  0  0  0  0
   -4.7680   12.7200   -2.4480 C   0  0  0  0  0  0  0  0  0  0  0  0
   -3.0960   14.9150   -0.5720 C   0  0  0  0  0  0  0  0  0  0  0  0
   -3.9360   11.6640   -2.8500 C   0  0  0  0  0  0  0  0  0  0  0  0
   -5.9280   12.4780   -1.7180 C   0  0  0  0  0  0  0  0  0  0  0  0
   -2.1490   14.5500    0.2910 N   0  0  0  0  0  0  0  0  0  0  0  0
   -4.4730   15.5760    0.2250 S   0  0  0  0  0  0  0  0  0  0  0  0
   -4.2820   10.3620   -2.5170 C   0  0  0  0  0  0  0  0  0  0  0  0
   -6.2650   11.1720   -1.3900 C   0  0  0  0  0  0  0  0  0  0  0  0
   -3.6830   15.3160    1.7110 C   0  0  0  0  0  0  0  0  0  0  0  0
   -2.4880   14.7810    1.6100 N   0  0  0  0  0  0  0  0  0  0  0  0
   -5.4470   10.1220   -1.7920 C   0  0  0  0  0  0  0  0  0  0  0  0
  1  2  1  0
  2  3  2  0
  2  4  1  0
  4  5  2  0
  4  6  1  0
  5  7  1  0
  6  8  2  0
  7  9  1  0
  7 10  2  0
  8 10  1  0
 10 11  1  0
 11 12  2  0
 12 13  2  0
 12 14  1  1
 12 15  1  0
 14 16  1  0
 15 17  2  0
 15 18  1  0
 16 19  2  0
 16 20  1  0
 17 21  1  0
 18 22  2  0
 20 23  1  0
 19 24  1  0
 23 24  2  0
 21 25  2  0
 22 25  1  0
M  END
