mac-x0588-mac-x0223
     RDKit          3D

 22 24  0  0  0  0  0  0  0  0999 V2000
   -4.2930   15.5630    1.4670 N   0  0  0  0  0  0  0  0  0  0  0  0
   -3.7910   14.8430    0.3180 C   0  0  2  0  0  0  0  0  0  0  0  0
   -2.2860   14.5070    0.3830 C   0  0  1  0  0  0  0  0  0  0  0  0
   -4.1110   15.6620   -0.8310 N   0  0  0  0  0  0  0  0  0  0  0  0
   -3.6490   15.0570   -2.0810 C   0  0  0  0  0  0  0  0  0  0  0  0
   -1.5980   15.1620   -0.7760 C   0  0  2  0  0  0  0  0  0  0  0  0
   -1.4670   15.0460    1.4540 N   0  0  0  0  0  0  0  0  0  0  0  0
   -2.2430   14.7370   -1.9850 N   0  0  0  0  0  0  0  0  0  0  0  0
   -0.2060   14.7780   -0.5380 N   0  0  0  0  0  0  0  0  0  0  0  0
   -0.1340   14.7640    0.9320 C   0  0  0  0  0  0  0  0  0  0  0  0
   -1.5360   14.7220   -3.2500 C   0  0  0  0  0  0  0  0  0  0  0  0
   -0.8760   15.9890   -3.8040 C   0  0  2  0  0  0  0  0  0  0  0  0
   -1.5130   16.5200   -5.0270 N   0  0  0  0  0  0  0  0  0  0  0  0
    0.5940   15.8160   -4.1920 C   0  0  1  0  0  0  0  0  0  0  0  0
    0.9860   14.3710   -4.6950 C   0  0  0  0  0  0  0  0  0  0  0  0
   -2.6960   17.2560   -4.6760 O   0  0  0  0  0  0  0  0  0  0  0  0
    0.7560   17.0140   -5.2150 C   0  0  1  0  0  0  0  0  0  0  0  0
   -0.6250   17.4590   -5.6660 C   0  0  0  0  0  0  0  0  0  0  0  0
    0.8310   13.1800   -3.7120 C   0  0  0  0  0  0  0  0  0  0  0  0
    1.2420   18.2630   -4.5380 C   0  0  0  0  0  0  0  0  0  0  0  0
    0.1840   12.1520   -3.9250 O   0  0  0  0  0  0  0  0  0  0  0  0
    1.4800   13.3310   -2.5320 O   0  0  0  0  0  0  0  0  0  0  0  0
  2  1  1  1
  2  3  1  0
  2  4  1  0
  4  5  1  0
  3  6  1  0
  3  7  1  1
  5  8  1  0
  6  8  1  0
  6  9  1  6
  7 10  1  0
  9 10  1  0
  8 11  1  0
 12 11  1  6
 12 13  1  0
 12 14  1  0
 14 15  1  6
 13 16  1  0
 14 17  1  0
 13 18  1  0
 17 18  1  0
 15 19  1  0
 17 20  1  1
 19 21  2  0
 19 22  1  0
M  END
