mac-x0357-mac-x1493
     RDKit          3D

 23 25  0  0  0  0  0  0  0  0999 V2000
    2.3310   13.2870   -4.4020 C   0  0  0  0  0  0  0  0  0  0  0  0
    1.0020   12.6550   -4.7300 C   0  0  0  0  0  0  0  0  0  0  0  0
    0.8360   11.9810   -5.9510 C   0  0  0  0  0  0  0  0  0  0  0  0
   -0.1140   12.7070   -3.8420 C   0  0  0  0  0  0  0  0  0  0  0  0
    1.8360   11.8660   -6.8680 O   0  0  0  0  0  0  0  0  0  0  0  0
   -0.0860   13.3830   -2.5030 C   0  0  0  0  0  0  0  0  0  0  0  0
   -1.3260   12.0900   -4.2100 C   0  0  0  0  0  0  0  0  0  0  0  0
   -0.3670   11.3770   -6.3050 C   0  0  0  0  0  0  0  0  0  0  0  0
   -0.9460   14.2470   -1.9980 N   0  0  0  0  0  0  0  0  0  0  0  0
    1.0040   12.9690   -1.8260 O   0  0  0  0  0  0  0  0  0  0  0  0
   -1.4500   11.4300   -5.4340 C   0  0  0  0  0  0  0  0  0  0  0  0
   -2.1010   14.7440   -2.5950 C   0  0  0  0  0  0  0  0  0  0  0  0
   -2.1360   15.1990   -3.7320 O   0  0  0  0  0  0  0  0  0  0  0  0
   -3.3790   14.7320   -1.7900 C   0  0  0  0  0  0  0  0  0  0  0  0
   -3.4580   14.8790   -0.3910 C   0  0  0  0  0  0  0  0  0  0  0  0
   -4.5800   14.5620   -2.4640 C   0  0  0  0  0  0  0  0  0  0  0  0
   -4.7170   14.8350    0.2510 C   0  0  0  0  0  0  0  0  0  0  0  0
   -5.8030   14.5170   -1.8740 N   0  0  0  0  0  0  0  0  0  0  0  0
   -5.8700   14.6460   -0.5430 C   0  0  0  0  0  0  0  0  0  0  0  0
   -4.8560   14.9670    1.6430 C   0  0  0  0  0  0  0  0  0  0  0  0
   -7.1140   14.5860    0.0760 C   0  0  0  0  0  0  0  0  0  0  0  0
   -6.1220   14.9030    2.2330 C   0  0  0  0  0  0  0  0  0  0  0  0
   -7.2530   14.7100    1.4550 C   0  0  0  0  0  0  0  0  0  0  0  0
  1  2  1  0
  2  3  2  0
  2  4  1  0
  3  5  1  0
  4  6  1  0
  4  7  2  0
  3  8  1  0
  6  9  2  3
  6 10  1  0
  7 11  1  0
  8 11  2  0
  9 12  1  0
 12 13  2  0
 12 14  1  0
 14 15  2  0
 14 16  1  0
 15 17  1  0
 16 18  2  0
 17 19  2  0
 18 19  1  0
 17 20  1  0
 19 21  1  0
 20 22  2  0
 21 23  2  0
 22 23  1  0
M  END
