mac-x0142-mac-x0255
     RDKit          3D

 26 30  0  0  0  0  0  0  0  0999 V2000
    0.8620   12.4200   -1.9870 O   0  0  0  0  0  0  0  0  0  0  0  0
    0.5070   11.4400   -2.8460 C   0  0  0  0  0  0  0  0  0  0  0  0
    0.1170   10.3590   -2.4480 O   0  0  0  0  0  0  0  0  0  0  0  0
    0.6500   11.7500   -4.3280 C   0  0  0  0  0  0  0  0  0  0  0  0
   -0.1100   12.9680   -4.8070 C   0  0  2  0  0  0  0  0  0  0  0  0
    0.5980   14.1920   -4.2770 C   0  0  2  0  0  0  0  0  0  0  0  0
   -1.6250   12.8650   -4.4710 C   0  0  0  0  0  0  0  0  0  0  0  0
    2.0980   14.3580   -4.4810 C   0  0  0  0  0  0  0  0  0  0  0  0
    1.6150   13.9060   -3.1580 C   0  0  0  0  0  0  0  0  0  0  0  0
   -2.2190   13.8840   -3.4830 C   0  0  0  0  0  0  0  0  0  0  0  0
   -0.4020   15.3750   -4.0600 C   0  0  1  0  0  0  0  0  0  0  0  0
   -1.2440   14.8330   -2.9350 N   0  0  0  0  0  0  0  0  0  0  0  0
    0.3300   16.7380   -4.0310 C   0  0  0  0  0  0  0  0  0  0  0  0
   -1.5150   15.5100   -5.1150 C   0  0  0  0  0  0  0  0  0  0  0  0
   -1.2360   14.8840   -1.5080 C   0  0  0  0  0  0  0  0  0  0  0  0
   -0.1230   17.8840   -4.5970 C   0  0  0  0  0  0  0  0  0  0  0  0
   -1.9720   16.6590   -5.6570 C   0  0  0  0  0  0  0  0  0  0  0  0
   -0.1450   14.8240   -0.6510 N   0  0  0  0  0  0  0  0  0  0  0  0
   -2.4170   14.9940   -0.8640 C   0  0  0  0  0  0  0  0  0  0  0  0
   -1.4210   17.9990   -5.3280 C   0  0  0  0  0  0  0  0  0  0  0  0
   -0.2920   14.8630    0.7250 C   0  0  0  0  0  0  0  0  0  0  0  0
   -2.4910   15.0430    0.6180 C   0  0  0  0  0  0  0  0  0  0  0  0
   -3.7850   15.1100   -1.2550 C   0  0  0  0  0  0  0  0  0  0  0  0
   -1.3890   14.9460    1.4020 N   0  0  0  0  0  0  0  0  0  0  0  0
   -3.7080   15.2090    1.0440 N   0  0  0  0  0  0  0  0  0  0  0  0
   -4.4700   15.2420   -0.1110 C   0  0  0  0  0  0  0  0  0  0  0  0
  1  2  1  0
  2  3  2  0
  2  4  1  0
  5  4  1  1
  5  6  1  0
  5  7  1  0
  6  8  1  6
  6  9  1  0
  8  9  1  0
  7 10  1  0
  6 11  1  0
 10 12  1  0
 11 12  1  0
 11 13  1  1
 11 14  1  0
 12 15  1  0
 13 16  2  0
 14 17  2  0
 15 18  1  0
 15 19  2  0
 16 20  1  0
 17 20  1  0
 18 21  1  0
 19 22  1  0
 19 23  1  0
 21 24  2  0
 22 24  1  0
 22 25  2  0
 23 26  2  0
 25 26  1  0
M  END
