mac-x0163-diamond-x0128_0_A
     RDKit          3D

 33 37  0  0  0  0  0  0  0  0999 V2000
   -3.3890   15.5230   -1.6230 Cl  0  0  0  0  0  0  0  0  0  0  0  0
   -2.1940   15.1010   -0.4490 C   0  0  0  0  0  0  0  0  0  0  0  0
   -2.4980   14.9930    0.9350 C   0  0  0  0  0  0  0  0  0  0  0  0
   -0.8760   14.8490   -0.8450 C   0  0  0  0  0  0  0  0  0  0  0  0
   -3.8270   15.2390    1.4340 N   0  0  0  0  0  0  0  0  0  0  0  0
    0.0540   14.5190    0.0510 N   0  0  0  0  0  0  0  0  0  0  0  0
   -1.5460   14.6560    1.8080 N   0  0  0  0  0  0  0  0  0  0  0  0
   -0.4180   14.9200   -2.1940 N   0  0  0  0  0  0  0  0  0  0  0  0
   -0.3280   14.4380    1.3270 C   0  0  0  0  0  0  0  0  0  0  0  0
   -0.0720   13.6090   -2.7780 C   0  0  0  0  0  0  0  0  0  0  0  0
   -1.0200   15.8960   -3.1090 C   0  0  0  0  0  0  0  0  0  0  0  0
   -4.9600   15.0900    0.6040 C   0  0  0  0  0  0  0  0  0  0  0  0
    0.8150   13.8250   -4.0200 C   0  0  0  0  0  0  0  0  0  0  0  0
   -1.2140   15.2370   -4.4880 C   0  0  0  0  0  0  0  0  0  0  0  0
   -4.7500   15.2030   -0.7620 C   0  0  0  0  0  0  0  0  0  0  0  0
   -6.2850   14.8340    1.0750 C   0  0  0  0  0  0  0  0  0  0  0  0
   -6.5660   14.7270    2.4610 N   0  0  0  0  0  0  0  0  0  0  0  0
    2.2250   14.3870   -3.6670 C   0  0  0  0  0  0  0  0  0  0  0  0
    1.5360   12.5620   -4.5750 C   0  0  0  0  0  0  0  0  0  0  0  0
    0.0590   14.6140   -5.0800 C   0  0  0  0  0  0  0  0  0  0  0  0
   -7.3120   14.7020    0.1430 C   0  0  0  0  0  0  0  0  0  0  0  0
   -5.7830   15.0730   -1.6690 C   0  0  0  0  0  0  0  0  0  0  0  0
   -7.7180   15.1520    3.1130 C   0  0  0  0  0  0  0  0  0  0  0  0
   -7.0580   14.8220   -1.2200 C   0  0  0  0  0  0  0  0  0  0  0  0
    2.7990   12.9620   -3.7890 C   0  0  0  0  0  0  0  0  0  0  0  0
   -8.8000   15.2980    2.5560 O   0  0  0  0  0  0  0  0  0  0  0  0
   -7.4960   15.4090    4.4650 N   0  0  0  0  0  0  0  0  0  0  0  0
   -8.3590   16.0970    5.3550 C   0  0  0  0  0  0  0  0  0  0  0  0
   -9.0450   17.2290    4.9010 C   0  0  0  0  0  0  0  0  0  0  0  0
   -8.5850   15.7290    6.6780 C   0  0  0  0  0  0  0  0  0  0  0  0
   -9.8970   17.9750    5.6440 N   0  0  0  0  0  0  0  0  0  0  0  0
   -9.4560   16.4800    7.4720 C   0  0  0  0  0  0  0  0  0  0  0  0
  -10.0820   17.5840    6.9160 C   0  0  0  0  0  0  0  0  0  0  0  0
  1  2  1  0
  2  3  2  0
  2  4  1  0
  3  5  1  0
  4  6  2  0
  3  7  1  0
  4  8  1  0
  6  9  1  0
  7  9  2  0
  8 10  1  0
  8 11  1  0
  5 12  1  0
 13 10  1  0
 11 14  1  0
 12 15  2  0
 12 16  1  0
 16 17  1  0
 13 18  1  0
 13 19  1  0
 13 20  1  0
 14 20  1  0
 16 21  2  0
 15 22  1  0
 17 23  1  0
 21 24  1  0
 22 24  2  0
 18 25  1  0
 19 25  1  0
 23 26  2  0
 23 27  1  0
 27 28  1  0
 28 29  2  0
 28 30  1  0
 29 31  1  0
 30 32  2  0
 31 33  2  0
 32 33  1  0
M  END
