mac-x0564-diamond-x0905_0_A
     RDKit          3D

 15 17  0  0  0  0  0  0  0  0999 V2000
    0.7840   14.2570   -1.0710 O   0  0  0  0  0  0  0  0  0  0  0  0
    0.0360   14.3420   -2.0340 C   0  0  0  0  0  0  0  0  0  0  0  0
    0.4910   14.2210   -3.3470 N   0  0  0  0  0  0  0  0  0  0  0  0
   -1.3870   14.5580   -1.9470 C   0  0  0  0  0  0  0  0  0  0  0  0
   -2.2130   14.6680   -3.0340 C   0  0  0  0  0  0  0  0  0  0  0  0
   -0.3500   14.3420   -4.3260 C   0  0  0  0  0  0  0  0  0  0  0  0
   -2.1010   14.6740   -0.7870 O   0  0  0  0  0  0  0  0  0  0  0  0
   -1.7030   14.5840   -4.2780 N   0  0  0  0  0  0  0  0  0  0  0  0
   -3.4110   14.8530   -1.1660 C   0  0  0  0  0  0  0  0  0  0  0  0
   -3.5170   14.8540   -2.5590 C   0  0  0  0  0  0  0  0  0  0  0  0
   -4.7760   15.0200   -3.1420 C   0  0  0  0  0  0  0  0  0  0  0  0
   -4.5060   15.0080   -0.3100 C   0  0  0  0  0  0  0  0  0  0  0  0
   -5.8860   15.1760   -2.3170 C   0  0  0  0  0  0  0  0  0  0  0  0
   -5.7500   15.1640   -0.9420 C   0  0  0  0  0  0  0  0  0  0  0  0
   -6.8630   15.3010   -0.1760 O   0  0  0  0  0  0  0  0  0  0  0  0
  1  2  2  0
  2  3  1  0
  2  4  1  0
  4  5  2  0
  3  6  2  0
  4  7  1  0
  5  8  1  0
  6  8  1  0
  7  9  1  0
  5 10  1  0
  9 10  2  0
 10 11  1  0
  9 12  1  0
 11 13  2  0
 12 14  2  0
 13 14  1  0
 14 15  1  0
M  END
