mac-x0190-mac-x0365
     RDKit          3D

 16 17  0  0  0  0  0  0  0  0999 V2000
   -9.3290   14.9840    2.5500 O   0  0  0  0  0  0  0  0  0  0  0  0
   -8.9820   14.1240    1.4770 C   0  0  0  0  0  0  0  0  0  0  0  0
   -7.5780   14.3900    0.9960 C   0  0  0  0  0  0  0  0  0  0  0  0
   -7.2970   14.3360   -0.3570 N   0  0  0  0  0  0  0  0  0  0  0  0
   -6.6030   14.7120    1.8040 N   0  0  0  0  0  0  0  0  0  0  0  0
   -6.0350   14.6530   -0.3810 C   0  0  0  0  0  0  0  0  0  0  0  0
   -5.5310   14.8300    0.9620 C   0  0  0  0  0  0  0  0  0  0  0  0
   -5.1660   14.8840   -1.5690 C   0  0  2  0  0  0  0  0  0  0  0  0
   -4.2280   15.0500    1.1770 C   0  0  0  0  0  0  0  0  0  0  0  0
   -5.6670   16.1320   -1.9010 O   0  0  0  0  0  0  0  0  0  0  0  0
   -5.4920   14.1190   -2.6360 F   0  0  0  0  0  0  0  0  0  0  0  0
   -3.6920   14.9680   -1.2130 C   0  0  0  0  0  0  0  0  0  0  0  0
   -3.2900   15.0620    0.0710 C   0  0  0  0  0  0  0  0  0  0  0  0
   -2.5810   14.9280   -2.2170 C   0  0  0  0  0  0  0  0  0  0  0  0
   -1.3360   14.8690   -1.6760 O   0  0  0  0  0  0  0  0  0  0  0  0
   -2.7350   14.9370   -3.4300 O   0  0  0  0  0  0  0  0  0  0  0  0
  1  2  1  0
  2  3  1  0
  3  4  1  0
  3  5  2  0
  4  6  2  0
  5  7  1  0
  6  7  1  0
  6  8  1  0
  7  9  2  0
  8 10  1  6
  8 11  1  0
  8 12  1  0
  9 13  1  0
 12 13  2  0
 12 14  1  0
 14 15  1  0
 14 16  2  0
M  END
