mac-x0404-mac-x0179
     RDKit          3D

 26 29  0  0  0  0  0  0  0  0999 V2000
    1.1250   12.8160   -1.9150 O   0  0  0  0  0  0  0  0  0  0  0  0
    0.7870   12.0050   -2.9420 C   0  0  0  0  0  0  0  0  0  0  0  0
    0.2870   10.9140   -2.7060 O   0  0  0  0  0  0  0  0  0  0  0  0
    1.1030   12.5830   -4.3350 C   0  0  2  0  0  0  0  0  0  0  0  0
    1.0070   14.0060   -4.3760 O   0  0  0  0  0  0  0  0  0  0  0  0
    0.2490   11.9340   -5.3350 N   0  0  0  0  0  0  0  0  0  0  0  0
   -0.2180   14.5370   -4.6910 C   0  0  0  0  0  0  0  0  0  0  0  0
    0.8090   11.5070   -6.4930 C   0  0  0  0  0  0  0  0  0  0  0  0
   -0.8560   11.1680   -5.0360 C   0  0  0  0  0  0  0  0  0  0  0  0
    1.8280   11.8700   -6.9880 O   0  0  0  0  0  0  0  0  0  0  0  0
   -1.5710   11.1990   -4.0530 O   0  0  0  0  0  0  0  0  0  0  0  0
   -0.2700   15.9080   -5.0070 C   0  0  0  0  0  0  0  0  0  0  0  0
   -1.3810   13.7730   -4.7040 C   0  0  0  0  0  0  0  0  0  0  0  0
   -0.0340   10.4520   -7.0500 C   0  0  0  0  0  0  0  0  0  0  0  0
   -1.0590   10.2430   -6.1560 C   0  0  0  0  0  0  0  0  0  0  0  0
   -1.5140   16.4890   -5.3370 C   0  0  0  0  0  0  0  0  0  0  0  0
   -2.6020   14.3500   -5.0300 C   0  0  0  0  0  0  0  0  0  0  0  0
    0.8700   16.7190   -5.0080 C   0  0  0  0  0  0  0  0  0  0  0  0
    0.0800    9.7350   -8.2230 C   0  0  0  0  0  0  0  0  0  0  0  0
   -2.0440    9.2990   -6.3820 C   0  0  0  0  0  0  0  0  0  0  0  0
   -2.6680   15.7020   -5.3440 C   0  0  0  0  0  0  0  0  0  0  0  0
   -1.5800   17.8450   -5.6600 C   0  0  0  0  0  0  0  0  0  0  0  0
    0.7940   18.0710   -5.3310 C   0  0  0  0  0  0  0  0  0  0  0  0
   -0.9020    8.7700   -8.4780 C   0  0  0  0  0  0  0  0  0  0  0  0
   -1.9560    8.5540   -7.5650 C   0  0  0  0  0  0  0  0  0  0  0  0
   -0.4350   18.6280   -5.6590 C   0  0  0  0  0  0  0  0  0  0  0  0
  1  2  1  0
  2  3  2  0
  2  4  1  0
  4  5  1  1
  4  6  1  0
  5  7  1  0
  6  8  1  0
  6  9  1  0
  8 10  2  0
  9 11  2  0
  7 12  1  0
  7 13  2  0
  8 14  1  0
  9 15  1  0
 14 15  2  0
 12 16  2  0
 13 17  1  0
 12 18  1  0
 14 19  1  0
 15 20  1  0
 16 21  1  0
 17 21  2  0
 16 22  1  0
 18 23  2  0
 19 24  2  0
 20 25  2  0
 24 25  1  0
 22 26  2  0
 23 26  1  0
M  END
