mac-x0204-diamond-x0967_0_A
     RDKit          3D

 22 24  0  0  0  0  0  0  0  0999 V2000
    0.1410   13.3860   -1.7200 O   0  0  0  0  0  0  0  0  0  0  0  0
   -0.1350   14.5770   -2.4420 C   0  0  0  0  0  0  0  0  0  0  0  0
    1.1270   15.0100   -2.8900 O   0  0  0  0  0  0  0  0  0  0  0  0
   -0.7520   15.6580   -1.5120 C   0  0  0  0  0  0  0  0  0  0  0  0
   -1.0760   14.3190   -3.6050 C   0  0  0  0  0  0  0  0  0  0  0  0
   -1.4490   15.2200   -0.2140 C   0  0  0  0  0  0  0  0  0  0  0  0
   -1.5990   15.3900   -4.3430 C   0  0  0  0  0  0  0  0  0  0  0  0
   -1.4700   13.0360   -3.9980 C   0  0  0  0  0  0  0  0  0  0  0  0
   -2.4630   15.1560   -5.3990 C   0  0  0  0  0  0  0  0  0  0  0  0
   -2.3160   12.7770   -5.0310 N   0  0  0  0  0  0  0  0  0  0  0  0
   -2.9500   15.0870   -0.3110 C   0  0  0  0  0  0  0  0  0  0  0  0
   -2.9490   16.2310   -6.0860 O   0  0  0  0  0  0  0  0  0  0  0  0
   -2.7950   13.8460   -5.7080 C   0  0  0  0  0  0  0  0  0  0  0  0
   -3.6170   15.0620   -1.5320 C   0  0  0  0  0  0  0  0  0  0  0  0
   -3.7510   14.9800    0.8270 C   0  0  0  0  0  0  0  0  0  0  0  0
   -5.1410   14.8450    0.6910 C   0  0  0  0  0  0  0  0  0  0  0  0
   -4.9570   14.9350   -1.6750 N   0  0  0  0  0  0  0  0  0  0  0  0
   -5.7180   14.8230   -0.5910 C   0  0  0  0  0  0  0  0  0  0  0  0
   -5.9790   14.7280    1.8040 C   0  0  0  0  0  0  0  0  0  0  0  0
   -7.0380   14.6870   -0.7510 N   0  0  0  0  0  0  0  0  0  0  0  0
   -7.3450   14.5850    1.6310 C   0  0  0  0  0  0  0  0  0  0  0  0
   -7.8250   14.5700    0.3400 C   0  0  0  0  0  0  0  0  0  0  0  0
  2  1  1  0
  2  3  1  0
  2  4  1  0
  2  5  1  0
  4  6  1  0
  5  7  2  0
  5  8  1  0
  7  9  1  0
  8 10  2  0
  6 11  1  0
  9 12  1  0
  9 13  2  0
 10 13  1  0
 11 14  2  0
 11 15  1  0
 15 16  2  0
 14 17  1  0
 16 18  1  0
 17 18  2  0
 16 19  1  0
 18 20  1  0
 19 21  2  0
 20 22  2  0
 21 22  1  0
M  END
