mac-x0565-mac-x0546
     RDKit          3D

 27 30  0  0  0  0  0  0  0  0999 V2000
   -5.6430   15.2050    0.9000 O   0  0  0  0  0  0  0  0  0  0  0  0
   -6.1770   15.1210   -0.3300 C   0  0  0  0  0  0  0  0  0  0  0  0
   -7.3770   15.1860   -0.5200 O   0  0  0  0  0  0  0  0  0  0  0  0
   -5.1380   14.9280   -1.3540 C   0  0  0  0  0  0  0  0  0  0  0  0
   -3.8000   14.8160   -0.9990 C   0  0  0  0  0  0  0  0  0  0  0  0
   -5.5250   14.8470   -2.7030 C   0  0  0  0  0  0  0  0  0  0  0  0
   -2.9030   14.6100   -2.0140 C   0  0  0  0  0  0  0  0  0  0  0  0
   -4.5790   14.6360   -3.7110 C   0  0  0  0  0  0  0  0  0  0  0  0
   -3.2490   14.5080   -3.3630 C   0  0  0  0  0  0  0  0  0  0  0  0
   -1.5660   14.4690   -1.8420 O   0  0  0  0  0  0  0  0  0  0  0  0
   -2.0860   14.2720   -4.1460 N   0  0  0  0  0  0  0  0  0  0  0  0
   -1.3040   13.7160   -3.0450 C   0  0  0  0  0  0  0  0  0  0  0  0
   -1.4680   15.2370   -4.8600 C   0  0  0  0  0  0  0  0  0  0  0  0
   -2.0570   16.3570   -5.2650 C   0  0  0  0  0  0  0  0  0  0  0  0
   -0.0040   15.0380   -5.1830 C   0  0  1  0  0  0  0  0  0  0  0  0
   -3.3860   16.5220   -5.0830 O   0  0  0  0  0  0  0  0  0  0  0  0
    0.5840   16.3850   -4.9460 C   0  0  0  0  0  0  0  0  0  0  0  0
   -1.3180   17.4370   -5.8830 C   0  0  0  0  0  0  0  0  0  0  0  0
    0.9200   14.2390   -4.3320 C   0  0  0  0  0  0  0  0  0  0  0  0
   -4.0660   15.6350   -5.9950 C   0  0  0  0  0  0  0  0  0  0  0  0
    0.8470   12.7350   -4.2810 C   0  0  0  0  0  0  0  0  0  0  0  0
    0.0180   17.5060   -5.7250 C   0  0  0  0  0  0  0  0  0  0  0  0
    1.5140   16.4200   -4.0770 N   0  0  0  0  0  0  0  0  0  0  0  0
    1.7320   15.1030   -3.7240 C   0  0  0  0  0  0  0  0  0  0  0  0
    0.7050   12.0930   -2.9100 C   0  0  0  0  0  0  0  0  0  0  0  0
    1.0900   12.5970   -1.8730 O   0  0  0  0  0  0  0  0  0  0  0  0
    0.1030   10.8790   -2.9540 O   0  0  0  0  0  0  0  0  0  0  0  0
  1  2  1  0
  2  3  2  0
  2  4  1  0
  4  5  2  0
  4  6  1  0
  5  7  1  0
  6  8  2  0
  7  9  2  0
  8  9  1  0
  7 10  1  0
  9 11  1  0
 10 12  1  0
 11 12  1  0
 11 13  1  0
 13 14  2  0
 15 13  1  1
 14 16  1  0
 15 17  1  0
 14 18  1  0
 15 19  1  0
 16 20  1  0
 19 21  1  0
 17 22  1  0
 18 22  2  0
 17 23  2  0
 19 24  2  0
 23 24  1  0
 21 25  1  0
 25 26  2  0
 25 27  1  0
M  END
