mac-x0357-diamond-x0837_0_A
     RDKit          3D

 20 21  0  0  0  0  0  0  0  0999 V2000
    2.3360   13.1530   -4.4800 C   0  0  0  0  0  0  0  0  0  0  0  0
    1.0760   12.4420   -4.8050 C   0  0  0  0  0  0  0  0  0  0  0  0
    0.8690   11.8370   -6.0230 C   0  0  0  0  0  0  0  0  0  0  0  0
    0.0740   12.3690   -3.8680 C   0  0  0  0  0  0  0  0  0  0  0  0
    1.9040   11.9300   -6.9160 O   0  0  0  0  0  0  0  0  0  0  0  0
    0.1930   12.9740   -2.5480 C   0  0  0  0  0  0  0  0  0  0  0  0
   -1.0920   11.6950   -4.1940 C   0  0  0  0  0  0  0  0  0  0  0  0
   -0.2800   11.1730   -6.3560 C   0  0  0  0  0  0  0  0  0  0  0  0
   -0.8410   13.2870   -1.8400 N   0  0  0  0  0  0  0  0  0  0  0  0
    1.4380   13.2230   -2.0030 O   0  0  0  0  0  0  0  0  0  0  0  0
   -1.2780   11.1030   -5.4190 C   0  0  0  0  0  0  0  0  0  0  0  0
   -2.1870   13.0510   -2.2650 C   0  0  0  0  0  0  0  0  0  0  0  0
   -3.1920   14.8780   -2.6800 I   0  0  0  0  0  0  0  0  0  0  0  0
   -4.3870   15.2980   -0.9930 C   0  0  2  0  0  0  0  0  0  0  0  0
   -3.6520   15.2440    0.2690 C   0  0  0  0  0  0  0  0  0  0  0  0
   -5.6130   14.4620   -0.9700 C   0  0  0  0  0  0  0  0  0  0  0  0
   -4.2630   15.0050    1.3910 C   0  0  0  0  0  0  0  0  0  0  0  0
   -6.4000   14.7260    0.2490 C   0  0  0  0  0  0  0  0  0  0  0  0
   -7.6230   14.8820    0.1740 O   0  0  0  0  0  0  0  0  0  0  0  0
   -5.6850   14.7750    1.4760 N   0  0  0  0  0  0  0  0  0  0  0  0
  1  2  1  0
  2  3  2  0
  2  4  1  0
  3  5  1  0
  4  6  1  0
  4  7  2  0
  3  8  1  0
  6  9  2  3
  6 10  1  0
  7 11  1  0
  8 11  2  0
  9 12  1  0
 12 13  1  0
 14 13  1  6
 14 15  1  0
 14 16  1  0
 15 17  2  0
 16 18  1  0
 18 19  2  0
 17 20  1  0
 18 20  1  0
M  END
