mac-x0527-mac-x0576
     RDKit          3D

 22 25  0  0  0  0  0  0  0  0999 V2000
   -3.6830   14.9260   -4.0600 O   0  0  0  0  0  0  0  0  0  0  0  0
   -3.2240   14.8320   -2.9350 C   0  0  0  0  0  0  0  0  0  0  0  0
   -1.9840   14.2690   -2.5830 N   0  0  0  0  0  0  0  0  0  0  0  0
   -3.9160   15.3290   -1.6870 C   0  0  1  0  0  0  0  0  0  0  0  0
   -0.9910   14.3680   -3.6490 C   0  0  0  0  0  0  0  0  0  0  0  0
   -5.2530   14.6180   -1.4680 C   0  0  0  0  0  0  0  0  0  0  0  0
   -2.8920   15.2090   -0.6510 N   0  0  0  0  0  0  0  0  0  0  0  0
   -1.6860   14.7030   -1.2560 C   0  0  1  0  0  0  0  0  0  0  0  0
   -0.8980   13.1260   -4.4910 C   0  0  0  0  0  0  0  0  0  0  0  0
   -5.7200   14.7490   -0.1020 N   0  0  0  0  0  0  0  0  0  0  0  0
   -3.3480   14.5070    0.5140 C   0  0  2  0  0  0  0  0  0  0  0  0
   -0.9890   13.9110   -0.3220 N   0  0  0  0  0  0  0  0  0  0  0  0
   -1.8140   12.0860   -4.2860 C   0  0  0  0  0  0  0  0  0  0  0  0
    0.0920   12.9870   -5.4760 C   0  0  0  0  0  0  0  0  0  0  0  0
   -4.8020   14.9660    0.8970 C   0  0  0  0  0  0  0  0  0  0  0  0
   -0.9810   14.6390    0.8990 C   0  0  1  0  0  0  0  0  0  0  0  0
   -2.2860   14.5470    1.5140 N   0  0  0  0  0  0  0  0  0  0  0  0
   -5.1690   15.4770    1.9350 O   0  0  0  0  0  0  0  0  0  0  0  0
   -0.1410   13.9100    1.7740 N   0  0  0  0  0  0  0  0  0  0  0  0
   -1.7460   10.9230   -5.0500 C   0  0  0  0  0  0  0  0  0  0  0  0
    0.1580   11.8210   -6.2400 C   0  0  0  0  0  0  0  0  0  0  0  0
   -0.7600   10.7940   -6.0250 C   0  0  0  0  0  0  0  0  0  0  0  0
  1  2  2  0
  2  3  1  0
  2  4  1  0
  3  5  1  0
  4  6  1  1
  4  7  1  0
  3  8  1  0
  7  8  1  0
  5  9  1  0
  6 10  1  0
  7 11  1  0
  8 12  1  1
  9 13  2  0
  9 14  1  0
 10 15  1  0
 11 15  1  0
 12 16  1  0
 11 17  1  1
 16 17  1  0
 15 18  2  0
 16 19  1  1
 13 20  1  0
 14 21  2  0
 20 22  2  0
 21 22  1  0
M  END
