mac-x0188-mac-x0546
     RDKit          3D

 28 32  0  0  0  0  0  0  0  0999 V2000
    0.6290   12.6050   -4.3470 C   0  0  1  0  0  0  0  0  0  0  0  0
    0.5120   11.9090   -2.9280 C   0  0  0  0  0  0  0  0  0  0  0  0
    0.6120   10.5730   -2.8670 O   0  0  0  0  0  0  0  0  0  0  0  0
   -0.6760   13.0760   -4.0550 C   0  0  0  0  0  0  0  0  0  0  0  0
    0.7150   14.0970   -4.5040 C   0  0  0  0  0  0  0  0  0  0  0  0
    0.3220   12.5110   -1.7930 N   0  0  0  0  0  0  0  0  0  0  0  0
   -1.7110   12.9590   -4.8920 O   0  0  0  0  0  0  0  0  0  0  0  0
   -0.9820   13.6860   -2.9230 C   0  0  0  0  0  0  0  0  0  0  0  0
   -0.4380   15.1060   -4.4000 C   0  0  2  0  0  0  0  0  0  0  0  0
    1.7980   14.7840   -4.6760 C   0  0  0  0  0  0  0  0  0  0  0  0
    0.0820   13.8220   -1.9890 C   0  0  0  0  0  0  0  0  0  0  0  0
   -2.7930   13.5350   -4.2530 N   0  0  0  0  0  0  0  0  0  0  0  0
   -2.3260   13.9640   -3.0560 C   0  0  0  0  0  0  0  0  0  0  0  0
   -1.7060   15.1590   -5.1850 C   0  0  0  0  0  0  0  0  0  0  0  0
    0.3670   16.3350   -4.6800 C   0  0  0  0  0  0  0  0  0  0  0  0
    1.6080   16.1250   -4.8090 N   0  0  0  0  0  0  0  0  0  0  0  0
    0.6150   14.8230   -1.5240 O   0  0  0  0  0  0  0  0  0  0  0  0
   -3.1420   14.5870   -2.0860 C   0  0  0  0  0  0  0  0  0  0  0  0
   -2.2440   16.3490   -5.5140 C   0  0  0  0  0  0  0  0  0  0  0  0
   -0.3000   17.6410   -4.7600 C   0  0  0  0  0  0  0  0  0  0  0  0
   -3.4120   16.5360   -6.1900 O   0  0  0  0  0  0  0  0  0  0  0  0
   -4.3680   15.1400   -2.4250 C   0  0  0  0  0  0  0  0  0  0  0  0
   -2.6800   14.6190   -0.7750 C   0  0  0  0  0  0  0  0  0  0  0  0
   -1.5800   17.5940   -5.1650 C   0  0  0  0  0  0  0  0  0  0  0  0
   -4.3510   15.4590   -6.1520 C   0  0  0  0  0  0  0  0  0  0  0  0
   -5.1350   15.7220   -1.4360 C   0  0  0  0  0  0  0  0  0  0  0  0
   -3.4430   15.1990    0.2060 C   0  0  0  0  0  0  0  0  0  0  0  0
   -4.6640   15.7450   -0.1270 C   0  0  0  0  0  0  0  0  0  0  0  0
  1  2  1  0
  2  3  1  0
  1  4  1  0
  1  5  1  1
  2  6  2  0
  4  7  1  0
  4  8  2  0
  5  9  1  0
  5 10  2  0
  6 11  1  0
  8 11  1  0
  7 12  1  0
  8 13  1  0
 12 13  2  0
  9 14  1  6
  9 15  1  0
 10 16  1  0
 15 16  2  0
 11 17  2  0
 13 18  1  0
 14 19  2  0
 15 20  1  0
 19 21  1  0
 18 22  2  0
 18 23  1  0
 19 24  1  0
 20 24  2  0
 21 25  1  0
 22 26  1  0
 23 27  2  0
 26 28  2  0
 27 28  1  0
M  END
