mac-x0385-diamond-x0926_0_A
     RDKit          3D

  9  9  0  0  0  0  0  0  0  0999 V2000
   -5.1510   15.5740   -0.8260 C   0  0  0  0  0  0  0  0  0  0  0  0
   -3.7750   15.2840   -0.3430 C   0  0  0  0  0  0  0  0  0  0  0  0
   -2.7750   14.9150   -1.2160 C   0  0  0  0  0  0  0  0  0  0  0  0
   -3.4040   15.3640    0.9940 C   0  0  0  0  0  0  0  0  0  0  0  0
   -4.3180   15.7330    1.9770 N   0  0  0  0  0  0  0  0  0  0  0  0
   -2.1670   15.1040    1.4270 N   0  0  0  0  0  0  0  0  0  0  0  0
   -1.5210   14.6490   -0.8300 N   0  0  0  0  0  0  0  0  0  0  0  0
   -1.2810   14.7610    0.4860 C   0  0  0  0  0  0  0  0  0  0  0  0
    0.0790   14.4840    0.9490 C   0  0  0  0  0  0  0  0  0  0  0  0
  1  2  1  0
  2  3  2  0
  2  4  1  0
  4  5  1  0
  4  6  2  0
  3  7  1  0
  6  8  1  0
  7  8  2  0
  8  9  1  0
M  END
