mac-x0116-mac-x0212
     RDKit          3D

 23 25  0  0  0  0  0  0  0  0999 V2000
   -6.0390   14.4610    1.9360 C   0  0  1  0  0  0  0  0  0  0  0  0
   -4.6330   14.8740    1.7010 N   0  0  0  0  0  0  0  0  0  0  0  0
   -3.8840   14.8510    0.5290 C   0  0  0  0  0  0  0  0  0  0  0  0
   -7.4230   14.7690    0.7670 S   0  0  0  0  0  0  0  0  0  0  0  0
   -6.3690   13.0370    1.9600 C   0  0  0  0  0  0  0  0  0  0  0  0
   -8.0680   13.1550    0.4240 C   0  0  0  0  0  0  0  0  0  0  0  0
   -8.4840   15.4340    1.5070 O   0  0  0  0  0  0  0  0  0  0  0  0
   -6.9750   15.2680   -0.5140 O   0  0  0  0  0  0  0  0  0  0  0  0
   -6.1920   12.3850    0.7770 O   0  0  0  0  0  0  0  0  0  0  0  0
   -6.8650   12.1990    2.9160 C   0  0  0  0  0  0  0  0  0  0  0  0
   -7.0280   10.9660    2.2840 C   0  0  0  0  0  0  0  0  0  0  0  0
   -6.6040   11.1270    0.9850 C   0  0  0  0  0  0  0  0  0  0  0  0
   -4.4700   14.9890   -0.7170 N   0  0  0  0  0  0  0  0  0  0  0  0
   -2.5500   14.6990    0.6100 C   0  0  0  0  0  0  0  0  0  0  0  0
   -3.7200   14.9410   -1.7860 C   0  0  0  0  0  0  0  0  0  0  0  0
   -1.7600   14.6650   -0.6040 C   0  0  0  0  0  0  0  0  0  0  0  0
   -1.6900   14.5630    1.6640 N   0  0  0  0  0  0  0  0  0  0  0  0
   -2.3550   14.7540   -1.8170 N   0  0  0  0  0  0  0  0  0  0  0  0
   -0.4980   14.5440   -0.3090 N   0  0  0  0  0  0  0  0  0  0  0  0
   -0.5290   14.4900    1.0890 C   0  0  0  0  0  0  0  0  0  0  0  0
   -1.7210   14.3960   -3.0070 C   0  0  0  0  0  0  0  0  0  0  0  0
   -0.6230   13.8500   -3.0540 O   0  0  0  0  0  0  0  0  0  0  0  0
   -2.3800   14.6770   -4.1630 O   0  0  0  0  0  0  0  0  0  0  0  0
  1  2  1  6
  2  3  1  0
  1  4  1  0
  1  5  1  0
  4  6  1  0
  4  7  2  0
  4  8  2  0
  5  9  1  0
  5 10  2  0
 10 11  1  0
  9 12  1  0
 11 12  2  0
  3 13  1  0
  3 14  2  0
 13 15  2  0
 14 16  1  0
 14 17  1  0
 15 18  1  0
 16 18  1  0
 16 19  2  0
 17 20  2  0
 19 20  1  0
 18 21  1  0
 21 22  2  0
 21 23  1  0
M  END
