mac-x0344-diamond-x0711_0_A
     RDKit          3D

 24 25  0  0  0  0  0  0  0  0999 V2000
    1.6400   13.4230   -4.5890 O   0  0  0  0  0  0  0  0  0  0  0  0
    0.5920   12.8150   -4.0060 C   0  0  0  0  0  0  0  0  0  0  0  0
   -0.3490   13.2900   -3.3580 N   0  0  0  0  0  0  0  0  0  0  0  0
    0.4270   11.3610   -4.2030 C   0  0  0  0  0  0  0  0  0  0  0  0
    0.4140   10.6350   -3.2180 O   0  0  0  0  0  0  0  0  0  0  0  0
    0.2650   11.1450   -5.5440 N   0  0  0  0  0  0  0  0  0  0  0  0
   -0.5530   14.8140   -3.1430 S   0  0  2  0  0  0  0  0  0  0  0  0
   -1.2360   14.9460   -1.6400 N   0  0  0  0  0  0  0  0  0  0  0  0
   -1.7090   15.0790   -4.4220 C   0  0  0  0  0  0  0  0  0  0  0  0
   -0.6760   10.3480   -6.1780 C   0  0  0  0  0  0  0  0  0  0  0  0
   -0.4620    9.7800   -7.4300 C   0  0  0  0  0  0  0  0  0  0  0  0
   -1.8870   10.1160   -5.5130 C   0  0  0  0  0  0  0  0  0  0  0  0
   -2.5800   14.8810   -1.2330 C   0  0  0  0  0  0  0  0  0  0  0  0
   -1.4430    8.9860   -8.0160 C   0  0  0  0  0  0  0  0  0  0  0  0
   -2.8680    9.3220   -6.0990 C   0  0  0  0  0  0  0  0  0  0  0  0
   -3.6640   15.1970   -2.0880 C   0  0  0  0  0  0  0  0  0  0  0  0
   -2.8590   14.5010    0.0640 C   0  0  0  0  0  0  0  0  0  0  0  0
   -2.6460    8.7550   -7.3540 C   0  0  0  0  0  0  0  0  0  0  0  0
   -4.9900   15.1260   -1.6170 C   0  0  0  0  0  0  0  0  0  0  0  0
   -4.1550   14.4290    0.5340 C   0  0  0  0  0  0  0  0  0  0  0  0
   -5.2260   14.7390   -0.2900 C   0  0  0  0  0  0  0  0  0  0  0  0
   -6.5730   14.6310    0.3230 C   0  0  0  0  0  0  0  0  0  0  0  0
   -6.6480   14.5750    1.6970 N   0  0  0  0  0  0  0  0  0  0  0  0
   -7.5900   14.6010   -0.3560 O   0  0  0  0  0  0  0  0  0  0  0  0
  1  2  1  0
  2  3  2  3
  2  4  1  0
  4  5  2  0
  4  6  1  0
  3  7  1  0
  7  8  1  0
  7  9  1  6
  6 10  1  0
 10 11  2  0
 10 12  1  0
  8 13  1  0
 11 14  1  0
 12 15  2  0
 13 16  2  0
 13 17  1  0
 14 18  2  0
 15 18  1  0
 16 19  1  0
 17 20  2  0
 19 21  2  0
 20 21  1  0
 21 22  1  0
 22 23  1  0
 22 24  2  0
M  END
