mac-x0131-mac-x1493
     RDKit          3D

 30 34  0  0  0  0  0  0  0  0999 V2000
   -3.8490   15.2600   -3.8460 C   0  0  0  0  0  0  0  0  0  0  0  0
   -3.3780   15.1980   -2.4300 C   0  0  0  0  0  0  0  0  0  0  0  0
   -4.0000   15.5230   -1.2210 C   0  0  0  0  0  0  0  0  0  0  0  0
   -2.1150   14.7270   -2.1360 N   0  0  0  0  0  0  0  0  0  0  0  0
   -5.3810   16.0360   -1.0190 C   0  0  0  0  0  0  0  0  0  0  0  0
   -1.1890   14.2470   -3.0120 C   0  0  0  0  0  0  0  0  0  0  0  0
   -3.0380   15.2450   -0.1850 C   0  0  0  0  0  0  0  0  0  0  0  0
   -1.8980   14.7660   -0.7930 C   0  0  0  0  0  0  0  0  0  0  0  0
   -2.1780   13.2690   -2.8360 C   0  0  0  0  0  0  0  0  0  0  0  0
   -2.9790   15.3300    1.2020 C   0  0  0  0  0  0  0  0  0  0  0  0
   -0.7450   14.3810   -0.2090 N   0  0  0  0  0  0  0  0  0  0  0  0
   -0.5390   13.2630   -3.8410 C   0  0  0  0  0  0  0  0  0  0  0  0
   -4.0340   15.7900    1.9750 N   0  0  0  0  0  0  0  0  0  0  0  0
   -2.1600   12.0240   -3.3980 O   0  0  0  0  0  0  0  0  0  0  0  0
   -1.8370   14.9440    1.8290 N   0  0  0  0  0  0  0  0  0  0  0  0
   -0.8010   14.5030    1.1070 C   0  0  0  0  0  0  0  0  0  0  0  0
    0.7250   13.3030   -4.4310 C   0  0  0  0  0  0  0  0  0  0  0  0
   -1.1070   12.0620   -4.2040 O   0  0  0  0  0  0  0  0  0  0  0  0
   -3.4530   13.4300   -2.0130 C   0  0  0  0  0  0  0  0  0  0  0  0
   -0.2440   11.3860   -4.9860 C   0  0  0  0  0  0  0  0  0  0  0  0
    0.9030   12.1090   -5.1600 C   0  0  0  0  0  0  0  0  0  0  0  0
   -3.5400   13.4410   -0.5900 C   0  0  0  0  0  0  0  0  0  0  0  0
   -4.6850   13.5940   -2.6650 C   0  0  0  0  0  0  0  0  0  0  0  0
   -4.7950   13.6340    0.0590 C   0  0  0  0  0  0  0  0  0  0  0  0
   -5.8940   13.7720   -2.0780 N   0  0  0  0  0  0  0  0  0  0  0  0
   -5.9460   13.8000   -0.7430 C   0  0  0  0  0  0  0  0  0  0  0  0
   -4.9290   13.6720    1.4610 C   0  0  0  0  0  0  0  0  0  0  0  0
   -7.1740   14.0040   -0.1310 C   0  0  0  0  0  0  0  0  0  0  0  0
   -6.1800   13.8820    2.0440 C   0  0  0  0  0  0  0  0  0  0  0  0
   -7.3020   14.0500    1.2520 C   0  0  0  0  0  0  0  0  0  0  0  0
  1  2  1  0
  2  3  2  0
  2  4  1  0
  3  5  1  0
  4  6  1  0
  3  7  1  0
  4  8  1  0
  7  8  2  0
  6  9  2  3
  7 10  1  0
  8 11  1  0
  6 12  1  0
 10 13  1  0
  9 14  1  0
 10 15  2  0
 11 16  2  0
 15 16  1  0
 12 17  2  0
 12 18  1  0
  9 19  1  0
 18 20  1  0
 17 21  1  0
 20 21  2  0
 19 22  2  0
 19 23  1  0
 22 24  1  0
 23 25  2  0
 24 26  2  0
 25 26  1  0
 24 27  1  0
 26 28  1  0
 27 29  2  0
 28 30  2  0
 29 30  1  0
M  END
