mac-x0188-mac-x0360
     RDKit          3D

 26 28  0  0  0  0  0  0  0  0999 V2000
    1.6720   13.0710   -5.1990 C   0  0  0  0  0  0  0  0  0  0  0  0
    0.3340   13.4810   -4.7510 C   0  0  0  0  0  0  0  0  0  0  0  0
   -0.6690   13.4180   -5.6680 O   0  0  0  0  0  0  0  0  0  0  0  0
   -0.1500   13.9390   -3.5510 C   0  0  0  0  0  0  0  0  0  0  0  0
    0.6440   14.1390   -2.3440 C   0  0  0  0  0  0  0  0  0  0  0  0
   -1.8460   13.8310   -5.0950 N   0  0  0  0  0  0  0  0  0  0  0  0
   -1.5340   14.1410   -3.8370 C   0  0  0  0  0  0  0  0  0  0  0  0
    1.1750   15.1930   -2.0530 O   0  0  0  0  0  0  0  0  0  0  0  0
    0.8110   13.0880   -1.4990 O   0  0  0  0  0  0  0  0  0  0  0  0
   -2.5240   14.6120   -2.9350 C   0  0  0  0  0  0  0  0  0  0  0  0
   -3.8250   15.0000   -3.3200 C   0  0  0  0  0  0  0  0  0  0  0  0
   -2.1150   14.6580   -1.6260 C   0  0  0  0  0  0  0  0  0  0  0  0
   -4.7160   15.4300   -2.3420 C   0  0  0  0  0  0  0  0  0  0  0  0
   -2.9790   15.0770   -0.6970 C   0  0  0  0  0  0  0  0  0  0  0  0
   -4.2480   15.4460   -1.0590 C   0  0  0  0  0  0  0  0  0  0  0  0
   -4.9330   15.7850    0.0770 N   0  0  0  0  0  0  0  0  0  0  0  0
   -4.1890   14.6710    0.7930 S   0  0  0  0  0  0  0  0  0  0  0  0
   -3.6750   14.6010    2.1130 O   0  0  0  0  0  0  0  0  0  0  0  0
   -4.9980   13.1840    0.2830 C   0  0  0  0  0  0  0  0  0  0  0  0
   -4.5850   12.4590   -0.8590 C   0  0  0  0  0  0  0  0  0  0  0  0
   -6.0590   12.7770    1.0520 C   0  0  0  0  0  0  0  0  0  0  0  0
   -5.2900   11.3010   -1.2010 C   0  0  0  0  0  0  0  0  0  0  0  0
   -6.7400   11.6330    0.6950 C   0  0  0  0  0  0  0  0  0  0  0  0
   -8.0650   11.1380    1.6640 Cl  0  0  0  0  0  0  0  0  0  0  0  0
   -4.8510   10.3550   -2.5740 Cl  0  0  0  0  0  0  0  0  0  0  0  0
   -6.3720   10.8900   -0.4250 C   0  0  0  0  0  0  0  0  0  0  0  0
  1  2  1  0
  2  3  1  0
  2  4  2  0
  4  5  1  0
  3  6  1  0
  4  7  1  0
  6  7  2  0
  5  8  2  0
  5  9  1  0
  7 10  1  0
 10 11  2  0
 10 12  1  0
 11 13  1  0
 12 14  2  0
 13 15  2  0
 14 15  1  0
 15 16  1  0
 16 17  2  0
 17 18  2  0
 17 19  1  0
 19 20  2  0
 19 21  1  0
 20 22  1  0
 21 23  2  0
 23 24  1  0
 22 25  1  0
 22 26  2  0
 23 26  1  0
M  END
