mac-x0565-diamond-x0591_0_A
     RDKit          3D

 17 18  0  0  0  0  0  0  0  0999 V2000
   -5.7700   15.1620    0.6450 O   0  0  0  0  0  0  0  0  0  0  0  0
   -6.1110   15.0000   -0.6640 C   0  0  0  0  0  0  0  0  0  0  0  0
   -7.2430   14.9270   -1.1030 O   0  0  0  0  0  0  0  0  0  0  0  0
   -6.5480   14.4210    1.5930 C   0  0  0  0  0  0  0  0  0  0  0  0
   -4.8590   14.9200   -1.4810 C   0  0  0  0  0  0  0  0  0  0  0  0
   -3.6290   14.8660   -0.8110 C   0  0  0  0  0  0  0  0  0  0  0  0
   -4.8830   14.8950   -2.9220 C   0  0  0  0  0  0  0  0  0  0  0  0
   -2.4800   14.7900   -1.5570 C   0  0  0  0  0  0  0  0  0  0  0  0
   -3.6360   14.8150   -3.6060 C   0  0  0  0  0  0  0  0  0  0  0  0
   -3.1790   14.7540   -5.2910 S   0  0  0  0  0  0  0  0  0  0  0  0
   -2.5010   14.7680   -2.9070 C   0  0  0  0  0  0  0  0  0  0  0  0
   -1.2090   14.7290   -1.0810 O   0  0  0  0  0  0  0  0  0  0  0  0
   -1.7430   15.6430   -5.2330 N   0  0  0  0  0  0  0  0  0  0  0  0
   -2.7030   13.4190   -5.5860 O   0  0  0  0  0  0  0  0  0  0  0  0
   -4.0390   15.5270   -6.1400 O   0  0  0  0  0  0  0  0  0  0  0  0
   -1.2700   14.6910   -3.4650 O   0  0  0  0  0  0  0  0  0  0  0  0
   -0.4410   14.7550   -2.3020 C   0  0  0  0  0  0  0  0  0  0  0  0
  1  2  1  0
  2  3  2  0
  1  4  1  0
  2  5  1  0
  5  6  2  0
  5  7  1  0
  6  8  1  0
  7  9  2  0
  9 10  1  0
  8 11  2  0
  9 11  1  0
  8 12  1  0
 10 13  1  0
 10 14  2  0
 10 15  2  0
 11 16  1  0
 12 17  1  0
 16 17  1  0
M  END
