mac-x0347-mac-x0193
     RDKit          3D

 28 30  0  0  0  0  0  0  0  0999 V2000
    1.1660   15.1260   -2.8410 O   0  0  0  0  0  0  0  0  0  0  0  0
    0.1650   14.2340   -2.8650 C   0  0  0  0  0  0  0  0  0  0  0  0
    0.1490   13.0130   -3.0430 N   0  0  0  0  0  0  0  0  0  0  0  0
   -1.1960   14.6710   -2.7890 C   0  0  0  0  0  0  0  0  0  0  0  0
    1.1550   12.1130   -3.3450 C   0  0  1  0  0  0  0  0  0  0  0  0
   -1.9420   14.5790   -1.6280 C   0  0  0  0  0  0  0  0  0  0  0  0
   -1.7720   15.1520   -3.9410 C   0  0  0  0  0  0  0  0  0  0  0  0
    0.6580   10.8230   -3.0020 O   0  0  0  0  0  0  0  0  0  0  0  0
    1.2220   12.2870   -4.8940 C   0  0  0  0  0  0  0  0  0  0  0  0
   -3.2720   14.9700   -1.6790 C   0  0  0  0  0  0  0  0  0  0  0  0
   -3.0470   15.5470   -4.0340 N   0  0  0  0  0  0  0  0  0  0  0  0
    0.3040   11.4010   -5.6360 N   0  0  0  0  0  0  0  0  0  0  0  0
   -3.7580   15.4350   -2.8920 C   0  0  0  0  0  0  0  0  0  0  0  0
   -4.1470   14.8960   -0.5340 C   0  0  0  0  0  0  0  0  0  0  0  0
    0.6250   11.1190   -6.9390 C   0  0  0  0  0  0  0  0  0  0  0  0
   -3.8300   15.5070    0.6790 C   0  0  0  0  0  0  0  0  0  0  0  0
   -5.3520   14.1900   -0.6490 C   0  0  0  0  0  0  0  0  0  0  0  0
    1.6510   11.5020   -7.4080 O   0  0  0  0  0  0  0  0  0  0  0  0
   -0.3240   10.3730   -7.6220 N   0  0  0  0  0  0  0  0  0  0  0  0
   -4.7010   15.4170    1.7450 C   0  0  0  0  0  0  0  0  0  0  0  0
   -6.2270   14.0970    0.4200 C   0  0  0  0  0  0  0  0  0  0  0  0
   -5.9010   14.7140    1.6190 C   0  0  0  0  0  0  0  0  0  0  0  0
   -0.0010    9.4670   -8.7430 C   0  0  0  0  0  0  0  0  0  0  0  0
    1.4750    9.2140   -8.8110 C   0  0  0  0  0  0  0  0  0  0  0  0
   -0.4700    9.9980  -10.1110 C   0  0  0  0  0  0  0  0  0  0  0  0
    1.8550    8.0720   -9.7360 C   0  0  0  0  0  0  0  0  0  0  0  0
    0.5030    9.6280  -11.2430 C   0  0  0  0  0  0  0  0  0  0  0  0
    1.1420    8.2400  -11.0750 C   0  0  0  0  0  0  0  0  0  0  0  0
  1  2  1  0
  2  3  2  3
  2  4  1  0
  3  5  1  0
  4  6  2  0
  4  7  1  0
  5  8  1  6
  5  9  1  0
  6 10  1  0
  7 11  2  0
  9 12  1  0
 10 13  2  0
 11 13  1  0
 10 14  1  0
 12 15  1  0
 14 16  2  0
 14 17  1  0
 15 18  2  0
 15 19  1  0
 16 20  1  0
 17 21  2  0
 20 22  2  0
 21 22  1  0
 19 23  1  0
 23 24  1  0
 23 25  1  0
 24 26  1  0
 25 27  1  0
 26 28  1  0
 27 28  1  0
M  END
