mac-x0206-mac-x0365
     RDKit          3D

 20 21  0  0  0  0  0  0  0  0999 V2000
   -3.5490   13.3280    0.4830 N   0  0  0  0  0  0  0  0  0  0  0  0
   -4.6260   13.3760   -0.3460 C   0  0  0  0  0  0  0  0  0  0  0  0
   -4.5220   13.1570   -1.5500 O   0  0  0  0  0  0  0  0  0  0  0  0
   -5.9370   13.7370    0.2580 C   0  0  0  0  0  0  0  0  0  0  0  0
   -6.7820   14.6440   -0.3540 C   0  0  0  0  0  0  0  0  0  0  0  0
   -6.3120   13.1550    1.4670 C   0  0  0  0  0  0  0  0  0  0  0  0
   -6.3540   15.2090   -1.4970 O   0  0  0  0  0  0  0  0  0  0  0  0
   -8.0150   14.9870    0.1970 C   0  0  0  0  0  0  0  0  0  0  0  0
   -7.5400   13.4980    2.0390 C   0  0  0  0  0  0  0  0  0  0  0  0
   -8.3950   14.4090    1.4070 C   0  0  0  0  0  0  0  0  0  0  0  0
   -5.0350   15.3720   -1.1600 C   0  0  0  0  0  0  0  0  0  0  0  0
   -4.0550   15.3800   -2.1570 C   0  0  0  0  0  0  0  0  0  0  0  0
   -4.6500   15.5060    0.1950 C   0  0  0  0  0  0  0  0  0  0  0  0
   -5.5060   15.4890    1.2730 O   0  0  0  0  0  0  0  0  0  0  0  0
   -2.7070   15.5210   -1.7860 C   0  0  0  0  0  0  0  0  0  0  0  0
   -3.3280   15.6570    0.5450 C   0  0  0  0  0  0  0  0  0  0  0  0
   -1.6020   15.5190   -2.7740 C   0  0  0  0  0  0  0  0  0  0  0  0
   -2.3520   15.6640   -0.4400 C   0  0  0  0  0  0  0  0  0  0  0  0
   -0.4070   15.2730   -2.2090 O   0  0  0  0  0  0  0  0  0  0  0  0
   -1.7050   15.7010   -3.9720 O   0  0  0  0  0  0  0  0  0  0  0  0
  1  2  1  0
  2  3  2  0
  2  4  1  0
  4  5  2  0
  4  6  1  0
  5  7  1  0
  5  8  1  0
  6  9  2  0
  8 10  2  0
  9 10  1  0
  7 11  1  0
 11 12  2  0
 11 13  1  0
 13 14  1  0
 12 15  1  0
 13 16  2  0
 15 17  1  0
 15 18  2  0
 16 18  1  0
 17 19  1  0
 17 20  2  0
M  END
