mac-x0417-mac-x0188
     RDKit          3D

 25 28  0  0  0  0  0  0  0  0999 V2000
    1.2940   12.5540   -2.4180 O   0  0  0  0  0  0  0  0  0  0  0  0
    0.7510   11.4310   -2.9170 C   0  0  0  0  0  0  0  0  0  0  0  0
    0.4420   10.3760   -2.3760 O   0  0  0  0  0  0  0  0  0  0  0  0
    0.6350   13.6880   -2.7120 C   0  0  0  0  0  0  0  0  0  0  0  0
    0.9960   14.8440   -2.4850 O   0  0  0  0  0  0  0  0  0  0  0  0
   -0.7070   13.3780   -3.3730 C   0  0  2  0  0  0  0  0  0  0  0  0
   -0.8820   13.0910   -4.8760 C   0  0  2  0  0  0  0  0  0  0  0  0
   -1.5080   14.6780   -3.2730 C   0  0  1  0  0  0  0  0  0  0  0  0
   -0.3270   12.0020   -5.7670 C   0  0  0  0  0  0  0  0  0  0  0  0
   -0.9950   14.3600   -5.4730 O   0  0  0  0  0  0  0  0  0  0  0  0
   -2.0220   14.9400   -4.6350 N   0  0  0  0  0  0  0  0  0  0  0  0
   -2.6020   14.8710   -2.2300 C   0  0  0  0  0  0  0  0  0  0  0  0
    0.8830   12.0220   -6.3630 N   0  0  0  0  0  0  0  0  0  0  0  0
   -1.0360   10.8340   -6.1110 C   0  0  0  0  0  0  0  0  0  0  0  0
   -3.8750   15.2760   -2.6760 C   0  0  0  0  0  0  0  0  0  0  0  0
   -2.4180   14.6850   -0.8500 C   0  0  0  0  0  0  0  0  0  0  0  0
    0.9470   10.8480   -7.1230 O   0  0  0  0  0  0  0  0  0  0  0  0
   -0.2070   10.1420   -6.9650 C   0  0  0  0  0  0  0  0  0  0  0  0
   -2.2930   10.2960   -5.7940 C   0  0  0  0  0  0  0  0  0  0  0  0
   -4.9190   15.4950   -1.7800 C   0  0  0  0  0  0  0  0  0  0  0  0
   -3.4660   14.9050    0.0440 C   0  0  0  0  0  0  0  0  0  0  0  0
   -0.5400    8.9230   -7.5510 C   0  0  0  0  0  0  0  0  0  0  0  0
   -2.6620    9.0760   -6.3580 C   0  0  0  0  0  0  0  0  0  0  0  0
   -4.7120   15.3120   -0.4190 C   0  0  0  0  0  0  0  0  0  0  0  0
   -1.8020    8.4000   -7.2240 C   0  0  0  0  0  0  0  0  0  0  0  0
  1  2  1  0
  2  3  2  0
  1  4  1  0
  4  5  2  0
  6  4  1  6
  6  7  1  0
  6  8  1  0
  7  9  1  6
  7 10  1  0
  8 11  1  0
 10 11  1  0
  8 12  1  1
  9 13  2  0
  9 14  1  0
 12 15  2  0
 12 16  1  0
 13 17  1  0
 14 18  2  0
 17 18  1  0
 14 19  1  0
 15 20  1  0
 16 21  2  0
 18 22  1  0
 19 23  2  0
 20 24  2  0
 21 24  1  0
 22 25  2  0
 23 25  1  0
M  END
