mac-x0333-diamond-x0895_1_A
     RDKit          3D

 12 13  0  0  0  0  0  0  0  0999 V2000
   -2.3970   15.2070   -2.6130 O   0  0  0  0  0  0  0  0  0  0  0  0
   -3.4160   15.0850   -1.6850 C   0  0  0  0  0  0  0  0  0  0  0  0
   -3.0800   14.9630   -0.2180 C   0  0  0  0  0  0  0  0  0  0  0  0
   -4.7050   15.0750   -2.0670 C   0  0  0  0  0  0  0  0  0  0  0  0
   -1.9400   14.6960    0.1680 O   0  0  0  0  0  0  0  0  0  0  0  0
   -5.7380   14.9320   -1.0910 C   0  0  0  0  0  0  0  0  0  0  0  0
   -4.2440   15.1950    0.7480 C   0  0  0  0  0  0  0  0  0  0  0  0
   -4.1170   15.5470    1.8840 O   0  0  0  0  0  0  0  0  0  0  0  0
   -5.5610   14.9750    0.2010 C   0  0  0  0  0  0  0  0  0  0  0  0
   -7.0510   14.7230   -1.4410 O   0  0  0  0  0  0  0  0  0  0  0  0
   -6.7080   14.8010    0.9410 O   0  0  0  0  0  0  0  0  0  0  0  0
   -7.6640   14.6900   -0.1260 C   0  0  0  0  0  0  0  0  0  0  0  0
  1  2  1  0
  2  3  1  0
  2  4  2  0
  3  5  2  0
  4  6  1  0
  3  7  1  0
  7  8  2  0
  6  9  2  0
  7  9  1  0
  6 10  1  0
  9 11  1  0
 10 12  1  0
 11 12  1  0
M  END
