mac-x0301-mac-x0567
     RDKit          3D

 12 13  0  0  0  0  0  0  0  0999 V2000
    0.3690   14.4110   -3.0490 O   0  0  0  0  0  0  0  0  0  0  0  0
   -0.9640   14.4260   -3.2040 C   0  0  0  0  0  0  0  0  0  0  0  0
   -1.4550   14.2300   -4.3020 O   0  0  0  0  0  0  0  0  0  0  0  0
   -1.7370   14.7010   -1.9600 C   0  0  0  0  0  0  0  0  0  0  0  0
   -1.2370   14.5790   -0.6690 C   0  0  0  0  0  0  0  0  0  0  0  0
   -3.0770   15.1220   -2.0940 C   0  0  0  0  0  0  0  0  0  0  0  0
   -2.0260   14.8640    0.4410 C   0  0  0  0  0  0  0  0  0  0  0  0
   -3.8640   15.4050   -0.9610 C   0  0  0  0  0  0  0  0  0  0  0  0
    0.0080   14.1900   -0.2920 O   0  0  0  0  0  0  0  0  0  0  0  0
   -3.3370   15.2750    0.3270 C   0  0  0  0  0  0  0  0  0  0  0  0
   -1.3590   14.6950    1.6250 O   0  0  0  0  0  0  0  0  0  0  0  0
   -0.0460   14.4200    1.1270 C   0  0  0  0  0  0  0  0  0  0  0  0
  1  2  1  0
  2  3  2  0
  2  4  1  0
  4  5  2  0
  4  6  1  0
  5  7  1  0
  6  8  2  0
  5  9  1  0
  7 10  2  0
  8 10  1  0
  7 11  1  0
  9 12  1  0
 11 12  1  0
M  END
