mac-x0137-mac-x0263
     RDKit          3D

 25 28  0  0  0  0  0  0  0  0999 V2000
   -2.8390   12.7210   -4.2120 F   0  0  0  0  0  0  0  0  0  0  0  0
   -1.7770   13.5080   -4.5520 C   0  0  2  0  0  0  0  0  0  0  0  0
   -0.5920   12.5860   -4.8970 C   0  0  0  0  0  0  0  0  0  0  0  0
   -1.5130   14.4780   -3.3920 C   0  0  0  0  0  0  0  0  0  0  0  0
   -1.0440   13.6460   -2.2800 N   0  0  0  0  0  0  0  0  0  0  0  0
    0.1630   12.0480   -3.6730 C   0  0  0  0  0  0  0  0  0  0  0  0
    0.2760   13.0670   -2.5340 C   0  0  0  0  0  0  0  0  0  0  0  0
   -1.2390   14.1490   -0.9870 C   0  0  0  0  0  0  0  0  0  0  0  0
   -0.1580   14.3960   -0.2430 N   0  0  0  0  0  0  0  0  0  0  0  0
   -2.5030   14.3820   -0.4810 C   0  0  0  0  0  0  0  0  0  0  0  0
   -0.3740   14.8610    0.9970 C   0  0  0  0  0  0  0  0  0  0  0  0
   -2.6160   14.8860    0.7940 C   0  0  0  0  0  0  0  0  0  0  0  0
   -3.8540   14.1790   -1.0660 C   0  0  0  0  0  0  0  0  0  0  0  0
   -1.5620   15.1250    1.5720 N   0  0  0  0  0  0  0  0  0  0  0  0
   -3.9750   15.1300    1.1920 N   0  0  0  0  0  0  0  0  0  0  0  0
   -4.8280   14.6210    0.0890 C   0  0  1  0  0  0  0  0  0  0  0  0
   -5.7210   15.6600   -0.6440 C   0  0  0  0  0  0  0  0  0  0  0  0
   -5.9170   13.6660    0.5570 N   0  0  0  0  0  0  0  0  0  0  0  0
   -6.9840   14.5980    0.9270 C   0  0  1  0  0  0  0  0  0  0  0  0
   -7.1150   15.2460   -0.3510 N   0  0  0  0  0  0  0  0  0  0  0  0
   -8.3670   14.1290    1.4590 C   0  0  0  0  0  0  0  0  0  0  0  0
   -9.1540   15.3620    1.9950 C   0  0  0  0  0  0  0  0  0  0  0  0
  -10.5590   15.1360    2.5520 C   0  0  0  0  0  0  0  0  0  0  0  0
  -11.1580   14.0170    2.0970 O   0  0  0  0  0  0  0  0  0  0  0  0
  -11.1370   15.8770    3.3500 O   0  0  0  0  0  0  0  0  0  0  0  0
  2  1  1  1
  2  3  1  0
  2  4  1  0
  4  5  1  0
  3  6  1  0
  5  7  1  0
  6  7  1  0
  5  8  1  0
  8  9  2  0
  8 10  1  0
  9 11  1  0
 10 12  2  0
 10 13  1  0
 11 14  2  0
 12 14  1  0
 12 15  1  0
 16 13  1  6
 16 15  1  0
 16 17  1  0
 16 18  1  0
 18 19  1  0
 17 20  1  0
 19 20  1  0
 19 21  1  6
 21 22  1  0
 22 23  1  0
 23 24  1  0
 23 25  2  0
M  END
