mac-x0572-mac-x0402
     RDKit          3D

 17 18  0  0  0  0  0  0  0  0999 V2000
   -7.8280   14.0130    3.4850 C   0  0  0  0  0  0  0  0  0  0  0  0
   -7.4530   14.8200    2.2260 C   0  0  1  0  0  0  0  0  0  0  0  0
   -6.0120   15.1430    2.3150 N   0  0  0  0  0  0  0  0  0  0  0  0
   -7.8870   14.0650    0.9430 C   0  0  1  0  0  0  0  0  0  0  0  0
   -9.2900   14.2560    0.7270 O   0  0  0  0  0  0  0  0  0  0  0  0
   -7.1740   14.3810   -0.3850 C   0  0  0  0  0  0  0  0  0  0  0  0
   -5.2660   14.9060    1.0900 C   0  0  0  0  0  0  0  0  0  0  0  0
   -7.7570   14.9910   -1.2840 O   0  0  0  0  0  0  0  0  0  0  0  0
   -5.7390   13.9330   -0.6350 C   0  0  0  0  0  0  0  0  0  0  0  0
   -3.7920   15.0440    1.2260 C   0  0  0  0  0  0  0  0  0  0  0  0
   -2.9560   15.2130    0.2060 C   0  0  0  0  0  0  0  0  0  0  0  0
   -4.9660   14.7690   -1.6350 C   0  0  1  0  0  0  0  0  0  0  0  0
   -3.3730   15.3150   -1.2550 C   0  0  2  0  0  0  0  0  0  0  0  0
   -4.5130   13.9570   -2.7850 C   0  0  0  0  0  0  0  0  0  0  0  0
   -2.3120   14.6120   -2.2940 C   0  0  1  0  0  0  0  0  0  0  0  0
   -3.6130   14.4830   -2.2310 C   0  0  0  0  0  0  0  0  0  0  0  0
   -1.9420   15.2370   -3.9090 Cl  0  0  0  0  0  0  0  0  0  0  0  0
  2  1  1  1
  2  3  1  0
  2  4  1  0
  4  5  1  6
  4  6  1  0
  3  7  1  0
  6  8  2  0
  6  9  1  0
  7 10  1  0
 10 11  2  0
 12  9  1  1
 13 11  1  1
 12 13  1  0
 12 14  1  0
 13 15  1  0
 14 16  2  0
 15 16  1  0
 15 17  1  6
M  END
