mac-x0341-mac-x0590
     RDKit          3D

 24 27  0  0  0  0  0  0  0  0999 V2000
   -6.8880   14.5710    2.4440 N   0  0  0  0  0  0  0  0  0  0  0  0
   -6.1280   14.7150    1.3370 C   0  0  0  0  0  0  0  0  0  0  0  0
   -4.7710   14.6760    1.5200 N   0  0  0  0  0  0  0  0  0  0  0  0
   -6.7250   14.8800    0.2070 N   0  0  0  0  0  0  0  0  0  0  0  0
   -6.0300   15.0460   -0.9460 C   0  0  0  0  0  0  0  0  0  0  0  0
   -4.0200   14.7870    0.4820 C   0  0  0  0  0  0  0  0  0  0  0  0
   -6.5730   15.2440   -2.0280 O   0  0  0  0  0  0  0  0  0  0  0  0
   -4.5620   14.9630   -0.8370 C   0  0  0  0  0  0  0  0  0  0  0  0
   -2.5370   14.7360    0.5530 C   0  0  0  0  0  0  0  0  0  0  0  0
   -1.7380   14.8000   -0.6660 C   0  0  0  0  0  0  0  0  0  0  0  0
   -3.7890   15.0450   -1.9030 C   0  0  0  0  0  0  0  0  0  0  0  0
   -1.7520   14.6440    1.5790 N   0  0  0  0  0  0  0  0  0  0  0  0
   -4.3810   15.2270   -3.0820 N   0  0  0  0  0  0  0  0  0  0  0  0
   -2.3180   14.9510   -1.8600 C   0  0  0  0  0  0  0  0  0  0  0  0
   -0.4250   14.7000   -0.2920 N   0  0  0  0  0  0  0  0  0  0  0  0
   -0.4880   14.6230    1.0080 C   0  0  0  0  0  0  0  0  0  0  0  0
   -1.4780   15.0420   -3.1440 C   0  0  0  0  0  0  0  0  0  0  0  0
   -1.4100   13.7230   -3.8810 C   0  0  0  0  0  0  0  0  0  0  0  0
   -0.4760   13.5960   -5.0730 C   0  0  0  0  0  0  0  0  0  0  0  0
    0.4280   12.3720   -4.9790 C   0  0  2  0  0  0  0  0  0  0  0  0
    0.7690   11.9460   -3.5500 C   0  0  0  0  0  0  0  0  0  0  0  0
    1.7750   12.6690   -5.6040 C   0  0  0  0  0  0  0  0  0  0  0  0
    2.6480   12.9990   -4.4180 C   0  0  0  0  0  0  0  0  0  0  0  0
    2.1550   12.2360   -3.3180 O   0  0  0  0  0  0  0  0  0  0  0  0
  1  2  1  0
  2  3  1  0
  2  4  2  0
  4  5  1  0
  3  6  2  0
  5  7  2  0
  5  8  1  0
  6  8  1  0
  6  9  1  0
  9 10  1  0
  8 11  2  0
  9 12  2  0
 11 13  1  0
 10 14  2  0
 11 14  1  0
 10 15  1  0
 12 16  1  0
 15 16  2  0
 14 17  1  0
 17 18  1  0
 18 19  1  0
 20 19  1  1
 20 21  1  0
 20 22  1  0
 22 23  1  0
 21 24  1  0
 23 24  1  0
M  END
