mac-x0402-diamond-x0855_0_A
     RDKit          3D

 24 26  0  0  0  0  0  0  0  0999 V2000
   -2.0210   14.8140   -3.7320 Cl  0  0  0  0  0  0  0  0  0  0  0  0
   -3.1390   14.8830   -2.4130 C   0  0  0  0  0  0  0  0  0  0  0  0
   -4.4520   15.1010   -2.7920 C   0  0  0  0  0  0  0  0  0  0  0  0
   -2.7460   14.7330   -1.0580 C   0  0  0  0  0  0  0  0  0  0  0  0
   -1.3090   14.4860   -0.6390 C   0  0  0  0  0  0  0  0  0  0  0  0
   -3.8120   14.8340   -0.1220 C   0  0  0  0  0  0  0  0  0  0  0  0
   -5.4610   15.1860   -1.8490 C   0  0  0  0  0  0  0  0  0  0  0  0
   -0.2640   14.4330   -1.7680 C   0  0  0  0  0  0  0  0  0  0  0  0
   -5.1350   15.0500   -0.5020 C   0  0  0  0  0  0  0  0  0  0  0  0
   -3.7780   14.7310    1.6000 S   0  0  0  0  0  0  0  0  0  0  0  0
    1.0420   13.7670   -1.3660 C   0  0  0  0  0  0  0  0  0  0  0  0
   -5.4690   14.9840    1.6460 C   0  0  0  0  0  0  0  0  0  0  0  0
   -6.0560   15.1190    0.5030 N   0  0  0  0  0  0  0  0  0  0  0  0
   -6.1390   15.0510    2.7940 N   0  0  0  0  0  0  0  0  0  0  0  0
    1.6650   13.1310   -2.5010 O   0  0  0  0  0  0  0  0  0  0  0  0
    0.9650   12.1700   -3.1630 C   0  0  0  0  0  0  0  0  0  0  0  0
    0.6350   11.0930   -2.6670 O   0  0  0  0  0  0  0  0  0  0  0  0
    0.6310   12.5400   -4.5850 C   0  0  0  0  0  0  0  0  0  0  0  0
   -0.4090   11.6820   -5.1220 N   0  0  0  0  0  0  0  0  0  0  0  0
   -0.2960   10.7470   -6.1130 C   0  0  0  0  0  0  0  0  0  0  0  0
   -1.6580   11.7720   -4.6130 N   0  0  0  0  0  0  0  0  0  0  0  0
   -1.5430   10.2000   -6.2350 C   0  0  0  0  0  0  0  0  0  0  0  0
   -2.3490   10.8580   -5.3000 C   0  0  0  0  0  0  0  0  0  0  0  0
   -2.0960    8.8510   -7.3940 Br  0  0  0  0  0  0  0  0  0  0  0  0
  1  2  1  0
  2  3  2  0
  2  4  1  0
  4  5  1  0
  4  6  2  0
  3  7  1  0
  5  8  1  0
  6  9  1  0
  7  9  2  0
  6 10  1  0
  8 11  1  0
 10 12  1  0
  9 13  1  0
 12 13  2  0
 12 14  1  0
 11 15  1  0
 15 16  1  0
 16 17  2  0
 16 18  1  0
 18 19  1  0
 19 20  1  0
 19 21  1  0
 20 22  2  0
 21 23  2  0
 22 23  1  0
 22 24  1  0
M  END
