mac-x0546-diamond-x0967_0_A
     RDKit          3D

 27 30  0  0  0  0  0  0  0  0999 V2000
   -4.4150   15.3800   -6.2720 C   0  0  0  0  0  0  0  0  0  0  0  0
   -3.6300   15.7120   -5.0820 N   0  0  0  0  0  0  0  0  0  0  0  0
   -4.1020   14.8690   -3.9770 C   0  0  0  0  0  0  0  0  0  0  0  0
   -2.2590   15.8910   -5.2210 C   0  0  0  0  0  0  0  0  0  0  0  0
   -3.0960   14.8070   -2.8310 C   0  0  0  0  0  0  0  0  0  0  0  0
   -1.4620   14.8160   -5.0850 C   0  0  0  0  0  0  0  0  0  0  0  0
   -1.6260   17.1970   -5.5120 C   0  0  0  0  0  0  0  0  0  0  0  0
    0.0040   14.9000   -5.2320 C   0  0  1  0  0  0  0  0  0  0  0  0
   -0.3110   17.4310   -5.3220 C   0  0  0  0  0  0  0  0  0  0  0  0
   -3.7950   14.8320   -1.5100 C   0  0  0  0  0  0  0  0  0  0  0  0
    0.4190   16.2720   -4.7900 C   0  0  0  0  0  0  0  0  0  0  0  0
    0.9410   14.1350   -4.3900 C   0  0  0  0  0  0  0  0  0  0  0  0
   -5.1310   14.6900   -1.5760 N   0  0  0  0  0  0  0  0  0  0  0  0
   -3.1100   14.9840   -0.3130 C   0  0  0  0  0  0  0  0  0  0  0  0
    0.9830   12.6480   -4.3580 C   0  0  0  0  0  0  0  0  0  0  0  0
    1.3800   16.3210   -3.9480 N   0  0  0  0  0  0  0  0  0  0  0  0
    1.7000   15.0020   -3.7200 C   0  0  0  0  0  0  0  0  0  0  0  0
   -5.8500   14.6850   -0.4710 C   0  0  0  0  0  0  0  0  0  0  0  0
   -3.8480   14.9850    0.8570 C   0  0  0  0  0  0  0  0  0  0  0  0
    0.6210   12.0870   -2.9960 C   0  0  0  0  0  0  0  0  0  0  0  0
   -7.1710   14.5340   -0.5850 N   0  0  0  0  0  0  0  0  0  0  0  0
   -5.2380   14.8300    0.7810 C   0  0  0  0  0  0  0  0  0  0  0  0
    0.9170   12.5270   -1.9030 O   0  0  0  0  0  0  0  0  0  0  0  0
   -0.1210   10.9620   -3.0850 O   0  0  0  0  0  0  0  0  0  0  0  0
   -6.0390   14.8150    1.9210 C   0  0  0  0  0  0  0  0  0  0  0  0
   -7.9250   14.5180    0.5300 C   0  0  0  0  0  0  0  0  0  0  0  0
   -7.4120   14.6530    1.8010 C   0  0  0  0  0  0  0  0  0  0  0  0
  1  2  1  0
  2  3  1  0
  2  4  1  0
  3  5  1  0
  4  6  2  0
  4  7  1  0
  8  6  1  1
  7  9  2  0
  5 10  1  0
  8 11  1  0
  9 11  1  0
  8 12  1  0
 10 13  2  0
 10 14  1  0
 12 15  1  0
 11 16  2  0
 12 17  2  0
 16 17  1  0
 13 18  1  0
 14 19  2  0
 15 20  1  0
 18 21  2  0
 18 22  1  0
 19 22  1  0
 20 23  2  0
 20 24  1  0
 22 25  2  0
 21 26  1  0
 25 27  1  0
 26 27  2  0
M  END
