mac-x0271-mac-x0124
     RDKit          3D

 23 26  0  0  0  0  0  0  0  0999 V2000
   -4.4410   15.1310   -3.3130 O   0  0  0  0  0  0  0  0  0  0  0  0
   -4.9720   15.0680   -2.0520 C   0  0  0  0  0  0  0  0  0  0  0  0
   -4.1760   15.1530   -0.9270 C   0  0  0  0  0  0  0  0  0  0  0  0
   -6.3270   14.9160   -1.9120 C   0  0  0  0  0  0  0  0  0  0  0  0
   -6.8500   14.8430   -0.6260 C   0  0  0  0  0  0  0  0  0  0  0  0
   -4.6910   15.0860    0.3690 C   0  0  0  0  0  0  0  0  0  0  0  0
   -3.7600   15.1880    1.3890 N   0  0  0  0  0  0  0  0  0  0  0  0
   -6.0660   14.9190    0.5290 C   0  0  0  0  0  0  0  0  0  0  0  0
   -8.2440   14.6820   -0.5390 O   0  0  0  0  0  0  0  0  0  0  0  0
   -6.7540   14.8190    1.8180 C   0  0  0  0  0  0  0  0  0  0  0  0
   -8.9060   14.8320    0.6630 C   0  0  0  0  0  0  0  0  0  0  0  0
   -2.4510   15.0560    0.9840 C   0  0  0  0  0  0  0  0  0  0  0  0
  -10.1120   15.0020    0.7340 O   0  0  0  0  0  0  0  0  0  0  0  0
   -8.0810   14.7790    1.8710 C   0  0  0  0  0  0  0  0  0  0  0  0
   -2.1860   15.2740   -0.3880 C   0  0  0  0  0  0  0  0  0  0  0  0
   -1.4340   14.7260    1.7790 N   0  0  0  0  0  0  0  0  0  0  0  0
   -2.9560   15.6330   -1.5360 C   0  0  0  0  0  0  0  0  0  0  0  0
   -0.8950   15.1230   -0.8320 C   0  0  0  0  0  0  0  0  0  0  0  0
   -0.2230   14.6190    1.2210 C   0  0  0  0  0  0  0  0  0  0  0  0
   -0.8610   15.3660   -2.1860 N   0  0  0  0  0  0  0  0  0  0  0  0
   -2.1180   15.6790   -2.6260 C   0  0  0  0  0  0  0  0  0  0  0  0
    0.1490   14.7920   -0.0680 N   0  0  0  0  0  0  0  0  0  0  0  0
    0.3160   15.3020   -3.0170 C   0  0  0  0  0  0  0  0  0  0  0  0
  1  2  1  0
  2  3  2  0
  2  4  1  0
  4  5  2  0
  3  6  1  0
  6  7  1  0
  5  8  1  0
  6  8  2  0
  5  9  1  0
  8 10  1  0
  9 11  1  0
  7 12  1  0
 11 13  2  0
 10 14  2  0
 11 14  1  0
 12 15  1  0
 12 16  2  0
 15 17  1  0
 15 18  2  0
 16 19  1  0
 18 20  1  0
 17 21  2  0
 20 21  1  0
 18 22  1  0
 19 22  2  0
 20 23  1  0
M  END
