mac-x0396-mac-x0415
     RDKit          3D

 26 28  0  0  0  0  0  0  0  0999 V2000
   -3.0830   14.7750    1.3100 N   0  0  0  0  0  0  0  0  0  0  0  0
   -3.6690   14.8020    0.0590 C   0  0  0  0  0  0  0  0  0  0  0  0
   -2.8880   14.7970   -0.9730 N   0  0  0  0  0  0  0  0  0  0  0  0
   -5.1480   14.8020   -0.0140 C   0  0  0  0  0  0  0  0  0  0  0  0
   -1.4350   14.7450   -0.8320 C   0  0  0  0  0  0  0  0  0  0  0  0
   -5.8070   14.9350   -1.2250 C   0  0  0  0  0  0  0  0  0  0  0  0
   -5.9090   14.6550    1.1330 C   0  0  0  0  0  0  0  0  0  0  0  0
   -1.0180   13.2950   -0.7240 C   0  0  0  0  0  0  0  0  0  0  0  0
   -7.1620   14.9210   -1.3350 N   0  0  0  0  0  0  0  0  0  0  0  0
   -7.2960   14.6330    1.0520 C   0  0  0  0  0  0  0  0  0  0  0  0
    0.4320   13.0420   -1.1040 C   0  0  0  0  0  0  0  0  0  0  0  0
   -7.8730   14.7680   -0.1970 C   0  0  0  0  0  0  0  0  0  0  0  0
    0.6730   13.4120   -2.4460 N   0  0  0  0  0  0  0  0  0  0  0  0
    0.7370   12.5420   -3.3690 C   0  0  0  0  0  0  0  0  0  0  0  0
    0.5590   11.2460   -3.0420 O   0  0  0  0  0  0  0  0  0  0  0  0
    0.9760   12.8840   -4.7950 C   0  0  0  0  0  0  0  0  0  0  0  0
    0.7410   14.3280   -4.7220 C   0  0  0  0  0  0  0  0  0  0  0  0
    1.7360   15.3680   -4.4880 C   0  0  0  0  0  0  0  0  0  0  0  0
   -0.3510   15.0690   -4.8180 C   0  0  0  0  0  0  0  0  0  0  0  0
    1.3470   16.6060   -4.4410 N   0  0  0  0  0  0  0  0  0  0  0  0
   -0.0780   16.4960   -4.5650 C   0  0  1  0  0  0  0  0  0  0  0  0
   -1.7060   14.7090   -5.0770 C   0  0  0  0  0  0  0  0  0  0  0  0
   -0.8620   17.4460   -5.3970 C   0  0  0  0  0  0  0  0  0  0  0  0
   -2.5250   15.6500   -5.5870 C   0  0  0  0  0  0  0  0  0  0  0  0
   -4.2820   15.1900   -5.9900 Br  0  0  0  0  0  0  0  0  0  0  0  0
   -2.0550   17.0220   -5.8680 C   0  0  0  0  0  0  0  0  0  0  0  0
  1  2  1  0
  2  3  2  3
  2  4  1  0
  3  5  1  0
  4  6  2  0
  4  7  1  0
  5  8  1  0
  6  9  1  0
  7 10  2  0
  8 11  1  0
  9 12  2  0
 10 12  1  0
 11 13  1  0
 13 14  2  3
 14 15  1  0
 14 16  1  0
 16 17  1  0
 17 18  1  0
 17 19  2  0
 18 20  2  0
 19 21  1  0
 20 21  1  0
 19 22  1  0
 21 23  1  6
 22 24  2  0
 24 25  1  0
 23 26  2  0
 24 26  1  0
M  END
