mac-x0142-mac-x0163
     RDKit          3D

 24 28  0  0  0  0  0  0  0  0999 V2000
   -3.2960   12.9660   -1.4300 Cl  0  0  0  0  0  0  0  0  0  0  0  0
   -2.5130   14.5660   -1.3660 C   0  0  1  0  0  0  0  0  0  0  0  0
   -2.8330   14.9760    0.0380 C   0  0  0  0  0  0  0  0  0  0  0  0
   -0.9110   14.4850   -1.6520 C   0  0  1  0  0  0  0  0  0  0  0  0
   -3.6050   15.3590   -1.9940 C   0  0  0  0  0  0  0  0  0  0  0  0
   -0.5090   15.2860   -2.8250 N   0  0  0  0  0  0  0  0  0  0  0  0
   -0.0680   14.7640   -0.4290 N   0  0  0  0  0  0  0  0  0  0  0  0
   -1.9840   14.5300    0.9410 N   0  0  0  0  0  0  0  0  0  0  0  0
   -3.8910   15.6830    0.2380 N   0  0  0  0  0  0  0  0  0  0  0  0
   -4.3510   15.9040   -1.0230 C   0  0  0  0  0  0  0  0  0  0  0  0
   -0.5040   13.0160   -2.0600 C   0  0  0  0  0  0  0  0  0  0  0  0
   -2.5990   14.6830    2.1750 N   0  0  0  0  0  0  0  0  0  0  0  0
    0.8990   15.1410   -3.2350 C   0  0  0  0  0  0  0  0  0  0  0  0
   -0.6400   14.7530    0.7370 C   0  0  0  0  0  0  0  0  0  0  0  0
   -1.4810   12.2280   -2.9740 C   0  0  1  0  0  0  0  0  0  0  0  0
    1.0510   13.9620   -4.1880 C   0  0  0  0  0  0  0  0  0  0  0  0
   -1.2000   12.2800   -4.4650 C   0  0  2  0  0  0  0  0  0  0  0  0
   -1.3780   10.7030   -2.7870 C   0  0  0  0  0  0  0  0  0  0  0  0
    2.4400   13.3580   -4.3810 C   0  0  0  0  0  0  0  0  0  0  0  0
    1.4140   12.5700   -3.6580 C   0  0  0  0  0  0  0  0  0  0  0  0
    0.1680   14.1030   -5.4140 C   0  0  0  0  0  0  0  0  0  0  0  0
   -1.2430   13.6020   -5.1890 C   0  0  0  0  0  0  0  0  0  0  0  0
   -2.2030   11.2640   -5.0070 C   0  0  0  0  0  0  0  0  0  0  0  0
   -2.0810   10.1110   -4.0160 C   0  0  0  0  0  0  0  0  0  0  0  0
  2  1  1  1
  2  3  1  0
  2  4  1  0
  2  5  1  0
  4  6  1  0
  4  7  1  0
  3  8  1  0
  3  9  2  0
  5 10  2  0
  9 10  1  0
  4 11  1  6
  8 12  1  0
  6 13  1  0
  7 14  2  0
  8 14  1  0
 15 11  1  1
 16 13  1  0
 15 17  1  0
 15 18  1  0
 16 19  1  0
 16 20  1  0
 19 20  1  0
 16 21  1  0
 17 22  1  6
 21 22  1  0
 17 23  1  0
 18 24  1  0
 23 24  1  0
M  END
