mac-x0321-mac-x0496
     RDKit          3D

 21 22  0  0  0  0  0  0  0  0999 V2000
   -4.3670   15.2300    1.8210 Cl  0  0  0  0  0  0  0  0  0  0  0  0
   -4.4470   15.0350    0.1230 C   0  0  0  0  0  0  0  0  0  0  0  0
   -3.2320   14.9860   -0.5550 C   0  0  0  0  0  0  0  0  0  0  0  0
   -5.6460   14.9230   -0.5870 C   0  0  0  0  0  0  0  0  0  0  0  0
   -7.0020   14.9280    0.0060 C   0  0  0  0  0  0  0  0  0  0  0  0
   -3.2030   14.8360   -1.9410 C   0  0  0  0  0  0  0  0  0  0  0  0
   -5.6200   14.7870   -1.9720 C   0  0  0  0  0  0  0  0  0  0  0  0
   -1.9320   14.7680   -2.6810 C   0  0  0  0  0  0  0  0  0  0  0  0
   -7.2620   14.4780    1.2790 N   0  0  0  0  0  0  0  0  0  0  0  0
   -7.9100   15.3260   -0.6990 O   0  0  0  0  0  0  0  0  0  0  0  0
   -4.4080   14.7430   -2.6460 C   0  0  0  0  0  0  0  0  0  0  0  0
   -0.8660   14.4340   -1.9340 O   0  0  0  0  0  0  0  0  0  0  0  0
   -1.8070   14.9960   -3.9410 N   0  0  0  0  0  0  0  0  0  0  0  0
   -8.5690   14.0640    1.7830 C   0  0  0  0  0  0  0  0  0  0  0  0
   -3.0620   15.3240   -4.4680 O   0  0  0  0  0  0  0  0  0  0  0  0
   -9.2700   15.1860    2.4660 C   0  0  0  0  0  0  0  0  0  0  0  0
  -10.4940   15.5570    1.9750 O   0  0  0  0  0  0  0  0  0  0  0  0
   -8.8950   15.8980    3.5040 N   0  0  0  0  0  0  0  0  0  0  0  0
   -9.9400   16.7630    3.6670 C   0  0  0  0  0  0  0  0  0  0  0  0
  -10.9380   16.6050    2.7880 N   0  0  0  0  0  0  0  0  0  0  0  0
   -9.9530   17.7790    4.7390 C   0  0  0  0  0  0  0  0  0  0  0  0
  1  2  1  0
  2  3  2  0
  2  4  1  0
  4  5  1  0
  3  6  1  0
  4  7  2  0
  6  8  1  0
  5  9  1  0
  5 10  2  0
  6 11  2  0
  7 11  1  0
  8 12  1  0
  8 13  2  3
  9 14  1  0
 13 15  1  0
 14 16  1  0
 16 17  1  0
 16 18  2  0
 18 19  1  0
 17 20  1  0
 19 20  2  0
 19 21  1  0
M  END
