mac-x0568-diamond-x0685_0_A
     RDKit          3D

 14 14  0  0  0  0  0  0  0  0999 V2000
   -8.7600   14.6350    0.8660 C   0  0  0  0  0  0  0  0  0  0  0  0
   -7.3160   14.6790    0.4520 C   0  0  0  0  0  0  0  0  0  0  0  0
   -6.2780   14.8570    1.3820 C   0  0  0  0  0  0  0  0  0  0  0  0
   -7.1060   14.5430   -0.8750 N   0  0  0  0  0  0  0  0  0  0  0  0
   -6.5360   15.0120    2.7310 N   0  0  0  0  0  0  0  0  0  0  0  0
   -5.8330   14.5780   -1.3160 C   0  0  0  0  0  0  0  0  0  0  0  0
   -4.9740   14.8830    0.8760 C   0  0  0  0  0  0  0  0  0  0  0  0
   -7.8110   14.7790    3.3610 C   0  0  0  0  0  0  0  0  0  0  0  0
   -4.7260   14.7420   -0.4950 C   0  0  0  0  0  0  0  0  0  0  0  0
   -3.3220   14.7620   -1.0560 C   0  0  1  0  0  0  0  0  0  0  0  0
   -8.1060   13.2880    3.3530 C   0  0  0  0  0  0  0  0  0  0  0  0
   -3.2870   15.1780   -2.4780 C   0  0  0  0  0  0  0  0  0  0  0  0
   -2.3910   15.5430   -0.2240 N   0  0  0  0  0  0  0  0  0  0  0  0
   -3.2070   15.4680   -3.5970 N   0  0  0  0  0  0  0  0  0  0  0  0
  1  2  1  0
  2  3  2  0
  2  4  1  0
  3  5  1  0
  4  6  2  0
  3  7  1  0
  5  8  1  0
  6  9  1  0
  7  9  2  0
  9 10  1  0
  8 11  1  0
 10 12  1  0
 10 13  1  1
 12 14  3  0
M  END
