mac-x0373-mac-x0338
     RDKit          3D

 19 20  0  0  0  0  0  0  0  0999 V2000
    0.4010   13.2820   -1.4090 O   0  0  0  0  0  0  0  0  0  0  0  0
    0.2040   14.3540   -2.2170 C   0  0  0  0  0  0  0  0  0  0  0  0
    1.1240   15.1300   -2.4030 O   0  0  0  0  0  0  0  0  0  0  0  0
   -1.2070   14.4620   -2.8310 C   0  0  1  0  0  0  0  0  0  0  0  0
   -1.5880   13.2120   -3.6270 C   0  0  0  0  0  0  0  0  0  0  0  0
   -2.2900   14.7160   -1.7990 C   0  0  0  0  0  0  0  0  0  0  0  0
   -0.9800   12.9410   -4.8660 C   0  0  0  0  0  0  0  0  0  0  0  0
   -2.5500   12.3080   -3.1350 C   0  0  0  0  0  0  0  0  0  0  0  0
   -3.5400   15.2670   -2.1550 C   0  0  0  0  0  0  0  0  0  0  0  0
   -2.0410   14.3840   -0.4670 C   0  0  0  0  0  0  0  0  0  0  0  0
   -1.3260   11.7950   -5.5870 C   0  0  0  0  0  0  0  0  0  0  0  0
   -2.8910   11.1640   -3.8590 C   0  0  0  0  0  0  0  0  0  0  0  0
   -4.5240   15.4600   -1.1750 C   0  0  0  0  0  0  0  0  0  0  0  0
   -3.0090   14.5740    0.4940 C   0  0  0  0  0  0  0  0  0  0  0  0
   -2.2790   10.9080   -5.0840 C   0  0  0  0  0  0  0  0  0  0  0  0
   -4.2370   15.0950    0.1470 C   0  0  0  0  0  0  0  0  0  0  0  0
   -5.2110   15.2310    1.2260 C   0  0  0  0  0  0  0  0  0  0  0  0
   -4.6920   15.6250    2.4100 N   0  0  0  0  0  0  0  0  0  0  0  0
   -6.4030   14.9750    1.0940 O   0  0  0  0  0  0  0  0  0  0  0  0
  1  2  1  0
  2  3  2  0
  4  2  1  1
  4  5  1  0
  4  6  1  0
  5  7  2  0
  5  8  1  0
  6  9  2  0
  6 10  1  0
  7 11  1  0
  8 12  2  0
  9 13  1  0
 10 14  2  0
 11 15  2  0
 12 15  1  0
 13 16  2  0
 14 16  1  0
 16 17  1  0
 17 18  1  0
 17 19  2  0
M  END
