mac-x0180-mac-x0397
     RDKit          3D

 17 18  0  0  0  0  0  0  0  0999 V2000
   -7.7050   14.1780    1.0930 C   0  0  0  0  0  0  0  0  0  0  0  0
   -7.1130   14.3070   -0.2880 C   0  0  0  0  0  0  0  0  0  0  0  0
   -7.7090   14.8870   -1.1800 O   0  0  0  0  0  0  0  0  0  0  0  0
   -5.8680   13.7540   -0.4620 N   0  0  0  0  0  0  0  0  0  0  0  0
   -4.7280   14.5900   -0.3290 C   0  0  1  0  0  0  0  0  0  0  0  0
   -3.4210   13.8900    0.1300 C   0  0  1  0  0  0  0  0  0  0  0  0
   -4.6440   15.3510   -1.6170 C   0  0  0  0  0  0  0  0  0  0  0  0
   -5.3980   15.2900    0.7400 N   0  0  0  0  0  0  0  0  0  0  0  0
   -2.2080   14.1140   -0.7400 C   0  0  0  0  0  0  0  0  0  0  0  0
   -3.5080   15.4300   -2.3250 C   0  0  0  0  0  0  0  0  0  0  0  0
   -4.7420   15.2000    1.8120 C   0  0  0  0  0  0  0  0  0  0  0  0
   -3.1940   14.4410    1.8320 S   0  0  0  0  0  0  0  0  0  0  0  0
   -5.2000   15.6730    2.9630 N   0  0  0  0  0  0  0  0  0  0  0  0
   -2.2570   14.8130   -1.8950 C   0  0  0  0  0  0  0  0  0  0  0  0
   -1.0580   14.9840   -2.7700 C   0  0  0  0  0  0  0  0  0  0  0  0
   -1.0800   15.0830   -3.9860 O   0  0  0  0  0  0  0  0  0  0  0  0
    0.1100   15.0290   -2.1100 O   0  0  0  0  0  0  0  0  0  0  0  0
  1  2  1  0
  2  3  2  0
  2  4  1  0
  5  4  1  6
  5  6  1  0
  5  7  1  0
  5  8  1  0
  6  9  1  6
  7 10  2  0
  8 11  2  0
  6 12  1  0
 11 12  1  0
 11 13  1  0
  9 14  2  0
 10 14  1  0
 14 15  1  0
 15 16  2  0
 15 17  1  0
M  END
