mac-x0572-mac-x0124
     RDKit          3D

 23 26  0  0  0  0  0  0  0  0999 V2000
   -7.6310   14.8260    3.6560 C   0  0  0  0  0  0  0  0  0  0  0  0
   -7.1430   14.7580    2.2350 C   0  0  0  0  0  0  0  0  0  0  0  0
   -5.7620   14.9400    2.0670 N   0  0  0  0  0  0  0  0  0  0  0  0
   -8.0320   14.5500    1.2430 C   0  0  0  0  0  0  0  0  0  0  0  0
   -9.3880   14.3830    1.4130 O   0  0  0  0  0  0  0  0  0  0  0  0
   -7.5470   14.5060   -0.1320 C   0  0  0  0  0  0  0  0  0  0  0  0
   -5.2390   14.7960    0.8830 C   0  0  0  0  0  0  0  0  0  0  0  0
   -8.3570   14.5370   -1.0560 O   0  0  0  0  0  0  0  0  0  0  0  0
   -6.0920   14.4280   -0.3320 C   0  0  2  0  0  0  0  0  0  0  0  0
   -3.8120   14.9690    0.4370 C   0  0  0  0  0  0  0  0  0  0  0  0
   -3.6270   15.3780   -0.7990 C   0  0  0  0  0  0  0  0  0  0  0  0
   -5.7880   15.2380   -1.5480 C   0  0  0  0  0  0  0  0  0  0  0  0
   -2.4390   14.7880    0.6920 C   0  0  0  0  0  0  0  0  0  0  0  0
   -4.5950   15.6770   -1.7400 C   0  0  0  0  0  0  0  0  0  0  0  0
   -1.9890   14.7750   -0.6130 C   0  0  0  0  0  0  0  0  0  0  0  0
   -1.6200   14.6670    1.7500 N   0  0  0  0  0  0  0  0  0  0  0  0
   -2.6470   14.8630   -1.8860 C   0  0  0  0  0  0  0  0  0  0  0  0
   -0.6670   14.6660   -0.8470 C   0  0  0  0  0  0  0  0  0  0  0  0
   -0.3090   14.5540    1.3680 C   0  0  0  0  0  0  0  0  0  0  0  0
   -0.4860   14.7020   -2.2230 N   0  0  0  0  0  0  0  0  0  0  0  0
   -1.6930   14.8160   -2.8580 C   0  0  0  0  0  0  0  0  0  0  0  0
    0.2430   14.5540    0.1140 N   0  0  0  0  0  0  0  0  0  0  0  0
    0.7810   14.6320   -2.8960 C   0  0  0  0  0  0  0  0  0  0  0  0
  1  2  1  0
  2  3  1  0
  2  4  2  0
  4  5  1  0
  4  6  1  0
  3  7  2  0
  6  8  2  0
  6  9  1  0
  7  9  1  0
  7 10  1  0
 10 11  2  0
  9 12  1  6
 10 13  1  0
 11 14  1  0
 12 14  2  0
 13 15  1  0
 13 16  2  0
 15 17  1  0
 15 18  2  0
 16 19  1  0
 18 20  1  0
 17 21  2  0
 20 21  1  0
 18 22  1  0
 19 22  2  0
 20 23  1  0
M  END
