mac-x0436-mac-x0396
     RDKit          3D

 27 29  0  0  0  0  0  0  0  0999 V2000
    0.5710   11.2310   -2.9300 O   0  0  0  0  0  0  0  0  0  0  0  0
    1.2210   12.4120   -2.9010 C   0  0  0  0  0  0  0  0  0  0  0  0
    1.5200   12.9500   -1.8540 O   0  0  0  0  0  0  0  0  0  0  0  0
    1.5210   13.0050   -4.2520 C   0  0  0  0  0  0  0  0  0  0  0  0
    0.2550   13.2770   -5.0560 C   0  0  0  0  0  0  0  0  0  0  0  0
   -0.5370   12.0370   -5.4280 C   0  0  0  0  0  0  0  0  0  0  0  0
   -1.8760   11.6480   -4.7100 C   0  0  0  0  0  0  0  0  0  0  0  0
   -0.0360   11.2900   -6.3790 N   0  0  0  0  0  0  0  0  0  0  0  0
   -2.4420   12.4400   -3.8260 N   0  0  0  0  0  0  0  0  0  0  0  0
   -2.3990   10.4250   -5.0780 N   0  0  0  0  0  0  0  0  0  0  0  0
   -0.6990   10.1190   -6.7780 C   0  0  0  0  0  0  0  0  0  0  0  0
   -2.0160   13.7660   -3.3360 C   0  0  0  0  0  0  0  0  0  0  0  0
   -1.8700    9.6790   -6.1420 C   0  0  0  0  0  0  0  0  0  0  0  0
   -0.1680    9.3760   -7.8360 C   0  0  0  0  0  0  0  0  0  0  0  0
   -3.1550   14.4320   -2.5060 C   0  0  0  0  0  0  0  0  0  0  0  0
   -0.7950    8.2040   -8.2640 C   0  0  0  0  0  0  0  0  0  0  0  0
   -2.4970    8.5040   -6.5730 C   0  0  0  0  0  0  0  0  0  0  0  0
   -2.7020   14.7300   -1.1300 N   0  0  0  0  0  0  0  0  0  0  0  0
   -1.9610    7.7690   -7.6310 C   0  0  0  0  0  0  0  0  0  0  0  0
   -3.5040   14.8970   -0.1090 C   0  0  0  0  0  0  0  0  0  0  0  0
   -2.9080   15.1600    1.0910 N   0  0  0  0  0  0  0  0  0  0  0  0
   -4.9860   14.8190   -0.0960 C   0  0  0  0  0  0  0  0  0  0  0  0
   -5.7660   15.0400   -1.2200 C   0  0  0  0  0  0  0  0  0  0  0  0
   -5.6200   14.5060    1.1080 C   0  0  0  0  0  0  0  0  0  0  0  0
   -7.1210   14.9640   -1.2080 N   0  0  0  0  0  0  0  0  0  0  0  0
   -7.0070   14.4240    1.1450 C   0  0  0  0  0  0  0  0  0  0  0  0
   -7.7110   14.6580   -0.0290 C   0  0  0  0  0  0  0  0  0  0  0  0
  1  2  1  0
  2  3  2  0
  2  4  1  0
  4  5  1  0
  5  6  1  0
  6  7  1  0
  6  8  2  0
  7  9  2  3
  7 10  1  0
  8 11  1  0
  9 12  1  0
 10 13  1  0
 11 13  2  0
 11 14  1  0
 12 15  1  0
 14 16  2  0
 13 17  1  0
 15 18  1  0
 16 19  1  0
 17 19  2  0
 18 20  2  3
 20 21  1  0
 20 22  1  0
 22 23  2  0
 22 24  1  0
 23 25  1  0
 24 26  2  0
 25 27  2  0
 26 27  1  0
M  END
