mac-x0283-mac-x0137
     RDKit          3D

 22 25  0  0  0  0  0  0  0  0999 V2000
   -6.6960   13.7570    2.1310 N   0  0  0  0  0  0  0  0  0  0  0  0
   -6.5470   14.3140    0.9330 C   0  0  0  0  0  0  0  0  0  0  0  0
   -7.5760   14.8490    0.2890 N   0  0  0  0  0  0  0  0  0  0  0  0
   -5.3290   14.4190    0.1880 C   0  0  0  0  0  0  0  0  0  0  0  0
   -7.0630   15.3340   -0.8870 O   0  0  0  0  0  0  0  0  0  0  0  0
   -5.7280   15.0870   -0.9460 C   0  0  0  0  0  0  0  0  0  0  0  0
   -3.8750   13.9980    0.3750 C   0  0  0  0  0  0  0  0  0  0  0  0
   -4.8830   15.4560   -1.9890 C   0  0  0  0  0  0  0  0  0  0  0  0
   -2.8610   14.8160   -0.5470 C   0  0  1  0  0  0  0  0  0  0  0  0
   -3.5610   15.3630   -1.8150 C   0  0  0  0  0  0  0  0  0  0  0  0
   -2.3020   15.8750    0.3960 C   0  0  0  0  0  0  0  0  0  0  0  0
   -1.4110   14.3180   -1.0100 C   0  0  2  0  0  0  0  0  0  0  0  0
   -1.1880   13.6150   -2.2720 N   0  0  0  0  0  0  0  0  0  0  0  0
   -0.5380   13.7590   -0.0050 N   0  0  0  0  0  0  0  0  0  0  0  0
   -1.5670   15.2480    1.5020 N   0  0  0  0  0  0  0  0  0  0  0  0
   -1.5450   14.3470   -3.4900 C   0  0  0  0  0  0  0  0  0  0  0  0
    0.0950   12.9300   -2.4390 C   0  0  0  0  0  0  0  0  0  0  0  0
   -0.3370   14.5990    1.1350 C   0  0  0  0  0  0  0  0  0  0  0  0
   -1.7730   13.3690   -4.6350 C   0  0  2  0  0  0  0  0  0  0  0  0
    0.0830   11.9140   -3.5760 C   0  0  0  0  0  0  0  0  0  0  0  0
   -2.8640   12.6180   -4.3100 F   0  0  0  0  0  0  0  0  0  0  0  0
   -0.5850   12.4290   -4.8590 C   0  0  0  0  0  0  0  0  0  0  0  0
  1  2  1  0
  2  3  2  0
  2  4  1  0
  3  5  1  0
  4  6  2  0
  5  6  1  0
  4  7  1  0
  6  8  1  0
  9  7  1  1
  8 10  2  0
  9 10  1  0
  9 11  1  0
  9 12  1  0
 12 13  1  6
 12 14  1  0
 11 15  1  0
 13 16  1  0
 13 17  1  0
 14 18  1  0
 15 18  1  0
 16 19  1  0
 17 20  1  0
 19 21  1  1
 19 22  1  0
 20 22  1  0
M  END
