mac-x0319-mac-x0451
     RDKit          3D

 22 24  0  0  0  0  0  0  0  0999 V2000
    0.5390   10.4670   -2.4800 O   0  0  0  0  0  0  0  0  0  0  0  0
    0.8090   11.7980   -2.4050 C   0  0  0  0  0  0  0  0  0  0  0  0
    0.6060   12.3770   -1.3520 O   0  0  0  0  0  0  0  0  0  0  0  0
    1.3320   12.4020   -3.6910 C   0  0  0  0  0  0  0  0  0  0  0  0
    0.6780   13.7310   -3.9260 C   0  0  0  0  0  0  0  0  0  0  0  0
    1.3720   14.8800   -4.3480 C   0  0  0  0  0  0  0  0  0  0  0  0
   -0.6940   13.8100   -3.7000 C   0  0  0  0  0  0  0  0  0  0  0  0
    0.6640   16.0710   -4.5360 C   0  0  0  0  0  0  0  0  0  0  0  0
   -1.3570   15.0020   -3.8890 C   0  0  0  0  0  0  0  0  0  0  0  0
    1.3030   17.1920   -4.9450 O   0  0  0  0  0  0  0  0  0  0  0  0
   -2.6880   15.1480   -3.6860 O   0  0  0  0  0  0  0  0  0  0  0  0
   -0.6860   16.1360   -4.3130 C   0  0  0  0  0  0  0  0  0  0  0  0
   -3.3970   15.0750   -2.4990 C   0  0  0  0  0  0  0  0  0  0  0  0
   -4.7290   15.0870   -2.8180 C   0  0  0  0  0  0  0  0  0  0  0  0
   -2.9610   15.0040   -1.1460 C   0  0  0  0  0  0  0  0  0  0  0  0
   -3.9920   14.9620   -0.1610 C   0  0  0  0  0  0  0  0  0  0  0  0
   -5.6970   15.0410   -1.8590 C   0  0  0  0  0  0  0  0  0  0  0  0
   -5.3390   14.9800   -0.5260 C   0  0  0  0  0  0  0  0  0  0  0  0
   -3.9440   14.8880    1.5670 S   0  0  0  0  0  0  0  0  0  0  0  0
   -5.6730   14.9000    1.6120 C   0  0  0  0  0  0  0  0  0  0  0  0
   -6.2600   14.9380    0.4720 N   0  0  0  0  0  0  0  0  0  0  0  0
   -6.4220   14.8830    2.7190 N   0  0  0  0  0  0  0  0  0  0  0  0
  1  2  1  0
  2  3  2  0
  2  4  1  0
  4  5  1  0
  5  6  2  0
  5  7  1  0
  6  8  1  0
  7  9  2  0
  8 10  1  0
  9 11  1  0
  8 12  2  0
  9 12  1  0
 11 13  1  0
 13 14  2  0
 13 15  1  0
 15 16  2  0
 14 17  1  0
 16 18  1  0
 17 18  2  0
 16 19  1  0
 19 20  1  0
 18 21  1  0
 20 21  2  0
 20 22  1  0
M  END
