mac-x0587-diamond-x0587_0_A
     RDKit          3D

 27 28  0  0  0  0  0  0  0  0999 V2000
    0.0780   16.1470   -4.2550 C   0  0  0  0  0  0  0  0  0  0  0  0
   -0.5380   14.8350   -3.7630 C   0  0  2  0  0  0  0  0  0  0  0  0
   -0.2850   13.5150   -5.0430 S   0  0  0  0  0  0  0  0  0  0  0  0
   -2.0320   14.9730   -3.3780 C   0  0  0  0  0  0  0  0  0  0  0  0
   -0.6350   11.9850   -4.0740 C   0  0  0  0  0  0  0  0  0  0  0  0
   -2.8590   15.2390   -4.2580 O   0  0  0  0  0  0  0  0  0  0  0  0
   -2.3800   14.7980   -2.0310 N   0  0  0  0  0  0  0  0  0  0  0  0
    0.5040   11.5550   -3.1660 C   0  0  0  0  0  0  0  0  0  0  0  0
   -3.6270   15.2530   -1.3670 C   0  0  2  0  0  0  0  0  0  0  0  0
   -1.3940   14.7620   -1.0210 C   0  0  0  0  0  0  0  0  0  0  0  0
    0.6130   10.4010   -2.7840 O   0  0  0  0  0  0  0  0  0  0  0  0
    1.3840   12.5150   -2.7990 O   0  0  0  0  0  0  0  0  0  0  0  0
   -0.1870   14.8290   -1.0990 O   0  0  0  0  0  0  0  0  0  0  0  0
   -3.3410   15.1820    0.1320 C   0  0  0  0  0  0  0  0  0  0  0  0
   -2.0270   14.6520    0.2020 N   0  0  0  0  0  0  0  0  0  0  0  0
   -4.8980   14.4550   -1.6300 C   0  0  0  0  0  0  0  0  0  0  0  0
   -4.5420   13.1740   -1.9670 F   0  0  0  0  0  0  0  0  0  0  0  0
   -5.4470   14.9820   -2.7660 F   0  0  0  0  0  0  0  0  0  0  0  0
   -5.8360   14.5500   -0.4300 C   0  0  0  0  0  0  0  0  0  0  0  0
   -7.1620   14.5140   -0.6610 N   0  0  0  0  0  0  0  0  0  0  0  0
   -5.2970   14.6730    0.8040 N   0  0  0  0  0  0  0  0  0  0  0  0
   -7.9720   14.6220    0.4170 C   0  0  0  0  0  0  0  0  0  0  0  0
   -6.1470   14.7760    1.8460 C   0  0  0  0  0  0  0  0  0  0  0  0
   -7.5140   14.7610    1.7070 C   0  0  0  0  0  0  0  0  0  0  0  0
   -8.3790   14.8990    2.8810 C   0  0  0  0  0  0  0  0  0  0  0  0
   -7.8000   14.8620    4.1130 N   0  0  0  0  0  0  0  0  0  0  0  0
   -9.5860   15.0550    2.7470 O   0  0  0  0  0  0  0  0  0  0  0  0
  2  1  1  6
  2  3  1  0
  2  4  1  0
  3  5  1  0
  4  6  2  0
  4  7  1  0
  5  8  1  0
  7  9  1  0
  7 10  1  0
  8 11  2  0
  8 12  1  0
 10 13  2  0
  9 14  1  0
 10 15  1  0
 14 15  1  0
  9 16  1  1
 16 17  1  0
 16 18  1  0
 16 19  1  0
 19 20  2  0
 19 21  1  0
 20 22  1  0
 21 23  2  0
 22 24  2  0
 23 24  1  0
 24 25  1  0
 25 26  1  0
 25 27  2  0
M  END
