mac-x0397-diamond-x0662_0_A
     RDKit          3D

 32 35  0  0  0  0  0  0  0  0999 V2000
   -6.7490   15.0960   -2.4550 Cl  0  0  0  0  0  0  0  0  0  0  0  0
   -5.1150   14.9130   -2.0050 C   0  0  0  0  0  0  0  0  0  0  0  0
   -4.8880   14.9330   -0.6460 C   0  0  0  0  0  0  0  0  0  0  0  0
   -4.1010   14.7490   -2.9260 C   0  0  0  0  0  0  0  0  0  0  0  0
   -5.8510   15.0760    0.3200 N   0  0  0  0  0  0  0  0  0  0  0  0
   -3.5720   14.7970   -0.2060 C   0  0  0  0  0  0  0  0  0  0  0  0
   -2.7840   14.5950   -2.5080 C   0  0  0  0  0  0  0  0  0  0  0  0
   -1.7500   14.3990   -3.6270 C   0  0  0  0  0  0  0  0  0  0  0  0
   -5.3120   15.0550    1.4810 C   0  0  0  0  0  0  0  0  0  0  0  0
   -3.5910   14.8760    1.5050 S   0  0  0  0  0  0  0  0  0  0  0  0
   -2.4930   14.6260   -1.1150 C   0  0  0  0  0  0  0  0  0  0  0  0
   -6.0930   15.1720    2.5700 N   0  0  0  0  0  0  0  0  0  0  0  0
   -0.3610   13.9180   -3.1910 C   0  0  0  0  0  0  0  0  0  0  0  0
    0.0600   12.4580   -3.5180 C   0  0  0  0  0  0  0  0  0  0  0  0
   -0.4720   11.7630   -4.7220 N   0  0  0  0  0  0  0  0  0  0  0  0
    0.3120   11.5520   -5.7380 C   0  0  0  0  0  0  0  0  0  0  0  0
    1.4870   11.9410   -5.8460 O   0  0  0  0  0  0  0  0  0  0  0  0
    0.0330   10.7660   -7.0120 C   0  0  0  0  0  0  0  0  0  0  0  0
   -1.0110    9.8330   -7.0800 C   0  0  0  0  0  0  0  0  0  0  0  0
    0.8430   10.9620   -8.1390 C   0  0  0  0  0  0  0  0  0  0  0  0
   -1.2280    9.1160   -8.2640 C   0  0  0  0  0  0  0  0  0  0  0  0
    0.6420   10.2560   -9.3400 C   0  0  0  0  0  0  0  0  0  0  0  0
    1.4200   10.4030  -10.5320 N   0  0  0  0  0  0  0  0  0  0  0  0
   -0.4090    9.3270   -9.3830 C   0  0  0  0  0  0  0  0  0  0  0  0
    2.1390    9.4330  -11.2440 C   0  0  0  0  0  0  0  0  0  0  0  0
    2.2250    8.2490  -10.9380 O   0  0  0  0  0  0  0  0  0  0  0  0
    2.8500    9.9540  -12.4540 C   0  0  0  0  0  0  0  0  0  0  0  0
    2.6780   11.2050  -13.1330 C   0  0  0  0  0  0  0  0  0  0  0  0
    3.8150    9.2360  -13.0670 N   0  0  0  0  0  0  0  0  0  0  0  0
    4.2340   10.0020  -14.0850 N   0  0  0  0  0  0  0  0  0  0  0  0
    3.5830   11.1970  -14.1710 C   0  0  0  0  0  0  0  0  0  0  0  0
    5.2870    9.5140  -14.9450 C   0  0  0  0  0  0  0  0  0  0  0  0
  1  2  1  0
  2  3  2  0
  2  4  1  0
  3  5  1  0
  3  6  1  0
  4  7  2  0
  7  8  1  0
  5  9  2  0
  6 10  1  0
  9 10  1  0
  6 11  2  0
  7 11  1  0
  9 12  1  0
  8 13  1  0
 13 14  1  0
 14 15  1  0
 15 16  2  3
 16 17  1  0
 16 18  1  0
 18 19  2  0
 18 20  1  0
 19 21  1  0
 20 22  2  0
 22 23  1  0
 21 24  2  0
 22 24  1  0
 23 25  1  0
 25 26  2  0
 25 27  1  0
 27 28  1  0
 27 29  2  0
 29 30  1  0
 28 31  2  0
 30 31  1  0
 30 32  1  0
M  CHG  1  17  -1
M  END
