mac-x0255-mac-x0455
     RDKit          3D

 23 25  0  0  0  0  0  0  0  0999 V2000
    1.2820   11.6510   -2.4490 O   0  0  0  0  0  0  0  0  0  0  0  0
    0.5750   12.9090   -2.4490 S   0  0  0  0  0  0  0  0  0  0  0  0
    0.0920   12.6080   -1.1070 O   0  0  0  0  0  0  0  0  0  0  0  0
    1.3750   13.4660   -3.7550 C   0  0  0  0  0  0  0  0  0  0  0  0
   -0.9140   13.3960   -2.9860 C   0  0  1  0  0  0  0  0  0  0  0  0
    1.3400   14.3700   -1.6080 O   0  0  0  0  0  0  0  0  0  0  0  0
   -2.0950   13.3240   -2.0500 C   0  0  0  0  0  0  0  0  0  0  0  0
   -1.0980   14.7360   -3.4130 O   0  0  0  0  0  0  0  0  0  0  0  0
    0.6020   14.6130   -4.3370 C   0  0  0  0  0  0  0  0  0  0  0  0
   -1.1440   12.4910   -4.1700 C   0  0  0  0  0  0  0  0  0  0  0  0
    0.9820   15.8890   -4.5340 C   0  0  0  0  0  0  0  0  0  0  0  0
   -1.0350   14.6200   -4.8980 S   0  0  0  0  0  0  0  0  0  0  0  0
   -2.2810   11.8220   -4.4290 C   0  0  0  0  0  0  0  0  0  0  0  0
   -0.0940   12.3090   -5.0830 C   0  0  0  0  0  0  0  0  0  0  0  0
    0.0770   16.7390   -5.0370 C   0  0  0  0  0  0  0  0  0  0  0  0
   -1.1600   16.2350   -5.3080 C   0  0  0  0  0  0  0  0  0  0  0  0
   -2.4020   10.9950   -5.5380 C   0  0  0  0  0  0  0  0  0  0  0  0
   -0.1990   11.4990   -6.1800 C   0  0  0  0  0  0  0  0  0  0  0  0
    0.2530   18.0920   -5.3140 C   0  0  0  0  0  0  0  0  0  0  0  0
   -2.2070   16.9890   -5.8120 C   0  0  0  0  0  0  0  0  0  0  0  0
   -1.3690   10.8200   -6.4250 C   0  0  0  0  0  0  0  0  0  0  0  0
   -0.7820   18.8430   -5.8210 C   0  0  0  0  0  0  0  0  0  0  0  0
   -2.0240   18.3180   -6.0770 C   0  0  0  0  0  0  0  0  0  0  0  0
  1  2  1  0
  2  3  2  0
  2  4  1  0
  2  5  1  0
  2  6  1  0
  5  7  1  1
  5  8  1  0
  4  9  1  0
  5 10  1  0
  9 11  2  0
  9 12  1  0
 10 13  2  0
 10 14  1  0
 11 15  1  0
 12 16  1  0
 15 16  2  0
 13 17  1  0
 14 18  2  0
 15 19  1  0
 16 20  1  0
 17 21  2  0
 18 21  1  0
 19 22  2  0
 20 23  2  0
 22 23  1  0
M  END
