mac-x0361-mac-x0277
     RDKit          3D

 23 24  0  0  0  0  0  0  0  0999 V2000
   -6.3250   14.7680    1.9040 N   0  0  0  0  0  0  0  0  0  0  0  0
   -6.6470   14.7360    0.5790 C   0  0  0  0  0  0  0  0  0  0  0  0
   -7.8100   14.6290    0.2100 O   0  0  0  0  0  0  0  0  0  0  0  0
   -5.5340   14.8340   -0.3790 C   0  0  0  0  0  0  0  0  0  0  0  0
   -4.1890   14.7650    0.0150 C   0  0  0  0  0  0  0  0  0  0  0  0
   -5.8640   14.9940   -1.7160 C   0  0  0  0  0  0  0  0  0  0  0  0
   -3.1800   14.8490   -0.9440 C   0  0  0  0  0  0  0  0  0  0  0  0
   -4.8650   15.0730   -2.6500 C   0  0  0  0  0  0  0  0  0  0  0  0
   -3.5310   15.0000   -2.2790 C   0  0  0  0  0  0  0  0  0  0  0  0
   -2.7420   15.0880   -3.3440 O   0  0  0  0  0  0  0  0  0  0  0  0
   -3.4130   14.9190   -4.5840 C   0  0  0  0  0  0  0  0  0  0  0  0
   -2.6970   15.7410   -5.5980 C   0  0  0  0  0  0  0  0  0  0  0  0
   -1.2480   15.7460   -5.1720 C   0  0  0  0  0  0  0  0  0  0  0  0
   -0.6300   14.5010   -4.9340 C   0  0  0  0  0  0  0  0  0  0  0  0
   -0.5060   16.9090   -5.0010 C   0  0  0  0  0  0  0  0  0  0  0  0
   -1.1930   18.4680   -5.2760 Cl  0  0  0  0  0  0  0  0  0  0  0  0
    0.7070   14.4120   -4.5280 C   0  0  0  0  0  0  0  0  0  0  0  0
    0.8260   16.8350   -4.5960 C   0  0  0  0  0  0  0  0  0  0  0  0
    1.3490   13.0640   -4.2760 C   0  0  0  0  0  0  0  0  0  0  0  0
    1.4300   15.5960   -4.3600 C   0  0  0  0  0  0  0  0  0  0  0  0
    0.9660   12.4510   -2.9470 C   0  0  0  0  0  0  0  0  0  0  0  0
    0.2460   11.3150   -3.0820 O   0  0  0  0  0  0  0  0  0  0  0  0
    1.2230   12.8620   -1.8320 O   0  0  0  0  0  0  0  0  0  0  0  0
  1  2  1  0
  2  3  2  0
  2  4  1  0
  4  5  2  0
  4  6  1  0
  5  7  1  0
  6  8  2  0
  7  9  2  0
  8  9  1  0
  9 10  1  0
 10 11  1  0
 11 12  1  0
 12 13  1  0
 13 14  2  0
 13 15  1  0
 15 16  1  0
 14 17  1  0
 15 18  2  0
 17 19  1  0
 17 20  2  0
 18 20  1  0
 19 21  1  0
 21 22  1  0
 21 23  2  0
M  END
