mac-x0527-diamond-x0681_0_A
     RDKit          3D

 20 22  0  0  0  0  0  0  0  0999 V2000
   -3.7580   15.1070   -3.7240 O   0  0  0  0  0  0  0  0  0  0  0  0
   -3.1350   15.0420   -2.6680 C   0  0  0  0  0  0  0  0  0  0  0  0
   -1.8180   14.6320   -2.6200 N   0  0  0  0  0  0  0  0  0  0  0  0
   -3.7830   15.4340   -1.3100 C   0  0  1  0  0  0  0  0  0  0  0  0
   -0.9850   14.6900   -3.8120 C   0  0  0  0  0  0  0  0  0  0  0  0
   -5.3430   15.3430   -1.4230 C   0  0  0  0  0  0  0  0  0  0  0  0
   -3.0280   14.8500   -0.1290 N   0  0  0  0  0  0  0  0  0  0  0  0
   -0.9220   13.3500   -4.5170 C   0  0  0  0  0  0  0  0  0  0  0  0
   -6.0320   14.8580   -0.2320 N   0  0  0  0  0  0  0  0  0  0  0  0
   -3.9180   14.3970    0.9640 C   0  0  0  0  0  0  0  0  0  0  0  0
   -1.8470   12.3300   -4.2240 C   0  0  0  0  0  0  0  0  0  0  0  0
    0.0700   13.1030   -5.4820 C   0  0  0  0  0  0  0  0  0  0  0  0
   -5.1650   13.8040    0.2780 C   0  0  2  0  0  0  0  0  0  0  0  0
   -1.7740   11.0990   -4.8820 C   0  0  0  0  0  0  0  0  0  0  0  0
    0.1390   11.8710   -6.1360 C   0  0  0  0  0  0  0  0  0  0  0  0
   -4.6270   12.9310   -0.9130 C   0  0  0  0  0  0  0  0  0  0  0  0
   -5.9750   12.7260    0.9710 C   0  0  0  0  0  0  0  0  0  0  0  0
   -0.7850   10.8700   -5.8350 C   0  0  0  0  0  0  0  0  0  0  0  0
   -5.7490   12.0300   -1.1580 N   0  0  0  0  0  0  0  0  0  0  0  0
   -6.2740   11.7640    0.0780 C   0  0  0  0  0  0  0  0  0  0  0  0
  1  2  2  0
  2  3  1  0
  4  2  1  6
  3  5  1  0
  4  6  1  0
  4  7  1  0
  5  8  1  0
  6  9  1  0
  7 10  1  0
  8 11  2  0
  8 12  1  0
  9 13  1  0
 13 10  1  1
 11 14  1  0
 12 15  2  0
 13 16  1  0
 13 17  1  0
 14 18  2  0
 15 18  1  0
 16 19  1  0
 17 20  2  0
 19 20  1  0
M  END
