mac-x0397-mac-x0587
     RDKit          3D

 21 22  0  0  0  0  0  0  0  0999 V2000
   -6.8090   15.2600   -2.2980 Cl  0  0  0  0  0  0  0  0  0  0  0  0
   -5.2530   14.5570   -1.7740 C   0  0  2  0  0  0  0  0  0  0  0  0
   -4.8410   15.1430   -0.4490 C   0  0  1  0  0  0  0  0  0  0  0  0
   -4.1760   14.8060   -2.8210 C   0  0  0  0  0  0  0  0  0  0  0  0
   -5.8810   14.9560    0.5850 N   0  0  0  0  0  0  0  0  0  0  0  0
   -3.5510   14.4430   -0.0270 C   0  0  2  0  0  0  0  0  0  0  0  0
   -2.8250   15.3480   -2.3420 C   0  0  2  0  0  0  0  0  0  0  0  0
   -1.9070   15.0850   -3.5410 C   0  0  0  0  0  0  0  0  0  0  0  0
   -5.2460   14.4980    1.7860 C   0  0  1  0  0  0  0  0  0  0  0  0
   -3.5010   14.9150    1.6850 S   0  0  0  0  0  0  0  0  0  0  0  0
   -2.4000   14.8210   -0.9680 C   0  0  0  0  0  0  0  0  0  0  0  0
   -5.9390   15.1700    2.8300 N   0  0  0  0  0  0  0  0  0  0  0  0
   -0.3710   15.1290   -3.5290 C   0  0  2  0  0  0  0  0  0  0  0  0
   -2.4890   14.8460   -4.6020 O   0  0  0  0  0  0  0  0  0  0  0  0
   -1.2010   14.7380   -0.6930 O   0  0  0  0  0  0  0  0  0  0  0  0
    0.1960   16.5130   -3.8330 C   0  0  0  0  0  0  0  0  0  0  0  0
    0.3020   13.9490   -4.7810 S   0  0  0  0  0  0  0  0  0  0  0  0
   -0.3320   12.4240   -4.0450 C   0  0  0  0  0  0  0  0  0  0  0  0
    0.6130   11.7020   -3.1180 C   0  0  0  0  0  0  0  0  0  0  0  0
    0.6210   10.5190   -2.8350 O   0  0  0  0  0  0  0  0  0  0  0  0
    1.5310   12.5320   -2.5760 O   0  0  0  0  0  0  0  0  0  0  0  0
  2  1  1  6
  2  3  1  0
  2  4  1  0
  3  5  1  1
  3  6  1  0
  4  7  1  0
  7  8  1  6
  5  9  1  0
  6 10  1  1
  9 10  1  0
  6 11  1  0
  7 11  1  0
  9 12  1  1
  8 13  1  0
  8 14  2  0
 11 15  2  0
 13 16  1  6
 13 17  1  0
 17 18  1  0
 18 19  1  0
 19 20  2  0
 19 21  1  0
M  END
