mac-x0328-diamond-x0910_1_A
     RDKit          3D

 15 16  0  0  0  0  0  0  0  0999 V2000
   -1.4380   14.6790   -4.0530 O   0  0  0  0  0  0  0  0  0  0  0  0
   -1.4210   14.7120   -2.7080 C   0  0  0  0  0  0  0  0  0  0  0  0
   -0.4140   14.6820   -2.0320 O   0  0  0  0  0  0  0  0  0  0  0  0
   -2.7560   14.7900   -2.1130 C   0  0  0  0  0  0  0  0  0  0  0  0
   -2.8490   14.6160   -0.7300 C   0  0  0  0  0  0  0  0  0  0  0  0
   -3.8810   15.0280   -2.8970 C   0  0  0  0  0  0  0  0  0  0  0  0
   -4.0800   14.6770   -0.1140 C   0  0  0  0  0  0  0  0  0  0  0  0
   -5.1110   15.0870   -2.2790 C   0  0  0  0  0  0  0  0  0  0  0  0
   -5.1900   14.9100   -0.8970 C   0  0  0  0  0  0  0  0  0  0  0  0
   -6.4270   14.9850   -0.3520 N   0  0  0  0  0  0  0  0  0  0  0  0
   -7.0270   14.3590    0.7350 C   0  0  0  0  0  0  0  0  0  0  0  0
   -7.2600   15.8220   -0.9590 N   0  0  0  0  0  0  0  0  0  0  0  0
   -6.5220   13.4430    1.5830 N   0  0  0  0  0  0  0  0  0  0  0  0
   -8.3190   15.6690   -0.2100 C   0  0  0  0  0  0  0  0  0  0  0  0
   -8.2210   14.7990    0.8280 N   0  0  0  0  0  0  0  0  0  0  0  0
  1  2  1  0
  2  3  2  0
  2  4  1  0
  4  5  2  0
  4  6  1  0
  5  7  1  0
  6  8  2  0
  7  9  2  0
  8  9  1  0
  9 10  1  0
 10 11  1  0
 10 12  1  0
 11 13  1  0
 12 14  2  0
 11 15  2  0
 14 15  1  0
M  END
