mac-x0116-mac-x0138
     RDKit          3D

 18 20  0  0  0  0  0  0  0  0999 V2000
   -6.2290   14.6900    1.4030 C   0  0  0  0  0  0  0  0  0  0  0  0
   -4.8330   15.0520    1.4600 N   0  0  0  0  0  0  0  0  0  0  0  0
   -3.9930   14.9830    0.3500 C   0  0  0  0  0  0  0  0  0  0  0  0
   -6.5430   13.2420    1.5170 C   0  0  0  0  0  0  0  0  0  0  0  0
   -6.4510   12.4910    0.3820 O   0  0  0  0  0  0  0  0  0  0  0  0
   -6.9360   12.4540    2.5760 C   0  0  0  0  0  0  0  0  0  0  0  0
   -7.0980   11.1540    2.0660 C   0  0  0  0  0  0  0  0  0  0  0  0
   -6.7890   11.2270    0.7270 C   0  0  0  0  0  0  0  0  0  0  0  0
   -4.4950   15.1700   -0.9370 N   0  0  0  0  0  0  0  0  0  0  0  0
   -2.7010   14.7270    0.5600 C   0  0  0  0  0  0  0  0  0  0  0  0
   -3.6620   15.0730   -1.9320 C   0  0  0  0  0  0  0  0  0  0  0  0
   -1.7960   14.6230   -0.5880 C   0  0  0  0  0  0  0  0  0  0  0  0
   -1.9930   14.5210    1.6910 N   0  0  0  0  0  0  0  0  0  0  0  0
   -2.3130   14.8020   -1.8470 N   0  0  0  0  0  0  0  0  0  0  0  0
   -0.6090   14.3570   -0.1280 N   0  0  0  0  0  0  0  0  0  0  0  0
   -0.8150   14.3090    1.2490 C   0  0  0  0  0  0  0  0  0  0  0  0
   -1.4380   14.8160   -3.0070 C   0  0  0  0  0  0  0  0  0  0  0  0
    0.1510   14.0500    2.1140 N   0  0  0  0  0  0  0  0  0  0  0  0
  1  2  1  0
  2  3  1  0
  1  4  1  0
  4  5  1  0
  4  6  2  0
  6  7  1  0
  5  8  1  0
  7  8  2  0
  3  9  1  0
  3 10  2  0
  9 11  2  0
 10 12  1  0
 10 13  1  0
 11 14  1  0
 12 14  1  0
 12 15  2  0
 13 16  2  0
 15 16  1  0
 14 17  1  0
 16 18  1  0
M  END
