mac-x0116-mac-x0305
     RDKit          3D

 20 22  0  0  0  0  0  0  0  0999 V2000
   -5.9680   14.7030    1.3870 C   0  0  0  0  0  0  0  0  0  0  0  0
   -4.5270   14.9300    1.5240 N   0  0  0  0  0  0  0  0  0  0  0  0
   -3.6820   14.2970    0.5080 C   0  0  1  0  0  0  0  0  0  0  0  0
   -6.3470   13.2730    1.5300 C   0  0  0  0  0  0  0  0  0  0  0  0
   -6.3070   12.5200    0.3950 O   0  0  0  0  0  0  0  0  0  0  0  0
   -6.7590   12.5100    2.5970 C   0  0  0  0  0  0  0  0  0  0  0  0
   -6.9880   11.2210    2.0900 C   0  0  0  0  0  0  0  0  0  0  0  0
   -6.6990   11.2720    0.7500 C   0  0  0  0  0  0  0  0  0  0  0  0
   -4.1550   14.7840   -0.7870 N   0  0  0  0  0  0  0  0  0  0  0  0
   -2.1780   14.6940    0.6720 C   0  0  2  0  0  0  0  0  0  0  0  0
   -1.8990   15.4210    1.8070 O   0  0  0  0  0  0  0  0  0  0  0  0
   -3.3110   14.3140   -1.9000 C   0  0  0  0  0  0  0  0  0  0  0  0
   -1.6730   15.4240   -0.5510 C   0  0  2  0  0  0  0  0  0  0  0  0
   -1.2270   13.6410    0.7780 N   0  0  0  0  0  0  0  0  0  0  0  0
   -1.9300   14.7280   -1.7410 N   0  0  0  0  0  0  0  0  0  0  0  0
   -0.2220   15.4170   -0.3440 N   0  0  0  0  0  0  0  0  0  0  0  0
    0.0120   14.3580    0.6260 C   0  0  0  0  0  0  0  0  0  0  0  0
   -0.8460   13.9090   -2.0980 C   0  0  0  0  0  0  0  0  0  0  0  0
   -0.4630   12.9730   -1.1690 O   0  0  0  0  0  0  0  0  0  0  0  0
   -0.1970   13.9650   -3.1290 O   0  0  0  0  0  0  0  0  0  0  0  0
  1  2  1  0
  3  2  1  1
  1  4  1  0
  4  5  1  0
  4  6  2  0
  6  7  1  0
  5  8  1  0
  7  8  2  0
  3  9  1  0
  3 10  1  0
 10 11  1  1
  9 12  1  0
 10 13  1  0
 10 14  1  0
 12 15  1  0
 13 15  1  0
 13 16  1  1
 14 17  1  0
 16 17  1  0
 15 18  1  0
 18 19  1  0
 18 20  2  0
M  END
