mac-x0193-mac-x0358
     RDKit          3D

 20 21  0  0  0  0  0  0  0  0999 V2000
    0.3090   10.8160   -2.6390 O   0  0  0  0  0  0  0  0  0  0  0  0
    0.6130   11.8970   -3.3870 C   0  0  0  0  0  0  0  0  0  0  0  0
    1.3070   12.7980   -2.9320 O   0  0  0  0  0  0  0  0  0  0  0  0
   -0.0250   11.8250   -4.7830 C   0  0  2  0  0  0  0  0  0  0  0  0
    0.9730   11.7940   -5.8230 N   0  0  0  0  0  0  0  0  0  0  0  0
   -1.0110   12.9460   -5.0430 C   0  0  0  0  0  0  0  0  0  0  0  0
    0.8340   11.1790   -7.0550 C   0  0  0  0  0  0  0  0  0  0  0  0
   -2.2820   12.5930   -5.4920 C   0  0  0  0  0  0  0  0  0  0  0  0
   -0.7170   14.3150   -4.8570 C   0  0  0  0  0  0  0  0  0  0  0  0
    1.4920   11.5030   -7.9470 O   0  0  0  0  0  0  0  0  0  0  0  0
   -0.0560   10.1670   -7.2700 N   0  0  0  0  0  0  0  0  0  0  0  0
   -3.2460   13.5550   -5.7530 C   0  0  0  0  0  0  0  0  0  0  0  0
   -1.6950   15.2870   -5.1190 C   0  0  0  0  0  0  0  0  0  0  0  0
    0.1040    9.4250   -8.5470 C   0  0  0  0  0  0  0  0  0  0  0  0
   -2.9590   14.9020   -5.5690 C   0  0  0  0  0  0  0  0  0  0  0  0
    1.3470    8.5280   -8.4670 C   0  0  0  0  0  0  0  0  0  0  0  0
    0.1720   10.3340   -9.7910 C   0  0  0  0  0  0  0  0  0  0  0  0
    1.9930    8.1160   -9.8030 C   0  0  0  0  0  0  0  0  0  0  0  0
    0.4140    9.5890  -11.1140 C   0  0  0  0  0  0  0  0  0  0  0  0
    1.0290    8.1960  -10.9700 C   0  0  0  0  0  0  0  0  0  0  0  0
  1  2  1  0
  2  3  2  0
  2  4  1  0
  4  5  1  6
  4  6  1  0
  5  7  1  0
  6  8  2  0
  6  9  1  0
  7 10  2  0
  7 11  1  0
  8 12  1  0
  9 13  2  0
 11 14  1  0
 12 15  2  0
 13 15  1  0
 14 16  1  0
 14 17  1  0
 16 18  1  0
 17 19  1  0
 18 20  1  0
 19 20  1  0
M  END
