mac-x0381-mac-x0284
     RDKit          3D

 27 29  0  0  0  0  0  0  0  0999 V2000
   -8.1280   13.3760    4.6450 N   0  0  0  0  0  0  0  0  0  0  0  0
   -8.1210   14.4340    3.7720 C   0  0  0  0  0  0  0  0  0  0  0  0
   -7.0680   15.0710    3.3950 N   0  0  0  0  0  0  0  0  0  0  0  0
   -9.4220   14.8460    3.1420 C   0  0  0  0  0  0  0  0  0  0  0  0
   -5.7810   14.6340    3.8970 C   0  0  0  0  0  0  0  0  0  0  0  0
   -9.4100   15.8340    2.1720 C   0  0  0  0  0  0  0  0  0  0  0  0
  -10.6270   14.2430    3.4870 C   0  0  0  0  0  0  0  0  0  0  0  0
   -4.5910   15.2360    3.1210 C   0  0  0  0  0  0  0  0  0  0  0  0
  -10.5600   16.2420    1.5010 C   0  0  0  0  0  0  0  0  0  0  0  0
  -11.7980   14.6300    2.8230 C   0  0  0  0  0  0  0  0  0  0  0  0
   -4.1860   14.5860    1.7800 C   0  0  0  0  0  0  0  0  0  0  0  0
  -11.7710   15.6220    1.8160 C   0  0  0  0  0  0  0  0  0  0  0  0
  -10.5310   17.2440    0.5150 C   0  0  0  0  0  0  0  0  0  0  0  0
   -4.3630   15.5430    0.5970 C   0  0  0  0  0  0  0  0  0  0  0  0
  -12.9210   16.0120    1.1070 C   0  0  0  0  0  0  0  0  0  0  0  0
  -11.6880   17.6280   -0.1580 C   0  0  0  0  0  0  0  0  0  0  0  0
  -12.8860   17.0070    0.1360 C   0  0  0  0  0  0  0  0  0  0  0  0
   -3.6460   15.2870   -0.7100 C   0  0  0  0  0  0  0  0  0  0  0  0
   -2.2770   14.9690   -0.7950 C   0  0  0  0  0  0  0  0  0  0  0  0
   -4.3810   15.3890   -1.8950 C   0  0  0  0  0  0  0  0  0  0  0  0
   -1.6580   14.7750   -2.0470 C   0  0  0  0  0  0  0  0  0  0  0  0
   -3.7810   15.1910   -3.1330 C   0  0  0  0  0  0  0  0  0  0  0  0
   -0.2150   14.4540   -2.1740 C   0  0  0  0  0  0  0  0  0  0  0  0
   -2.4290   14.8920   -3.2150 C   0  0  0  0  0  0  0  0  0  0  0  0
   -1.9280   14.7200   -4.4770 O   0  0  0  0  0  0  0  0  0  0  0  0
    0.5530   14.3420   -1.2350 O   0  0  0  0  0  0  0  0  0  0  0  0
    0.1950   14.2960   -3.4410 O   0  0  0  0  0  0  0  0  0  0  0  0
  1  2  1  0
  2  3  2  3
  2  4  1  0
  3  5  1  0
  4  6  2  0
  4  7  1  0
  5  8  1  0
  6  9  1  0
  7 10  2  0
  8 11  1  0
  9 12  2  0
 10 12  1  0
  9 13  1  0
 11 14  1  0
 12 15  1  0
 13 16  2  0
 15 17  2  0
 16 17  1  0
 14 18  1  0
 18 19  2  0
 18 20  1  0
 19 21  1  0
 20 22  2  0
 21 23  1  0
 21 24  2  0
 22 24  1  0
 24 25  1  0
 23 26  2  0
 23 27  1  0
M  END
