mac-x0305-diamond-x0727_0_A
     RDKit          3D

 24 25  0  0  0  0  0  0  0  0999 V2000
    0.2960   13.2930   -0.1360 O   0  0  0  0  0  0  0  0  0  0  0  0
   -0.2150   14.1390   -1.0690 C   0  0  0  0  0  0  0  0  0  0  0  0
    0.4410   14.4770   -2.1120 N   0  0  0  0  0  0  0  0  0  0  0  0
   -1.5990   14.6020   -0.7370 C   0  0  0  0  0  0  0  0  0  0  0  0
    1.7900   13.9580   -2.2940 C   0  0  0  0  0  0  0  0  0  0  0  0
   -2.0230   14.8130    0.5880 C   0  0  0  0  0  0  0  0  0  0  0  0
   -2.4140   14.8010   -1.8220 N   0  0  0  0  0  0  0  0  0  0  0  0
   -1.2130   14.6100    1.6780 O   0  0  0  0  0  0  0  0  0  0  0  0
    1.9030   12.5400   -2.4500 O   0  0  0  0  0  0  0  0  0  0  0  0
   -3.3330   15.2480    0.7910 C   0  0  0  0  0  0  0  0  0  0  0  0
   -3.6720   15.2250   -1.5770 C   0  0  0  0  0  0  0  0  0  0  0  0
    1.0190   11.9740   -3.3140 C   0  0  0  0  0  0  0  0  0  0  0  0
   -4.1690   15.4590   -0.3060 C   0  0  0  0  0  0  0  0  0  0  0  0
    1.1010   12.5900   -4.7280 C   0  0  1  0  0  0  0  0  0  0  0  0
    0.2580   11.0610   -3.0080 O   0  0  0  0  0  0  0  0  0  0  0  0
    0.2480   11.8590   -5.6390 N   0  0  0  0  0  0  0  0  0  0  0  0
    0.9230   14.0950   -4.8580 C   0  0  0  0  0  0  0  0  0  0  0  0
    0.4580   11.1100   -6.7350 C   0  0  0  0  0  0  0  0  0  0  0  0
    1.4860   11.2790   -7.3730 O   0  0  0  0  0  0  0  0  0  0  0  0
   -0.6110   10.1010   -7.0580 C   0  0  0  0  0  0  0  0  0  0  0  0
   -1.0460    9.9680   -8.5050 C   0  0  0  0  0  0  0  0  0  0  0  0
   -0.2570    8.6690   -6.7160 C   0  0  0  0  0  0  0  0  0  0  0  0
   -2.0110    8.7910   -8.3970 C   0  0  0  0  0  0  0  0  0  0  0  0
   -1.4870    7.9360   -7.2270 C   0  0  0  0  0  0  0  0  0  0  0  0
  1  2  1  0
  2  3  2  3
  2  4  1  0
  3  5  1  0
  4  6  2  0
  4  7  1  0
  6  8  1  0
  5  9  1  0
  6 10  1  0
  7 11  2  0
  9 12  1  0
 10 13  2  0
 11 13  1  0
 12 14  1  0
 12 15  2  0
 14 16  1  0
 14 17  1  1
 16 18  1  0
 18 19  2  0
 18 20  1  0
 20 21  1  0
 20 22  1  0
 21 23  1  0
 22 24  1  0
 23 24  1  0
M  END
