mac-x0404-diamond-x0421_0_A
     RDKit          3D

 27 30  0  0  0  0  0  0  0  0999 V2000
    1.5340   12.6970   -1.9900 O   0  0  0  0  0  0  0  0  0  0  0  0
    1.0190   12.1180   -3.0940 C   0  0  0  0  0  0  0  0  0  0  0  0
    0.5870   10.9790   -3.0300 O   0  0  0  0  0  0  0  0  0  0  0  0
    1.0740   13.0580   -4.2790 C   0  0  0  0  0  0  0  0  0  0  0  0
    0.7920   14.3760   -3.7860 O   0  0  0  0  0  0  0  0  0  0  0  0
   -0.3660   14.9170   -4.3260 C   0  0  0  0  0  0  0  0  0  0  0  0
   -0.2880   16.1760   -4.9440 C   0  0  0  0  0  0  0  0  0  0  0  0
   -1.5950   14.2510   -4.2510 C   0  0  0  0  0  0  0  0  0  0  0  0
   -1.7660   12.9580   -3.5460 C   0  0  0  0  0  0  0  0  0  0  0  0
   -1.4520   16.7450   -5.5010 C   0  0  0  0  0  0  0  0  0  0  0  0
   -2.7240   14.8280   -4.8280 C   0  0  0  0  0  0  0  0  0  0  0  0
    0.9010   16.8890   -5.0200 C   0  0  0  0  0  0  0  0  0  0  0  0
   -2.2760   13.2470   -2.1900 N   0  0  0  0  0  0  0  0  0  0  0  0
   -2.6570   16.0580   -5.4460 C   0  0  0  0  0  0  0  0  0  0  0  0
   -1.3920   18.0020   -6.1090 C   0  0  0  0  0  0  0  0  0  0  0  0
    0.9570   18.1430   -5.6260 C   0  0  0  0  0  0  0  0  0  0  0  0
   -3.0380   14.2650   -1.8940 C   0  0  0  0  0  0  0  0  0  0  0  0
   -0.1920   18.6940   -6.1690 C   0  0  0  0  0  0  0  0  0  0  0  0
   -3.4210   15.1640   -2.8520 N   0  0  0  0  0  0  0  0  0  0  0  0
   -3.5990   14.5900   -0.5880 C   0  0  0  0  0  0  0  0  0  0  0  0
   -2.9420   15.1240    0.5060 C   0  0  0  0  0  0  0  0  0  0  0  0
   -4.9240   14.3850   -0.2670 N   0  0  0  0  0  0  0  0  0  0  0  0
   -3.8880   15.2350    1.4770 N   0  0  0  0  0  0  0  0  0  0  0  0
   -5.0670   14.7730    0.9710 C   0  0  0  0  0  0  0  0  0  0  0  0
   -6.4210   14.6880    1.7200 C   0  0  0  0  0  0  0  0  0  0  0  0
   -7.7380   14.6850    0.9850 C   0  0  0  0  0  0  0  0  0  0  0  0
   -7.2220   13.4190    1.6090 C   0  0  0  0  0  0  0  0  0  0  0  0
  1  2  1  0
  2  3  2  0
  2  4  1  0
  4  5  1  0
  5  6  1  0
  6  7  2  0
  6  8  1  0
  8  9  1  0
  7 10  1  0
  8 11  2  0
  7 12  1  0
  9 13  1  0
 10 14  2  0
 11 14  1  0
 10 15  1  0
 12 16  2  0
 13 17  2  3
 15 18  2  0
 16 18  1  0
 17 19  1  0
 17 20  1  0
 20 21  2  0
 20 22  1  0
 21 23  1  0
 22 24  2  0
 23 24  1  0
 24 25  1  0
 25 26  1  0
 25 27  1  0
 26 27  1  0
M  END
