mac-x0283-mac-x0436
     RDKit          3D

 28 31  0  0  0  0  0  0  0  0999 V2000
   -6.8280   14.8400    2.5990 N   0  0  0  0  0  0  0  0  0  0  0  0
   -6.7540   14.7950    1.2570 C   0  0  0  0  0  0  0  0  0  0  0  0
   -7.8230   14.7300    0.4590 N   0  0  0  0  0  0  0  0  0  0  0  0
   -5.5400   14.8240    0.5150 C   0  0  0  0  0  0  0  0  0  0  0  0
   -7.3290   14.7100   -0.8300 O   0  0  0  0  0  0  0  0  0  0  0  0
   -5.9760   14.7600   -0.7930 C   0  0  0  0  0  0  0  0  0  0  0  0
   -4.1530   14.8920    0.7640 C   0  0  0  0  0  0  0  0  0  0  0  0
   -5.1520   14.7440   -1.8960 C   0  0  0  0  0  0  0  0  0  0  0  0
   -3.2820   14.8700   -0.3380 C   0  0  0  0  0  0  0  0  0  0  0  0
   -3.7820   14.7870   -1.6530 C   0  0  0  0  0  0  0  0  0  0  0  0
   -2.8860   14.7140   -2.8500 C   0  0  0  0  0  0  0  0  0  0  0  0
   -3.0790   13.3240   -3.5140 C   0  0  0  0  0  0  0  0  0  0  0  0
   -1.8800   13.0420   -4.2640 N   0  0  0  0  0  0  0  0  0  0  0  0
   -1.4910   12.0220   -4.9710 C   0  0  0  0  0  0  0  0  0  0  0  0
   -0.1280   12.0720   -5.6660 C   0  0  0  0  0  0  0  0  0  0  0  0
   -2.2600   10.8670   -5.1490 N   0  0  0  0  0  0  0  0  0  0  0  0
    0.7930   13.2340   -5.3850 C   0  0  0  0  0  0  0  0  0  0  0  0
   -1.8370    9.9170   -6.1340 C   0  0  0  0  0  0  0  0  0  0  0  0
    0.2580   11.1630   -6.5050 N   0  0  0  0  0  0  0  0  0  0  0  0
    1.8120   12.9710   -4.2800 C   0  0  0  0  0  0  0  0  0  0  0  0
   -0.5940   10.0890   -6.7880 C   0  0  0  0  0  0  0  0  0  0  0  0
   -2.6290    8.8080   -6.4760 C   0  0  0  0  0  0  0  0  0  0  0  0
    1.2280   12.4050   -3.0100 C   0  0  0  0  0  0  0  0  0  0  0  0
   -0.1710    9.1750   -7.7530 C   0  0  0  0  0  0  0  0  0  0  0  0
   -2.1900    7.8970   -7.4480 C   0  0  0  0  0  0  0  0  0  0  0  0
    0.5570   11.2560   -3.1970 O   0  0  0  0  0  0  0  0  0  0  0  0
    1.3150   12.8810   -1.8940 O   0  0  0  0  0  0  0  0  0  0  0  0
   -0.9640    8.0800   -8.0850 C   0  0  0  0  0  0  0  0  0  0  0  0
  1  2  1  0
  2  3  2  0
  2  4  1  0
  3  5  1  0
  4  6  2  0
  5  6  1  0
  4  7  1  0
  6  8  1  0
  7  9  2  0
  8 10  2  0
  9 10  1  0
 10 11  1  0
 11 12  1  0
 12 13  1  0
 13 14  2  3
 14 15  1  0
 14 16  1  0
 15 17  1  0
 16 18  1  0
 15 19  2  0
 17 20  1  0
 18 21  2  0
 19 21  1  0
 18 22  1  0
 20 23  1  0
 21 24  1  0
 22 25  2  0
 23 26  1  0
 23 27  2  0
 24 28  2  0
 25 28  1  0
M  END
