mac-x0277-mac-x0328
     RDKit          3D

 23 24  0  0  0  0  0  0  0  0999 V2000
   -1.2180   18.4420   -5.2280 Cl  0  0  0  0  0  0  0  0  0  0  0  0
   -0.4950   16.8940   -4.9820 C   0  0  0  0  0  0  0  0  0  0  0  0
   -1.2270   15.7210   -5.1090 C   0  0  0  0  0  0  0  0  0  0  0  0
    0.8570   16.8370   -4.6450 C   0  0  0  0  0  0  0  0  0  0  0  0
   -2.6920   15.6970   -5.4510 C   0  0  0  0  0  0  0  0  0  0  0  0
   -0.5850   14.4840   -4.9040 C   0  0  0  0  0  0  0  0  0  0  0  0
    1.4810   15.6000   -4.4370 C   0  0  0  0  0  0  0  0  0  0  0  0
   -3.3770   14.9020   -4.3710 C   0  0  0  0  0  0  0  0  0  0  0  0
    0.7690   14.4120   -4.5670 C   0  0  0  0  0  0  0  0  0  0  0  0
    1.4400   13.0730   -4.3450 C   0  0  0  0  0  0  0  0  0  0  0  0
   -2.3180   14.2750   -3.6180 O   0  0  0  0  0  0  0  0  0  0  0  0
    1.0620   12.4030   -3.0420 C   0  0  0  0  0  0  0  0  0  0  0  0
   -2.2000   14.6750   -2.3330 C   0  0  0  0  0  0  0  0  0  0  0  0
    0.3390   11.2770   -3.2320 O   0  0  0  0  0  0  0  0  0  0  0  0
    1.3310   12.7590   -1.9110 O   0  0  0  0  0  0  0  0  0  0  0  0
   -1.1680   14.8550   -1.7010 O   0  0  0  0  0  0  0  0  0  0  0  0
   -3.5500   14.8540   -1.7840 C   0  0  0  0  0  0  0  0  0  0  0  0
   -3.7320   14.8140   -0.4020 C   0  0  0  0  0  0  0  0  0  0  0  0
   -4.6470   15.0530   -2.6280 C   0  0  0  0  0  0  0  0  0  0  0  0
   -5.0120   14.9650    0.1240 C   0  0  0  0  0  0  0  0  0  0  0  0
   -5.9170   15.2050   -2.1070 C   0  0  0  0  0  0  0  0  0  0  0  0
   -6.0920   15.1560   -0.7390 C   0  0  0  0  0  0  0  0  0  0  0  0
   -7.3340   15.2900   -0.2050 O   0  0  0  0  0  0  0  0  0  0  0  0
  1  2  1  0
  2  3  2  0
  2  4  1  0
  3  5  1  0
  3  6  1  0
  4  7  2  0
  5  8  1  0
  6  9  2  0
  7  9  1  0
  9 10  1  0
  8 11  1  0
 10 12  1  0
 11 13  1  0
 12 14  1  0
 12 15  2  0
 13 16  2  0
 13 17  1  0
 17 18  2  0
 17 19  1  0
 18 20  1  0
 19 21  2  0
 20 22  2  0
 21 22  1  0
 22 23  1  0
M  END
