mac-x1493-mac-x0472
     RDKit          3D

 26 29  0  0  0  0  0  0  0  0999 V2000
   -2.1060   15.4860   -2.6930 O   0  0  0  0  0  0  0  0  0  0  0  0
   -2.6030   14.4370   -1.8950 C   0  0  2  0  0  0  0  0  0  0  0  0
   -2.2890   13.2540   -2.5870 O   0  0  0  0  0  0  0  0  0  0  0  0
   -4.0680   14.6420   -1.5860 C   0  0  0  0  0  0  0  0  0  0  0  0
   -2.1690   14.4700   -0.4640 C   0  0  0  0  0  0  0  0  0  0  0  0
   -3.1530   13.1040   -3.9170 S   0  0  0  0  0  0  0  0  0  0  0  0
   -4.4430   14.3430   -0.2830 C   0  0  0  0  0  0  0  0  0  0  0  0
   -5.0980   15.0960   -2.4030 C   0  0  0  0  0  0  0  0  0  0  0  0
   -1.1250   14.0290    0.1980 N   0  0  0  0  0  0  0  0  0  0  0  0
   -3.3710   15.2490    0.5130 S   0  0  0  0  0  0  0  0  0  0  0  0
   -3.9030   14.3920   -4.0530 O   0  0  0  0  0  0  0  0  0  0  0  0
   -5.7220   14.4890    0.1800 C   0  0  0  0  0  0  0  0  0  0  0  0
   -6.3910   15.2470   -1.9870 N   0  0  0  0  0  0  0  0  0  0  0  0
   -4.2260   11.9600   -3.0310 C   0  0  0  0  0  0  0  0  0  0  0  0
   -2.4100   14.8850    1.8140 C   0  0  0  0  0  0  0  0  0  0  0  0
   -1.2750   14.2740    1.5460 N   0  0  0  0  0  0  0  0  0  0  0  0
   -6.6930   14.9470   -0.7040 C   0  0  0  0  0  0  0  0  0  0  0  0
   -6.0140   14.1830    1.5090 C   0  0  0  0  0  0  0  0  0  0  0  0
   -3.9020   10.6120   -3.1060 C   0  0  0  0  0  0  0  0  0  0  0  0
   -5.3470   12.3660   -2.2900 C   0  0  0  0  0  0  0  0  0  0  0  0
   -7.9820   15.0830   -0.2100 C   0  0  0  0  0  0  0  0  0  0  0  0
   -7.2990   14.3270    1.9910 C   0  0  0  0  0  0  0  0  0  0  0  0
   -4.6810    9.6710   -2.4560 C   0  0  0  0  0  0  0  0  0  0  0  0
   -6.1280   11.4190   -1.6350 C   0  0  0  0  0  0  0  0  0  0  0  0
   -8.2930   14.7780    1.1260 C   0  0  0  0  0  0  0  0  0  0  0  0
   -5.7960   10.0700   -1.7200 C   0  0  0  0  0  0  0  0  0  0  0  0
  2  1  1  6
  2  3  1  0
  2  4  1  0
  2  5  1  0
  6  3  1  1
  4  7  2  0
  4  8  1  0
  5  9  2  0
  5 10  1  0
  6 11  2  0
  7 12  1  0
  8 13  2  0
  6 14  1  0
 10 15  1  0
  9 16  1  0
 15 16  2  0
 12 17  2  0
 13 17  1  0
 12 18  1  0
 14 19  2  0
 14 20  1  0
 17 21  1  0
 18 22  2  0
 19 23  1  0
 20 24  2  0
 21 25  2  0
 22 25  1  0
 23 26  2  0
 24 26  1  0
M  END
