mac-x0303-mac-x0148
     RDKit          3D

 27 31  0  0  0  0  0  0  0  0999 V2000
   -8.4800   12.9050    2.6630 N   0  0  0  0  0  0  0  0  0  0  0  0
   -8.5000   14.4310    1.9530 S   0  0  0  0  0  0  0  0  0  0  0  0
   -8.2910   15.4020    3.0010 O   0  0  0  0  0  0  0  0  0  0  0  0
   -9.6160   14.5170    1.0460 O   0  0  0  0  0  0  0  0  0  0  0  0
   -7.0390   14.4940    0.9540 C   0  0  0  0  0  0  0  0  0  0  0  0
   -6.9560   15.1610   -0.2450 N   0  0  0  0  0  0  0  0  0  0  0  0
   -5.8830   13.9190    1.2620 N   0  0  0  0  0  0  0  0  0  0  0  0
   -5.6750   14.9960   -0.6840 C   0  0  0  0  0  0  0  0  0  0  0  0
   -5.0360   14.2290    0.2400 C   0  0  0  0  0  0  0  0  0  0  0  0
   -5.1340   15.5190   -1.8420 C   0  0  0  0  0  0  0  0  0  0  0  0
   -3.5980   13.8320    0.0750 C   0  0  0  0  0  0  0  0  0  0  0  0
   -3.7760   15.5090   -1.8930 C   0  0  0  0  0  0  0  0  0  0  0  0
   -2.8380   14.9150   -0.7780 C   0  0  1  0  0  0  0  0  0  0  0  0
   -2.3980   15.9070    0.2840 C   0  0  0  0  0  0  0  0  0  0  0  0
   -1.3730   14.6330   -1.3610 C   0  0  2  0  0  0  0  0  0  0  0  0
   -1.2020   13.7970   -2.5460 N   0  0  0  0  0  0  0  0  0  0  0  0
   -0.3980   14.1330   -0.3830 N   0  0  0  0  0  0  0  0  0  0  0  0
   -1.6500   15.1990    1.3200 N   0  0  0  0  0  0  0  0  0  0  0  0
   -1.4930   14.3540   -3.8730 C   0  0  2  0  0  0  0  0  0  0  0  0
   -0.0300   12.8990   -2.5390 C   0  0  0  0  0  0  0  0  0  0  0  0
   -0.3260   14.8560    0.8660 C   0  0  0  0  0  0  0  0  0  0  0  0
   -2.7680   15.1270   -4.1640 C   0  0  0  0  0  0  0  0  0  0  0  0
   -1.7330   13.1560   -4.7700 C   0  0  1  0  0  0  0  0  0  0  0  0
    0.0400   11.8780   -3.6900 C   0  0  0  0  0  0  0  0  0  0  0  0
   -2.5720   13.6630   -5.9220 C   0  0  0  0  0  0  0  0  0  0  0  0
   -2.9300   15.0160   -5.5900 O   0  0  0  0  0  0  0  0  0  0  0  0
   -0.4360   12.4400   -5.0340 C   0  0  0  0  0  0  0  0  0  0  0  0
  2  1  1  0
  2  3  2  0
  2  4  2  0
  2  5  1  0
  5  6  1  0
  5  7  2  0
  6  8  1  0
  7  9  1  0
  8  9  2  0
  8 10  1  0
  9 11  1  0
 10 12  2  0
 13 11  1  1
 13 12  1  0
 13 14  1  0
 13 15  1  0
 15 16  1  6
 15 17  1  0
 14 18  1  0
 16 19  1  0
 16 20  1  0
 17 21  1  0
 18 21  1  0
 19 22  1  1
 19 23  1  0
 20 24  1  0
 23 25  1  6
 22 26  1  0
 25 26  1  0
 23 27  1  0
 24 27  1  0
M  END
