mac-x0284-diamond-x0864_0_A
     RDKit          3D

 22 23  0  0  0  0  0  0  0  0999 V2000
   -3.9060   15.6350    0.9470 C   0  0  0  0  0  0  0  0  0  0  0  0
   -3.5070   15.3320   -0.4630 C   0  0  0  0  0  0  0  0  0  0  0  0
   -4.3950   15.6010   -1.5130 C   0  0  0  0  0  0  0  0  0  0  0  0
   -2.2480   14.7760   -0.7580 C   0  0  0  0  0  0  0  0  0  0  0  0
   -1.9090   14.5110   -2.0900 C   0  0  0  0  0  0  0  0  0  0  0  0
   -4.0370   15.3290   -2.8300 C   0  0  0  0  0  0  0  0  0  0  0  0
   -0.6630   13.9150   -2.5160 C   0  0  0  0  0  0  0  0  0  0  0  0
   -2.8050   14.7950   -3.1100 C   0  0  0  0  0  0  0  0  0  0  0  0
   -2.5230   14.5600   -4.4320 O   0  0  0  0  0  0  0  0  0  0  0  0
   -0.3370   12.7060   -2.4340 N   0  0  0  0  0  0  0  0  0  0  0  0
    0.1770   14.7750   -3.1220 O   0  0  0  0  0  0  0  0  0  0  0  0
    0.8410   12.1240   -3.0050 C   0  0  1  0  0  0  0  0  0  0  0  0
    0.8540   12.5470   -4.5060 C   0  0  0  0  0  0  0  0  0  0  0  0
    2.0670   12.4150   -2.4040 O   0  0  0  0  0  0  0  0  0  0  0  0
   -0.0330   11.7560   -5.3770 N   0  0  0  0  0  0  0  0  0  0  0  0
   -1.2020   11.2000   -4.8820 C   0  0  0  0  0  0  0  0  0  0  0  0
    0.5460   11.3030   -6.5500 C   0  0  0  0  0  0  0  0  0  0  0  0
    1.5730   11.7510   -7.0240 O   0  0  0  0  0  0  0  0  0  0  0  0
   -1.8110   10.1850   -5.5150 C   0  0  0  0  0  0  0  0  0  0  0  0
   -0.1270   10.1790   -7.2410 C   0  0  0  0  0  0  0  0  0  0  0  0
   -1.2450    9.6580   -6.7340 C   0  0  0  0  0  0  0  0  0  0  0  0
   -2.1230    8.2360   -7.5650 Br  0  0  0  0  0  0  0  0  0  0  0  0
  1  2  1  0
  2  3  2  0
  2  4  1  0
  4  5  2  0
  3  6  1  0
  5  7  1  0
  5  8  1  0
  6  8  2  0
  8  9  1  0
  7 10  2  3
  7 11  1  0
 10 12  1  0
 12 13  1  0
 12 14  1  1
 13 15  1  0
 15 16  1  0
 15 17  1  0
 17 18  2  0
 16 19  2  0
 17 20  1  0
 19 21  1  0
 20 21  2  0
 21 22  1  0
M  END
