mac-x0204-diamond-x0926_0_A
     RDKit          3D

 19 20  0  0  0  0  0  0  0  0999 V2000
    0.5300   13.1260   -2.1430 O   0  0  0  0  0  0  0  0  0  0  0  0
   -0.0570   14.3310   -2.6010 C   0  0  0  0  0  0  0  0  0  0  0  0
    1.0490   15.1460   -2.9600 O   0  0  0  0  0  0  0  0  0  0  0  0
   -0.8320   15.0530   -1.4980 C   0  0  0  0  0  0  0  0  0  0  0  0
   -1.0080   14.1650   -3.7620 C   0  0  0  0  0  0  0  0  0  0  0  0
   -2.2320   15.4960   -1.9470 C   0  0  0  0  0  0  0  0  0  0  0  0
   -1.5160   15.2900   -4.4300 C   0  0  0  0  0  0  0  0  0  0  0  0
   -1.4410   12.9170   -4.2120 C   0  0  0  0  0  0  0  0  0  0  0  0
   -2.4070   15.1350   -5.4760 C   0  0  0  0  0  0  0  0  0  0  0  0
   -2.3120   12.7360   -5.2380 N   0  0  0  0  0  0  0  0  0  0  0  0
   -3.2520   15.6780   -0.9220 N   0  0  0  0  0  0  0  0  0  0  0  0
   -2.8850   16.2500   -6.0960 O   0  0  0  0  0  0  0  0  0  0  0  0
   -2.7770   13.8510   -5.8460 C   0  0  0  0  0  0  0  0  0  0  0  0
   -2.8570   15.6510    0.3900 C   0  0  0  0  0  0  0  0  0  0  0  0
   -4.5630   15.2510   -1.2650 N   0  0  0  0  0  0  0  0  0  0  0  0
   -3.6410   15.2680    1.3870 C   0  0  0  0  0  0  0  0  0  0  0  0
   -5.5180   15.0580   -0.2980 C   0  0  0  0  0  0  0  0  0  0  0  0
   -6.7180   15.0590   -0.5860 O   0  0  0  0  0  0  0  0  0  0  0  0
   -5.0410   14.8340    1.1310 C   0  0  0  0  0  0  0  0  0  0  0  0
  2  1  1  0
  2  3  1  0
  2  4  1  0
  2  5  1  0
  4  6  1  0
  5  7  2  0
  5  8  1  0
  7  9  1  0
  8 10  2  0
  6 11  1  0
  9 12  1  0
  9 13  2  0
 10 13  1  0
 11 14  1  0
 11 15  1  0
 14 16  2  0
 15 17  1  0
 17 18  2  0
 16 19  1  0
 17 19  1  0
M  END
