mac-x0178-diamond-x0371_0_A
     RDKit          3D

 33 36  0  0  0  0  0  0  0  0999 V2000
   -0.7800   18.3780   -5.8660 N   0  0  0  0  0  0  0  0  0  0  0  0
   -1.7900   17.0570   -5.7070 S   0  0  2  0  0  0  0  0  0  0  0  0
   -2.5060   16.9100   -6.9330 O   0  0  0  0  0  0  0  0  0  0  0  0
   -2.5160   17.2100   -4.4660 N   0  0  0  0  0  0  0  0  0  0  0  0
   -0.9780   15.7000   -4.9610 C   0  0  0  0  0  0  0  0  0  0  0  0
   -3.2030   15.9320   -4.0630 C   0  0  0  0  0  0  0  0  0  0  0  0
    0.1140   15.9750   -4.1300 C   0  0  0  0  0  0  0  0  0  0  0  0
   -1.4450   14.4030   -5.1600 C   0  0  0  0  0  0  0  0  0  0  0  0
   -2.5100   15.0800   -3.0060 C   0  0  0  0  0  0  0  0  0  0  0  0
    0.7330   14.9240   -3.4640 C   0  0  0  0  0  0  0  0  0  0  0  0
   -0.8240   13.3520   -4.4940 C   0  0  0  0  0  0  0  0  0  0  0  0
    0.2550   13.6210   -3.6400 C   0  0  0  0  0  0  0  0  0  0  0  0
   -3.3440   14.9750   -1.7500 C   0  0  0  0  0  0  0  0  0  0  0  0
    0.9200   12.5350   -2.8880 C   0  0  0  0  0  0  0  0  0  0  0  0
   -2.7360   14.9220   -0.4910 C   0  0  0  0  0  0  0  0  0  0  0  0
   -4.7490   14.9210   -1.8570 C   0  0  0  0  0  0  0  0  0  0  0  0
    1.8530   12.7370   -2.1370 O   0  0  0  0  0  0  0  0  0  0  0  0
    0.3750   11.3220   -3.1010 O   0  0  0  0  0  0  0  0  0  0  0  0
   -5.5150   14.7930   -0.6970 C   0  0  0  0  0  0  0  0  0  0  0  0
   -3.4850   14.8030    0.6790 C   0  0  0  0  0  0  0  0  0  0  0  0
   -6.8750   14.7030   -0.5370 N   0  0  0  0  0  0  0  0  0  0  0  0
   -4.8640   14.7350    0.5260 C   0  0  0  0  0  0  0  0  0  0  0  0
   -5.8680   14.5980    1.4320 N   0  0  0  0  0  0  0  0  0  0  0  0
   -7.0690   14.5770    0.7610 C   0  0  0  0  0  0  0  0  0  0  0  0
   -8.3870   14.4290    1.4330 C   0  0  0  0  0  0  0  0  0  0  0  0
   -8.2650   14.5710    2.8620 N   0  0  0  0  0  0  0  0  0  0  0  0
   -8.8440   15.5310    3.6480 C   0  0  0  0  0  0  0  0  0  0  0  0
   -9.5130   16.3880    3.0660 O   0  0  0  0  0  0  0  0  0  0  0  0
   -8.6750   15.5130    5.0770 C   0  0  0  0  0  0  0  0  0  0  0  0
   -8.0740   14.4460    5.6760 O   0  0  0  0  0  0  0  0  0  0  0  0
   -9.0310   16.4340    6.0450 C   0  0  0  0  0  0  0  0  0  0  0  0
   -8.6210   15.8930    7.2910 C   0  0  0  0  0  0  0  0  0  0  0  0
   -8.0420   14.6820    7.0090 C   0  0  0  0  0  0  0  0  0  0  0  0
  2  1  1  6
  2  3  2  0
  2  4  2  0
  2  5  1  0
  4  6  1  0
  5  7  2  0
  5  8  1  0
  6  9  1  0
  7 10  1  0
  8 11  2  0
 10 12  2  0
 11 12  1  0
  9 13  1  0
 12 14  1  0
 13 15  2  0
 13 16  1  0
 14 17  2  0
 14 18  1  0
 16 19  2  0
 15 20  1  0
 19 21  1  0
 19 22  1  0
 20 22  2  0
 22 23  1  0
 21 24  2  0
 23 24  1  0
 24 25  1  0
 25 26  1  0
 26 27  1  0
 27 28  2  0
 27 29  1  0
 29 30  1  0
 29 31  2  0
 31 32  1  0
 30 33  1  0
 32 33  2  0
M  END
