mac-x0277-diamond-x0471_0_A
     RDKit          3D

 30 32  0  0  0  0  0  0  0  0999 V2000
   -1.2740   18.3940   -5.2070 Cl  0  0  0  0  0  0  0  0  0  0  0  0
   -0.5490   16.8510   -4.9470 C   0  0  0  0  0  0  0  0  0  0  0  0
   -1.2910   15.6700   -4.9980 C   0  0  0  0  0  0  0  0  0  0  0  0
    0.8170   16.8030   -4.6770 C   0  0  0  0  0  0  0  0  0  0  0  0
   -2.7650   15.6190   -5.2640 C   0  0  0  0  0  0  0  0  0  0  0  0
   -0.6410   14.4480   -4.7820 C   0  0  0  0  0  0  0  0  0  0  0  0
    1.4500   15.5740   -4.4580 C   0  0  0  0  0  0  0  0  0  0  0  0
   -3.4800   15.0880   -4.0270 C   0  0  0  0  0  0  0  0  0  0  0  0
    0.7250   14.3850   -4.5110 C   0  0  0  0  0  0  0  0  0  0  0  0
    1.3890   13.0500   -4.2760 C   0  0  0  0  0  0  0  0  0  0  0  0
   -2.8540   15.5390   -2.6950 C   0  0  0  0  0  0  0  0  0  0  0  0
    0.9560   12.4090   -2.9780 C   0  0  0  0  0  0  0  0  0  0  0  0
   -3.7350   15.3400   -1.4920 C   0  0  0  0  0  0  0  0  0  0  0  0
    0.2550   11.2720   -3.1790 O   0  0  0  0  0  0  0  0  0  0  0  0
    1.1620   12.7950   -1.8420 O   0  0  0  0  0  0  0  0  0  0  0  0
   -5.1030   15.1160   -1.6880 C   0  0  0  0  0  0  0  0  0  0  0  0
   -3.1930   15.3690   -0.1950 C   0  0  0  0  0  0  0  0  0  0  0  0
   -5.8830   14.9140   -0.5570 C   0  0  0  0  0  0  0  0  0  0  0  0
   -4.0040   15.1650    0.9320 C   0  0  0  0  0  0  0  0  0  0  0  0
   -7.2220   14.6680   -0.4060 N   0  0  0  0  0  0  0  0  0  0  0  0
   -5.3750   14.9300    0.7310 C   0  0  0  0  0  0  0  0  0  0  0  0
   -7.4800   14.5400    0.9390 C   0  0  0  0  0  0  0  0  0  0  0  0
   -6.3790   14.6970    1.6410 N   0  0  0  0  0  0  0  0  0  0  0  0
   -8.8500   14.2630    1.4540 C   0  0  0  0  0  0  0  0  0  0  0  0
   -8.7990   14.1090    2.8990 N   0  0  0  0  0  0  0  0  0  0  0  0
   -9.1770   15.1560    3.7140 C   0  0  0  0  0  0  0  0  0  0  0  0
   -9.4440   16.2590    3.2540 O   0  0  0  0  0  0  0  0  0  0  0  0
   -9.2720   14.8380    5.2110 C   0  0  0  0  0  0  0  0  0  0  0  0
   -9.6140   13.3740    5.4690 C   0  0  0  0  0  0  0  0  0  0  0  0
   -8.0090   15.2590    5.9520 C   0  0  0  0  0  0  0  0  0  0  0  0
  1  2  1  0
  2  3  2  0
  2  4  1  0
  3  5  1  0
  3  6  1  0
  4  7  2  0
  5  8  1  0
  6  9  2  0
  7  9  1  0
  9 10  1  0
  8 11  1  0
 10 12  1  0
 11 13  1  0
 12 14  1  0
 12 15  2  0
 13 16  2  0
 13 17  1  0
 16 18  1  0
 17 19  2  0
 18 20  1  0
 18 21  2  0
 19 21  1  0
 20 22  1  0
 21 23  1  0
 22 23  2  0
 22 24  1  0
 24 25  1  0
 25 26  1  0
 26 27  2  0
 26 28  1  0
 28 29  1  0
 28 30  1  0
M  END
