mac-x0509-diamond-x1012_0_A
     RDKit          3D

 24 26  0  0  0  0  0  0  0  0999 V2000
   -2.9820    8.0370   -6.3110 O   0  0  0  0  0  0  0  0  0  0  0  0
   -2.0960    8.7760   -6.7000 C   0  0  0  0  0  0  0  0  0  0  0  0
   -2.1670    9.9510   -7.6720 C   0  0  0  0  0  0  0  0  0  0  0  0
   -0.7760    8.7580   -6.3550 N   0  0  0  0  0  0  0  0  0  0  0  0
   -0.4840    9.3020   -5.0120 C   0  0  0  0  0  0  0  0  0  0  0  0
   -0.9010    9.6720   -8.4220 C   0  0  0  0  0  0  0  0  0  0  0  0
   -0.0840    8.9170   -7.5860 C   0  0  0  0  0  0  0  0  0  0  0  0
   -0.2750   10.8380   -4.7680 C   0  0  0  0  0  0  0  0  0  0  0  0
   -0.5140   10.0340   -9.7040 C   0  0  0  0  0  0  0  0  0  0  0  0
    1.1370    8.4730   -8.0250 C   0  0  0  0  0  0  0  0  0  0  0  0
    0.3450   11.0470   -3.4370 O   0  0  0  0  0  0  0  0  0  0  0  0
    0.7370    9.6010  -10.1500 C   0  0  0  0  0  0  0  0  0  0  0  0
    1.5530    8.8190   -9.3190 C   0  0  0  0  0  0  0  0  0  0  0  0
    0.2550   12.2270   -2.6880 C   0  0  0  0  0  0  0  0  0  0  0  0
    0.4230   12.2580   -1.4630 O   0  0  0  0  0  0  0  0  0  0  0  0
   -0.0670   13.5430   -3.4170 C   0  0  0  0  0  0  0  0  0  0  0  0
   -1.1990   13.4200   -4.4200 C   0  0  0  0  0  0  0  0  0  0  0  0
    1.1050   14.2740   -4.0770 C   0  0  0  0  0  0  0  0  0  0  0  0
   -1.7720   14.7950   -4.7500 C   0  0  0  0  0  0  0  0  0  0  0  0
    0.6790   15.5500   -4.8250 C   0  0  0  0  0  0  0  0  0  0  0  0
   -0.7640   15.8630   -4.8030 N   0  0  0  0  0  0  0  0  0  0  0  0
   -1.2540   17.1600   -4.7540 C   0  0  0  0  0  0  0  0  0  0  0  0
   -0.3460   18.1550   -4.6490 N   0  0  0  0  0  0  0  0  0  0  0  0
   -2.4360   17.4640   -4.7810 O   0  0  0  0  0  0  0  0  0  0  0  0
  1  2  2  0
  2  3  1  0
  2  4  1  0
  4  5  1  0
  3  6  1  0
  4  7  1  0
  6  7  2  0
  5  8  1  0
  6  9  1  0
  7 10  1  0
  8 11  1  0
  9 12  2  0
 10 13  2  0
 12 13  1  0
 11 14  1  0
 14 15  2  0
 14 16  1  0
 16 17  1  0
 16 18  1  0
 17 19  1  0
 18 20  1  0
 19 21  1  0
 20 21  1  0
 21 22  1  0
 22 23  1  0
 22 24  2  0
M  END
