mac-x0415-diamond-x0724_0_A
     RDKit          3D

 30 33  0  0  0  0  0  0  0  0999 V2000
    0.0320   11.0600   -3.0810 O   0  0  0  0  0  0  0  0  0  0  0  0
    0.7760   12.1820   -3.1220 C   0  0  0  0  0  0  0  0  0  0  0  0
    1.2340   12.6460   -2.0920 O   0  0  0  0  0  0  0  0  0  0  0  0
    0.9260   12.7320   -4.5290 C   0  0  0  0  0  0  0  0  0  0  0  0
    0.7130   14.1900   -4.5050 C   0  0  0  0  0  0  0  0  0  0  0  0
    1.7690   15.1890   -4.4370 C   0  0  0  0  0  0  0  0  0  0  0  0
   -0.3510   14.9870   -4.5460 C   0  0  0  0  0  0  0  0  0  0  0  0
    1.4440   16.4430   -4.4330 N   0  0  0  0  0  0  0  0  0  0  0  0
    0.0140   16.4160   -4.4210 C   0  0  1  0  0  0  0  0  0  0  0  0
   -1.7430   14.6940   -4.6500 C   0  0  0  0  0  0  0  0  0  0  0  0
   -0.7780   17.3260   -5.2910 C   0  0  0  0  0  0  0  0  0  0  0  0
   -2.5660   15.6410   -5.1630 C   0  0  0  0  0  0  0  0  0  0  0  0
   -3.9250   15.5290   -5.3130 O   0  0  0  0  0  0  0  0  0  0  0  0
   -2.0250   16.9340   -5.6270 C   0  0  0  0  0  0  0  0  0  0  0  0
   -4.6570   14.5870   -4.4950 C   0  0  0  0  0  0  0  0  0  0  0  0
   -3.7830   13.7790   -3.5240 C   0  0  0  0  0  0  0  0  0  0  0  0
   -3.8160   14.2100   -2.0690 C   0  0  0  0  0  0  0  0  0  0  0  0
   -2.6350   14.5580   -1.4040 C   0  0  0  0  0  0  0  0  0  0  0  0
   -5.0310   14.2530   -1.3640 C   0  0  0  0  0  0  0  0  0  0  0  0
   -2.6600   14.9370   -0.0580 C   0  0  0  0  0  0  0  0  0  0  0  0
   -5.0570   14.6340   -0.0120 C   0  0  0  0  0  0  0  0  0  0  0  0
   -6.2750   14.6800    0.7170 N   0  0  0  0  0  0  0  0  0  0  0  0
   -3.8650   14.9760    0.6360 C   0  0  0  0  0  0  0  0  0  0  0  0
   -7.4810   14.5790    0.1020 N   0  0  0  0  0  0  0  0  0  0  0  0
   -6.4230   14.8330    2.0790 C   0  0  0  0  0  0  0  0  0  0  0  0
   -7.7760   14.8440    2.3570 C   0  0  0  0  0  0  0  0  0  0  0  0
   -8.3720   14.6790    1.0900 C   0  0  0  0  0  0  0  0  0  0  0  0
   -8.4470   14.9990    3.6730 C   0  0  0  0  0  0  0  0  0  0  0  0
   -8.2600   13.7750    4.4370 N   0  0  0  0  0  0  0  0  0  0  0  0
   -8.7140   13.9560    5.8080 C   0  0  0  0  0  0  0  0  0  0  0  0
  1  2  1  0
  2  3  2  0
  2  4  1  0
  4  5  1  0
  5  6  1  0
  5  7  2  0
  6  8  2  0
  7  9  1  0
  8  9  1  0
  7 10  1  0
  9 11  1  6
 10 12  2  0
 12 13  1  0
 11 14  2  0
 12 14  1  0
 13 15  1  0
 15 16  1  0
 16 17  1  0
 17 18  2  0
 17 19  1  0
 18 20  1  0
 19 21  2  0
 21 22  1  0
 20 23  2  0
 21 23  1  0
 22 24  1  0
 22 25  1  0
 25 26  2  0
 24 27  2  0
 26 27  1  0
 26 28  1  0
 28 29  1  0
 29 30  1  0
M  END
