mac-x0161-diamond-x0910_0_A
     RDKit          3D

 19 21  0  0  0  0  0  0  0  0999 V2000
   -4.3900   14.7300    0.9950 N   0  0  0  0  0  0  0  0  0  0  0  0
   -3.5610   15.6470    0.2380 C   0  0  1  0  0  0  0  0  0  0  0  0
   -2.0260   15.5500    0.4800 C   0  0  2  0  0  0  0  0  0  0  0  0
   -4.0290   15.4250   -1.1020 N   0  0  0  0  0  0  0  0  0  0  0  0
   -3.0800   15.6460   -2.1700 C   0  0  0  0  0  0  0  0  0  0  0  0
   -1.1630   15.3520   -0.8010 C   0  0  2  0  0  0  0  0  0  0  0  0
   -1.6150   14.5000    1.4320 N   0  0  0  0  0  0  0  0  0  0  0  0
   -1.8880   14.8720   -1.9800 N   0  0  0  0  0  0  0  0  0  0  0  0
   -0.3050   14.2470   -0.4030 N   0  0  0  0  0  0  0  0  0  0  0  0
   -0.2320   14.3340    1.0520 C   0  0  0  0  0  0  0  0  0  0  0  0
   -1.0340   14.8700   -3.1810 C   0  0  0  0  0  0  0  0  0  0  0  0
   -1.0930   13.0930   -0.8040 N   0  0  0  0  0  0  0  0  0  0  0  0
   -0.7530   13.4720   -3.6020 C   0  0  0  0  0  0  0  0  0  0  0  0
   -1.1770   12.6820   -4.6450 C   0  0  0  0  0  0  0  0  0  0  0  0
    0.1040   12.7600   -2.8190 O   0  0  0  0  0  0  0  0  0  0  0  0
    0.2520   11.4850   -3.3360 N   0  0  0  0  0  0  0  0  0  0  0  0
   -0.5220   11.4620   -4.4230 C   0  0  0  0  0  0  0  0  0  0  0  0
   -0.6320   10.3590   -5.1940 O   0  0  0  0  0  0  0  0  0  0  0  0
   -1.7860   10.3370   -6.0230 C   0  0  0  0  0  0  0  0  0  0  0  0
  2  1  1  1
  2  3  1  0
  2  4  1  0
  4  5  1  0
  3  6  1  0
  3  7  1  1
  5  8  1  0
  6  8  1  6
  6  9  1  0
  7 10  1  0
  9 10  1  0
  8 11  1  0
  9 12  1  0
 11 13  1  0
 13 14  2  0
 13 15  1  0
 15 16  1  0
 14 17  1  0
 16 17  2  0
 17 18  1  0
 18 19  1  0
M  END
