mac-x0319-mac-x0301
     RDKit          3D

 23 25  0  0  0  0  0  0  0  0999 V2000
    0.7150   10.9770   -2.9690 O   0  0  0  0  0  0  0  0  0  0  0  0
    0.9830   12.2210   -2.5200 C   0  0  0  0  0  0  0  0  0  0  0  0
    0.7260   12.5060   -1.3630 O   0  0  0  0  0  0  0  0  0  0  0  0
    1.6020   13.1360   -3.5600 C   0  0  0  0  0  0  0  0  0  0  0  0
    0.7640   14.3670   -3.9750 C   0  0  0  0  0  0  0  0  0  0  0  0
    1.4340   15.3780   -4.6450 C   0  0  0  0  0  0  0  0  0  0  0  0
   -0.6080   14.5940   -3.7510 C   0  0  0  0  0  0  0  0  0  0  0  0
   -1.4590   13.6700   -3.0190 C   0  0  0  0  0  0  0  0  0  0  0  0
    0.7740   16.5250   -5.0890 C   0  0  0  0  0  0  0  0  0  0  0  0
   -1.2430   15.7450   -4.2120 C   0  0  0  0  0  0  0  0  0  0  0  0
    1.4560   17.4820   -5.7420 O   0  0  0  0  0  0  0  0  0  0  0  0
   -0.7130   12.5570   -2.6310 O   0  0  0  0  0  0  0  0  0  0  0  0
   -2.4170   13.2460   -3.9710 O   0  0  0  0  0  0  0  0  0  0  0  0
   -0.5600   16.7130   -4.8830 C   0  0  0  0  0  0  0  0  0  0  0  0
   -2.1130   14.3100   -1.8030 C   0  0  0  0  0  0  0  0  0  0  0  0
   -1.5130   14.3230   -0.5380 C   0  0  0  0  0  0  0  0  0  0  0  0
   -3.3760   14.9340   -1.8960 C   0  0  0  0  0  0  0  0  0  0  0  0
   -2.1240   14.9000    0.5630 C   0  0  0  0  0  0  0  0  0  0  0  0
   -3.9910   15.5210   -0.7780 C   0  0  0  0  0  0  0  0  0  0  0  0
   -0.2990   13.7980   -0.1950 O   0  0  0  0  0  0  0  0  0  0  0  0
   -3.3640   15.5040    0.4730 C   0  0  0  0  0  0  0  0  0  0  0  0
   -1.3680   14.7980    1.6990 O   0  0  0  0  0  0  0  0  0  0  0  0
   -0.1300   14.3550    1.1260 C   0  0  0  0  0  0  0  0  0  0  0  0
  1  2  1  0
  2  3  2  0
  2  4  1  0
  4  5  1  0
  5  6  2  0
  5  7  1  0
  7  8  1  0
  6  9  1  0
  7 10  2  0
  9 11  1  0
  8 12  1  0
  8 13  1  0
  9 14  2  0
 10 14  1  0
  8 15  1  0
 15 16  1  0
 15 17  2  0
 16 18  2  0
 17 19  1  0
 16 20  1  0
 18 21  1  0
 19 21  2  0
 18 22  1  0
 20 23  1  0
 22 23  1  0
M  END
