mac-x0326-mac-x0509
     RDKit          3D

 28 31  0  0  0  0  0  0  0  0999 V2000
   -6.2690   15.5010   -1.4260 Cl  0  0  0  0  0  0  0  0  0  0  0  0
   -4.5740   15.2270   -1.3750 C   0  0  0  0  0  0  0  0  0  0  0  0
   -3.8580   15.1310   -2.5650 C   0  0  0  0  0  0  0  0  0  0  0  0
   -3.9440   15.1010   -0.1400 C   0  0  0  0  0  0  0  0  0  0  0  0
   -2.4740   14.9010   -2.5170 C   0  0  0  0  0  0  0  0  0  0  0  0
   -2.5660   14.8690   -0.0670 C   0  0  0  0  0  0  0  0  0  0  0  0
   -1.6400   14.7850   -3.6110 N   0  0  0  0  0  0  0  0  0  0  0  0
   -1.8480   14.7730   -1.2710 C   0  0  0  0  0  0  0  0  0  0  0  0
   -0.4050   14.5710   -3.2210 C   0  0  0  0  0  0  0  0  0  0  0  0
   -0.1640   14.5030   -1.5190 S   0  0  0  0  0  0  0  0  0  0  0  0
    0.7500   14.3820   -4.1630 C   0  0  0  0  0  0  0  0  0  0  0  0
    0.9550   12.8950   -4.4290 C   0  0  0  0  0  0  0  0  0  0  0  0
    1.0920   12.1740   -3.1050 C   0  0  0  0  0  0  0  0  0  0  0  0
    0.1440   11.1950   -2.9170 O   0  0  0  0  0  0  0  0  0  0  0  0
    1.9570   12.4650   -2.2990 O   0  0  0  0  0  0  0  0  0  0  0  0
   -0.3370   10.4620   -4.0600 C   0  0  0  0  0  0  0  0  0  0  0  0
   -1.8270   10.1660   -3.9330 C   0  0  0  0  0  0  0  0  0  0  0  0
   -2.2640    8.9360   -4.7420 C   0  0  0  0  0  0  0  0  0  0  0  0
   -2.5280    9.3500   -6.0620 N   0  0  0  0  0  0  0  0  0  0  0  0
   -1.8060    8.8850   -6.9900 C   0  0  0  0  0  0  0  0  0  0  0  0
   -2.0950    9.4500   -8.3660 C   0  0  0  0  0  0  0  0  0  0  0  0
   -0.7510    7.9780   -7.0830 N   0  0  0  0  0  0  0  0  0  0  0  0
   -0.7440    9.3050   -8.9640 C   0  0  0  0  0  0  0  0  0  0  0  0
    0.0050    8.4070   -8.1830 C   0  0  0  0  0  0  0  0  0  0  0  0
   -0.2340    9.9020  -10.0870 C   0  0  0  0  0  0  0  0  0  0  0  0
    1.2830    8.0780   -8.5480 C   0  0  0  0  0  0  0  0  0  0  0  0
    1.0670    9.5810  -10.4540 C   0  0  0  0  0  0  0  0  0  0  0  0
    1.8200    8.6700   -9.6940 C   0  0  0  0  0  0  0  0  0  0  0  0
  1  2  1  0
  2  3  2  0
  2  4  1  0
  3  5  1  0
  4  6  2  0
  5  7  1  0
  5  8  2  0
  6  8  1  0
  7  9  2  0
  8 10  1  0
  9 10  1  0
  9 11  1  0
 11 12  1  0
 12 13  1  0
 13 14  1  0
 13 15  2  0
 14 16  1  0
 16 17  1  0
 17 18  1  0
 18 19  1  0
 19 20  2  3
 20 21  1  0
 20 22  1  0
 21 23  1  0
 22 24  1  0
 23 24  2  0
 23 25  1  0
 24 26  1  0
 25 27  2  0
 26 28  2  0
 27 28  1  0
M  END
