mac-x0576-diamond-x0864_0_A
     RDKit          3D

 27 29  0  0  0  0  0  0  0  0999 V2000
    0.0060   14.2310    1.9370 N   0  0  0  0  0  0  0  0  0  0  0  0
   -0.8270   14.2110    0.7690 C   0  0  1  0  0  0  0  0  0  0  0  0
   -2.1490   14.0580    1.3040 N   0  0  0  0  0  0  0  0  0  0  0  0
   -0.6260   15.2440   -0.1720 N   0  0  0  0  0  0  0  0  0  0  0  0
   -1.5790   15.4290   -1.1280 C   0  0  0  0  0  0  0  0  0  0  0  0
   -3.0580   15.1080    0.8830 C   0  0  1  0  0  0  0  0  0  0  0  0
   -1.1350   15.5910   -2.3270 N   0  0  0  0  0  0  0  0  0  0  0  0
   -3.0300   15.4460   -0.6370 C   0  0  2  0  0  0  0  0  0  0  0  0
   -4.3490   14.6380    1.2900 N   0  0  0  0  0  0  0  0  0  0  0  0
    0.3220   15.6240   -2.5050 C   0  0  0  0  0  0  0  0  0  0  0  0
   -5.4830   14.8250    0.5510 C   0  0  0  0  0  0  0  0  0  0  0  0
   -3.9560   14.5950   -1.4090 N   0  0  0  0  0  0  0  0  0  0  0  0
   -6.5850   14.8370    1.0940 O   0  0  0  0  0  0  0  0  0  0  0  0
    0.9470   14.4180   -3.1990 C   0  0  0  0  0  0  0  0  0  0  0  0
   -5.3030   15.0080   -0.9610 C   0  0  0  0  0  0  0  0  0  0  0  0
    0.7970   13.1590   -2.4480 N   0  0  0  0  0  0  0  0  0  0  0  0
    0.6630   12.1730   -3.2290 C   0  0  0  0  0  0  0  0  0  0  0  0
    0.6880   12.4730   -4.7100 C   0  0  0  0  0  0  0  0  0  0  0  0
    0.5020   10.8860   -2.8400 O   0  0  0  0  0  0  0  0  0  0  0  0
   -0.1150   11.5470   -5.4680 N   0  0  0  0  0  0  0  0  0  0  0  0
   -1.3090   11.0580   -4.9820 C   0  0  0  0  0  0  0  0  0  0  0  0
    0.4350   11.1340   -6.6550 C   0  0  0  0  0  0  0  0  0  0  0  0
    1.4420   11.6500   -7.1200 O   0  0  0  0  0  0  0  0  0  0  0  0
   -1.9370   10.0670   -5.6240 C   0  0  0  0  0  0  0  0  0  0  0  0
   -0.2290   10.0130   -7.3400 C   0  0  0  0  0  0  0  0  0  0  0  0
   -1.3600    9.5150   -6.8310 C   0  0  0  0  0  0  0  0  0  0  0  0
   -2.2430    8.0920   -7.6460 Br  0  0  0  0  0  0  0  0  0  0  0  0
  2  1  1  1
  2  3  1  0
  2  4  1  0
  4  5  1  0
  6  3  1  6
  5  7  2  3
  5  8  1  0
  6  8  1  0
  6  9  1  0
  7 10  1  0
  9 11  1  0
  8 12  1  6
 11 13  2  0
 10 14  1  0
 11 15  1  0
 12 15  1  0
 14 16  1  0
 16 17  2  3
 17 18  1  0
 17 19  1  0
 18 20  1  0
 20 21  1  0
 20 22  1  0
 22 23  2  0
 21 24  2  0
 22 25  1  0
 24 26  1  0
 25 26  2  0
 26 27  1  0
M  END
