mac-x0379-mac-x0348
     RDKit          3D

 23 25  0  0  0  0  0  0  0  0999 V2000
   -4.7880   15.4520    0.5860 C   0  0  0  0  0  0  0  0  0  0  0  0
   -4.0880   15.1710   -0.6830 C   0  0  0  0  0  0  0  0  0  0  0  0
   -4.6620   15.1940   -1.8600 N   0  0  0  0  0  0  0  0  0  0  0  0
   -2.4160   14.7770   -0.6600 S   0  0  0  0  0  0  0  0  0  0  0  0
   -3.7390   14.8720   -2.8220 C   0  0  0  0  0  0  0  0  0  0  0  0
   -2.4670   14.6040   -2.3660 C   0  0  0  0  0  0  0  0  0  0  0  0
   -1.3230   14.2200   -3.1620 C   0  0  0  0  0  0  0  0  0  0  0  0
   -1.3960   13.2640   -3.9260 O   0  0  0  0  0  0  0  0  0  0  0  0
   -0.1210   14.8870   -3.1640 N   0  0  0  0  0  0  0  0  0  0  0  0
    0.9400   13.9760   -3.6640 C   0  0  0  0  0  0  0  0  0  0  0  0
   -0.2290   16.2290   -3.7460 C   0  0  1  0  0  0  0  0  0  0  0  0
    1.0570   12.6520   -2.8880 C   0  0  0  0  0  0  0  0  0  0  0  0
    0.7620   16.6920   -4.8310 C   0  0  0  0  0  0  0  0  0  0  0  0
   -1.6190   16.5310   -4.3230 C   0  0  1  0  0  0  0  0  0  0  0  0
    1.7660   12.5470   -1.9160 O   0  0  0  0  0  0  0  0  0  0  0  0
    0.3270   11.6010   -3.3260 O   0  0  0  0  0  0  0  0  0  0  0  0
   -0.0120   17.4090   -5.8690 N   0  0  0  0  0  0  0  0  0  0  0  0
   -1.3210   17.7060   -5.2610 C   0  0  1  0  0  0  0  0  0  0  0  0
   -2.4400   15.4230   -4.9370 C   0  0  0  0  0  0  0  0  0  0  0  0
    0.6730   18.6270   -6.2900 C   0  0  0  0  0  0  0  0  0  0  0  0
   -3.2230   15.6320   -5.9900 C   0  0  0  0  0  0  0  0  0  0  0  0
   -2.4160   17.9010   -6.2620 C   0  0  0  0  0  0  0  0  0  0  0  0
   -3.2940   16.9300   -6.5840 C   0  0  0  0  0  0  0  0  0  0  0  0
  1  2  1  0
  2  3  2  0
  2  4  1  0
  3  5  1  0
  4  6  1  0
  5  6  2  0
  6  7  1  0
  7  8  2  0
  7  9  1  0
  9 10  1  0
 11  9  1  6
 10 12  1  0
 11 13  1  0
 11 14  1  0
 12 15  2  0
 12 16  1  0
 13 17  1  0
 14 18  1  0
 17 18  1  0
 14 19  1  6
 17 20  1  0
 19 21  2  0
 18 22  1  6
 21 23  1  0
 22 23  2  0
M  END
