mac-x0188-mac-x0396
     RDKit          3D

 23 25  0  0  0  0  0  0  0  0999 V2000
    1.6140   13.1020   -5.0410 C   0  0  0  0  0  0  0  0  0  0  0  0
    0.2880   13.4920   -4.5320 C   0  0  0  0  0  0  0  0  0  0  0  0
   -0.7290   13.3950   -5.4220 O   0  0  0  0  0  0  0  0  0  0  0  0
   -0.1810   13.9530   -3.3170 C   0  0  0  0  0  0  0  0  0  0  0  0
    0.6490   14.1790   -2.1440 C   0  0  0  0  0  0  0  0  0  0  0  0
   -1.8920   13.7880   -4.8230 N   0  0  0  0  0  0  0  0  0  0  0  0
   -1.5740   14.1260   -3.5650 C   0  0  0  0  0  0  0  0  0  0  0  0
    1.1820   15.2500   -1.9480 O   0  0  0  0  0  0  0  0  0  0  0  0
    0.8430   13.1540   -1.2700 O   0  0  0  0  0  0  0  0  0  0  0  0
   -2.6470   14.5860   -2.7260 C   0  0  0  0  0  0  0  0  0  0  0  0
   -3.8420   14.9170   -3.3650 C   0  0  0  0  0  0  0  0  0  0  0  0
   -2.5380   14.7010   -1.3300 C   0  0  0  0  0  0  0  0  0  0  0  0
   -4.9210   15.3590   -2.6450 C   0  0  0  0  0  0  0  0  0  0  0  0
   -3.6580   15.1540   -0.6340 C   0  0  0  0  0  0  0  0  0  0  0  0
   -4.8200   15.4800   -1.3000 C   0  0  0  0  0  0  0  0  0  0  0  0
   -3.8760   15.3490    0.7980 C   0  0  2  0  0  0  0  0  0  0  0  0
   -2.9900   14.5590    1.6370 N   0  0  0  0  0  0  0  0  0  0  0  0
   -5.3530   14.9800    0.7710 C   0  0  0  0  0  0  0  0  0  0  0  0
   -5.9020   14.6870   -0.4960 C   0  0  0  0  0  0  0  0  0  0  0  0
   -6.2330   14.8980    1.8330 C   0  0  0  0  0  0  0  0  0  0  0  0
   -7.1880   14.3490   -0.7370 N   0  0  0  0  0  0  0  0  0  0  0  0
   -7.5650   14.5460    1.6180 C   0  0  0  0  0  0  0  0  0  0  0  0
   -7.9900   14.2870    0.3290 C   0  0  0  0  0  0  0  0  0  0  0  0
  1  2  1  0
  2  3  1  0
  2  4  2  0
  4  5  1  0
  3  6  1  0
  4  7  1  0
  6  7  2  0
  5  8  2  0
  5  9  1  0
  7 10  1  0
 10 11  2  0
 10 12  1  0
 11 13  1  0
 12 14  2  0
 13 15  2  0
 14 15  1  0
 14 16  1  0
 16 17  1  1
 16 18  1  0
 18 19  2  0
 18 20  1  0
 19 21  1  0
 20 22  2  0
 21 23  2  0
 22 23  1  0
M  END
