mac-x0380-mac-x0394
     RDKit          3D

 25 27  0  0  0  0  0  0  0  0999 V2000
   -1.5250   14.9920   -2.1990 O   0  0  0  0  0  0  0  0  0  0  0  0
   -2.7750   15.1930   -2.6600 C   0  0  0  0  0  0  0  0  0  0  0  0
   -2.9600   15.4450   -3.9170 N   0  0  0  0  0  0  0  0  0  0  0  0
   -3.6860   15.1010   -1.5160 C   0  0  0  0  0  0  0  0  0  0  0  0
   -5.0690   15.1220   -1.6470 C   0  0  0  0  0  0  0  0  0  0  0  0
   -3.1030   15.0030   -0.2440 C   0  0  0  0  0  0  0  0  0  0  0  0
   -1.6510   15.5180   -4.3470 C   0  0  0  0  0  0  0  0  0  0  0  0
   -5.8630   15.0460   -0.5000 C   0  0  0  0  0  0  0  0  0  0  0  0
   -3.8860   14.9310    0.8920 C   0  0  0  0  0  0  0  0  0  0  0  0
   -0.8550   14.3840   -4.2750 C   0  0  0  0  0  0  0  0  0  0  0  0
   -1.1230   16.7260   -4.7910 C   0  0  0  0  0  0  0  0  0  0  0  0
   -5.2680   14.9520    0.7700 C   0  0  0  0  0  0  0  0  0  0  0  0
   -7.6270   15.0700   -0.6850 S   0  0  0  0  0  0  0  0  0  0  0  0
    0.4870   14.4340   -4.6180 C   0  0  0  0  0  0  0  0  0  0  0  0
    0.2100   16.7890   -5.1350 C   0  0  0  0  0  0  0  0  0  0  0  0
    0.8800   18.2760   -5.6630 Cl  0  0  0  0  0  0  0  0  0  0  0  0
    1.3120   13.1760   -4.4930 C   0  0  0  0  0  0  0  0  0  0  0  0
   -6.0160   14.8770    1.9530 N   0  0  0  0  0  0  0  0  0  0  0  0
   -8.0250   14.0850    0.7710 C   0  0  0  0  0  0  0  0  0  0  0  0
    1.0140   15.6580   -5.0450 C   0  0  0  0  0  0  0  0  0  0  0  0
    0.9980   12.4520   -3.1930 C   0  0  0  0  0  0  0  0  0  0  0  0
   -7.3460   14.5840    2.0210 C   0  0  0  0  0  0  0  0  0  0  0  0
   -7.9670   14.7380    3.0770 O   0  0  0  0  0  0  0  0  0  0  0  0
    0.3230   11.2990   -3.3820 O   0  0  0  0  0  0  0  0  0  0  0  0
    1.2780   12.8040   -2.0590 O   0  0  0  0  0  0  0  0  0  0  0  0
  1  2  1  0
  2  3  2  3
  2  4  1  0
  4  5  2  0
  4  6  1  0
  3  7  1  0
  5  8  1  0
  6  9  2  0
  7 10  2  0
  7 11  1  0
  8 12  2  0
  9 12  1  0
  8 13  1  0
 10 14  1  0
 11 15  2  0
 15 16  1  0
 14 17  1  0
 12 18  1  0
 13 19  1  0
 14 20  2  0
 15 20  1  0
 17 21  1  0
 18 22  1  0
 19 22  1  0
 22 23  2  0
 21 24  1  0
 21 25  2  0
M  END
