mac-x0565-mac-x0415
     RDKit          3D

 25 28  0  0  0  0  0  0  0  0999 V2000
   -5.4850   14.9350    0.9600 O   0  0  0  0  0  0  0  0  0  0  0  0
   -5.9850   14.7430   -0.2680 C   0  0  0  0  0  0  0  0  0  0  0  0
   -7.1760   14.5630   -0.4640 O   0  0  0  0  0  0  0  0  0  0  0  0
   -4.9320   14.8030   -1.3100 C   0  0  0  0  0  0  0  0  0  0  0  0
   -3.6040   15.1210   -1.0070 C   0  0  0  0  0  0  0  0  0  0  0  0
   -5.3060   14.5340   -2.6330 C   0  0  0  0  0  0  0  0  0  0  0  0
   -2.7120   15.1730   -2.0630 C   0  0  0  0  0  0  0  0  0  0  0  0
   -4.3720   14.5890   -3.6700 C   0  0  0  0  0  0  0  0  0  0  0  0
   -3.0530   14.9260   -3.3800 C   0  0  0  0  0  0  0  0  0  0  0  0
   -1.4220   15.4840   -1.9900 O   0  0  0  0  0  0  0  0  0  0  0  0
   -1.8930   15.1230   -4.3820 C   0  0  1  0  0  0  0  0  0  0  0  0
   -1.4380   16.1380   -3.2830 C   0  0  0  0  0  0  0  0  0  0  0  0
   -0.3830   14.9480   -4.4370 C   0  0  0  0  0  0  0  0  0  0  0  0
   -2.4320   16.0200   -5.4450 C   0  0  0  0  0  0  0  0  0  0  0  0
   -4.1060   15.5350   -6.1370 Br  0  0  0  0  0  0  0  0  0  0  0  0
    0.5920   14.0260   -4.3570 C   0  0  0  0  0  0  0  0  0  0  0  0
    0.2410   16.2260   -4.7170 C   0  0  0  0  0  0  0  0  0  0  0  0
   -1.7280   17.0790   -5.8390 C   0  0  0  0  0  0  0  0  0  0  0  0
    0.7380   12.5670   -4.2230 C   0  0  0  0  0  0  0  0  0  0  0  0
    1.7650   14.9260   -4.2910 C   0  0  0  0  0  0  0  0  0  0  0  0
    1.5210   16.2000   -4.3870 N   0  0  0  0  0  0  0  0  0  0  0  0
   -0.3840   17.2700   -5.3290 C   0  0  0  0  0  0  0  0  0  0  0  0
    0.6590   12.1340   -2.7860 C   0  0  0  0  0  0  0  0  0  0  0  0
    0.0570   10.9390   -2.6090 O   0  0  0  0  0  0  0  0  0  0  0  0
    1.0920   12.7890   -1.8550 O   0  0  0  0  0  0  0  0  0  0  0  0
  1  2  1  0
  2  3  2  0
  2  4  1  0
  4  5  2  0
  4  6  1  0
  5  7  1  0
  6  8  2  0
  7  9  2  0
  8  9  1  0
  7 10  1  0
  9 11  1  0
 10 12  1  0
 11 12  1  1
 11 13  1  0
 11 14  1  0
 14 15  1  0
 13 16  2  0
 13 17  1  0
 14 18  2  0
 16 19  1  0
 16 20  1  0
 17 21  1  0
 20 21  2  0
 17 22  2  0
 18 22  1  0
 19 23  1  0
 23 24  1  0
 23 25  2  0
M  END
