mac-x0255-mac-x0379
     RDKit          3D

 22 24  0  0  0  0  0  0  0  0999 V2000
    1.1380   13.0890   -2.2470 O   0  0  0  0  0  0  0  0  0  0  0  0
    0.5400   12.0510   -2.8640 C   0  0  0  0  0  0  0  0  0  0  0  0
    0.4980   10.9800   -2.3000 O   0  0  0  0  0  0  0  0  0  0  0  0
   -0.0010   12.3680   -4.2290 C   0  0  0  0  0  0  0  0  0  0  0  0
   -0.4990   13.7630   -4.5090 C   0  0  0  0  0  0  0  0  0  0  0  0
   -0.1500   14.9750   -4.0100 C   0  0  0  0  0  0  0  0  0  0  0  0
   -1.7370   14.0060   -5.6310 S   0  0  0  0  0  0  0  0  0  0  0  0
    0.7100   15.1010   -3.0380 N   0  0  0  0  0  0  0  0  0  0  0  0
   -0.7630   16.1240   -4.5410 C   0  0  0  0  0  0  0  0  0  0  0  0
   -1.6980   15.7330   -5.4470 C   0  0  0  0  0  0  0  0  0  0  0  0
   -0.1080   15.2230   -2.0140 C   0  0  0  0  0  0  0  0  0  0  0  0
   -0.5800   17.5080   -4.2940 C   0  0  0  0  0  0  0  0  0  0  0  0
   -2.4900   16.6770   -6.1180 C   0  0  0  0  0  0  0  0  0  0  0  0
    0.4780   15.3890   -0.8230 O   0  0  0  0  0  0  0  0  0  0  0  0
   -1.3490   18.4380   -4.9840 C   0  0  0  0  0  0  0  0  0  0  0  0
   -2.2920   18.0210   -5.8810 C   0  0  0  0  0  0  0  0  0  0  0  0
   -1.5930   15.2200   -1.8540 C   0  0  0  0  0  0  0  0  0  0  0  0
   -2.6340   15.0730   -2.7790 C   0  0  0  0  0  0  0  0  0  0  0  0
   -2.3170   15.4180   -0.3110 S   0  0  0  0  0  0  0  0  0  0  0  0
   -3.8920   15.2950   -0.9800 C   0  0  0  0  0  0  0  0  0  0  0  0
   -3.9330   15.1160   -2.2760 N   0  0  0  0  0  0  0  0  0  0  0  0
   -5.0910   15.3890   -0.1050 C   0  0  0  0  0  0  0  0  0  0  0  0
  1  2  1  0
  2  3  2  0
  2  4  1  0
  4  5  1  0
  5  6  2  0
  5  7  1  0
  6  8  1  0
  6  9  1  0
  7 10  1  0
  9 10  2  0
  8 11  2  3
  9 12  1  0
 10 13  1  0
 11 14  1  0
 12 15  2  0
 13 16  2  0
 15 16  1  0
 11 17  1  0
 17 18  2  0
 17 19  1  0
 19 20  1  0
 18 21  1  0
 20 21  2  0
 20 22  1  0
M  END
