mac-x0341-mac-x0161
     RDKit          3D

 24 27  0  0  0  0  0  0  0  0999 V2000
   -6.9270   14.6180    2.3870 N   0  0  0  0  0  0  0  0  0  0  0  0
   -6.1170   14.7540    1.3050 C   0  0  0  0  0  0  0  0  0  0  0  0
   -4.7680   14.7310    1.5290 N   0  0  0  0  0  0  0  0  0  0  0  0
   -6.6750   14.8990    0.1510 N   0  0  0  0  0  0  0  0  0  0  0  0
   -5.9440   15.0600   -0.9830 C   0  0  0  0  0  0  0  0  0  0  0  0
   -3.9820   14.8210    0.5120 C   0  0  0  0  0  0  0  0  0  0  0  0
   -6.4530   15.2640   -2.0780 O   0  0  0  0  0  0  0  0  0  0  0  0
   -4.4810   14.9610   -0.8310 C   0  0  0  0  0  0  0  0  0  0  0  0
   -2.4970   14.7680    0.6350 C   0  0  0  0  0  0  0  0  0  0  0  0
   -1.6550   14.7770   -0.5530 C   0  0  0  0  0  0  0  0  0  0  0  0
   -3.6650   14.9930   -1.8750 C   0  0  0  0  0  0  0  0  0  0  0  0
   -1.7400   14.6920    1.6800 N   0  0  0  0  0  0  0  0  0  0  0  0
   -4.1930   15.1410   -3.0890 N   0  0  0  0  0  0  0  0  0  0  0  0
   -2.1930   14.8740   -1.7640 C   0  0  0  0  0  0  0  0  0  0  0  0
   -0.3540   14.6760   -0.1450 N   0  0  0  0  0  0  0  0  0  0  0  0
   -0.4590   14.6380    1.1520 C   0  0  0  0  0  0  0  0  0  0  0  0
   -1.2820   14.8590   -2.9880 C   0  0  0  0  0  0  0  0  0  0  0  0
   -0.9150   13.4900   -3.4390 C   0  0  0  0  0  0  0  0  0  0  0  0
   -1.2770   12.7080   -4.5090 C   0  0  0  0  0  0  0  0  0  0  0  0
   -0.0330   12.8000   -2.6600 O   0  0  0  0  0  0  0  0  0  0  0  0
    0.1900   11.5500   -3.2110 N   0  0  0  0  0  0  0  0  0  0  0  0
   -0.5630   11.5170   -4.3120 C   0  0  0  0  0  0  0  0  0  0  0  0
   -0.6080   10.4360   -5.1180 O   0  0  0  0  0  0  0  0  0  0  0  0
   -1.8410   10.2760   -5.8060 C   0  0  0  0  0  0  0  0  0  0  0  0
  1  2  1  0
  2  3  1  0
  2  4  2  0
  4  5  1  0
  3  6  2  0
  5  7  2  0
  5  8  1  0
  6  8  1  0
  6  9  1  0
  9 10  1  0
  8 11  2  0
  9 12  2  0
 11 13  1  0
 10 14  2  0
 11 14  1  0
 10 15  1  0
 12 16  1  0
 15 16  2  0
 14 17  1  0
 17 18  1  0
 18 19  2  0
 18 20  1  0
 20 21  1  0
 19 22  1  0
 21 22  2  0
 22 23  1  0
 23 24  1  0
M  END
