mac-x0333-mac-x0590
     RDKit          3D

 22 25  0  0  0  0  0  0  0  0999 V2000
   -2.1350   14.5840   -2.9240 O   0  0  0  0  0  0  0  0  0  0  0  0
   -1.9160   13.5170   -3.8720 C   0  0  0  0  0  0  0  0  0  0  0  0
   -0.6180   13.6860   -4.6860 C   0  0  0  0  0  0  0  0  0  0  0  0
   -3.0000   14.1830   -1.8230 C   0  0  2  0  0  0  0  0  0  0  0  0
   -4.4080   14.6940   -2.1900 C   0  0  0  0  0  0  0  0  0  0  0  0
   -2.4970   14.6590   -0.3800 C   0  0  1  0  0  0  0  0  0  0  0  0
   -5.2990   14.4620   -1.0070 C   0  0  1  0  0  0  0  0  0  0  0  0
   -3.5750   15.5210    0.4780 C   0  0  2  0  0  0  0  0  0  0  0  0
    0.2740   12.4370   -4.7430 C   0  0  2  0  0  0  0  0  0  0  0  0
   -2.1680   13.5630    0.5670 N   0  0  0  0  0  0  0  0  0  0  0  0
   -0.9920   15.1090   -0.5040 C   0  0  0  0  0  0  0  0  0  0  0  0
   -3.5970   15.0670    1.8790 N   0  0  0  0  0  0  0  0  0  0  0  0
   -5.0460   15.4710    0.0240 C   0  0  2  0  0  0  0  0  0  0  0  0
   -6.7060   14.6060   -1.1780 O   0  0  0  0  0  0  0  0  0  0  0  0
    0.7660   11.9560   -3.3790 C   0  0  0  0  0  0  0  0  0  0  0  0
    1.5640   12.6840   -5.5160 C   0  0  0  0  0  0  0  0  0  0  0  0
   -0.1760   13.9830   -0.1880 N   0  0  0  0  0  0  0  0  0  0  0  0
   -0.8210   13.8440    1.0580 C   0  0  0  0  0  0  0  0  0  0  0  0
   -6.0150   15.0670    1.0060 O   0  0  0  0  0  0  0  0  0  0  0  0
   -7.1310   14.6540    0.1900 C   0  0  0  0  0  0  0  0  0  0  0  0
    2.5580   13.0170   -4.4280 C   0  0  0  0  0  0  0  0  0  0  0  0
    2.1680   12.2640   -3.2790 O   0  0  0  0  0  0  0  0  0  0  0  0
  1  2  1  0
  2  3  1  0
  4  1  1  6
  4  5  1  0
  4  6  1  0
  7  5  1  6
  6  8  1  0
  9  3  1  1
  6 10  1  0
  6 11  1  6
  8 12  1  1
  7 13  1  0
  8 13  1  0
  7 14  1  0
  9 15  1  0
  9 16  1  0
 11 17  1  0
 10 18  1  0
 17 18  1  0
 13 19  1  1
 14 20  1  0
 19 20  1  0
 16 21  1  0
 15 22  1  0
 21 22  1  0
M  END
