mac-x0361-diamond-x0926_0_A
     RDKit          3D

 10 10  0  0  0  0  0  0  0  0999 V2000
   -6.2000   14.7540    1.6410 N   0  0  0  0  0  0  0  0  0  0  0  0
   -6.4760   14.7450    0.3000 C   0  0  0  0  0  0  0  0  0  0  0  0
   -7.6330   14.6590   -0.0940 O   0  0  0  0  0  0  0  0  0  0  0  0
   -5.3230   14.8370   -0.6320 C   0  0  0  0  0  0  0  0  0  0  0  0
   -3.9990   14.7430   -0.1820 C   0  0  0  0  0  0  0  0  0  0  0  0
   -5.5730   15.0240   -1.9980 C   0  0  0  0  0  0  0  0  0  0  0  0
   -2.9410   14.8340   -1.0910 C   0  0  0  0  0  0  0  0  0  0  0  0
   -4.5110   15.1100   -2.9000 C   0  0  0  0  0  0  0  0  0  0  0  0
   -3.2080   15.0160   -2.4440 C   0  0  0  0  0  0  0  0  0  0  0  0
   -2.2080   15.1100   -3.3650 O   0  0  0  0  0  0  0  0  0  0  0  0
  1  2  1  0
  2  3  2  0
  2  4  1  0
  4  5  2  0
  4  6  1  0
  5  7  1  0
  6  8  2  0
  7  9  2  0
  8  9  1  0
  9 10  1  0
M  END
