mac-x0358-mac-x0567
     RDKit          3D

 23 25  0  0  0  0  0  0  0  0999 V2000
    2.6010   12.4560   -3.0820 O   0  0  0  0  0  0  0  0  0  0  0  0
    1.2310   12.6690   -3.3210 C   0  0  0  0  0  0  0  0  0  0  0  0
    0.6120   11.4420   -2.9360 O   0  0  0  0  0  0  0  0  0  0  0  0
    0.9410   12.9650   -4.8030 C   0  0  0  0  0  0  0  0  0  0  0  0
    0.7710   13.7840   -2.4030 C   0  0  0  0  0  0  0  0  0  0  0  0
    0.1500   13.1540   -1.1930 C   0  0  0  0  0  0  0  0  0  0  0  0
   -0.4600   13.4840   -5.0360 C   0  0  0  0  0  0  0  0  0  0  0  0
    0.1170   14.0530   -0.0590 N   0  0  0  0  0  0  0  0  0  0  0  0
   -1.5360   12.6240   -5.2920 C   0  0  0  0  0  0  0  0  0  0  0  0
   -0.7110   14.8670   -4.9940 C   0  0  0  0  0  0  0  0  0  0  0  0
   -1.3140   11.2720   -5.3290 O   0  0  0  0  0  0  0  0  0  0  0  0
   -2.8240   13.1200   -5.5070 C   0  0  0  0  0  0  0  0  0  0  0  0
   -2.0000   15.3690   -5.2070 C   0  0  0  0  0  0  0  0  0  0  0  0
   -1.0990   14.4290    0.3890 C   0  0  0  0  0  0  0  0  0  0  0  0
   -3.0560   14.4950   -5.4650 C   0  0  0  0  0  0  0  0  0  0  0  0
   -1.4600   14.5600    1.6880 N   0  0  0  0  0  0  0  0  0  0  0  0
   -2.2250   14.7530   -0.3140 C   0  0  0  0  0  0  0  0  0  0  0  0
   -2.7380   14.9510    1.8740 N   0  0  0  0  0  0  0  0  0  0  0  0
   -3.2390   15.0830    0.6410 C   0  0  0  0  0  0  0  0  0  0  0  0
   -2.3520   14.7630   -1.7030 C   0  0  0  0  0  0  0  0  0  0  0  0
   -4.5170   15.4690    0.2150 C   0  0  0  0  0  0  0  0  0  0  0  0
   -3.6430   15.1580   -2.1030 C   0  0  0  0  0  0  0  0  0  0  0  0
   -4.6820   15.4970   -1.1870 C   0  0  0  0  0  0  0  0  0  0  0  0
  2  1  1  0
  2  3  1  0
  2  4  1  0
  2  5  1  0
  5  6  1  0
  4  7  1  0
  6  8  1  0
  7  9  2  0
  7 10  1  0
  9 11  1  0
  9 12  1  0
 10 13  2  0
  8 14  1  0
 12 15  2  0
 13 15  1  0
 14 16  1  0
 14 17  2  0
 16 18  1  0
 17 19  1  0
 18 19  2  0
 17 20  1  0
 19 21  1  0
 20 22  2  0
 21 23  2  0
 22 23  1  0
M  END
