mac-x0572-mac-x0361
     RDKit          3D

 16 18  0  0  0  0  0  0  0  0999 V2000
   -7.9810   14.4830    3.7150 C   0  0  0  0  0  0  0  0  0  0  0  0
   -7.2130   14.6260    2.4410 C   0  0  0  0  0  0  0  0  0  0  0  0
   -5.8520   14.7560    2.5820 N   0  0  0  0  0  0  0  0  0  0  0  0
   -7.8510   14.6260    1.2060 C   0  0  0  0  0  0  0  0  0  0  0  0
   -9.1970   14.4980    1.0130 O   0  0  0  0  0  0  0  0  0  0  0  0
   -7.0370   14.7740    0.1250 C   0  0  0  0  0  0  0  0  0  0  0  0
   -5.0580   14.8940    1.5050 C   0  0  0  0  0  0  0  0  0  0  0  0
   -7.3760   14.8220   -1.2130 N   0  0  0  0  0  0  0  0  0  0  0  0
   -5.6830   14.9030    0.3040 C   0  0  0  0  0  0  0  0  0  0  0  0
   -3.6640   15.0300    1.4310 C   0  0  0  0  0  0  0  0  0  0  0  0
   -6.2320   14.9850   -1.7620 C   0  0  0  0  0  0  0  0  0  0  0  0
   -2.9910   15.1640    0.1920 C   0  0  0  0  0  0  0  0  0  0  0  0
   -5.0870   15.0360   -0.8850 C   0  0  0  0  0  0  0  0  0  0  0  0
   -6.0950   15.0950   -3.0470 N   0  0  0  0  0  0  0  0  0  0  0  0
   -3.7140   15.1710   -1.0060 C   0  0  0  0  0  0  0  0  0  0  0  0
   -3.0520   15.3020   -2.2090 O   0  0  0  0  0  0  0  0  0  0  0  0
  1  2  1  0
  2  3  2  0
  2  4  1  0
  4  5  1  0
  4  6  2  0
  3  7  1  0
  6  8  1  0
  6  9  1  0
  7  9  2  0
  7 10  1  0
  8 11  2  0
 10 12  2  0
  9 13  1  0
 11 13  1  0
 11 14  1  0
 12 15  1  0
 13 15  2  0
 15 16  1  0
M  END
