mac-x0161-mac-x0346
     RDKit          3D

 23 25  0  0  0  0  0  0  0  0999 V2000
   -4.8020   15.2840    1.4380 N   0  0  0  0  0  0  0  0  0  0  0  0
   -3.7700   15.4350    0.4160 C   0  0  1  0  0  0  0  0  0  0  0  0
   -2.5010   14.5620    0.5650 C   0  0  1  0  0  0  0  0  0  0  0  0
   -4.3920   15.2150   -0.8870 N   0  0  0  0  0  0  0  0  0  0  0  0
   -5.7950   14.9730   -1.0360 C   0  0  0  0  0  0  0  0  0  0  0  0
   -3.5220   15.1730   -2.0610 C   0  0  2  0  0  0  0  0  0  0  0  0
   -1.5970   14.6680   -0.6370 C   0  0  2  0  0  0  0  0  0  0  0  0
   -1.4950   14.9020    1.5740 N   0  0  0  0  0  0  0  0  0  0  0  0
   -6.6720   15.0750    0.0410 N   0  0  0  0  0  0  0  0  0  0  0  0
   -6.3010   14.6830   -2.1210 O   0  0  0  0  0  0  0  0  0  0  0  0
   -4.3180   14.5580   -3.0510 O   0  0  0  0  0  0  0  0  0  0  0  0
   -2.2240   14.5000   -1.9210 N   0  0  0  0  0  0  0  0  0  0  0  0
   -0.6380   13.6750   -0.2370 N   0  0  0  0  0  0  0  0  0  0  0  0
   -0.2850   14.2490    1.0720 C   0  0  0  0  0  0  0  0  0  0  0  0
   -1.2660   14.6750   -3.0170 C   0  0  0  0  0  0  0  0  0  0  0  0
   -7.0390   13.8710    0.7100 O   0  0  0  0  0  0  0  0  0  0  0  0
   -0.8700   13.3420   -3.5140 C   0  0  0  0  0  0  0  0  0  0  0  0
   -1.2180   12.5940   -4.6070 C   0  0  0  0  0  0  0  0  0  0  0  0
    0.0240   12.6530   -2.7520 O   0  0  0  0  0  0  0  0  0  0  0  0
    0.2660   11.4260   -3.3390 N   0  0  0  0  0  0  0  0  0  0  0  0
   -0.4860   11.4120   -4.4390 C   0  0  0  0  0  0  0  0  0  0  0  0
   -0.5150   10.3540   -5.2740 O   0  0  0  0  0  0  0  0  0  0  0  0
   -1.7260   10.2360   -6.0150 C   0  0  0  0  0  0  0  0  0  0  0  0
  2  1  1  1
  2  3  1  0
  2  4  1  0
  4  5  1  0
  4  6  1  0
  3  7  1  0
  3  8  1  1
  5  9  1  0
  5 10  2  0
  6 11  1  6
  6 12  1  0
  7 12  1  0
  7 13  1  1
  8 14  1  0
 13 14  1  0
 12 15  1  0
  9 16  1  0
 15 17  1  0
 17 18  2  0
 17 19  1  0
 19 20  1  0
 18 21  1  0
 20 21  2  0
 21 22  1  0
 22 23  1  0
M  END
