mac-x0132-mac-x0319
     RDKit          3D

 23 25  0  0  0  0  0  0  0  0999 V2000
   -4.4510   15.4090    2.0720 N   0  0  0  0  0  0  0  0  0  0  0  0
   -5.3200   15.0160    1.0470 C   0  0  0  0  0  0  0  0  0  0  0  0
   -6.5430   14.6140    1.4230 N   0  0  0  0  0  0  0  0  0  0  0  0
   -4.9080   15.0620   -0.2820 C   0  0  0  0  0  0  0  0  0  0  0  0
   -5.8570   14.6480   -1.2170 C   0  0  0  0  0  0  0  0  0  0  0  0
   -7.3660   14.2440    0.4430 C   0  0  0  0  0  0  0  0  0  0  0  0
   -3.6410   15.4940   -0.7130 C   0  0  0  0  0  0  0  0  0  0  0  0
   -7.0830   14.2390   -0.8650 N   0  0  0  0  0  0  0  0  0  0  0  0
   -5.5030   14.6690   -2.5630 C   0  0  0  0  0  0  0  0  0  0  0  0
   -3.3000   15.5270   -2.0680 C   0  0  0  0  0  0  0  0  0  0  0  0
   -1.9410   16.0600   -2.4380 C   0  0  0  0  0  0  0  0  0  0  0  0
   -4.2420   15.1000   -2.9980 C   0  0  0  0  0  0  0  0  0  0  0  0
   -0.8760   15.4560   -3.2900 C   0  0  0  0  0  0  0  0  0  0  0  0
   -0.2520   16.3160   -4.1780 C   0  0  0  0  0  0  0  0  0  0  0  0
   -0.4660   14.1400   -3.2220 C   0  0  0  0  0  0  0  0  0  0  0  0
    0.5490   13.6550   -4.0300 C   0  0  0  0  0  0  0  0  0  0  0  0
    0.7640   15.8540   -4.9750 C   0  0  0  0  0  0  0  0  0  0  0  0
    0.9540   12.2170   -3.9130 C   0  0  0  0  0  0  0  0  0  0  0  0
    1.3370   16.7630   -5.8030 O   0  0  0  0  0  0  0  0  0  0  0  0
    1.1690   14.5200   -4.9130 C   0  0  0  0  0  0  0  0  0  0  0  0
    0.7490   11.6680   -2.5150 C   0  0  0  0  0  0  0  0  0  0  0  0
    0.3680   10.3590   -2.5010 O   0  0  0  0  0  0  0  0  0  0  0  0
    0.8720   12.2990   -1.4790 O   0  0  0  0  0  0  0  0  0  0  0  0
  1  2  1  0
  2  3  2  0
  2  4  1  0
  4  5  2  0
  3  6  1  0
  4  7  1  0
  5  8  1  0
  6  8  2  0
  5  9  1  0
  7 10  2  0
 10 11  1  0
  9 12  2  0
 10 12  1  0
 11 13  1  0
 13 14  2  0
 13 15  1  0
 15 16  2  0
 14 17  1  0
 16 18  1  0
 17 19  1  0
 16 20  1  0
 17 20  2  0
 18 21  1  0
 21 22  1  0
 21 23  2  0
M  END
