mac-x0404-mac-x0148
     RDKit          3D

 29 33  0  0  0  0  0  0  0  0999 V2000
    1.9490   12.6310   -2.1760 O   0  0  0  0  0  0  0  0  0  0  0  0
    1.4080   12.1240   -3.3110 C   0  0  0  0  0  0  0  0  0  0  0  0
    0.7290   11.1040   -3.3260 O   0  0  0  0  0  0  0  0  0  0  0  0
    1.7310   12.9780   -4.5310 C   0  0  0  0  0  0  0  0  0  0  0  0
    1.1310   14.2680   -4.3150 O   0  0  0  0  0  0  0  0  0  0  0  0
    0.0500   14.5950   -5.2240 C   0  0  2  0  0  0  0  0  0  0  0  0
   -0.0250   16.1440   -5.4180 C   0  0  1  0  0  0  0  0  0  0  0  0
   -1.3000   14.0190   -4.6730 C   0  0  1  0  0  0  0  0  0  0  0  0
   -1.4480   16.7310   -5.7770 C   0  0  1  0  0  0  0  0  0  0  0  0
   -2.5280   14.5190   -5.3880 C   0  0  0  0  0  0  0  0  0  0  0  0
    0.7410   16.9570   -4.4340 C   0  0  0  0  0  0  0  0  0  0  0  0
   -1.2650   12.4700   -4.6200 C   0  0  0  0  0  0  0  0  0  0  0  0
   -1.5310   14.6910   -3.3090 C   0  0  0  0  0  0  0  0  0  0  0  0
   -2.5980   15.7510   -5.8600 C   0  0  0  0  0  0  0  0  0  0  0  0
   -1.7970   18.0010   -5.2590 C   0  0  0  0  0  0  0  0  0  0  0  0
    0.2650   18.1190   -4.0250 C   0  0  0  0  0  0  0  0  0  0  0  0
   -1.2120   11.9830   -3.1890 C   0  0  0  0  0  0  0  0  0  0  0  0
   -0.7420   14.1600   -2.2090 N   0  0  0  0  0  0  0  0  0  0  0  0
   -1.0250   18.6180   -4.4800 C   0  0  0  0  0  0  0  0  0  0  0  0
   -0.1940   12.8400   -2.4650 C   0  0  0  0  0  0  0  0  0  0  0  0
   -1.0930   14.4270   -0.9180 C   0  0  0  0  0  0  0  0  0  0  0  0
   -0.1320   14.3340    0.0580 N   0  0  0  0  0  0  0  0  0  0  0  0
   -2.3170   14.7820   -0.5120 C   0  0  0  0  0  0  0  0  0  0  0  0
   -0.4460   14.4200    1.3710 C   0  0  0  0  0  0  0  0  0  0  0  0
   -2.5520   14.9920    0.9260 C   0  0  0  0  0  0  0  0  0  0  0  0
   -3.5970   15.0530   -1.0910 C   0  0  0  0  0  0  0  0  0  0  0  0
   -1.5930   14.7260    1.8500 N   0  0  0  0  0  0  0  0  0  0  0  0
   -3.7490   15.4170    1.1820 N   0  0  0  0  0  0  0  0  0  0  0  0
   -4.3670   15.4380   -0.0600 C   0  0  0  0  0  0  0  0  0  0  0  0
  1  2  1  0
  2  3  2  0
  2  4  1  0
  4  5  1  0
  6  5  1  1
  6  7  1  0
  6  8  1  0
  7  9  1  0
  8 10  1  6
  7 11  1  1
  8 12  1  0
  8 13  1  0
  9 14  1  1
 10 14  2  0
  9 15  1  0
 11 16  2  0
 12 17  1  0
 13 18  1  0
 15 19  2  0
 16 19  1  0
 17 20  1  0
 18 20  1  0
 18 21  1  0
 21 22  1  0
 21 23  2  0
 22 24  1  0
 23 25  1  0
 23 26  1  0
 24 27  2  0
 25 27  1  0
 25 28  2  0
 26 29  2  0
 28 29  1  0
M  END
