mac-x0360-diamond-x0290_0_A
     RDKit          3D

 21 22  0  0  0  0  0  0  0  0999 V2000
   -7.6940   11.2400    1.6590 Cl  0  0  0  0  0  0  0  0  0  0  0  0
   -6.6170   11.5800    0.3540 C   0  0  0  0  0  0  0  0  0  0  0  0
   -6.2410   10.5850   -0.5350 C   0  0  0  0  0  0  0  0  0  0  0  0
   -6.1300   12.8640    0.2000 C   0  0  0  0  0  0  0  0  0  0  0  0
   -5.2710   13.1460   -0.8450 C   0  0  0  0  0  0  0  0  0  0  0  0
   -5.3630   10.8820   -1.5780 C   0  0  0  0  0  0  0  0  0  0  0  0
   -4.8910    9.6410   -2.6790 Cl  0  0  0  0  0  0  0  0  0  0  0  0
   -4.7150   14.7830   -1.0110 S   0  0  2  0  0  0  0  0  0  0  0  0
   -4.8690   12.1690   -1.7410 C   0  0  0  0  0  0  0  0  0  0  0  0
   -3.1450   14.7550   -1.5280 N   0  0  0  0  0  0  0  0  0  0  0  0
   -4.6800   15.4730    0.4340 N   0  0  0  0  0  0  0  0  0  0  0  0
   -5.3860   15.1490    1.4850 C   0  0  0  0  0  0  0  0  0  0  0  0
   -2.1710   14.6580   -0.5530 C   0  0  0  0  0  0  0  0  0  0  0  0
   -6.4340   14.0650    1.5870 C   0  0  0  0  0  0  0  0  0  0  0  0
   -0.8430   14.6500   -0.9330 C   0  0  0  0  0  0  0  0  0  0  0  0
   -2.4350   14.5690    0.8200 C   0  0  0  0  0  0  0  0  0  0  0  0
   -7.4970   14.2900    0.5850 N   0  0  0  0  0  0  0  0  0  0  0  0
   -1.4970   14.4810    1.7820 N   0  0  0  0  0  0  0  0  0  0  0  0
    0.1430   14.5600    0.0270 C   0  0  0  0  0  0  0  0  0  0  0  0
   -8.6460   14.9740    1.1590 C   0  0  0  0  0  0  0  0  0  0  0  0
   -0.2330   14.4770    1.3590 C   0  0  0  0  0  0  0  0  0  0  0  0
  1  2  1  0
  2  3  2  0
  2  4  1  0
  4  5  2  0
  3  6  1  0
  6  7  1  0
  5  8  1  0
  5  9  1  0
  6  9  2  0
  8 10  1  1
  8 11  1  0
 11 12  2  3
 10 13  1  0
 12 14  1  0
 13 15  2  0
 13 16  1  0
 14 17  1  0
 16 18  2  0
 15 19  1  0
 17 20  1  0
 18 21  1  0
 19 21  2  0
M  END
