mac-x0223-mac-x0139
     RDKit          3D

 25 27  0  0  0  0  0  0  0  0999 V2000
    1.2570   18.5500   -5.6870 C   0  0  0  0  0  0  0  0  0  0  0  0
    0.1610   18.4310   -4.8150 O   0  0  0  0  0  0  0  0  0  0  0  0
   -0.3520   17.1850   -4.7740 C   0  0  0  0  0  0  0  0  0  0  0  0
   -1.7120   17.0870   -4.9840 C   0  0  0  0  0  0  0  0  0  0  0  0
    0.3850   16.0480   -4.5390 C   0  0  0  0  0  0  0  0  0  0  0  0
   -2.3790   18.2510   -5.1710 O   0  0  0  0  0  0  0  0  0  0  0  0
   -2.3690   15.8550   -4.9910 C   0  0  0  0  0  0  0  0  0  0  0  0
   -0.2400   14.7970   -4.5120 C   0  0  0  0  0  0  0  0  0  0  0  0
    0.5960   13.5960   -4.1960 C   0  0  2  0  0  0  0  0  0  0  0  0
   -1.6220   14.6960   -4.7540 C   0  0  0  0  0  0  0  0  0  0  0  0
    0.5180   12.3900   -3.2780 C   0  0  0  0  0  0  0  0  0  0  0  0
    0.5290   14.3750   -2.8350 C   0  0  0  0  0  0  0  0  0  0  0  0
   -0.2000   11.4110   -3.4210 O   0  0  0  0  0  0  0  0  0  0  0  0
    1.3470   12.4480   -2.2170 O   0  0  0  0  0  0  0  0  0  0  0  0
   -0.8730   14.6290   -2.3100 N   0  0  0  0  0  0  0  0  0  0  0  0
   -1.8560   15.2420   -3.1970 C   0  0  0  0  0  0  0  0  0  0  0  0
   -1.1140   14.7660   -0.9460 C   0  0  0  0  0  0  0  0  0  0  0  0
   -2.3610   15.0710   -0.5080 C   0  0  0  0  0  0  0  0  0  0  0  0
   -0.0600   14.5750   -0.0640 N   0  0  0  0  0  0  0  0  0  0  0  0
   -2.5750   15.1730    0.9380 C   0  0  0  0  0  0  0  0  0  0  0  0
   -0.3140   14.6790    1.1960 C   0  0  0  0  0  0  0  0  0  0  0  0
   -3.6490   15.3380   -1.0550 C   0  0  0  0  0  0  0  0  0  0  0  0
   -1.5200   14.9740    1.7370 N   0  0  0  0  0  0  0  0  0  0  0  0
   -3.8060   15.4490    1.2360 N   0  0  0  0  0  0  0  0  0  0  0  0
   -4.4370   15.5440    0.0070 C   0  0  0  0  0  0  0  0  0  0  0  0
  1  2  1  0
  2  3  1  0
  3  4  2  0
  3  5  1  0
  4  6  1  0
  4  7  1  0
  5  8  2  0
  8  9  1  0
  7 10  2  0
  8 10  1  0
  9 11  1  0
  9 12  1  1
 11 13  2  0
 11 14  1  0
 12 15  1  0
 15 16  1  0
 15 17  1  0
 17 18  2  0
 17 19  1  0
 18 20  1  0
 19 21  2  0
 18 22  1  0
 20 23  1  0
 21 23  1  0
 20 24  2  0
 22 25  2  0
 24 25  1  0
M  END
