mac-x0576-mac-x0255
     RDKit          3D

 26 29  0  0  0  0  0  0  0  0999 V2000
    0.2980   14.6530    1.4680 N   0  0  0  0  0  0  0  0  0  0  0  0
   -0.7450   14.3770    0.5580 C   0  0  1  0  0  0  0  0  0  0  0  0
   -1.9060   14.6040    1.3860 N   0  0  0  0  0  0  0  0  0  0  0  0
   -0.6750   15.0270   -0.7210 N   0  0  0  0  0  0  0  0  0  0  0  0
   -1.8130   15.0350   -1.4850 C   0  0  0  0  0  0  0  0  0  0  0  0
   -3.0780   14.3360    0.5700 C   0  0  2  0  0  0  0  0  0  0  0  0
   -1.8480   14.9380   -2.8020 N   0  0  0  0  0  0  0  0  0  0  0  0
   -3.0950   15.2200   -0.6690 C   0  0  2  0  0  0  0  0  0  0  0  0
   -4.2330   14.6620    1.3470 N   0  0  0  0  0  0  0  0  0  0  0  0
   -5.4380   14.9420    0.7390 C   0  0  0  0  0  0  0  0  0  0  0  0
   -4.2750   14.8970   -1.5040 N   0  0  0  0  0  0  0  0  0  0  0  0
   -0.8030   14.9070   -3.7560 C   0  0  0  0  0  0  0  0  0  0  0  0
   -6.4790   14.8540    1.3890 O   0  0  0  0  0  0  0  0  0  0  0  0
   -5.4500   15.3560   -0.7430 C   0  0  0  0  0  0  0  0  0  0  0  0
    0.1210   13.9450   -4.1960 C   0  0  0  0  0  0  0  0  0  0  0  0
   -0.7330   16.1490   -4.4160 C   0  0  0  0  0  0  0  0  0  0  0  0
    0.4750   12.4970   -3.9140 C   0  0  0  0  0  0  0  0  0  0  0  0
    0.2200   16.1970   -5.3350 C   0  0  0  0  0  0  0  0  0  0  0  0
    1.0410   14.6900   -5.3960 S   0  0  0  0  0  0  0  0  0  0  0  0
   -1.5200   17.2730   -4.2240 C   0  0  0  0  0  0  0  0  0  0  0  0
    0.5860   11.9980   -2.5050 C   0  0  0  0  0  0  0  0  0  0  0  0
   -1.3610   18.4370   -4.9500 C   0  0  0  0  0  0  0  0  0  0  0  0
    0.4100   17.3710   -6.0730 C   0  0  0  0  0  0  0  0  0  0  0  0
    1.1430   12.8380   -1.6170 O   0  0  0  0  0  0  0  0  0  0  0  0
    0.2010   10.8660   -2.1820 O   0  0  0  0  0  0  0  0  0  0  0  0
   -0.3880   18.4800   -5.8790 C   0  0  0  0  0  0  0  0  0  0  0  0
  2  1  1  1
  2  3  1  0
  2  4  1  0
  4  5  1  0
  6  3  1  1
  5  7  2  3
  5  8  1  0
  6  8  1  0
  6  9  1  0
  9 10  1  0
  8 11  1  6
  7 12  1  0
 10 13  2  0
 10 14  1  0
 11 14  1  0
 12 15  2  0
 12 16  1  0
 15 17  1  0
 16 18  2  0
 15 19  1  0
 18 19  1  0
 16 20  1  0
 17 21  1  0
 20 22  2  0
 18 23  1  0
 21 24  1  0
 21 25  2  0
 22 26  1  0
 23 26  2  0
M  END
