mac-x0510-diamond-x0587_0_A
     RDKit          3D

 23 25  0  0  0  0  0  0  0  0999 V2000
   -3.9160   16.9950    1.2880 O   0  0  0  0  0  0  0  0  0  0  0  0
   -3.8190   15.8320    1.0030 C   0  0  0  0  0  0  0  0  0  0  0  0
   -4.2620   15.2910   -0.1750 N   0  0  0  0  0  0  0  0  0  0  0  0
   -3.2070   14.9490    1.7940 N   0  0  0  0  0  0  0  0  0  0  0  0
   -2.1490   14.4500    1.1630 C   0  0  0  0  0  0  0  0  0  0  0  0
   -3.5880   14.2400   -0.7610 C   0  0  0  0  0  0  0  0  0  0  0  0
   -4.2010   13.6130   -1.6830 N   0  0  0  0  0  0  0  0  0  0  0  0
   -2.3040   14.0860   -0.1420 C   0  0  0  0  0  0  0  0  0  0  0  0
   -0.9300   14.2770    1.6640 N   0  0  0  0  0  0  0  0  0  0  0  0
   -5.5590   13.9640   -2.0980 C   0  0  0  0  0  0  0  0  0  0  0  0
   -1.0670   13.6440   -0.4900 N   0  0  0  0  0  0  0  0  0  0  0  0
   -0.2790   13.7810    0.6250 C   0  0  0  0  0  0  0  0  0  0  0  0
   -6.0070   12.9110   -2.8460 F   0  0  0  0  0  0  0  0  0  0  0  0
   -5.4810   14.9930   -2.9930 F   0  0  0  0  0  0  0  0  0  0  0  0
   -6.5120   14.2550   -0.9020 C   0  0  0  0  0  0  0  0  0  0  0  0
   -7.7090   14.8540   -1.1250 N   0  0  0  0  0  0  0  0  0  0  0  0
   -6.0940   13.8940    0.3370 N   0  0  0  0  0  0  0  0  0  0  0  0
   -8.4890   15.0930   -0.0440 C   0  0  0  0  0  0  0  0  0  0  0  0
   -6.9170   14.1570    1.3800 C   0  0  0  0  0  0  0  0  0  0  0  0
   -8.1430   14.7670    1.2490 C   0  0  0  0  0  0  0  0  0  0  0  0
   -8.9700   15.0260    2.4400 C   0  0  0  0  0  0  0  0  0  0  0  0
   -8.4160   14.8630    3.6780 N   0  0  0  0  0  0  0  0  0  0  0  0
  -10.1330   15.3820    2.3170 O   0  0  0  0  0  0  0  0  0  0  0  0
  1  2  2  0
  2  3  1  0
  2  4  1  0
  4  5  1  0
  3  6  1  0
  6  7  2  3
  5  8  2  0
  6  8  1  0
  5  9  1  0
  7 10  1  0
  8 11  1  0
  9 12  2  0
 11 12  1  0
 10 13  1  0
 10 14  1  0
 10 15  1  0
 15 16  2  0
 15 17  1  0
 16 18  1  0
 17 19  2  0
 18 20  2  0
 19 20  1  0
 20 21  1  0
 21 22  1  0
 21 23  2  0
M  END
