mac-x0439-mac-x0301
     RDKit          3D

 24 27  0  0  0  0  0  0  0  0999 V2000
   -3.0670   15.9350   -5.4810 Cl  0  0  0  0  0  0  0  0  0  0  0  0
   -1.6220   16.8700   -5.5650 C   0  0  0  0  0  0  0  0  0  0  0  0
   -0.3210   16.1810   -5.4070 C   0  0  2  0  0  0  0  0  0  0  0  0
   -1.6150   18.1790   -5.7800 C   0  0  0  0  0  0  0  0  0  0  0  0
   -0.1860   14.9970   -4.6170 C   0  0  0  0  0  0  0  0  0  0  0  0
    0.6600   17.0320   -4.7210 C   0  0  0  0  0  0  0  0  0  0  0  0
   -0.3460   18.8770   -5.8310 C   0  0  0  0  0  0  0  0  0  0  0  0
    0.7220   15.2110   -3.7070 C   0  0  0  0  0  0  0  0  0  0  0  0
    1.2710   16.4730   -3.7360 N   0  0  0  0  0  0  0  0  0  0  0  0
    0.8020   18.3670   -5.3100 C   0  0  0  0  0  0  0  0  0  0  0  0
    1.0350   14.1600   -2.7340 C   0  0  0  0  0  0  0  0  0  0  0  0
    1.8400   14.7160   -1.6930 O   0  0  0  0  0  0  0  0  0  0  0  0
    1.8060   13.1170   -3.2710 O   0  0  0  0  0  0  0  0  0  0  0  0
   -0.4940   13.7650   -2.6350 C   0  0  0  0  0  0  0  0  0  0  0  0
   -1.0080   12.9910   -3.4410 O   0  0  0  0  0  0  0  0  0  0  0  0
   -1.4390   14.3290   -1.6550 C   0  0  0  0  0  0  0  0  0  0  0  0
   -1.1130   14.3010   -0.3450 C   0  0  0  0  0  0  0  0  0  0  0  0
   -2.6790   14.8850   -2.0340 C   0  0  0  0  0  0  0  0  0  0  0  0
   -1.9550   14.8030    0.6190 C   0  0  0  0  0  0  0  0  0  0  0  0
   -3.5540   15.3980   -1.0470 C   0  0  0  0  0  0  0  0  0  0  0  0
    0.0240   13.7930    0.1570 O   0  0  0  0  0  0  0  0  0  0  0  0
   -3.1840   15.3560    0.3100 C   0  0  0  0  0  0  0  0  0  0  0  0
   -1.4070   14.6710    1.8580 O   0  0  0  0  0  0  0  0  0  0  0  0
   -0.0710   14.3060    1.4880 C   0  0  0  0  0  0  0  0  0  0  0  0
  1  2  1  0
  2  3  1  0
  2  4  2  0
  3  5  1  1
  3  6  1  0
  4  7  1  0
  5  8  2  0
  6  9  2  0
  8  9  1  0
  6 10  1  0
  7 10  2  0
  8 11  1  0
 11 12  1  0
 11 13  1  0
 11 14  1  0
 14 15  2  0
 14 16  1  0
 16 17  1  0
 16 18  2  0
 17 19  2  0
 18 20  1  0
 17 21  1  0
 19 22  1  0
 20 22  2  0
 19 23  1  0
 21 24  1  0
 23 24  1  0
M  END
