mac-x0496-diamond-x0104_0_A
     RDKit          3D

 26 28  0  0  0  0  0  0  0  0999 V2000
  -10.1730   17.8750    4.6420 C   0  0  0  0  0  0  0  0  0  0  0  0
  -10.2650   16.8750    3.5570 C   0  0  0  0  0  0  0  0  0  0  0  0
  -11.3510   16.6990    2.7960 N   0  0  0  0  0  0  0  0  0  0  0  0
   -9.2400   16.0420    3.2570 N   0  0  0  0  0  0  0  0  0  0  0  0
  -10.9900   15.6670    1.9230 O   0  0  0  0  0  0  0  0  0  0  0  0
   -9.7190   15.3200    2.2650 C   0  0  0  0  0  0  0  0  0  0  0  0
   -9.0410   14.2230    1.5310 C   0  0  0  0  0  0  0  0  0  0  0  0
   -7.6160   14.3590    1.7870 N   0  0  0  0  0  0  0  0  0  0  0  0
   -6.9230   14.6700    0.5780 C   0  0  0  0  0  0  0  0  0  0  0  0
   -7.3980   15.0420    3.0860 C   0  0  0  0  0  0  0  0  0  0  0  0
   -7.5330   14.8650   -0.4700 O   0  0  0  0  0  0  0  0  0  0  0  0
   -7.8860   14.3220    4.2580 N   0  0  0  0  0  0  0  0  0  0  0  0
   -5.4380   14.7830    0.4330 C   0  0  0  0  0  0  0  0  0  0  0  0
   -4.6320   14.8270    1.5690 C   0  0  0  0  0  0  0  0  0  0  0  0
   -4.8550   14.8450   -0.8490 C   0  0  0  0  0  0  0  0  0  0  0  0
   -8.9860   14.6010    5.0640 C   0  0  0  0  0  0  0  0  0  0  0  0
   -3.2490   14.9250    1.4430 C   0  0  0  0  0  0  0  0  0  0  0  0
   -3.4580   14.9440   -0.9680 C   0  0  0  0  0  0  0  0  0  0  0  0
   -8.9260   15.0790    6.3710 C   0  0  0  0  0  0  0  0  0  0  0  0
  -10.6420   14.4030    4.6150 S   0  0  0  0  0  0  0  0  0  0  0  0
   -2.8260   15.0060   -2.3140 C   0  0  0  0  0  0  0  0  0  0  0  0
   -2.6610   14.9810    0.1850 C   0  0  0  0  0  0  0  0  0  0  0  0
  -11.2340   14.9410    6.1260 C   0  0  0  0  0  0  0  0  0  0  0  0
  -10.2110   15.2720    6.9790 C   0  0  0  0  0  0  0  0  0  0  0  0
   -1.6360   14.8080   -2.4940 O   0  0  0  0  0  0  0  0  0  0  0  0
   -3.6810   15.3080   -3.3110 O   0  0  0  0  0  0  0  0  0  0  0  0
  1  2  1  0
  2  3  2  0
  2  4  1  0
  3  5  1  0
  4  6  2  0
  5  6  1  0
  6  7  1  0
  7  8  1  0
  8  9  1  0
  8 10  1  0
  9 11  2  0
 10 12  1  0
  9 13  1  0
 13 14  2  0
 13 15  1  0
 12 16  1  0
 14 17  1  0
 15 18  2  0
 16 19  2  0
 16 20  1  0
 18 21  1  0
 17 22  2  0
 18 22  1  0
 20 23  1  0
 19 24  1  0
 23 24  2  0
 21 25  2  0
 21 26  1  0
M  END
