mac-x0228-diamond-x0626_0_A
     RDKit          3D

 23 25  0  0  0  0  0  0  0  0999 V2000
   -1.0190   14.0910   -2.3140 O   0  0  0  0  0  0  0  0  0  0  0  0
   -2.0140   14.2400   -3.2050 C   0  0  0  0  0  0  0  0  0  0  0  0
   -1.7830   14.3100   -4.3940 O   0  0  0  0  0  0  0  0  0  0  0  0
   -3.3590   14.3290   -2.5850 C   0  0  0  0  0  0  0  0  0  0  0  0
   -3.6330   13.5940   -1.4200 C   0  0  0  0  0  0  0  0  0  0  0  0
   -4.3470   15.1420   -3.1630 C   0  0  0  0  0  0  0  0  0  0  0  0
   -4.8930   13.7340   -0.8720 C   0  0  0  0  0  0  0  0  0  0  0  0
   -5.6130   15.2650   -2.5760 C   0  0  0  0  0  0  0  0  0  0  0  0
   -5.8470   14.5780   -1.4450 C   0  0  0  0  0  0  0  0  0  0  0  0
   -5.5050   13.0930    0.3350 C   0  0  0  0  0  0  0  0  0  0  0  0
   -6.9620   14.5890   -0.6260 N   0  0  0  0  0  0  0  0  0  0  0  0
   -6.9620   13.2030   -0.1760 C   0  0  0  0  0  0  0  0  0  0  0  0
   -6.0560   15.1070    0.1730 N   0  0  0  0  0  0  0  0  0  0  0  0
   -6.0460   14.9410    1.4240 C   0  0  0  0  0  0  0  0  0  0  0  0
   -4.8660   15.4260    1.9320 N   0  0  0  0  0  0  0  0  0  0  0  0
   -7.1490   14.2460    2.2110 C   0  0  0  0  0  0  0  0  0  0  0  0
   -8.5150   14.5900    1.6120 C   0  0  0  0  0  0  0  0  0  0  0  0
   -3.6490   15.3120    1.3160 C   0  0  0  0  0  0  0  0  0  0  0  0
   -2.5020   14.8610    1.8190 N   0  0  0  0  0  0  0  0  0  0  0  0
   -3.5110   15.7940   -0.3350 S   0  0  0  0  0  0  0  0  0  0  0  0
   -1.8600   15.3790   -0.3550 C   0  0  0  0  0  0  0  0  0  0  0  0
   -1.4910   14.8950    0.8760 C   0  0  0  0  0  0  0  0  0  0  0  0
   -0.1510   14.4250    1.2630 C   0  0  0  0  0  0  0  0  0  0  0  0
  1  2  1  0
  2  3  2  0
  2  4  1  0
  4  5  2  0
  4  6  1  0
  5  7  1  0
  6  8  2  0
  7  9  2  0
  8  9  1  0
  7 10  1  0
  9 11  1  0
 10 12  1  0
 11 12  1  0
 11 13  1  0
 13 14  2  3
 14 15  1  0
 14 16  1  0
 16 17  1  0
 15 18  1  0
 18 19  2  0
 18 20  1  0
 20 21  1  0
 19 22  1  0
 21 22  2  0
 22 23  1  0
M  END
