mac-x0344-mac-x0319
     RDKit          3D

 19 20  0  0  0  0  0  0  0  0999 V2000
    2.4940   12.8130   -4.5980 O   0  0  0  0  0  0  0  0  0  0  0  0
    1.3260   12.8100   -3.7950 C   0  0  0  0  0  0  0  0  0  0  0  0
    1.7600   12.8040   -2.4490 O   0  0  0  0  0  0  0  0  0  0  0  0
    0.4050   11.5760   -4.1140 C   0  0  0  0  0  0  0  0  0  0  0  0
    0.5770   14.0740   -4.1030 C   0  0  0  0  0  0  0  0  0  0  0  0
    0.0900   10.7680   -3.2420 O   0  0  0  0  0  0  0  0  0  0  0  0
    0.0350   11.5640   -5.4470 N   0  0  0  0  0  0  0  0  0  0  0  0
    1.2430   15.3020   -4.0570 C   0  0  0  0  0  0  0  0  0  0  0  0
   -0.7880   14.0510   -4.4400 C   0  0  0  0  0  0  0  0  0  0  0  0
   -0.7550   10.6100   -6.0950 C   0  0  0  0  0  0  0  0  0  0  0  0
    0.5570   16.4720   -4.3380 C   0  0  0  0  0  0  0  0  0  0  0  0
   -1.4670   15.2330   -4.7220 C   0  0  0  0  0  0  0  0  0  0  0  0
    1.2390   17.6480   -4.2730 O   0  0  0  0  0  0  0  0  0  0  0  0
   -0.4010    9.9970   -7.2930 C   0  0  0  0  0  0  0  0  0  0  0  0
   -1.9670   10.2690   -5.4840 C   0  0  0  0  0  0  0  0  0  0  0  0
   -0.7900   16.4470   -4.6720 C   0  0  0  0  0  0  0  0  0  0  0  0
   -1.2490    9.0500   -7.8790 C   0  0  0  0  0  0  0  0  0  0  0  0
   -2.8160    9.3250   -6.0650 C   0  0  0  0  0  0  0  0  0  0  0  0
   -2.4550    8.7160   -7.2630 C   0  0  0  0  0  0  0  0  0  0  0  0
  2  1  1  0
  2  3  1  0
  2  4  1  0
  2  5  1  0
  4  6  2  0
  4  7  1  0
  5  8  2  0
  5  9  1  0
  7 10  1  0
  8 11  1  0
  9 12  2  0
 11 13  1  0
 10 14  2  0
 10 15  1  0
 11 16  2  0
 12 16  1  0
 14 17  1  0
 15 18  2  0
 17 19  2  0
 18 19  1  0
M  END
