mac-x0381-mac-x0396
     RDKit          3D

 24 26  0  0  0  0  0  0  0  0999 V2000
   -8.6070   13.5330    5.1040 N   0  0  0  0  0  0  0  0  0  0  0  0
   -8.3160   14.5270    4.1030 C   0  0  0  0  0  0  0  0  0  0  0  0
   -7.6180   15.5060    4.8800 N   0  0  0  0  0  0  0  0  0  0  0  0
   -7.3720   13.8470    3.1080 C   0  0  0  0  0  0  0  0  0  0  0  0
   -9.5880   14.9860    3.4090 C   0  0  0  0  0  0  0  0  0  0  0  0
   -9.5750   15.8630    2.3120 C   0  0  0  0  0  0  0  0  0  0  0  0
  -10.8250   14.5170    3.8550 C   0  0  0  0  0  0  0  0  0  0  0  0
   -7.9540   13.5710    1.7360 C   0  0  0  0  0  0  0  0  0  0  0  0
  -10.7520   16.2590    1.6590 C   0  0  0  0  0  0  0  0  0  0  0  0
  -12.0060   14.8930    3.2200 C   0  0  0  0  0  0  0  0  0  0  0  0
   -7.1220   14.1930    0.6820 C   0  0  0  0  0  0  0  0  0  0  0  0
  -11.9810   15.7560    2.1180 C   0  0  0  0  0  0  0  0  0  0  0  0
  -10.7320   17.1360    0.5620 C   0  0  0  0  0  0  0  0  0  0  0  0
   -7.6940   14.6640   -0.4810 C   0  0  0  0  0  0  0  0  0  0  0  0
   -5.7420   14.3100    0.8450 C   0  0  0  0  0  0  0  0  0  0  0  0
  -13.1640   16.1300    1.4600 C   0  0  0  0  0  0  0  0  0  0  0  0
  -11.9190   17.5040   -0.0740 C   0  0  0  0  0  0  0  0  0  0  0  0
   -4.9870   14.8880   -0.1640 C   0  0  0  0  0  0  0  0  0  0  0  0
   -6.9920   15.2290   -1.4760 N   0  0  0  0  0  0  0  0  0  0  0  0
  -13.1330   16.9990    0.3720 C   0  0  0  0  0  0  0  0  0  0  0  0
   -3.5230   15.0340   -0.0750 C   0  0  0  0  0  0  0  0  0  0  0  0
   -5.6520   15.3290   -1.2960 C   0  0  0  0  0  0  0  0  0  0  0  0
   -2.9560   15.0740    1.1700 N   0  0  0  0  0  0  0  0  0  0  0  0
   -2.8340   15.1030   -1.0800 O   0  0  0  0  0  0  0  0  0  0  0  0
  2  1  1  0
  2  3  1  0
  2  4  1  0
  2  5  1  0
  5  6  2  0
  5  7  1  0
  4  8  1  0
  6  9  1  0
  7 10  2  0
  8 11  1  0
  9 12  2  0
 10 12  1  0
  9 13  1  0
 11 14  2  0
 11 15  1  0
 12 16  1  0
 13 17  2  0
 15 18  2  0
 14 19  1  0
 16 20  2  0
 17 20  1  0
 18 21  1  0
 18 22  1  0
 19 22  2  0
 21 23  1  0
 21 24  2  0
M  END
