mac-x0282-diamond-x0895_0_A
     RDKit          3D

 10 11  0  0  0  0  0  0  0  0999 V2000
   -3.0090   14.1520    2.3400 O   0  0  0  0  0  0  0  0  0  0  0  0
   -3.2760   15.0930    1.4330 N   0  0  2  0  0  0  0  0  0  0  0  0
   -4.2720   14.7750    0.3650 C   0  0  0  0  0  0  0  0  0  0  0  0
   -2.0660   15.0440    0.6950 C   0  0  0  0  0  0  0  0  0  0  0  0
   -3.7060   14.6190   -0.8480 C   0  0  0  0  0  0  0  0  0  0  0  0
   -2.2820   14.7770   -0.6380 C   0  0  0  0  0  0  0  0  0  0  0  0
   -0.9170   15.2320    1.3010 N   0  0  0  0  0  0  0  0  0  0  0  0
   -1.1840   14.7040   -1.4710 C   0  0  0  0  0  0  0  0  0  0  0  0
    0.1350   15.1700    0.4860 C   0  0  0  0  0  0  0  0  0  0  0  0
    0.0670   14.9100   -0.8800 C   0  0  0  0  0  0  0  0  0  0  0  0
  2  1  1  1
  2  3  1  0
  2  4  1  0
  3  5  2  0
  4  6  2  0
  5  6  1  0
  4  7  1  0
  6  8  1  0
  7  9  2  0
  8 10  2  0
  9 10  1  0
M  CHG  2   1  -1   2   1
M  END
