mac-x0365-diamond-x0685_0_A
     RDKit          3D

 14 14  0  0  0  0  0  0  0  0999 V2000
   -0.8940   14.6860   -1.0640 O   0  0  0  0  0  0  0  0  0  0  0  0
   -1.9070   14.7780   -1.9450 C   0  0  0  0  0  0  0  0  0  0  0  0
   -1.7340   14.7700   -3.1540 O   0  0  0  0  0  0  0  0  0  0  0  0
   -3.2670   14.8860   -1.3430 C   0  0  0  0  0  0  0  0  0  0  0  0
   -4.3010   15.0130   -2.2620 C   0  0  0  0  0  0  0  0  0  0  0  0
   -3.5480   14.8600    0.0580 C   0  0  0  0  0  0  0  0  0  0  0  0
   -5.5940   15.1070   -1.8060 C   0  0  0  0  0  0  0  0  0  0  0  0
   -4.8870   14.9570    0.5350 C   0  0  0  0  0  0  0  0  0  0  0  0
   -6.5960   15.2240   -2.6770 F   0  0  0  0  0  0  0  0  0  0  0  0
   -5.2800   14.9400    1.9180 N   0  0  0  0  0  0  0  0  0  0  0  0
   -5.8870   15.0780   -0.4510 C   0  0  0  0  0  0  0  0  0  0  0  0
   -7.2000   15.1680   -0.0680 O   0  0  0  0  0  0  0  0  0  0  0  0
   -6.6600   14.7060    2.4080 C   0  0  0  0  0  0  0  0  0  0  0  0
   -6.9660   13.2190    2.5480 C   0  0  0  0  0  0  0  0  0  0  0  0
  1  2  1  0
  2  3  2  0
  2  4  1  0
  4  5  2  0
  4  6  1  0
  5  7  1  0
  6  8  2  0
  7  9  1  0
  8 10  1  0
  7 11  2  0
  8 11  1  0
 11 12  1  0
 10 13  1  0
 13 14  1  0
M  END
