mac-x0148-mac-x0271
     RDKit          3D

 25 29  0  0  0  0  0  0  0  0999 V2000
   -4.0090   15.2760   -2.2850 O   0  0  0  0  0  0  0  0  0  0  0  0
   -3.9050   14.3010   -1.2480 C   0  0  1  0  0  0  0  0  0  0  0  0
   -2.5600   14.4450   -0.6370 C   0  0  0  0  0  0  0  0  0  0  0  0
   -4.8830   14.6040   -0.0380 C   0  0  1  0  0  0  0  0  0  0  0  0
   -2.6710   14.8600    0.6800 C   0  0  0  0  0  0  0  0  0  0  0  0
   -1.2910   14.2280   -1.1470 C   0  0  0  0  0  0  0  0  0  0  0  0
   -4.0370   15.0540    1.1040 N   0  0  0  0  0  0  0  0  0  0  0  0
   -5.8770   15.6520   -0.4510 C   0  0  0  0  0  0  0  0  0  0  0  0
   -5.7320   13.3640    0.3790 C   0  0  0  0  0  0  0  0  0  0  0  0
   -1.0710   13.7560   -2.4770 N   0  0  0  0  0  0  0  0  0  0  0  0
   -0.2090   14.4340   -0.3750 N   0  0  0  0  0  0  0  0  0  0  0  0
   -1.6150   15.0540    1.4750 N   0  0  0  0  0  0  0  0  0  0  0  0
   -7.2320   15.5300   -0.4160 C   0  0  0  0  0  0  0  0  0  0  0  0
   -7.1180   13.2950   -0.0880 O   0  0  0  0  0  0  0  0  0  0  0  0
   -1.4380   14.4840   -3.7210 C   0  0  2  0  0  0  0  0  0  0  0  0
    0.2600   13.1020   -2.5770 C   0  0  0  0  0  0  0  0  0  0  0  0
   -0.4240   14.8320    0.8930 C   0  0  0  0  0  0  0  0  0  0  0  0
   -7.9030   14.3620    0.0640 C   0  0  0  0  0  0  0  0  0  0  0  0
   -9.0400   14.3890    0.5400 O   0  0  0  0  0  0  0  0  0  0  0  0
   -2.7920   15.1230   -3.9550 C   0  0  0  0  0  0  0  0  0  0  0  0
   -1.5950   13.3130   -4.6950 C   0  0  1  0  0  0  0  0  0  0  0  0
    0.2810   12.1140   -3.7540 C   0  0  0  0  0  0  0  0  0  0  0  0
   -2.5460   13.7720   -5.7730 C   0  0  0  0  0  0  0  0  0  0  0  0
   -2.9310   15.1030   -5.3940 O   0  0  0  0  0  0  0  0  0  0  0  0
   -0.2440   12.7420   -5.0500 C   0  0  0  0  0  0  0  0  0  0  0  0
  2  1  1  6
  2  3  1  0
  2  4  1  0
  3  5  2  0
  3  6  1  0
  4  7  1  0
  5  7  1  0
  4  8  1  6
  4  9  1  0
  6 10  1  0
  6 11  2  0
  5 12  1  0
  8 13  2  0
  9 14  1  0
 10 15  1  0
 10 16  1  0
 11 17  1  0
 12 17  2  0
 13 18  1  0
 14 18  1  0
 18 19  2  0
 15 20  1  1
 15 21  1  0
 16 22  1  0
 21 23  1  6
 20 24  1  0
 23 24  1  0
 21 25  1  0
 22 25  1  0
M  END
