mac-x0380-mac-x0576
     RDKit          3D

 20 23  0  0  0  0  0  0  0  0999 V2000
   -1.4930   15.0270   -2.3460 N   0  0  0  0  0  0  0  0  0  0  0  0
   -2.8020   15.1790   -2.7920 C   0  0  0  0  0  0  0  0  0  0  0  0
   -3.1580   15.3510   -3.9410 O   0  0  0  0  0  0  0  0  0  0  0  0
   -1.6040   14.9010   -1.0600 C   0  0  0  0  0  0  0  0  0  0  0  0
   -3.7040   15.0900   -1.6360 C   0  0  0  0  0  0  0  0  0  0  0  0
   -2.9420   14.9210   -0.5840 C   0  0  0  0  0  0  0  0  0  0  0  0
   -0.6380   14.7220   -0.1300 N   0  0  0  0  0  0  0  0  0  0  0  0
   -5.1240   15.1340   -1.4210 C   0  0  0  0  0  0  0  0  0  0  0  0
   -3.2840   14.7590    0.8000 C   0  0  0  0  0  0  0  0  0  0  0  0
   -0.9860   14.5620    1.1260 C   0  0  0  0  0  0  0  0  0  0  0  0
   -5.9370   15.3250   -2.2650 O   0  0  0  0  0  0  0  0  0  0  0  0
    0.0050   14.3020    2.0140 N   0  0  0  0  0  0  0  0  0  0  0  0
   -5.6120   14.9210   -0.0440 C   0  0  0  0  0  0  0  0  0  0  0  0
   -4.7970   14.7640    1.0220 C   0  0  0  0  0  0  0  0  0  0  0  0
   -2.2830   14.5940    1.6450 N   0  0  0  0  0  0  0  0  0  0  0  0
   -5.3140   14.5730    2.2930 N   0  0  0  0  0  0  0  0  0  0  0  0
   -7.3490   14.8890   -0.0190 S   0  0  0  0  0  0  0  0  0  0  0  0
   -6.6660   14.4800    2.5710 C   0  0  0  0  0  0  0  0  0  0  0  0
   -7.5770   13.9620    1.4900 C   0  0  0  0  0  0  0  0  0  0  0  0
   -7.1170   14.8190    3.6640 O   0  0  0  0  0  0  0  0  0  0  0  0
  1  2  1  0
  2  3  2  0
  1  4  2  0
  2  5  1  0
  4  6  1  0
  5  6  2  0
  4  7  1  0
  5  8  1  0
  6  9  1  0
  7 10  2  0
  8 11  2  0
 10 12  1  0
  8 13  1  0
  9 14  1  0
 13 14  2  0
  9 15  2  0
 10 15  1  0
 14 16  1  0
 13 17  1  0
 16 18  1  0
 17 19  1  0
 18 19  1  0
 18 20  2  0
M  END
