mac-x0433-mac-x0338
     RDKit          3D

 11 11  0  0  0  0  0  0  0  0999 V2000
   -3.1020   15.1270    0.1140 C   0  0  0  0  0  0  0  0  0  0  0  0
   -4.5170   15.0120   -0.3750 C   0  0  0  0  0  0  0  0  0  0  0  0
   -5.5690   14.8370    0.4990 C   0  0  0  0  0  0  0  0  0  0  0  0
   -4.6980   15.0810   -1.7040 N   0  0  0  0  0  0  0  0  0  0  0  0
   -5.9570   14.9650   -2.1360 C   0  0  0  0  0  0  0  0  0  0  0  0
   -6.8270   14.7380   -0.0490 C   0  0  0  0  0  0  0  0  0  0  0  0
   -5.3360   14.7570    1.9430 C   0  0  0  0  0  0  0  0  0  0  0  0
   -8.0590   14.5470    0.7970 C   0  0  0  0  0  0  0  0  0  0  0  0
   -6.1730   15.0040   -3.4870 N   0  0  0  0  0  0  0  0  0  0  0  0
   -7.0300   14.8010   -1.3690 N   0  0  0  0  0  0  0  0  0  0  0  0
   -4.2450   15.6190    2.3030 N   0  0  0  0  0  0  0  0  0  0  0  0
  1  2  1  0
  2  3  2  0
  2  4  1  0
  4  5  2  0
  3  6  1  0
  3  7  1  0
  6  8  1  0
  5  9  1  0
  5 10  1  0
  6 10  2  0
  7 11  1  0
M  END
