mac-x0453-mac-x0212
     RDKit          3D

 13 13  0  0  0  0  0  0  0  0999 V2000
   -6.7690   14.0250    2.6330 N   0  0  0  0  0  0  0  0  0  0  0  0
   -6.0470   14.0430    1.3540 C   0  0  2  0  0  0  0  0  0  0  0  0
   -4.6390   14.6950    1.3440 C   0  0  0  0  0  0  0  0  0  0  0  0
   -7.1080   14.8210    0.0800 S   0  0  0  0  0  0  0  0  0  0  0  0
   -8.0030   13.8020   -0.5340 O   0  0  0  0  0  0  0  0  0  0  0  0
   -4.0330   14.7590   -0.0230 C   0  0  0  0  0  0  0  0  0  0  0  0
   -2.7910   14.3390   -0.4700 C   0  0  0  0  0  0  0  0  0  0  0  0
   -4.7400   15.2950   -1.0640 N   0  0  0  0  0  0  0  0  0  0  0  0
   -2.7510   14.6190   -1.8380 N   0  0  0  0  0  0  0  0  0  0  0  0
   -3.9620   15.2010   -2.1120 C   0  0  0  0  0  0  0  0  0  0  0  0
   -1.7030   14.3730   -2.7540 C   0  0  0  0  0  0  0  0  0  0  0  0
   -0.6060   13.9890   -2.3890 O   0  0  0  0  0  0  0  0  0  0  0  0
   -2.0430   14.5890   -4.0520 O   0  0  0  0  0  0  0  0  0  0  0  0
  2  1  1  1
  2  3  1  0
  2  4  1  0
  4  5  2  0
  3  6  1  0
  6  7  2  0
  6  8  1  0
  7  9  1  0
  8 10  2  0
  9 10  1  0
  9 11  1  0
 11 12  2  0
 11 13  1  0
M  END
