mac-x0396-diamond-x0962_2_B
     RDKit          3D

 17 18  0  0  0  0  0  0  0  0999 V2000
   -2.8650   15.0960    0.9260 N   0  0  0  0  0  0  0  0  0  0  0  0
   -3.6070   15.1060   -0.2250 C   0  0  0  0  0  0  0  0  0  0  0  0
   -3.0680   15.1930   -1.3180 O   0  0  0  0  0  0  0  0  0  0  0  0
   -5.0710   14.9890   -0.0810 C   0  0  0  0  0  0  0  0  0  0  0  0
   -5.9250   15.1350   -1.1650 C   0  0  0  0  0  0  0  0  0  0  0  0
   -5.6470   14.7280    1.1410 C   0  0  0  0  0  0  0  0  0  0  0  0
   -7.2840   15.0290   -1.0730 N   0  0  0  0  0  0  0  0  0  0  0  0
   -7.0230   14.6150    1.2740 C   0  0  0  0  0  0  0  0  0  0  0  0
   -7.8250   14.7730    0.1510 C   0  0  0  0  0  0  0  0  0  0  0  0
   -9.3360   14.6690    0.2440 C   0  0  0  0  0  0  0  0  0  0  0  0
   -9.9920   15.3980    1.4560 C   0  0  2  0  0  0  0  0  0  0  0  0
  -10.2210   16.8120    1.1460 N   0  0  0  0  0  0  0  0  0  0  0  0
   -9.2310   15.2570    2.7410 C   0  0  0  0  0  0  0  0  0  0  0  0
   -8.9670   16.2750    3.6350 N   0  0  0  0  0  0  0  0  0  0  0  0
   -8.6440   14.1500    3.3110 C   0  0  0  0  0  0  0  0  0  0  0  0
   -8.2500   15.7440    4.6720 C   0  0  0  0  0  0  0  0  0  0  0  0
   -8.0470   14.4590    4.5020 N   0  0  0  0  0  0  0  0  0  0  0  0
  1  2  1  0
  2  3  2  0
  2  4  1  0
  4  5  2  0
  4  6  1  0
  5  7  1  0
  6  8  2  0
  7  9  2  0
  8  9  1  0
  9 10  1  0
 10 11  1  0
 11 12  1  6
 11 13  1  0
 13 14  1  0
 13 15  2  0
 14 16  1  0
 15 17  1  0
 16 17  2  0
M  END
