mac-x0568-mac-x0455
     RDKit          3D

 21 22  0  0  0  0  0  0  0  0999 V2000
   -8.3800   14.7250    1.1050 C   0  0  0  0  0  0  0  0  0  0  0  0
   -7.0070   14.7110    0.4960 C   0  0  0  0  0  0  0  0  0  0  0  0
   -5.8900   14.6650    1.3150 C   0  0  0  0  0  0  0  0  0  0  0  0
   -6.9080   14.7500   -0.8530 N   0  0  0  0  0  0  0  0  0  0  0  0
   -5.6580   14.7330   -1.4010 C   0  0  0  0  0  0  0  0  0  0  0  0
   -4.6120   14.6470    0.7400 C   0  0  0  0  0  0  0  0  0  0  0  0
   -4.4860   14.6760   -0.6550 C   0  0  0  0  0  0  0  0  0  0  0  0
   -3.1090   14.6310   -1.2630 C   0  0  0  0  0  0  0  0  0  0  0  0
   -2.7600   14.3760   -2.5080 N   0  0  0  0  0  0  0  0  0  0  0  0
   -2.0840   14.8520   -0.3890 N   0  0  0  0  0  0  0  0  0  0  0  0
   -1.4080   14.2610   -3.1970 C   0  0  1  0  0  0  0  0  0  0  0  0
   -1.2310   15.4020   -4.0610 O   0  0  0  0  0  0  0  0  0  0  0  0
   -0.1820   14.3890   -2.2160 C   0  0  0  0  0  0  0  0  0  0  0  0
   -1.2780   13.0790   -4.1850 C   0  0  0  0  0  0  0  0  0  0  0  0
    0.4570   15.4120   -2.0130 O   0  0  0  0  0  0  0  0  0  0  0  0
    0.2220   13.2750   -1.5630 O   0  0  0  0  0  0  0  0  0  0  0  0
   -2.2410   12.0620   -4.2950 C   0  0  0  0  0  0  0  0  0  0  0  0
   -0.1420   12.9800   -5.0340 C   0  0  0  0  0  0  0  0  0  0  0  0
   -2.0810   11.0000   -5.2000 C   0  0  0  0  0  0  0  0  0  0  0  0
    0.0150   11.9180   -5.9380 C   0  0  0  0  0  0  0  0  0  0  0  0
   -0.9560   10.9280   -6.0190 C   0  0  0  0  0  0  0  0  0  0  0  0
  1  2  1  0
  2  3  2  0
  2  4  1  0
  4  5  2  0
  3  6  1  0
  5  7  1  0
  6  7  2  0
  7  8  1  0
  8  9  2  3
  8 10  1  0
 11  9  1  0
 11 12  1  6
 11 13  1  0
 11 14  1  0
 13 15  2  0
 13 16  1  0
 14 17  2  0
 14 18  1  0
 17 19  1  0
 18 20  2  0
 19 21  2  0
 20 21  1  0
M  END
