mac-x0341-mac-x0451
     RDKit          3D

 12 13  0  0  0  0  0  0  0  0999 V2000
   -6.8580   14.7150    2.3180 N   0  0  0  0  0  0  0  0  0  0  0  0
   -6.0970   14.7640    1.1970 C   0  0  0  0  0  0  0  0  0  0  0  0
   -4.8210   14.8400    1.3280 N   0  0  0  0  0  0  0  0  0  0  0  0
   -6.7130   14.7360   -0.0200 N   0  0  0  0  0  0  0  0  0  0  0  0
   -6.0270   15.0000   -1.1850 C   0  0  0  0  0  0  0  0  0  0  0  0
   -4.0210   14.8500    0.1900 C   0  0  0  0  0  0  0  0  0  0  0  0
   -6.5910   15.2640   -2.2360 O   0  0  0  0  0  0  0  0  0  0  0  0
   -4.5590   14.9290   -1.0870 C   0  0  0  0  0  0  0  0  0  0  0  0
   -2.6410   14.7680    0.3450 C   0  0  0  0  0  0  0  0  0  0  0  0
   -1.8090   14.7660   -0.7780 C   0  0  0  0  0  0  0  0  0  0  0  0
   -3.7440   14.9320   -2.2210 C   0  0  0  0  0  0  0  0  0  0  0  0
   -2.3620   14.8480   -2.0580 C   0  0  0  0  0  0  0  0  0  0  0  0
  1  2  1  0
  2  3  2  0
  2  4  1  0
  4  5  1  0
  3  6  1  0
  5  7  2  0
  5  8  1  0
  6  8  2  0
  6  9  1  0
  9 10  2  0
  8 11  1  0
 10 12  1  0
 11 12  2  0
M  END
