mac-x0178-mac-x0437
     RDKit          3D

 24 26  0  0  0  0  0  0  0  0999 V2000
   -0.3970   18.2670   -6.4780 N   0  0  0  0  0  0  0  0  0  0  0  0
   -1.7690   17.7110   -5.6880 S   0  0  0  0  0  0  0  0  0  0  0  0
   -2.6890   17.2430   -6.6960 O   0  0  0  0  0  0  0  0  0  0  0  0
   -2.0840   18.7230   -4.7190 O   0  0  0  0  0  0  0  0  0  0  0  0
   -1.1220   16.3250   -4.8210 C   0  0  0  0  0  0  0  0  0  0  0  0
    0.1830   16.3950   -4.3380 C   0  0  0  0  0  0  0  0  0  0  0  0
   -1.9130   15.1950   -4.6340 C   0  0  0  0  0  0  0  0  0  0  0  0
    0.7060   15.3040   -3.6680 C   0  0  0  0  0  0  0  0  0  0  0  0
   -1.3810   14.1040   -3.9600 C   0  0  0  0  0  0  0  0  0  0  0  0
   -0.0660   14.1520   -3.4820 C   0  0  0  0  0  0  0  0  0  0  0  0
    0.5920   12.9970   -2.7990 C   0  0  0  0  0  0  0  0  0  0  0  0
    1.3500   13.3320   -1.6640 O   0  0  0  0  0  0  0  0  0  0  0  0
   -0.2780   11.9570   -2.4070 O   0  0  0  0  0  0  0  0  0  0  0  0
    1.4630   12.5830   -3.9650 C   0  0  0  0  0  0  0  0  0  0  0  0
    0.7780   12.7940   -5.3310 C   0  0  0  0  0  0  0  0  0  0  0  0
   -0.2330   11.7850   -5.6010 N   0  0  0  0  0  0  0  0  0  0  0  0
   -1.4060   11.5750   -4.9260 C   0  0  0  0  0  0  0  0  0  0  0  0
   -0.1550   10.8590   -6.5930 C   0  0  0  0  0  0  0  0  0  0  0  0
   -2.0840   10.5630   -5.4220 N   0  0  0  0  0  0  0  0  0  0  0  0
   -1.3140   10.1040   -6.4580 C   0  0  0  0  0  0  0  0  0  0  0  0
    0.8010   10.6160   -7.5710 C   0  0  0  0  0  0  0  0  0  0  0  0
   -1.5380    9.0380   -7.3370 C   0  0  0  0  0  0  0  0  0  0  0  0
    0.5690    9.5540   -8.4410 C   0  0  0  0  0  0  0  0  0  0  0  0
   -0.5830    8.7710   -8.3280 C   0  0  0  0  0  0  0  0  0  0  0  0
  2  1  1  0
  2  3  2  0
  2  4  2  0
  2  5  1  0
  5  6  2  0
  5  7  1  0
  6  8  1  0
  7  9  2  0
  8 10  2  0
  9 10  1  0
 10 11  1  0
 11 12  1  0
 11 13  1  0
 11 14  1  0
 14 15  1  0
 15 16  1  0
 16 17  1  0
 16 18  1  0
 17 19  2  0
 18 20  2  0
 19 20  1  0
 18 21  1  0
 20 22  1  0
 21 23  2  0
 22 24  2  0
 23 24  1  0
M  END
