mac-x0361-diamond-x0933_0_A
     RDKit          3D

 10 10  0  0  0  0  0  0  0  0999 V2000
   -6.1960   14.7460    1.6400 N   0  0  0  0  0  0  0  0  0  0  0  0
   -6.4730   14.7420    0.3010 C   0  0  0  0  0  0  0  0  0  0  0  0
   -7.6280   14.6650   -0.0970 O   0  0  0  0  0  0  0  0  0  0  0  0
   -5.3210   14.8370   -0.6360 C   0  0  0  0  0  0  0  0  0  0  0  0
   -3.9970   14.7420   -0.1830 C   0  0  0  0  0  0  0  0  0  0  0  0
   -5.5740   15.0210   -1.9970 C   0  0  0  0  0  0  0  0  0  0  0  0
   -2.9420   14.8330   -1.0900 C   0  0  0  0  0  0  0  0  0  0  0  0
   -4.5150   15.1070   -2.8990 C   0  0  0  0  0  0  0  0  0  0  0  0
   -3.2100   15.0150   -2.4420 C   0  0  0  0  0  0  0  0  0  0  0  0
   -2.2150   15.1130   -3.3650 O   0  0  0  0  0  0  0  0  0  0  0  0
  1  2  1  0
  2  3  2  0
  2  4  1  0
  4  5  2  0
  4  6  1  0
  5  7  1  0
  6  8  2  0
  7  9  2  0
  8  9  1  0
  9 10  1  0
M  END
