mac-x0411-diamond-x0128_0_A
     RDKit          3D

 32 34  0  0  0  0  0  0  0  0999 V2000
    0.6230    8.9220   -7.7390 Cl  0  0  0  0  0  0  0  0  0  0  0  0
   -0.6650    9.5910   -6.7960 C   0  0  0  0  0  0  0  0  0  0  0  0
   -0.5610   10.8330   -6.1160 C   0  0  0  0  0  0  0  0  0  0  0  0
   -1.8400    8.8460   -6.7370 C   0  0  0  0  0  0  0  0  0  0  0  0
    0.6330   11.5300   -6.2010 O   0  0  0  0  0  0  0  0  0  0  0  0
   -1.6770   11.3290   -5.3730 C   0  0  0  0  0  0  0  0  0  0  0  0
   -2.9240    9.3190   -6.0130 C   0  0  0  0  0  0  0  0  0  0  0  0
   -1.6840   12.6540   -4.6120 C   0  0  0  0  0  0  0  0  0  0  0  0
    0.9230   12.4930   -5.1710 C   0  0  0  0  0  0  0  0  0  0  0  0
   -2.8430   10.5420   -5.3430 C   0  0  0  0  0  0  0  0  0  0  0  0
    0.8580   11.9140   -3.7650 C   0  0  0  0  0  0  0  0  0  0  0  0
   -3.0590   13.1570   -4.1050 C   0  0  0  0  0  0  0  0  0  0  0  0
    1.3480   12.7590   -2.8340 O   0  0  0  0  0  0  0  0  0  0  0  0
    0.4370   10.8280   -3.4110 O   0  0  0  0  0  0  0  0  0  0  0  0
   -2.9540   14.1780   -2.9440 C   0  0  0  0  0  0  0  0  0  0  0  0
   -4.2010   15.0650   -2.7230 C   0  0  0  0  0  0  0  0  0  0  0  0
   -4.8860   14.9750   -1.3690 C   0  0  0  0  0  0  0  0  0  0  0  0
   -6.2570   14.7120   -1.2190 C   0  0  0  0  0  0  0  0  0  0  0  0
   -4.1190   15.1550   -0.2110 C   0  0  0  0  0  0  0  0  0  0  0  0
   -6.8400   14.6220    0.0580 C   0  0  0  0  0  0  0  0  0  0  0  0
   -4.6980   15.0660    1.0580 C   0  0  0  0  0  0  0  0  0  0  0  0
   -6.0600   14.7940    1.2070 C   0  0  0  0  0  0  0  0  0  0  0  0
   -6.6750   14.6810    2.4760 N   0  0  0  0  0  0  0  0  0  0  0  0
   -7.8440   15.2340    2.9840 C   0  0  0  0  0  0  0  0  0  0  0  0
   -8.8280   15.5680    2.3380 O   0  0  0  0  0  0  0  0  0  0  0  0
   -7.7110   15.3560    4.3670 N   0  0  0  0  0  0  0  0  0  0  0  0
   -8.5080   16.0970    5.2720 C   0  0  0  0  0  0  0  0  0  0  0  0
   -9.1740   17.2450    4.8410 C   0  0  0  0  0  0  0  0  0  0  0  0
   -8.6780   15.7460    6.6110 C   0  0  0  0  0  0  0  0  0  0  0  0
   -9.9600   18.0240    5.6210 N   0  0  0  0  0  0  0  0  0  0  0  0
   -9.4790   16.5290    7.4410 C   0  0  0  0  0  0  0  0  0  0  0  0
  -10.0940   17.6490    6.9050 C   0  0  0  0  0  0  0  0  0  0  0  0
  1  2  1  0
  2  3  2  0
  2  4  1  0
  3  5  1  0
  3  6  1  0
  4  7  2  0
  6  8  1  0
  5  9  1  0
  6 10  2  0
  7 10  1  0
  9 11  1  0
  8 12  1  0
 11 13  1  0
 11 14  2  0
 12 15  1  0
 15 16  1  0
 16 17  1  0
 17 18  2  0
 17 19  1  0
 18 20  1  0
 19 21  2  0
 20 22  2  0
 21 22  1  0
 22 23  1  0
 23 24  1  0
 24 25  2  0
 24 26  1  0
 26 27  1  0
 27 28  2  0
 27 29  1  0
 28 30  1  0
 29 31  2  0
 30 32  2  0
 31 32  1  0
M  END
