mac-x0587-mac-x0224
     RDKit          3D

 17 17  0  0  0  0  0  0  0  0999 V2000
    0.2230   16.0890   -4.1920 C   0  0  0  0  0  0  0  0  0  0  0  0
   -0.5300   14.8260   -3.7940 C   0  0  2  0  0  0  0  0  0  0  0  0
   -0.2050   13.4180   -4.9460 S   0  0  0  0  0  0  0  0  0  0  0  0
   -2.0510   15.0160   -3.5700 C   0  0  0  0  0  0  0  0  0  0  0  0
   -0.6070   11.9680   -3.8990 C   0  0  0  0  0  0  0  0  0  0  0  0
   -2.7430   15.2920   -4.5540 O   0  0  0  0  0  0  0  0  0  0  0  0
   -2.6300   14.9010   -2.3240 N   0  0  0  0  0  0  0  0  0  0  0  0
    0.4920   11.5420   -2.9480 C   0  0  0  0  0  0  0  0  0  0  0  0
   -4.0020   15.2010   -1.9740 C   0  0  0  0  0  0  0  0  0  0  0  0
   -1.9170   14.7500   -1.1000 C   0  0  0  0  0  0  0  0  0  0  0  0
    0.5500   10.3950   -2.5060 O   0  0  0  0  0  0  0  0  0  0  0  0
    1.3900   12.5000   -2.6130 O   0  0  0  0  0  0  0  0  0  0  0  0
   -0.7100   14.8300   -0.9190 O   0  0  0  0  0  0  0  0  0  0  0  0
   -4.2070   14.4510   -0.6890 C   0  0  0  0  0  0  0  0  0  0  0  0
   -2.9010   14.4970   -0.1030 N   0  0  0  0  0  0  0  0  0  0  0  0
   -2.7390   14.8520    1.5290 S   0  0  0  0  0  0  0  0  0  0  0  0
   -4.4340   15.3970    1.8520 C   0  0  0  0  0  0  0  0  0  0  0  0
  2  1  1  6
  2  3  1  0
  2  4  1  0
  3  5  1  0
  4  6  2  0
  4  7  1  0
  5  8  1  0
  7  9  1  0
  7 10  1  0
  8 11  2  0
  8 12  1  0
 10 13  2  0
  9 14  1  0
 10 15  1  0
 14 15  1  0
 15 16  1  0
 16 17  1  0
M  END
