mac-x0379-diamond-x0895_0_A
     RDKit          3D

 15 16  0  0  0  0  0  0  0  0999 V2000
   -5.7240   13.3420   -0.7530 C   0  0  0  0  0  0  0  0  0  0  0  0
   -4.7950   13.9160   -1.8300 C   0  0  1  0  0  0  0  0  0  0  0  0
   -4.4500   15.2590   -1.5830 N   0  0  0  0  0  0  0  0  0  0  0  0
   -3.1110   13.1480   -1.7270 S   0  0  0  0  0  0  0  0  0  0  0  0
   -3.4900   15.4190   -2.6830 C   0  0  0  0  0  0  0  0  0  0  0  0
   -2.2730   14.6920   -2.2000 C   0  0  2  0  0  0  0  0  0  0  0  0
   -3.9720   15.0180   -0.2420 C   0  0  2  0  0  0  0  0  0  0  0  0
   -1.1700   14.6050   -3.2310 C   0  0  0  0  0  0  0  0  0  0  0  0
   -4.4490   15.9130    0.7550 N   0  0  0  0  0  0  0  0  0  0  0  0
   -2.6030   15.0350    0.0170 N   0  0  0  0  0  0  0  0  0  0  0  0
   -1.2710   14.4100   -4.4300 O   0  0  0  0  0  0  0  0  0  0  0  0
    0.0540   14.7970   -2.6920 O   0  0  0  0  0  0  0  0  0  0  0  0
   -3.8730   15.1870    1.9000 C   0  0  0  0  0  0  0  0  0  0  0  0
   -2.4770   14.8970    1.3730 C   0  0  0  0  0  0  0  0  0  0  0  0
   -1.4680   14.6090    1.9770 O   0  0  0  0  0  0  0  0  0  0  0  0
  2  1  1  1
  2  3  1  0
  2  4  1  0
  3  5  1  0
  4  6  1  0
  5  6  1  0
  7  3  1  6
  6  8  1  6
  7  9  1  0
  7 10  1  0
  8 11  2  0
  8 12  1  0
  9 13  1  0
 10 14  1  0
 13 14  1  0
 14 15  2  0
M  END
