mac-x0182-diamond-x0371_0_A
     RDKit          3D

 32 36  0  0  0  0  0  0  0  0999 V2000
    1.7290   11.8900   -6.9060 O   0  0  0  0  0  0  0  0  0  0  0  0
    0.7580   11.6390   -6.2330 C   0  0  0  0  0  0  0  0  0  0  0  0
    0.4530   12.2430   -5.0390 N   0  0  0  0  0  0  0  0  0  0  0  0
   -0.2340   10.5910   -6.6080 C   0  0  0  0  0  0  0  0  0  0  0  0
   -0.7950   11.4240   -4.2540 S   0  0  2  0  0  0  0  0  0  0  0  0
   -1.1620   10.3640   -5.5970 C   0  0  0  0  0  0  0  0  0  0  0  0
   -0.2960    9.8770   -7.7950 C   0  0  0  0  0  0  0  0  0  0  0  0
   -1.8660   12.5260   -4.0940 N   0  0  0  0  0  0  0  0  0  0  0  0
   -0.1570   10.6350   -3.2180 O   0  0  0  0  0  0  0  0  0  0  0  0
   -2.1810    9.4290   -5.7150 C   0  0  0  0  0  0  0  0  0  0  0  0
   -1.3190    8.9210   -7.9450 C   0  0  0  0  0  0  0  0  0  0  0  0
   -1.5350   13.7720   -3.3270 C   0  0  0  0  0  0  0  0  0  0  0  0
   -2.2510    8.7020   -6.9120 C   0  0  0  0  0  0  0  0  0  0  0  0
   -2.6870   14.8230   -3.3110 C   0  0  0  0  0  0  0  0  0  0  0  0
   -3.4710   14.8180   -2.0010 C   0  0  0  0  0  0  0  0  0  0  0  0
   -2.8000   14.8550   -0.7640 C   0  0  0  0  0  0  0  0  0  0  0  0
   -4.8770   14.7590   -2.0170 C   0  0  0  0  0  0  0  0  0  0  0  0
   -5.5760   14.7090   -0.7970 C   0  0  0  0  0  0  0  0  0  0  0  0
   -3.4820   14.8170    0.4620 C   0  0  0  0  0  0  0  0  0  0  0  0
   -6.9280   14.6270   -0.5650 N   0  0  0  0  0  0  0  0  0  0  0  0
   -4.8680   14.7320    0.3940 C   0  0  0  0  0  0  0  0  0  0  0  0
   -5.8310   14.6450    1.3650 N   0  0  0  0  0  0  0  0  0  0  0  0
   -7.0600   14.5780    0.7440 C   0  0  0  0  0  0  0  0  0  0  0  0
   -8.3390   14.4610    1.5020 C   0  0  0  0  0  0  0  0  0  0  0  0
   -8.0950   14.6250    2.9150 N   0  0  0  0  0  0  0  0  0  0  0  0
   -8.8080   15.5790    3.6150 C   0  0  0  0  0  0  0  0  0  0  0  0
   -9.5190   16.3900    3.0190 O   0  0  0  0  0  0  0  0  0  0  0  0
   -8.6620   15.5370    5.0510 C   0  0  0  0  0  0  0  0  0  0  0  0
   -8.0530   14.4450    5.6080 O   0  0  0  0  0  0  0  0  0  0  0  0
   -9.0240   16.4090    6.0600 C   0  0  0  0  0  0  0  0  0  0  0  0
   -8.6130   15.8190    7.2830 C   0  0  0  0  0  0  0  0  0  0  0  0
   -8.0250   14.6240    6.9510 C   0  0  0  0  0  0  0  0  0  0  0  0
  1  2  2  0
  2  3  1  0
  2  4  1  0
  5  3  1  6
  4  6  2  0
  5  6  1  0
  4  7  1  0
  5  8  2  0
  5  9  2  0
  6 10  1  0
  7 11  2  0
  8 12  1  0
 10 13  2  0
 11 13  1  0
 12 14  1  0
 14 15  1  0
 15 16  2  0
 15 17  1  0
 17 18  2  0
 16 19  1  0
 18 20  1  0
 18 21  1  0
 19 21  2  0
 21 22  1  0
 20 23  2  0
 22 23  1  0
 23 24  1  0
 24 25  1  0
 25 26  1  0
 26 27  2  0
 26 28  1  0
 28 29  1  0
 28 30  2  0
 30 31  1  0
 29 32  1  0
 31 32  2  0
M  END
