mac-x0381-mac-x0567
     RDKit          3D

 26 29  0  0  0  0  0  0  0  0999 V2000
   -8.1630   13.2340    4.0140 N   0  0  0  0  0  0  0  0  0  0  0  0
   -8.2640   14.5670    3.7220 C   0  0  0  0  0  0  0  0  0  0  0  0
   -7.2010   15.2580    3.7250 N   0  0  0  0  0  0  0  0  0  0  0  0
   -9.5750   15.1240    3.3770 C   0  0  0  0  0  0  0  0  0  0  0  0
   -5.9560   14.5960    4.0080 C   0  0  0  0  0  0  0  0  0  0  0  0
   -9.6910   15.7830    2.1550 C   0  0  0  0  0  0  0  0  0  0  0  0
  -10.6600   14.9910    4.2380 C   0  0  0  0  0  0  0  0  0  0  0  0
   -5.2280   14.4580    2.6730 C   0  0  0  0  0  0  0  0  0  0  0  0
  -10.9100   16.3220    1.7650 C   0  0  0  0  0  0  0  0  0  0  0  0
  -11.8870   15.5300    3.8560 C   0  0  0  0  0  0  0  0  0  0  0  0
   -3.9210   15.2200    2.6740 C   0  0  0  0  0  0  0  0  0  0  0  0
  -12.0270   16.1940    2.6210 C   0  0  0  0  0  0  0  0  0  0  0  0
  -11.0430   16.9840    0.5340 C   0  0  0  0  0  0  0  0  0  0  0  0
  -13.2560   16.7310    2.2230 C   0  0  0  0  0  0  0  0  0  0  0  0
  -12.2760   17.5070    0.1530 C   0  0  0  0  0  0  0  0  0  0  0  0
   -3.0060   14.9090    1.5870 N   0  0  0  0  0  0  0  0  0  0  0  0
  -13.3810   17.3810    0.9950 C   0  0  0  0  0  0  0  0  0  0  0  0
   -1.7290   14.4740    1.7820 N   0  0  0  0  0  0  0  0  0  0  0  0
   -3.3400   15.0230    0.2840 C   0  0  0  0  0  0  0  0  0  0  0  0
   -1.2470   14.3040    0.5540 C   0  0  0  0  0  0  0  0  0  0  0  0
   -2.2120   14.6320   -0.4290 C   0  0  0  0  0  0  0  0  0  0  0  0
   -4.5250   15.4310   -0.3200 C   0  0  0  0  0  0  0  0  0  0  0  0
    0.0020   13.8700    0.2530 N   0  0  0  0  0  0  0  0  0  0  0  0
   -4.5670   15.4390   -1.7070 C   0  0  0  0  0  0  0  0  0  0  0  0
   -2.2740   14.6470   -1.8330 C   0  0  0  0  0  0  0  0  0  0  0  0
   -3.4570   15.0530   -2.4570 C   0  0  0  0  0  0  0  0  0  0  0  0
  1  2  1  0
  2  3  2  3
  2  4  1  0
  3  5  1  0
  4  6  2  0
  4  7  1  0
  5  8  1  0
  6  9  1  0
  7 10  2  0
  8 11  1  0
  9 12  2  0
 10 12  1  0
  9 13  1  0
 12 14  1  0
 13 15  2  0
 11 16  1  0
 14 17  2  0
 15 17  1  0
 16 18  1  0
 16 19  1  0
 18 20  2  0
 19 21  2  0
 20 21  1  0
 19 22  1  0
 20 23  1  0
 22 24  2  0
 21 25  1  0
 24 26  1  0
 25 26  2  0
M  END
