mac-x0375-mac-x0193
     RDKit          3D

 20 21  0  0  0  0  0  0  0  0999 V2000
    1.3590   12.9290   -2.6410 O   0  0  0  0  0  0  0  0  0  0  0  0
    0.8210   12.0430   -3.5030 C   0  0  0  0  0  0  0  0  0  0  0  0
    0.5500   10.9230   -3.1060 O   0  0  0  0  0  0  0  0  0  0  0  0
    0.5940   12.5350   -4.9290 C   0  0  0  0  0  0  0  0  0  0  0  0
    0.4070   11.4580   -5.9190 N   0  0  0  0  0  0  0  0  0  0  0  0
    1.1810   11.5310   -7.0470 C   0  0  0  0  0  0  0  0  0  0  0  0
   -0.7710   10.6920   -5.9480 C   0  0  0  0  0  0  0  0  0  0  0  0
    2.3470   11.8280   -6.9920 O   0  0  0  0  0  0  0  0  0  0  0  0
    0.5220   11.2750   -8.2290 N   0  0  0  0  0  0  0  0  0  0  0  0
   -0.7080    9.3470   -6.3250 C   0  0  0  0  0  0  0  0  0  0  0  0
   -2.0040   11.2380   -5.6230 C   0  0  0  0  0  0  0  0  0  0  0  0
   -1.8500    8.5620   -6.3780 C   0  0  0  0  0  0  0  0  0  0  0  0
   -3.1540   10.4560   -5.6760 C   0  0  0  0  0  0  0  0  0  0  0  0
    0.4000    9.9730   -8.8910 C   0  0  0  0  0  0  0  0  0  0  0  0
   -3.0790    9.1190   -6.0510 C   0  0  0  0  0  0  0  0  0  0  0  0
    1.7340    9.2650   -8.9820 C   0  0  0  0  0  0  0  0  0  0  0  0
   -0.2600   10.0420  -10.2660 C   0  0  0  0  0  0  0  0  0  0  0  0
    1.7350    7.9440   -9.7400 C   0  0  0  0  0  0  0  0  0  0  0  0
    0.6800    9.5540  -11.3810 C   0  0  0  0  0  0  0  0  0  0  0  0
    1.2470    8.1450  -11.1630 C   0  0  0  0  0  0  0  0  0  0  0  0
  1  2  1  0
  2  3  2  0
  2  4  1  0
  4  5  1  0
  5  6  1  0
  5  7  1  0
  6  8  2  0
  6  9  1  0
  7 10  2  0
  7 11  1  0
 10 12  1  0
 11 13  2  0
  9 14  1  0
 12 15  2  0
 13 15  1  0
 14 16  1  0
 14 17  1  0
 16 18  1  0
 17 19  1  0
 18 20  1  0
 19 20  1  0
M  END
