mac-x0277-diamond-x0950_1_A
     RDKit          3D

 14 14  0  0  0  0  0  0  0  0999 V2000
   -1.3210   18.4580   -5.2210 Cl  0  0  0  0  0  0  0  0  0  0  0  0
   -0.6700   16.8850   -4.9630 C   0  0  0  0  0  0  0  0  0  0  0  0
   -1.4570   15.7380   -5.0610 C   0  0  0  0  0  0  0  0  0  0  0  0
    0.6820   16.7680   -4.6530 C   0  0  0  0  0  0  0  0  0  0  0  0
   -3.1340   15.7880   -5.4400 Cl  0  0  0  0  0  0  0  0  0  0  0  0
   -0.8990   14.4770   -4.8560 C   0  0  0  0  0  0  0  0  0  0  0  0
    1.2370   15.5060   -4.4480 C   0  0  0  0  0  0  0  0  0  0  0  0
    0.4540   14.3340   -4.5490 C   0  0  0  0  0  0  0  0  0  0  0  0
    1.1040   12.9770   -4.3230 C   0  0  2  0  0  0  0  0  0  0  0  0
    0.8030   12.3910   -2.9170 C   0  0  0  0  0  0  0  0  0  0  0  0
    2.6020   13.0380   -4.4780 C   0  0  0  0  0  0  0  0  0  0  0  0
    0.6220   12.0620   -5.3260 O   0  0  0  0  0  0  0  0  0  0  0  0
    0.0750   11.2560   -2.9000 O   0  0  0  0  0  0  0  0  0  0  0  0
    1.1870   12.9250   -1.8890 O   0  0  0  0  0  0  0  0  0  0  0  0
  1  2  1  0
  2  3  2  0
  2  4  1  0
  3  5  1  0
  3  6  1  0
  4  7  2  0
  6  8  2  0
  7  8  1  0
  8  9  1  0
  9 10  1  0
  9 11  1  6
  9 12  1  0
 10 13  1  0
 10 14  2  0
M  END
