mac-x0381-diamond-x0926_0_A
     RDKit          3D

 23 25  0  0  0  0  0  0  0  0999 V2000
   -8.2120   13.4050    4.4780 N   0  0  0  0  0  0  0  0  0  0  0  0
   -8.1040   14.6390    3.7420 C   0  0  0  0  0  0  0  0  0  0  0  0
   -7.4120   15.4780    4.6970 N   0  0  0  0  0  0  0  0  0  0  0  0
   -7.2740   14.4110    2.4530 C   0  0  0  0  0  0  0  0  0  0  0  0
   -9.4890   15.1860    3.3870 C   0  0  0  0  0  0  0  0  0  0  0  0
   -8.0440   14.4310    1.1150 C   0  0  0  0  0  0  0  0  0  0  0  0
   -9.6470   15.9950    2.2460 C   0  0  0  0  0  0  0  0  0  0  0  0
  -10.6390   14.9210    4.1440 C   0  0  0  0  0  0  0  0  0  0  0  0
   -7.3870   13.5320    0.0750 C   0  0  0  0  0  0  0  0  0  0  0  0
  -10.8800   16.5200    1.8570 C   0  0  0  0  0  0  0  0  0  0  0  0
  -11.8870   15.4360    3.7730 C   0  0  0  0  0  0  0  0  0  0  0  0
   -6.5470   14.3000   -0.8410 N   0  0  0  0  0  0  0  0  0  0  0  0
  -12.0220   16.2360    2.6280 C   0  0  0  0  0  0  0  0  0  0  0  0
  -10.9980   17.3220    0.7120 C   0  0  0  0  0  0  0  0  0  0  0  0
  -13.2630   16.7550    2.2350 C   0  0  0  0  0  0  0  0  0  0  0  0
  -12.2360   17.8350    0.3310 C   0  0  0  0  0  0  0  0  0  0  0  0
   -5.4510   14.8740   -0.4650 C   0  0  0  0  0  0  0  0  0  0  0  0
  -13.3690   17.5500    1.0930 C   0  0  0  0  0  0  0  0  0  0  0  0
   -4.8700   14.8760    0.9580 C   0  0  0  0  0  0  0  0  0  0  0  0
   -4.6940   15.5190   -1.4080 N   0  0  0  0  0  0  0  0  0  0  0  0
   -3.3480   15.2740   -1.3900 N   0  0  0  0  0  0  0  0  0  0  0  0
   -3.3770   14.8240    0.9510 C   0  0  0  0  0  0  0  0  0  0  0  0
   -2.7080   15.0150   -0.1920 C   0  0  0  0  0  0  0  0  0  0  0  0
  2  1  1  0
  2  3  1  0
  2  4  1  0
  2  5  1  0
  4  6  1  0
  5  7  2  0
  5  8  1  0
  6  9  1  0
  7 10  1  0
  8 11  2  0
  9 12  1  0
 10 13  2  0
 11 13  1  0
 10 14  1  0
 13 15  1  0
 14 16  2  0
 12 17  2  3
 15 18  2  0
 16 18  1  0
 17 19  1  0
 17 20  1  0
 20 21  1  0
 19 22  1  0
 21 23  1  0
 22 23  2  0
M  END
