mac-x0182-mac-x0565
     RDKit          3D

 24 27  0  0  0  0  0  0  0  0999 V2000
    1.7540   11.8630   -7.0340 O   0  0  0  0  0  0  0  0  0  0  0  0
    0.8270   11.5920   -6.3350 C   0  0  0  0  0  0  0  0  0  0  0  0
    0.5880   12.1650   -5.1210 N   0  0  0  0  0  0  0  0  0  0  0  0
   -0.1730   10.5510   -6.6690 C   0  0  0  0  0  0  0  0  0  0  0  0
   -0.8710   11.6550   -4.4860 S   0  0  2  0  0  0  0  0  0  0  0  0
   -1.1760   10.4610   -5.7190 C   0  0  0  0  0  0  0  0  0  0  0  0
   -0.1760    9.7160   -7.7780 C   0  0  0  0  0  0  0  0  0  0  0  0
   -1.8100   12.8650   -4.7630 N   0  0  0  0  0  0  0  0  0  0  0  0
   -0.5260   10.9740   -3.2520 O   0  0  0  0  0  0  0  0  0  0  0  0
   -2.2150    9.5560   -5.8010 C   0  0  0  0  0  0  0  0  0  0  0  0
   -1.2170    8.7870   -7.8980 C   0  0  0  0  0  0  0  0  0  0  0  0
   -2.2260    8.7050   -6.9170 C   0  0  0  0  0  0  0  0  0  0  0  0
   -1.9010   14.1940   -4.0580 N   0  0  0  0  0  0  0  0  0  0  0  0
   -3.0360   14.4800   -3.2840 C   0  0  0  0  0  0  0  0  0  0  0  0
   -0.8460   14.6600   -3.1420 C   0  0  0  0  0  0  0  0  0  0  0  0
   -2.6910   14.6510   -1.9560 C   0  0  0  0  0  0  0  0  0  0  0  0
   -4.3550   14.5780   -3.6890 C   0  0  0  0  0  0  0  0  0  0  0  0
   -1.3370   14.5410   -1.7710 O   0  0  0  0  0  0  0  0  0  0  0  0
   -3.6250   14.8950   -0.9690 C   0  0  0  0  0  0  0  0  0  0  0  0
   -5.3310   14.8230   -2.7190 C   0  0  0  0  0  0  0  0  0  0  0  0
   -4.9660   14.9670   -1.3660 C   0  0  0  0  0  0  0  0  0  0  0  0
   -6.0390   15.1840   -0.3750 C   0  0  0  0  0  0  0  0  0  0  0  0
   -5.5670   15.3090    0.8830 O   0  0  0  0  0  0  0  0  0  0  0  0
   -7.2230   15.2170   -0.6590 O   0  0  0  0  0  0  0  0  0  0  0  0
  1  2  2  0
  2  3  1  0
  2  4  1  0
  5  3  1  6
  4  6  2  0
  5  6  1  0
  4  7  1  0
  5  8  2  0
  5  9  2  0
  6 10  1  0
  7 11  2  0
 10 12  2  0
 11 12  1  0
  8 13  1  0
 13 14  1  0
 13 15  1  0
 14 16  2  0
 14 17  1  0
 15 18  1  0
 16 18  1  0
 16 19  1  0
 17 20  2  0
 19 21  2  0
 20 21  1  0
 21 22  1  0
 22 23  1  0
 22 24  2  0
M  END
