mac-x0385-diamond-x0849_0_A
     RDKit          3D

 14 15  0  0  0  0  0  0  0  0999 V2000
   -5.4550   15.5880   -0.7650 C   0  0  0  0  0  0  0  0  0  0  0  0
   -4.0450   15.2930   -0.4100 C   0  0  0  0  0  0  0  0  0  0  0  0
   -3.1040   14.7550   -1.3730 C   0  0  0  0  0  0  0  0  0  0  0  0
   -3.4530   15.4340    0.7900 C   0  0  0  0  0  0  0  0  0  0  0  0
   -3.9980   15.8550    1.9810 N   0  0  0  0  0  0  0  0  0  0  0  0
   -3.5330   14.4600   -3.1360 Br  0  0  0  0  0  0  0  0  0  0  0  0
   -1.9850   15.0100    0.6300 C   0  0  1  0  0  0  0  0  0  0  0  0
   -1.9320   14.5290   -0.7730 C   0  0  0  0  0  0  0  0  0  0  0  0
   -0.9130   16.0470    0.4620 C   0  0  0  0  0  0  0  0  0  0  0  0
   -0.7510   14.0460   -1.2320 N   0  0  0  0  0  0  0  0  0  0  0  0
   -1.3940   14.2660    1.7230 N   0  0  0  0  0  0  0  0  0  0  0  0
    0.4550   15.4110    0.5200 C   0  0  0  0  0  0  0  0  0  0  0  0
   -0.3810   13.6480    1.2380 C   0  0  0  0  0  0  0  0  0  0  0  0
    0.0090   13.6530   -0.2450 C   0  0  0  0  0  0  0  0  0  0  0  0
  1  2  1  0
  2  3  1  0
  2  4  2  0
  4  5  1  0
  3  6  1  0
  4  7  1  0
  3  8  2  0
  7  8  1  0
  7  9  1  6
  8 10  1  0
  7 11  1  0
  9 12  1  0
 11 13  2  0
 10 14  2  0
 13 14  1  0
M  END
