mac-x0341-mac-x0572
     RDKit          3D

 13 14  0  0  0  0  0  0  0  0999 V2000
   -6.9260   14.6790    2.5030 N   0  0  0  0  0  0  0  0  0  0  0  0
   -6.1630   14.7180    1.3710 C   0  0  0  0  0  0  0  0  0  0  0  0
   -4.8740   14.7860    1.4660 N   0  0  0  0  0  0  0  0  0  0  0  0
   -6.7990   14.6910    0.1520 N   0  0  0  0  0  0  0  0  0  0  0  0
   -8.2060   14.4790    0.1560 O   0  0  0  0  0  0  0  0  0  0  0  0
   -6.1520   14.9360   -1.0530 C   0  0  0  0  0  0  0  0  0  0  0  0
   -4.1020   14.8090    0.2960 C   0  0  0  0  0  0  0  0  0  0  0  0
   -6.7370   15.1650   -2.1050 O   0  0  0  0  0  0  0  0  0  0  0  0
   -4.6750   14.8830   -0.9750 C   0  0  0  0  0  0  0  0  0  0  0  0
   -2.7160   14.7490    0.4090 C   0  0  0  0  0  0  0  0  0  0  0  0
   -1.9110   14.7610   -0.7340 C   0  0  0  0  0  0  0  0  0  0  0  0
   -3.8840   14.8990   -2.1280 C   0  0  0  0  0  0  0  0  0  0  0  0
   -2.4960   14.8370   -2.0010 C   0  0  0  0  0  0  0  0  0  0  0  0
  1  2  1  0
  2  3  2  0
  2  4  1  0
  4  5  1  0
  4  6  1  0
  3  7  1  0
  6  8  2  0
  6  9  1  0
  7  9  2  0
  7 10  1  0
 10 11  2  0
  9 12  1  0
 11 13  1  0
 12 13  2  0
M  END
