mac-x0404-mac-x0132
     RDKit          3D

 27 30  0  0  0  0  0  0  0  0999 V2000
    1.2490   13.0090   -2.0420 O   0  0  0  0  0  0  0  0  0  0  0  0
    1.1860   12.1950   -3.1210 C   0  0  0  0  0  0  0  0  0  0  0  0
    0.5670   11.1400   -3.0860 O   0  0  0  0  0  0  0  0  0  0  0  0
    1.9550   12.6980   -4.3490 C   0  0  0  0  0  0  0  0  0  0  0  0
    1.6010   14.0390   -4.6800 O   0  0  0  0  0  0  0  0  0  0  0  0
    0.2670   14.3270   -4.7210 C   0  0  0  0  0  0  0  0  0  0  0  0
   -0.0860   15.6740   -4.9590 C   0  0  0  0  0  0  0  0  0  0  0  0
   -0.7000   13.3640   -4.5370 C   0  0  0  0  0  0  0  0  0  0  0  0
   -1.4460   16.0560   -4.9960 C   0  0  0  0  0  0  0  0  0  0  0  0
   -2.0180   13.7110   -4.5620 C   0  0  0  0  0  0  0  0  0  0  0  0
    0.9030   16.6360   -5.1550 C   0  0  0  0  0  0  0  0  0  0  0  0
   -2.4170   15.0200   -4.7740 C   0  0  0  0  0  0  0  0  0  0  0  0
   -1.7130   17.4290   -5.2410 C   0  0  0  0  0  0  0  0  0  0  0  0
    0.6250   17.9720   -5.3910 C   0  0  0  0  0  0  0  0  0  0  0  0
   -3.9050   15.1310   -4.7090 C   0  0  0  0  0  0  0  0  0  0  0  0
   -0.6990   18.3730   -5.4350 C   0  0  0  0  0  0  0  0  0  0  0  0
   -4.3300   15.0990   -3.2270 C   0  0  0  0  0  0  0  0  0  0  0  0
   -5.6450   14.8600   -2.7500 C   0  0  0  0  0  0  0  0  0  0  0  0
   -3.3360   15.3140   -2.2710 C   0  0  0  0  0  0  0  0  0  0  0  0
   -5.9600   14.8350   -1.3790 C   0  0  0  0  0  0  0  0  0  0  0  0
   -3.6310   15.3020   -0.9150 C   0  0  0  0  0  0  0  0  0  0  0  0
   -4.9340   15.0650   -0.4670 C   0  0  0  0  0  0  0  0  0  0  0  0
   -7.2180   14.5940   -0.9720 N   0  0  0  0  0  0  0  0  0  0  0  0
   -5.2830   15.0450    0.8720 C   0  0  0  0  0  0  0  0  0  0  0  0
   -7.4400   14.5810    0.3530 C   0  0  0  0  0  0  0  0  0  0  0  0
   -4.3020   15.3050    1.8270 N   0  0  0  0  0  0  0  0  0  0  0  0
   -6.5310   14.7970    1.3110 N   0  0  0  0  0  0  0  0  0  0  0  0
  1  2  1  0
  2  3  2  0
  2  4  1  0
  4  5  1  0
  5  6  1  0
  6  7  2  0
  6  8  1  0
  7  9  1  0
  8 10  2  0
  7 11  1  0
  9 12  2  0
 10 12  1  0
  9 13  1  0
 11 14  2  0
 12 15  1  0
 13 16  2  0
 14 16  1  0
 15 17  1  0
 17 18  2  0
 17 19  1  0
 18 20  1  0
 19 21  2  0
 20 22  2  0
 21 22  1  0
 20 23  1  0
 22 24  1  0
 23 25  2  0
 24 26  1  0
 24 27  2  0
 25 27  1  0
M  END
