mac-x0178-diamond-x0587_0_A
     RDKit          3D

 29 30  0  0  0  0  0  0  0  0999 V2000
   -0.6300   18.4070   -6.0380 N   0  0  0  0  0  0  0  0  0  0  0  0
   -1.6710   17.1290   -5.7710 S   0  0  2  0  0  0  0  0  0  0  0  0
   -2.4650   16.9530   -6.9470 O   0  0  0  0  0  0  0  0  0  0  0  0
   -2.3400   17.3790   -4.5250 N   0  0  0  0  0  0  0  0  0  0  0  0
   -0.8930   15.7500   -5.0190 C   0  0  0  0  0  0  0  0  0  0  0  0
   -3.2120   16.2080   -4.1740 C   0  0  0  0  0  0  0  0  0  0  0  0
    0.1620   16.0250   -4.1440 C   0  0  0  0  0  0  0  0  0  0  0  0
   -1.3310   14.4450   -5.2440 C   0  0  0  0  0  0  0  0  0  0  0  0
   -2.5680   14.9000   -3.8500 C   0  0  0  0  0  0  0  0  0  0  0  0
    0.7750   14.9780   -3.4650 C   0  0  0  0  0  0  0  0  0  0  0  0
   -0.7160   13.3950   -4.5620 C   0  0  0  0  0  0  0  0  0  0  0  0
   -3.7060   13.9380   -3.5280 C   0  0  0  0  0  0  0  0  0  0  0  0
    0.3300   13.6660   -3.6640 C   0  0  0  0  0  0  0  0  0  0  0  0
    0.9420   12.5460   -2.9330 C   0  0  0  0  0  0  0  0  0  0  0  0
   -4.6500   14.6200   -2.6790 O   0  0  0  0  0  0  0  0  0  0  0  0
    1.7740   12.6710   -2.0580 O   0  0  0  0  0  0  0  0  0  0  0  0
    0.4650   11.3520   -3.3100 O   0  0  0  0  0  0  0  0  0  0  0  0
   -4.3730   14.3000   -1.3200 C   0  0  0  0  0  0  0  0  0  0  0  0
   -3.2200   14.9530   -0.9800 F   0  0  0  0  0  0  0  0  0  0  0  0
   -4.0050   12.9900   -1.3990 F   0  0  0  0  0  0  0  0  0  0  0  0
   -5.4870   14.4740   -0.2780 C   0  0  0  0  0  0  0  0  0  0  0  0
   -6.7930   14.2590   -0.6020 N   0  0  0  0  0  0  0  0  0  0  0  0
   -5.0870   14.8340    0.9570 N   0  0  0  0  0  0  0  0  0  0  0  0
   -7.7050   14.4180    0.3930 C   0  0  0  0  0  0  0  0  0  0  0  0
   -6.0400   14.9760    1.8930 C   0  0  0  0  0  0  0  0  0  0  0  0
   -7.3730   14.7810    1.6820 C   0  0  0  0  0  0  0  0  0  0  0  0
   -8.3780   14.9560    2.7420 C   0  0  0  0  0  0  0  0  0  0  0  0
   -7.9350   15.1010    4.0250 N   0  0  0  0  0  0  0  0  0  0  0  0
   -9.5740   14.9780    2.4810 O   0  0  0  0  0  0  0  0  0  0  0  0
  2  1  1  6
  2  3  2  0
  2  4  2  0
  2  5  1  0
  4  6  1  0
  5  7  2  0
  5  8  1  0
  6  9  1  0
  7 10  1  0
  8 11  2  0
  9 12  1  0
 10 13  2  0
 11 13  1  0
 13 14  1  0
 12 15  1  0
 14 16  2  0
 14 17  1  0
 15 18  1  0
 18 19  1  0
 18 20  1  0
 18 21  1  0
 21 22  2  0
 21 23  1  0
 22 24  1  0
 23 25  2  0
 24 26  2  0
 25 26  1  0
 26 27  1  0
 27 28  1  0
 27 29  2  0
M  END
