mac-x0301-diamond-x0104_0_A
     RDKit          3D

 28 31  0  0  0  0  0  0  0  0999 V2000
    1.0140   14.4500   -2.9350 O   0  0  0  0  0  0  0  0  0  0  0  0
   -0.2760   14.3850   -3.3010 C   0  0  0  0  0  0  0  0  0  0  0  0
   -0.6270   14.1460   -4.4440 O   0  0  0  0  0  0  0  0  0  0  0  0
   -1.2650   14.6210   -2.2330 C   0  0  0  0  0  0  0  0  0  0  0  0
   -1.0540   14.5260   -0.8600 C   0  0  0  0  0  0  0  0  0  0  0  0
   -2.5190   14.9690   -2.6780 C   0  0  0  0  0  0  0  0  0  0  0  0
   -2.0740   14.7740    0.0660 C   0  0  0  0  0  0  0  0  0  0  0  0
   -3.5320   15.2070   -1.7860 C   0  0  0  0  0  0  0  0  0  0  0  0
    0.1210   14.1920   -0.2690 O   0  0  0  0  0  0  0  0  0  0  0  0
   -3.3780   15.1190   -0.4140 C   0  0  0  0  0  0  0  0  0  0  0  0
   -1.6000   14.6280    1.3710 O   0  0  0  0  0  0  0  0  0  0  0  0
   -0.1890   14.4230    1.1210 C   0  0  0  0  0  0  0  0  0  0  0  0
   -4.5540   15.3890    0.2610 N   0  0  0  0  0  0  0  0  0  0  0  0
   -5.5960   15.6260   -0.7690 C   0  0  1  0  0  0  0  0  0  0  0  0
   -4.8340   14.3430    1.2780 C   0  0  0  0  0  0  0  0  0  0  0  0
   -5.2210   14.9290   -1.9390 O   0  0  0  0  0  0  0  0  0  0  0  0
   -6.3390   14.1580    1.6770 C   0  0  1  0  0  0  0  0  0  0  0  0
   -6.9570   15.0900   -0.4980 C   0  0  0  0  0  0  0  0  0  0  0  0
   -6.7030   14.9730    2.8160 N   0  0  0  0  0  0  0  0  0  0  0  0
   -7.3130   14.4350    0.5880 C   0  0  0  0  0  0  0  0  0  0  0  0
   -8.0110   15.0900    3.2460 C   0  0  0  0  0  0  0  0  0  0  0  0
   -8.0390   15.0110    4.6170 N   0  0  0  0  0  0  0  0  0  0  0  0
   -8.9580   15.2430    2.4820 O   0  0  0  0  0  0  0  0  0  0  0  0
   -9.1660   15.0530    5.4060 C   0  0  0  0  0  0  0  0  0  0  0  0
   -9.3360   15.1960    6.7600 C   0  0  0  0  0  0  0  0  0  0  0  0
  -10.6410   14.8990    4.5700 S   0  0  0  0  0  0  0  0  0  0  0  0
  -11.5380   15.0200    6.0270 C   0  0  0  0  0  0  0  0  0  0  0  0
  -10.7170   15.1770    7.1230 C   0  0  0  0  0  0  0  0  0  0  0  0
  1  2  1  0
  2  3  2  0
  2  4  1  0
  4  5  2  0
  4  6  1  0
  5  7  1  0
  6  8  2  0
  5  9  1  0
  7 10  2  0
  8 10  1  0
  7 11  1  0
  9 12  1  0
 11 12  1  0
 10 13  1  0
 13 14  1  0
 13 15  1  0
 14 16  1  6
 15 17  1  0
 14 18  1  0
 17 19  1  1
 17 20  1  0
 18 20  2  0
 19 21  1  0
 21 22  1  0
 21 23  2  0
 22 24  1  0
 24 25  2  0
 24 26  1  0
 26 27  1  0
 25 28  1  0
 27 28  2  0
M  END
