mac-x0303-mac-x0228
     RDKit          3D

 16 17  0  0  0  0  0  0  0  0999 V2000
   -8.3160   12.9620    2.7680 N   0  0  0  0  0  0  0  0  0  0  0  0
   -8.4010   14.5220    2.1450 S   0  0  0  0  0  0  0  0  0  0  0  0
   -8.1190   15.4670    3.1940 O   0  0  0  0  0  0  0  0  0  0  0  0
   -9.5970   14.6090    1.3390 O   0  0  0  0  0  0  0  0  0  0  0  0
   -7.0600   14.6680    0.9970 C   0  0  0  0  0  0  0  0  0  0  0  0
   -7.2650   14.9930   -0.3120 N   0  0  0  0  0  0  0  0  0  0  0  0
   -5.7660   14.4930    1.2450 N   0  0  0  0  0  0  0  0  0  0  0  0
   -6.0500   15.0190   -0.9370 C   0  0  0  0  0  0  0  0  0  0  0  0
   -5.1210   14.7020    0.0450 C   0  0  0  0  0  0  0  0  0  0  0  0
   -5.7170   15.2850   -2.2500 C   0  0  0  0  0  0  0  0  0  0  0  0
   -3.7490   14.6360   -0.2920 C   0  0  0  0  0  0  0  0  0  0  0  0
   -4.3700   15.2120   -2.5840 C   0  0  0  0  0  0  0  0  0  0  0  0
   -3.3990   14.8910   -1.6460 C   0  0  0  0  0  0  0  0  0  0  0  0
   -1.9980   14.8180   -2.1380 C   0  0  0  0  0  0  0  0  0  0  0  0
   -1.0670   14.7330   -1.1720 O   0  0  0  0  0  0  0  0  0  0  0  0
   -1.7290   14.8290   -3.3350 O   0  0  0  0  0  0  0  0  0  0  0  0
  2  1  1  0
  2  3  2  0
  2  4  2  0
  2  5  1  0
  5  6  1  0
  5  7  2  0
  6  8  1  0
  7  9  1  0
  8  9  2  0
  8 10  1  0
  9 11  1  0
 10 12  2  0
 11 13  2  0
 12 13  1  0
 13 14  1  0
 14 15  1  0
 14 16  2  0
M  END
