mac-x0284-mac-x0226
     RDKit          3D

 26 28  0  0  0  0  0  0  0  0999 V2000
   -4.1400   15.4710    0.7510 C   0  0  0  0  0  0  0  0  0  0  0  0
   -3.6510   15.2580   -0.6480 C   0  0  0  0  0  0  0  0  0  0  0  0
   -4.5150   15.3740   -1.7410 C   0  0  0  0  0  0  0  0  0  0  0  0
   -2.3120   14.9390   -0.8830 C   0  0  0  0  0  0  0  0  0  0  0  0
   -1.8320   14.7440   -2.1840 C   0  0  0  0  0  0  0  0  0  0  0  0
   -4.0460   15.1760   -3.0400 C   0  0  0  0  0  0  0  0  0  0  0  0
   -0.4050   14.4150   -2.3550 C   0  0  0  0  0  0  0  0  0  0  0  0
   -2.7110   14.8670   -3.2580 C   0  0  0  0  0  0  0  0  0  0  0  0
   -2.2670   14.6820   -4.5460 O   0  0  0  0  0  0  0  0  0  0  0  0
    0.3650   14.1330   -1.3900 N   0  0  0  0  0  0  0  0  0  0  0  0
    0.0510   14.4180   -3.6160 O   0  0  0  0  0  0  0  0  0  0  0  0
    1.6950   13.8250   -1.8560 C   0  0  0  0  0  0  0  0  0  0  0  0
    1.8530   12.4250   -2.1330 O   0  0  0  0  0  0  0  0  0  0  0  0
    0.8550   11.6760   -2.7050 C   0  0  0  0  0  0  0  0  0  0  0  0
    0.1340   10.8830   -2.0940 O   0  0  0  0  0  0  0  0  0  0  0  0
    0.8270   11.7960   -4.1500 C   0  0  0  0  0  0  0  0  0  0  0  0
    1.4940   12.6980   -5.0010 C   0  0  0  0  0  0  0  0  0  0  0  0
    0.1210   10.9780   -5.0160 C   0  0  0  0  0  0  0  0  0  0  0  0
    1.2520   12.4590   -6.2910 N   0  0  0  0  0  0  0  0  0  0  0  0
    0.4130   11.3860   -6.3000 N   0  0  0  0  0  0  0  0  0  0  0  0
   -0.0330   10.8130   -7.5260 C   0  0  0  0  0  0  0  0  0  0  0  0
   -1.2230   10.0870   -7.6020 C   0  0  0  0  0  0  0  0  0  0  0  0
    0.7300   10.9610   -8.6830 C   0  0  0  0  0  0  0  0  0  0  0  0
   -1.6250    9.5290   -8.8210 C   0  0  0  0  0  0  0  0  0  0  0  0
    0.3360   10.4120   -9.8930 C   0  0  0  0  0  0  0  0  0  0  0  0
   -0.8460    9.6910   -9.9660 C   0  0  0  0  0  0  0  0  0  0  0  0
  1  2  1  0
  2  3  2  0
  2  4  1  0
  4  5  2  0
  3  6  1  0
  5  7  1  0
  5  8  1  0
  6  8  2  0
  8  9  1  0
  7 10  2  3
  7 11  1  0
 10 12  1  0
 12 13  1  0
 13 14  1  0
 14 15  2  0
 14 16  1  0
 16 17  1  0
 16 18  2  0
 17 19  2  0
 18 20  1  0
 19 20  1  0
 20 21  1  0
 21 22  2  0
 21 23  1  0
 22 24  1  0
 23 25  2  0
 24 26  2  0
 25 26  1  0
M  END
