mac-x0115-mac-x0226
     RDKit          3D

 32 35  0  0  0  0  0  0  0  0999 V2000
   -1.3470   18.6290   -5.0740 C   0  0  0  0  0  0  0  0  0  0  0  0
   -0.3450   17.9730   -6.0050 C   0  0  0  0  0  0  0  0  0  0  0  0
    1.0830   18.4010   -5.7340 C   0  0  0  0  0  0  0  0  0  0  0  0
   -0.4830   16.5870   -5.7830 O   0  0  0  0  0  0  0  0  0  0  0  0
    0.4000   16.0420   -4.8150 C   0  0  0  0  0  0  0  0  0  0  0  0
   -0.4990   15.2260   -3.9100 C   0  0  0  0  0  0  0  0  0  0  0  0
   -0.3720   15.5600   -2.4820 N   0  0  0  0  0  0  0  0  0  0  0  0
    0.5360   14.7420   -1.9360 C   0  0  0  0  0  0  0  0  0  0  0  0
   -1.5670   15.5190   -1.8430 C   0  0  0  0  0  0  0  0  0  0  0  0
    1.7840   14.2240   -3.0600 S   0  0  0  0  0  0  0  0  0  0  0  0
    0.4380   14.2970   -0.6070 N   0  0  0  0  0  0  0  0  0  0  0  0
   -1.5780   15.5990   -0.3730 C   0  0  2  0  0  0  0  0  0  0  0  0
   -2.7910   15.4180   -2.3570 C   0  0  0  0  0  0  0  0  0  0  0  0
    2.7610   12.9740   -2.3720 C   0  0  0  0  0  0  0  0  0  0  0  0
   -0.6180   14.6210    0.2480 C   0  0  0  0  0  0  0  0  0  0  0  0
   -3.0110   15.5040    0.0020 N   0  0  0  0  0  0  0  0  0  0  0  0
   -3.6070   15.4180   -1.1510 C   0  0  0  0  0  0  0  0  0  0  0  0
   -0.7150   14.1630    1.3840 O   0  0  0  0  0  0  0  0  0  0  0  0
    1.6270   12.2460   -1.8590 O   0  0  0  0  0  0  0  0  0  0  0  0
    0.7380   11.5570   -2.6700 C   0  0  0  0  0  0  0  0  0  0  0  0
   -0.0610   10.7430   -2.1930 O   0  0  0  0  0  0  0  0  0  0  0  0
    0.8390   11.7340   -4.1190 C   0  0  0  0  0  0  0  0  0  0  0  0
    1.6150   12.6160   -4.9040 C   0  0  0  0  0  0  0  0  0  0  0  0
    0.1580   10.9800   -5.0640 C   0  0  0  0  0  0  0  0  0  0  0  0
    1.4520   12.4210   -6.2110 N   0  0  0  0  0  0  0  0  0  0  0  0
    0.5670   11.4020   -6.3090 N   0  0  0  0  0  0  0  0  0  0  0  0
    0.1880   10.8840   -7.5720 C   0  0  0  0  0  0  0  0  0  0  0  0
   -1.0780   10.3180   -7.7670 C   0  0  0  0  0  0  0  0  0  0  0  0
    1.0950   10.9230   -8.6380 C   0  0  0  0  0  0  0  0  0  0  0  0
   -1.4240    9.8020   -9.0170 C   0  0  0  0  0  0  0  0  0  0  0  0
    0.7430   10.4090   -9.8840 C   0  0  0  0  0  0  0  0  0  0  0  0
   -0.5190    9.8460  -10.0740 C   0  0  0  0  0  0  0  0  0  0  0  0
  1  2  1  0
  2  3  1  0
  2  4  1  0
  4  5  1  0
  5  6  1  0
  6  7  1  0
  7  8  1  0
  7  9  1  0
  8 10  2  3
  8 11  1  0
  9 12  1  0
  9 13  2  0
 10 14  1  0
 11 15  1  0
 12 15  1  0
 12 16  1  1
 13 17  1  0
 16 17  2  0
 15 18  2  0
 14 19  1  0
 19 20  1  0
 20 21  2  0
 20 22  1  0
 22 23  1  0
 22 24  2  0
 23 25  2  0
 24 26  1  0
 25 26  1  0
 26 27  1  0
 27 28  2  0
 27 29  1  0
 28 30  1  0
 29 31  2  0
 30 32  2  0
 31 32  1  0
M  END
