mac-x0255-mac-x0404
     RDKit          3D

 14 15  0  0  0  0  0  0  0  0999 V2000
    0.7390   12.6860   -1.4960 O   0  0  0  0  0  0  0  0  0  0  0  0
    0.5750   12.1510   -2.7340 C   0  0  0  0  0  0  0  0  0  0  0  0
   -0.0440   11.1020   -2.8600 O   0  0  0  0  0  0  0  0  0  0  0  0
    1.1810   12.8870   -3.9570 C   0  0  2  0  0  0  0  0  0  0  0  0
    2.5160   13.2960   -3.7750 O   0  0  0  0  0  0  0  0  0  0  0  0
    0.4850   14.1410   -4.3660 C   0  0  0  0  0  0  0  0  0  0  0  0
    1.0900   15.3590   -4.5990 C   0  0  0  0  0  0  0  0  0  0  0  0
   -1.2040   14.2290   -4.6080 S   0  0  0  0  0  0  0  0  0  0  0  0
    0.1730   16.3800   -4.9860 C   0  0  0  0  0  0  0  0  0  0  0  0
   -1.1370   15.8940   -5.0320 C   0  0  0  0  0  0  0  0  0  0  0  0
    0.4020   17.7330   -5.3110 C   0  0  0  0  0  0  0  0  0  0  0  0
   -2.2140   16.7210   -5.3930 C   0  0  0  0  0  0  0  0  0  0  0  0
   -0.6650   18.5490   -5.6730 C   0  0  0  0  0  0  0  0  0  0  0  0
   -1.9520   18.0520   -5.7140 C   0  0  0  0  0  0  0  0  0  0  0  0
  1  2  1  0
  2  3  2  0
  2  4  1  0
  4  5  1  1
  4  6  1  0
  6  7  2  0
  6  8  1  0
  7  9  1  0
  8 10  1  0
  9 10  2  0
  9 11  1  0
 10 12  1  0
 11 13  2  0
 12 14  2  0
 13 14  1  0
M  END
