mac-x0439-diamond-x0626_0_A
     RDKit          3D

 26 28  0  0  0  0  0  0  0  0999 V2000
   -3.1390   15.6760   -5.0180 Cl  0  0  0  0  0  0  0  0  0  0  0  0
   -1.6820   16.5490   -5.2760 C   0  0  0  0  0  0  0  0  0  0  0  0
   -0.3900   15.8220   -5.1090 C   0  0  2  0  0  0  0  0  0  0  0  0
   -1.6830   17.8440   -5.6440 C   0  0  0  0  0  0  0  0  0  0  0  0
   -0.0480   14.7660   -4.1260 C   0  0  0  0  0  0  0  0  0  0  0  0
    0.7050   16.7840   -4.7710 C   0  0  0  0  0  0  0  0  0  0  0  0
   -0.4360   18.5590   -5.8700 C   0  0  0  0  0  0  0  0  0  0  0  0
    1.0870   15.1240   -3.5250 C   0  0  0  0  0  0  0  0  0  0  0  0
    1.5320   16.3560   -3.8980 N   0  0  0  0  0  0  0  0  0  0  0  0
    0.7530   18.0850   -5.4620 C   0  0  0  0  0  0  0  0  0  0  0  0
    1.8060   14.2630   -2.5500 C   0  0  0  0  0  0  0  0  0  0  0  0
    3.1410   14.3440   -2.6930 O   0  0  0  0  0  0  0  0  0  0  0  0
    1.4300   13.4930   -1.6470 N   0  0  0  0  0  0  0  0  0  0  0  0
    0.0390   13.3510   -1.3600 C   0  0  0  0  0  0  0  0  0  0  0  0
   -0.1320   13.4800    0.1430 C   0  0  0  0  0  0  0  0  0  0  0  0
   -0.5050   14.8150    0.6650 C   0  0  0  0  0  0  0  0  0  0  0  0
   -1.9090   14.8850    0.3170 C   0  0  0  0  0  0  0  0  0  0  0  0
   -2.8320   14.8370    1.3180 N   0  0  0  0  0  0  0  0  0  0  0  0
   -2.4100   14.9790   -0.9610 C   0  0  0  0  0  0  0  0  0  0  0  0
   -4.0070   14.9040    0.7850 C   0  0  0  0  0  0  0  0  0  0  0  0
   -4.1040   15.0290   -0.9120 S   0  0  0  0  0  0  0  0  0  0  0  0
   -5.1980   14.8790    1.4020 N   0  0  0  0  0  0  0  0  0  0  0  0
   -6.3760   14.6500    0.7810 C   0  0  0  0  0  0  0  0  0  0  0  0
   -6.4240   14.7270   -0.4530 O   0  0  0  0  0  0  0  0  0  0  0  0
   -7.5920   14.3150    1.6120 C   0  0  0  0  0  0  0  0  0  0  0  0
   -8.8770   14.6220    0.8700 C   0  0  0  0  0  0  0  0  0  0  0  0
  1  2  1  0
  2  3  1  0
  2  4  2  0
  3  5  1  1
  3  6  1  0
  4  7  1  0
  5  8  2  0
  6  9  2  0
  8  9  1  0
  6 10  1  0
  7 10  2  0
  8 11  1  0
 11 12  1  0
 11 13  2  3
 13 14  1  0
 14 15  1  0
 15 16  1  0
 16 17  1  0
 17 18  1  0
 17 19  2  0
 18 20  2  0
 19 21  1  0
 20 21  1  0
 20 22  1  0
 22 23  1  0
 23 24  2  0
 23 25  1  0
 25 26  1  0
M  END
