mac-x0179-diamond-x1012_0_A
     RDKit          3D

 24 26  0  0  0  0  0  0  0  0999 V2000
    1.9740   12.6240   -2.4890 O   0  0  0  0  0  0  0  0  0  0  0  0
    0.7580   12.5710   -3.2110 C   0  0  0  0  0  0  0  0  0  0  0  0
    0.0870   11.3900   -2.7920 O   0  0  0  0  0  0  0  0  0  0  0  0
    1.0130   12.6700   -4.7260 C   0  0  0  0  0  0  0  0  0  0  0  0
   -0.0130   13.8540   -2.8270 C   0  0  0  0  0  0  0  0  0  0  0  0
    0.1790   11.8330   -5.5690 N   0  0  0  0  0  0  0  0  0  0  0  0
   -1.4540   13.9610   -3.3910 C   0  0  0  0  0  0  0  0  0  0  0  0
    0.8270   15.1270   -3.1490 C   0  0  0  0  0  0  0  0  0  0  0  0
    0.7290   11.3150   -6.6760 C   0  0  0  0  0  0  0  0  0  0  0  0
   -0.9510   11.1440   -5.2140 C   0  0  0  0  0  0  0  0  0  0  0  0
   -1.5200   14.6240   -4.7730 C   0  0  0  0  0  0  0  0  0  0  0  0
    0.6540   15.7320   -4.5450 C   0  0  0  0  0  0  0  0  0  0  0  0
    1.7580   11.6280   -7.1670 O   0  0  0  0  0  0  0  0  0  0  0  0
   -1.6510   11.3010   -4.2330 O   0  0  0  0  0  0  0  0  0  0  0  0
   -0.1370   10.2660   -7.1620 C   0  0  0  0  0  0  0  0  0  0  0  0
   -1.1800   10.1500   -6.2640 C   0  0  0  0  0  0  0  0  0  0  0  0
   -0.7470   15.8640   -4.8940 N   0  0  0  0  0  0  0  0  0  0  0  0
   -1.3180   17.1140   -4.7740 C   0  0  0  0  0  0  0  0  0  0  0  0
   -0.0270    9.4780   -8.2820 C   0  0  0  0  0  0  0  0  0  0  0  0
   -2.1870    9.2230   -6.4430 C   0  0  0  0  0  0  0  0  0  0  0  0
   -0.4710   18.1650   -4.6880 N   0  0  0  0  0  0  0  0  0  0  0  0
   -2.5150   17.3380   -4.7260 O   0  0  0  0  0  0  0  0  0  0  0  0
   -1.0330    8.5330   -8.4900 C   0  0  0  0  0  0  0  0  0  0  0  0
   -2.1040    8.4080   -7.5760 C   0  0  0  0  0  0  0  0  0  0  0  0
  2  1  1  0
  2  3  1  0
  2  4  1  0
  2  5  1  0
  4  6  1  0
  5  7  1  0
  5  8  1  0
  6  9  1  0
  6 10  1  0
  7 11  1  0
  8 12  1  0
  9 13  2  0
 10 14  2  0
  9 15  1  0
 10 16  1  0
 15 16  2  0
 11 17  1  0
 12 17  1  0
 17 18  1  0
 15 19  1  0
 16 20  1  0
 18 21  1  0
 18 22  2  0
 19 23  2  0
 20 24  2  0
 23 24  1  0
M  END
