mac-x0190-mac-x0212
     RDKit          3D

 19 21  0  0  0  0  0  0  0  0999 V2000
   -8.2250   14.9010    1.7470 N   0  0  0  0  0  0  0  0  0  0  0  0
   -8.7900   15.2110    0.4950 C   0  0  0  0  0  0  0  0  0  0  0  0
   -7.8820   15.0460   -0.7140 C   0  0  0  0  0  0  0  0  0  0  0  0
   -7.0240   14.0250    1.7130 S   0  0  2  0  0  0  0  0  0  0  0  0
   -7.0920   12.9290    0.3220 C   0  0  0  0  0  0  0  0  0  0  0  0
   -6.7110   13.0910    2.6940 O   0  0  0  0  0  0  0  0  0  0  0  0
   -5.6550   15.0450    1.4690 N   0  0  0  0  0  0  0  0  0  0  0  0
   -6.4000   14.9620   -0.8720 C   0  0  0  0  0  0  0  0  0  0  0  0
   -5.3030   14.9780    0.0950 C   0  0  0  0  0  0  0  0  0  0  0  0
   -8.6800   14.9680   -1.8470 C   0  0  0  0  0  0  0  0  0  0  0  0
   -8.2620   14.8260   -3.0930 N   0  0  0  0  0  0  0  0  0  0  0  0
   -6.0010   14.8380   -2.2280 C   0  0  0  0  0  0  0  0  0  0  0  0
   -3.9270   14.9040   -0.3430 C   0  0  0  0  0  0  0  0  0  0  0  0
   -4.6780   14.7650   -2.6130 C   0  0  0  0  0  0  0  0  0  0  0  0
   -3.6280   14.7950   -1.7260 C   0  0  0  0  0  0  0  0  0  0  0  0
   -6.9410   14.7750   -3.2470 C   0  0  0  0  0  0  0  0  0  0  0  0
   -2.2460   14.6870   -2.3260 C   0  0  0  0  0  0  0  0  0  0  0  0
   -1.2050   14.3870   -1.7690 O   0  0  0  0  0  0  0  0  0  0  0  0
   -2.2490   14.9390   -3.6540 O   0  0  0  0  0  0  0  0  0  0  0  0
  1  2  1  0
  2  3  1  0
  1  4  2  0
  4  5  1  6
  4  6  2  0
  4  7  1  0
  3  8  2  0
  7  9  1  0
  8  9  1  0
  3 10  1  0
 10 11  2  0
  8 12  1  0
  9 13  2  0
 12 14  1  0
 13 15  1  0
 14 15  2  0
 11 16  1  0
 12 16  2  0
 15 17  1  0
 17 18  2  0
 17 19  1  0
M  END
