mac-x0188-mac-x1493
     RDKit          3D

 22 25  0  0  0  0  0  0  0  0999 V2000
    1.2180   12.8790   -5.1580 C   0  0  0  0  0  0  0  0  0  0  0  0
   -0.0390   13.4710   -4.6620 C   0  0  0  0  0  0  0  0  0  0  0  0
   -1.0070   13.7690   -5.5830 O   0  0  0  0  0  0  0  0  0  0  0  0
   -0.5090   13.8150   -3.4260 C   0  0  0  0  0  0  0  0  0  0  0  0
   -0.0280   13.7540   -2.0470 C   0  0  0  0  0  0  0  0  0  0  0  0
   -2.1240   14.3240   -4.9500 N   0  0  0  0  0  0  0  0  0  0  0  0
   -1.8010   14.3510   -3.6590 C   0  0  0  0  0  0  0  0  0  0  0  0
    0.4210   15.0080   -1.5440 O   0  0  0  0  0  0  0  0  0  0  0  0
    0.8990   12.7310   -1.7360 O   0  0  0  0  0  0  0  0  0  0  0  0
   -1.3710   13.2910   -1.4820 C   0  0  0  0  0  0  0  0  0  0  0  0
   -2.6560   14.8940   -2.5340 C   0  0  1  0  0  0  0  0  0  0  0  0
   -1.5430   12.1070   -1.4280 O   0  0  0  0  0  0  0  0  0  0  0  0
   -4.0070   15.4210   -2.7980 C   0  0  0  0  0  0  0  0  0  0  0  0
   -2.4620   14.2340   -1.1970 C   0  0  1  0  0  0  0  0  0  0  0  0
   -5.0080   15.3470   -1.9140 C   0  0  0  0  0  0  0  0  0  0  0  0
   -3.7510   13.6590   -0.5750 C   0  0  0  0  0  0  0  0  0  0  0  0
   -4.9330   14.6670   -0.5510 C   0  0  1  0  0  0  0  0  0  0  0  0
   -4.6440   15.5570    0.7080 C   0  0  0  0  0  0  0  0  0  0  0  0
   -6.3190   14.0550   -0.4680 C   0  0  0  0  0  0  0  0  0  0  0  0
   -7.0690   13.9980    0.6390 C   0  0  0  0  0  0  0  0  0  0  0  0
   -5.4660   15.2280    1.9400 C   0  0  0  0  0  0  0  0  0  0  0  0
   -6.5950   14.5100    1.8840 C   0  0  0  0  0  0  0  0  0  0  0  0
  1  2  1  0
  2  3  1  0
  2  4  2  0
  4  5  1  0
  3  6  1  0
  4  7  1  0
  6  7  2  0
  5  8  1  0
  5  9  1  0
  5 10  1  0
  7 11  1  0
 10 12  2  0
 11 13  1  6
 10 14  1  0
 11 14  1  0
 13 15  2  0
 14 16  1  6
 17 15  1  6
 16 17  1  0
 17 18  1  0
 17 19  1  0
 19 20  2  0
 18 21  1  0
 20 22  1  0
 21 22  2  0
M  END
