mac-x0231-mac-x0163
     RDKit          3D

 30 33  0  0  0  0  0  0  0  0999 V2000
    0.9960   11.3910   -3.8100 O   0  0  0  0  0  0  0  0  0  0  0  0
    1.8320   12.4090   -3.5770 C   0  0  0  0  0  0  0  0  0  0  0  0
    2.3190   12.5710   -2.4700 O   0  0  0  0  0  0  0  0  0  0  0  0
    2.0610   13.2670   -4.7770 C   0  0  0  0  0  0  0  0  0  0  0  0
    1.3850   14.6290   -4.7130 C   0  0  0  0  0  0  0  0  0  0  0  0
   -0.0650   14.7860   -4.9200 C   0  0  0  0  0  0  0  0  0  0  0  0
    2.1050   15.6460   -4.4450 N   0  0  0  0  0  0  0  0  0  0  0  0
   -0.5980   16.0430   -5.1260 C   0  0  0  0  0  0  0  0  0  0  0  0
    1.4900   16.8580   -4.4110 N   0  0  0  0  0  0  0  0  0  0  0  0
   -0.8930   13.7210   -4.8830 C   0  0  0  0  0  0  0  0  0  0  0  0
    0.3570   17.1420   -5.1270 C   0  0  0  0  0  0  0  0  0  0  0  0
   -1.9890   16.2230   -5.3130 C   0  0  0  0  0  0  0  0  0  0  0  0
   -2.2500   13.8470   -5.0340 C   0  0  0  0  0  0  0  0  0  0  0  0
    0.1620   18.1960   -5.7090 O   0  0  0  0  0  0  0  0  0  0  0  0
   -2.8360   15.1010   -5.2650 C   0  0  0  0  0  0  0  0  0  0  0  0
   -2.9040   12.5410   -4.8760 C   0  0  0  0  0  0  0  0  0  0  0  0
   -2.1210   11.9000   -3.7020 C   0  0  2  0  0  0  0  0  0  0  0  0
   -2.4740   12.4750   -2.3140 C   0  0  0  0  0  0  0  0  0  0  0  0
   -0.6190   12.0490   -3.8620 C   0  0  0  0  0  0  0  0  0  0  0  0
   -2.1770   13.9220   -2.1610 N   0  0  0  0  0  0  0  0  0  0  0  0
   -0.0560   13.2190   -3.0330 C   0  0  0  0  0  0  0  0  0  0  0  0
   -2.0520   14.2380   -0.7990 C   0  0  0  0  0  0  0  0  0  0  0  0
   -1.0030   14.3920   -2.8480 C   0  0  0  0  0  0  0  0  0  0  0  0
   -3.1340   14.7940   -0.1540 C   0  0  0  0  0  0  0  0  0  0  0  0
   -0.8790   13.9880   -0.1630 N   0  0  0  0  0  0  0  0  0  0  0  0
   -4.6210   15.1210   -0.9720 Cl  0  0  0  0  0  0  0  0  0  0  0  0
   -2.9760   15.0790    1.1830 C   0  0  0  0  0  0  0  0  0  0  0  0
   -0.8260   14.3080    1.1330 C   0  0  0  0  0  0  0  0  0  0  0  0
   -4.0150   15.6320    1.9310 N   0  0  0  0  0  0  0  0  0  0  0  0
   -1.8270   14.8420    1.8420 N   0  0  0  0  0  0  0  0  0  0  0  0
  1  2  1  0
  2  3  2  0
  2  4  1  0
  4  5  1  0
  5  6  1  0
  5  7  2  0
  6  8  2  0
  7  9  1  0
  6 10  1  0
  8 11  1  0
  9 11  1  0
  8 12  1  0
 10 13  2  0
 11 14  2  0
 12 15  2  0
 13 15  1  0
 13 16  1  0
 17 16  1  6
 17 18  1  0
 17 19  1  0
 18 20  1  0
 19 21  1  0
 20 22  1  0
 20 23  1  0
 21 23  1  0
 22 24  2  0
 22 25  1  0
 24 26  1  0
 24 27  1  0
 25 28  2  0
 27 29  1  0
 27 30  2  0
 28 30  1  0
M  END
