mac-x0402-mac-x0379
     RDKit          3D

 14 15  0  0  0  0  0  0  0  0999 V2000
   -1.6940   14.8400   -2.9380 N   0  0  0  0  0  0  0  0  0  0  0  0
   -1.8050   14.7990   -4.3180 O   0  0  0  0  0  0  0  0  0  0  0  0
   -0.4070   15.0550   -2.4560 O   0  0  0  0  0  0  0  0  0  0  0  0
   -2.8280   14.8910   -2.0580 C   0  0  0  0  0  0  0  0  0  0  0  0
   -4.1370   15.1190   -2.5220 C   0  0  0  0  0  0  0  0  0  0  0  0
   -2.6380   14.7100   -0.6750 C   0  0  0  0  0  0  0  0  0  0  0  0
   -3.7480   14.7620    0.1840 C   0  0  0  0  0  0  0  0  0  0  0  0
   -5.2370   15.1640   -1.6340 C   0  0  0  0  0  0  0  0  0  0  0  0
   -6.6230   15.3970   -2.0930 C   0  0  0  0  0  0  0  0  0  0  0  0
   -5.0250   14.9820   -0.2850 C   0  0  0  0  0  0  0  0  0  0  0  0
   -3.8450   14.5880    1.8840 S   0  0  0  0  0  0  0  0  0  0  0  0
   -5.5480   14.8170    1.8340 C   0  0  0  0  0  0  0  0  0  0  0  0
   -6.0260   15.0030    0.6510 N   0  0  0  0  0  0  0  0  0  0  0  0
   -6.3640   14.8180    2.9050 N   0  0  0  0  0  0  0  0  0  0  0  0
  1  2  1  0
  1  3  1  0
  1  4  1  0
  4  5  2  0
  4  6  1  0
  6  7  2  0
  5  8  1  0
  8  9  1  0
  7 10  1  0
  8 10  2  0
  7 11  1  0
 11 12  1  0
 10 13  1  0
 12 13  2  0
 12 14  1  0
M  END
