mac-x0131-diamond-x0587_0_A
     RDKit          3D

 30 33  0  0  0  0  0  0  0  0999 V2000
   -3.1130   14.5230   -4.0490 C   0  0  0  0  0  0  0  0  0  0  0  0
   -2.4500   14.6050   -2.7160 C   0  0  0  0  0  0  0  0  0  0  0  0
   -3.1970   14.5930   -1.5970 C   0  0  0  0  0  0  0  0  0  0  0  0
   -1.1370   14.6850   -2.4600 N   0  0  0  0  0  0  0  0  0  0  0  0
   -4.8830   14.4760   -1.4120 S   0  0  0  0  0  0  0  0  0  0  0  0
   -0.2030   14.6610   -3.4890 C   0  0  0  0  0  0  0  0  0  0  0  0
   -2.2940   14.6980   -0.5730 C   0  0  0  0  0  0  0  0  0  0  0  0
   -1.0060   14.7540   -1.1630 C   0  0  0  0  0  0  0  0  0  0  0  0
   -5.5190   16.5530   -0.9900 F   0  0  0  0  0  0  0  0  0  0  0  0
   -5.5750   13.3120   -2.2890 F   0  0  0  0  0  0  0  0  0  0  0  0
   -6.1180   15.0310   -3.0730 F   0  0  0  0  0  0  0  0  0  0  0  0
   -2.3910   14.7530    0.8060 C   0  0  0  0  0  0  0  0  0  0  0  0
    0.0090   14.8520   -0.3710 N   0  0  0  0  0  0  0  0  0  0  0  0
   -0.3000   13.2330   -3.8550 C   0  0  0  0  0  0  0  0  0  0  0  0
   -5.7890   14.5740    0.0290 C   0  0  0  0  0  0  0  0  0  0  0  0
   -3.5440   14.7170    1.6090 N   0  0  0  0  0  0  0  0  0  0  0  0
   -1.2830   14.8580    1.5830 N   0  0  0  0  0  0  0  0  0  0  0  0
   -0.1220   14.9110    0.9590 C   0  0  0  0  0  0  0  0  0  0  0  0
    0.5820   12.2220   -3.5430 C   0  0  0  0  0  0  0  0  0  0  0  0
   -1.2770   12.6630   -4.5180 O   0  0  0  0  0  0  0  0  0  0  0  0
   -7.1200   14.4590   -0.2010 N   0  0  0  0  0  0  0  0  0  0  0  0
   -5.5280   14.7590    1.2540 N   0  0  0  0  0  0  0  0  0  0  0  0
   -1.1060   11.3850   -4.6550 C   0  0  0  0  0  0  0  0  0  0  0  0
    0.0740   11.0370   -4.0420 C   0  0  0  0  0  0  0  0  0  0  0  0
   -8.0700   14.5400    0.7280 C   0  0  0  0  0  0  0  0  0  0  0  0
   -6.3690   14.8630    2.2900 C   0  0  0  0  0  0  0  0  0  0  0  0
   -7.6650   14.7550    2.0030 C   0  0  0  0  0  0  0  0  0  0  0  0
   -8.5870   14.8860    3.0970 C   0  0  0  0  0  0  0  0  0  0  0  0
   -8.0290   14.8370    4.3860 N   0  0  0  0  0  0  0  0  0  0  0  0
   -9.8110   15.0500    2.8890 O   0  0  0  0  0  0  0  0  0  0  0  0
  1  2  1  0
  2  3  2  0
  2  4  1  0
  3  5  1  0
  4  6  1  0
  3  7  1  0
  4  8  1  0
  7  8  2  0
  5  9  1  0
  5 10  1  0
  5 11  1  0
  7 12  1  0
  8 13  1  0
  6 14  1  0
  5 15  1  0
 12 16  1  0
 12 17  2  0
 13 18  2  0
 17 18  1  0
 14 19  2  0
 14 20  1  0
 15 21  2  0
 15 22  1  0
 20 23  1  0
 19 24  1  0
 23 24  2  0
 21 25  1  0
 22 26  2  0
 25 27  2  0
 26 27  1  0
 27 28  1  0
 28 29  1  0
 28 30  2  0
M  END
