mac-x0396-mac-x0115
     RDKit          3D

 25 27  0  0  0  0  0  0  0  0999 V2000
   -3.0940   14.6980    1.5740 N   0  0  0  0  0  0  0  0  0  0  0  0
   -3.7060   15.3840    0.4530 C   0  0  2  0  0  0  0  0  0  0  0  0
   -5.1790   15.0460    0.2430 C   0  0  0  0  0  0  0  0  0  0  0  0
   -2.9310   15.3180   -0.7540 N   0  0  0  0  0  0  0  0  0  0  0  0
   -5.7650   14.9890   -1.0290 C   0  0  0  0  0  0  0  0  0  0  0  0
   -6.0310   14.7770    1.3150 C   0  0  0  0  0  0  0  0  0  0  0  0
   -1.6360   14.6440   -0.8350 C   0  0  2  0  0  0  0  0  0  0  0  0
   -3.3480   15.5420   -2.0520 C   0  0  0  0  0  0  0  0  0  0  0  0
   -7.0700   14.6930   -1.2590 N   0  0  0  0  0  0  0  0  0  0  0  0
   -7.3700   14.4720    1.1120 C   0  0  0  0  0  0  0  0  0  0  0  0
   -0.5660   14.7400    0.2170 C   0  0  0  0  0  0  0  0  0  0  0  0
   -1.0530   15.3320   -2.0840 C   0  0  2  0  0  0  0  0  0  0  0  0
   -2.3030   15.5580   -2.8890 C   0  0  0  0  0  0  0  0  0  0  0  0
   -7.8420   14.4430   -0.1840 C   0  0  0  0  0  0  0  0  0  0  0  0
   -0.7560   14.9270    1.4150 O   0  0  0  0  0  0  0  0  0  0  0  0
    0.0620   14.5550   -2.5940 N   0  0  0  0  0  0  0  0  0  0  0  0
    0.7170   14.5650   -0.3210 N   0  0  0  0  0  0  0  0  0  0  0  0
    0.2690   14.4270   -4.0510 C   0  0  0  0  0  0  0  0  0  0  0  0
    1.0840   14.3650   -1.6550 C   0  0  0  0  0  0  0  0  0  0  0  0
    0.6170   15.7610   -4.7220 C   0  0  0  0  0  0  0  0  0  0  0  0
    2.6630   13.9340   -1.9840 S   0  0  0  0  0  0  0  0  0  0  0  0
   -0.6010   16.3850   -5.1450 O   0  0  0  0  0  0  0  0  0  0  0  0
   -0.4170   17.6580   -5.7820 C   0  0  0  0  0  0  0  0  0  0  0  0
   -1.4200   18.6150   -5.1700 C   0  0  0  0  0  0  0  0  0  0  0  0
    1.0100   18.1350   -5.5810 C   0  0  0  0  0  0  0  0  0  0  0  0
  2  1  1  1
  2  3  1  0
  2  4  1  0
  3  5  2  0
  3  6  1  0
  4  7  1  0
  4  8  1  0
  5  9  1  0
  6 10  2  0
  7 11  1  1
  7 12  1  0
  8 13  2  0
 12 13  1  6
  9 14  2  0
 10 14  1  0
 11 15  2  0
 12 16  1  0
 11 17  1  0
 16 18  1  0
 16 19  1  0
 17 19  1  0
 18 20  1  0
 19 21  2  0
 20 22  1  0
 22 23  1  0
 23 24  1  0
 23 25  1  0
M  END
