mac-x0182-diamond-x0969_0_A
     RDKit          3D

 24 27  0  0  0  0  0  0  0  0999 V2000
    1.6980   11.9530   -6.7670 O   0  0  0  0  0  0  0  0  0  0  0  0
    0.6770   11.7020   -6.1590 C   0  0  0  0  0  0  0  0  0  0  0  0
    0.2470   12.3350   -5.0120 N   0  0  0  0  0  0  0  0  0  0  0  0
   -0.2710   10.6310   -6.5520 C   0  0  0  0  0  0  0  0  0  0  0  0
   -0.7750   11.3190   -4.1400 S   0  0  2  0  0  0  0  0  0  0  0  0
   -1.1500   10.3120   -5.5190 C   0  0  0  0  0  0  0  0  0  0  0  0
   -0.3430    9.9720   -7.7740 C   0  0  0  0  0  0  0  0  0  0  0  0
   -1.9960   12.1750   -3.7090 N   0  0  0  0  0  0  0  0  0  0  0  0
    0.0780   10.5560   -3.2630 O   0  0  0  0  0  0  0  0  0  0  0  0
   -2.1270    9.3410   -5.6460 C   0  0  0  0  0  0  0  0  0  0  0  0
   -1.3250    8.9830   -7.9270 C   0  0  0  0  0  0  0  0  0  0  0  0
   -2.0750   13.6690   -3.7680 C   0  0  0  0  0  0  0  0  0  0  0  0
   -2.2090    8.6720   -6.8730 C   0  0  0  0  0  0  0  0  0  0  0  0
   -1.8740   14.3710   -2.3840 C   0  0  0  0  0  0  0  0  0  0  0  0
   -3.1070   14.5480   -1.4720 C   0  0  0  0  0  0  0  0  0  0  0  0
   -4.3920   14.5780   -1.9220 C   0  0  0  0  0  0  0  0  0  0  0  0
   -2.8460   14.6730   -0.0270 C   0  0  0  0  0  0  0  0  0  0  0  0
   -5.4800   14.6670   -0.9950 C   0  0  0  0  0  0  0  0  0  0  0  0
   -3.8730   14.7670    0.8420 C   0  0  0  0  0  0  0  0  0  0  0  0
   -6.7870   14.6730   -1.1540 N   0  0  0  0  0  0  0  0  0  0  0  0
   -5.1810   14.7420    0.3550 N   0  0  0  0  0  0  0  0  0  0  0  0
   -6.4200   14.7750    0.9950 C   0  0  0  0  0  0  0  0  0  0  0  0
   -7.3710   14.7370    0.0920 N   0  0  0  0  0  0  0  0  0  0  0  0
   -6.5950   14.8370    2.3310 N   0  0  0  0  0  0  0  0  0  0  0  0
  1  2  2  0
  2  3  1  0
  2  4  1  0
  5  3  1  6
  4  6  2  0
  5  6  1  0
  4  7  1  0
  5  8  2  0
  5  9  2  0
  6 10  1  0
  7 11  2  0
  8 12  1  0
 10 13  2  0
 11 13  1  0
 12 14  1  0
 14 15  1  0
 15 16  2  0
 15 17  1  0
 16 18  1  0
 17 19  2  0
 18 20  2  0
 18 21  1  0
 19 21  1  0
 21 22  1  0
 20 23  1  0
 22 23  2  0
 22 24  1  0
M  END
