mac-x0212-mac-x0231
     RDKit          3D

 29 31  0  0  0  0  0  0  0  0999 V2000
   -6.7290   12.6760    1.7150 C   0  0  0  0  0  0  0  0  0  0  0  0
   -7.1680   14.3720    1.3710 S   0  0  0  0  0  0  0  0  0  0  0  0
   -7.9200   14.9010    2.4850 O   0  0  0  0  0  0  0  0  0  0  0  0
   -7.6920   14.4520    0.0240 O   0  0  0  0  0  0  0  0  0  0  0  0
   -5.6540   15.0920    1.4450 N   0  0  0  0  0  0  0  0  0  0  0  0
   -4.9110   15.0550    0.2700 C   0  0  0  0  0  0  0  0  0  0  0  0
   -3.5780   14.6980    0.2530 C   0  0  0  0  0  0  0  0  0  0  0  0
   -5.5960   15.3830   -0.8940 C   0  0  0  0  0  0  0  0  0  0  0  0
   -2.9370   14.6630   -0.9680 C   0  0  0  0  0  0  0  0  0  0  0  0
   -4.9610   15.3440   -2.1030 C   0  0  0  0  0  0  0  0  0  0  0  0
   -3.6500   14.9850   -2.1330 C   0  0  0  0  0  0  0  0  0  0  0  0
   -2.8940   14.9020   -3.3370 C   0  0  0  0  0  0  0  0  0  0  0  0
   -1.6770   14.7940   -3.1950 O   0  0  0  0  0  0  0  0  0  0  0  0
   -3.5440   14.8740   -4.6030 O   0  0  0  0  0  0  0  0  0  0  0  0
   -2.3550   14.4460   -4.8000 C   0  0  0  0  0  0  0  0  0  0  0  0
   -1.5230   15.5140   -4.6940 C   0  0  0  0  0  0  0  0  0  0  0  0
   -2.0140   13.1370   -4.9840 C   0  0  0  0  0  0  0  0  0  0  0  0
   -0.2160   15.2630   -4.6950 C   0  0  0  0  0  0  0  0  0  0  0  0
   -0.6710   12.8790   -4.9800 C   0  0  0  0  0  0  0  0  0  0  0  0
    0.2100   13.9530   -4.7970 C   0  0  0  0  0  0  0  0  0  0  0  0
    0.7130   16.3630   -4.5470 C   0  0  0  0  0  0  0  0  0  0  0  0
    0.3700   17.5400   -4.6610 O   0  0  0  0  0  0  0  0  0  0  0  0
    1.6240   13.7400   -4.6470 C   0  0  0  0  0  0  0  0  0  0  0  0
    1.9710   15.9600   -4.2790 N   0  0  0  0  0  0  0  0  0  0  0  0
    2.1060   12.3320   -4.6340 C   0  0  0  0  0  0  0  0  0  0  0  0
    2.4390   14.6910   -4.3770 N   0  0  0  0  0  0  0  0  0  0  0  0
    1.5480   11.8200   -3.3320 C   0  0  0  0  0  0  0  0  0  0  0  0
    0.8350   10.6940   -3.4330 O   0  0  0  0  0  0  0  0  0  0  0  0
    1.6760   12.3490   -2.2390 O   0  0  0  0  0  0  0  0  0  0  0  0
  1  2  1  0
  2  3  2  0
  2  4  2  0
  2  5  1  0
  5  6  1  0
  6  7  2  0
  6  8  1  0
  7  9  1  0
  8 10  2  0
  9 11  2  0
 10 11  1  0
 11 12  1  0
 12 13  2  0
 12 14  1  0
 14 15  1  0
 15 16  2  0
 15 17  1  0
 16 18  1  0
 17 19  2  0
 18 20  2  0
 19 20  1  0
 18 21  1  0
 21 22  2  0
 20 23  1  0
 21 24  1  0
 23 25  1  0
 23 26  2  0
 24 26  1  0
 25 27  1  0
 27 28  1  0
 27 29  2  0
M  END
