mac-x0453-diamond-x0895_0_A
     RDKit          3D

  9  9  0  0  0  0  0  0  0  0999 V2000
   -7.0250   14.0930    2.3970 N   0  0  0  0  0  0  0  0  0  0  0  0
   -6.0880   13.8790    1.3020 C   0  0  0  0  0  0  0  0  0  0  0  0
   -4.8480   14.7620    1.4150 C   0  0  0  0  0  0  0  0  0  0  0  0
   -4.1370   14.8360    0.1220 C   0  0  0  0  0  0  0  0  0  0  0  0
   -2.6530   14.6450    0.0190 C   0  0  0  0  0  0  0  0  0  0  0  0
   -4.6110   15.0520   -1.0660 N   0  0  0  0  0  0  0  0  0  0  0  0
   -1.9220   14.4530    0.9860 O   0  0  0  0  0  0  0  0  0  0  0  0
   -2.3500   14.7390   -1.3140 N   0  0  0  0  0  0  0  0  0  0  0  0
   -3.4950   14.9810   -1.8850 C   0  0  0  0  0  0  0  0  0  0  0  0
  1  2  1  0
  2  3  1  0
  3  4  1  0
  4  5  1  0
  4  6  2  0
  5  7  2  0
  5  8  1  0
  6  9  1  0
  8  9  2  0
M  END
