mac-x0354-mac-x0301
     RDKit          3D

 28 31  0  0  0  0  0  0  0  0999 V2000
    0.5990   11.1630   -8.2760 C   0  0  0  0  0  0  0  0  0  0  0  0
    0.8960   11.5880   -6.9180 N   0  0  0  0  0  0  0  0  0  0  0  0
    1.8670   12.4750   -6.6650 N   0  0  0  0  0  0  0  0  0  0  0  0
    0.2650   11.1620   -5.7990 C   0  0  0  0  0  0  0  0  0  0  0  0
    1.8650   12.6210   -5.3520 C   0  0  0  0  0  0  0  0  0  0  0  0
    0.8850   11.8200   -4.7290 C   0  0  0  0  0  0  0  0  0  0  0  0
   -0.8160   10.1920   -5.8660 C   0  0  0  0  0  0  0  0  0  0  0  0
    0.5950   11.6890   -3.3180 C   0  0  0  0  0  0  0  0  0  0  0  0
   -0.5980    8.9450   -6.4690 C   0  0  0  0  0  0  0  0  0  0  0  0
   -2.0700   10.4890   -5.3400 C   0  0  0  0  0  0  0  0  0  0  0  0
    0.7460   12.5210   -2.3630 N   0  0  0  0  0  0  0  0  0  0  0  0
    0.0990   10.4860   -2.9470 O   0  0  0  0  0  0  0  0  0  0  0  0
   -1.6280    8.0120   -6.5380 C   0  0  0  0  0  0  0  0  0  0  0  0
   -3.1020    9.5560   -5.4090 C   0  0  0  0  0  0  0  0  0  0  0  0
    1.2850   13.8630   -2.5810 C   0  0  0  0  0  0  0  0  0  0  0  0
   -2.8790    8.3170   -6.0080 C   0  0  0  0  0  0  0  0  0  0  0  0
    0.3760   14.8730   -3.0500 O   0  0  0  0  0  0  0  0  0  0  0  0
   -0.9290   14.5160   -3.1750 C   0  0  0  0  0  0  0  0  0  0  0  0
   -1.4380   14.0720   -4.1930 O   0  0  0  0  0  0  0  0  0  0  0  0
   -1.7090   14.7510   -1.9300 C   0  0  0  0  0  0  0  0  0  0  0  0
   -1.2270   14.6000   -0.6360 C   0  0  0  0  0  0  0  0  0  0  0  0
   -3.0520   15.1740   -2.0690 C   0  0  0  0  0  0  0  0  0  0  0  0
   -2.0280   14.8640    0.4710 C   0  0  0  0  0  0  0  0  0  0  0  0
   -3.8580   15.4350   -0.9410 C   0  0  0  0  0  0  0  0  0  0  0  0
    0.0130   14.2030   -0.2560 O   0  0  0  0  0  0  0  0  0  0  0  0
   -3.3400   15.2790    0.3490 C   0  0  0  0  0  0  0  0  0  0  0  0
   -1.3740   14.6740    1.6570 O   0  0  0  0  0  0  0  0  0  0  0  0
   -0.0550   14.4020    1.1680 C   0  0  0  0  0  0  0  0  0  0  0  0
  1  2  1  0
  2  3  1  0
  2  4  1  0
  3  5  2  0
  4  6  2  0
  5  6  1  0
  4  7  1  0
  6  8  1  0
  7  9  2  0
  7 10  1  0
  8 11  2  3
  8 12  1  0
  9 13  1  0
 10 14  2  0
 11 15  1  0
 13 16  2  0
 14 16  1  0
 15 17  1  0
 17 18  1  0
 18 19  2  0
 18 20  1  0
 20 21  1  0
 20 22  2  0
 21 23  2  0
 22 24  1  0
 21 25  1  0
 23 26  1  0
 24 26  2  0
 23 27  1  0
 25 28  1  0
 27 28  1  0
M  END
