mac-x0124-mac-x0231
     RDKit          3D

 25 28  0  0  0  0  0  0  0  0999 V2000
    0.1360   14.3580   -2.6260 C   0  0  0  0  0  0  0  0  0  0  0  0
   -1.2850   14.1920   -2.3890 N   0  0  0  0  0  0  0  0  0  0  0  0
   -2.2800   14.9380   -3.2270 C   0  0  1  0  0  0  0  0  0  0  0  0
   -1.4200   14.4060   -1.0210 C   0  0  0  0  0  0  0  0  0  0  0  0
   -3.2750   15.3610   -2.0050 C   0  0  0  0  0  0  0  0  0  0  0  0
   -2.5560   15.0400   -0.7110 C   0  0  0  0  0  0  0  0  0  0  0  0
   -0.5000   14.0090   -0.1420 N   0  0  0  0  0  0  0  0  0  0  0  0
   -0.9430   15.3400   -3.9510 C   0  0  0  0  0  0  0  0  0  0  0  0
   -3.0110   13.9260   -4.0980 C   0  0  0  0  0  0  0  0  0  0  0  0
   -2.7800   15.2510    0.6550 C   0  0  0  0  0  0  0  0  0  0  0  0
   -0.7750   14.2670    1.1360 C   0  0  0  0  0  0  0  0  0  0  0  0
   -0.2930   14.1960   -4.3110 C   0  0  0  0  0  0  0  0  0  0  0  0
   -0.1960   16.6290   -4.2520 C   0  0  0  0  0  0  0  0  0  0  0  0
   -2.3470   12.9000   -4.5800 C   0  0  0  0  0  0  0  0  0  0  0  0
   -3.9330   15.8770    1.1340 N   0  0  0  0  0  0  0  0  0  0  0  0
   -0.6940   17.7440   -4.3550 O   0  0  0  0  0  0  0  0  0  0  0  0
   -1.8820   14.8650    1.5870 N   0  0  0  0  0  0  0  0  0  0  0  0
    1.0960   14.2480   -4.7600 C   0  0  0  0  0  0  0  0  0  0  0  0
    1.1520   16.4780   -4.4970 N   0  0  0  0  0  0  0  0  0  0  0  0
   -0.9070   12.8140   -4.2290 C   0  0  0  0  0  0  0  0  0  0  0  0
    1.7470   12.9120   -4.9920 C   0  0  0  0  0  0  0  0  0  0  0  0
    1.7800   15.3280   -4.8310 N   0  0  0  0  0  0  0  0  0  0  0  0
    1.5100   12.1390   -3.7120 C   0  0  0  0  0  0  0  0  0  0  0  0
    0.7000   11.0690   -3.8650 O   0  0  0  0  0  0  0  0  0  0  0  0
    1.9540   12.3990   -2.6060 O   0  0  0  0  0  0  0  0  0  0  0  0
  1  2  1  0
  2  3  1  0
  2  4  1  0
  3  5  1  1
  4  6  2  0
  5  6  1  0
  4  7  1  0
  3  8  1  0
  3  9  1  0
  6 10  1  0
  7 11  2  0
  8 12  2  0
  8 13  1  0
  9 14  2  0
 10 15  1  0
 13 16  2  0
 10 17  2  0
 11 17  1  0
 12 18  1  0
 13 19  1  0
 12 20  1  0
 14 20  1  0
 18 21  1  0
 18 22  2  0
 19 22  1  0
 21 23  1  0
 23 24  1  0
 23 25  2  0
M  END
