mac-x0328-diamond-x0681_0_A
     RDKit          3D

 21 23  0  0  0  0  0  0  0  0999 V2000
   -2.1090   14.5870   -3.9100 O   0  0  0  0  0  0  0  0  0  0  0  0
   -2.3890   14.7100   -2.5200 C   0  0  0  0  0  0  0  0  0  0  0  0
   -1.2460   15.2840   -1.8880 O   0  0  0  0  0  0  0  0  0  0  0  0
   -2.4420   13.3840   -1.7930 C   0  0  1  0  0  0  0  0  0  0  0  0
   -3.7460   15.0890   -2.1200 C   0  0  0  0  0  0  0  0  0  0  0  0
   -1.1930   12.6770   -1.8450 N   0  0  0  0  0  0  0  0  0  0  0  0
   -3.9550   15.5050   -0.8260 C   0  0  0  0  0  0  0  0  0  0  0  0
   -4.8200   14.9800   -2.9940 C   0  0  0  0  0  0  0  0  0  0  0  0
   -3.1700   13.4610   -0.3940 C   0  0  2  0  0  0  0  0  0  0  0  0
   -5.2150   15.7930   -0.3890 C   0  0  0  0  0  0  0  0  0  0  0  0
   -6.1040   15.2740   -2.5540 C   0  0  0  0  0  0  0  0  0  0  0  0
   -4.5390   12.8520   -0.3880 C   0  0  0  0  0  0  0  0  0  0  0  0
   -3.1890   14.8500    0.3230 C   0  0  0  0  0  0  0  0  0  0  0  0
   -6.2920   15.6730   -1.2470 C   0  0  0  0  0  0  0  0  0  0  0  0
   -5.5140   13.2420    0.4850 N   0  0  0  0  0  0  0  0  0  0  0  0
   -3.9280   14.7550    1.6620 C   0  0  0  0  0  0  0  0  0  0  0  0
   -4.9950   11.9020   -1.1690 N   0  0  0  0  0  0  0  0  0  0  0  0
   -7.5400   15.9530   -0.7860 O   0  0  0  0  0  0  0  0  0  0  0  0
   -5.3720   14.2670    1.4870 C   0  0  0  0  0  0  0  0  0  0  0  0
   -6.6310   12.5070    0.2510 C   0  0  0  0  0  0  0  0  0  0  0  0
   -6.2890   11.6780   -0.7860 C   0  0  0  0  0  0  0  0  0  0  0  0
  2  1  1  0
  2  3  1  0
  2  4  1  0
  2  5  1  0
  4  6  1  1
  5  7  2  0
  5  8  1  0
  4  9  1  0
  7 10  1  0
  8 11  2  0
  9 12  1  0
  9 13  1  6
 10 14  2  0
 11 14  1  0
 12 15  1  0
 13 16  1  0
 12 17  2  0
 14 18  1  0
 15 19  1  0
 16 19  1  0
 15 20  1  0
 17 21  1  0
 20 21  2  0
M  END
