mac-x0182-diamond-x0290_0_A
     RDKit          3D

 26 28  0  0  0  0  0  0  0  0999 V2000
    1.7040   11.8620   -7.0330 O   0  0  0  0  0  0  0  0  0  0  0  0
    0.8030   11.5450   -6.3070 C   0  0  0  0  0  0  0  0  0  0  0  0
    0.6080   12.0430   -5.0460 N   0  0  0  0  0  0  0  0  0  0  0  0
   -0.2050   10.5150   -6.6690 C   0  0  0  0  0  0  0  0  0  0  0  0
   -0.7020   11.3030   -4.3050 S   0  0  2  0  0  0  0  0  0  0  0  0
   -1.1060   10.2740   -5.6440 C   0  0  0  0  0  0  0  0  0  0  0  0
   -0.2980    9.8240   -7.8670 C   0  0  0  0  0  0  0  0  0  0  0  0
   -1.6620   12.4860   -4.2440 N   0  0  0  0  0  0  0  0  0  0  0  0
   -0.1570   10.5120   -3.2260 O   0  0  0  0  0  0  0  0  0  0  0  0
   -2.1300    9.3500   -5.7460 C   0  0  0  0  0  0  0  0  0  0  0  0
   -1.3260    8.8830   -8.0020 C   0  0  0  0  0  0  0  0  0  0  0  0
   -2.0880   13.0370   -2.9490 C   0  0  0  0  0  0  0  0  0  0  0  0
   -2.2340    8.6470   -6.9490 C   0  0  0  0  0  0  0  0  0  0  0  0
   -1.2020   14.2120   -2.4730 C   0  0  0  0  0  0  0  0  0  0  0  0
   -1.3770   14.3680   -0.9830 C   0  0  0  0  0  0  0  0  0  0  0  0
   -0.3090   14.3790   -0.0860 C   0  0  0  0  0  0  0  0  0  0  0  0
   -2.6720   14.4950   -0.4880 C   0  0  0  0  0  0  0  0  0  0  0  0
   -0.6060   14.5020    1.2600 C   0  0  0  0  0  0  0  0  0  0  0  0
   -2.8890   14.6130    0.8630 C   0  0  0  0  0  0  0  0  0  0  0  0
   -4.1610   14.7320    1.4110 N   0  0  0  0  0  0  0  0  0  0  0  0
   -1.8650   14.6110    1.7530 N   0  0  0  0  0  0  0  0  0  0  0  0
   -5.3900   14.5050    0.8860 C   0  0  0  0  0  0  0  0  0  0  0  0
   -5.5130   14.6000   -0.3440 O   0  0  0  0  0  0  0  0  0  0  0  0
   -6.6150   14.1250    1.7140 C   0  0  0  0  0  0  0  0  0  0  0  0
   -7.7620   13.8520    0.8250 N   0  0  0  0  0  0  0  0  0  0  0  0
   -8.6460   15.0030    0.7160 C   0  0  0  0  0  0  0  0  0  0  0  0
  1  2  2  0
  2  3  1  0
  2  4  1  0
  5  3  1  6
  4  6  2  0
  5  6  1  0
  4  7  1  0
  5  8  2  0
  5  9  2  0
  6 10  1  0
  7 11  2  0
  8 12  1  0
 10 13  2  0
 11 13  1  0
 12 14  1  0
 14 15  1  0
 15 16  2  0
 15 17  1  0
 16 18  1  0
 17 19  2  0
 19 20  1  0
 18 21  2  0
 19 21  1  0
 20 22  1  0
 22 23  2  0
 22 24  1  0
 24 25  1  0
 25 26  1  0
M  END
