mac-x0348-mac-x0360
     RDKit          3D

 29 31  0  0  0  0  0  0  0  0999 V2000
    0.7150   18.5820   -5.8590 C   0  0  0  0  0  0  0  0  0  0  0  0
    0.0630   17.4210   -5.3290 N   0  0  0  0  0  0  0  0  0  0  0  0
    0.6270   16.5370   -4.4630 C   0  0  0  0  0  0  0  0  0  0  0  0
   -1.2210   17.0260   -5.6200 C   0  0  0  0  0  0  0  0  0  0  0  0
   -0.2990   15.5420   -4.1880 C   0  0  0  0  0  0  0  0  0  0  0  0
   -1.4620   15.8490   -4.9290 C   0  0  0  0  0  0  0  0  0  0  0  0
   -2.1780   17.6040   -6.4350 C   0  0  0  0  0  0  0  0  0  0  0  0
   -0.0740   14.3710   -3.2730 C   0  0  1  0  0  0  0  0  0  0  0  0
   -2.7170   15.2280   -5.0810 C   0  0  0  0  0  0  0  0  0  0  0  0
   -3.4140   16.9620   -6.5730 C   0  0  0  0  0  0  0  0  0  0  0  0
    0.9050   13.3560   -3.8620 C   0  0  0  0  0  0  0  0  0  0  0  0
    0.0160   14.6790   -1.7610 C   0  0  0  0  0  0  0  0  0  0  0  0
   -3.6820   15.7860   -5.9050 C   0  0  0  0  0  0  0  0  0  0  0  0
    1.0290   12.2420   -2.8790 C   0  0  0  0  0  0  0  0  0  0  0  0
   -1.2210   15.3760   -1.1750 C   0  0  0  0  0  0  0  0  0  0  0  0
    1.5970   12.3870   -1.8290 O   0  0  0  0  0  0  0  0  0  0  0  0
    0.4480   11.0830   -3.2430 O   0  0  0  0  0  0  0  0  0  0  0  0
   -2.4460   14.5820   -1.3550 N   0  0  0  0  0  0  0  0  0  0  0  0
   -3.7090   14.7550   -0.2740 S   0  0  0  0  0  0  0  0  0  0  0  0
   -4.5320   15.8460   -0.7560 O   0  0  0  0  0  0  0  0  0  0  0  0
   -3.0900   14.8110    1.0250 O   0  0  0  0  0  0  0  0  0  0  0  0
   -4.6720   13.2620   -0.3800 C   0  0  0  0  0  0  0  0  0  0  0  0
   -4.4480   12.3370   -1.4090 C   0  0  0  0  0  0  0  0  0  0  0  0
   -5.6620   13.0330    0.5820 C   0  0  0  0  0  0  0  0  0  0  0  0
   -5.2350   11.1820   -1.4610 C   0  0  0  0  0  0  0  0  0  0  0  0
   -6.4340   11.8770    0.5080 C   0  0  0  0  0  0  0  0  0  0  0  0
   -7.6540   11.5880    1.6860 Cl  0  0  0  0  0  0  0  0  0  0  0  0
   -4.9890   10.0230   -2.7080 Cl  0  0  0  0  0  0  0  0  0  0  0  0
   -6.2280   10.9520   -0.5090 C   0  0  0  0  0  0  0  0  0  0  0  0
  1  2  1  0
  2  3  1  0
  2  4  1  0
  3  5  2  0
  4  6  2  0
  5  6  1  0
  4  7  1  0
  5  8  1  0
  6  9  1  0
  7 10  2  0
  8 11  1  6
  8 12  1  0
  9 13  2  0
 10 13  1  0
 11 14  1  0
 12 15  1  0
 14 16  2  0
 14 17  1  0
 15 18  1  0
 19 18  1  0
 19 20  2  0
 19 21  2  0
 19 22  1  0
 22 23  2  0
 22 24  1  0
 23 25  1  0
 24 26  2  0
 26 27  1  0
 25 28  1  0
 25 29  2  0
 26 29  1  0
M  END
