mac-x0180-mac-x0455
     RDKit          3D

 22 23  0  0  0  0  0  0  0  0999 V2000
   -7.8030   14.5040    1.4860 C   0  0  0  0  0  0  0  0  0  0  0  0
   -6.7570   14.6940    0.4270 C   0  0  0  0  0  0  0  0  0  0  0  0
   -7.1590   14.7700   -0.7580 O   0  0  0  0  0  0  0  0  0  0  0  0
   -5.4010   14.7850    0.7620 N   0  0  0  0  0  0  0  0  0  0  0  0
   -4.3240   14.7440   -0.1400 C   0  0  0  0  0  0  0  0  0  0  0  0
   -3.0290   14.4910    0.2360 C   0  0  0  0  0  0  0  0  0  0  0  0
   -4.5400   14.9600   -1.4990 C   0  0  0  0  0  0  0  0  0  0  0  0
   -2.0100   14.4610   -0.7410 C   0  0  0  0  0  0  0  0  0  0  0  0
   -3.5360   14.9250   -2.4400 C   0  0  0  0  0  0  0  0  0  0  0  0
   -2.2570   14.6730   -2.0570 C   0  0  0  0  0  0  0  0  0  0  0  0
   -1.0570   14.6810   -3.3310 S   0  0  0  0  0  0  0  0  0  0  0  0
   -0.4900   15.6810   -2.7570 O   0  0  0  0  0  0  0  0  0  0  0  0
    0.4460   14.1190   -3.0200 N   0  0  0  0  0  0  0  0  0  0  0  0
   -1.5480   15.5500   -4.6010 C   0  0  0  0  0  0  0  0  0  0  0  0
   -1.2080   13.1400   -4.1380 C   0  0  0  0  0  0  0  0  0  0  0  0
    0.7930   14.0690   -1.8520 C   0  0  0  0  0  0  0  0  0  0  0  0
   -2.2210   12.2110   -4.0030 C   0  0  0  0  0  0  0  0  0  0  0  0
   -0.2130   12.7330   -5.0630 C   0  0  0  0  0  0  0  0  0  0  0  0
    1.9610   13.6430   -1.3260 O   0  0  0  0  0  0  0  0  0  0  0  0
   -2.2270   11.0240   -4.7090 C   0  0  0  0  0  0  0  0  0  0  0  0
   -0.1900   11.5710   -5.7740 C   0  0  0  0  0  0  0  0  0  0  0  0
   -1.2160   10.7210   -5.5810 C   0  0  0  0  0  0  0  0  0  0  0  0
  1  2  1  0
  2  3  2  0
  2  4  1  0
  4  5  1  0
  5  6  2  0
  5  7  1  0
  6  8  1  0
  7  9  2  0
  8 10  2  0
  9 10  1  0
 10 11  1  0
 11 12  2  0
 11 13  1  0
 11 14  1  0
 11 15  1  0
 13 16  2  3
 15 17  2  0
 15 18  1  0
 16 19  1  0
 17 20  1  0
 18 21  2  0
 20 22  2  0
 21 22  1  0
M  END
