mac-x0263-diamond-x0910_1_A
     RDKit          3D

 14 15  0  0  0  0  0  0  0  0999 V2000
  -11.5050   14.3310    2.4810 O   0  0  0  0  0  0  0  0  0  0  0  0
  -10.8160   15.4510    2.7930 C   0  0  0  0  0  0  0  0  0  0  0  0
  -11.2130   16.2430    3.6310 O   0  0  0  0  0  0  0  0  0  0  0  0
   -9.5460   15.6160    2.0060 C   0  0  0  0  0  0  0  0  0  0  0  0
   -8.9540   14.2900    1.5280 C   0  0  0  0  0  0  0  0  0  0  0  0
   -7.6180   14.5430    0.9260 C   0  0  0  0  0  0  0  0  0  0  0  0
   -7.4600   14.8840   -0.3950 N   0  0  0  0  0  0  0  0  0  0  0  0
   -6.4600   14.4890    1.5360 N   0  0  0  0  0  0  0  0  0  0  0  0
   -6.1210   15.0610   -0.6290 C   0  0  0  0  0  0  0  0  0  0  0  0
   -5.5190   14.8070    0.5930 C   0  0  0  0  0  0  0  0  0  0  0  0
   -5.4130   15.4110   -1.7720 C   0  0  0  0  0  0  0  0  0  0  0  0
   -4.1280   14.8990    0.7120 C   0  0  0  0  0  0  0  0  0  0  0  0
   -4.0230   15.4980   -1.6410 C   0  0  0  0  0  0  0  0  0  0  0  0
   -3.3910   15.2450   -0.4230 C   0  0  0  0  0  0  0  0  0  0  0  0
  1  2  1  0
  2  3  2  0
  2  4  1  0
  4  5  1  0
  5  6  1  0
  6  7  1  0
  6  8  2  0
  7  9  1  0
  8 10  1  0
  9 10  2  0
  9 11  1  0
 10 12  1  0
 11 13  2  0
 12 14  2  0
 13 14  1  0
M  END
