mac-x0439-mac-x0338
     RDKit          3D

 25 27  0  0  0  0  0  0  0  0999 V2000
   -3.0930   15.7310   -5.3670 Cl  0  0  0  0  0  0  0  0  0  0  0  0
   -1.6250   16.6170   -5.4340 C   0  0  0  0  0  0  0  0  0  0  0  0
   -0.3330   15.8950   -5.2140 C   0  0  2  0  0  0  0  0  0  0  0  0
   -1.6200   17.9280   -5.7090 C   0  0  0  0  0  0  0  0  0  0  0  0
   -0.0770   14.7680   -4.3050 C   0  0  0  0  0  0  0  0  0  0  0  0
    0.7010   16.8270   -4.6990 C   0  0  0  0  0  0  0  0  0  0  0  0
   -0.3690   18.6590   -5.7850 C   0  0  0  0  0  0  0  0  0  0  0  0
    0.9730   15.0680   -3.5440 C   0  0  0  0  0  0  0  0  0  0  0  0
    1.4410   16.3360   -3.7790 N   0  0  0  0  0  0  0  0  0  0  0  0
    0.7900   18.1680   -5.3050 C   0  0  0  0  0  0  0  0  0  0  0  0
    1.5930   14.1400   -2.5530 C   0  0  0  0  0  0  0  0  0  0  0  0
    2.9400   14.3240   -2.5200 O   0  0  0  0  0  0  0  0  0  0  0  0
    1.2200   13.2250   -1.7460 N   0  0  0  0  0  0  0  0  0  0  0  0
   -0.1470   12.7440   -1.4850 C   0  0  0  0  0  0  0  0  0  0  0  0
   -1.2120   13.2710   -2.4270 C   0  0  0  0  0  0  0  0  0  0  0  0
   -1.5970   14.7090   -2.0900 C   0  0  0  0  0  0  0  0  0  0  0  0
   -3.0580   14.8460   -1.7590 C   0  0  0  0  0  0  0  0  0  0  0  0
   -3.4160   14.8770   -0.4530 N   0  0  0  0  0  0  0  0  0  0  0  0
   -4.0100   14.9400   -2.7700 C   0  0  0  0  0  0  0  0  0  0  0  0
   -4.7440   15.0040   -0.2170 C   0  0  0  0  0  0  0  0  0  0  0  0
   -5.3340   15.0670   -2.5340 N   0  0  0  0  0  0  0  0  0  0  0  0
   -5.1970   15.0380    1.1860 C   0  0  0  0  0  0  0  0  0  0  0  0
   -5.6760   15.0990   -1.2320 C   0  0  0  0  0  0  0  0  0  0  0  0
   -4.2610   15.2430    2.1500 N   0  0  0  0  0  0  0  0  0  0  0  0
   -6.3720   14.8840    1.4940 O   0  0  0  0  0  0  0  0  0  0  0  0
  1  2  1  0
  2  3  1  0
  2  4  2  0
  3  5  1  1
  3  6  1  0
  4  7  1  0
  5  8  2  0
  6  9  2  0
  8  9  1  0
  6 10  1  0
  7 10  2  0
  8 11  1  0
 11 12  1  0
 11 13  2  3
 13 14  1  0
 14 15  1  0
 15 16  1  0
 16 17  1  0
 17 18  2  0
 17 19  1  0
 18 20  1  0
 19 21  2  0
 20 22  1  0
 20 23  2  0
 21 23  1  0
 22 24  1  0
 22 25  2  0
M  END
