mac-x0572-mac-x0190
     RDKit          3D

 13 14  0  0  0  0  0  0  0  0999 V2000
   -7.9320   14.5530    3.2090 C   0  0  0  0  0  0  0  0  0  0  0  0
   -7.1870   14.6680    1.8960 C   0  0  0  0  0  0  0  0  0  0  0  0
   -5.8320   14.7730    2.0650 N   0  0  0  0  0  0  0  0  0  0  0  0
   -7.7990   14.6570    0.6970 C   0  0  0  0  0  0  0  0  0  0  0  0
   -9.1630   14.5460    0.5080 O   0  0  0  0  0  0  0  0  0  0  0  0
   -6.9310   14.7910   -0.5260 C   0  0  0  0  0  0  0  0  0  0  0  0
   -5.0570   15.1140    1.0820 C   0  0  0  0  0  0  0  0  0  0  0  0
   -7.3270   14.4010   -1.6190 O   0  0  0  0  0  0  0  0  0  0  0  0
   -5.5650   15.4300   -0.3160 C   0  0  1  0  0  0  0  0  0  0  0  0
   -3.6070   15.1790    1.3490 C   0  0  0  0  0  0  0  0  0  0  0  0
   -2.7700   15.1520    0.3150 C   0  0  0  0  0  0  0  0  0  0  0  0
   -4.5280   15.1710   -1.3640 C   0  0  0  0  0  0  0  0  0  0  0  0
   -3.2300   15.0460   -1.0520 C   0  0  0  0  0  0  0  0  0  0  0  0
  1  2  1  0
  2  3  1  0
  2  4  2  0
  4  5  1  0
  4  6  1  0
  3  7  2  0
  6  8  2  0
  6  9  1  0
  7  9  1  0
  7 10  1  0
 10 11  2  0
  9 12  1  6
 11 13  1  0
 12 13  2  0
M  END
