mac-x0341-mac-x0182
     RDKit          3D

 26 29  0  0  0  0  0  0  0  0999 V2000
   -6.8830   14.7370    2.4510 N   0  0  0  0  0  0  0  0  0  0  0  0
   -6.1140   14.7620    1.3300 C   0  0  0  0  0  0  0  0  0  0  0  0
   -4.8260   14.8710    1.4250 N   0  0  0  0  0  0  0  0  0  0  0  0
   -6.7500   14.6770    0.1260 N   0  0  0  0  0  0  0  0  0  0  0  0
   -6.1220   15.0070   -1.0530 C   0  0  0  0  0  0  0  0  0  0  0  0
   -4.0670   14.8630    0.2480 C   0  0  0  0  0  0  0  0  0  0  0  0
   -6.7250   15.3180   -2.0680 O   0  0  0  0  0  0  0  0  0  0  0  0
   -4.6610   14.9300   -1.0050 C   0  0  0  0  0  0  0  0  0  0  0  0
   -2.6790   14.7750    0.3310 C   0  0  0  0  0  0  0  0  0  0  0  0
   -1.9040   14.7500   -0.8400 C   0  0  0  0  0  0  0  0  0  0  0  0
   -3.9110   14.9150   -2.1780 C   0  0  0  0  0  0  0  0  0  0  0  0
   -2.5240   14.8210   -2.1050 C   0  0  0  0  0  0  0  0  0  0  0  0
   -1.7230   14.7900   -3.3870 C   0  0  0  0  0  0  0  0  0  0  0  0
   -0.8160   13.5640   -3.4490 C   0  0  0  0  0  0  0  0  0  0  0  0
   -1.5200   12.3900   -4.0150 N   0  0  0  0  0  0  0  0  0  0  0  0
   -0.6160   11.1930   -4.2520 S   0  0  2  0  0  0  0  0  0  0  0  0
   -0.0110   10.3430   -3.2560 O   0  0  0  0  0  0  0  0  0  0  0  0
    0.6530   11.9610   -5.0350 N   0  0  0  0  0  0  0  0  0  0  0  0
   -1.0990   10.2350   -5.6180 C   0  0  0  0  0  0  0  0  0  0  0  0
    0.7910   11.5070   -6.3150 C   0  0  0  0  0  0  0  0  0  0  0  0
   -0.2430   10.5110   -6.6750 C   0  0  0  0  0  0  0  0  0  0  0  0
   -2.1410    9.3290   -5.7130 C   0  0  0  0  0  0  0  0  0  0  0  0
    1.6680   11.8360   -7.0650 O   0  0  0  0  0  0  0  0  0  0  0  0
   -2.3110    8.6830   -6.9410 C   0  0  0  0  0  0  0  0  0  0  0  0
   -0.4000    9.8760   -7.8960 C   0  0  0  0  0  0  0  0  0  0  0  0
   -1.4490    8.9540   -8.0250 C   0  0  0  0  0  0  0  0  0  0  0  0
  1  2  1  0
  2  3  2  0
  2  4  1  0
  4  5  1  0
  3  6  1  0
  5  7  2  0
  5  8  1  0
  6  8  2  0
  6  9  1  0
  9 10  2  0
  8 11  1  0
 10 12  1  0
 11 12  2  0
 12 13  1  0
 13 14  1  0
 14 15  1  0
 15 16  2  0
 16 17  2  0
 16 18  1  6
 16 19  1  0
 18 20  1  0
 19 21  2  0
 20 21  1  0
 19 22  1  0
 20 23  2  0
 22 24  2  0
 21 25  1  0
 24 26  1  0
 25 26  2  0
M  END
