mac-x0137-mac-x0402
     RDKit          3D

 21 24  0  0  0  0  0  0  0  0999 V2000
   -2.8040   12.7440   -4.1140 F   0  0  0  0  0  0  0  0  0  0  0  0
   -1.7410   13.4960   -4.5250 C   0  0  2  0  0  0  0  0  0  0  0  0
   -0.6000   12.5380   -4.9140 C   0  0  0  0  0  0  0  0  0  0  0  0
   -1.3870   14.4820   -3.4050 C   0  0  0  0  0  0  0  0  0  0  0  0
   -0.8450   13.6760   -2.3050 N   0  0  0  0  0  0  0  0  0  0  0  0
    0.2300   12.0200   -3.7290 C   0  0  0  0  0  0  0  0  0  0  0  0
    0.4400   13.0570   -2.6220 C   0  0  0  0  0  0  0  0  0  0  0  0
   -1.0030   14.1510   -1.0000 C   0  0  0  0  0  0  0  0  0  0  0  0
    0.0090   14.0900   -0.1370 N   0  0  0  0  0  0  0  0  0  0  0  0
   -2.1870   14.6760   -0.5870 C   0  0  0  0  0  0  0  0  0  0  0  0
   -0.2290   14.5580    1.1090 C   0  0  0  0  0  0  0  0  0  0  0  0
   -2.3100   15.1490    0.6980 C   0  0  0  0  0  0  0  0  0  0  0  0
   -3.4660   14.8560   -1.2710 C   0  0  0  0  0  0  0  0  0  0  0  0
   -1.3490   15.0900    1.5770 N   0  0  0  0  0  0  0  0  0  0  0  0
   -3.5960   15.7180    0.9460 N   0  0  0  0  0  0  0  0  0  0  0  0
   -4.3350   14.9340    0.0040 C   0  0  1  0  0  0  0  0  0  0  0  0
   -5.7430   15.3890   -0.3790 C   0  0  0  0  0  0  0  0  0  0  0  0
   -4.6710   13.4670    1.0140 S   0  0  0  0  0  0  0  0  0  0  0  0
   -5.8960   14.5310    1.7610 C   0  0  1  0  0  0  0  0  0  0  0  0
   -6.7120   14.9160    0.6420 N   0  0  0  0  0  0  0  0  0  0  0  0
   -6.7880   13.9260    2.6890 N   0  0  0  0  0  0  0  0  0  0  0  0
  2  1  1  1
  2  3  1  0
  2  4  1  0
  4  5  1  0
  3  6  1  0
  5  7  1  0
  6  7  1  0
  5  8  1  0
  8  9  2  0
  8 10  1  0
  9 11  1  0
 10 12  2  0
 10 13  1  0
 11 14  2  0
 12 14  1  0
 12 15  1  0
 16 13  1  6
 15 16  1  0
 16 17  1  0
 16 18  1  0
 18 19  1  0
 17 20  1  0
 19 20  1  0
 19 21  1  1
M  END
