mac-x0404-diamond-x1015_0_A
     RDKit          3D

 28 31  0  0  0  0  0  0  0  0999 V2000
    1.0970   11.0960   -2.9540 O   0  0  0  0  0  0  0  0  0  0  0  0
    1.7820   12.2950   -3.3080 C   0  0  1  0  0  0  0  0  0  0  0  0
    1.9490   12.6290   -4.7890 C   0  0  0  0  0  0  0  0  0  0  0  0
    0.7950   13.2790   -2.9730 C   0  0  1  0  0  0  0  0  0  0  0  0
    1.4870   13.9850   -5.0740 O   0  0  0  0  0  0  0  0  0  0  0  0
   -0.4730   12.8190   -3.5320 N   0  0  0  0  0  0  0  0  0  0  0  0
    0.4140   13.3960   -1.6450 N   0  0  0  0  0  0  0  0  0  0  0  0
    0.1360   14.3840   -5.2030 C   0  0  0  0  0  0  0  0  0  0  0  0
   -1.2580   14.0150   -3.1410 C   0  0  2  0  0  0  0  0  0  0  0  0
   -0.6010   14.2790   -1.7660 C   0  0  0  0  0  0  0  0  0  0  0  0
   -0.7130   11.9040   -4.6430 C   0  0  0  0  0  0  0  0  0  0  0  0
   -0.0920   15.7810   -5.2340 C   0  0  0  0  0  0  0  0  0  0  0  0
   -0.9790   13.5380   -5.3100 C   0  0  0  0  0  0  0  0  0  0  0  0
   -2.7390   13.7740   -3.0220 C   0  0  0  0  0  0  0  0  0  0  0  0
   -0.8620   15.1040   -0.9370 O   0  0  0  0  0  0  0  0  0  0  0  0
   -0.1240   12.0350   -5.9470 C   0  0  0  0  0  0  0  0  0  0  0  0
   -1.5690   10.7770   -4.5320 C   0  0  0  0  0  0  0  0  0  0  0  0
   -1.4060   16.2960   -5.3660 C   0  0  0  0  0  0  0  0  0  0  0  0
   -2.2760   14.0530   -5.4330 C   0  0  0  0  0  0  0  0  0  0  0  0
    0.9540   16.6840   -5.1450 C   0  0  0  0  0  0  0  0  0  0  0  0
   -0.3670   11.1430   -7.0120 C   0  0  0  0  0  0  0  0  0  0  0  0
   -1.8180    9.8780   -5.5960 C   0  0  0  0  0  0  0  0  0  0  0  0
   -2.4910   15.4240   -5.4580 C   0  0  0  0  0  0  0  0  0  0  0  0
   -1.6090   17.6710   -5.4150 C   0  0  0  0  0  0  0  0  0  0  0  0
    0.7510   18.0570   -5.1960 C   0  0  0  0  0  0  0  0  0  0  0  0
   -1.2180   10.0640   -6.8330 C   0  0  0  0  0  0  0  0  0  0  0  0
   -0.5430   18.5420   -5.3370 C   0  0  0  0  0  0  0  0  0  0  0  0
   -1.5290    8.9720   -8.1280 Cl  0  0  0  0  0  0  0  0  0  0  0  0
  2  1  1  6
  2  3  1  0
  2  4  1  0
  3  5  1  0
  4  6  1  0
  4  7  1  1
  5  8  1  0
  6  9  1  0
  7 10  1  0
  9 10  1  0
  6 11  1  0
  8 12  1  0
  8 13  2  0
  9 14  1  1
 10 15  2  0
 11 16  2  0
 11 17  1  0
 12 18  2  0
 13 19  1  0
 12 20  1  0
 16 21  1  0
 17 22  2  0
 18 23  1  0
 19 23  2  0
 18 24  1  0
 20 25  2  0
 21 26  2  0
 22 26  1  0
 24 27  2  0
 25 27  1  0
 26 28  1  0
M  END
