mac-x0188-mac-x0124
     RDKit          3D

 21 23  0  0  0  0  0  0  0  0999 V2000
    1.1760   12.9780   -5.2730 C   0  0  0  0  0  0  0  0  0  0  0  0
   -0.1190   13.1320   -4.5780 C   0  0  0  0  0  0  0  0  0  0  0  0
   -1.2400   12.8910   -5.3100 O   0  0  0  0  0  0  0  0  0  0  0  0
   -0.4790   13.4860   -3.2970 C   0  0  0  0  0  0  0  0  0  0  0  0
    0.4420   13.8330   -2.2160 C   0  0  0  0  0  0  0  0  0  0  0  0
   -2.3710   13.0800   -4.5360 N   0  0  0  0  0  0  0  0  0  0  0  0
   -1.9230   13.4360   -3.3250 C   0  0  0  0  0  0  0  0  0  0  0  0
    1.0270   14.9020   -2.1070 O   0  0  0  0  0  0  0  0  0  0  0  0
    0.6570   12.8700   -1.2610 O   0  0  0  0  0  0  0  0  0  0  0  0
   -2.7260   13.7750   -2.1690 C   0  0  0  0  0  0  0  0  0  0  0  0
   -4.0980   14.3060   -2.2440 C   0  0  0  0  0  0  0  0  0  0  0  0
   -2.0890   13.6930   -0.9700 C   0  0  0  0  0  0  0  0  0  0  0  0
   -4.3130   15.4750   -1.7070 C   0  0  0  0  0  0  0  0  0  0  0  0
   -2.5660   14.2040    0.3590 C   0  0  2  0  0  0  0  0  0  0  0  0
   -3.9590   13.9890    0.7620 N   0  0  0  0  0  0  0  0  0  0  0  0
   -3.1080   16.0040   -1.2100 C   0  0  0  0  0  0  0  0  0  0  0  0
   -2.3390   15.4460   -0.3110 C   0  0  0  0  0  0  0  0  0  0  0  0
   -1.5940   13.8900    1.3750 N   0  0  0  0  0  0  0  0  0  0  0  0
   -0.5160   14.5410    1.4920 C   0  0  0  0  0  0  0  0  0  0  0  0
   -1.0310   16.0370   -0.0690 C   0  0  0  0  0  0  0  0  0  0  0  0
   -0.1640   15.6030    0.7480 N   0  0  0  0  0  0  0  0  0  0  0  0
  1  2  1  0
  2  3  1  0
  2  4  2  0
  4  5  1  0
  3  6  1  0
  4  7  1  0
  6  7  2  0
  5  8  2  0
  5  9  1  0
  7 10  1  0
 10 11  1  0
 10 12  2  0
 11 13  2  0
 12 14  1  0
 14 15  1  1
 13 16  1  0
 14 17  1  0
 16 17  2  0
 14 18  1  0
 18 19  2  0
 17 20  1  0
 19 21  1  0
 20 21  2  0
M  END
