mac-x0190-diamond-x0950_0_A
     RDKit          3D

 20 21  0  0  0  0  0  0  0  0999 V2000
   -9.1140   15.0670    2.4700 O   0  0  0  0  0  0  0  0  0  0  0  0
   -9.0020   14.4210    1.2070 C   0  0  0  0  0  0  0  0  0  0  0  0
   -7.5980   14.5780    0.7570 C   0  0  0  0  0  0  0  0  0  0  0  0
   -7.2840   14.9900   -0.5130 N   0  0  0  0  0  0  0  0  0  0  0  0
   -6.5070   14.3600    1.4550 N   0  0  0  0  0  0  0  0  0  0  0  0
   -5.9160   15.0330   -0.6280 C   0  0  0  0  0  0  0  0  0  0  0  0
   -5.4570   14.6320    0.6140 C   0  0  0  0  0  0  0  0  0  0  0  0
   -5.0650   15.3730   -1.6750 C   0  0  0  0  0  0  0  0  0  0  0  0
   -4.0740   14.5520    0.8450 C   0  0  0  0  0  0  0  0  0  0  0  0
   -3.6860   15.2840   -1.4290 C   0  0  0  0  0  0  0  0  0  0  0  0
   -3.1800   14.8720   -0.1800 C   0  0  0  0  0  0  0  0  0  0  0  0
   -1.6880   14.7450    0.0970 C   0  0  0  0  0  0  0  0  0  0  0  0
   -1.0720   13.4370   -0.3570 C   0  0  0  0  0  0  0  0  0  0  0  0
   -0.0850   13.6010   -1.5110 C   0  0  0  0  0  0  0  0  0  0  0  0
    0.7780   12.4630   -1.5160 O   0  0  0  0  0  0  0  0  0  0  0  0
    0.8170   11.7120   -2.6590 C   0  0  0  0  0  0  0  0  0  0  0  0
    1.3170   12.5320   -3.8840 C   0  0  1  0  0  0  0  0  0  0  0  0
    0.4980   10.5190   -2.6700 O   0  0  0  0  0  0  0  0  0  0  0  0
    2.8370   12.4350   -4.0310 C   0  0  0  0  0  0  0  0  0  0  0  0
    0.7560   12.1360   -5.1330 O   0  0  0  0  0  0  0  0  0  0  0  0
  1  2  1  0
  2  3  1  0
  3  4  1  0
  3  5  2  0
  4  6  1  0
  5  7  1  0
  6  7  2  0
  6  8  1  0
  7  9  1  0
  8 10  2  0
  9 11  2  0
 10 11  1  0
 11 12  1  0
 12 13  1  0
 13 14  1  0
 14 15  1  0
 15 16  1  0
 16 17  1  0
 16 18  2  0
 17 19  1  6
 17 20  1  0
M  END
