mac-x0284-mac-x0137
     RDKit          3D

 25 28  0  0  0  0  0  0  0  0999 V2000
   -6.3950   15.7410   -1.5870 C   0  0  0  0  0  0  0  0  0  0  0  0
   -5.2750   14.8160   -1.9300 C   0  0  0  0  0  0  0  0  0  0  0  0
   -5.4520   13.4450   -1.8150 C   0  0  0  0  0  0  0  0  0  0  0  0
   -4.0380   15.3030   -2.3650 C   0  0  0  0  0  0  0  0  0  0  0  0
   -2.9840   14.4440   -2.6690 C   0  0  0  0  0  0  0  0  0  0  0  0
   -4.4010   12.5800   -2.1120 C   0  0  0  0  0  0  0  0  0  0  0  0
   -1.7160   15.0800   -3.1250 C   0  0  0  0  0  0  0  0  0  0  0  0
   -3.1480   13.0640   -2.5320 C   0  0  0  0  0  0  0  0  0  0  0  0
   -0.6250   14.9940   -2.5910 O   0  0  0  0  0  0  0  0  0  0  0  0
   -1.8830   15.8120   -4.2420 O   0  0  0  0  0  0  0  0  0  0  0  0
   -1.9820   12.1570   -2.8160 C   0  0  1  0  0  0  0  0  0  0  0  0
   -1.4760   12.2390   -4.2740 C   0  0  0  0  0  0  0  0  0  0  0  0
   -0.9000   12.5270   -1.8310 N   0  0  0  0  0  0  0  0  0  0  0  0
    0.4180   12.7210   -2.4430 C   0  0  0  0  0  0  0  0  0  0  0  0
   -0.2100   11.4370   -4.5110 C   0  0  0  0  0  0  0  0  0  0  0  0
   -1.1650   13.3660   -0.7130 C   0  0  0  0  0  0  0  0  0  0  0  0
    0.7820   11.6130   -3.3760 C   0  0  0  0  0  0  0  0  0  0  0  0
   -0.1070   14.1080   -0.2080 N   0  0  0  0  0  0  0  0  0  0  0  0
   -2.3350   13.5650   -0.0350 C   0  0  0  0  0  0  0  0  0  0  0  0
   -0.2000   14.8790    0.9030 C   0  0  0  0  0  0  0  0  0  0  0  0
   -2.3670   14.5040    1.1160 C   0  0  0  0  0  0  0  0  0  0  0  0
   -3.6980   13.1310   -0.0640 C   0  0  0  0  0  0  0  0  0  0  0  0
   -1.2590   15.0970    1.5850 N   0  0  0  0  0  0  0  0  0  0  0  0
   -3.5540   14.6970    1.6020 N   0  0  0  0  0  0  0  0  0  0  0  0
   -4.3410   13.8300    0.8800 C   0  0  0  0  0  0  0  0  0  0  0  0
  1  2  1  0
  2  3  2  0
  2  4  1  0
  4  5  2  0
  3  6  1  0
  5  7  1  0
  5  8  1  0
  6  8  2  0
  7  9  2  0
  7 10  1  0
 11  8  1  6
 11 12  1  0
 11 13  1  0
 13 14  1  0
 12 15  1  0
 13 16  1  0
 14 17  1  0
 15 17  1  0
 16 18  1  0
 16 19  2  0
 18 20  1  0
 19 21  1  0
 19 22  1  0
 20 23  2  0
 21 23  1  0
 21 24  2  0
 22 25  2  0
 24 25  1  0
M  END
