mac-x0182-mac-x0263
     RDKit          3D

 29 32  0  0  0  0  0  0  0  0999 V2000
    1.7200   11.8600   -6.9310 O   0  0  0  0  0  0  0  0  0  0  0  0
    0.7490   11.5860   -6.2690 C   0  0  0  0  0  0  0  0  0  0  0  0
    0.4290   12.1700   -5.0700 N   0  0  0  0  0  0  0  0  0  0  0  0
   -0.2290   10.5380   -6.6510 C   0  0  0  0  0  0  0  0  0  0  0  0
   -0.7460   11.2730   -4.2680 S   0  0  2  0  0  0  0  0  0  0  0  0
   -1.1240   10.2580   -5.6280 C   0  0  0  0  0  0  0  0  0  0  0  0
   -0.3070    9.8630   -7.8610 C   0  0  0  0  0  0  0  0  0  0  0  0
   -1.9100   12.2440   -4.0340 N   0  0  0  0  0  0  0  0  0  0  0  0
   -0.0200   10.4830   -3.2910 O   0  0  0  0  0  0  0  0  0  0  0  0
   -2.1260    9.3150   -5.7420 C   0  0  0  0  0  0  0  0  0  0  0  0
   -1.3140    8.9010   -8.0090 C   0  0  0  0  0  0  0  0  0  0  0  0
   -1.7750   13.6980   -4.2920 C   0  0  0  0  0  0  0  0  0  0  0  0
   -2.2150    8.6300   -6.9580 C   0  0  0  0  0  0  0  0  0  0  0  0
   -1.8490   14.5150   -2.9830 C   0  0  0  0  0  0  0  0  0  0  0  0
   -2.9330   15.6160   -2.8760 C   0  0  0  0  0  0  0  0  0  0  0  0
   -3.8110   15.4060   -1.6570 C   0  0  0  0  0  0  0  0  0  0  0  0
   -5.1880   15.1700   -1.8410 C   0  0  0  0  0  0  0  0  0  0  0  0
   -3.2580   15.4320   -0.3670 C   0  0  0  0  0  0  0  0  0  0  0  0
   -5.9460   14.9520   -0.6940 C   0  0  0  0  0  0  0  0  0  0  0  0
   -4.0510   15.2110    0.7680 C   0  0  0  0  0  0  0  0  0  0  0  0
   -7.2780   14.6880   -0.5130 N   0  0  0  0  0  0  0  0  0  0  0  0
   -5.4190   14.9610    0.5880 C   0  0  0  0  0  0  0  0  0  0  0  0
   -7.5060   14.5440    0.8350 C   0  0  0  0  0  0  0  0  0  0  0  0
   -6.3980   14.7060    1.5140 N   0  0  0  0  0  0  0  0  0  0  0  0
   -8.8570   14.2490    1.3830 C   0  0  0  0  0  0  0  0  0  0  0  0
   -9.5030   15.5310    1.9090 C   0  0  0  0  0  0  0  0  0  0  0  0
  -10.7070   15.3320    2.7940 C   0  0  0  0  0  0  0  0  0  0  0  0
  -11.4860   14.2750    2.4810 O   0  0  0  0  0  0  0  0  0  0  0  0
  -11.0040   16.0480    3.7360 O   0  0  0  0  0  0  0  0  0  0  0  0
  1  2  2  0
  2  3  1  0
  2  4  1  0
  5  3  1  6
  4  6  2  0
  5  6  1  0
  4  7  1  0
  5  8  2  0
  5  9  2  0
  6 10  1  0
  7 11  2  0
  8 12  1  0
 10 13  2  0
 11 13  1  0
 12 14  1  0
 14 15  1  0
 15 16  1  0
 16 17  2  0
 16 18  1  0
 17 19  1  0
 18 20  2  0
 19 21  1  0
 19 22  2  0
 20 22  1  0
 21 23  1  0
 22 24  1  0
 23 24  2  0
 23 25  1  0
 25 26  1  0
 26 27  1  0
 27 28  1  0
 27 29  2  0
M  END
