mac-x0451-mac-x0411
     RDKit          3D

 25 27  0  0  0  0  0  0  0  0999 V2000
   -6.4600   14.9050    2.7120 N   0  0  0  0  0  0  0  0  0  0  0  0
   -5.6930   14.8740    1.6130 C   0  0  0  0  0  0  0  0  0  0  0  0
   -6.2150   15.0260    0.4390 N   0  0  0  0  0  0  0  0  0  0  0  0
   -3.9870   14.6420    1.6450 S   0  0  0  0  0  0  0  0  0  0  0  0
   -5.2430   14.9660   -0.5200 C   0  0  0  0  0  0  0  0  0  0  0  0
   -3.9460   14.7500   -0.0650 C   0  0  0  0  0  0  0  0  0  0  0  0
   -5.4810   15.1020   -1.8850 C   0  0  0  0  0  0  0  0  0  0  0  0
   -2.8640   14.6520   -0.9560 C   0  0  0  0  0  0  0  0  0  0  0  0
   -4.4240   15.0060   -2.7760 C   0  0  0  0  0  0  0  0  0  0  0  0
   -3.1390   14.7790   -2.3280 C   0  0  0  0  0  0  0  0  0  0  0  0
   -2.0920   14.6560   -3.1880 O   0  0  0  0  0  0  0  0  0  0  0  0
   -2.3830   13.7810   -4.3150 C   0  0  0  0  0  0  0  0  0  0  0  0
   -1.2120   12.8170   -4.5240 C   0  0  0  0  0  0  0  0  0  0  0  0
   -1.4340   11.4910   -5.2810 C   0  0  0  0  0  0  0  0  0  0  0  0
   -0.4040   10.8920   -6.0550 C   0  0  0  0  0  0  0  0  0  0  0  0
   -2.6780   10.8190   -5.2220 C   0  0  0  0  0  0  0  0  0  0  0  0
    0.8440   11.4700   -6.1750 O   0  0  0  0  0  0  0  0  0  0  0  0
   -2.8840    9.6080   -5.9000 C   0  0  0  0  0  0  0  0  0  0  0  0
   -0.6300    9.6750   -6.7330 C   0  0  0  0  0  0  0  0  0  0  0  0
    0.5980    8.9140   -7.6900 Cl  0  0  0  0  0  0  0  0  0  0  0  0
    1.2170   12.4530   -5.1960 C   0  0  0  0  0  0  0  0  0  0  0  0
   -1.8650    9.0360   -6.6540 C   0  0  0  0  0  0  0  0  0  0  0  0
    0.9690   11.9760   -3.7700 C   0  0  0  0  0  0  0  0  0  0  0  0
    1.4470   12.8480   -2.8540 O   0  0  0  0  0  0  0  0  0  0  0  0
    0.4250   10.9510   -3.3910 O   0  0  0  0  0  0  0  0  0  0  0  0
  1  2  1  0
  2  3  2  0
  2  4  1  0
  3  5  1  0
  4  6  1  0
  5  6  2  0
  5  7  1  0
  6  8  1  0
  7  9  2  0
  8 10  2  0
  9 10  1  0
 10 11  1  0
 11 12  1  0
 12 13  1  0
 13 14  1  0
 14 15  2  0
 14 16  1  0
 15 17  1  0
 16 18  2  0
 15 19  1  0
 19 20  1  0
 17 21  1  0
 18 22  1  0
 19 22  2  0
 21 23  1  0
 23 24  1  0
 23 25  2  0
M  END
