mac-x0231-mac-x0159
     RDKit          3D

 27 30  0  0  0  0  0  0  0  0999 V2000
    0.5410   10.9640   -3.2250 O   0  0  0  0  0  0  0  0  0  0  0  0
    1.2410   12.1280   -3.2190 C   0  0  0  0  0  0  0  0  0  0  0  0
    1.5520   12.6640   -2.1750 O   0  0  0  0  0  0  0  0  0  0  0  0
    1.5710   12.6420   -4.6050 C   0  0  0  0  0  0  0  0  0  0  0  0
    1.0690   14.0680   -4.9450 C   0  0  1  0  0  0  0  0  0  0  0  0
   -0.4390   14.2430   -5.1630 C   0  0  0  0  0  0  0  0  0  0  0  0
    1.6410   15.0060   -3.9250 N   0  0  0  0  0  0  0  0  0  0  0  0
   -1.0180   15.5290   -5.0170 C   0  0  0  0  0  0  0  0  0  0  0  0
    0.6830   16.0710   -3.5290 N   0  0  0  0  0  0  0  0  0  0  0  0
   -1.2710   13.1710   -5.5130 C   0  0  0  0  0  0  0  0  0  0  0  0
   -0.0320   15.7680   -2.2420 C   0  0  0  0  0  0  0  0  0  0  0  0
   -0.1200   16.6840   -4.6130 C   0  0  2  0  0  0  0  0  0  0  0  0
   -2.3950   15.7100   -5.2300 C   0  0  0  0  0  0  0  0  0  0  0  0
   -2.6390   13.3660   -5.7190 C   0  0  0  0  0  0  0  0  0  0  0  0
   -0.9660   17.7020   -4.1090 O   0  0  0  0  0  0  0  0  0  0  0  0
    0.6550   17.3350   -5.7700 C   0  0  0  0  0  0  0  0  0  0  0  0
   -3.1990   14.6310   -5.5800 C   0  0  0  0  0  0  0  0  0  0  0  0
   -1.2260   14.8590   -2.1820 N   0  0  0  0  0  0  0  0  0  0  0  0
   -2.5290   15.4810   -2.4860 C   0  0  0  0  0  0  0  0  0  0  0  0
   -1.2270   14.1400   -0.8800 C   0  0  2  0  0  0  0  0  0  0  0  0
   -3.5990   15.0600   -1.5770 N   0  0  0  0  0  0  0  0  0  0  0  0
   -2.1150   14.6340    0.2950 C   0  0  2  0  0  0  0  0  0  0  0  0
    0.1170   14.3140   -0.3420 N   0  0  0  0  0  0  0  0  0  0  0  0
   -3.2910   15.4390   -0.2310 C   0  0  2  0  0  0  0  0  0  0  0  0
   -1.2580   15.4250    1.1540 N   0  0  0  0  0  0  0  0  0  0  0  0
    0.0140   14.7990    1.0170 C   0  0  0  0  0  0  0  0  0  0  0  0
   -4.5010   15.2550    0.5400 N   0  0  0  0  0  0  0  0  0  0  0  0
  1  2  1  0
  2  3  2  0
  2  4  1  0
  5  4  1  1
  5  6  1  0
  5  7  1  0
  6  8  2  0
  7  9  1  0
  6 10  1  0
  9 11  1  0
  8 12  1  0
  9 12  1  0
  8 13  1  0
 10 14  2  0
 12 15  1  0
 12 16  1  6
 13 17  2  0
 14 17  1  0
 11 18  1  0
 18 19  1  0
 18 20  1  0
 19 21  1  0
 20 22  1  0
 20 23  1  1
 21 24  1  0
 22 24  1  0
 22 25  1  1
 23 26  1  0
 25 26  1  0
 24 27  1  1
M  END
