mac-x0576-mac-x0572
     RDKit          3D

 20 22  0  0  0  0  0  0  0  0999 V2000
    0.1920   14.1520    1.9060 N   0  0  0  0  0  0  0  0  0  0  0  0
   -0.7920   14.3290    1.0450 C   0  0  0  0  0  0  0  0  0  0  0  0
   -1.8770   14.4460    1.6080 N   0  0  0  0  0  0  0  0  0  0  0  0
   -0.6220   14.3600   -0.3220 N   0  0  0  0  0  0  0  0  0  0  0  0
   -1.6900   14.6090   -1.1700 C   0  0  0  0  0  0  0  0  0  0  0  0
   -2.9500   14.5730    0.8610 C   0  0  0  0  0  0  0  0  0  0  0  0
   -1.5560   14.7900   -2.3770 O   0  0  0  0  0  0  0  0  0  0  0  0
   -3.0250   14.6520   -0.4850 C   0  0  0  0  0  0  0  0  0  0  0  0
   -4.0570   14.6100    1.5610 N   0  0  0  0  0  0  0  0  0  0  0  0
   -5.2550   14.9640    1.0490 C   0  0  1  0  0  0  0  0  0  0  0  0
   -4.2950   14.7490   -1.1550 N   0  0  0  0  0  0  0  0  0  0  0  0
   -4.9790   16.2440    0.6320 O   0  0  0  0  0  0  0  0  0  0  0  0
   -5.4310   14.2220   -0.2880 C   0  0  2  0  0  0  0  0  0  0  0  0
   -6.2710   14.9860    2.0440 N   0  0  0  0  0  0  0  0  0  0  0  0
   -7.3740   14.0840    1.8460 C   0  0  1  0  0  0  0  0  0  0  0  0
   -6.8920   14.4540   -0.6600 C   0  0  0  0  0  0  0  0  0  0  0  0
   -8.4070   14.4520    2.9140 C   0  0  0  0  0  0  0  0  0  0  0  0
   -7.2480   14.8850   -1.7560 O   0  0  0  0  0  0  0  0  0  0  0  0
   -7.9490   14.0870    0.4070 C   0  0  2  0  0  0  0  0  0  0  0  0
   -9.0610   14.9680    0.3320 O   0  0  0  0  0  0  0  0  0  0  0  0
  1  2  1  0
  2  3  2  0
  2  4  1  0
  4  5  1  0
  3  6  1  0
  5  7  2  0
  5  8  1  0
  6  8  2  0
  6  9  1  0
  9 10  1  0
  8 11  1  0
 10 12  1  6
 10 13  1  0
 13 11  1  6
 10 14  1  0
 14 15  1  0
 13 16  1  0
 15 17  1  1
 16 18  2  0
 15 19  1  0
 16 19  1  0
 19 20  1  1
M  END
