mac-x0441-diamond-x0631_0_A
     RDKit          3D

 27 29  0  0  0  0  0  0  0  0999 V2000
    0.2480   10.9970   -3.3690 O   0  0  0  0  0  0  0  0  0  0  0  0
    0.7090   12.1650   -3.8710 C   0  0  0  0  0  0  0  0  0  0  0  0
    1.1550   13.0020   -3.1010 O   0  0  0  0  0  0  0  0  0  0  0  0
    0.5820   12.2280   -5.3960 C   0  0  0  0  0  0  0  0  0  0  0  0
   -0.2050   11.0920   -5.9470 N   0  0  0  0  0  0  0  0  0  0  0  0
    0.4950   10.3440   -6.9670 N   0  0  0  0  0  0  0  0  0  0  0  0
   -1.5340   11.4030   -6.5080 C   0  0  1  0  0  0  0  0  0  0  0  0
    0.2420    8.8670   -6.8750 C   0  0  0  0  0  0  0  0  0  0  0  0
    0.0860   10.9610   -8.2300 C   0  0  2  0  0  0  0  0  0  0  0  0
   -1.4330   10.9850   -8.0240 C   0  0  1  0  0  0  0  0  0  0  0  0
   -2.7250   10.8060   -5.7870 C   0  0  0  0  0  0  0  0  0  0  0  0
    0.8730   10.3760   -9.4590 C   0  0  0  0  0  0  0  0  0  0  0  0
   -0.8360    8.1290   -7.6680 C   0  0  0  0  0  0  0  0  0  0  0  0
   -2.2650    9.7950   -8.4250 C   0  0  0  0  0  0  0  0  0  0  0  0
   -3.4750    9.8340   -6.3150 C   0  0  0  0  0  0  0  0  0  0  0  0
    1.5560    9.2790   -9.0410 F   0  0  0  0  0  0  0  0  0  0  0  0
    0.2990    9.9660  -10.6830 O   0  0  0  0  0  0  0  0  0  0  0  0
    1.7660   11.2590   -9.8910 F   0  0  0  0  0  0  0  0  0  0  0  0
   -1.8870    7.4490   -6.8130 C   0  0  0  0  0  0  0  0  0  0  0  0
   -3.2070    9.2790   -7.6170 C   0  0  0  0  0  0  0  0  0  0  0  0
    1.3990    9.4380  -11.4760 C   0  0  1  0  0  0  0  0  0  0  0  0
    0.9600    8.4430  -12.3760 O   0  0  0  0  0  0  0  0  0  0  0  0
    2.1870   10.5180  -12.2830 C   0  0  1  0  0  0  0  0  0  0  0  0
    3.4920    9.9850  -12.6780 O   0  0  0  0  0  0  0  0  0  0  0  0
    1.5960   11.0470  -13.5810 C   0  0  0  0  0  0  0  0  0  0  0  0
    2.8410   11.5730  -14.2570 C   0  0  0  0  0  0  0  0  0  0  0  0
    3.7860   10.4270  -14.0120 C   0  0  0  0  0  0  0  0  0  0  0  0
  1  2  1  0
  2  3  2  0
  2  4  1  0
  4  5  1  0
  5  6  1  0
  5  7  1  0
  6  8  1  0
  6  9  1  0
  7 10  1  0
  9 10  1  0
  7 11  1  1
  9 12  1  6
  8 13  1  0
 10 14  1  1
 11 15  2  0
 12 16  1  0
 12 17  1  0
 12 18  1  0
 13 19  1  0
 14 20  2  0
 15 20  1  0
 17 21  1  0
 21 22  1  6
 21 23  1  0
 23 24  1  0
 23 25  1  6
 25 26  1  0
 24 27  1  0
 26 27  1  0
M  END
