mac-x0326-mac-x0271
     RDKit          3D

 26 29  0  0  0  0  0  0  0  0999 V2000
   -3.9790   15.2660    1.4530 Cl  0  0  0  0  0  0  0  0  0  0  0  0
   -2.6620   15.0620    0.3550 C   0  0  0  0  0  0  0  0  0  0  0  0
   -2.9910   14.8110   -0.9560 C   0  0  0  0  0  0  0  0  0  0  0  0
   -1.4030   15.1640    0.8310 C   0  0  0  0  0  0  0  0  0  0  0  0
   -1.9510   14.6690   -1.9310 C   0  0  0  0  0  0  0  0  0  0  0  0
   -0.3620   15.0290   -0.0330 C   0  0  0  0  0  0  0  0  0  0  0  0
   -4.4020   14.7670   -0.8050 C   0  0  0  0  0  0  0  0  0  0  0  0
   -1.9480   14.4260   -3.3130 N   0  0  0  0  0  0  0  0  0  0  0  0
   -0.6470   14.7940   -1.3830 C   0  0  0  0  0  0  0  0  0  0  0  0
   -5.5400   15.3690   -1.3540 C   0  0  0  0  0  0  0  0  0  0  0  0
   -4.5200   13.8650    0.2500 C   0  0  0  0  0  0  0  0  0  0  0  0
   -0.6820   14.3800   -3.7390 C   0  0  0  0  0  0  0  0  0  0  0  0
    0.5390   14.6180   -2.5780 S   0  0  0  0  0  0  0  0  0  0  0  0
   -6.7660   15.0180   -0.7270 C   0  0  0  0  0  0  0  0  0  0  0  0
   -5.6930   13.5390    0.8230 C   0  0  0  0  0  0  0  0  0  0  0  0
   -0.2090   14.1340   -5.1370 C   0  0  0  0  0  0  0  0  0  0  0  0
   -6.8210   14.1190    0.3510 C   0  0  0  0  0  0  0  0  0  0  0  0
   -7.9810   15.5790   -1.1580 O   0  0  0  0  0  0  0  0  0  0  0  0
    0.9960   13.2000   -5.1560 C   0  0  0  0  0  0  0  0  0  0  0  0
   -8.0640   13.7960    0.9940 C   0  0  0  0  0  0  0  0  0  0  0  0
   -9.0480   15.6150   -0.2570 C   0  0  0  0  0  0  0  0  0  0  0  0
    1.0160   12.2610   -3.9710 C   0  0  0  0  0  0  0  0  0  0  0  0
   -9.8940   16.4930   -0.2340 O   0  0  0  0  0  0  0  0  0  0  0  0
   -9.1250   14.5180    0.7060 C   0  0  0  0  0  0  0  0  0  0  0  0
    0.1600   11.2240   -4.0660 O   0  0  0  0  0  0  0  0  0  0  0  0
    1.7440   12.4120   -2.9980 O   0  0  0  0  0  0  0  0  0  0  0  0
  1  2  1  0
  2  3  2  0
  2  4  1  0
  3  5  1  0
  4  6  2  0
  3  7  1  0
  5  8  1  0
  5  9  2  0
  6  9  1  0
  7 10  2  0
  7 11  1  0
  8 12  2  0
  9 13  1  0
 12 13  1  0
 10 14  1  0
 11 15  2  0
 12 16  1  0
 14 17  2  0
 15 17  1  0
 14 18  1  0
 16 19  1  0
 17 20  1  0
 18 21  1  0
 19 22  1  0
 21 23  2  0
 20 24  2  0
 21 24  1  0
 22 25  1  0
 22 26  2  0
M  END
