mac-x0572-diamond-x0253_0_A
     RDKit          3D

 30 32  0  0  0  0  0  0  0  0999 V2000
   -8.0900   14.7850    3.2410 C   0  0  0  0  0  0  0  0  0  0  0  0
   -7.2450   14.8010    1.9950 C   0  0  0  0  0  0  0  0  0  0  0  0
   -5.9030   14.9790    2.2460 N   0  0  0  0  0  0  0  0  0  0  0  0
   -7.7690   14.6530    0.7640 C   0  0  0  0  0  0  0  0  0  0  0  0
   -9.1150   14.4760    0.5110 O   0  0  0  0  0  0  0  0  0  0  0  0
   -6.8190   14.6840   -0.3840 C   0  0  0  0  0  0  0  0  0  0  0  0
   -5.0440   14.7400    1.3120 C   0  0  0  0  0  0  0  0  0  0  0  0
   -7.2480   14.9750   -1.5000 O   0  0  0  0  0  0  0  0  0  0  0  0
   -5.3940   14.3100   -0.0410 C   0  0  2  0  0  0  0  0  0  0  0  0
   -3.6290   14.8330    1.5470 C   0  0  0  0  0  0  0  0  0  0  0  0
   -2.7680   14.7920    0.5420 C   0  0  0  0  0  0  0  0  0  0  0  0
   -4.2850   14.5210   -1.0600 C   0  0  0  0  0  0  0  0  0  0  0  0
   -2.9040   14.7000   -0.9320 C   0  0  0  0  0  0  0  0  0  0  0  0
   -1.4450   14.8810   -0.4960 C   0  0  0  0  0  0  0  0  0  0  0  0
   -0.6110   13.6340   -0.2190 C   0  0  0  0  0  0  0  0  0  0  0  0
   -0.7810   12.6580   -1.3650 C   0  0  0  0  0  0  0  0  0  0  0  0
   -0.0300   13.1780   -2.4760 N   0  0  0  0  0  0  0  0  0  0  0  0
    0.4600   12.2670   -3.2010 C   0  0  0  0  0  0  0  0  0  0  0  0
    0.3230   10.9520   -2.9270 O   0  0  0  0  0  0  0  0  0  0  0  0
    1.1950   12.6220   -4.4500 C   0  0  0  0  0  0  0  0  0  0  0  0
    0.4520   12.0430   -5.5390 N   0  0  0  0  0  0  0  0  0  0  0  0
    1.1670   11.6970   -6.6270 C   0  0  0  0  0  0  0  0  0  0  0  0
    2.2950   12.1120   -6.6940 O   0  0  0  0  0  0  0  0  0  0  0  0
    0.5470   10.7910   -7.6460 C   0  0  0  0  0  0  0  0  0  0  0  0
   -0.4260    9.8840   -7.1980 C   0  0  0  0  0  0  0  0  0  0  0  0
    0.8830   10.7980   -9.0090 C   0  0  0  0  0  0  0  0  0  0  0  0
   -1.0560    9.0030   -8.0870 C   0  0  0  0  0  0  0  0  0  0  0  0
    0.2620    9.9240   -9.8970 C   0  0  0  0  0  0  0  0  0  0  0  0
   -2.0960    8.0400   -7.5960 C   0  0  0  0  0  0  0  0  0  0  0  0
   -0.7020    9.0310   -9.4420 C   0  0  0  0  0  0  0  0  0  0  0  0
  1  2  1  0
  2  3  1  0
  2  4  2  0
  4  5  1  0
  4  6  1  0
  3  7  2  0
  6  8  2  0
  6  9  1  0
  7  9  1  0
  7 10  1  0
 10 11  2  0
  9 12  1  6
 11 13  1  0
 12 13  2  0
 13 14  1  0
 14 15  1  0
 15 16  1  0
 16 17  1  0
 17 18  2  3
 18 19  1  0
 18 20  1  0
 20 21  1  0
 21 22  1  0
 22 23  2  0
 22 24  1  0
 24 25  2  0
 24 26  1  0
 25 27  1  0
 26 28  2  0
 27 29  1  0
 27 30  2  0
 28 30  1  0
M  END
