mac-x0344-diamond-x0950_1_A
     RDKit          3D

 12 12  0  0  0  0  0  0  0  0999 V2000
    1.5960   13.6230   -4.7180 O   0  0  0  0  0  0  0  0  0  0  0  0
    1.2250   12.8680   -3.6850 C   0  0  0  0  0  0  0  0  0  0  0  0
    1.5430   13.1210   -2.5370 O   0  0  0  0  0  0  0  0  0  0  0  0
    0.3550   11.6340   -4.0380 C   0  0  0  0  0  0  0  0  0  0  0  0
   -0.0110   10.8770   -3.1510 O   0  0  0  0  0  0  0  0  0  0  0  0
    0.0930   11.5540   -5.3880 N   0  0  0  0  0  0  0  0  0  0  0  0
   -0.7720   10.6340   -6.0060 C   0  0  0  0  0  0  0  0  0  0  0  0
   -0.3710   10.0770   -7.2240 C   0  0  0  0  0  0  0  0  0  0  0  0
   -1.9990   10.2580   -5.4560 C   0  0  0  0  0  0  0  0  0  0  0  0
   -1.1880    9.1540   -7.8820 C   0  0  0  0  0  0  0  0  0  0  0  0
   -2.8140    9.3350   -6.1160 C   0  0  0  0  0  0  0  0  0  0  0  0
   -2.4110    8.7820   -7.3250 C   0  0  0  0  0  0  0  0  0  0  0  0
  1  2  1  0
  2  3  2  0
  2  4  1  0
  4  5  2  0
  4  6  1  0
  6  7  1  0
  7  8  2  0
  7  9  1  0
  8 10  1  0
  9 11  2  0
 10 12  2  0
 11 12  1  0
M  END
