mac-x0223-mac-x0380
     RDKit          3D

 27 29  0  0  0  0  0  0  0  0999 V2000
    1.3750   18.5510   -5.8090 C   0  0  0  0  0  0  0  0  0  0  0  0
    0.0720   18.1250   -6.0120 O   0  0  0  0  0  0  0  0  0  0  0  0
   -0.2590   17.0130   -5.3320 C   0  0  0  0  0  0  0  0  0  0  0  0
   -1.5140   17.0790   -4.7850 C   0  0  0  0  0  0  0  0  0  0  0  0
    0.5290   15.8610   -5.1480 C   0  0  0  0  0  0  0  0  0  0  0  0
   -2.2760   18.1940   -4.9540 O   0  0  0  0  0  0  0  0  0  0  0  0
   -2.0050   16.0480   -4.0650 C   0  0  0  0  0  0  0  0  0  0  0  0
    0.0500   14.7690   -4.4010 C   0  0  0  0  0  0  0  0  0  0  0  0
    0.9200   13.5320   -4.2220 C   0  0  0  0  0  0  0  0  0  0  0  0
   -1.2410   14.9230   -3.8620 C   0  0  0  0  0  0  0  0  0  0  0  0
    0.5950   12.6340   -3.0490 C   0  0  0  0  0  0  0  0  0  0  0  0
   -1.8760   13.9920   -3.0790 O   0  0  0  0  0  0  0  0  0  0  0  0
    0.1150   11.5090   -3.0550 O   0  0  0  0  0  0  0  0  0  0  0  0
    0.9170   13.2210   -1.8790 O   0  0  0  0  0  0  0  0  0  0  0  0
   -3.1920   14.3760   -3.0460 C   0  0  0  0  0  0  0  0  0  0  0  0
   -3.8630   14.5710   -4.0440 O   0  0  0  0  0  0  0  0  0  0  0  0
   -3.7840   14.5740   -1.6960 C   0  0  0  0  0  0  0  0  0  0  0  0
   -5.1640   14.6970   -1.6510 C   0  0  0  0  0  0  0  0  0  0  0  0
   -3.0410   14.6340   -0.4990 C   0  0  0  0  0  0  0  0  0  0  0  0
   -5.8290   14.8560   -0.4560 C   0  0  0  0  0  0  0  0  0  0  0  0
   -3.7170   14.7970    0.7290 C   0  0  0  0  0  0  0  0  0  0  0  0
   -5.1260   14.8990    0.7430 C   0  0  0  0  0  0  0  0  0  0  0  0
   -7.5960   14.9830   -0.5340 S   0  0  0  0  0  0  0  0  0  0  0  0
   -5.8030   15.0320    1.9710 N   0  0  0  0  0  0  0  0  0  0  0  0
   -7.8940   14.1000    1.0000 C   0  0  0  0  0  0  0  0  0  0  0  0
   -7.1340   14.7060    2.1470 C   0  0  0  0  0  0  0  0  0  0  0  0
   -7.6950   14.9230    3.2260 O   0  0  0  0  0  0  0  0  0  0  0  0
  1  2  1  0
  2  3  1  0
  3  4  2  0
  3  5  1  0
  4  6  1  0
  4  7  1  0
  5  8  2  0
  8  9  1  0
  7 10  2  0
  8 10  1  0
  9 11  1  0
 10 12  1  0
 11 13  2  0
 11 14  1  0
 12 15  1  0
 15 16  2  0
 15 17  1  0
 17 18  2  0
 17 19  1  0
 18 20  1  0
 19 21  2  0
 20 22  2  0
 21 22  1  0
 20 23  1  0
 22 24  1  0
 23 25  1  0
 24 26  1  0
 25 26  1  0
 26 27  2  0
M  END
