mac-x1493-mac-x0415
     RDKit          3D

 27 30  0  0  0  0  0  0  0  0999 V2000
   -2.2190   16.0360   -2.6560 O   0  0  0  0  0  0  0  0  0  0  0  0
   -2.8570   14.8740   -2.8490 C   0  0  0  0  0  0  0  0  0  0  0  0
   -2.4540   14.1710   -3.8790 N   0  0  0  0  0  0  0  0  0  0  0  0
   -3.8840   14.7750   -1.8270 C   0  0  0  0  0  0  0  0  0  0  0  0
   -3.7640   15.0130   -0.4560 C   0  0  0  0  0  0  0  0  0  0  0  0
   -5.1140   14.4300   -2.3340 C   0  0  0  0  0  0  0  0  0  0  0  0
   -1.6300   15.0440   -4.4870 C   0  0  0  0  0  0  0  0  0  0  0  0
   -4.9250   14.8930    0.3320 C   0  0  0  0  0  0  0  0  0  0  0  0
   -6.2290   14.3020   -1.6110 N   0  0  0  0  0  0  0  0  0  0  0  0
   -0.2560   15.1850   -4.2640 C   0  0  0  0  0  0  0  0  0  0  0  0
   -2.1760   15.8930   -5.3560 C   0  0  0  0  0  0  0  0  0  0  0  0
   -3.9410   15.6380   -5.8730 Br  0  0  0  0  0  0  0  0  0  0  0  0
   -6.1420   14.5310   -0.3060 C   0  0  0  0  0  0  0  0  0  0  0  0
   -4.9260   15.1190    1.7120 C   0  0  0  0  0  0  0  0  0  0  0  0
    0.7180   14.2790   -4.1840 C   0  0  0  0  0  0  0  0  0  0  0  0
    0.1990   16.5870   -4.1460 C   0  0  1  0  0  0  0  0  0  0  0  0
   -1.4130   17.0160   -5.9120 C   0  0  0  0  0  0  0  0  0  0  0  0
    0.8120   12.8090   -4.2580 C   0  0  0  0  0  0  0  0  0  0  0  0
   -7.2930   14.4080    0.4410 C   0  0  0  0  0  0  0  0  0  0  0  0
   -6.1130   14.9890    2.4350 C   0  0  0  0  0  0  0  0  0  0  0  0
    1.8430   15.1580   -4.0200 C   0  0  0  0  0  0  0  0  0  0  0  0
    1.6190   16.4280   -4.0290 N   0  0  0  0  0  0  0  0  0  0  0  0
   -0.2540   17.3690   -5.3300 C   0  0  0  0  0  0  0  0  0  0  0  0
    0.7090   12.1910   -2.8870 C   0  0  0  0  0  0  0  0  0  0  0  0
   -7.2970   14.6320    1.8070 C   0  0  0  0  0  0  0  0  0  0  0  0
    0.0730   11.0010   -2.8650 O   0  0  0  0  0  0  0  0  0  0  0  0
    1.1550   12.7150   -1.8830 O   0  0  0  0  0  0  0  0  0  0  0  0
  1  2  1  0
  2  3  2  3
  2  4  1  0
  4  5  2  0
  4  6  1  0
  3  7  1  0
  5  8  1  0
  6  9  2  0
  7 10  1  0
  7 11  2  0
 11 12  1  0
  8 13  2  0
  9 13  1  0
  8 14  1  0
 10 15  2  0
 10 16  1  0
 11 17  1  0
 15 18  1  0
 13 19  1  0
 14 20  2  0
 15 21  1  0
 16 22  1  0
 21 22  2  0
 16 23  1  6
 17 23  2  0
 18 24  1  0
 19 25  2  0
 20 25  1  0
 24 26  1  0
 24 27  2  0
M  END
