mac-x0228-mac-x0345
     RDKit          3D

 15 16  0  0  0  0  0  0  0  0999 V2000
   -1.3340   14.6220   -1.5250 O   0  0  0  0  0  0  0  0  0  0  0  0
   -2.3530   14.7580   -2.3880 C   0  0  0  0  0  0  0  0  0  0  0  0
   -2.1630   14.8390   -3.5960 O   0  0  0  0  0  0  0  0  0  0  0  0
   -3.6810   14.7910   -1.7090 C   0  0  0  0  0  0  0  0  0  0  0  0
   -3.8430   14.7380   -0.2930 C   0  0  0  0  0  0  0  0  0  0  0  0
   -4.8660   14.8740   -2.5260 C   0  0  0  0  0  0  0  0  0  0  0  0
   -4.8030   14.9210   -3.9300 N   0  0  0  0  0  0  0  0  0  0  0  0
   -2.5400   14.6330    1.0680 Br  0  0  0  0  0  0  0  0  0  0  0  0
   -5.0970   14.7580    0.2320 C   0  0  0  0  0  0  0  0  0  0  0  0
   -6.1360   14.9000   -1.8910 C   0  0  0  0  0  0  0  0  0  0  0  0
   -7.4740   14.9760   -2.5230 C   0  0  0  0  0  0  0  0  0  0  0  0
   -6.1990   14.8410   -0.5510 C   0  0  0  0  0  0  0  0  0  0  0  0
   -5.5170   14.6910    1.6410 C   0  0  0  0  0  0  0  0  0  0  0  0
   -7.3820   14.8530    0.1330 O   0  0  0  0  0  0  0  0  0  0  0  0
   -7.0050   14.4240    1.4500 C   0  0  0  0  0  0  0  0  0  0  0  0
  1  2  1  0
  2  3  2  0
  2  4  1  0
  4  5  2  0
  4  6  1  0
  6  7  1  0
  5  8  1  0
  5  9  1  0
  6 10  2  0
 10 11  1  0
  9 12  2  0
 10 12  1  0
  9 13  1  0
 12 14  1  0
 13 15  1  0
 14 15  1  0
M  END
