mac-x0375-mac-x0188
     RDKit          3D

 24 27  0  0  0  0  0  0  0  0999 V2000
    1.3810   12.9690   -2.5990 O   0  0  0  0  0  0  0  0  0  0  0  0
    0.8300   11.8500   -3.1720 C   0  0  0  0  0  0  0  0  0  0  0  0
    0.8660   10.7780   -2.5960 O   0  0  0  0  0  0  0  0  0  0  0  0
    0.5310   14.0080   -2.4720 C   0  0  0  0  0  0  0  0  0  0  0  0
    0.0880   12.0050   -4.4960 C   0  0  2  0  0  0  0  0  0  0  0  0
    0.7500   15.0200   -1.8070 O   0  0  0  0  0  0  0  0  0  0  0  0
   -0.7040   13.7580   -3.2660 C   0  0  2  0  0  0  0  0  0  0  0  0
    0.5750   11.4640   -5.7020 O   0  0  0  0  0  0  0  0  0  0  0  0
   -0.2460   13.4370   -4.6210 C   0  0  2  0  0  0  0  0  0  0  0  0
   -1.7100   14.8470   -3.4580 C   0  0  1  0  0  0  0  0  0  0  0  0
   -0.4450   10.6340   -6.0630 C   0  0  0  0  0  0  0  0  0  0  0  0
   -1.3350   13.7190   -5.5000 O   0  0  0  0  0  0  0  0  0  0  0  0
   -2.3380   14.4660   -4.7410 N   0  0  0  0  0  0  0  0  0  0  0  0
   -2.7390   15.0020   -2.3480 C   0  0  0  0  0  0  0  0  0  0  0  0
   -0.2980    9.5230   -6.8820 C   0  0  0  0  0  0  0  0  0  0  0  0
   -1.6970   10.9670   -5.5360 C   0  0  0  0  0  0  0  0  0  0  0  0
   -4.0540   15.3660   -2.6540 C   0  0  0  0  0  0  0  0  0  0  0  0
   -2.4160   14.7970   -0.9950 C   0  0  0  0  0  0  0  0  0  0  0  0
   -1.4180    8.7380   -7.1670 C   0  0  0  0  0  0  0  0  0  0  0  0
   -2.8080   10.1850   -5.8220 C   0  0  0  0  0  0  0  0  0  0  0  0
   -5.0130   15.5320   -1.6560 C   0  0  0  0  0  0  0  0  0  0  0  0
   -3.3760   14.9620    0.0070 C   0  0  0  0  0  0  0  0  0  0  0  0
   -2.6680    9.0690   -6.6370 C   0  0  0  0  0  0  0  0  0  0  0  0
   -4.6730   15.3330   -0.3270 C   0  0  0  0  0  0  0  0  0  0  0  0
  1  2  1  0
  2  3  2  0
  1  4  1  0
  2  5  1  0
  4  6  2  0
  7  4  1  1
  5  8  1  6
  5  9  1  0
  7  9  1  0
  7 10  1  0
  8 11  1  0
  9 12  1  6
 10 13  1  0
 12 13  1  0
 10 14  1  1
 11 15  2  0
 11 16  1  0
 14 17  2  0
 14 18  1  0
 15 19  1  0
 16 20  2  0
 17 21  1  0
 18 22  2  0
 19 23  2  0
 20 23  1  0
 21 24  2  0
 22 24  1  0
M  END
