mac-x0137-mac-x0282
     RDKit          3D

 16 18  0  0  0  0  0  0  0  0999 V2000
   -2.8660   12.7810   -3.8850 F   0  0  0  0  0  0  0  0  0  0  0  0
   -1.8290   13.4200   -4.4870 C   0  0  2  0  0  0  0  0  0  0  0  0
   -0.6950   12.4130   -4.7020 C   0  0  0  0  0  0  0  0  0  0  0  0
   -1.4170   14.6320   -3.6410 C   0  0  0  0  0  0  0  0  0  0  0  0
   -0.6260   14.2460   -2.4520 N   0  0  0  0  0  0  0  0  0  0  0  0
    0.0990   12.1120   -3.4340 C   0  0  0  0  0  0  0  0  0  0  0  0
    0.5410   13.3930   -2.7410 C   0  0  0  0  0  0  0  0  0  0  0  0
   -1.0490   14.4360   -1.1240 C   0  0  0  0  0  0  0  0  0  0  0  0
   -0.1230   14.2340   -0.1130 N   0  0  0  0  0  0  0  0  0  0  0  0
   -2.2730   14.8220   -0.6900 C   0  0  0  0  0  0  0  0  0  0  0  0
   -0.4570   14.2910    1.2120 C   0  0  0  0  0  0  0  0  0  0  0  0
   -2.5220   14.9590    0.7690 C   0  0  0  0  0  0  0  0  0  0  0  0
   -3.5410   15.1950   -1.2490 C   0  0  0  0  0  0  0  0  0  0  0  0
   -1.5910   14.6240    1.7010 N   0  0  0  0  0  0  0  0  0  0  0  0
   -3.7080   15.4140    1.0390 N   0  0  0  0  0  0  0  0  0  0  0  0
   -4.3070   15.5430   -0.2010 C   0  0  0  0  0  0  0  0  0  0  0  0
  2  1  1  1
  2  3  1  0
  2  4  1  0
  4  5  1  0
  3  6  1  0
  5  7  1  0
  6  7  1  0
  5  8  1  0
  8  9  1  0
  8 10  2  0
  9 11  1  0
 10 12  1  0
 10 13  1  0
 11 14  2  0
 12 14  1  0
 12 15  2  0
 13 16  2  0
 15 16  1  0
M  END
