mac-x0404-diamond-x0969_0_A
     RDKit          3D

 27 30  0  0  0  0  0  0  0  0999 V2000
    1.3060   13.1240   -2.2890 O   0  0  0  0  0  0  0  0  0  0  0  0
    1.2120   12.2930   -3.3450 C   0  0  0  0  0  0  0  0  0  0  0  0
    0.5630   11.2620   -3.2270 O   0  0  0  0  0  0  0  0  0  0  0  0
    1.9760   12.7410   -4.6110 C   0  0  0  0  0  0  0  0  0  0  0  0
    1.6770   13.9770   -5.2770 O   0  0  0  0  0  0  0  0  0  0  0  0
    0.4210   14.4290   -5.0590 C   0  0  0  0  0  0  0  0  0  0  0  0
    0.1160   15.8120   -5.1880 C   0  0  0  0  0  0  0  0  0  0  0  0
   -0.5260   13.5050   -4.7070 C   0  0  0  0  0  0  0  0  0  0  0  0
   -1.1770   16.2590   -4.9170 C   0  0  0  0  0  0  0  0  0  0  0  0
   -1.7650   13.9500   -4.4370 C   0  0  0  0  0  0  0  0  0  0  0  0
    1.0620   16.7560   -5.5700 C   0  0  0  0  0  0  0  0  0  0  0  0
   -2.0760   15.2780   -4.5120 C   0  0  0  0  0  0  0  0  0  0  0  0
   -1.4720   17.6270   -5.0490 C   0  0  0  0  0  0  0  0  0  0  0  0
    0.7700   18.1080   -5.6980 C   0  0  0  0  0  0  0  0  0  0  0  0
   -3.4290   15.4620   -4.0510 C   0  0  0  0  0  0  0  0  0  0  0  0
   -0.5120   18.5420   -5.4390 C   0  0  0  0  0  0  0  0  0  0  0  0
   -3.0650   14.9390   -2.6340 C   0  0  0  0  0  0  0  0  0  0  0  0
   -4.0190   14.9570   -1.5190 C   0  0  0  0  0  0  0  0  0  0  0  0
   -5.3080   14.8370   -1.7640 C   0  0  0  0  0  0  0  0  0  0  0  0
   -3.4920   15.0720   -0.1480 C   0  0  0  0  0  0  0  0  0  0  0  0
   -6.2060   14.7880   -0.6980 C   0  0  0  0  0  0  0  0  0  0  0  0
   -4.3500   15.0300    0.8800 C   0  0  0  0  0  0  0  0  0  0  0  0
   -7.5000   14.6530   -0.6800 N   0  0  0  0  0  0  0  0  0  0  0  0
   -5.7080   14.8760    0.5910 N   0  0  0  0  0  0  0  0  0  0  0  0
   -6.8360   14.7780    1.3910 C   0  0  0  0  0  0  0  0  0  0  0  0
   -7.8960   14.6460    0.6320 N   0  0  0  0  0  0  0  0  0  0  0  0
   -6.8250   14.8220    2.7320 N   0  0  0  0  0  0  0  0  0  0  0  0
  1  2  1  0
  2  3  2  0
  2  4  1  0
  4  5  1  0
  5  6  1  0
  6  7  2  0
  6  8  1  0
  7  9  1  0
  8 10  2  0
  7 11  1  0
  9 12  2  0
 10 12  1  0
  9 13  1  0
 11 14  2  0
 12 15  1  0
 13 16  2  0
 14 16  1  0
 15 17  1  0
 17 18  1  0
 18 19  2  0
 18 20  1  0
 19 21  1  0
 20 22  2  0
 21 23  2  0
 21 24  1  0
 22 24  1  0
 24 25  1  0
 23 26  1  0
 25 26  2  0
 25 27  1  0
M  END
