mac-x0282-mac-x0588
     RDKit          3D

 15 17  0  0  0  0  0  0  0  0999 V2000
   -2.5460   15.6050   -3.1480 C   0  0  0  0  0  0  0  0  0  0  0  0
   -1.2660   16.4420   -3.5080 C   0  0  2  0  0  0  0  0  0  0  0  0
   -1.7350   17.6480   -4.1740 O   0  0  0  0  0  0  0  0  0  0  0  0
   -2.8360   15.4540   -1.6550 C   0  0  0  0  0  0  0  0  0  0  0  0
   -3.9920   15.5580   -0.8500 C   0  0  0  0  0  0  0  0  0  0  0  0
   -1.8080   15.1400   -0.7860 C   0  0  0  0  0  0  0  0  0  0  0  0
   -0.2140   15.8690   -4.4670 C   0  0  0  0  0  0  0  0  0  0  0  0
   -2.2800   15.0420    0.5140 C   0  0  0  0  0  0  0  0  0  0  0  0
   -3.6210   15.2980    0.4670 N   0  0  0  0  0  0  0  0  0  0  0  0
   -0.4800   14.9290   -1.0340 C   0  0  0  0  0  0  0  0  0  0  0  0
    0.3900   17.1280   -5.0530 C   0  0  0  0  0  0  0  0  0  0  0  0
   -0.8540   17.9560   -5.2610 C   0  0  0  0  0  0  0  0  0  0  0  0
    0.3110   14.6270    0.0250 C   0  0  0  0  0  0  0  0  0  0  0  0
   -1.5500   14.7470    1.6120 N   0  0  0  0  0  0  0  0  0  0  0  0
   -0.2500   14.5450    1.3000 C   0  0  0  0  0  0  0  0  0  0  0  0
  2  1  1  6
  2  3  1  0
  1  4  1  0
  4  5  2  0
  4  6  1  0
  2  7  1  0
  6  8  2  0
  5  9  1  0
  8  9  1  0
  6 10  1  0
  7 11  1  0
  3 12  1  0
 11 12  1  0
 10 13  2  0
  8 14  1  0
 13 15  1  0
 14 15  2  0
M  END
