mac-x0496-diamond-x0591_0_A
     RDKit          3D

 30 32  0  0  0  0  0  0  0  0999 V2000
   -9.3780   17.3030    4.4560 C   0  0  0  0  0  0  0  0  0  0  0  0
   -9.6120   16.4450    3.2720 C   0  0  0  0  0  0  0  0  0  0  0  0
  -10.7820   16.4330    2.6260 N   0  0  0  0  0  0  0  0  0  0  0  0
   -8.6540   15.5990    2.7440 N   0  0  0  0  0  0  0  0  0  0  0  0
  -10.5650   15.5160    1.5900 O   0  0  0  0  0  0  0  0  0  0  0  0
   -9.2770   15.0490    1.7090 C   0  0  0  0  0  0  0  0  0  0  0  0
   -8.8580   14.0240    0.6530 C   0  0  0  0  0  0  0  0  0  0  0  0
   -7.4220   13.6470    0.3200 N   0  0  0  0  0  0  0  0  0  0  0  0
   -6.6100   14.6290   -0.4920 C   0  0  1  0  0  0  0  0  0  0  0  0
   -6.7010   13.1410    1.4940 N   0  0  0  0  0  0  0  0  0  0  0  0
   -7.3270   15.8500   -0.6220 O   0  0  0  0  0  0  0  0  0  0  0  0
   -5.2320   14.8650    0.1320 C   0  0  0  0  0  0  0  0  0  0  0  0
   -5.8400   14.3700   -1.8140 C   0  0  0  0  0  0  0  0  0  0  0  0
   -4.8430   15.0650    1.4440 C   0  0  0  0  0  0  0  0  0  0  0  0
   -4.2320   14.8350   -0.8430 C   0  0  0  0  0  0  0  0  0  0  0  0
   -4.6060   13.6610   -1.7380 C   0  0  0  0  0  0  0  0  0  0  0  0
   -6.2320   14.8300   -3.0780 C   0  0  0  0  0  0  0  0  0  0  0  0
   -3.4790   15.2090    1.7440 C   0  0  0  0  0  0  0  0  0  0  0  0
   -2.8940   14.9720   -0.5730 C   0  0  0  0  0  0  0  0  0  0  0  0
   -3.7920   13.4590   -2.8540 C   0  0  0  0  0  0  0  0  0  0  0  0
   -5.4160   14.6270   -4.2060 C   0  0  0  0  0  0  0  0  0  0  0  0
   -1.9170   14.9080   -1.6900 C   0  0  0  0  0  0  0  0  0  0  0  0
   -2.5000   15.1630    0.7490 C   0  0  0  0  0  0  0  0  0  0  0  0
   -4.1930   13.9600   -4.0840 C   0  0  0  0  0  0  0  0  0  0  0  0
   -0.7570   14.5570   -1.6240 O   0  0  0  0  0  0  0  0  0  0  0  0
   -2.4570   15.3090   -2.8630 O   0  0  0  0  0  0  0  0  0  0  0  0
   -3.1240   13.7590   -5.4900 S   0  0  0  0  0  0  0  0  0  0  0  0
   -1.8280   14.7610   -5.0620 N   0  0  0  0  0  0  0  0  0  0  0  0
   -2.6200   12.4100   -5.5320 O   0  0  0  0  0  0  0  0  0  0  0  0
   -3.7100   14.4240   -6.6350 O   0  0  0  0  0  0  0  0  0  0  0  0
  1  2  1  0
  2  3  2  0
  2  4  1  0
  3  5  1  0
  4  6  2  0
  5  6  1  0
  6  7  1  0
  7  8  1  0
  8  9  1  0
  8 10  1  0
  9 11  1  6
  9 12  1  0
  9 13  1  0
 12 14  2  0
 12 15  1  0
 13 16  2  0
 13 17  1  0
 14 18  1  0
 15 19  2  0
 16 20  1  0
 17 21  2  0
 19 22  1  0
 18 23  2  0
 19 23  1  0
 20 24  2  0
 21 24  1  0
 22 25  2  0
 22 26  1  0
 24 27  1  0
 27 28  1  0
 27 29  2  0
 27 30  2  0
M  END
