mac-x0137-diamond-x1018_0_A
     RDKit          3D

 22 25  0  0  0  0  0  0  0  0999 V2000
   -2.8380   12.7830   -4.0940 F   0  0  0  0  0  0  0  0  0  0  0  0
   -1.7680   13.4950   -4.5420 C   0  0  2  0  0  0  0  0  0  0  0  0
   -0.6320   12.5210   -4.8610 C   0  0  0  0  0  0  0  0  0  0  0  0
   -1.3780   14.5170   -3.4700 C   0  0  0  0  0  0  0  0  0  0  0  0
   -0.7290   13.8220   -2.3460 N   0  0  0  0  0  0  0  0  0  0  0  0
    0.1540   12.0120   -3.6400 C   0  0  0  0  0  0  0  0  0  0  0  0
    0.5030   13.0980   -2.6270 C   0  0  0  0  0  0  0  0  0  0  0  0
   -0.9730   14.2210   -1.0190 C   0  0  0  0  0  0  0  0  0  0  0  0
    0.0040   14.0930   -0.1180 N   0  0  0  0  0  0  0  0  0  0  0  0
   -2.1700   14.7250   -0.6170 C   0  0  0  0  0  0  0  0  0  0  0  0
   -0.2680   14.4740    1.1540 C   0  0  0  0  0  0  0  0  0  0  0  0
   -2.3370   15.1020    0.7010 C   0  0  0  0  0  0  0  0  0  0  0  0
   -3.4240   14.9770   -1.3340 C   0  0  0  0  0  0  0  0  0  0  0  0
   -1.4040   14.9820    1.6160 N   0  0  0  0  0  0  0  0  0  0  0  0
   -3.6210   15.6400    0.9490 N   0  0  0  0  0  0  0  0  0  0  0  0
   -4.3910   15.0470   -0.1210 C   0  0  1  0  0  0  0  0  0  0  0  0
   -5.5900   15.7210   -0.6920 N   0  0  0  0  0  0  0  0  0  0  0  0
   -4.6990   13.6990    0.5330 C   0  0  0  0  0  0  0  0  0  0  0  0
   -6.8880   15.0680   -0.4240 N   0  0  0  0  0  0  0  0  0  0  0  0
   -5.9050   13.4490    1.0380 C   0  0  0  0  0  0  0  0  0  0  0  0
   -6.9350   14.5020    0.9210 C   0  0  2  0  0  0  0  0  0  0  0  0
   -8.5810   13.8840    1.0990 Cl  0  0  0  0  0  0  0  0  0  0  0  0
  2  1  1  1
  2  3  1  0
  2  4  1  0
  4  5  1  0
  3  6  1  0
  5  7  1  0
  6  7  1  0
  5  8  1  0
  8  9  2  0
  8 10  1  0
  9 11  1  0
 10 12  2  0
 10 13  1  0
 11 14  2  0
 12 14  1  0
 12 15  1  0
 16 13  1  6
 15 16  1  0
 16 17  1  0
 16 18  1  0
 17 19  1  0
 18 20  2  0
 19 21  1  0
 20 21  1  0
 21 22  1  6
M  END
