mac-x0584-diamond-x0910_0_A
     RDKit          3D

 19 22  0  0  0  0  0  0  0  0999 V2000
   -0.1330   13.2220   -1.0350 N   0  0  0  0  0  0  0  0  0  0  0  0
   -0.6020   14.4490   -0.6120 N   0  0  0  0  0  0  0  0  0  0  0  0
   -1.7290   14.7970   -1.3450 C   0  0  0  0  0  0  0  0  0  0  0  0
   -0.5860   14.5280    0.7700 C   0  0  0  0  0  0  0  0  0  0  0  0
   -1.7050   14.8750   -2.7620 N   0  0  0  0  0  0  0  0  0  0  0  0
   -1.5830   14.7520    1.5510 N   0  0  0  0  0  0  0  0  0  0  0  0
   -2.8060   15.0330   -0.6090 C   0  0  0  0  0  0  0  0  0  0  0  0
   -0.9530   14.0520   -3.6930 C   0  0  2  0  0  0  0  0  0  0  0  0
   -2.8740   15.3050   -3.5330 C   0  0  0  0  0  0  0  0  0  0  0  0
   -2.7390   14.9800    0.8700 C   0  0  0  0  0  0  0  0  0  0  0  0
   -4.1600   15.3700   -0.8730 C   0  0  0  0  0  0  0  0  0  0  0  0
    0.4320   13.6410   -3.2730 C   0  0  0  0  0  0  0  0  0  0  0  0
   -0.9180   14.9540   -4.9250 C   0  0  0  0  0  0  0  0  0  0  0  0
   -2.3000   15.6130   -4.9210 C   0  0  0  0  0  0  0  0  0  0  0  0
   -3.8920   15.2040    1.4060 N   0  0  0  0  0  0  0  0  0  0  0  0
   -4.7280   15.4250    0.3290 C   0  0  0  0  0  0  0  0  0  0  0  0
    1.5700   13.8500   -4.2920 C   0  0  0  0  0  0  0  0  0  0  0  0
    0.7450   12.1280   -3.2060 C   0  0  0  0  0  0  0  0  0  0  0  0
    1.7820   12.3480   -4.3210 C   0  0  0  0  0  0  0  0  0  0  0  0
  1  2  1  0
  2  3  1  0
  2  4  1  0
  3  5  1  0
  4  6  2  0
  3  7  2  0
  5  8  1  0
  5  9  1  0
  6 10  1  0
  7 10  1  0
  7 11  1  0
  8 12  1  1
  8 13  1  0
  9 14  1  0
 13 14  1  0
 10 15  2  0
 11 16  2  0
 15 16  1  0
 12 17  1  0
 12 18  1  0
 17 19  1  0
 18 19  1  0
M  END
