mac-x0223-mac-x0328
     RDKit          3D

 23 24  0  0  0  0  0  0  0  0999 V2000
    1.2260   18.4780   -5.7450 C   0  0  0  0  0  0  0  0  0  0  0  0
    0.2500   18.2520   -4.7520 O   0  0  0  0  0  0  0  0  0  0  0  0
   -0.2120   16.9760   -4.7360 C   0  0  0  0  0  0  0  0  0  0  0  0
   -1.5910   16.8740   -4.8380 C   0  0  0  0  0  0  0  0  0  0  0  0
    0.5620   15.8270   -4.6310 C   0  0  0  0  0  0  0  0  0  0  0  0
   -2.3260   18.0230   -4.9260 O   0  0  0  0  0  0  0  0  0  0  0  0
   -2.2280   15.6380   -4.8460 C   0  0  0  0  0  0  0  0  0  0  0  0
   -0.0500   14.5600   -4.6260 C   0  0  0  0  0  0  0  0  0  0  0  0
    0.8120   13.3260   -4.5020 C   0  0  0  0  0  0  0  0  0  0  0  0
   -1.4500   14.4770   -4.7400 C   0  0  0  0  0  0  0  0  0  0  0  0
    0.6130   12.5290   -3.2230 C   0  0  0  0  0  0  0  0  0  0  0  0
    0.1670   11.3890   -3.2050 O   0  0  0  0  0  0  0  0  0  0  0  0
    1.0040   13.2030   -2.0950 O   0  0  0  0  0  0  0  0  0  0  0  0
    0.5040   14.5370   -1.9020 C   0  0  0  0  0  0  0  0  0  0  0  0
   -0.8480   14.6380   -1.3220 N   0  0  0  0  0  0  0  0  0  0  0  0
   -1.7970   14.8080   -2.1820 C   0  0  0  0  0  0  0  0  0  0  0  0
   -3.2100   14.9120   -1.7550 C   0  0  0  0  0  0  0  0  0  0  0  0
   -3.4820   14.8500   -0.3920 C   0  0  0  0  0  0  0  0  0  0  0  0
   -4.2500   15.0660   -2.6790 C   0  0  0  0  0  0  0  0  0  0  0  0
   -4.7970   14.9360    0.0560 C   0  0  0  0  0  0  0  0  0  0  0  0
   -5.5710   15.1540   -2.2270 C   0  0  0  0  0  0  0  0  0  0  0  0
   -5.8290   15.0860   -0.8650 C   0  0  0  0  0  0  0  0  0  0  0  0
   -7.1000   15.1610   -0.3740 O   0  0  0  0  0  0  0  0  0  0  0  0
  1  2  1  0
  2  3  1  0
  3  4  2  0
  3  5  1  0
  4  6  1  0
  4  7  1  0
  5  8  2  0
  8  9  1  0
  7 10  2  0
  8 10  1  0
  9 11  1  0
 11 12  2  0
 11 13  1  0
 13 14  1  0
 14 15  1  0
 15 16  2  3
 16 17  1  0
 17 18  2  0
 17 19  1  0
 18 20  1  0
 19 21  2  0
 20 22  2  0
 21 22  1  0
 22 23  1  0
M  END
