mac-x0179-mac-x0572
     RDKit          3D

 31 34  0  0  0  0  0  0  0  0999 V2000
    1.5860   12.9200   -2.1740 O   0  0  0  0  0  0  0  0  0  0  0  0
    1.0010   12.1620   -3.1210 C   0  0  0  0  0  0  0  0  0  0  0  0
    0.6790   11.0040   -2.8960 O   0  0  0  0  0  0  0  0  0  0  0  0
    0.7680   12.8310   -4.4650 C   0  0  0  0  0  0  0  0  0  0  0  0
    0.0160   12.0030   -5.3900 N   0  0  0  0  0  0  0  0  0  0  0  0
    0.6980   11.4930   -6.4660 C   0  0  0  0  0  0  0  0  0  0  0  0
   -1.0820   11.2240   -5.1140 C   0  0  0  0  0  0  0  0  0  0  0  0
    1.7790   11.8270   -6.8830 O   0  0  0  0  0  0  0  0  0  0  0  0
   -1.9210   11.2070   -4.1460 N   0  0  0  0  0  0  0  0  0  0  0  0
   -0.1040   10.4250   -7.0410 C   0  0  0  0  0  0  0  0  0  0  0  0
   -1.1980   10.2570   -6.2160 C   0  0  0  0  0  0  0  0  0  0  0  0
   -2.0050   12.0250   -2.9400 C   0  0  0  0  0  0  0  0  0  0  0  0
    0.0940    9.6620   -8.1750 C   0  0  0  0  0  0  0  0  0  0  0  0
   -2.1690    9.3050   -6.4870 C   0  0  0  0  0  0  0  0  0  0  0  0
   -2.7360   13.3470   -3.2310 C   0  0  0  0  0  0  0  0  0  0  0  0
   -0.8720    8.6930   -8.4680 C   0  0  0  0  0  0  0  0  0  0  0  0
   -1.9950    8.5160   -7.6300 C   0  0  0  0  0  0  0  0  0  0  0  0
   -2.3340   14.5220   -2.3070 C   0  0  0  0  0  0  0  0  0  0  0  0
   -3.3340   14.9020   -1.2360 C   0  0  0  0  0  0  0  0  0  0  0  0
   -2.8560   15.0910    0.1330 C   0  0  0  0  0  0  0  0  0  0  0  0
   -4.6420   15.0600   -1.5150 C   0  0  0  0  0  0  0  0  0  0  0  0
   -5.6430   15.4320   -0.4690 C   0  0  1  0  0  0  0  0  0  0  0  0
   -3.6740   15.2120    1.1780 C   0  0  0  0  0  0  0  0  0  0  0  0
   -7.0270   14.8260   -0.6350 C   0  0  0  0  0  0  0  0  0  0  0  0
   -5.1300   15.1460    0.9250 C   0  0  0  0  0  0  0  0  0  0  0  0
   -7.5050   14.4410   -1.6970 O   0  0  0  0  0  0  0  0  0  0  0  0
   -7.8690   14.6940    0.5910 C   0  0  0  0  0  0  0  0  0  0  0  0
   -5.8940   14.8290    1.9150 N   0  0  0  0  0  0  0  0  0  0  0  0
   -9.2360   14.5680    0.4270 O   0  0  0  0  0  0  0  0  0  0  0  0
   -7.2490   14.7070    1.7770 C   0  0  0  0  0  0  0  0  0  0  0  0
   -7.9840   14.5920    3.0900 C   0  0  0  0  0  0  0  0  0  0  0  0
  1  2  1  0
  2  3  2  0
  2  4  1  0
  4  5  1  0
  5  6  1  0
  5  7  1  0
  6  8  2  0
  7  9  2  3
  6 10  1  0
  7 11  1  0
 10 11  2  0
  9 12  1  0
 10 13  1  0
 11 14  1  0
 12 15  1  0
 13 16  2  0
 14 17  2  0
 16 17  1  0
 15 18  1  0
 18 19  1  0
 19 20  1  0
 19 21  2  0
 22 21  1  6
 20 23  2  0
 22 24  1  0
 22 25  1  0
 23 25  1  0
 24 26  2  0
 24 27  1  0
 25 28  2  0
 27 29  1  0
 27 30  2  0
 28 30  1  0
 30 31  1  0
M  END
