mac-x0283-mac-x0417
     RDKit          3D

 26 29  0  0  0  0  0  0  0  0999 V2000
   -6.8170   14.6820    2.4030 N   0  0  0  0  0  0  0  0  0  0  0  0
   -6.6060   14.7420    1.0740 C   0  0  0  0  0  0  0  0  0  0  0  0
   -7.5680   14.6450    0.1530 N   0  0  0  0  0  0  0  0  0  0  0  0
   -5.3280   14.9270    0.4840 C   0  0  0  0  0  0  0  0  0  0  0  0
   -6.9240   14.7630   -1.0720 O   0  0  0  0  0  0  0  0  0  0  0  0
   -5.5870   14.9320   -0.8740 C   0  0  0  0  0  0  0  0  0  0  0  0
   -4.0040   15.0900    0.9180 C   0  0  0  0  0  0  0  0  0  0  0  0
   -4.6060   15.0840   -1.8610 C   0  0  0  0  0  0  0  0  0  0  0  0
   -2.9940   15.2450   -0.0400 C   0  0  0  0  0  0  0  0  0  0  0  0
   -3.2780   15.2410   -1.4140 C   0  0  0  0  0  0  0  0  0  0  0  0
   -2.1330   15.4010   -2.3990 C   0  0  0  0  0  0  0  0  0  0  0  0
   -0.7500   15.1150   -1.7890 C   0  0  0  0  0  0  0  0  0  0  0  0
    0.2680   14.5400   -2.7880 C   0  0  0  0  0  0  0  0  0  0  0  0
    0.6900   13.1970   -2.4250 O   0  0  0  0  0  0  0  0  0  0  0  0
    0.5370   12.2080   -3.3650 C   0  0  0  0  0  0  0  0  0  0  0  0
    0.6140   11.0130   -3.1140 O   0  0  0  0  0  0  0  0  0  0  0  0
    0.2500   12.7770   -4.7410 C   0  0  0  0  0  0  0  0  0  0  0  0
    0.2550   11.7600   -5.8250 C   0  0  0  0  0  0  0  0  0  0  0  0
    1.2910   11.6920   -6.6610 N   0  0  0  0  0  0  0  0  0  0  0  0
   -0.7280   10.7880   -6.1390 C   0  0  0  0  0  0  0  0  0  0  0  0
    0.9940   10.6580   -7.5450 O   0  0  0  0  0  0  0  0  0  0  0  0
   -0.2130   10.1190   -7.2300 C   0  0  0  0  0  0  0  0  0  0  0  0
   -1.9750   10.3990   -5.6430 C   0  0  0  0  0  0  0  0  0  0  0  0
   -0.8570    9.0660   -7.8770 C   0  0  0  0  0  0  0  0  0  0  0  0
   -2.6560    9.3470   -6.2600 C   0  0  0  0  0  0  0  0  0  0  0  0
   -2.1050    8.6880   -7.3610 C   0  0  0  0  0  0  0  0  0  0  0  0
  1  2  1  0
  2  3  2  0
  2  4  1  0
  3  5  1  0
  4  6  2  0
  5  6  1  0
  4  7  1  0
  6  8  1  0
  7  9  2  0
  8 10  2  0
  9 10  1  0
 10 11  1  0
 11 12  1  0
 12 13  1  0
 13 14  1  0
 14 15  1  0
 15 16  2  0
 15 17  1  0
 17 18  1  0
 18 19  2  0
 18 20  1  0
 19 21  1  0
 20 22  2  0
 21 22  1  0
 20 23  1  0
 22 24  1  0
 23 25  2  0
 24 26  2  0
 25 26  1  0
M  END
