mac-x0231-mac-x0385
     RDKit          3D

 26 28  0  0  0  0  0  0  0  0999 V2000
    0.5480   10.5990   -3.0320 O   0  0  0  0  0  0  0  0  0  0  0  0
    0.9430   11.8790   -2.8550 C   0  0  0  0  0  0  0  0  0  0  0  0
    0.7060   12.3260   -1.6780 N   0  0  0  0  0  0  0  0  0  0  0  0
    1.5820   12.5260   -4.0700 C   0  0  0  0  0  0  0  0  0  0  0  0
    0.9760   13.6580   -1.1680 C   0  0  0  0  0  0  0  0  0  0  0  0
    1.1160   13.9380   -4.3120 C   0  0  0  0  0  0  0  0  0  0  0  0
    0.3260   13.6670    0.2130 C   0  0  0  0  0  0  0  0  0  0  0  0
   -0.2920   14.2180   -4.6840 C   0  0  0  0  0  0  0  0  0  0  0  0
    2.0150   14.8610   -4.1590 N   0  0  0  0  0  0  0  0  0  0  0  0
    0.0240   14.9420    0.8330 C   0  0  0  0  0  0  0  0  0  0  0  0
   -0.6540   15.5560   -4.8110 C   0  0  0  0  0  0  0  0  0  0  0  0
    1.6400   16.1510   -4.3540 N   0  0  0  0  0  0  0  0  0  0  0  0
   -1.2500   13.2240   -4.9010 C   0  0  0  0  0  0  0  0  0  0  0  0
    0.3640   16.5980   -4.5910 C   0  0  0  0  0  0  0  0  0  0  0  0
   -1.9710   15.9120   -5.1460 C   0  0  0  0  0  0  0  0  0  0  0  0
   -2.5620   13.5740   -5.2390 C   0  0  0  0  0  0  0  0  0  0  0  0
   -1.3740   15.0380    0.4360 C   0  0  0  0  0  0  0  0  0  0  0  0
    0.0820   17.7910   -4.6280 O   0  0  0  0  0  0  0  0  0  0  0  0
   -2.9230   14.9160   -5.3580 C   0  0  0  0  0  0  0  0  0  0  0  0
   -2.2760   15.2750    1.3680 N   0  0  0  0  0  0  0  0  0  0  0  0
   -1.6120   14.8690   -0.8710 N   0  0  0  0  0  0  0  0  0  0  0  0
   -3.5330   15.3780    0.9370 C   0  0  0  0  0  0  0  0  0  0  0  0
   -2.8830   14.9720   -1.2600 C   0  0  0  0  0  0  0  0  0  0  0  0
   -4.4650   15.6500    1.9230 N   0  0  0  0  0  0  0  0  0  0  0  0
   -3.9050   15.2370   -0.3890 C   0  0  0  0  0  0  0  0  0  0  0  0
   -5.3090   15.3610   -0.8610 C   0  0  0  0  0  0  0  0  0  0  0  0
  1  2  1  0
  2  3  2  3
  2  4  1  0
  3  5  1  0
  4  6  1  0
  5  7  1  0
  6  8  1  0
  6  9  2  0
  7 10  1  0
  8 11  2  0
  9 12  1  0
  8 13  1  0
 11 14  1  0
 12 14  1  0
 11 15  1  0
 13 16  2  0
 10 17  1  0
 14 18  2  0
 15 19  2  0
 16 19  1  0
 17 20  2  0
 17 21  1  0
 20 22  1  0
 21 23  2  0
 22 24  1  0
 22 25  2  0
 23 25  1  0
 25 26  1  0
M  END
