mac-x0178-mac-x0411
     RDKit          3D

 24 25  0  0  0  0  0  0  0  0999 V2000
   -0.2900   18.2280   -6.4340 N   0  0  0  0  0  0  0  0  0  0  0  0
   -1.6680   17.6680   -5.6630 S   0  0  0  0  0  0  0  0  0  0  0  0
   -2.5960   17.2100   -6.6720 O   0  0  0  0  0  0  0  0  0  0  0  0
   -2.0010   18.6840   -4.7020 O   0  0  0  0  0  0  0  0  0  0  0  0
   -1.0490   16.2820   -4.7550 C   0  0  0  0  0  0  0  0  0  0  0  0
    0.2700   16.2630   -4.2710 C   0  0  0  0  0  0  0  0  0  0  0  0
   -1.9100   15.2190   -4.5300 C   0  0  0  0  0  0  0  0  0  0  0  0
    0.7150   15.1480   -3.5540 C   0  0  0  0  0  0  0  0  0  0  0  0
   -1.4610   14.1180   -3.8160 C   0  0  0  0  0  0  0  0  0  0  0  0
   -0.1560   14.0700   -3.3280 C   0  0  0  0  0  0  0  0  0  0  0  0
    0.3140   12.8780   -2.5920 C   0  0  0  0  0  0  0  0  0  0  0  0
    0.4720   12.8180   -1.3650 O   0  0  0  0  0  0  0  0  0  0  0  0
    0.5930   11.7100   -3.4780 C   0  0  0  0  0  0  0  0  0  0  0  0
    0.5790   10.5770   -3.0240 O   0  0  0  0  0  0  0  0  0  0  0  0
    0.8570   12.1600   -4.9400 C   0  0  0  0  0  0  0  0  0  0  0  0
    0.6060   11.2990   -6.0620 O   0  0  0  0  0  0  0  0  0  0  0  0
   -0.5810   10.6010   -6.1120 C   0  0  0  0  0  0  0  0  0  0  0  0
   -1.7550   11.0000   -5.4530 C   0  0  0  0  0  0  0  0  0  0  0  0
   -0.6250    9.4140   -6.8750 C   0  0  0  0  0  0  0  0  0  0  0  0
    0.7380    8.8170   -7.7630 Cl  0  0  0  0  0  0  0  0  0  0  0  0
   -1.8740   12.4200   -4.5060 Cl  0  0  0  0  0  0  0  0  0  0  0  0
   -2.9180   10.2390   -5.5380 C   0  0  0  0  0  0  0  0  0  0  0  0
   -1.7980    8.6590   -6.9530 C   0  0  0  0  0  0  0  0  0  0  0  0
   -2.9430    9.0680   -6.2840 C   0  0  0  0  0  0  0  0  0  0  0  0
  2  1  1  0
  2  3  2  0
  2  4  2  0
  2  5  1  0
  5  6  2  0
  5  7  1  0
  6  8  1  0
  7  9  2  0
  8 10  2  0
  9 10  1  0
 10 11  1  0
 11 12  2  0
 11 13  1  0
 13 14  2  0
 13 15  1  0
 15 16  1  0
 16 17  1  0
 17 18  2  0
 17 19  1  0
 19 20  1  0
 18 21  1  0
 18 22  1  0
 19 23  2  0
 22 24  2  0
 23 24  1  0
M  END
