mac-x0412-mac-x0138
     RDKit          3D

 19 21  0  0  0  0  0  0  0  0999 V2000
   -8.2450   14.7880   -0.9820 O   0  0  0  0  0  0  0  0  0  0  0  0
   -7.2570   14.8800   -0.2640 C   0  0  0  0  0  0  0  0  0  0  0  0
   -7.3530   14.5640    1.0670 N   0  0  0  0  0  0  0  0  0  0  0  0
   -5.8830   15.3450   -0.7590 C   0  0  1  0  0  0  0  0  0  0  0  0
   -4.7340   14.9890    0.1910 C   0  0  1  0  0  0  0  0  0  0  0  0
   -6.3600   13.9240    1.7310 C   0  0  0  0  0  0  0  0  0  0  0  0
   -5.5990   15.0190   -2.1980 C   0  0  0  0  0  0  0  0  0  0  0  0
   -5.0990   14.0830    1.3490 C   0  0  0  0  0  0  0  0  0  0  0  0
   -3.2860   14.8750   -0.4260 C   0  0  1  0  0  0  0  0  0  0  0  0
   -4.3530   15.1020   -2.7000 C   0  0  0  0  0  0  0  0  0  0  0  0
   -3.1660   15.5140   -1.8550 C   0  0  2  0  0  0  0  0  0  0  0  0
   -2.6830   15.6710    0.7420 C   0  0  1  0  0  0  0  0  0  0  0  0
   -2.4970   13.5620   -0.3440 C   0  0  0  0  0  0  0  0  0  0  0  0
   -1.8770   15.2790   -2.6800 C   0  0  0  0  0  0  0  0  0  0  0  0
   -3.7420   16.0680    1.6530 N   0  0  0  0  0  0  0  0  0  0  0  0
   -1.8200   14.8740    1.5500 N   0  0  0  0  0  0  0  0  0  0  0  0
   -1.0550   13.8450   -0.3750 N   0  0  0  0  0  0  0  0  0  0  0  0
   -0.6770   14.5910    0.7820 C   0  0  2  0  0  0  0  0  0  0  0  0
    0.0440   13.7150    1.6040 N   0  0  0  0  0  0  0  0  0  0  0  0
  1  2  2  0
  2  3  1  0
  2  4  1  0
  4  5  1  0
  3  6  1  0
  4  7  1  6
  5  8  1  6
  6  8  2  0
  5  9  1  0
  7 10  2  0
  9 11  1  0
 10 11  1  0
  9 12  1  0
  9 13  1  6
 11 14  1  6
 12 15  1  1
 12 16  1  0
 13 17  1  0
 16 18  1  0
 17 18  1  0
 18 19  1  1
M  END
