mac-x0398-mac-x1493
     RDKit          3D

 16 17  0  0  0  0  0  0  0  0999 V2000
   -5.2770   13.1250    1.2120 N   0  0  0  0  0  0  0  0  0  0  0  0
   -5.0850   14.5610    1.0460 C   0  0  1  0  0  0  0  0  0  0  0  0
   -3.6330   14.8490    0.8860 C   0  0  0  0  0  0  0  0  0  0  0  0
   -5.9260   15.0590   -0.1710 C   0  0  1  0  0  0  0  0  0  0  0  0
   -5.6840   15.0430    2.2950 C   0  0  0  0  0  0  0  0  0  0  0  0
   -5.2510   14.9580   -1.5150 C   0  0  0  0  0  0  0  0  0  0  0  0
   -3.1020   15.0250   -0.3320 C   0  0  0  0  0  0  0  0  0  0  0  0
   -7.3380   14.5470    0.0390 C   0  0  0  0  0  0  0  0  0  0  0  0
   -7.0140   14.9910    2.4180 C   0  0  0  0  0  0  0  0  0  0  0  0
   -6.1080   14.9020   -2.6070 O   0  0  0  0  0  0  0  0  0  0  0  0
   -3.8960   14.9610   -1.5680 C   0  0  0  0  0  0  0  0  0  0  0  0
   -7.8290   14.5190    1.3090 C   0  0  0  0  0  0  0  0  0  0  0  0
   -3.2580   14.9150   -2.9180 C   0  0  0  0  0  0  0  0  0  0  0  0
   -3.8840   14.6920   -3.9460 O   0  0  0  0  0  0  0  0  0  0  0  0
   -1.9130   15.1670   -2.8940 O   0  0  0  0  0  0  0  0  0  0  0  0
   -1.2730   14.3510   -1.8520 O   0  0  0  0  0  0  0  0  0  0  0  0
  2  1  1  1
  2  3  1  0
  2  4  1  0
  2  5  1  0
  4  6  1  0
  3  7  2  0
  4  8  1  6
  5  9  2  0
  6 10  1  0
  6 11  2  0
  7 11  1  0
  8 12  2  0
  9 12  1  0
 11 13  1  0
 13 14  2  0
 13 15  1  0
 15 16  1  0
M  END
