mac-x0347-mac-x0576
     RDKit          3D

 22 24  0  0  0  0  0  0  0  0999 V2000
    0.9710   13.9820   -4.6060 O   0  0  0  0  0  0  0  0  0  0  0  0
    0.3760   13.4930   -3.5060 C   0  0  0  0  0  0  0  0  0  0  0  0
    0.9910   12.7990   -2.7170 O   0  0  0  0  0  0  0  0  0  0  0  0
   -1.0420   13.9030   -3.3880 C   0  0  0  0  0  0  0  0  0  0  0  0
   -1.7680   13.8560   -2.1920 C   0  0  0  0  0  0  0  0  0  0  0  0
   -1.6920   14.3640   -4.5240 C   0  0  0  0  0  0  0  0  0  0  0  0
   -3.1100   14.2730   -2.1620 C   0  0  0  0  0  0  0  0  0  0  0  0
   -2.9870   14.7720   -4.5410 N   0  0  0  0  0  0  0  0  0  0  0  0
   -3.6600   14.7180   -3.3660 C   0  0  0  0  0  0  0  0  0  0  0  0
   -3.9160   14.2470   -0.8680 C   0  0  2  0  0  0  0  0  0  0  0  0
   -3.1840   14.7380    0.4560 C   0  0  2  0  0  0  0  0  0  0  0  0
   -4.7080   12.9850   -0.5900 C   0  0  0  0  0  0  0  0  0  0  0  0
   -4.2910   14.8800    1.4940 C   0  0  0  0  0  0  0  0  0  0  0  0
   -5.3740   12.8990    0.5750 C   0  0  0  0  0  0  0  0  0  0  0  0
   -2.4920   16.0030    0.1300 C   0  0  0  0  0  0  0  0  0  0  0  0
   -2.1760   13.7700    0.9570 N   0  0  0  0  0  0  0  0  0  0  0  0
   -5.3120   13.9990    1.5200 C   0  0  0  0  0  0  0  0  0  0  0  0
   -0.7450   13.8960    0.7240 C   0  0  2  0  0  0  0  0  0  0  0  0
   -1.2260   15.7840   -0.6090 C   0  0  0  0  0  0  0  0  0  0  0  0
   -0.1010   14.0070    1.9850 N   0  0  0  0  0  0  0  0  0  0  0  0
   -0.9960   16.1900   -1.7420 O   0  0  0  0  0  0  0  0  0  0  0  0
   -0.3430   15.0670    0.0790 N   0  0  0  0  0  0  0  0  0  0  0  0
  1  2  1  0
  2  3  2  0
  2  4  1  0
  4  5  2  0
  4  6  1  0
  5  7  1  0
  6  8  2  0
  7  9  2  0
  8  9  1  0
 10  7  1  6
 10 11  1  0
 10 12  1  0
 11 13  1  1
 12 14  2  0
 11 15  1  0
 11 16  1  0
 13 17  2  0
 14 17  1  0
 16 18  1  0
 15 19  1  0
 18 20  1  1
 19 21  2  0
 18 22  1  0
 19 22  1  0
M  END
