mac-x0142-mac-x0301
     RDKit          3D

 20 23  0  0  0  0  0  0  0  0999 V2000
   -1.4490   15.5370   -3.6000 O   0  0  0  0  0  0  0  0  0  0  0  0
   -2.6520   15.0170   -3.2340 C   0  0  0  0  0  0  0  0  0  0  0  0
   -3.3980   14.5580   -4.0730 O   0  0  0  0  0  0  0  0  0  0  0  0
   -2.8860   15.0400   -1.7720 C   0  0  0  0  0  0  0  0  0  0  0  0
   -1.8540   14.8020   -0.9000 C   0  0  0  0  0  0  0  0  0  0  0  0
   -3.9650   15.2900   -0.9810 C   0  0  0  0  0  0  0  0  0  0  0  0
   -2.4050   14.9120    0.4510 C   0  0  0  0  0  0  0  0  0  0  0  0
   -0.6140   14.5370   -1.1510 C   0  0  0  0  0  0  0  0  0  0  0  0
   -3.6860   15.2150    0.4090 N   0  0  0  0  0  0  0  0  0  0  0  0
   -0.3070   14.4270   -2.5240 N   0  0  0  0  0  0  0  0  0  0  0  0
    0.1930   14.3910   -0.0560 N   0  0  0  0  0  0  0  0  0  0  0  0
   -1.5910   14.6920    1.5330 N   0  0  0  0  0  0  0  0  0  0  0  0
   -1.0690   13.3310   -3.2470 C   0  0  0  0  0  0  0  0  0  0  0  0
    0.9870   14.7940   -3.1390 C   0  0  0  0  0  0  0  0  0  0  0  0
   -0.3470   14.4540    1.2190 C   0  0  0  0  0  0  0  0  0  0  0  0
    1.2440   13.6960   -4.1340 C   0  0  0  0  0  0  0  0  0  0  0  0
   -1.1100   13.4360   -4.7760 C   0  0  0  0  0  0  0  0  0  0  0  0
    2.6140   13.0730   -4.2930 C   0  0  0  0  0  0  0  0  0  0  0  0
    1.5600   12.3610   -3.5110 C   0  0  0  0  0  0  0  0  0  0  0  0
    0.2910   13.6610   -5.3090 C   0  0  0  0  0  0  0  0  0  0  0  0
  1  2  1  0
  2  3  2  0
  2  4  1  0
  4  5  1  0
  4  6  2  0
  5  7  1  0
  5  8  2  0
  6  9  1  0
  7  9  2  0
  8 10  1  0
  8 11  1  0
  7 12  1  0
 10 13  1  0
 10 14  1  0
 11 15  1  0
 12 15  2  0
 16 14  1  0
 13 17  1  0
 16 18  1  0
 16 19  1  0
 18 19  1  0
 16 20  1  0
 17 20  1  0
M  END
