mac-x0344-mac-x0305
     RDKit          3D

 21 22  0  0  0  0  0  0  0  0999 V2000
    1.5750   13.6950   -4.4820 O   0  0  0  0  0  0  0  0  0  0  0  0
    0.8160   13.2100   -3.4890 C   0  0  0  0  0  0  0  0  0  0  0  0
    0.6530   14.0040   -2.4560 N   0  0  0  0  0  0  0  0  0  0  0  0
    0.3280   11.7870   -3.8570 C   0  0  0  0  0  0  0  0  0  0  0  0
    0.1710   10.9680   -2.9610 O   0  0  0  0  0  0  0  0  0  0  0  0
    0.1320   11.6240   -5.2240 N   0  0  0  0  0  0  0  0  0  0  0  0
   -0.1180   13.7030   -1.2140 C   0  0  2  0  0  0  0  0  0  0  0  0
   -0.2920   12.2980   -1.0690 O   0  0  0  0  0  0  0  0  0  0  0  0
   -0.7330   10.6950   -5.8640 C   0  0  0  0  0  0  0  0  0  0  0  0
   -1.4830   14.3910   -0.8750 C   0  0  0  0  0  0  0  0  0  0  0  0
   -0.3230   10.1660   -7.0980 C   0  0  0  0  0  0  0  0  0  0  0  0
   -1.9560   10.2870   -5.3320 C   0  0  0  0  0  0  0  0  0  0  0  0
   -1.8620   14.7560    0.4480 C   0  0  0  0  0  0  0  0  0  0  0  0
   -2.3280   14.6260   -1.9390 N   0  0  0  0  0  0  0  0  0  0  0  0
   -1.0530   14.5480    1.5420 O   0  0  0  0  0  0  0  0  0  0  0  0
   -1.1290    9.2450   -7.7810 C   0  0  0  0  0  0  0  0  0  0  0  0
   -2.7600    9.3660   -6.0150 C   0  0  0  0  0  0  0  0  0  0  0  0
   -3.1120   15.3530    0.6550 C   0  0  0  0  0  0  0  0  0  0  0  0
   -3.5300   15.2100   -1.6890 C   0  0  0  0  0  0  0  0  0  0  0  0
   -2.3480    8.8450   -7.2390 C   0  0  0  0  0  0  0  0  0  0  0  0
   -3.9590   15.5840   -0.4290 C   0  0  0  0  0  0  0  0  0  0  0  0
  1  2  1  0
  2  3  2  3
  2  4  1  0
  4  5  2  0
  4  6  1  0
  3  7  1  0
  7  8  1  6
  6  9  1  0
  7 10  1  0
  9 11  2  0
  9 12  1  0
 10 13  2  0
 10 14  1  0
 13 15  1  0
 11 16  1  0
 12 17  2  0
 13 18  1  0
 14 19  2  0
 16 20  2  0
 17 20  1  0
 18 21  2  0
 19 21  1  0
M  END
