mac-x0132-mac-x0284
     RDKit          3D

 15 16  0  0  0  0  0  0  0  0999 V2000
   -4.1590   14.8880    2.0490 N   0  0  0  0  0  0  0  0  0  0  0  0
   -5.0320   14.8340    0.9690 C   0  0  0  0  0  0  0  0  0  0  0  0
   -6.3490   14.8050    1.2310 N   0  0  0  0  0  0  0  0  0  0  0  0
   -4.5030   14.8130   -0.3150 C   0  0  0  0  0  0  0  0  0  0  0  0
   -5.4380   14.7840   -1.3490 C   0  0  0  0  0  0  0  0  0  0  0  0
   -7.1570   14.7660    0.1690 C   0  0  0  0  0  0  0  0  0  0  0  0
   -3.1060   14.8160   -0.5900 C   0  0  0  0  0  0  0  0  0  0  0  0
   -6.7650   14.7600   -1.1160 N   0  0  0  0  0  0  0  0  0  0  0  0
   -4.9410   14.7750   -2.6570 C   0  0  0  0  0  0  0  0  0  0  0  0
   -2.6050   14.7860   -1.9010 C   0  0  0  0  0  0  0  0  0  0  0  0
   -1.0910   14.7550   -2.0950 C   0  0  0  0  0  0  0  0  0  0  0  0
   -3.5470   14.7760   -2.9370 C   0  0  0  0  0  0  0  0  0  0  0  0
   -3.1620   14.7610   -4.2580 O   0  0  0  0  0  0  0  0  0  0  0  0
   -0.2460   14.7740   -1.2140 O   0  0  0  0  0  0  0  0  0  0  0  0
   -0.6850   14.6870   -3.3850 O   0  0  0  0  0  0  0  0  0  0  0  0
  1  2  1  0
  2  3  2  0
  2  4  1  0
  4  5  2  0
  3  6  1  0
  4  7  1  0
  5  8  1  0
  6  8  2  0
  5  9  1  0
  7 10  2  0
 10 11  1  0
  9 12  2  0
 10 12  1  0
 12 13  1  0
 11 14  2  0
 11 15  1  0
M  END
