mac-x0394-mac-x0396
     RDKit          3D

 24 25  0  0  0  0  0  0  0  0999 V2000
    1.0020   18.3040   -5.0940 Cl  0  0  0  0  0  0  0  0  0  0  0  0
    0.2830   16.7670   -4.9750 C   0  0  0  0  0  0  0  0  0  0  0  0
   -1.0830   16.6770   -5.1640 C   0  0  0  0  0  0  0  0  0  0  0  0
    1.0520   15.6410   -4.6970 C   0  0  0  0  0  0  0  0  0  0  0  0
    0.4390   14.3880   -4.6130 C   0  0  0  0  0  0  0  0  0  0  0  0
   -1.7150   15.4440   -5.0820 C   0  0  0  0  0  0  0  0  0  0  0  0
   -3.2020   15.3520   -5.2930 C   0  0  0  0  0  0  0  0  0  0  0  0
    1.2510   13.1480   -4.3160 C   0  0  0  0  0  0  0  0  0  0  0  0
   -0.9480   14.2990   -4.8080 C   0  0  0  0  0  0  0  0  0  0  0  0
    0.8620   12.4790   -3.0190 C   0  0  0  0  0  0  0  0  0  0  0  0
   -3.8020   14.0900   -4.6720 C   0  0  0  0  0  0  0  0  0  0  0  0
    0.2260   11.3070   -3.2280 O   0  0  0  0  0  0  0  0  0  0  0  0
    1.0510   12.8670   -1.8830 O   0  0  0  0  0  0  0  0  0  0  0  0
   -3.4460   13.9070   -3.1940 C   0  0  0  0  0  0  0  0  0  0  0  0
   -3.6370   15.1770   -2.3760 C   0  0  0  0  0  0  0  0  0  0  0  0
   -2.9980   15.0530   -1.0700 N   0  0  0  0  0  0  0  0  0  0  0  0
   -3.6100   14.9340    0.0540 C   0  0  0  0  0  0  0  0  0  0  0  0
   -2.9810   14.8530    1.2780 N   0  0  0  0  0  0  0  0  0  0  0  0
   -5.1080   14.8590    0.0600 C   0  0  0  0  0  0  0  0  0  0  0  0
   -5.8850   15.1040   -1.0720 C   0  0  0  0  0  0  0  0  0  0  0  0
   -5.7790   14.5220    1.2340 C   0  0  0  0  0  0  0  0  0  0  0  0
   -7.2420   15.0300   -1.0900 N   0  0  0  0  0  0  0  0  0  0  0  0
   -7.1690   14.4410    1.2420 C   0  0  0  0  0  0  0  0  0  0  0  0
   -7.8510   14.7000    0.0660 C   0  0  0  0  0  0  0  0  0  0  0  0
  1  2  1  0
  2  3  2  0
  2  4  1  0
  4  5  2  0
  3  6  1  0
  6  7  1  0
  5  8  1  0
  5  9  1  0
  6  9  2  0
  8 10  1  0
  7 11  1  0
 10 12  1  0
 10 13  2  0
 11 14  1  0
 14 15  1  0
 15 16  1  0
 16 17  2  3
 17 18  1  0
 17 19  1  0
 19 20  2  0
 19 21  1  0
 20 22  1  0
 21 23  2  0
 22 24  2  0
 23 24  1  0
M  END
