mac-x0417-mac-x0361
     RDKit          3D

 25 27  0  0  0  0  0  0  0  0999 V2000
    1.4730   13.0300   -2.7580 O   0  0  0  0  0  0  0  0  0  0  0  0
    0.6990   12.0750   -3.3060 C   0  0  0  0  0  0  0  0  0  0  0  0
    0.7080   10.9320   -2.8780 O   0  0  0  0  0  0  0  0  0  0  0  0
   -0.1970   12.4800   -4.4630 C   0  0  1  0  0  0  0  0  0  0  0  0
   -0.4640   13.9880   -4.6020 C   0  0  0  0  0  0  0  0  0  0  0  0
    0.0130   11.6450   -5.6900 C   0  0  0  0  0  0  0  0  0  0  0  0
   -1.9290   14.4030   -4.3400 C   0  0  0  0  0  0  0  0  0  0  0  0
    1.0540   11.7350   -6.5290 N   0  0  0  0  0  0  0  0  0  0  0  0
   -0.8910   10.6410   -6.0980 C   0  0  0  0  0  0  0  0  0  0  0  0
   -2.0140   15.2710   -3.2050 O   0  0  0  0  0  0  0  0  0  0  0  0
    0.8270   10.7710   -7.5100 O   0  0  0  0  0  0  0  0  0  0  0  0
   -0.3380   10.1210   -7.2440 C   0  0  0  0  0  0  0  0  0  0  0  0
   -2.1030   10.1300   -5.6160 C   0  0  0  0  0  0  0  0  0  0  0  0
   -0.9170    9.0900   -7.9810 C   0  0  0  0  0  0  0  0  0  0  0  0
   -2.7120    9.0960   -6.3280 C   0  0  0  0  0  0  0  0  0  0  0  0
   -3.1300   15.1260   -2.4120 C   0  0  0  0  0  0  0  0  0  0  0  0
   -2.1320    8.5840   -7.4900 C   0  0  0  0  0  0  0  0  0  0  0  0
   -2.9400   14.9340   -1.0420 C   0  0  0  0  0  0  0  0  0  0  0  0
   -4.4140   15.1780   -2.9400 C   0  0  0  0  0  0  0  0  0  0  0  0
   -4.0410   14.8020   -0.1960 C   0  0  0  0  0  0  0  0  0  0  0  0
   -5.5240   15.0490   -2.0950 C   0  0  0  0  0  0  0  0  0  0  0  0
   -5.3400   14.8610   -0.7140 C   0  0  0  0  0  0  0  0  0  0  0  0
   -6.4770   14.7190    0.2430 C   0  0  0  0  0  0  0  0  0  0  0  0
   -6.1850   14.7190    1.5790 N   0  0  0  0  0  0  0  0  0  0  0  0
   -7.6350   14.6060   -0.1380 O   0  0  0  0  0  0  0  0  0  0  0  0
  1  2  1  0
  2  3  2  0
  2  4  1  0
  4  5  1  6
  4  6  1  0
  5  7  1  0
  6  8  2  0
  6  9  1  0
  7 10  1  0
  8 11  1  0
  9 12  2  0
 11 12  1  0
  9 13  1  0
 12 14  1  0
 13 15  2  0
 10 16  1  0
 14 17  2  0
 15 17  1  0
 16 18  2  0
 16 19  1  0
 18 20  1  0
 19 21  2  0
 20 22  2  0
 21 22  1  0
 22 23  1  0
 23 24  1  0
 23 25  2  0
M  END
