mac-x1493-diamond-x0849_0_A
     RDKit          3D

 23 26  0  0  0  0  0  0  0  0999 V2000
   -2.5460   14.0840   -3.2740 O   0  0  0  0  0  0  0  0  0  0  0  0
   -3.2340   15.1000   -2.6010 C   0  0  0  0  0  0  0  0  0  0  0  0
   -3.1000   16.2580   -3.4000 O   0  0  0  0  0  0  0  0  0  0  0  0
   -4.6320   14.8260   -2.1960 C   0  0  0  0  0  0  0  0  0  0  0  0
   -3.0320   15.1910   -1.1060 C   0  0  0  0  0  0  0  0  0  0  0  0
   -4.7260   14.7000   -0.8170 C   0  0  0  0  0  0  0  0  0  0  0  0
   -5.7970   14.7040   -2.9140 C   0  0  0  0  0  0  0  0  0  0  0  0
   -1.9420   14.8240   -0.3180 C   0  0  0  0  0  0  0  0  0  0  0  0
   -4.1680   15.6950   -0.4370 C   0  0  0  0  0  0  0  0  0  0  0  0
   -5.9100   14.4880   -0.1680 C   0  0  0  0  0  0  0  0  0  0  0  0
   -7.0030   14.4840   -2.3070 N   0  0  0  0  0  0  0  0  0  0  0  0
   -2.0970   14.9430    1.0810 C   0  0  0  0  0  0  0  0  0  0  0  0
   -4.1700   15.7740    0.9240 C   0  0  0  0  0  0  0  0  0  0  0  0
   -0.7250   14.3470   -0.7860 C   0  0  0  0  0  0  0  0  0  0  0  0
   -7.0530   14.3880   -0.9500 C   0  0  0  0  0  0  0  0  0  0  0  0
   -5.9480   14.3880    1.2270 C   0  0  0  0  0  0  0  0  0  0  0  0
   -3.1680   15.3960    1.6660 N   0  0  0  0  0  0  0  0  0  0  0  0
   -1.1780   14.5990    1.9120 N   0  0  0  0  0  0  0  0  0  0  0  0
    0.2430   14.0000    0.1060 C   0  0  0  0  0  0  0  0  0  0  0  0
   -8.2470   14.1880   -0.2780 C   0  0  0  0  0  0  0  0  0  0  0  0
   -7.1460   14.1910    1.8810 C   0  0  0  0  0  0  0  0  0  0  0  0
   -0.0510   14.1420    1.4480 C   0  0  0  0  0  0  0  0  0  0  0  0
   -8.3050   14.0910    1.1260 C   0  0  0  0  0  0  0  0  0  0  0  0
  2  1  1  0
  2  3  1  0
  2  4  1  0
  2  5  1  0
  4  6  2  0
  4  7  1  0
  5  8  1  0
  5  9  2  0
  6 10  1  0
  7 11  2  0
  8 12  2  0
  9 13  1  0
  8 14  1  0
 10 15  2  0
 11 15  1  0
 10 16  1  0
 12 17  1  0
 13 17  2  0
 12 18  1  0
 14 19  2  0
 15 20  1  0
 16 21  2  0
 18 22  2  0
 19 22  1  0
 20 23  2  0
 21 23  1  0
M  END
