mac-x0137-diamond-x0128_0_A
     RDKit          3D

 31 35  0  0  0  0  0  0  0  0999 V2000
   -2.7900   12.9000   -3.6360 F   0  0  0  0  0  0  0  0  0  0  0  0
   -1.7720   13.5220   -4.2970 C   0  0  2  0  0  0  0  0  0  0  0  0
   -0.6490   12.4960   -4.4790 C   0  0  0  0  0  0  0  0  0  0  0  0
   -1.4270   14.8370   -3.5350 C   0  0  0  0  0  0  0  0  0  0  0  0
   -0.3540   14.7250   -2.5080 N   0  0  0  0  0  0  0  0  0  0  0  0
    0.1960   12.4020   -3.2240 C   0  0  0  0  0  0  0  0  0  0  0  0
    0.7400   13.7840   -2.8440 C   0  0  0  0  0  0  0  0  0  0  0  0
   -0.7450   14.6280   -1.1410 C   0  0  0  0  0  0  0  0  0  0  0  0
    0.2120   14.4700   -0.2150 N   0  0  0  0  0  0  0  0  0  0  0  0
   -2.0450   14.6820   -0.7080 C   0  0  0  0  0  0  0  0  0  0  0  0
   -0.1630   14.3620    1.0850 C   0  0  0  0  0  0  0  0  0  0  0  0
   -2.2690   14.5060    0.6460 C   0  0  0  0  0  0  0  0  0  0  0  0
   -3.3360   14.8970   -1.4130 C   0  0  0  0  0  0  0  0  0  0  0  0
   -1.3720   14.3630    1.5740 N   0  0  0  0  0  0  0  0  0  0  0  0
   -3.6030   14.4580    0.9740 N   0  0  0  0  0  0  0  0  0  0  0  0
   -4.3440   14.6140   -0.2750 C   0  0  2  0  0  0  0  0  0  0  0  0
   -5.2590   13.4450   -0.7730 C   0  0  0  0  0  0  0  0  0  0  0  0
   -5.2050   15.6400    0.3520 C   0  0  0  0  0  0  0  0  0  0  0  0
   -6.7530   13.7270   -0.7520 C   0  0  0  0  0  0  0  0  0  0  0  0
   -6.1510   14.7600    1.2060 C   0  0  1  0  0  0  0  0  0  0  0  0
   -6.5350   15.1240    2.5620 N   0  0  0  0  0  0  0  0  0  0  0  0
   -7.2180   14.3920    0.2840 C   0  0  0  0  0  0  0  0  0  0  0  0
   -7.8330   15.2380    3.0340 C   0  0  0  0  0  0  0  0  0  0  0  0
   -8.8210   15.3200    2.3180 O   0  0  0  0  0  0  0  0  0  0  0  0
   -7.7880   15.2570    4.4180 N   0  0  0  0  0  0  0  0  0  0  0  0
   -8.5490   16.0480    5.3100 C   0  0  0  0  0  0  0  0  0  0  0  0
   -9.1850   17.2020    4.8510 C   0  0  0  0  0  0  0  0  0  0  0  0
   -8.7110   15.7450    6.6630 C   0  0  0  0  0  0  0  0  0  0  0  0
   -9.9350   18.0310    5.6140 N   0  0  0  0  0  0  0  0  0  0  0  0
   -9.4790   16.5800    7.4760 C   0  0  0  0  0  0  0  0  0  0  0  0
  -10.0650   17.7000    6.9120 C   0  0  0  0  0  0  0  0  0  0  0  0
  2  1  1  1
  2  3  1  0
  2  4  1  0
  4  5  1  0
  3  6  1  0
  5  7  1  0
  6  7  1  0
  5  8  1  0
  8  9  2  0
  8 10  1  0
  9 11  1  0
 10 12  2  0
 10 13  1  0
 11 14  2  0
 12 14  1  0
 12 15  1  0
 16 13  1  6
 16 15  1  0
 16 17  1  0
 16 18  1  0
 17 19  1  0
 18 20  1  0
 20 21  1  1
 19 22  2  0
 20 22  1  0
 21 23  1  0
 23 24  2  0
 23 25  1  0
 25 26  1  0
 26 27  2  0
 26 28  1  0
 27 29  1  0
 28 30  2  0
 29 31  2  0
 30 31  1  0
M  END
