mac-x0159-mac-x0132
     RDKit          3D

 27 31  0  0  0  0  0  0  0  0999 V2000
   -4.2170   14.9880    1.1540 N   0  0  0  0  0  0  0  0  0  0  0  0
   -3.2840   14.9810    0.0130 C   0  0  1  0  0  0  0  0  0  0  0  0
   -1.9070   14.4930    0.4610 C   0  0  1  0  0  0  0  0  0  0  0  0
   -5.5320   14.8060    0.7400 C   0  0  0  0  0  0  0  0  0  0  0  0
   -3.5350   14.1590   -1.1720 N   0  0  0  0  0  0  0  0  0  0  0  0
   -5.6950   14.8450   -0.6290 C   0  0  0  0  0  0  0  0  0  0  0  0
   -6.5600   14.6010    1.5850 N   0  0  0  0  0  0  0  0  0  0  0  0
   -2.7970   14.6760   -2.3380 C   0  0  0  0  0  0  0  0  0  0  0  0
   -1.0820   14.0880   -0.7920 C   0  0  1  0  0  0  0  0  0  0  0  0
   -1.1000   15.5320    1.0900 N   0  0  0  0  0  0  0  0  0  0  0  0
   -6.9760   14.6470   -1.1080 C   0  0  0  0  0  0  0  0  0  0  0  0
   -7.7580   14.4290    1.0100 C   0  0  0  0  0  0  0  0  0  0  0  0
   -4.6330   15.0700   -1.5210 C   0  0  0  0  0  0  0  0  0  0  0  0
   -1.4020   14.8510   -1.9990 N   0  0  0  0  0  0  0  0  0  0  0  0
    0.2880   14.4140   -0.3990 N   0  0  0  0  0  0  0  0  0  0  0  0
    0.1870   14.9470    0.9500 C   0  0  0  0  0  0  0  0  0  0  0  0
   -8.0190   14.4400   -0.3020 N   0  0  0  0  0  0  0  0  0  0  0  0
   -7.1620   14.6620   -2.4790 C   0  0  0  0  0  0  0  0  0  0  0  0
   -4.8370   15.0810   -2.8880 C   0  0  0  0  0  0  0  0  0  0  0  0
   -0.5240   14.5350   -3.1590 C   0  0  0  0  0  0  0  0  0  0  0  0
   -6.1110   14.8700   -3.3640 C   0  0  0  0  0  0  0  0  0  0  0  0
   -0.2530   15.7520   -4.0250 C   0  0  0  0  0  0  0  0  0  0  0  0
    0.9750   16.3650   -4.2110 C   0  0  0  0  0  0  0  0  0  0  0  0
   -1.3000   16.3590   -4.7260 N   0  0  0  0  0  0  0  0  0  0  0  0
   -0.8510   17.4000   -5.4040 C   0  0  0  0  0  0  0  0  0  0  0  0
    0.8240   17.7110   -5.2600 S   0  0  0  0  0  0  0  0  0  0  0  0
   -1.6890   18.2850   -6.2580 C   0  0  0  0  0  0  0  0  0  0  0  0
  2  1  1  1
  2  3  1  0
  1  4  1  0
  2  5  1  0
  4  6  1  0
  4  7  2  0
  5  8  1  0
  3  9  1  0
  3 10  1  6
  6 11  2  0
  7 12  1  0
  6 13  1  0
  8 14  1  0
  9 14  1  0
  9 15  1  1
 10 16  1  0
 15 16  1  0
 11 17  1  0
 12 17  2  0
 11 18  1  0
 13 19  2  0
 14 20  1  0
 18 21  2  0
 19 21  1  0
 20 22  1  0
 22 23  2  0
 22 24  1  0
 24 25  2  0
 23 26  1  0
 25 26  1  0
 25 27  1  0
M  END
