mac-x0404-mac-x0337
     RDKit          3D

 27 29  0  0  0  0  0  0  0  0999 V2000
    1.2660   13.1130   -2.1640 O   0  0  0  0  0  0  0  0  0  0  0  0
    1.2190   12.2350   -3.1790 C   0  0  0  0  0  0  0  0  0  0  0  0
    0.6480   11.1610   -3.0320 O   0  0  0  0  0  0  0  0  0  0  0  0
    1.9180   12.7100   -4.4620 C   0  0  0  0  0  0  0  0  0  0  0  0
    1.6320   14.0020   -4.9760 O   0  0  0  0  0  0  0  0  0  0  0  0
    0.3320   14.3580   -4.8090 C   0  0  0  0  0  0  0  0  0  0  0  0
   -0.0330   15.7080   -4.9860 C   0  0  0  0  0  0  0  0  0  0  0  0
   -0.5910   13.3940   -4.4670 C   0  0  0  0  0  0  0  0  0  0  0  0
   -1.3720   16.0920   -4.7910 C   0  0  0  0  0  0  0  0  0  0  0  0
   -1.8860   13.7500   -4.2640 C   0  0  0  0  0  0  0  0  0  0  0  0
    0.9220   16.6620   -5.3490 C   0  0  0  0  0  0  0  0  0  0  0  0
   -2.3020   15.0610   -4.3990 C   0  0  0  0  0  0  0  0  0  0  0  0
   -1.6700   17.4650   -4.9960 C   0  0  0  0  0  0  0  0  0  0  0  0
    0.6080   18.0010   -5.5370 C   0  0  0  0  0  0  0  0  0  0  0  0
   -3.7510   15.2000   -4.0740 C   0  0  0  0  0  0  0  0  0  0  0  0
   -0.7010   18.4010   -5.3610 C   0  0  0  0  0  0  0  0  0  0  0  0
   -3.9600   15.7200   -2.6810 N   0  0  0  0  0  0  0  0  0  0  0  0
   -3.8080   14.8950   -1.3740 S   0  0  1  0  0  0  0  0  0  0  0  0
   -2.7000   14.9420   -0.4410 O   0  0  0  0  0  0  0  0  0  0  0  0
   -4.9850   15.6850   -0.4770 N   0  0  0  0  0  0  0  0  0  0  0  0
   -4.3710   13.2290   -1.5370 C   0  0  0  0  0  0  0  0  0  0  0  0
   -3.5960   12.2960   -2.2210 C   0  0  0  0  0  0  0  0  0  0  0  0
   -5.5990   12.8510   -0.9790 C   0  0  0  0  0  0  0  0  0  0  0  0
   -4.0500   10.9850   -2.3600 C   0  0  0  0  0  0  0  0  0  0  0  0
   -6.0480   11.5380   -1.1200 C   0  0  0  0  0  0  0  0  0  0  0  0
   -5.2800   10.5930   -1.8160 C   0  0  0  0  0  0  0  0  0  0  0  0
   -5.7680    9.1830   -1.9720 C   0  0  0  0  0  0  0  0  0  0  0  0
  1  2  1  0
  2  3  2  0
  2  4  1  0
  4  5  1  0
  5  6  1  0
  6  7  2  0
  6  8  1  0
  7  9  1  0
  8 10  2  0
  7 11  1  0
  9 12  2  0
 10 12  1  0
  9 13  1  0
 11 14  2  0
 12 15  1  0
 13 16  2  0
 14 16  1  0
 15 17  1  0
 17 18  2  0
 18 19  2  0
 18 20  1  1
 18 21  1  0
 21 22  2  0
 21 23  1  0
 22 24  1  0
 23 25  2  0
 24 26  2  0
 25 26  1  0
 26 27  1  0
M  END
