mac-x0224-mac-x0472
     RDKit          3D

 26 28  0  0  0  0  0  0  0  0999 V2000
   -4.1150   15.7680    2.0300 C   0  0  0  0  0  0  0  0  0  0  0  0
   -2.5170   14.9280    1.9060 S   0  0  0  0  0  0  0  0  0  0  0  0
   -2.3270   14.8480    0.1850 C   0  0  0  0  0  0  0  0  0  0  0  0
   -1.1910   14.3340   -0.4390 C   0  0  0  0  0  0  0  0  0  0  0  0
   -3.3900   15.3240   -0.5300 C   0  0  0  0  0  0  0  0  0  0  0  0
   -1.1320   14.2700   -1.8430 C   0  0  0  0  0  0  0  0  0  0  0  0
   -3.3500   15.2600   -1.8870 C   0  0  0  0  0  0  0  0  0  0  0  0
    0.0980   13.7180   -2.4750 C   0  0  0  0  0  0  0  0  0  0  0  0
   -2.2570   14.7280   -2.5470 C   0  0  0  0  0  0  0  0  0  0  0  0
   -2.5340   14.7360   -3.9490 N   0  0  0  0  0  0  0  0  0  0  0  0
    1.1100   13.3380   -1.9210 O   0  0  0  0  0  0  0  0  0  0  0  0
    0.0220   13.6860   -3.8170 O   0  0  0  0  0  0  0  0  0  0  0  0
   -4.0050   14.2340   -3.9980 S   0  0  2  0  0  0  0  0  0  0  0  0
   -4.9340   14.4930   -5.0710 O   0  0  0  0  0  0  0  0  0  0  0  0
   -4.6910   15.0420   -2.6920 N   0  0  0  0  0  0  0  0  0  0  0  0
   -4.1700   12.5460   -3.4590 C   0  0  0  0  0  0  0  0  0  0  0  0
   -4.7310   14.4390   -1.4580 C   0  0  0  0  0  0  0  0  0  0  0  0
   -3.2050   11.5760   -3.7180 C   0  0  0  0  0  0  0  0  0  0  0  0
   -5.3300   12.2210   -2.7400 C   0  0  0  0  0  0  0  0  0  0  0  0
   -3.9050   13.5280   -0.9430 N   0  0  0  0  0  0  0  0  0  0  0  0
   -5.9890   14.8580   -0.3430 S   0  0  0  0  0  0  0  0  0  0  0  0
   -3.4100   10.2750   -3.2530 C   0  0  0  0  0  0  0  0  0  0  0  0
   -5.5240   10.9210   -2.2790 C   0  0  0  0  0  0  0  0  0  0  0  0
   -5.2970   13.7550    0.7750 C   0  0  0  0  0  0  0  0  0  0  0  0
   -4.2270   13.1370    0.3440 N   0  0  0  0  0  0  0  0  0  0  0  0
   -4.5610    9.9480   -2.5380 C   0  0  0  0  0  0  0  0  0  0  0  0
  1  2  1  0
  2  3  1  0
  3  4  2  0
  3  5  1  0
  4  6  1  0
  5  7  2  0
  6  8  1  0
  6  9  2  0
  7  9  1  0
  9 10  1  0
  8 11  2  0
  8 12  1  0
 10 13  2  0
 13 14  2  0
 13 15  1  1
 13 16  1  0
 15 17  1  0
 16 18  2  0
 16 19  1  0
 17 20  2  0
 17 21  1  0
 18 22  1  0
 19 23  2  0
 21 24  1  0
 20 25  1  0
 24 25  2  0
 22 26  2  0
 23 26  1  0
M  END
