mac-x0306-diamond-x0471_0_A
     RDKit          3D

 18 19  0  0  0  0  0  0  0  0999 V2000
   -9.8140   13.8790    3.2040 N   0  0  0  0  0  0  0  0  0  0  0  0
   -8.9940   14.7180    4.0570 C   0  0  1  0  0  0  0  0  0  0  0  0
   -9.4270   16.0440    3.8070 O   0  0  0  0  0  0  0  0  0  0  0  0
   -9.0790   14.3810    5.5620 C   0  0  0  0  0  0  0  0  0  0  0  0
   -7.5610   14.5500    3.5630 C   0  0  0  0  0  0  0  0  0  0  0  0
  -10.4450   13.8520    6.0000 C   0  0  0  0  0  0  0  0  0  0  0  0
   -8.6270   15.5530    6.4500 C   0  0  0  0  0  0  0  0  0  0  0  0
   -7.4490   14.6170    2.1030 C   0  0  0  0  0  0  0  0  0  0  0  0
   -8.3420   14.5960    1.0540 C   0  0  0  0  0  0  0  0  0  0  0  0
   -6.2380   14.7280    1.5350 N   0  0  0  0  0  0  0  0  0  0  0  0
   -6.3900   14.7800    0.1890 C   0  0  0  0  0  0  0  0  0  0  0  0
   -7.6740   14.6980   -0.1340 N   0  0  0  0  0  0  0  0  0  0  0  0
   -5.2540   14.9060   -0.6890 C   0  0  0  0  0  0  0  0  0  0  0  0
   -5.3490   15.1210   -2.0580 C   0  0  0  0  0  0  0  0  0  0  0  0
   -3.9920   14.7990   -0.1030 C   0  0  0  0  0  0  0  0  0  0  0  0
   -4.1690   15.2120   -2.7770 C   0  0  0  0  0  0  0  0  0  0  0  0
   -2.8800   14.9040   -0.9040 C   0  0  0  0  0  0  0  0  0  0  0  0
   -2.9440   15.1070   -2.2330 N   0  0  0  0  0  0  0  0  0  0  0  0
  2  1  1  6
  2  3  1  0
  2  4  1  0
  2  5  1  0
  4  6  1  0
  4  7  1  0
  5  8  1  0
  8  9  2  0
  8 10  1  0
 10 11  1  0
  9 12  1  0
 11 12  2  0
 11 13  1  0
 13 14  2  0
 13 15  1  0
 14 16  1  0
 15 17  2  0
 16 18  2  0
 17 18  1  0
M  END
