mac-x0568-mac-x0396
     RDKit          3D

 11 11  0  0  0  0  0  0  0  0999 V2000
   -8.7200   14.4840    1.2410 C   0  0  0  0  0  0  0  0  0  0  0  0
   -7.3480   14.6340    0.6660 C   0  0  0  0  0  0  0  0  0  0  0  0
   -6.2430   14.5640    1.4990 C   0  0  0  0  0  0  0  0  0  0  0  0
   -7.2430   14.8400   -0.6650 N   0  0  0  0  0  0  0  0  0  0  0  0
   -5.9940   14.9790   -1.1790 C   0  0  0  0  0  0  0  0  0  0  0  0
   -4.9660   14.7050    0.9540 C   0  0  0  0  0  0  0  0  0  0  0  0
   -4.8330   14.9180   -0.4220 C   0  0  0  0  0  0  0  0  0  0  0  0
   -3.5400   15.0750   -1.1310 C   0  0  0  0  0  0  0  0  0  0  0  0
   -3.5280   15.3780   -2.3220 O   0  0  0  0  0  0  0  0  0  0  0  0
   -2.3790   14.8430   -0.3980 N   0  0  0  0  0  0  0  0  0  0  0  0
   -2.3730   15.0780    0.9940 N   0  0  0  0  0  0  0  0  0  0  0  0
  1  2  1  0
  2  3  2  0
  2  4  1  0
  4  5  2  0
  3  6  1  0
  5  7  1  0
  6  7  2  0
  7  8  1  0
  8  9  2  0
  8 10  1  0
 10 11  1  0
M  END
