mac-x0348-mac-x0124
     RDKit          3D

 25 28  0  0  0  0  0  0  0  0999 V2000
    1.1280   18.5400   -5.7160 C   0  0  0  0  0  0  0  0  0  0  0  0
    0.3930   17.3950   -5.2720 N   0  0  0  0  0  0  0  0  0  0  0  0
    0.8800   16.3920   -4.4810 C   0  0  0  0  0  0  0  0  0  0  0  0
   -0.9060   17.1550   -5.5870 C   0  0  0  0  0  0  0  0  0  0  0  0
   -0.1460   15.4940   -4.3000 C   0  0  0  0  0  0  0  0  0  0  0  0
   -1.2560   15.9630   -4.9910 C   0  0  0  0  0  0  0  0  0  0  0  0
   -1.8010   17.8670   -6.3370 C   0  0  0  0  0  0  0  0  0  0  0  0
   -0.2930   14.2210   -3.5640 C   0  0  1  0  0  0  0  0  0  0  0  0
   -2.5440   15.4320   -5.1400 C   0  0  0  0  0  0  0  0  0  0  0  0
   -3.0520   17.3260   -6.4660 C   0  0  0  0  0  0  0  0  0  0  0  0
    1.0080   13.5810   -3.1070 C   0  0  0  0  0  0  0  0  0  0  0  0
   -3.4460   16.1300   -5.8930 C   0  0  0  0  0  0  0  0  0  0  0  0
   -1.4120   14.3150   -2.5750 N   0  0  0  0  0  0  0  0  0  0  0  0
    0.6990   12.3520   -2.3180 C   0  0  0  0  0  0  0  0  0  0  0  0
   -2.6970   13.7970   -2.7280 C   0  0  0  0  0  0  0  0  0  0  0  0
   -1.2050   14.4040   -1.1230 C   0  0  2  0  0  0  0  0  0  0  0  0
    0.5220   12.4180   -1.1230 O   0  0  0  0  0  0  0  0  0  0  0  0
    0.6100   11.1900   -2.9930 O   0  0  0  0  0  0  0  0  0  0  0  0
   -3.4630   14.0200   -1.6470 C   0  0  0  0  0  0  0  0  0  0  0  0
   -2.6370   14.7910   -0.6680 C   0  0  1  0  0  0  0  0  0  0  0  0
   -0.1870   15.0960   -0.3850 N   0  0  0  0  0  0  0  0  0  0  0  0
   -2.7690   14.5630    0.8390 C   0  0  2  0  0  0  0  0  0  0  0  0
   -0.2860   14.6900    0.9900 C   0  0  0  0  0  0  0  0  0  0  0  0
   -3.8800   15.2120    1.5070 N   0  0  0  0  0  0  0  0  0  0  0  0
   -1.5910   15.0350    1.5430 N   0  0  0  0  0  0  0  0  0  0  0  0
  1  2  1  0
  2  3  1  0
  2  4  1  0
  3  5  2  0
  4  6  2  0
  5  6  1  0
  4  7  1  0
  5  8  1  0
  6  9  1  0
  7 10  2  0
  8 11  1  1
  9 12  2  0
 10 12  1  0
  8 13  1  0
 11 14  1  0
 13 15  1  0
 13 16  1  0
 14 17  2  0
 14 18  1  0
 15 19  2  0
 16 20  1  0
 20 19  1  6
 16 21  1  6
 20 22  1  0
 21 23  1  0
 22 24  1  1
 22 25  1  0
 23 25  1  0
M  END
