mac-x0394-mac-x0333
     RDKit          3D

 23 25  0  0  0  0  0  0  0  0999 V2000
    1.0700   18.3490   -5.1180 Cl  0  0  0  0  0  0  0  0  0  0  0  0
    0.3640   16.8120   -4.9970 C   0  0  0  0  0  0  0  0  0  0  0  0
   -0.9900   16.7270   -5.2200 C   0  0  0  0  0  0  0  0  0  0  0  0
    1.1250   15.6830   -4.6860 C   0  0  0  0  0  0  0  0  0  0  0  0
    0.5140   14.4350   -4.6040 C   0  0  0  0  0  0  0  0  0  0  0  0
   -1.6110   15.4980   -5.1420 C   0  0  0  0  0  0  0  0  0  0  0  0
   -3.0760   15.3750   -5.3820 C   0  0  0  0  0  0  0  0  0  0  0  0
    1.3150   13.1930   -4.2720 C   0  0  0  0  0  0  0  0  0  0  0  0
   -0.8640   14.3550   -4.8350 C   0  0  0  0  0  0  0  0  0  0  0  0
    0.8600   12.5030   -3.0030 C   0  0  0  0  0  0  0  0  0  0  0  0
   -3.6850   14.7220   -4.1610 C   0  0  0  0  0  0  0  0  0  0  0  0
    0.2220   11.3400   -3.2490 O   0  0  0  0  0  0  0  0  0  0  0  0
    1.0050   12.8780   -1.8540 O   0  0  0  0  0  0  0  0  0  0  0  0
   -3.0180   15.1680   -2.9730 O   0  0  0  0  0  0  0  0  0  0  0  0
   -3.7940   15.1190   -1.8740 C   0  0  0  0  0  0  0  0  0  0  0  0
   -5.1750   15.0950   -1.9500 C   0  0  0  0  0  0  0  0  0  0  0  0
   -3.1450   15.0860   -0.6180 C   0  0  0  0  0  0  0  0  0  0  0  0
   -5.8740   15.0320   -0.7880 C   0  0  0  0  0  0  0  0  0  0  0  0
   -3.8880   15.0270    0.5660 C   0  0  0  0  0  0  0  0  0  0  0  0
   -5.2600   14.9980    0.4360 C   0  0  0  0  0  0  0  0  0  0  0  0
   -7.2270   14.9900   -0.6890 O   0  0  0  0  0  0  0  0  0  0  0  0
   -6.1750   14.9330    1.4340 O   0  0  0  0  0  0  0  0  0  0  0  0
   -7.3340   14.5550    0.6730 C   0  0  0  0  0  0  0  0  0  0  0  0
  1  2  1  0
  2  3  2  0
  2  4  1  0
  4  5  2  0
  3  6  1  0
  6  7  1  0
  5  8  1  0
  5  9  1  0
  6  9  2  0
  8 10  1  0
  7 11  1  0
 10 12  1  0
 10 13  2  0
 11 14  1  0
 14 15  1  0
 15 16  2  0
 15 17  1  0
 16 18  1  0
 17 19  2  0
 18 20  2  0
 19 20  1  0
 18 21  1  0
 20 22  1  0
 21 23  1  0
 22 23  1  0
M  END
