mac-x0301-mac-x0283
     RDKit          3D

 20 23  0  0  0  0  0  0  0  0999 V2000
    0.7560   14.7430   -2.9320 O   0  0  0  0  0  0  0  0  0  0  0  0
   -0.5360   14.6880   -3.2990 C   0  0  0  0  0  0  0  0  0  0  0  0
   -0.9240   14.5980   -4.4480 O   0  0  0  0  0  0  0  0  0  0  0  0
   -1.4510   14.7360   -2.1550 C   0  0  0  0  0  0  0  0  0  0  0  0
   -1.0330   14.7020   -0.8320 C   0  0  0  0  0  0  0  0  0  0  0  0
   -2.8060   14.8140   -2.4290 C   0  0  0  0  0  0  0  0  0  0  0  0
   -1.9450   14.7390    0.2100 C   0  0  0  0  0  0  0  0  0  0  0  0
   -3.7360   14.8360   -1.3990 C   0  0  0  0  0  0  0  0  0  0  0  0
    0.2340   14.6260   -0.3830 O   0  0  0  0  0  0  0  0  0  0  0  0
   -3.3090   14.7930   -0.0430 C   0  0  0  0  0  0  0  0  0  0  0  0
   -1.3400   14.7030    1.4480 O   0  0  0  0  0  0  0  0  0  0  0  0
    0.0170   14.4970    1.0350 C   0  0  0  0  0  0  0  0  0  0  0  0
   -5.0860   14.8850   -1.7350 C   0  0  0  0  0  0  0  0  0  0  0  0
   -5.9760   14.8630   -0.6840 C   0  0  0  0  0  0  0  0  0  0  0  0
   -4.2490   14.7940    0.9820 C   0  0  0  0  0  0  0  0  0  0  0  0
   -7.3270   14.8800   -0.7850 O   0  0  0  0  0  0  0  0  0  0  0  0
   -5.6100   14.8130    0.6450 C   0  0  0  0  0  0  0  0  0  0  0  0
   -6.8470   14.7910    1.3270 C   0  0  0  0  0  0  0  0  0  0  0  0
   -7.8810   14.8310    0.4810 N   0  0  0  0  0  0  0  0  0  0  0  0
   -6.9460   14.7410    2.6650 N   0  0  0  0  0  0  0  0  0  0  0  0
  1  2  1  0
  2  3  2  0
  2  4  1  0
  4  5  2  0
  4  6  1  0
  5  7  1  0
  6  8  2  0
  5  9  1  0
  7 10  2  0
  8 10  1  0
  7 11  1  0
  9 12  1  0
 11 12  1  0
  8 13  1  0
 13 14  2  0
 10 15  1  0
 14 16  1  0
 14 17  1  0
 15 17  2  0
 17 18  1  0
 16 19  1  0
 18 19  2  0
 18 20  1  0
M  END
