mac-x0568-mac-x0223
     RDKit          3D

 25 26  0  0  0  0  0  0  0  0999 V2000
   -8.7240   14.4500    1.5330 C   0  0  0  0  0  0  0  0  0  0  0  0
   -7.3870   14.5960    0.8830 C   0  0  0  0  0  0  0  0  0  0  0  0
   -6.2290   14.6570    1.6520 C   0  0  0  0  0  0  0  0  0  0  0  0
   -7.3750   14.6680   -0.4620 N   0  0  0  0  0  0  0  0  0  0  0  0
   -6.1740   14.8030   -1.0500 C   0  0  0  0  0  0  0  0  0  0  0  0
   -4.9890   14.7940    1.0250 C   0  0  0  0  0  0  0  0  0  0  0  0
   -4.9770   14.8680   -0.3590 C   0  0  0  0  0  0  0  0  0  0  0  0
   -3.7790   15.0150   -1.1760 C   0  0  0  0  0  0  0  0  0  0  0  0
   -3.7590   14.6200   -2.3930 N   0  0  0  0  0  0  0  0  0  0  0  0
   -2.6580   15.6180   -0.6490 N   0  0  0  0  0  0  0  0  0  0  0  0
   -2.6500   14.8250   -3.2960 C   0  0  0  0  0  0  0  0  0  0  0  0
   -2.8940   16.3000   -3.5350 C   0  0  0  0  0  0  0  0  0  0  0  0
   -2.4940   16.8980   -4.7950 O   0  0  0  0  0  0  0  0  0  0  0  0
   -1.4180   16.1680   -4.8130 C   0  0  0  0  0  0  0  0  0  0  0  0
   -0.1060   16.6120   -4.7630 C   0  0  0  0  0  0  0  0  0  0  0  0
   -1.7920   14.8550   -4.8510 C   0  0  0  0  0  0  0  0  0  0  0  0
    0.1100   17.9600   -4.7470 O   0  0  0  0  0  0  0  0  0  0  0  0
   -0.8410   13.8900   -4.8060 C   0  0  0  0  0  0  0  0  0  0  0  0
    0.8740   15.6150   -4.7160 C   0  0  0  0  0  0  0  0  0  0  0  0
    1.1700   18.4010   -5.5760 C   0  0  0  0  0  0  0  0  0  0  0  0
    0.4860   14.2530   -4.7240 C   0  0  0  0  0  0  0  0  0  0  0  0
    1.4430   13.1150   -4.6240 C   0  0  0  0  0  0  0  0  0  0  0  0
    1.0140   12.2960   -3.4120 C   0  0  0  0  0  0  0  0  0  0  0  0
    0.3610   11.2660   -3.3720 O   0  0  0  0  0  0  0  0  0  0  0  0
    1.4240   12.8510   -2.2490 O   0  0  0  0  0  0  0  0  0  0  0  0
  1  2  1  0
  2  3  2  0
  2  4  1  0
  4  5  2  0
  3  6  1  0
  5  7  1  0
  6  7  2  0
  7  8  1  0
  8  9  2  3
  8 10  1  0
  9 11  1  0
 11 12  1  0
 12 13  1  0
 13 14  1  0
 14 15  2  0
 14 16  1  0
 15 17  1  0
 16 18  2  0
 15 19  1  0
 17 20  1  0
 18 21  1  0
 19 21  2  0
 21 22  1  0
 22 23  1  0
 23 24  2  0
 23 25  1  0
M  END
