mac-x0193-diamond-x0962_0_A
     RDKit          3D

 24 25  0  0  0  0  0  0  0  0999 V2000
    0.3240   10.7140   -3.1040 O   0  0  0  0  0  0  0  0  0  0  0  0
    0.7810   11.9610   -3.3450 C   0  0  0  0  0  0  0  0  0  0  0  0
    1.1350   12.7800   -2.4200 N   0  0  0  0  0  0  0  0  0  0  0  0
    0.8590   12.3490   -4.8260 C   0  0  0  0  0  0  0  0  0  0  0  0
    0.1010   11.4130   -5.6510 N   0  0  0  0  0  0  0  0  0  0  0  0
    1.6240   14.1180   -2.7390 C   0  0  0  0  0  0  0  0  0  0  0  0
    0.5850   11.1530   -6.9140 C   0  0  0  0  0  0  0  0  0  0  0  0
    0.4580   15.1180   -2.6490 C   0  0  0  0  0  0  0  0  0  0  0  0
    1.6880   11.4970   -7.2520 O   0  0  0  0  0  0  0  0  0  0  0  0
   -0.3300   10.4750   -7.7060 N   0  0  0  0  0  0  0  0  0  0  0  0
   -0.8860   14.6170   -3.2140 C   0  0  0  0  0  0  0  0  0  0  0  0
   -1.9790   14.7350   -2.2300 C   0  0  0  0  0  0  0  0  0  0  0  0
    0.0120    9.4990   -8.7620 C   0  0  0  0  0  0  0  0  0  0  0  0
   -2.8320   14.8440   -1.3950 C   0  0  0  0  0  0  0  0  0  0  0  0
    1.4790    9.2320   -8.8280 C   0  0  0  0  0  0  0  0  0  0  0  0
   -0.4370    9.9520  -10.1620 C   0  0  0  0  0  0  0  0  0  0  0  0
    1.8680    8.0830   -9.7530 C   0  0  0  0  0  0  0  0  0  0  0  0
    0.5330    9.5710  -11.3010 C   0  0  0  0  0  0  0  0  0  0  0  0
   -3.7790   14.9770   -0.3550 C   0  0  0  0  0  0  0  0  0  0  0  0
    1.1970    8.2070  -11.1170 C   0  0  0  0  0  0  0  0  0  0  0  0
   -3.4630   15.3390    0.9170 N   0  0  0  0  0  0  0  0  0  0  0  0
   -5.1380   14.7920   -0.3570 C   0  0  0  0  0  0  0  0  0  0  0  0
   -4.6200   15.3590    1.6340 C   0  0  0  0  0  0  0  0  0  0  0  0
   -5.6540   15.0300    0.8890 N   0  0  0  0  0  0  0  0  0  0  0  0
  1  2  1  0
  2  3  2  3
  2  4  1  0
  4  5  1  0
  3  6  1  0
  5  7  1  0
  6  8  1  0
  7  9  2  0
  7 10  1  0
  8 11  1  0
 11 12  1  0
 10 13  1  0
 12 14  3  0
 13 15  1  0
 13 16  1  0
 15 17  1  0
 16 18  1  0
 14 19  1  0
 17 20  1  0
 18 20  1  0
 19 21  1  0
 19 22  2  0
 21 23  1  0
 22 24  1  0
 23 24  2  0
M  END
