mac-x0360-diamond-x0926_0_A
     RDKit          3D

 18 19  0  0  0  0  0  0  0  0999 V2000
   -7.6940   11.2450    1.6890 Cl  0  0  0  0  0  0  0  0  0  0  0  0
   -6.4900   11.4270    0.4660 C   0  0  0  0  0  0  0  0  0  0  0  0
   -6.6530   10.7810   -0.7570 C   0  0  0  0  0  0  0  0  0  0  0  0
   -5.3640   12.2100    0.7070 C   0  0  0  0  0  0  0  0  0  0  0  0
   -4.3840   12.3590   -0.2890 C   0  0  0  0  0  0  0  0  0  0  0  0
   -5.6760   10.9290   -1.7360 C   0  0  0  0  0  0  0  0  0  0  0  0
   -5.8660   10.1270   -3.2500 Cl  0  0  0  0  0  0  0  0  0  0  0  0
   -2.8720   13.3490   -0.0980 S   0  0  0  0  0  0  0  0  0  0  0  0
   -4.5490   11.7120   -1.5110 C   0  0  0  0  0  0  0  0  0  0  0  0
   -3.3740   14.6180   -1.0180 N   0  0  0  0  0  0  0  0  0  0  0  0
   -3.2500   13.8640    1.4990 N   0  0  0  0  0  0  0  0  0  0  0  0
   -4.1800   14.9860    1.6010 C   0  0  1  0  0  0  0  0  0  0  0  0
   -3.7130   16.0740    0.6840 C   0  0  0  0  0  0  0  0  0  0  0  0
   -5.6350   14.5520    1.3570 C   0  0  0  0  0  0  0  0  0  0  0  0
   -4.1310   15.8310   -0.7110 N   0  0  0  0  0  0  0  0  0  0  0  0
   -6.2770   14.9880    0.0510 C   0  0  0  0  0  0  0  0  0  0  0  0
   -7.4610   14.7610   -0.2030 O   0  0  0  0  0  0  0  0  0  0  0  0
   -5.5160   15.6700   -0.8620 N   0  0  0  0  0  0  0  0  0  0  0  0
  1  2  1  0
  2  3  2  0
  2  4  1  0
  4  5  2  0
  3  6  1  0
  6  7  1  0
  5  8  1  0
  5  9  1  0
  6  9  2  0
  8 10  1  6
  8 11  2  3
 12 11  1  6
 12 13  1  0
 12 14  1  0
 13 15  1  0
 14 16  1  0
 16 17  2  0
 15 18  1  0
 16 18  1  0
M  END
