mac-x0437-mac-x0319
     RDKit          3D

 21 23  0  0  0  0  0  0  0  0999 V2000
    1.9330   13.2010   -2.3460 O   0  0  0  0  0  0  0  0  0  0  0  0
    1.1500   12.3310   -2.9850 C   0  0  0  0  0  0  0  0  0  0  0  0
    1.0820   11.1730   -2.6400 O   0  0  0  0  0  0  0  0  0  0  0  0
    0.3440   12.8920   -4.1220 C   0  0  2  0  0  0  0  0  0  0  0  0
    0.7260   12.4210   -5.4840 C   0  0  0  0  0  0  0  0  0  0  0  0
    0.0720   14.3340   -4.2560 C   0  0  0  0  0  0  0  0  0  0  0  0
   -0.2940   11.4820   -5.8140 N   0  0  0  0  0  0  0  0  0  0  0  0
    1.0050   15.3550   -4.0450 C   0  0  0  0  0  0  0  0  0  0  0  0
   -1.2340   14.6320   -4.6420 C   0  0  0  0  0  0  0  0  0  0  0  0
   -1.5010   11.3580   -5.1730 C   0  0  0  0  0  0  0  0  0  0  0  0
   -0.2240   10.5760   -6.7870 C   0  0  0  0  0  0  0  0  0  0  0  0
    0.5750   16.6650   -4.2370 C   0  0  0  0  0  0  0  0  0  0  0  0
   -1.6320   15.9330   -4.8290 C   0  0  0  0  0  0  0  0  0  0  0  0
    1.3750   17.7430   -4.0600 O   0  0  0  0  0  0  0  0  0  0  0  0
   -2.2180   10.3960   -5.6910 N   0  0  0  0  0  0  0  0  0  0  0  0
   -1.4280    9.8970   -6.6980 C   0  0  0  0  0  0  0  0  0  0  0  0
    0.7670   10.2960   -7.7100 C   0  0  0  0  0  0  0  0  0  0  0  0
   -0.7210   16.9510   -4.6280 C   0  0  0  0  0  0  0  0  0  0  0  0
   -1.6680    8.8540   -7.5930 C   0  0  0  0  0  0  0  0  0  0  0  0
    0.5190    9.2590   -8.5940 C   0  0  0  0  0  0  0  0  0  0  0  0
   -0.6810    8.5430   -8.5400 C   0  0  0  0  0  0  0  0  0  0  0  0
  1  2  1  0
  2  3  2  0
  2  4  1  0
  4  5  1  6
  4  6  1  0
  5  7  1  0
  6  8  2  0
  6  9  1  0
  7 10  1  0
  7 11  1  0
  8 12  1  0
  9 13  2  0
 12 14  1  0
 10 15  2  0
 11 16  2  0
 15 16  1  0
 11 17  1  0
 12 18  2  0
 13 18  1  0
 16 19  1  0
 17 20  2  0
 19 21  2  0
 20 21  1  0
M  END
