mac-x0226-mac-x0417
     RDKit          3D

 20 22  0  0  0  0  0  0  0  0999 V2000
    1.6590   12.1260   -2.6320 O   0  0  0  0  0  0  0  0  0  0  0  0
    0.4160   11.6540   -3.1050 C   0  0  0  0  0  0  0  0  0  0  0  0
    0.3060   10.2820   -2.6990 O   0  0  0  0  0  0  0  0  0  0  0  0
   -0.6310   12.4300   -2.3550 C   0  0  0  0  0  0  0  0  0  0  0  0
    0.2210   11.8510   -4.6330 C   0  0  1  0  0  0  0  0  0  0  0  0
    1.3500   12.4030   -5.4870 C   0  0  0  0  0  0  0  0  0  0  0  0
   -0.6480   10.9930   -5.6480 C   0  0  2  0  0  0  0  0  0  0  0  0
    0.5340   12.8850   -6.5790 N   0  0  0  0  0  0  0  0  0  0  0  0
   -0.5000   11.8950   -6.7820 N   0  0  0  0  0  0  0  0  0  0  0  0
   -2.1340   10.7250   -5.2550 C   0  0  0  0  0  0  0  0  0  0  0  0
   -0.0480    9.8580   -6.5020 C   0  0  0  0  0  0  0  0  0  0  0  0
   -0.4180   11.1690   -7.9720 C   0  0  0  0  0  0  0  0  0  0  0  0
   -0.7180    8.7600   -6.8820 C   0  0  0  0  0  0  0  0  0  0  0  0
   -2.7490    9.4320   -5.7630 C   0  0  0  0  0  0  0  0  0  0  0  0
   -1.5540   10.4960   -8.4380 C   0  0  0  0  0  0  0  0  0  0  0  0
    0.7210   11.0340   -8.7460 C   0  0  0  0  0  0  0  0  0  0  0  0
   -2.0820    8.5440   -6.5060 C   0  0  0  0  0  0  0  0  0  0  0  0
   -1.5430    9.7380   -9.6070 C   0  0  0  0  0  0  0  0  0  0  0  0
    0.7590   10.2880   -9.9200 C   0  0  0  0  0  0  0  0  0  0  0  0
   -0.3820    9.6340  -10.3550 C   0  0  0  0  0  0  0  0  0  0  0  0
  2  1  1  0
  2  3  1  0
  2  4  1  0
  5  2  1  1
  5  6  1  0
  5  7  1  0
  6  8  1  0
  7  9  1  0
  8  9  1  0
  7 10  1  1
  7 11  1  0
  9 12  1  0
 11 13  2  0
 10 14  1  0
 12 15  2  0
 12 16  1  0
 13 17  1  0
 14 17  2  0
 15 18  1  0
 16 19  2  0
 18 20  2  0
 19 20  1  0
M  END
