mac-x0555-mac-x0301
     RDKit          3D

 21 24  0  0  0  0  0  0  0  0999 V2000
   -7.1900   14.4670    3.1850 N   0  0  0  0  0  0  0  0  0  0  0  0
   -6.7490   14.5970    1.8680 C   0  0  0  0  0  0  0  0  0  0  0  0
   -7.6750   14.7180    0.8620 C   0  0  0  0  0  0  0  0  0  0  0  0
   -5.3770   14.6130    1.5000 C   0  0  0  0  0  0  0  0  0  0  0  0
   -4.9640   14.7440    0.1370 C   0  0  0  0  0  0  0  0  0  0  0  0
   -7.3670   14.8550   -0.4200 N   0  0  0  0  0  0  0  0  0  0  0  0
   -6.0820   14.8650   -0.7570 C   0  0  0  0  0  0  0  0  0  0  0  0
   -3.5880   14.7560   -0.4420 C   0  0  0  0  0  0  0  0  0  0  0  0
   -5.9150   15.0000   -2.0950 C   0  0  0  0  0  0  0  0  0  0  0  0
   -3.5730   14.8800   -1.8710 C   0  0  0  0  0  0  0  0  0  0  0  0
   -2.2270   14.6570    0.1060 C   0  0  0  0  0  0  0  0  0  0  0  0
   -4.6870   15.0050   -2.6430 C   0  0  0  0  0  0  0  0  0  0  0  0
   -1.1020   14.6510   -0.7510 C   0  0  0  0  0  0  0  0  0  0  0  0
   -2.4510   14.8760   -2.6420 C   0  0  0  0  0  0  0  0  0  0  0  0
   -1.7690   14.5460    1.4250 O   0  0  0  0  0  0  0  0  0  0  0  0
   -1.2150   14.7520   -2.1250 C   0  0  0  0  0  0  0  0  0  0  0  0
    0.0800   14.5290   -0.1070 O   0  0  0  0  0  0  0  0  0  0  0  0
   -0.3590   14.2860    1.2340 C   0  0  0  0  0  0  0  0  0  0  0  0
   -0.1540   14.7360   -3.1470 C   0  0  0  0  0  0  0  0  0  0  0  0
    1.1090   14.8430   -2.7140 O   0  0  0  0  0  0  0  0  0  0  0  0
   -0.4380   14.6140   -4.3310 O   0  0  0  0  0  0  0  0  0  0  0  0
  1  2  1  0
  2  3  2  0
  2  4  1  0
  4  5  2  0
  3  6  1  0
  5  7  1  0
  6  7  2  0
  5  8  1  0
  7  9  1  0
  8 10  2  0
  8 11  1  0
  9 12  2  0
 10 12  1  0
 11 13  2  0
 10 14  1  0
 11 15  1  0
 13 16  1  0
 14 16  2  0
 13 17  1  0
 15 18  1  0
 17 18  1  0
 16 19  1  0
 19 20  1  0
 19 21  2  0
M  END
