mac-x0132-mac-x0396
     RDKit          3D

 13 14  0  0  0  0  0  0  0  0999 V2000
   -4.2950   15.0890    1.7460 N   0  0  0  0  0  0  0  0  0  0  0  0
   -3.0350   14.8200    1.2760 C   0  0  0  0  0  0  0  0  0  0  0  0
   -2.5410   14.9540    0.1640 O   0  0  0  0  0  0  0  0  0  0  0  0
   -5.3710   14.9330    0.8900 C   0  0  0  0  0  0  0  0  0  0  0  0
   -5.0520   14.9990   -0.4600 C   0  0  0  0  0  0  0  0  0  0  0  0
   -6.6160   14.7260    1.3530 N   0  0  0  0  0  0  0  0  0  0  0  0
   -6.1300   14.8320   -1.3200 C   0  0  0  0  0  0  0  0  0  0  0  0
   -7.5640   14.5820    0.4320 C   0  0  0  0  0  0  0  0  0  0  0  0
   -3.7570   15.2120   -0.9950 C   0  0  0  0  0  0  0  0  0  0  0  0
   -7.3790   14.6270   -0.8910 N   0  0  0  0  0  0  0  0  0  0  0  0
   -5.8830   14.8770   -2.6810 C   0  0  0  0  0  0  0  0  0  0  0  0
   -3.5350   15.2480   -2.3530 C   0  0  0  0  0  0  0  0  0  0  0  0
   -4.6020   15.0790   -3.2020 C   0  0  0  0  0  0  0  0  0  0  0  0
  1  2  1  0
  2  3  2  0
  1  4  1  0
  4  5  2  0
  4  6  1  0
  5  7  1  0
  6  8  2  0
  5  9  1  0
  7 10  2  0
  8 10  1  0
  7 11  1  0
  9 12  2  0
 11 13  2  0
 12 13  1  0
M  END
