mac-x0567-mac-x0123
     RDKit          3D

 19 22  0  0  0  0  0  0  0  0999 V2000
    0.5630   14.2730   -0.2810 N   0  0  0  0  0  0  0  0  0  0  0  0
   -0.7160   14.3160    0.1030 C   0  0  0  0  0  0  0  0  0  0  0  0
   -1.0880   14.2240    1.4170 N   0  0  0  0  0  0  0  0  0  0  0  0
   -1.8790   14.4490   -0.6080 C   0  0  0  0  0  0  0  0  0  0  0  0
   -2.4180   14.2840    1.5980 N   0  0  0  0  0  0  0  0  0  0  0  0
   -2.8800   14.4120    0.3490 C   0  0  0  0  0  0  0  0  0  0  0  0
   -2.2420   14.6100   -2.0390 C   0  0  0  0  0  0  0  0  0  0  0  0
   -4.3260   14.5200   -0.0250 C   0  0  2  0  0  0  0  0  0  0  0  0
   -3.4440   15.5370   -2.1120 C   0  0  0  0  0  0  0  0  0  0  0  0
   -4.4160   15.5350   -1.1710 C   0  0  0  0  0  0  0  0  0  0  0  0
   -5.0020   14.6920    1.3610 C   0  0  1  0  0  0  0  0  0  0  0  0
   -4.9380   13.2890   -0.7590 C   0  0  0  0  0  0  0  0  0  0  0  0
   -4.5540   15.8530    2.1450 N   0  0  0  0  0  0  0  0  0  0  0  0
   -6.4090   13.4030   -0.8950 N   0  0  0  0  0  0  0  0  0  0  0  0
   -6.4990   14.5660    1.2750 C   0  0  1  0  0  0  0  0  0  0  0  0
   -6.9930   13.4310    0.4430 C   0  0  1  0  0  0  0  0  0  0  0  0
   -7.2980   14.4460    2.5580 C   0  0  0  0  0  0  0  0  0  0  0  0
   -8.4960   13.7380    0.5400 C   0  0  0  0  0  0  0  0  0  0  0  0
   -8.6960   14.1780    2.0050 C   0  0  0  0  0  0  0  0  0  0  0  0
  1  2  1  0
  2  3  1  0
  2  4  2  0
  3  5  1  0
  4  6  1  0
  5  6  2  0
  4  7  1  0
  6  8  1  0
  7  9  1  0
  8 10  1  6
  9 10  2  0
  8 11  1  0
  8 12  1  0
 11 13  1  6
 12 14  1  0
 11 15  1  0
 14 16  1  0
 15 16  1  0
 15 17  1  1
 16 18  1  6
 17 19  1  0
 18 19  1  0
M  END
