mac-x0142-diamond-x1018_0_A
     RDKit          3D

 23 27  0  0  0  0  0  0  0  0999 V2000
   -8.2630   14.6990    1.3200 Cl  0  0  0  0  0  0  0  0  0  0  0  0
   -7.2070   13.9530    0.1080 C   0  0  2  0  0  0  0  0  0  0  0  0
   -6.0530   13.2290    0.7220 C   0  0  0  0  0  0  0  0  0  0  0  0
   -6.7810   14.9510   -0.8870 N   0  0  0  0  0  0  0  0  0  0  0  0
   -5.6430   15.7450   -0.4000 N   0  0  0  0  0  0  0  0  0  0  0  0
   -4.8010   13.6840    0.6420 C   0  0  0  0  0  0  0  0  0  0  0  0
   -4.4390   14.9920   -0.0430 C   0  0  2  0  0  0  0  0  0  0  0  0
   -3.6100   15.4840    1.0130 N   0  0  0  0  0  0  0  0  0  0  0  0
   -3.5370   14.9250   -1.3250 C   0  0  0  0  0  0  0  0  0  0  0  0
   -2.3070   15.1580    0.6310 C   0  0  0  0  0  0  0  0  0  0  0  0
   -2.1940   14.8640   -0.7190 C   0  0  0  0  0  0  0  0  0  0  0  0
   -1.3100   15.1620    1.4730 N   0  0  0  0  0  0  0  0  0  0  0  0
   -0.9530   14.5950   -1.2360 C   0  0  0  0  0  0  0  0  0  0  0  0
   -0.7490   14.3220   -2.6010 N   0  0  0  0  0  0  0  0  0  0  0  0
    0.0930   14.6050   -0.4040 N   0  0  0  0  0  0  0  0  0  0  0  0
   -0.1460   14.8800    0.8990 C   0  0  0  0  0  0  0  0  0  0  0  0
   -1.8850   14.1560   -3.5150 C   0  0  0  0  0  0  0  0  0  0  0  0
    0.5050   14.7420   -3.2240 C   0  0  0  0  0  0  0  0  0  0  0  0
    0.8800   13.6710   -4.2120 C   0  0  0  0  0  0  0  0  0  0  0  0
   -1.5480   13.1920   -4.6670 C   0  0  0  0  0  0  0  0  0  0  0  0
    2.3130   13.2430   -4.4600 C   0  0  0  0  0  0  0  0  0  0  0  0
    1.4330   12.4150   -3.5760 C   0  0  0  0  0  0  0  0  0  0  0  0
   -0.1670   13.4630   -5.2780 C   0  0  0  0  0  0  0  0  0  0  0  0
  2  1  1  1
  2  3  1  0
  2  4  1  0
  4  5  1  0
  3  6  2  0
  5  7  1  0
  7  6  1  1
  7  8  1  0
  7  9  1  0
  8 10  1  0
  9 11  1  0
 10 11  2  0
 10 12  1  0
 11 13  1  0
 13 14  1  0
 13 15  2  0
 12 16  2  0
 15 16  1  0
 14 17  1  0
 14 18  1  0
 19 18  1  0
 17 20  1  0
 19 21  1  0
 19 22  1  0
 21 22  1  0
 19 23  1  0
 20 23  1  0
M  END
