mac-x0338-mac-x0358
     RDKit          3D

 21 22  0  0  0  0  0  0  0  0999 V2000
   -4.1680   15.3470    1.8440 N   0  0  0  0  0  0  0  0  0  0  0  0
   -5.1850   15.1090    0.9780 C   0  0  0  0  0  0  0  0  0  0  0  0
   -6.3350   14.9210    1.3660 O   0  0  0  0  0  0  0  0  0  0  0  0
   -4.8510   15.0790   -0.4680 C   0  0  0  0  0  0  0  0  0  0  0  0
   -3.5430   15.0380   -0.8480 N   0  0  0  0  0  0  0  0  0  0  0  0
   -5.8870   15.0910   -1.3830 C   0  0  0  0  0  0  0  0  0  0  0  0
   -3.3520   15.0060   -2.1990 C   0  0  0  0  0  0  0  0  0  0  0  0
   -5.6870   15.0570   -2.7240 N   0  0  0  0  0  0  0  0  0  0  0  0
   -4.4020   15.0120   -3.1440 C   0  0  0  0  0  0  0  0  0  0  0  0
   -4.1220   14.9540   -4.6560 C   0  0  0  0  0  0  0  0  0  0  0  0
   -2.7710   14.3830   -4.7740 C   0  0  0  0  0  0  0  0  0  0  0  0
   -2.6000   13.0120   -4.9260 C   0  0  0  0  0  0  0  0  0  0  0  0
   -1.6790   15.2430   -4.6930 C   0  0  0  0  0  0  0  0  0  0  0  0
   -1.3200   12.5030   -4.9540 C   0  0  0  0  0  0  0  0  0  0  0  0
   -0.4000   14.7280   -4.7230 C   0  0  0  0  0  0  0  0  0  0  0  0
   -1.2080   11.1440   -5.0810 O   0  0  0  0  0  0  0  0  0  0  0  0
   -0.2190   13.3480   -4.8340 C   0  0  0  0  0  0  0  0  0  0  0  0
    1.1470   12.7870   -4.7850 C   0  0  0  0  0  0  0  0  0  0  0  0
    1.1990   12.1410   -3.4150 C   0  0  0  0  0  0  0  0  0  0  0  0
    1.8780   12.8460   -2.4840 O   0  0  0  0  0  0  0  0  0  0  0  0
    0.6720   11.0890   -3.0980 O   0  0  0  0  0  0  0  0  0  0  0  0
  1  2  1  0
  2  3  2  0
  2  4  1  0
  4  5  2  0
  4  6  1  0
  5  7  1  0
  6  8  2  0
  7  9  2  0
  8  9  1  0
  9 10  1  0
 10 11  1  0
 11 12  2  0
 11 13  1  0
 12 14  1  0
 13 15  2  0
 14 16  1  0
 14 17  2  0
 15 17  1  0
 17 18  1  0
 18 19  1  0
 19 20  1  0
 19 21  2  0
M  END
