mac-x0193-mac-x1493
     RDKit          3D

 29 31  0  0  0  0  0  0  0  0999 V2000
    0.4360   10.6610   -3.0930 O   0  0  0  0  0  0  0  0  0  0  0  0
    0.7400   11.9600   -3.3090 C   0  0  0  0  0  0  0  0  0  0  0  0
    0.9440   12.7660   -2.3230 N   0  0  0  0  0  0  0  0  0  0  0  0
    0.8220   12.4090   -4.7760 C   0  0  0  0  0  0  0  0  0  0  0  0
    0.2730   11.4170   -5.6950 N   0  0  0  0  0  0  0  0  0  0  0  0
    1.2360   14.1690   -2.6440 C   0  0  0  0  0  0  0  0  0  0  0  0
    0.8090   11.2450   -6.9540 C   0  0  0  0  0  0  0  0  0  0  0  0
    0.1700   15.1060   -2.0440 C   0  0  0  0  0  0  0  0  0  0  0  0
    1.9470   11.5880   -7.2310 O   0  0  0  0  0  0  0  0  0  0  0  0
   -0.0980   10.6620   -7.8100 N   0  0  0  0  0  0  0  0  0  0  0  0
   -1.1000   14.4500   -1.8010 O   0  0  0  0  0  0  0  0  0  0  0  0
   -2.1750   14.9280   -2.4940 C   0  0  0  0  0  0  0  0  0  0  0  0
    0.2410    9.6800   -8.8460 C   0  0  0  0  0  0  0  0  0  0  0  0
   -2.1460   15.3550   -3.6360 O   0  0  0  0  0  0  0  0  0  0  0  0
    1.6980    9.3050   -8.8230 C   0  0  0  0  0  0  0  0  0  0  0  0
   -0.1360   10.2030  -10.2400 C   0  0  0  0  0  0  0  0  0  0  0  0
   -3.4380   14.8640   -1.7040 C   0  0  0  0  0  0  0  0  0  0  0  0
    2.0440    8.1730   -9.8000 C   0  0  0  0  0  0  0  0  0  0  0  0
    0.6960    9.5990  -11.3840 C   0  0  0  0  0  0  0  0  0  0  0  0
   -3.5330   14.9890   -0.3140 C   0  0  0  0  0  0  0  0  0  0  0  0
   -4.6170   14.6570   -2.4030 C   0  0  0  0  0  0  0  0  0  0  0  0
    1.2060    8.1980  -11.0740 C   0  0  0  0  0  0  0  0  0  0  0  0
   -4.7930   14.8940    0.3050 C   0  0  0  0  0  0  0  0  0  0  0  0
   -5.8430   14.5610   -1.8350 N   0  0  0  0  0  0  0  0  0  0  0  0
   -5.9290   14.6730   -0.5040 C   0  0  0  0  0  0  0  0  0  0  0  0
   -4.9470   15.0070    1.6930 C   0  0  0  0  0  0  0  0  0  0  0  0
   -7.1750   14.5680    0.0980 C   0  0  0  0  0  0  0  0  0  0  0  0
   -6.2140   14.8980    2.2720 C   0  0  0  0  0  0  0  0  0  0  0  0
   -7.3300   14.6760    1.4790 C   0  0  0  0  0  0  0  0  0  0  0  0
  1  2  1  0
  2  3  2  3
  2  4  1  0
  4  5  1  0
  3  6  1  0
  5  7  1  0
  6  8  1  0
  7  9  2  0
  7 10  1  0
  8 11  1  0
 11 12  1  0
 10 13  1  0
 12 14  2  0
 13 15  1  0
 13 16  1  0
 12 17  1  0
 15 18  1  0
 16 19  1  0
 17 20  2  0
 17 21  1  0
 18 22  1  0
 19 22  1  0
 20 23  1  0
 21 24  2  0
 23 25  2  0
 24 25  1  0
 23 26  1  0
 25 27  1  0
 26 28  2  0
 27 29  2  0
 28 29  1  0
M  END
