mac-x0139-mac-x0319
     RDKit          3D

 23 25  0  0  0  0  0  0  0  0999 V2000
   -1.8220   15.6970   -2.9060 C   0  0  0  0  0  0  0  0  0  0  0  0
   -0.8870   15.8070   -1.7690 N   0  0  0  0  0  0  0  0  0  0  0  0
    0.3400   15.0810   -2.0000 C   0  0  0  0  0  0  0  0  0  0  0  0
   -1.2980   15.4380   -0.5400 C   0  0  0  0  0  0  0  0  0  0  0  0
   -2.5700   15.4040   -0.1860 C   0  0  0  0  0  0  0  0  0  0  0  0
   -0.2600   15.0720    0.2980 N   0  0  0  0  0  0  0  0  0  0  0  0
    0.3380   14.7270   -3.3730 C   0  0  0  0  0  0  0  0  0  0  0  0
   -2.8510   14.9740    1.1800 C   0  0  0  0  0  0  0  0  0  0  0  0
   -0.5450   14.6720    1.4650 C   0  0  0  0  0  0  0  0  0  0  0  0
   -3.8500   15.6710   -0.7400 C   0  0  0  0  0  0  0  0  0  0  0  0
   -0.1230   13.4710   -3.7280 C   0  0  0  0  0  0  0  0  0  0  0  0
    0.7750   15.6520   -4.2830 C   0  0  0  0  0  0  0  0  0  0  0  0
   -1.8040   14.6080    1.9540 N   0  0  0  0  0  0  0  0  0  0  0  0
   -4.1200   15.0250    1.4380 N   0  0  0  0  0  0  0  0  0  0  0  0
   -4.6990   15.4380    0.2560 C   0  0  0  0  0  0  0  0  0  0  0  0
    1.2310   16.9030   -3.9350 O   0  0  0  0  0  0  0  0  0  0  0  0
    0.7450   15.3040   -5.5590 C   0  0  0  0  0  0  0  0  0  0  0  0
   -0.1480   13.1260   -5.0190 C   0  0  0  0  0  0  0  0  0  0  0  0
   -0.5940   12.4540   -2.7520 C   0  0  0  0  0  0  0  0  0  0  0  0
    0.2830   14.0280   -5.9140 C   0  0  0  0  0  0  0  0  0  0  0  0
    0.6260   11.7420   -2.3110 C   0  0  0  0  0  0  0  0  0  0  0  0
    1.6760   12.2490   -1.9720 O   0  0  0  0  0  0  0  0  0  0  0  0
    0.4710   10.4010   -2.3420 O   0  0  0  0  0  0  0  0  0  0  0  0
  1  2  1  0
  2  3  1  0
  2  4  1  0
  4  5  2  0
  4  6  1  0
  3  7  1  0
  5  8  1  0
  6  9  2  0
  5 10  1  0
  7 11  2  0
  7 12  1  0
  8 13  1  0
  9 13  1  0
  8 14  2  0
 10 15  2  0
 14 15  1  0
 12 16  1  0
 12 17  2  0
 11 18  1  0
 11 19  1  0
 17 20  1  0
 18 20  2  0
 19 21  1  0
 21 22  2  0
 21 23  1  0
M  END
