mac-x0453-mac-x0255
     RDKit          3D

 23 25  0  0  0  0  0  0  0  0999 V2000
   -6.8770   14.0860    2.3280 N   0  0  0  0  0  0  0  0  0  0  0  0
   -6.0410   13.9280    1.1350 C   0  0  0  0  0  0  0  0  0  0  0  0
   -4.8870   14.9430    1.0810 C   0  0  0  0  0  0  0  0  0  0  0  0
   -4.0160   14.8250   -0.0960 C   0  0  0  0  0  0  0  0  0  0  0  0
   -2.7060   14.4270   -0.1480 C   0  0  0  0  0  0  0  0  0  0  0  0
   -4.4870   15.1310   -1.3480 N   0  0  0  0  0  0  0  0  0  0  0  0
   -2.3690   14.4930   -1.4630 N   0  0  0  0  0  0  0  0  0  0  0  0
   -3.4720   14.9230   -2.1520 C   0  0  0  0  0  0  0  0  0  0  0  0
   -1.0750   14.1650   -2.0340 C   0  0  0  0  0  0  0  0  0  0  0  0
    0.0220   13.7760   -1.0400 C   0  0  0  0  0  0  0  0  0  0  0  0
    1.0860   13.0560   -1.6990 O   0  0  0  0  0  0  0  0  0  0  0  0
    0.7910   12.2340   -2.7480 C   0  0  0  0  0  0  0  0  0  0  0  0
    0.2160   11.1570   -2.6320 O   0  0  0  0  0  0  0  0  0  0  0  0
    1.2650   12.7860   -4.0810 C   0  0  0  0  0  0  0  0  0  0  0  0
    0.6050   14.0810   -4.4540 C   0  0  0  0  0  0  0  0  0  0  0  0
    1.1800   15.3220   -4.5950 C   0  0  0  0  0  0  0  0  0  0  0  0
   -1.0730   14.1370   -4.7670 S   0  0  0  0  0  0  0  0  0  0  0  0
    0.2430   16.3400   -4.9680 C   0  0  0  0  0  0  0  0  0  0  0  0
   -1.0480   15.8210   -5.0940 C   0  0  0  0  0  0  0  0  0  0  0  0
    0.4310   17.7150   -5.2150 C   0  0  0  0  0  0  0  0  0  0  0  0
   -2.1440   16.6310   -5.4530 C   0  0  0  0  0  0  0  0  0  0  0  0
   -0.6510   18.5160   -5.5770 C   0  0  0  0  0  0  0  0  0  0  0  0
   -1.9190   17.9840   -5.6940 C   0  0  0  0  0  0  0  0  0  0  0  0
  1  2  1  0
  2  3  1  0
  3  4  1  0
  4  5  2  0
  4  6  1  0
  5  7  1  0
  6  8  2  0
  7  8  1  0
  7  9  1  0
  9 10  1  0
 10 11  1  0
 11 12  1  0
 12 13  2  0
 12 14  1  0
 14 15  1  0
 15 16  2  0
 15 17  1  0
 16 18  1  0
 17 19  1  0
 18 19  2  0
 18 20  1  0
 19 21  1  0
 20 22  2  0
 21 23  2  0
 22 23  1  0
M  END
