mac-x1493-mac-x0303
     RDKit          3D

 17 18  0  0  0  0  0  0  0  0999 V2000
   -1.1590   14.6830   -1.6700 O   0  0  0  0  0  0  0  0  0  0  0  0
   -2.2120   14.8500   -2.4870 C   0  0  0  0  0  0  0  0  0  0  0  0
   -2.0710   15.0340   -3.6800 O   0  0  0  0  0  0  0  0  0  0  0  0
   -3.5000   14.7860   -1.7820 C   0  0  0  0  0  0  0  0  0  0  0  0
   -3.5410   14.9460   -0.4010 C   0  0  0  0  0  0  0  0  0  0  0  0
   -4.6910   14.5660   -2.4490 C   0  0  0  0  0  0  0  0  0  0  0  0
   -4.7660   14.8710    0.2610 C   0  0  0  0  0  0  0  0  0  0  0  0
   -5.8950   14.4900   -1.8390 N   0  0  0  0  0  0  0  0  0  0  0  0
   -5.9280   14.6350   -0.5110 C   0  0  0  0  0  0  0  0  0  0  0  0
   -4.8530   15.0200    1.6460 C   0  0  0  0  0  0  0  0  0  0  0  0
   -7.1470   14.5470    0.1300 C   0  0  0  0  0  0  0  0  0  0  0  0
   -6.0870   14.9290    2.2710 C   0  0  0  0  0  0  0  0  0  0  0  0
   -7.2210   14.6900    1.5110 C   0  0  0  0  0  0  0  0  0  0  0  0
   -8.7780   14.5740    2.3050 S   0  0  0  0  0  0  0  0  0  0  0  0
   -8.6960   13.0040    2.9110 N   0  0  0  0  0  0  0  0  0  0  0  0
   -8.7600   15.5050    3.4000 O   0  0  0  0  0  0  0  0  0  0  0  0
   -9.8200   14.5620    1.3090 O   0  0  0  0  0  0  0  0  0  0  0  0
  1  2  1  0
  2  3  2  0
  2  4  1  0
  4  5  2  0
  4  6  1  0
  5  7  1  0
  6  8  2  0
  7  9  2  0
  8  9  1  0
  7 10  1  0
  9 11  1  0
 10 12  2  0
 11 13  2  0
 12 13  1  0
 13 14  1  0
 14 15  1  0
 14 16  2  0
 14 17  2  0
M  END
