mac-x0302-diamond-x0864_0_A
     RDKit          3D

 24 25  0  0  0  0  0  0  0  0999 V2000
    2.0530   14.0610   -3.2830 O   0  0  0  0  0  0  0  0  0  0  0  0
    0.4540   13.4890   -3.3090 S   0  0  0  0  0  0  0  0  0  0  0  0
    0.5400   13.4140   -1.9140 O   0  0  0  0  0  0  0  0  0  0  0  0
   -0.7780   14.6030   -3.4190 C   0  0  0  0  0  0  0  0  0  0  0  0
    0.1710   11.9000   -3.6280 C   0  0  0  0  0  0  0  0  0  0  0  0
    0.7880   13.4770   -4.8670 O   0  0  0  0  0  0  0  0  0  0  0  0
   -1.7240   14.7220   -2.3340 N   0  0  0  0  0  0  0  0  0  0  0  0
   -0.3970   11.5050   -4.9120 N   0  0  0  0  0  0  0  0  0  0  0  0
   -3.0430   15.1390   -2.3870 C   0  0  0  0  0  0  0  0  0  0  0  0
   -1.6380   11.0290   -4.8550 C   0  0  0  0  0  0  0  0  0  0  0  0
    0.2880   11.3130   -6.0630 C   0  0  0  0  0  0  0  0  0  0  0  0
   -3.5300   15.5500   -3.4620 O   0  0  0  0  0  0  0  0  0  0  0  0
    1.2440   12.0360   -6.3770 O   0  0  0  0  0  0  0  0  0  0  0  0
   -3.8800   15.1090   -1.2050 C   0  0  0  0  0  0  0  0  0  0  0  0
   -2.1280   10.1070   -5.7550 C   0  0  0  0  0  0  0  0  0  0  0  0
   -0.0800   10.2700   -6.9250 C   0  0  0  0  0  0  0  0  0  0  0  0
   -5.2390   15.0610   -1.3380 C   0  0  0  0  0  0  0  0  0  0  0  0
   -3.3370   15.1240    0.0560 C   0  0  0  0  0  0  0  0  0  0  0  0
   -1.2970    9.6740   -6.7470 C   0  0  0  0  0  0  0  0  0  0  0  0
   -1.8970    8.2270   -7.8580 Br  0  0  0  0  0  0  0  0  0  0  0  0
   -6.0530   15.0200   -0.2430 C   0  0  0  0  0  0  0  0  0  0  0  0
   -4.1280   15.0870    1.1810 C   0  0  0  0  0  0  0  0  0  0  0  0
   -7.4600   14.9680   -0.3920 O   0  0  0  0  0  0  0  0  0  0  0  0
   -5.4810   15.0310    1.0070 C   0  0  0  0  0  0  0  0  0  0  0  0
  1  2  1  0
  2  3  2  0
  2  4  1  0
  2  5  1  0
  2  6  1  0
  4  7  1  0
  5  8  1  0
  7  9  1  0
  8 10  1  0
  8 11  1  0
  9 12  2  0
 11 13  2  0
  9 14  1  0
 10 15  2  0
 11 16  1  0
 14 17  2  0
 14 18  1  0
 15 19  1  0
 16 19  2  0
 19 20  1  0
 17 21  1  0
 18 22  2  0
 21 23  1  0
 21 24  2  0
 22 24  1  0
M  END
