mac-x0302-mac-x0255
     RDKit          3D

 24 26  0  0  0  0  0  0  0  0999 V2000
    0.9330   13.3660   -3.8350 O   0  0  0  0  0  0  0  0  0  0  0  0
    0.4560   13.1900   -2.5170 C   0  0  0  0  0  0  0  0  0  0  0  0
    1.4810   13.1690   -1.5680 O   0  0  0  0  0  0  0  0  0  0  0  0
    0.4750   14.4840   -4.3290 C   0  0  0  0  0  0  0  0  0  0  0  0
   -0.5800   14.3370   -2.1600 C   0  0  0  0  0  0  0  0  0  0  0  0
   -0.1430   11.8980   -2.4170 O   0  0  0  0  0  0  0  0  0  0  0  0
    1.0670   15.6800   -4.6010 C   0  0  0  0  0  0  0  0  0  0  0  0
   -1.1920   14.5030   -4.6960 S   0  0  0  0  0  0  0  0  0  0  0  0
   -1.9940   14.0560   -2.4470 N   0  0  0  0  0  0  0  0  0  0  0  0
    0.1550   16.6540   -5.0970 C   0  0  0  0  0  0  0  0  0  0  0  0
   -1.1370   16.1330   -5.1900 C   0  0  0  0  0  0  0  0  0  0  0  0
   -3.0590   14.9330   -2.4210 C   0  0  0  0  0  0  0  0  0  0  0  0
    0.3670   17.9880   -5.4780 C   0  0  0  0  0  0  0  0  0  0  0  0
   -2.2180   16.8990   -5.6430 C   0  0  0  0  0  0  0  0  0  0  0  0
   -3.3250   15.6400   -3.3850 O   0  0  0  0  0  0  0  0  0  0  0  0
   -3.8770   14.9790   -1.2010 C   0  0  0  0  0  0  0  0  0  0  0  0
   -0.7070   18.7540   -5.9330 C   0  0  0  0  0  0  0  0  0  0  0  0
   -1.9800   18.2170   -6.0140 C   0  0  0  0  0  0  0  0  0  0  0  0
   -5.2680   14.9270   -1.3080 C   0  0  0  0  0  0  0  0  0  0  0  0
   -3.2550   15.0640    0.0490 C   0  0  0  0  0  0  0  0  0  0  0  0
   -6.0230   14.9530   -0.1440 C   0  0  0  0  0  0  0  0  0  0  0  0
   -4.0260   15.0920    1.2010 C   0  0  0  0  0  0  0  0  0  0  0  0
   -7.3810   14.8940   -0.2620 O   0  0  0  0  0  0  0  0  0  0  0  0
   -5.4140   15.0330    1.1080 C   0  0  0  0  0  0  0  0  0  0  0  0
  2  1  1  0
  2  3  1  0
  1  4  1  0
  2  5  1  0
  2  6  1  0
  4  7  2  0
  4  8  1  0
  5  9  1  0
  7 10  1  0
  8 11  1  0
 10 11  2  0
  9 12  1  0
 10 13  1  0
 11 14  1  0
 12 15  2  0
 12 16  1  0
 13 17  2  0
 14 18  2  0
 17 18  1  0
 16 19  2  0
 16 20  1  0
 19 21  1  0
 20 22  2  0
 21 23  1  0
 21 24  2  0
 22 24  1  0
M  END
