mac-x0212-diamond-x0849_0_A
     RDKit          3D

 19 20  0  0  0  0  0  0  0  0999 V2000
   -6.7990   12.6820    1.4540 C   0  0  0  0  0  0  0  0  0  0  0  0
   -7.1410   14.3910    1.0830 S   0  0  0  0  0  0  0  0  0  0  0  0
   -7.7410   15.0020    2.2450 O   0  0  0  0  0  0  0  0  0  0  0  0
   -7.7580   14.4780   -0.2200 O   0  0  0  0  0  0  0  0  0  0  0  0
   -5.5790   14.9570    0.9540 N   0  0  0  0  0  0  0  0  0  0  0  0
   -4.8590   14.4080   -0.1870 C   0  0  2  0  0  0  0  0  0  0  0  0
   -3.4810   13.8120    0.2230 C   0  0  0  0  0  0  0  0  0  0  0  0
   -4.8260   15.4830   -1.2520 C   0  0  0  0  0  0  0  0  0  0  0  0
   -2.3080   14.3790   -0.6210 C   0  0  2  0  0  0  0  0  0  0  0  0
   -3.8610   15.4990   -2.1680 C   0  0  0  0  0  0  0  0  0  0  0  0
   -2.8200   14.4510   -2.0830 C   0  0  1  0  0  0  0  0  0  0  0  0
   -0.9940   13.5320   -0.6260 C   0  0  0  0  0  0  0  0  0  0  0  0
   -2.0150   15.7410    0.0470 C   0  0  0  0  0  0  0  0  0  0  0  0
   -1.7420   14.5960   -3.1690 C   0  0  0  0  0  0  0  0  0  0  0  0
   -1.1370   15.4770    1.1590 N   0  0  0  0  0  0  0  0  0  0  0  0
    0.2440   14.2010   -0.1210 C   0  0  0  0  0  0  0  0  0  0  0  0
   -0.5460   14.4000   -3.0030 O   0  0  0  0  0  0  0  0  0  0  0  0
   -2.2350   14.9530   -4.3760 O   0  0  0  0  0  0  0  0  0  0  0  0
    0.1090   15.1480    0.7750 C   0  0  0  0  0  0  0  0  0  0  0  0
  1  2  1  0
  2  3  2  0
  2  4  2  0
  2  5  1  0
  6  5  1  1
  6  7  1  0
  6  8  1  0
  9  7  1  1
  8 10  2  0
  9 11  1  0
 10 11  1  0
  9 12  1  0
  9 13  1  0
 11 14  1  6
 13 15  1  0
 12 16  1  0
 14 17  2  0
 14 18  1  0
 15 19  1  0
 16 19  2  0
M  END
