mac-x0358-diamond-x0290_0_A
     RDKit          3D

 26 27  0  0  0  0  0  0  0  0999 V2000
    2.4120   12.3770   -2.7450 O   0  0  0  0  0  0  0  0  0  0  0  0
    1.0640   12.4310   -3.1030 C   0  0  0  0  0  0  0  0  0  0  0  0
    0.5360   11.1170   -2.9250 O   0  0  0  0  0  0  0  0  0  0  0  0
    0.8410   12.8460   -4.5830 C   0  0  0  0  0  0  0  0  0  0  0  0
    0.3710   13.3350   -2.1070 C   0  0  0  0  0  0  0  0  0  0  0  0
    0.4080   14.8000   -2.5180 C   0  0  0  0  0  0  0  0  0  0  0  0
   -0.5160   13.4020   -4.9300 C   0  0  0  0  0  0  0  0  0  0  0  0
   -0.9520   15.4180   -2.2740 C   0  0  0  0  0  0  0  0  0  0  0  0
   -1.5880   12.5570   -5.2130 C   0  0  0  0  0  0  0  0  0  0  0  0
   -0.7340   14.7930   -4.9740 C   0  0  0  0  0  0  0  0  0  0  0  0
   -1.3760   11.2030   -5.1700 O   0  0  0  0  0  0  0  0  0  0  0  0
   -2.8470   13.0650   -5.5330 C   0  0  0  0  0  0  0  0  0  0  0  0
   -1.9930   15.3080   -5.2900 C   0  0  0  0  0  0  0  0  0  0  0  0
   -1.3190   15.1220   -0.8580 C   0  0  0  0  0  0  0  0  0  0  0  0
   -3.0490   14.4460   -5.5710 C   0  0  0  0  0  0  0  0  0  0  0  0
   -0.3030   14.8470    0.0520 C   0  0  0  0  0  0  0  0  0  0  0  0
   -2.6420   15.1050   -0.4270 C   0  0  0  0  0  0  0  0  0  0  0  0
   -0.6490   14.5690    1.3510 C   0  0  0  0  0  0  0  0  0  0  0  0
   -2.9110   14.8170    0.8940 C   0  0  0  0  0  0  0  0  0  0  0  0
   -4.1940   14.7660    1.4220 N   0  0  0  0  0  0  0  0  0  0  0  0
   -1.9250   14.5510    1.7920 N   0  0  0  0  0  0  0  0  0  0  0  0
   -5.4040   14.4640    0.8780 C   0  0  0  0  0  0  0  0  0  0  0  0
   -5.4810   14.4670   -0.3570 O   0  0  0  0  0  0  0  0  0  0  0  0
   -6.6040   14.1240    1.7750 C   0  0  0  0  0  0  0  0  0  0  0  0
   -7.8330   13.7890    1.0330 N   0  0  0  0  0  0  0  0  0  0  0  0
   -8.6140   14.9660    0.6710 C   0  0  0  0  0  0  0  0  0  0  0  0
  2  1  1  0
  2  3  1  0
  2  4  1  0
  2  5  1  0
  5  6  1  0
  4  7  1  0
  6  8  1  0
  7  9  2  0
  7 10  1  0
  9 11  1  0
  9 12  1  0
 10 13  2  0
  8 14  1  0
 12 15  2  0
 13 15  1  0
 14 16  2  0
 14 17  1  0
 16 18  1  0
 17 19  2  0
 19 20  1  0
 18 21  2  0
 19 21  1  0
 20 22  1  0
 22 23  2  0
 22 24  1  0
 24 25  1  0
 25 26  1  0
M  END
