mac-x0333-mac-x0142
     RDKit          3D

 23 27  0  0  0  0  0  0  0  0999 V2000
   -2.9130   16.1210   -2.7730 O   0  0  0  0  0  0  0  0  0  0  0  0
   -3.6510   15.5750   -1.6820 C   0  0  2  0  0  0  0  0  0  0  0  0
   -2.7060   14.8600   -0.6590 C   0  0  2  0  0  0  0  0  0  0  0  0
   -4.7980   14.7520   -2.2860 C   0  0  0  0  0  0  0  0  0  0  0  0
   -5.7140   14.1440   -1.2440 C   0  0  1  0  0  0  0  0  0  0  0  0
   -3.5600   13.8050    0.1590 C   0  0  0  0  0  0  0  0  0  0  0  0
   -2.1750   15.8110    0.3920 C   0  0  0  0  0  0  0  0  0  0  0  0
   -1.3670   14.3110   -1.3300 C   0  0  1  0  0  0  0  0  0  0  0  0
   -5.0880   13.9610    0.1390 C   0  0  1  0  0  0  0  0  0  0  0  0
   -6.9600   14.8080   -0.9790 O   0  0  0  0  0  0  0  0  0  0  0  0
   -1.1670   14.5960   -2.7890 N   0  0  0  0  0  0  0  0  0  0  0  0
   -0.1430   14.6850   -0.6150 N   0  0  0  0  0  0  0  0  0  0  0  0
   -1.3610   15.1210    1.3690 N   0  0  0  0  0  0  0  0  0  0  0  0
   -5.7350   14.9550    0.9190 O   0  0  0  0  0  0  0  0  0  0  0  0
   -7.0580   14.6510    0.4440 C   0  0  0  0  0  0  0  0  0  0  0  0
   -1.9990   13.7540   -3.6700 C   0  0  0  0  0  0  0  0  0  0  0  0
    0.2110   14.8550   -3.3170 C   0  0  0  0  0  0  0  0  0  0  0  0
   -0.1140   14.6690    0.8310 C   0  0  0  0  0  0  0  0  0  0  0  0
    0.7700   13.6230   -4.0260 C   0  0  0  0  0  0  0  0  0  0  0  0
   -1.5120   13.6080   -5.1000 C   0  0  0  0  0  0  0  0  0  0  0  0
    2.2720   13.4540   -4.1570 C   0  0  0  0  0  0  0  0  0  0  0  0
    1.5100   12.5860   -3.1860 C   0  0  0  0  0  0  0  0  0  0  0  0
   -0.0570   13.1590   -5.1990 C   0  0  0  0  0  0  0  0  0  0  0  0
  2  1  1  6
  2  3  1  0
  2  4  1  0
  5  4  1  6
  3  6  1  1
  3  7  1  0
  3  8  1  0
  5  9  1  0
  9  6  1  6
  5 10  1  0
  8 11  1  6
  8 12  1  0
  7 13  1  0
  9 14  1  0
 10 15  1  0
 14 15  1  0
 11 16  1  0
 11 17  1  0
 12 18  1  0
 13 18  1  0
 19 17  1  0
 16 20  1  0
 19 21  1  0
 19 22  1  0
 21 22  1  0
 19 23  1  0
 20 23  1  0
M  END
