mac-x0319-diamond-x0895_1_A
     RDKit          3D

 21 22  0  0  0  0  0  0  0  0999 V2000
    0.7520   11.1050   -2.4290 O   0  0  0  0  0  0  0  0  0  0  0  0
    0.9120   12.3410   -2.9640 C   0  0  0  0  0  0  0  0  0  0  0  0
    0.9090   13.4250   -2.2880 N   0  0  0  0  0  0  0  0  0  0  0  0
    1.0610   12.4700   -4.4370 C   0  0  0  0  0  0  0  0  0  0  0  0
    0.7580   13.6360   -0.8840 C   0  0  0  0  0  0  0  0  0  0  0  0
    0.4320   13.8290   -4.5850 C   0  0  0  0  0  0  0  0  0  0  0  0
   -0.4630   14.4790   -0.6090 C   0  0  0  0  0  0  0  0  0  0  0  0
    1.1870   15.0000   -4.3830 C   0  0  0  0  0  0  0  0  0  0  0  0
   -0.9270   13.9400   -4.8960 C   0  0  0  0  0  0  0  0  0  0  0  0
   -0.4600   14.9840    0.8260 C   0  0  0  0  0  0  0  0  0  0  0  0
    0.5630   16.2430   -4.4920 C   0  0  0  0  0  0  0  0  0  0  0  0
   -1.5310   15.1900   -5.0030 C   0  0  0  0  0  0  0  0  0  0  0  0
    1.2890   17.3730   -4.2850 O   0  0  0  0  0  0  0  0  0  0  0  0
   -1.7360   14.7950    1.5100 N   0  0  0  0  0  0  0  0  0  0  0  0
   -0.7860   16.3430   -4.8010 C   0  0  0  0  0  0  0  0  0  0  0  0
   -2.8590   14.7000    0.8790 C   0  0  0  0  0  0  0  0  0  0  0  0
   -3.0540   14.7160   -0.6270 C   0  0  0  0  0  0  0  0  0  0  0  0
   -4.0800   14.5620    1.4330 N   0  0  0  0  0  0  0  0  0  0  0  0
   -4.4260   15.1330   -0.6670 N   0  0  0  0  0  0  0  0  0  0  0  0
   -5.0390   14.8200    0.5180 C   0  0  0  0  0  0  0  0  0  0  0  0
   -6.2440   14.7820    0.7000 O   0  0  0  0  0  0  0  0  0  0  0  0
  1  2  1  0
  2  3  2  3
  2  4  1  0
  3  5  1  0
  4  6  1  0
  5  7  1  0
  6  8  2  0
  6  9  1  0
  7 10  1  0
  8 11  1  0
  9 12  2  0
 11 13  1  0
 10 14  1  0
 11 15  2  0
 12 15  1  0
 14 16  2  3
 16 17  1  0
 16 18  1  0
 17 19  1  0
 18 20  1  0
 19 20  1  0
 20 21  2  0
M  END
