mac-x0148-diamond-x0631_0_A
     RDKit          3D

 37 42  0  0  0  0  0  0  0  0999 V2000
   -2.9860    8.1480   -7.0870 C   0  0  0  0  0  0  0  0  0  0  0  0
   -1.5050    8.1000   -6.7760 C   0  0  0  0  0  0  0  0  0  0  0  0
   -0.7460    9.3310   -7.2930 C   0  0  1  0  0  0  0  0  0  0  0  0
   -0.5910   10.4470   -6.2630 C   0  0  0  0  0  0  0  0  0  0  0  0
    0.5080    9.1870   -7.9910 N   0  0  0  0  0  0  0  0  0  0  0  0
    0.4540   11.4870   -6.7020 C   0  0  0  0  0  0  0  0  0  0  0  0
    1.2270   10.4000   -7.8280 N   0  0  0  0  0  0  0  0  0  0  0  0
    0.2970    9.0290   -9.3980 N   0  0  0  0  0  0  0  0  0  0  0  0
    1.1900   11.0320   -9.1110 N   0  0  0  0  0  0  0  0  0  0  0  0
    1.3630    9.8440   -9.8980 C   0  0  2  0  0  0  0  0  0  0  0  0
    0.7050   12.4990   -5.6280 C   0  0  0  0  0  0  0  0  0  0  0  0
    1.2540   10.2000  -11.2690 N   0  0  0  0  0  0  0  0  0  0  0  0
   -0.4480   12.5780   -4.6450 C   0  0  2  0  0  0  0  0  0  0  0  0
    2.1640    9.4020  -12.0750 C   0  0  2  0  0  0  0  0  0  0  0  0
   -1.2180   13.8610   -4.7900 C   0  0  1  0  0  0  0  0  0  0  0  0
   -0.0480   12.3500   -3.1950 C   0  0  0  0  0  0  0  0  0  0  0  0
    2.8260    8.4800  -11.2240 O   0  0  0  0  0  0  0  0  0  0  0  0
    3.1900   10.1190  -12.9780 C   0  0  1  0  0  0  0  0  0  0  0  0
   -2.4910   13.8140   -5.6060 C   0  0  0  0  0  0  0  0  0  0  0  0
   -1.8050   14.3400   -3.4720 C   0  0  2  0  0  0  0  0  0  0  0  0
    0.4160   13.6780   -2.6330 C   0  0  0  0  0  0  0  0  0  0  0  0
    3.5100    9.4220  -14.1730 O   0  0  0  0  0  0  0  0  0  0  0  0
    2.7620   11.4990  -13.4540 C   0  0  0  0  0  0  0  0  0  0  0  0
   -3.1490   15.0510   -5.2870 O   0  0  0  0  0  0  0  0  0  0  0  0
   -2.5810   15.5190   -4.0360 C   0  0  0  0  0  0  0  0  0  0  0  0
   -0.7570   14.5470   -2.4320 N   0  0  0  0  0  0  0  0  0  0  0  0
    3.6410   11.7090  -14.6710 C   0  0  0  0  0  0  0  0  0  0  0  0
    4.3190   10.3670  -14.8650 C   0  0  0  0  0  0  0  0  0  0  0  0
   -1.1280   14.6340   -1.1050 C   0  0  0  0  0  0  0  0  0  0  0  0
   -0.1410   14.4750   -0.1560 N   0  0  0  0  0  0  0  0  0  0  0  0
   -2.3610   14.8660   -0.6300 C   0  0  0  0  0  0  0  0  0  0  0  0
   -0.4170   14.4690    1.1830 C   0  0  0  0  0  0  0  0  0  0  0  0
   -2.5650   14.9160    0.8330 C   0  0  0  0  0  0  0  0  0  0  0  0
   -3.6670   15.1190   -1.1510 C   0  0  0  0  0  0  0  0  0  0  0  0
   -1.5650   14.6650    1.7170 N   0  0  0  0  0  0  0  0  0  0  0  0
   -3.7870   15.2150    1.1450 N   0  0  0  0  0  0  0  0  0  0  0  0
   -4.4350   15.3290   -0.0730 C   0  0  0  0  0  0  0  0  0  0  0  0
  1  2  1  0
  3  2  1  1
  3  4  1  0
  3  5  1  0
  4  6  1  0
  5  7  1  0
  5  8  1  0
  7  9  1  0
  8 10  1  0
  9 10  1  0
  6 11  1  0
 10 12  1  6
 13 11  1  6
 12 14  1  0
 13 15  1  0
 13 16  1  0
 14 17  1  1
 14 18  1  0
 15 19  1  6
 15 20  1  0
 16 21  1  0
 18 22  1  0
 18 23  1  6
 19 24  1  0
 20 25  1  6
 24 25  1  0
 20 26  1  0
 21 26  1  0
 23 27  1  0
 22 28  1  0
 27 28  1  0
 26 29  1  0
 29 30  1  0
 29 31  2  0
 30 32  1  0
 31 33  1  0
 31 34  1  0
 32 35  2  0
 33 35  1  0
 33 36  2  0
 34 37  2  0
 36 37  1  0
M  END
