mac-x0565-mac-x0131
     RDKit          3D

 24 27  0  0  0  0  0  0  0  0999 V2000
   -6.0590   14.6340    0.9300 O   0  0  0  0  0  0  0  0  0  0  0  0
   -6.4550   14.6220   -0.3580 C   0  0  0  0  0  0  0  0  0  0  0  0
   -7.6170   14.5060   -0.6960 O   0  0  0  0  0  0  0  0  0  0  0  0
   -5.3490   14.7870   -1.3210 C   0  0  0  0  0  0  0  0  0  0  0  0
   -4.0260   14.8650   -0.8880 C   0  0  0  0  0  0  0  0  0  0  0  0
   -5.6640   14.8700   -2.6800 C   0  0  0  0  0  0  0  0  0  0  0  0
   -3.0200   15.0540   -1.8290 C   0  0  0  0  0  0  0  0  0  0  0  0
   -4.6570   15.0460   -3.6140 C   0  0  0  0  0  0  0  0  0  0  0  0
   -3.3620   15.1520   -3.1790 C   0  0  0  0  0  0  0  0  0  0  0  0
   -1.5140   15.2120   -1.5180 C   0  0  1  0  0  0  0  0  0  0  0  0
   -2.2700   15.3510   -3.9510 N   0  0  0  0  0  0  0  0  0  0  0  0
   -1.6000   14.4960   -2.9720 C   0  0  1  0  0  0  0  0  0  0  0  0
   -0.6060   14.2100   -0.8450 N   0  0  0  0  0  0  0  0  0  0  0  0
   -2.5180   15.6500   -0.4310 C   0  0  0  0  0  0  0  0  0  0  0  0
   -2.5670   14.8570   -5.2760 C   0  0  0  0  0  0  0  0  0  0  0  0
   -0.6390   13.4610   -3.4600 C   0  0  0  0  0  0  0  0  0  0  0  0
   -2.4550   15.3910    0.8910 C   0  0  0  0  0  0  0  0  0  0  0  0
   -0.6060   14.0830    0.4370 C   0  0  0  0  0  0  0  0  0  0  0  0
   -3.4530   15.7660    1.7620 N   0  0  0  0  0  0  0  0  0  0  0  0
    0.7030   13.4420   -3.7210 C   0  0  0  0  0  0  0  0  0  0  0  0
   -1.1860   12.2370   -3.7310 O   0  0  0  0  0  0  0  0  0  0  0  0
   -1.3720   14.7270    1.3280 N   0  0  0  0  0  0  0  0  0  0  0  0
   -0.1890   11.4430   -4.1680 C   0  0  0  0  0  0  0  0  0  0  0  0
    0.9900   12.1510   -4.1790 C   0  0  0  0  0  0  0  0  0  0  0  0
  1  2  1  0
  2  3  2  0
  2  4  1  0
  4  5  2  0
  4  6  1  0
  5  7  1  0
  6  8  2  0
  7  9  2  0
  8  9  1  0
  7 10  1  0
  9 11  1  0
 10 12  1  0
 11 12  1  0
 10 13  1  0
 10 14  1  6
 11 15  1  0
 12 16  1  6
 14 17  2  0
 13 18  2  0
 17 19  1  0
 16 20  2  0
 16 21  1  0
 17 22  1  0
 18 22  1  0
 21 23  1  0
 20 24  1  0
 23 24  2  0
M  END
