mac-x0546-mac-x0345
     RDKit          3D

 25 27  0  0  0  0  0  0  0  0999 V2000
   -4.5460   15.4520   -6.3410 C   0  0  0  0  0  0  0  0  0  0  0  0
   -3.7810   15.4960   -5.1100 N   0  0  0  0  0  0  0  0  0  0  0  0
   -4.2670   14.3460   -4.3480 C   0  0  0  0  0  0  0  0  0  0  0  0
   -2.3960   15.7440   -5.2040 C   0  0  0  0  0  0  0  0  0  0  0  0
   -5.5380   14.6510   -3.7210 N   0  0  0  0  0  0  0  0  0  0  0  0
   -1.5400   14.7110   -5.0710 C   0  0  0  0  0  0  0  0  0  0  0  0
   -1.8030   17.0880   -5.4700 C   0  0  0  0  0  0  0  0  0  0  0  0
   -0.0740   14.8740   -5.2040 C   0  0  1  0  0  0  0  0  0  0  0  0
   -0.4910   17.3820   -5.2710 C   0  0  0  0  0  0  0  0  0  0  0  0
   -5.3600   14.8790   -2.3780 C   0  0  0  0  0  0  0  0  0  0  0  0
    0.3030   16.2550   -4.7570 C   0  0  0  0  0  0  0  0  0  0  0  0
    0.8980   14.1310   -4.3780 C   0  0  0  0  0  0  0  0  0  0  0  0
   -4.1140   15.2880   -1.9610 C   0  0  0  0  0  0  0  0  0  0  0  0
   -6.4000   14.6780   -1.5400 N   0  0  0  0  0  0  0  0  0  0  0  0
    0.9780   12.6470   -4.3350 C   0  0  0  0  0  0  0  0  0  0  0  0
    1.2950   16.3290   -3.9460 N   0  0  0  0  0  0  0  0  0  0  0  0
    1.6540   15.0160   -3.7290 C   0  0  0  0  0  0  0  0  0  0  0  0
   -6.1850   14.8920   -0.2140 C   0  0  0  0  0  0  0  0  0  0  0  0
   -3.9090   15.4970   -0.6400 C   0  0  0  0  0  0  0  0  0  0  0  0
    0.6610   12.1320   -2.9520 C   0  0  0  0  0  0  0  0  0  0  0  0
   -7.3580   14.6530    0.6950 C   0  0  0  0  0  0  0  0  0  0  0  0
   -4.9260   15.3070    0.2280 C   0  0  0  0  0  0  0  0  0  0  0  0
    0.9500   12.6610   -1.8940 O   0  0  0  0  0  0  0  0  0  0  0  0
   -0.0200   10.9650   -2.9490 O   0  0  0  0  0  0  0  0  0  0  0  0
   -4.3730   15.6710    1.9560 Br  0  0  0  0  0  0  0  0  0  0  0  0
  1  2  1  0
  2  3  1  0
  2  4  1  0
  3  5  1  0
  4  6  2  0
  4  7  1  0
  8  6  1  1
  7  9  2  0
  5 10  1  0
  8 11  1  0
  9 11  1  0
  8 12  1  0
 10 13  2  0
 10 14  1  0
 12 15  1  0
 11 16  2  0
 12 17  2  0
 16 17  1  0
 14 18  2  0
 13 19  1  0
 15 20  1  0
 18 21  1  0
 18 22  1  0
 19 22  2  0
 20 23  2  0
 20 24  1  0
 22 25  1  0
M  END
