mac-x0321-mac-x0365
     RDKit          3D

 12 12  0  0  0  0  0  0  0  0999 V2000
   -4.3210   15.4550    1.5980 Cl  0  0  0  0  0  0  0  0  0  0  0  0
   -4.3640   15.2100   -0.0950 C   0  0  0  0  0  0  0  0  0  0  0  0
   -3.1540   15.0110   -0.7510 C   0  0  0  0  0  0  0  0  0  0  0  0
   -5.5580   15.2100   -0.8150 C   0  0  0  0  0  0  0  0  0  0  0  0
   -6.7800   15.3830   -0.2330 O   0  0  0  0  0  0  0  0  0  0  0  0
   -3.1390   14.8180   -2.1340 C   0  0  0  0  0  0  0  0  0  0  0  0
   -5.5210   15.0240   -2.1820 C   0  0  0  0  0  0  0  0  0  0  0  0
   -1.8470   14.6030   -2.8210 C   0  0  0  0  0  0  0  0  0  0  0  0
   -6.6710   15.0270   -2.8600 F   0  0  0  0  0  0  0  0  0  0  0  0
   -4.3290   14.8280   -2.8560 C   0  0  0  0  0  0  0  0  0  0  0  0
   -0.7860   14.5310   -1.9920 O   0  0  0  0  0  0  0  0  0  0  0  0
   -1.7650   14.5000   -4.0310 O   0  0  0  0  0  0  0  0  0  0  0  0
  1  2  1  0
  2  3  2  0
  2  4  1  0
  4  5  1  0
  3  6  1  0
  4  7  2  0
  6  8  1  0
  7  9  1  0
  6 10  2  0
  7 10  1  0
  8 11  1  0
  8 12  2  0
M  END
