mac-x0402-diamond-x0950_1_A
     RDKit          3D

 20 21  0  0  0  0  0  0  0  0999 V2000
   -1.8520   14.8440   -3.5050 Cl  0  0  0  0  0  0  0  0  0  0  0  0
   -3.0670   14.8930   -2.2760 C   0  0  0  0  0  0  0  0  0  0  0  0
   -4.3500   15.1380   -2.7480 C   0  0  0  0  0  0  0  0  0  0  0  0
   -2.7830   14.7000   -0.8980 C   0  0  0  0  0  0  0  0  0  0  0  0
   -1.3850   14.4230   -0.3650 C   0  0  0  0  0  0  0  0  0  0  0  0
   -3.9140   14.7810   -0.0430 C   0  0  0  0  0  0  0  0  0  0  0  0
   -5.4240   15.2030   -1.8780 C   0  0  0  0  0  0  0  0  0  0  0  0
   -0.5700   13.4780   -1.2500 C   0  0  0  0  0  0  0  0  0  0  0  0
   -5.2060   15.0210   -0.5150 C   0  0  0  0  0  0  0  0  0  0  0  0
   -4.0180   14.6200    1.6690 S   0  0  0  0  0  0  0  0  0  0  0  0
    0.8460   13.9590   -1.5520 C   0  0  0  0  0  0  0  0  0  0  0  0
   -5.7150   14.8740    1.6070 C   0  0  0  0  0  0  0  0  0  0  0  0
   -6.2000   15.0610    0.4230 N   0  0  0  0  0  0  0  0  0  0  0  0
   -6.5070   14.8920    2.6910 N   0  0  0  0  0  0  0  0  0  0  0  0
    1.6210   12.8740   -2.0980 O   0  0  0  0  0  0  0  0  0  0  0  0
    1.0080   12.1000   -3.0310 C   0  0  0  0  0  0  0  0  0  0  0  0
    1.3940   12.5280   -4.4560 C   0  0  2  0  0  0  0  0  0  0  0  0
    0.2510   11.1630   -2.7860 O   0  0  0  0  0  0  0  0  0  0  0  0
    1.1160   13.9990   -4.7120 C   0  0  0  0  0  0  0  0  0  0  0  0
    0.6860   11.7570   -5.4290 O   0  0  0  0  0  0  0  0  0  0  0  0
  1  2  1  0
  2  3  2  0
  2  4  1  0
  4  5  1  0
  4  6  2  0
  3  7  1  0
  5  8  1  0
  6  9  1  0
  7  9  2  0
  6 10  1  0
  8 11  1  0
 10 12  1  0
  9 13  1  0
 12 13  2  0
 12 14  1  0
 11 15  1  0
 15 16  1  0
 16 17  1  0
 16 18  2  0
 17 19  1  1
 17 20  1  0
M  END
