mac-x0472-diamond-x0864_0_A
     RDKit          3D

 29 31  0  0  0  0  0  0  0  0999 V2000
   -4.4010   15.4650   -2.5310 O   0  0  0  0  0  0  0  0  0  0  0  0
   -3.3930   14.4490   -2.7040 S   0  0  1  0  0  0  0  0  0  0  0  0
   -2.4820   14.3160   -3.9420 N   0  0  0  0  0  0  0  0  0  0  0  0
   -2.2820   14.7400   -1.5030 N   0  0  0  0  0  0  0  0  0  0  0  0
   -4.1370   12.8640   -2.3710 C   0  0  0  0  0  0  0  0  0  0  0  0
   -1.2130   15.0820   -4.0700 C   0  0  0  0  0  0  0  0  0  0  0  0
   -2.7090   14.8330   -0.2370 C   0  0  0  0  0  0  0  0  0  0  0  0
   -3.4280   11.6970   -2.6650 C   0  0  0  0  0  0  0  0  0  0  0  0
   -5.4220   12.7920   -1.8210 C   0  0  0  0  0  0  0  0  0  0  0  0
   -0.0830   14.2170   -4.6630 C   0  0  0  0  0  0  0  0  0  0  0  0
   -1.9920   14.4260    0.7860 N   0  0  0  0  0  0  0  0  0  0  0  0
   -4.2430   15.4870    0.2260 S   0  0  0  0  0  0  0  0  0  0  0  0
   -4.0070   10.4560   -2.4170 C   0  0  0  0  0  0  0  0  0  0  0  0
   -5.9960   11.5430   -1.5720 C   0  0  0  0  0  0  0  0  0  0  0  0
   -0.2150   12.7720   -4.1730 C   0  0  2  0  0  0  0  0  0  0  0  0
   -3.8130   15.1520    1.8360 C   0  0  0  0  0  0  0  0  0  0  0  0
   -2.6300   14.6070    1.9820 N   0  0  0  0  0  0  0  0  0  0  0  0
   -5.2890   10.3790   -1.8730 C   0  0  0  0  0  0  0  0  0  0  0  0
    0.8050   12.2090   -3.1790 C   0  0  0  0  0  0  0  0  0  0  0  0
   -0.5220   11.7860   -5.2370 N   0  0  0  0  0  0  0  0  0  0  0  0
    0.6080   10.9140   -2.8740 O   0  0  0  0  0  0  0  0  0  0  0  0
    1.7200   12.8220   -2.6540 O   0  0  0  0  0  0  0  0  0  0  0  0
   -1.7050   11.1040   -5.0830 C   0  0  0  0  0  0  0  0  0  0  0  0
    0.3850   11.4710   -6.2630 C   0  0  0  0  0  0  0  0  0  0  0  0
    1.4300   12.0710   -6.4960 O   0  0  0  0  0  0  0  0  0  0  0  0
   -2.0330   10.0760   -5.8520 C   0  0  0  0  0  0  0  0  0  0  0  0
    0.0160   10.3000   -7.1070 C   0  0  0  0  0  0  0  0  0  0  0  0
   -1.1380    9.6490   -6.8910 C   0  0  0  0  0  0  0  0  0  0  0  0
   -1.6710    8.1730   -7.8940 Br  0  0  0  0  0  0  0  0  0  0  0  0
  1  2  2  0
  2  3  2  0
  2  4  1  1
  2  5  1  0
  3  6  1  0
  4  7  1  0
  5  8  2  0
  5  9  1  0
  6 10  1  0
  7 11  2  0
  7 12  1  0
  8 13  1  0
  9 14  2  0
 15 10  1  6
 12 16  1  0
 11 17  1  0
 16 17  2  0
 13 18  2  0
 14 18  1  0
 15 19  1  0
 15 20  1  0
 19 21  1  0
 19 22  2  0
 20 23  1  0
 20 24  1  0
 24 25  2  0
 23 26  2  0
 24 27  1  0
 26 28  1  0
 27 28  2  0
 28 29  1  0
M  END
