mac-x0124-mac-x0411
     RDKit          3D

 25 27  0  0  0  0  0  0  0  0999 V2000
    0.1000   14.5410   -3.1210 C   0  0  0  0  0  0  0  0  0  0  0  0
   -1.1470   14.5680   -2.4070 N   0  0  0  0  0  0  0  0  0  0  0  0
   -2.4150   14.4160   -2.9120 C   0  0  0  0  0  0  0  0  0  0  0  0
   -1.1750   14.7430   -1.0580 C   0  0  0  0  0  0  0  0  0  0  0  0
   -2.6710   14.1280   -4.3940 C   0  0  0  0  0  0  0  0  0  0  0  0
   -3.2860   14.5610   -1.8120 C   0  0  0  0  0  0  0  0  0  0  0  0
   -2.4880   14.7560   -0.6290 C   0  0  0  0  0  0  0  0  0  0  0  0
   -0.0720   14.8700   -0.3200 N   0  0  0  0  0  0  0  0  0  0  0  0
   -1.5140   13.2260   -4.9930 C   0  0  0  0  0  0  0  0  0  0  0  0
   -2.6750   14.9410    0.7670 C   0  0  0  0  0  0  0  0  0  0  0  0
   -0.3630   15.0160    0.9680 C   0  0  0  0  0  0  0  0  0  0  0  0
   -3.9140   15.0050    1.3890 N   0  0  0  0  0  0  0  0  0  0  0  0
   -1.5800   15.0620    1.5530 N   0  0  0  0  0  0  0  0  0  0  0  0
   -1.7130   11.7980   -5.5910 C   0  0  0  0  0  0  0  0  0  0  0  0
   -0.6320   11.0680   -6.1980 C   0  0  0  0  0  0  0  0  0  0  0  0
   -2.9670   11.1440   -5.5680 C   0  0  0  0  0  0  0  0  0  0  0  0
    0.6350   11.6130   -6.2700 O   0  0  0  0  0  0  0  0  0  0  0  0
   -3.1440    9.8590   -6.1050 C   0  0  0  0  0  0  0  0  0  0  0  0
   -0.8330    9.7770   -6.7470 C   0  0  0  0  0  0  0  0  0  0  0  0
    0.4200    8.8630   -7.5180 Cl  0  0  0  0  0  0  0  0  0  0  0  0
    0.9720   12.5390   -5.2290 C   0  0  0  0  0  0  0  0  0  0  0  0
   -2.0840    9.1820   -6.6910 C   0  0  0  0  0  0  0  0  0  0  0  0
    1.0310   11.8730   -3.8610 C   0  0  0  0  0  0  0  0  0  0  0  0
    1.8870   12.4580   -3.0000 O   0  0  0  0  0  0  0  0  0  0  0  0
    0.4130   10.8840   -3.4980 O   0  0  0  0  0  0  0  0  0  0  0  0
  1  2  1  0
  2  3  1  0
  2  4  1  0
  3  5  1  0
  3  6  2  0
  4  7  2  0
  6  7  1  0
  4  8  1  0
  5  9  1  0
  7 10  1  0
  8 11  2  0
 10 12  1  0
 10 13  2  0
 11 13  1  0
  9 14  1  0
 14 15  2  0
 14 16  1  0
 15 17  1  0
 16 18  2  0
 15 19  1  0
 19 20  1  0
 17 21  1  0
 18 22  1  0
 19 22  2  0
 21 23  1  0
 23 24  1  0
 23 25  2  0
M  END
