mac-x0338-mac-x0584
     RDKit          3D

 23 26  0  0  0  0  0  0  0  0999 V2000
   -3.7480   14.7470    2.0030 N   0  0  0  0  0  0  0  0  0  0  0  0
   -4.7770   14.7400    1.1190 C   0  0  0  0  0  0  0  0  0  0  0  0
   -5.9370   14.6840    1.5240 O   0  0  0  0  0  0  0  0  0  0  0  0
   -4.3750   14.8470   -0.3400 C   0  0  1  0  0  0  0  0  0  0  0  0
   -2.8880   15.2450   -0.7500 C   0  0  1  0  0  0  0  0  0  0  0  0
   -5.0850   13.8740   -1.2600 C   0  0  0  0  0  0  0  0  0  0  0  0
   -3.1330   15.8640   -2.0810 C   0  0  0  0  0  0  0  0  0  0  0  0
   -5.0210   14.4220   -2.5920 N   0  0  0  0  0  0  0  0  0  0  0  0
   -2.1580   15.9850    0.3510 C   0  0  0  0  0  0  0  0  0  0  0  0
   -1.6180   14.4450   -1.2480 C   0  0  2  0  0  0  0  0  0  0  0  0
   -4.1210   15.4210   -2.8840 C   0  0  0  0  0  0  0  0  0  0  0  0
   -1.4960   14.1290   -2.6960 N   0  0  0  0  0  0  0  0  0  0  0  0
   -0.8830   13.5940   -0.3500 N   0  0  0  0  0  0  0  0  0  0  0  0
   -1.4690   15.1350    1.3210 N   0  0  0  0  0  0  0  0  0  0  0  0
   -0.2200   14.4290   -3.3850 C   0  0  1  0  0  0  0  0  0  0  0  0
   -2.5790   14.6260   -3.5680 C   0  0  0  0  0  0  0  0  0  0  0  0
   -0.4140   14.2980    0.8090 C   0  0  0  0  0  0  0  0  0  0  0  0
    0.1360   13.1200   -4.0410 C   0  0  0  0  0  0  0  0  0  0  0  0
   -0.5190   15.4390   -4.4970 C   0  0  0  0  0  0  0  0  0  0  0  0
   -1.9690   15.1870   -4.8430 C   0  0  0  0  0  0  0  0  0  0  0  0
    1.2820   12.2800   -3.4290 C   0  0  0  0  0  0  0  0  0  0  0  0
   -0.8300   11.9820   -3.6300 C   0  0  0  0  0  0  0  0  0  0  0  0
    0.3590   11.0500   -3.6350 C   0  0  0  0  0  0  0  0  0  0  0  0
  1  2  1  0
  2  3  2  0
  4  2  1  1
  4  5  1  0
  4  6  1  0
  5  7  1  6
  6  8  1  0
  5  9  1  0
  5 10  1  0
  7 11  2  0
  8 11  1  0
 10 12  1  6
 10 13  1  0
  9 14  1  0
 12 15  1  0
 12 16  1  0
 13 17  1  0
 14 17  1  0
 15 18  1  6
 15 19  1  0
 16 20  1  0
 19 20  1  0
 18 21  1  0
 18 22  1  0
 21 23  1  0
 22 23  1  0
M  END
