mac-x0137-mac-x0132
     RDKit          3D

 27 31  0  0  0  0  0  0  0  0999 V2000
   -2.6810   12.9570   -4.1040 F   0  0  0  0  0  0  0  0  0  0  0  0
   -1.4250   13.2960   -4.5230 C   0  0  2  0  0  0  0  0  0  0  0  0
   -0.6260   12.0090   -4.6590 C   0  0  0  0  0  0  0  0  0  0  0  0
   -0.8030   14.3010   -3.5360 C   0  0  0  0  0  0  0  0  0  0  0  0
   -0.1070   13.6900   -2.3730 N   0  0  0  0  0  0  0  0  0  0  0  0
   -0.1330   11.4760   -3.3140 C   0  0  0  0  0  0  0  0  0  0  0  0
    0.6920   12.4960   -2.5460 C   0  0  0  0  0  0  0  0  0  0  0  0
   -0.5470   14.1390   -1.1330 C   0  0  0  0  0  0  0  0  0  0  0  0
    0.3850   14.5190   -0.2390 N   0  0  0  0  0  0  0  0  0  0  0  0
   -1.8660   14.2490   -0.7150 C   0  0  0  0  0  0  0  0  0  0  0  0
    0.0020   14.9640    0.9700 C   0  0  0  0  0  0  0  0  0  0  0  0
   -2.1320   14.7440    0.5680 C   0  0  0  0  0  0  0  0  0  0  0  0
   -3.1060   13.9660   -1.3090 C   0  0  0  0  0  0  0  0  0  0  0  0
   -1.2290   15.1140    1.4750 N   0  0  0  0  0  0  0  0  0  0  0  0
   -3.4960   14.7910    0.7180 N   0  0  0  0  0  0  0  0  0  0  0  0
   -4.0710   14.3020   -0.4200 C   0  0  0  0  0  0  0  0  0  0  0  0
   -4.3400   15.2160    1.7180 N   0  0  0  0  0  0  0  0  0  0  0  0
   -5.5890   14.9870    1.1090 C   0  0  0  0  0  0  0  0  0  0  0  0
   -5.5050   15.0420   -0.2920 C   0  0  0  0  0  0  0  0  0  0  0  0
   -6.7430   14.7180    1.7550 N   0  0  0  0  0  0  0  0  0  0  0  0
   -6.6730   14.7720   -0.9910 C   0  0  0  0  0  0  0  0  0  0  0  0
   -7.8040   14.4910    0.9720 C   0  0  0  0  0  0  0  0  0  0  0  0
   -4.3090   15.3450   -1.0120 C   0  0  0  0  0  0  0  0  0  0  0  0
   -7.8260   14.4990   -0.3710 N   0  0  0  0  0  0  0  0  0  0  0  0
   -6.6200   14.7820   -2.3760 C   0  0  0  0  0  0  0  0  0  0  0  0
   -4.2830   15.3480   -2.3930 C   0  0  0  0  0  0  0  0  0  0  0  0
   -5.4420   15.0550   -3.0770 C   0  0  0  0  0  0  0  0  0  0  0  0
  2  1  1  1
  2  3  1  0
  2  4  1  0
  4  5  1  0
  3  6  1  0
  5  7  1  0
  6  7  1  0
  5  8  1  0
  8  9  2  0
  8 10  1  0
  9 11  1  0
 10 12  2  0
 10 13  1  0
 11 14  2  0
 12 14  1  0
 12 15  1  0
 13 16  2  0
 15 16  1  0
 15 17  1  0
 17 18  1  0
 18 19  1  0
 18 20  2  0
 19 21  2  0
 20 22  1  0
 19 23  1  0
 21 24  1  0
 22 24  2  0
 21 25  1  0
 23 26  2  0
 25 27  2  0
 26 27  1  0
M  END
