mac-x0381-mac-x0282
     RDKit          3D

 25 28  0  0  0  0  0  0  0  0999 V2000
   -8.0840   13.3680    4.4330 N   0  0  0  0  0  0  0  0  0  0  0  0
   -8.1320   14.5360    3.7240 C   0  0  0  0  0  0  0  0  0  0  0  0
   -7.0100   15.1380    3.5280 N   0  0  0  0  0  0  0  0  0  0  0  0
   -9.4590   14.9500    3.2170 C   0  0  0  0  0  0  0  0  0  0  0  0
   -5.7910   14.5510    4.0480 C   0  0  0  0  0  0  0  0  0  0  0  0
   -9.5040   15.8090    2.1280 C   0  0  0  0  0  0  0  0  0  0  0  0
  -10.6340   14.4760    3.8010 C   0  0  0  0  0  0  0  0  0  0  0  0
   -4.4900   14.7920    3.2370 C   0  0  0  0  0  0  0  0  0  0  0  0
  -10.7210   16.2060    1.5770 C   0  0  0  0  0  0  0  0  0  0  0  0
  -11.8600   14.8600    3.2570 C   0  0  0  0  0  0  0  0  0  0  0  0
   -4.6630   15.6450    2.0360 C   0  0  0  0  0  0  0  0  0  0  0  0
  -11.9190   15.7160    2.1370 C   0  0  0  0  0  0  0  0  0  0  0  0
  -10.7710   17.0720    0.4760 C   0  0  0  0  0  0  0  0  0  0  0  0
  -13.1370   16.0980    1.5530 C   0  0  0  0  0  0  0  0  0  0  0  0
  -11.9910   17.4490   -0.0810 C   0  0  0  0  0  0  0  0  0  0  0  0
   -3.8790   15.3430    0.8610 N   0  0  0  0  0  0  0  0  0  0  0  0
  -13.1740   16.9570    0.4550 C   0  0  0  0  0  0  0  0  0  0  0  0
   -4.4430   15.4540   -0.3790 C   0  0  0  0  0  0  0  0  0  0  0  0
   -2.5600   14.9420    0.7490 C   0  0  0  0  0  0  0  0  0  0  0  0
   -3.4960   15.1340   -1.3110 C   0  0  0  0  0  0  0  0  0  0  0  0
   -2.3010   14.8170   -0.6210 C   0  0  0  0  0  0  0  0  0  0  0  0
   -1.6780   14.7150    1.7510 N   0  0  0  0  0  0  0  0  0  0  0  0
   -1.0120   14.4370   -1.0170 C   0  0  0  0  0  0  0  0  0  0  0  0
   -0.4510   14.3590    1.3070 C   0  0  0  0  0  0  0  0  0  0  0  0
   -0.0720   14.2100   -0.0210 C   0  0  0  0  0  0  0  0  0  0  0  0
  1  2  1  0
  2  3  2  3
  2  4  1  0
  3  5  1  0
  4  6  2  0
  4  7  1  0
  5  8  1  0
  6  9  1  0
  7 10  2  0
  8 11  1  0
  9 12  2  0
 10 12  1  0
  9 13  1  0
 12 14  1  0
 13 15  2  0
 11 16  1  0
 14 17  2  0
 15 17  1  0
 16 18  1  0
 16 19  1  0
 18 20  2  0
 19 21  2  0
 20 21  1  0
 19 22  1  0
 21 23  1  0
 22 24  2  0
 23 25  2  0
 24 25  1  0
M  END
