mac-x0226-mac-x0204
     RDKit          3D

 23 25  0  0  0  0  0  0  0  0999 V2000
    0.4290   12.9210   -2.0870 O   0  0  0  0  0  0  0  0  0  0  0  0
    0.4090   11.7080   -2.7150 C   0  0  0  0  0  0  0  0  0  0  0  0
    0.2500   10.6100   -2.1700 O   0  0  0  0  0  0  0  0  0  0  0  0
    0.2520   14.0990   -2.7460 C   0  0  0  0  0  0  0  0  0  0  0  0
    0.9210   15.1150   -2.6340 O   0  0  0  0  0  0  0  0  0  0  0  0
    0.6040   11.7650   -4.1620 C   0  0  0  0  0  0  0  0  0  0  0  0
   -0.9190   14.0790   -3.6830 C   0  0  0  0  0  0  0  0  0  0  0  0
    1.4610   12.5850   -4.9330 C   0  0  0  0  0  0  0  0  0  0  0  0
   -0.0320   10.9850   -5.1080 C   0  0  0  0  0  0  0  0  0  0  0  0
   -1.2450   15.2660   -4.3600 C   0  0  0  0  0  0  0  0  0  0  0  0
   -1.7130   12.9600   -3.9340 C   0  0  0  0  0  0  0  0  0  0  0  0
    1.3730   12.3310   -6.2450 N   0  0  0  0  0  0  0  0  0  0  0  0
    0.4490   11.3350   -6.3490 N   0  0  0  0  0  0  0  0  0  0  0  0
   -2.3270   15.2810   -5.2370 C   0  0  0  0  0  0  0  0  0  0  0  0
   -2.7740   12.9540   -4.7880 N   0  0  0  0  0  0  0  0  0  0  0  0
   -2.6810   16.4110   -5.9170 O   0  0  0  0  0  0  0  0  0  0  0  0
    0.0650   10.7570   -7.5950 C   0  0  0  0  0  0  0  0  0  0  0  0
   -3.0540   14.1170   -5.4210 C   0  0  0  0  0  0  0  0  0  0  0  0
   -1.0870    9.9690   -7.6570 C   0  0  0  0  0  0  0  0  0  0  0  0
    0.7970   10.9410   -8.7660 C   0  0  0  0  0  0  0  0  0  0  0  0
   -1.4820    9.3890   -8.8670 C   0  0  0  0  0  0  0  0  0  0  0  0
    0.4110   10.3680   -9.9690 C   0  0  0  0  0  0  0  0  0  0  0  0
   -0.7320    9.5890  -10.0240 C   0  0  0  0  0  0  0  0  0  0  0  0
  1  2  1  0
  2  3  2  0
  1  4  1  0
  4  5  2  0
  2  6  1  0
  4  7  1  0
  6  8  1  0
  6  9  2  0
  7 10  2  0
  7 11  1  0
  8 12  2  0
  9 13  1  0
 12 13  1  0
 10 14  1  0
 11 15  2  0
 14 16  1  0
 13 17  1  0
 14 18  2  0
 15 18  1  0
 17 19  2  0
 17 20  1  0
 19 21  1  0
 20 22  2  0
 21 23  2  0
 22 23  1  0
M  END
