mac-x0453-mac-x0361
     RDKit          3D

 10 10  0  0  0  0  0  0  0  0999 V2000
   -6.9770   13.8230    2.2050 N   0  0  0  0  0  0  0  0  0  0  0  0
   -6.3680   14.3800    1.1130 C   0  0  0  0  0  0  0  0  0  0  0  0
   -4.9290   14.8090    1.3290 C   0  0  0  0  0  0  0  0  0  0  0  0
   -6.9920   14.5180    0.0570 O   0  0  0  0  0  0  0  0  0  0  0  0
   -4.0440   14.7840    0.1210 C   0  0  0  0  0  0  0  0  0  0  0  0
   -2.7190   14.4100    0.1050 C   0  0  0  0  0  0  0  0  0  0  0  0
   -4.4550   15.1460   -1.1630 N   0  0  0  0  0  0  0  0  0  0  0  0
   -2.3090   14.5410   -1.1880 N   0  0  0  0  0  0  0  0  0  0  0  0
   -3.3700   14.9820   -1.9020 C   0  0  0  0  0  0  0  0  0  0  0  0
   -3.2850   15.2110   -3.1970 O   0  0  0  0  0  0  0  0  0  0  0  0
  1  2  1  0
  2  3  1  0
  2  4  2  0
  3  5  1  0
  5  6  2  0
  5  7  1  0
  6  8  1  0
  7  9  2  0
  8  9  1  0
  9 10  1  0
M  END
