mac-x0131-mac-x0319
     RDKit          3D

 29 32  0  0  0  0  0  0  0  0999 V2000
   -4.6580   14.8060   -3.8800 C   0  0  0  0  0  0  0  0  0  0  0  0
   -3.9040   14.8620   -2.6030 C   0  0  0  0  0  0  0  0  0  0  0  0
   -4.2990   15.1450   -1.3230 C   0  0  0  0  0  0  0  0  0  0  0  0
   -2.5900   14.5940   -2.5970 N   0  0  0  0  0  0  0  0  0  0  0  0
   -5.6770   15.4990   -0.9140 C   0  0  0  0  0  0  0  0  0  0  0  0
   -1.9870   14.2710   -3.8860 C   0  0  2  0  0  0  0  0  0  0  0  0
   -3.1500   15.0280   -0.4720 C   0  0  0  0  0  0  0  0  0  0  0  0
   -2.0740   14.6870   -1.2900 C   0  0  0  0  0  0  0  0  0  0  0  0
   -2.8980   15.1720    0.9030 C   0  0  0  0  0  0  0  0  0  0  0  0
   -0.8100   14.4990   -0.8400 N   0  0  0  0  0  0  0  0  0  0  0  0
   -1.5450   12.8620   -4.0810 C   0  0  0  0  0  0  0  0  0  0  0  0
   -0.7310   14.8760   -4.0620 C   0  0  0  0  0  0  0  0  0  0  0  0
   -3.8930   15.5120    1.8150 N   0  0  0  0  0  0  0  0  0  0  0  0
   -1.6490   14.9810    1.3900 N   0  0  0  0  0  0  0  0  0  0  0  0
   -0.6850   14.6650    0.5000 C   0  0  0  0  0  0  0  0  0  0  0  0
   -0.4150   12.3050   -4.6820 C   0  0  0  0  0  0  0  0  0  0  0  0
   -2.3370   11.8750   -3.6030 O   0  0  0  0  0  0  0  0  0  0  0  0
   -0.3840   16.1390   -4.4440 C   0  0  0  0  0  0  0  0  0  0  0  0
    0.1480   13.9220   -3.7660 C   0  0  0  0  0  0  0  0  0  0  0  0
   -1.7210   10.7040   -3.8930 C   0  0  0  0  0  0  0  0  0  0  0  0
   -0.5400   10.9130   -4.5530 C   0  0  0  0  0  0  0  0  0  0  0  0
    1.4470   14.1040   -3.8130 C   0  0  0  0  0  0  0  0  0  0  0  0
    0.9650   16.3800   -4.5050 C   0  0  0  0  0  0  0  0  0  0  0  0
    2.1970   12.8760   -3.4280 C   0  0  0  0  0  0  0  0  0  0  0  0
    1.3110   17.6320   -4.8760 O   0  0  0  0  0  0  0  0  0  0  0  0
    1.8970   15.3530   -4.1880 C   0  0  0  0  0  0  0  0  0  0  0  0
    1.2970   12.1330   -2.4440 C   0  0  0  0  0  0  0  0  0  0  0  0
    0.8920   10.9120   -2.8530 O   0  0  0  0  0  0  0  0  0  0  0  0
    0.8950   12.5370   -1.3650 O   0  0  0  0  0  0  0  0  0  0  0  0
  1  2  1  0
  2  3  2  0
  2  4  1  0
  3  5  1  0
  4  6  1  0
  3  7  1  0
  4  8  1  0
  7  8  2  0
  7  9  1  0
  8 10  1  0
  6 11  1  1
  6 12  1  0
  9 13  1  0
  9 14  2  0
 10 15  2  0
 14 15  1  0
 11 16  2  0
 11 17  1  0
 12 18  2  0
 12 19  1  0
 17 20  1  0
 16 21  1  0
 20 21  2  0
 19 22  2  0
 18 23  1  0
 22 24  1  0
 23 25  1  0
 22 26  1  0
 23 26  2  0
 24 27  1  0
 27 28  1  0
 27 29  2  0
M  END
