mac-x0361-diamond-x0849_0_A
     RDKit          3D

 20 22  0  0  0  0  0  0  0  0999 V2000
   -7.8090   14.2780    1.0330 N   0  0  0  0  0  0  0  0  0  0  0  0
   -7.8330   14.0750   -0.3240 C   0  0  0  0  0  0  0  0  0  0  0  0
   -8.8440   13.7110   -0.8890 O   0  0  0  0  0  0  0  0  0  0  0  0
   -6.5710   14.3360   -1.0360 C   0  0  0  0  0  0  0  0  0  0  0  0
   -5.4230   14.2530   -0.3000 C   0  0  0  0  0  0  0  0  0  0  0  0
   -6.5270   14.6660   -2.4160 C   0  0  0  0  0  0  0  0  0  0  0  0
   -4.2430   14.5270   -0.9120 C   0  0  0  0  0  0  0  0  0  0  0  0
   -5.2930   14.9410   -3.0390 C   0  0  0  0  0  0  0  0  0  0  0  0
   -4.1780   14.8830   -2.2490 C   0  0  0  0  0  0  0  0  0  0  0  0
   -2.9160   15.1550   -2.5450 O   0  0  0  0  0  0  0  0  0  0  0  0
   -2.9140   15.2170   -1.1720 C   0  0  0  0  0  0  0  0  0  0  0  0
   -1.8690   14.8800   -0.3530 C   0  0  0  0  0  0  0  0  0  0  0  0
   -4.1260   15.6400   -0.6080 C   0  0  0  0  0  0  0  0  0  0  0  0
   -2.1130   14.9390    1.0380 C   0  0  0  0  0  0  0  0  0  0  0  0
   -4.2300   15.6740    0.7560 C   0  0  0  0  0  0  0  0  0  0  0  0
   -0.6320   14.4940   -0.8320 C   0  0  0  0  0  0  0  0  0  0  0  0
   -3.2540   15.3220    1.5680 N   0  0  0  0  0  0  0  0  0  0  0  0
   -1.2060   14.6040    1.8850 N   0  0  0  0  0  0  0  0  0  0  0  0
    0.3110   14.1600    0.0780 C   0  0  0  0  0  0  0  0  0  0  0  0
   -0.0380   14.2280    1.4230 C   0  0  0  0  0  0  0  0  0  0  0  0
  1  2  1  0
  2  3  2  0
  2  4  1  0
  4  5  2  0
  4  6  1  0
  5  7  1  0
  6  8  2  0
  7  9  2  0
  8  9  1  0
  9 10  1  0
 10 11  1  0
 11 12  1  0
 11 13  2  0
 12 14  2  0
 13 15  1  0
 12 16  1  0
 14 17  1  0
 15 17  2  0
 14 18  1  0
 16 19  2  0
 18 20  2  0
 19 20  1  0
M  END
