mac-x0138-mac-x0321
     RDKit          3D

 14 15  0  0  0  0  0  0  0  0999 V2000
   -1.5850   14.6930   -3.3600 C   0  0  0  0  0  0  0  0  0  0  0  0
   -0.3530   14.2680   -3.3220 C   0  0  0  0  0  0  0  0  0  0  0  0
    0.3450   13.9450   -2.2030 O   0  0  0  0  0  0  0  0  0  0  0  0
   -2.4090   14.8970   -2.2800 N   0  0  0  0  0  0  0  0  0  0  0  0
   -3.7240   15.3000   -2.3760 C   0  0  0  0  0  0  0  0  0  0  0  0
   -2.1430   14.7660   -0.9210 C   0  0  0  0  0  0  0  0  0  0  0  0
   -4.3050   15.4360   -1.2140 N   0  0  0  0  0  0  0  0  0  0  0  0
   -3.3270   15.1100   -0.3050 C   0  0  0  0  0  0  0  0  0  0  0  0
   -0.9860   14.3920   -0.3000 N   0  0  0  0  0  0  0  0  0  0  0  0
   -3.3310   15.0720    1.0840 C   0  0  0  0  0  0  0  0  0  0  0  0
   -1.1060   14.3820    1.0520 C   0  0  0  0  0  0  0  0  0  0  0  0
   -4.4520   15.4120    1.8130 N   0  0  0  0  0  0  0  0  0  0  0  0
   -0.0220   14.0240    1.8410 N   0  0  0  0  0  0  0  0  0  0  0  0
   -2.2040   14.6970    1.7410 N   0  0  0  0  0  0  0  0  0  0  0  0
  1  2  2  3
  2  3  1  0
  1  4  1  0
  4  5  1  0
  4  6  1  0
  5  7  2  0
  6  8  2  0
  7  8  1  0
  6  9  1  0
  8 10  1  0
  9 11  2  0
 10 12  1  0
 11 13  1  0
 10 14  2  0
 11 14  1  0
M  END
