mac-x0346-diamond-x0722_0_A
     RDKit          3D

 15 15  0  0  0  0  0  0  0  0999 V2000
   -8.1470   14.6090    0.9680 O   0  0  0  0  0  0  0  0  0  0  0  0
   -7.5630   15.3140   -0.0960 N   0  0  0  0  0  0  0  0  0  0  0  0
   -6.5270   14.6180   -0.6610 C   0  0  0  0  0  0  0  0  0  0  0  0
   -6.8460   13.7840   -1.5920 N   0  0  0  0  0  0  0  0  0  0  0  0
   -5.0920   14.7620   -0.2090 C   0  0  0  0  0  0  0  0  0  0  0  0
   -5.8030   13.0850   -2.0560 N   0  0  0  0  0  0  0  0  0  0  0  0
   -4.0930   14.7290   -1.1970 C   0  0  0  0  0  0  0  0  0  0  0  0
   -4.7170   14.8970    1.1390 C   0  0  0  0  0  0  0  0  0  0  0  0
   -4.4840   14.6130   -2.5050 O   0  0  0  0  0  0  0  0  0  0  0  0
   -5.7010   14.9400    2.2560 C   0  0  0  0  0  0  0  0  0  0  0  0
   -2.7260   14.7990   -0.8660 C   0  0  0  0  0  0  0  0  0  0  0  0
   -3.3540   14.9790    1.4540 C   0  0  0  0  0  0  0  0  0  0  0  0
   -1.6760   14.7280   -1.9380 C   0  0  0  0  0  0  0  0  0  0  0  0
   -2.3510   14.9230    0.4850 C   0  0  0  0  0  0  0  0  0  0  0  0
   -0.8960   14.9850    0.9210 C   0  0  0  0  0  0  0  0  0  0  0  0
  1  2  1  0
  2  3  1  0
  3  4  2  3
  3  5  1  0
  4  6  1  0
  5  7  2  0
  5  8  1  0
  7  9  1  0
  8 10  1  0
  7 11  1  0
  8 12  2  0
 11 13  1  0
 11 14  2  0
 12 14  1  0
 14 15  1  0
M  END
