mac-x0142-mac-x0188
     RDKit          3D

 21 24  0  0  0  0  0  0  0  0999 V2000
    0.4140   12.4360   -6.3030 C   0  0  0  0  0  0  0  0  0  0  0  0
    0.0220   13.5650   -5.3740 C   0  0  2  0  0  0  0  0  0  0  0  0
    0.9520   13.6200   -4.2060 C   0  0  0  0  0  0  0  0  0  0  0  0
   -1.4230   13.4110   -4.8780 C   0  0  0  0  0  0  0  0  0  0  0  0
    2.3960   13.1760   -4.3640 C   0  0  0  0  0  0  0  0  0  0  0  0
    1.4100   12.2830   -3.6720 C   0  0  0  0  0  0  0  0  0  0  0  0
   -1.8360   14.4580   -3.8240 C   0  0  0  0  0  0  0  0  0  0  0  0
    0.6040   14.6710   -3.1700 C   0  0  2  0  0  0  0  0  0  0  0  0
    1.4220   14.3280   -1.9400 C   0  0  0  0  0  0  0  0  0  0  0  0
   -0.8490   14.6080   -2.7240 N   0  0  0  0  0  0  0  0  0  0  0  0
    2.4210   14.8970   -1.5760 O   0  0  0  0  0  0  0  0  0  0  0  0
    0.8930   13.2410   -1.3070 O   0  0  0  0  0  0  0  0  0  0  0  0
   -1.1910   14.6910   -1.3400 C   0  0  0  0  0  0  0  0  0  0  0  0
   -0.2250   14.5780   -0.3430 N   0  0  0  0  0  0  0  0  0  0  0  0
   -2.4290   14.9020   -0.8530 C   0  0  0  0  0  0  0  0  0  0  0  0
   -0.5050   14.5700    0.9950 C   0  0  0  0  0  0  0  0  0  0  0  0
   -2.6530   14.9670    0.6210 C   0  0  0  0  0  0  0  0  0  0  0  0
   -3.7440   15.1270   -1.3750 C   0  0  0  0  0  0  0  0  0  0  0  0
   -1.6600   14.7400    1.5300 N   0  0  0  0  0  0  0  0  0  0  0  0
   -3.8810   15.2600    0.9210 N   0  0  0  0  0  0  0  0  0  0  0  0
   -4.5180   15.3440   -0.3060 C   0  0  0  0  0  0  0  0  0  0  0  0
  2  1  1  6
  2  3  1  0
  2  4  1  0
  3  5  1  0
  3  6  1  0
  5  6  1  0
  4  7  1  0
  3  8  1  0
  8  9  1  1
  7 10  1  0
  8 10  1  0
  9 11  2  0
  9 12  1  0
 10 13  1  0
 13 14  1  0
 13 15  2  0
 14 16  1  0
 15 17  1  0
 15 18  1  0
 16 19  2  0
 17 19  1  0
 17 20  2  0
 18 21  2  0
 20 21  1  0
M  END
