mac-x0392-diamond-x0471_0_A
     RDKit          3D

 24 26  0  0  0  0  0  0  0  0999 V2000
    0.6090   14.2570   -0.6920 N   0  0  0  0  0  0  0  0  0  0  0  0
   -0.6660   14.5120   -0.2160 C   0  0  0  0  0  0  0  0  0  0  0  0
   -0.8600   14.6280    1.0860 C   0  0  0  0  0  0  0  0  0  0  0  0
   -1.8490   14.6500   -1.1380 C   0  0  0  0  0  0  0  0  0  0  0  0
   -1.5080   14.6130   -2.5820 C   0  0  0  0  0  0  0  0  0  0  0  0
   -3.1500   14.7890   -0.6220 C   0  0  0  0  0  0  0  0  0  0  0  0
   -2.0560   14.8680    1.6070 N   0  0  0  0  0  0  0  0  0  0  0  0
   -2.2590   14.5970   -3.5360 O   0  0  0  0  0  0  0  0  0  0  0  0
   -0.1580   14.6070   -2.7550 O   0  0  0  0  0  0  0  0  0  0  0  0
   -3.1940   14.8210    0.8710 C   0  0  0  0  0  0  0  0  0  0  0  0
   -4.5010   14.8940   -1.3130 C   0  0  0  0  0  0  0  0  0  0  0  0
   -5.6430   14.8440   -0.5360 C   0  0  0  0  0  0  0  0  0  0  0  0
   -4.2870   14.8060    1.5380 C   0  0  0  0  0  0  0  0  0  0  0  0
   -7.0170   14.8440   -0.7710 N   0  0  0  0  0  0  0  0  0  0  0  0
   -5.5320   14.7470    0.9030 C   0  0  0  0  0  0  0  0  0  0  0  0
   -7.5310   14.6830    0.4570 C   0  0  0  0  0  0  0  0  0  0  0  0
   -6.6510   14.6180    1.4840 N   0  0  0  0  0  0  0  0  0  0  0  0
   -8.9820   14.5780    0.8940 C   0  0  0  0  0  0  0  0  0  0  0  0
   -9.0130   14.1350    2.3060 N   0  0  0  0  0  0  0  0  0  0  0  0
   -9.0660   15.0340    3.3750 C   0  0  0  0  0  0  0  0  0  0  0  0
   -9.3670   16.2180    3.2330 O   0  0  0  0  0  0  0  0  0  0  0  0
   -8.7310   14.4220    4.7450 C   0  0  0  0  0  0  0  0  0  0  0  0
   -9.9380   13.6890    5.3390 C   0  0  0  0  0  0  0  0  0  0  0  0
   -8.2530   15.5060    5.7220 C   0  0  0  0  0  0  0  0  0  0  0  0
  1  2  1  0
  2  3  2  0
  2  4  1  0
  4  5  1  0
  4  6  2  0
  3  7  1  0
  5  8  2  0
  5  9  1  0
  6 10  1  0
  7 10  1  0
  6 11  1  0
 11 12  2  0
 10 13  2  0
 12 14  1  0
 12 15  1  0
 13 15  1  0
 14 16  2  0
 15 17  2  0
 16 17  1  0
 16 18  1  0
 18 19  1  0
 19 20  1  0
 20 21  2  0
 20 22  1  0
 22 23  1  0
 22 24  1  0
M  END
