mac-x0223-mac-x0555
     RDKit          3D

 26 28  0  0  0  0  0  0  0  0999 V2000
    1.1580   18.4200   -5.5220 C   0  0  0  0  0  0  0  0  0  0  0  0
    0.0320   18.0550   -4.7320 O   0  0  0  0  0  0  0  0  0  0  0  0
   -0.1940   16.7110   -4.7090 C   0  0  0  0  0  0  0  0  0  0  0  0
   -1.5090   16.2610   -4.7720 C   0  0  0  0  0  0  0  0  0  0  0  0
    0.7950   15.7230   -4.6180 C   0  0  0  0  0  0  0  0  0  0  0  0
   -2.6120   16.9870   -4.8190 O   0  0  0  0  0  0  0  0  0  0  0  0
   -1.8550   14.9340   -4.7750 C   0  0  0  0  0  0  0  0  0  0  0  0
    0.4320   14.3550   -4.5980 C   0  0  0  0  0  0  0  0  0  0  0  0
    1.4090   13.2350   -4.4680 C   0  0  0  0  0  0  0  0  0  0  0  0
   -3.4800   15.9380   -4.2910 C   0  0  0  0  0  0  0  0  0  0  0  0
   -0.8930   13.9810   -4.6890 C   0  0  0  0  0  0  0  0  0  0  0  0
    0.9790   12.3610   -3.3030 C   0  0  0  0  0  0  0  0  0  0  0  0
   -2.8000   14.9470   -3.3940 C   0  0  0  0  0  0  0  0  0  0  0  0
    0.3250   11.3330   -3.3090 O   0  0  0  0  0  0  0  0  0  0  0  0
    1.3980   12.8640   -2.1230 O   0  0  0  0  0  0  0  0  0  0  0  0
   -3.5740   14.9030   -2.1010 C   0  0  0  0  0  0  0  0  0  0  0  0
   -4.9900   14.7980   -2.0690 C   0  0  0  0  0  0  0  0  0  0  0  0
   -2.8720   14.9640   -0.9160 C   0  0  0  0  0  0  0  0  0  0  0  0
   -5.6830   14.7360   -0.8590 C   0  0  0  0  0  0  0  0  0  0  0  0
   -3.5370   14.9110    0.2940 C   0  0  0  0  0  0  0  0  0  0  0  0
   -4.9280   14.7890    0.3260 C   0  0  0  0  0  0  0  0  0  0  0  0
   -7.0300   14.6190   -0.8350 N   0  0  0  0  0  0  0  0  0  0  0  0
   -5.5910   14.7110    1.5470 C   0  0  0  0  0  0  0  0  0  0  0  0
   -7.6350   14.5410    0.3830 C   0  0  0  0  0  0  0  0  0  0  0  0
   -6.9660   14.5780    1.6040 C   0  0  0  0  0  0  0  0  0  0  0  0
   -7.5830   14.4860    2.8560 N   0  0  0  0  0  0  0  0  0  0  0  0
  1  2  1  0
  2  3  1  0
  3  4  2  0
  3  5  1  0
  4  6  1  0
  4  7  1  0
  5  8  2  0
  8  9  1  0
  6 10  1  0
  7 11  2  0
  8 11  1  0
  9 12  1  0
 10 13  1  0
 12 14  2  0
 12 15  1  0
 13 16  1  0
 16 17  2  0
 16 18  1  0
 17 19  1  0
 18 20  2  0
 19 21  2  0
 20 21  1  0
 19 22  1  0
 21 23  1  0
 22 24  2  0
 23 25  2  0
 24 25  1  0
 25 26  1  0
M  END
