mac-x0555-diamond-x0905_0_A
     RDKit          3D

 12 13  0  0  0  0  0  0  0  0999 V2000
   -7.4900   14.3910    3.0720 N   0  0  0  0  0  0  0  0  0  0  0  0
   -7.0030   14.5610    1.7810 C   0  0  0  0  0  0  0  0  0  0  0  0
   -7.8390   14.5220    0.6800 C   0  0  0  0  0  0  0  0  0  0  0  0
   -5.6410   14.7800    1.5470 C   0  0  0  0  0  0  0  0  0  0  0  0
   -5.1690   14.9500    0.2410 C   0  0  0  0  0  0  0  0  0  0  0  0
   -7.4310   14.6810   -0.5860 N   0  0  0  0  0  0  0  0  0  0  0  0
   -6.1190   14.8900   -0.7840 C   0  0  0  0  0  0  0  0  0  0  0  0
   -3.8140   15.1690   -0.0760 C   0  0  0  0  0  0  0  0  0  0  0  0
   -5.7090   15.0480   -2.0730 C   0  0  0  0  0  0  0  0  0  0  0  0
   -3.4280   15.3220   -1.4100 C   0  0  0  0  0  0  0  0  0  0  0  0
   -6.7000   14.9640   -3.0130 O   0  0  0  0  0  0  0  0  0  0  0  0
   -4.3800   15.2650   -2.4230 C   0  0  0  0  0  0  0  0  0  0  0  0
  1  2  1  0
  2  3  2  0
  2  4  1  0
  4  5  2  0
  3  6  1  0
  5  7  1  0
  6  7  2  0
  5  8  1  0
  7  9  1  0
  8 10  2  0
  9 11  1  0
  9 12  2  0
 10 12  1  0
M  END
