mac-x0213-mac-x0439
     RDKit          3D

 15 17  0  0  0  0  0  0  0  0999 V2000
   -0.6300   11.7640   -2.5640 O   0  0  0  0  0  0  0  0  0  0  0  0
    0.2570   12.6550   -2.9880 C   0  0  0  0  0  0  0  0  0  0  0  0
    1.1620   13.0590   -2.1870 N   0  0  0  0  0  0  0  0  0  0  0  0
    0.1780   13.1500   -4.3840 C   0  0  1  0  0  0  0  0  0  0  0  0
    1.9650   13.9700   -3.0200 C   0  0  1  0  0  0  0  0  0  0  0  0
   -1.2050   13.6900   -4.7530 C   0  0  0  0  0  0  0  0  0  0  0  0
    1.1880   14.2980   -4.3210 C   0  0  2  0  0  0  0  0  0  0  0  0
    2.3890   15.0980   -2.3410 O   0  0  0  0  0  0  0  0  0  0  0  0
   -1.0100   15.1660   -4.8430 C   0  0  0  0  0  0  0  0  0  0  0  0
    0.3130   15.5350   -4.5800 C   0  0  0  0  0  0  0  0  0  0  0  0
   -1.9750   16.1090   -5.1510 C   0  0  0  0  0  0  0  0  0  0  0  0
    0.6580   16.8840   -4.6100 C   0  0  0  0  0  0  0  0  0  0  0  0
   -3.5660   15.5910   -5.4860 Cl  0  0  0  0  0  0  0  0  0  0  0  0
   -1.6350   17.4560   -5.1940 C   0  0  0  0  0  0  0  0  0  0  0  0
   -0.3200   17.8420   -4.9200 C   0  0  0  0  0  0  0  0  0  0  0  0
  1  2  1  0
  2  3  2  0
  2  4  1  0
  3  5  1  0
  4  6  1  1
  4  7  1  0
  5  7  1  0
  5  8  1  1
  6  9  1  0
  7 10  1  1
  9 10  2  0
  9 11  1  0
 10 12  1  0
 11 13  1  0
 11 14  2  0
 12 15  2  0
 14 15  1  0
M  END
