mac-x0124-diamond-x0253_0_A
     RDKit          3D

 26 28  0  0  0  0  0  0  0  0999 V2000
   -0.6910   15.1610   -3.5550 C   0  0  0  0  0  0  0  0  0  0  0  0
   -1.7760   14.8230   -2.6610 N   0  0  0  0  0  0  0  0  0  0  0  0
   -3.0180   15.4170   -2.6420 C   0  0  0  0  0  0  0  0  0  0  0  0
   -1.4280   14.2920   -1.3320 C   0  0  2  0  0  0  0  0  0  0  0  0
   -3.6600   15.2080   -1.4820 C   0  0  0  0  0  0  0  0  0  0  0  0
   -2.8000   14.3380   -0.5970 C   0  0  2  0  0  0  0  0  0  0  0  0
   -0.2510   14.8240   -0.6700 N   0  0  0  0  0  0  0  0  0  0  0  0
    0.8520   13.9140   -0.9120 C   0  0  0  0  0  0  0  0  0  0  0  0
   -2.7110   14.4020    0.9240 C   0  0  2  0  0  0  0  0  0  0  0  0
   -0.3840   15.2170    0.7320 C   0  0  0  0  0  0  0  0  0  0  0  0
   -3.5260   15.3820    1.5880 N   0  0  0  0  0  0  0  0  0  0  0  0
    1.1780   13.7550   -2.3230 N   0  0  0  0  0  0  0  0  0  0  0  0
   -1.3880   14.4910    1.5020 N   0  0  0  0  0  0  0  0  0  0  0  0
    0.9860   12.7110   -3.0590 C   0  0  0  0  0  0  0  0  0  0  0  0
    0.4250   11.5610   -2.5850 O   0  0  0  0  0  0  0  0  0  0  0  0
    1.3810   12.6870   -4.5180 C   0  0  0  0  0  0  0  0  0  0  0  0
    0.5200   11.8860   -5.3560 N   0  0  0  0  0  0  0  0  0  0  0  0
    1.0600   11.6070   -6.5770 C   0  0  0  0  0  0  0  0  0  0  0  0
    2.1220   12.1210   -6.7970 O   0  0  0  0  0  0  0  0  0  0  0  0
    0.4330   10.7060   -7.5600 C   0  0  0  0  0  0  0  0  0  0  0  0
   -0.5420    9.8030   -7.1440 C   0  0  0  0  0  0  0  0  0  0  0  0
    0.8170   10.7530   -8.9040 C   0  0  0  0  0  0  0  0  0  0  0  0
   -1.1390    8.9420   -8.0690 C   0  0  0  0  0  0  0  0  0  0  0  0
    0.2300    9.9010   -9.8300 C   0  0  0  0  0  0  0  0  0  0  0  0
   -2.1870    7.9730   -7.6160 C   0  0  0  0  0  0  0  0  0  0  0  0
   -0.7470    8.9970   -9.4170 C   0  0  0  0  0  0  0  0  0  0  0  0
  1  2  1  0
  2  3  1  0
  4  2  1  6
  3  5  2  0
  4  6  1  0
  6  5  1  6
  4  7  1  0
  7  8  1  0
  6  9  1  0
  7 10  1  0
  9 11  1  6
  8 12  1  0
  9 13  1  0
 10 13  1  0
 12 14  2  3
 14 15  1  0
 14 16  1  0
 16 17  1  0
 17 18  1  0
 18 19  2  0
 18 20  1  0
 20 21  2  0
 20 22  1  0
 21 23  1  0
 22 24  2  0
 23 25  1  0
 23 26  2  0
 24 26  1  0
M  END
