mac-x0341-diamond-x0290_0_A
     RDKit          3D

 24 26  0  0  0  0  0  0  0  0999 V2000
   -6.3890   14.4570    1.6960 N   0  0  0  0  0  0  0  0  0  0  0  0
   -7.6790   13.7930    1.5470 N   0  0  0  0  0  0  0  0  0  0  0  0
   -8.6890   14.7320    1.0600 C   0  0  0  0  0  0  0  0  0  0  0  0
   -5.3020   13.5650    1.7480 C   0  0  0  0  0  0  0  0  0  0  0  0
   -5.9440   14.9970    0.5700 C   0  0  0  0  0  0  0  0  0  0  0  0
   -5.4340   12.3900    1.4510 O   0  0  0  0  0  0  0  0  0  0  0  0
   -4.0160   14.0350    2.0150 N   0  0  0  0  0  0  0  0  0  0  0  0
   -6.6390   15.0940   -0.5820 N   0  0  0  0  0  0  0  0  0  0  0  0
   -4.7140   15.2320    0.7130 N   0  0  0  0  0  0  0  0  0  0  0  0
   -5.9420   15.0990   -1.7530 C   0  0  0  0  0  0  0  0  0  0  0  0
   -3.9600   15.4960   -0.3710 C   0  0  0  0  0  0  0  0  0  0  0  0
   -2.7900   14.0860    1.2710 C   0  0  0  0  0  0  0  0  0  0  0  0
   -6.4770   14.8560   -2.8180 O   0  0  0  0  0  0  0  0  0  0  0  0
   -4.4990   15.4190   -1.6380 C   0  0  0  0  0  0  0  0  0  0  0  0
   -2.6240   15.7970   -0.1760 C   0  0  0  0  0  0  0  0  0  0  0  0
   -1.6550   14.3700    1.9400 N   0  0  0  0  0  0  0  0  0  0  0  0
   -2.7520   13.8510   -0.1120 C   0  0  0  0  0  0  0  0  0  0  0  0
   -1.8030   16.0060   -1.2690 C   0  0  0  0  0  0  0  0  0  0  0  0
   -3.6870   15.6280   -2.7450 C   0  0  0  0  0  0  0  0  0  0  0  0
   -0.4880   14.4370    1.2740 C   0  0  0  0  0  0  0  0  0  0  0  0
   -1.5150   13.9240   -0.8000 C   0  0  0  0  0  0  0  0  0  0  0  0
   -1.4180   13.6850   -2.2780 C   0  0  0  0  0  0  0  0  0  0  0  0
   -2.3360   15.9190   -2.5550 C   0  0  0  0  0  0  0  0  0  0  0  0
   -0.3620   14.2270   -0.0760 C   0  0  0  0  0  0  0  0  0  0  0  0
  1  2  1  0
  2  3  1  0
  1  4  1  0
  1  5  1  0
  4  6  2  0
  4  7  1  0
  5  8  1  0
  5  9  2  0
  8 10  1  0
  9 11  1  0
  7 12  1  0
 10 13  2  0
 10 14  1  0
 11 14  2  0
 11 15  1  0
 12 16  2  0
 12 17  1  0
 15 18  2  0
 14 19  1  0
 16 20  1  0
 17 21  2  0
 21 22  1  0
 18 23  1  0
 19 23  2  0
 20 24  2  0
 21 24  1  0
M  END
