mac-x0567-mac-x0124
     RDKit          3D

 12 13  0  0  0  0  0  0  0  0999 V2000
    0.2130   14.0660    0.1020 N   0  0  0  0  0  0  0  0  0  0  0  0
   -1.0540   14.3500    0.4680 C   0  0  0  0  0  0  0  0  0  0  0  0
   -1.4980   14.3370    1.7150 N   0  0  0  0  0  0  0  0  0  0  0  0
   -2.0700   14.6900   -0.4600 C   0  0  0  0  0  0  0  0  0  0  0  0
   -2.7910   14.6600    1.5930 N   0  0  0  0  0  0  0  0  0  0  0  0
   -3.1980   14.8910    0.3230 C   0  0  0  0  0  0  0  0  0  0  0  0
   -2.1590   14.8470   -1.8630 C   0  0  0  0  0  0  0  0  0  0  0  0
   -0.9830   14.6550   -2.7900 C   0  0  0  0  0  0  0  0  0  0  0  0
   -3.6600   14.7430    2.6830 N   0  0  0  0  0  0  0  0  0  0  0  0
   -4.4440   15.2510   -0.1940 C   0  0  0  0  0  0  0  0  0  0  0  0
   -3.4200   15.2090   -2.3860 C   0  0  0  0  0  0  0  0  0  0  0  0
   -4.5350   15.4070   -1.5710 C   0  0  0  0  0  0  0  0  0  0  0  0
  1  2  1  0
  2  3  2  0
  2  4  1  0
  3  5  1  0
  4  6  2  0
  5  6  1  0
  4  7  1  0
  7  8  1  0
  5  9  1  0
  6 10  1  0
  7 11  2  0
 10 12  2  0
 11 12  1  0
M  END
