mac-x0344-mac-x0412
     RDKit          3D

 26 28  0  0  0  0  0  0  0  0999 V2000
    2.0740   13.2720   -4.7730 O   0  0  0  0  0  0  0  0  0  0  0  0
    1.2680   12.8780   -3.7800 C   0  0  0  0  0  0  0  0  0  0  0  0
    1.2770   13.4970   -2.6620 N   0  0  0  0  0  0  0  0  0  0  0  0
    0.4020   11.6740   -4.1550 C   0  0  0  0  0  0  0  0  0  0  0  0
    0.1390   10.8710   -3.2710 O   0  0  0  0  0  0  0  0  0  0  0  0
    0.0310   11.6730   -5.4770 N   0  0  0  0  0  0  0  0  0  0  0  0
    0.3610   13.0120   -1.6420 C   0  0  0  0  0  0  0  0  0  0  0  0
   -1.0820   13.2090   -2.1260 C   0  0  0  0  0  0  0  0  0  0  0  0
   -0.7420   10.6820   -6.1110 C   0  0  0  0  0  0  0  0  0  0  0  0
   -1.5650   14.6660   -2.2400 C   0  0  0  0  0  0  0  0  0  0  0  0
   -0.3770   10.0540   -7.2980 C   0  0  0  0  0  0  0  0  0  0  0  0
   -1.9450   10.3260   -5.4900 C   0  0  0  0  0  0  0  0  0  0  0  0
   -1.2100    9.0790   -7.8620 C   0  0  0  0  0  0  0  0  0  0  0  0
   -2.7750    9.3530   -6.0520 C   0  0  0  0  0  0  0  0  0  0  0  0
   -2.9580   14.8510   -1.6670 C   0  0  0  0  0  0  0  0  0  0  0  0
   -2.4080    8.7290   -7.2390 C   0  0  0  0  0  0  0  0  0  0  0  0
   -3.1420   15.0530   -0.3570 C   0  0  0  0  0  0  0  0  0  0  0  0
   -4.1010   14.7760   -2.5680 C   0  0  0  0  0  0  0  0  0  0  0  0
   -4.4670   15.1580    0.1980 C   0  0  0  0  0  0  0  0  0  0  0  0
   -5.3540   15.0270   -2.1370 C   0  0  0  0  0  0  0  0  0  0  0  0
   -5.6470   15.4040   -0.7100 C   0  0  1  0  0  0  0  0  0  0  0  0
   -4.6280   14.9990    1.4900 C   0  0  0  0  0  0  0  0  0  0  0  0
   -6.9250   14.7580   -0.0900 C   0  0  0  0  0  0  0  0  0  0  0  0
   -6.0210   15.0100    1.9920 C   0  0  0  0  0  0  0  0  0  0  0  0
   -7.7710   14.1940   -0.7720 O   0  0  0  0  0  0  0  0  0  0  0  0
   -7.0880   14.8750    1.2800 N   0  0  0  0  0  0  0  0  0  0  0  0
  1  2  1  0
  2  3  2  3
  2  4  1  0
  4  5  2  0
  4  6  1  0
  3  7  1  0
  7  8  1  0
  6  9  1  0
  8 10  1  0
  9 11  2  0
  9 12  1  0
 11 13  1  0
 12 14  2  0
 10 15  1  0
 13 16  2  0
 14 16  1  0
 15 17  2  0
 15 18  1  0
 17 19  1  0
 18 20  2  0
 19 21  1  0
 21 20  1  6
 19 22  2  0
 21 23  1  0
 22 24  1  0
 23 25  2  0
 23 26  1  0
 24 26  2  0
M  END
