mac-x0115-diamond-x0962_1_A
     RDKit          3D

 23 25  0  0  0  0  0  0  0  0999 V2000
   -1.4220   18.5980   -5.1600 C   0  0  0  0  0  0  0  0  0  0  0  0
   -0.4130   17.6280   -5.7390 C   0  0  0  0  0  0  0  0  0  0  0  0
    1.0080   18.1110   -5.5210 C   0  0  0  0  0  0  0  0  0  0  0  0
   -0.6240   16.3690   -5.0880 O   0  0  0  0  0  0  0  0  0  0  0  0
    0.5660   15.7410   -4.5870 C   0  0  0  0  0  0  0  0  0  0  0  0
    0.1790   14.3810   -3.9870 C   0  0  0  0  0  0  0  0  0  0  0  0
    0.0300   14.4100   -2.4990 N   0  0  0  0  0  0  0  0  0  0  0  0
    1.0900   14.0550   -1.6530 C   0  0  0  0  0  0  0  0  0  0  0  0
   -1.2030   14.6550   -1.9120 C   0  0  0  0  0  0  0  0  0  0  0  0
    2.7010   13.9230   -2.0860 S   0  0  0  0  0  0  0  0  0  0  0  0
    0.7790   13.7750   -0.3270 N   0  0  0  0  0  0  0  0  0  0  0  0
   -1.2580   14.8810   -0.4470 C   0  0  2  0  0  0  0  0  0  0  0  0
   -2.4230   14.7430   -2.4420 C   0  0  0  0  0  0  0  0  0  0  0  0
   -0.4060   14.0030    0.3390 C   0  0  0  0  0  0  0  0  0  0  0  0
   -2.6920   15.0660   -0.0940 N   0  0  0  0  0  0  0  0  0  0  0  0
   -3.2760   15.0080   -1.2610 C   0  0  0  0  0  0  0  0  0  0  0  0
   -0.6680   13.5820    1.4510 O   0  0  0  0  0  0  0  0  0  0  0  0
   -4.7560   15.2010   -1.4640 C   0  0  0  0  0  0  0  0  0  0  0  0
   -5.6570   14.9110   -0.3140 C   0  0  0  0  0  0  0  0  0  0  0  0
   -5.3230   14.8650    1.0180 N   0  0  0  0  0  0  0  0  0  0  0  0
   -7.0070   14.6320   -0.3390 C   0  0  0  0  0  0  0  0  0  0  0  0
   -6.4670   14.5690    1.7150 C   0  0  0  0  0  0  0  0  0  0  0  0
   -7.4970   14.4230    0.9160 N   0  0  0  0  0  0  0  0  0  0  0  0
  1  2  1  0
  2  3  1  0
  2  4  1  0
  4  5  1  0
  5  6  1  0
  6  7  1  0
  7  8  1  0
  7  9  1  0
  8 10  2  0
  8 11  1  0
  9 12  1  0
  9 13  2  0
 11 14  1  0
 12 14  1  0
 12 15  1  1
 13 16  1  0
 15 16  2  0
 14 17  2  0
 16 18  1  0
 18 19  1  0
 19 20  1  0
 19 21  2  0
 20 22  1  0
 21 23  1  0
 22 23  2  0
M  END
