mac-x0132-mac-x0283
     RDKit          3D

 11 12  0  0  0  0  0  0  0  0999 V2000
   -4.2770   14.9590    2.0710 N   0  0  0  0  0  0  0  0  0  0  0  0
   -5.2750   14.8640    1.1010 C   0  0  0  0  0  0  0  0  0  0  0  0
   -6.5410   14.6850    1.5140 N   0  0  0  0  0  0  0  0  0  0  0  0
   -4.9180   14.9600   -0.2330 C   0  0  0  0  0  0  0  0  0  0  0  0
   -5.9710   14.8640   -1.1440 C   0  0  0  0  0  0  0  0  0  0  0  0
   -7.4640   14.6060    0.5530 C   0  0  0  0  0  0  0  0  0  0  0  0
   -3.5960   15.1380   -0.6850 C   0  0  0  0  0  0  0  0  0  0  0  0
   -7.2420   14.6900   -0.7630 N   0  0  0  0  0  0  0  0  0  0  0  0
   -5.6700   14.9530   -2.4940 C   0  0  0  0  0  0  0  0  0  0  0  0
   -3.3190   15.2200   -2.0420 C   0  0  0  0  0  0  0  0  0  0  0  0
   -4.3600   15.1280   -2.9500 C   0  0  0  0  0  0  0  0  0  0  0  0
  1  2  1  0
  2  3  2  0
  2  4  1  0
  4  5  2  0
  3  6  1  0
  4  7  1  0
  5  8  1  0
  6  8  2  0
  5  9  1  0
  7 10  2  0
  9 11  2  0
 10 11  1  0
M  END
