mac-x0193-diamond-x1018_0_A
     RDKit          3D

 27 29  0  0  0  0  0  0  0  0999 V2000
    0.3920   11.2420   -3.0440 O   0  0  0  0  0  0  0  0  0  0  0  0
    0.7710   12.4510   -3.5340 C   0  0  0  0  0  0  0  0  0  0  0  0
    0.8120   13.4120   -2.7100 N   0  0  0  0  0  0  0  0  0  0  0  0
    1.0740   12.4520   -4.9980 C   0  0  0  0  0  0  0  0  0  0  0  0
    0.2330   11.5110   -5.7120 N   0  0  0  0  0  0  0  0  0  0  0  0
    0.4230   13.1950   -1.3530 C   0  0  0  0  0  0  0  0  0  0  0  0
    0.7650   11.2330   -6.9150 C   0  0  0  0  0  0  0  0  0  0  0  0
   -1.0930   13.1650   -1.3880 C   0  0  0  0  0  0  0  0  0  0  0  0
    1.8070   11.7200   -7.1940 O   0  0  0  0  0  0  0  0  0  0  0  0
    0.0760   10.3880   -7.7420 N   0  0  0  0  0  0  0  0  0  0  0  0
   -1.8060   14.1020   -0.4120 C   0  0  0  0  0  0  0  0  0  0  0  0
    0.7500    9.9630   -8.9700 C   0  0  0  0  0  0  0  0  0  0  0  0
   -3.2200   14.1910   -0.7770 N   0  0  0  0  0  0  0  0  0  0  0  0
    1.3830    8.5890   -8.7630 C   0  0  0  0  0  0  0  0  0  0  0  0
   -0.1710    9.9430  -10.1910 C   0  0  0  0  0  0  0  0  0  0  0  0
   -3.3520   14.6540   -2.1500 N   0  0  0  0  0  0  0  0  0  0  0  0
   -4.0180   15.1590   -0.0380 C   0  0  1  0  0  0  0  0  0  0  0  0
    2.1400    8.1030   -9.9990 C   0  0  0  0  0  0  0  0  0  0  0  0
    0.5910    9.4860  -11.4370 C   0  0  0  0  0  0  0  0  0  0  0  0
   -4.7200   15.0650   -2.2820 N   0  0  0  0  0  0  0  0  0  0  0  0
   -5.1310   15.3620   -0.9810 N   0  0  0  0  0  0  0  0  0  0  0  0
   -4.4940   14.6900    1.2940 C   0  0  0  0  0  0  0  0  0  0  0  0
    1.2550    8.1240  -11.2390 C   0  0  0  0  0  0  0  0  0  0  0  0
   -6.4500   15.0890   -0.7310 N   0  0  0  0  0  0  0  0  0  0  0  0
   -5.7830   14.4560    1.5530 C   0  0  0  0  0  0  0  0  0  0  0  0
   -6.7470   14.6720    0.4570 C   0  0  0  0  0  0  0  0  0  0  0  0
   -8.4230   14.3690    0.7510 Cl  0  0  0  0  0  0  0  0  0  0  0  0
  1  2  1  0
  2  3  2  3
  2  4  1  0
  4  5  1  0
  3  6  1  0
  5  7  1  0
  6  8  1  0
  7  9  2  0
  7 10  1  0
  8 11  1  0
 10 12  1  0
 11 13  1  0
 12 14  1  0
 12 15  1  0
 13 16  1  0
 13 17  1  0
 14 18  1  0
 15 19  1  0
 16 20  1  0
 17 21  1  0
 20 21  1  0
 17 22  1  1
 18 23  1  0
 19 23  1  0
 21 24  1  0
 22 25  2  0
 24 26  2  0
 25 26  1  0
 26 27  1  0
M  END
