mac-x0180-mac-x0131
     RDKit          3D

 24 26  0  0  0  0  0  0  0  0999 V2000
   -7.3220   14.4490    2.0420 C   0  0  0  0  0  0  0  0  0  0  0  0
   -6.8610   14.5600    0.6090 C   0  0  0  0  0  0  0  0  0  0  0  0
   -7.8760   14.5760   -0.1880 O   0  0  0  0  0  0  0  0  0  0  0  0
   -5.6020   14.6500    0.1580 N   0  0  0  0  0  0  0  0  0  0  0  0
   -4.4510   14.8460   -0.5400 C   0  0  0  0  0  0  0  0  0  0  0  0
   -3.0350   15.0100    0.1640 C   0  0  2  0  0  0  0  0  0  0  0  0
   -4.4780   14.9430   -1.8430 C   0  0  0  0  0  0  0  0  0  0  0  0
   -3.2660   16.2920    0.7920 N   0  0  0  0  0  0  0  0  0  0  0  0
   -1.9930   15.0710   -0.8740 C   0  0  0  0  0  0  0  0  0  0  0  0
   -3.3850   15.1720   -2.7680 C   0  0  0  0  0  0  0  0  0  0  0  0
   -2.5810   14.1620    1.1820 N   0  0  0  0  0  0  0  0  0  0  0  0
   -3.6000   15.2910   -4.2360 C   0  0  0  0  0  0  0  0  0  0  0  0
   -2.1640   15.2560   -2.3170 C   0  0  0  0  0  0  0  0  0  0  0  0
   -1.1520   14.2320    1.4720 C   0  0  0  0  0  0  0  0  0  0  0  0
   -0.7380   14.8910   -0.6450 C   0  0  0  0  0  0  0  0  0  0  0  0
   -0.9970   15.4520   -3.1230 C   0  0  0  0  0  0  0  0  0  0  0  0
   -0.2870   14.5990    0.6200 N   0  0  0  0  0  0  0  0  0  0  0  0
   -0.3380   14.6260   -3.7660 N   0  0  0  0  0  0  0  0  0  0  0  0
   -0.4550   16.7690   -3.2040 O   0  0  0  0  0  0  0  0  0  0  0  0
   -0.4900   13.2550   -3.9090 C   0  0  0  0  0  0  0  0  0  0  0  0
    0.4940   12.2780   -3.6190 C   0  0  0  0  0  0  0  0  0  0  0  0
   -1.5460   12.5930   -4.3170 O   0  0  0  0  0  0  0  0  0  0  0  0
   -1.3420   11.3020   -4.3140 C   0  0  0  0  0  0  0  0  0  0  0  0
   -0.0570   11.0460   -3.8740 C   0  0  0  0  0  0  0  0  0  0  0  0
  1  2  1  0
  2  3  2  0
  2  4  1  0
  4  5  1  0
  5  6  1  0
  5  7  2  0
  6  8  1  1
  6  9  1  0
  7 10  1  0
  6 11  1  0
 10 12  1  0
  9 13  1  0
 10 13  2  0
 11 14  1  0
  9 15  2  0
 13 16  1  0
 14 17  2  0
 15 17  1  0
 16 18  2  3
 16 19  1  0
 18 20  1  0
 20 21  2  0
 20 22  1  0
 22 23  1  0
 21 24  1  0
 23 24  2  0
M  END
