mac-x0365-diamond-x0471_0_A
     RDKit          3D

 21 22  0  0  0  0  0  0  0  0999 V2000
   -0.9490   14.7740   -1.0150 O   0  0  0  0  0  0  0  0  0  0  0  0
   -1.9020   14.7790   -1.9660 C   0  0  0  0  0  0  0  0  0  0  0  0
   -1.6450   14.8110   -3.1610 O   0  0  0  0  0  0  0  0  0  0  0  0
   -3.3060   14.7410   -1.4530 C   0  0  0  0  0  0  0  0  0  0  0  0
   -4.3510   14.6200   -2.4620 C   0  0  0  0  0  0  0  0  0  0  0  0
   -3.6040   14.8060   -0.1160 C   0  0  0  0  0  0  0  0  0  0  0  0
   -5.6320   14.8970   -2.1800 C   0  0  0  0  0  0  0  0  0  0  0  0
   -5.0710   14.7240    0.1600 C   0  0  0  0  0  0  0  0  0  0  0  0
   -6.5660   14.7700   -3.1380 F   0  0  0  0  0  0  0  0  0  0  0  0
   -6.0170   15.3470   -0.8310 C   0  0  1  0  0  0  0  0  0  0  0  0
   -5.7290   14.1820    1.1480 N   0  0  0  0  0  0  0  0  0  0  0  0
   -5.8480   16.7100   -0.7990 O   0  0  0  0  0  0  0  0  0  0  0  0
   -7.3280   14.9860   -0.3050 N   0  0  0  0  0  0  0  0  0  0  0  0
   -7.0690   14.3690    0.8100 C   0  0  0  0  0  0  0  0  0  0  0  0
   -8.2040   13.8420    1.6880 C   0  0  0  0  0  0  0  0  0  0  0  0
   -8.0300   14.2190    3.0850 N   0  0  0  0  0  0  0  0  0  0  0  0
   -8.8840   15.1090    3.7090 C   0  0  0  0  0  0  0  0  0  0  0  0
   -9.4080   16.0480    3.1180 O   0  0  0  0  0  0  0  0  0  0  0  0
   -9.1780   14.8600    5.1880 C   0  0  0  0  0  0  0  0  0  0  0  0
   -9.5830   13.4150    5.4600 C   0  0  0  0  0  0  0  0  0  0  0  0
   -8.0410   15.3300    6.0820 C   0  0  0  0  0  0  0  0  0  0  0  0
  1  2  1  0
  2  3  2  0
  2  4  1  0
  4  5  1  0
  4  6  2  0
  5  7  2  0
  6  8  1  0
  7  9  1  0
  7 10  1  0
  8 10  1  0
  8 11  2  0
 10 12  1  6
 10 13  1  0
 11 14  1  0
 13 14  2  0
 14 15  1  0
 15 16  1  0
 16 17  1  0
 17 18  2  0
 17 19  1  0
 19 20  1  0
 19 21  1  0
M  END
