mac-x0124-diamond-x1018_0_A
     RDKit          3D

 17 19  0  0  0  0  0  0  0  0999 V2000
   -0.8370   14.9670   -3.2200 C   0  0  0  0  0  0  0  0  0  0  0  0
   -1.8050   14.3810   -2.2980 N   0  0  0  0  0  0  0  0  0  0  0  0
   -3.2700   14.5870   -2.4360 C   0  0  0  0  0  0  0  0  0  0  0  0
   -1.5420   14.6320   -0.9300 C   0  0  0  0  0  0  0  0  0  0  0  0
   -3.9410   14.7340   -0.9970 C   0  0  1  0  0  0  0  0  0  0  0  0
   -2.7030   14.8390   -0.1940 C   0  0  0  0  0  0  0  0  0  0  0  0
   -0.3230   14.6640   -0.4000 N   0  0  0  0  0  0  0  0  0  0  0  0
   -2.5770   15.0890    1.1210 C   0  0  0  0  0  0  0  0  0  0  0  0
   -0.3200   14.9070    0.9140 C   0  0  0  0  0  0  0  0  0  0  0  0
   -4.8150   15.9280   -0.8500 N   0  0  0  0  0  0  0  0  0  0  0  0
   -4.6680   13.5230   -0.3870 C   0  0  0  0  0  0  0  0  0  0  0  0
   -3.6980   15.3320    1.9150 N   0  0  0  0  0  0  0  0  0  0  0  0
   -1.3900   15.1150    1.6910 N   0  0  0  0  0  0  0  0  0  0  0  0
   -6.2560   15.6170   -0.7090 N   0  0  0  0  0  0  0  0  0  0  0  0
   -5.8110   13.5530    0.2970 C   0  0  0  0  0  0  0  0  0  0  0  0
   -6.4970   14.8210    0.4960 C   0  0  2  0  0  0  0  0  0  0  0  0
   -8.2560   14.5770    0.6170 Cl  0  0  0  0  0  0  0  0  0  0  0  0
  1  2  1  0
  2  3  1  0
  2  4  1  0
  5  3  1  6
  4  6  2  0
  5  6  1  0
  4  7  1  0
  6  8  1  0
  7  9  2  0
  5 10  1  0
  5 11  1  0
  8 12  1  0
  8 13  2  0
  9 13  1  0
 10 14  1  0
 11 15  2  0
 14 16  1  0
 15 16  1  0
 16 17  1  6
M  END
