mac-x0402-diamond-x0689_0_A
     RDKit          3D

 19 21  0  0  0  0  0  0  0  0999 V2000
   -2.1530   15.1600   -3.2040 Cl  0  0  0  0  0  0  0  0  0  0  0  0
   -3.5060   14.1650   -2.5830 C   0  0  2  0  0  0  0  0  0  0  0  0
   -4.8070   14.9630   -2.6580 C   0  0  0  0  0  0  0  0  0  0  0  0
   -3.1810   13.5600   -1.1850 C   0  0  0  0  0  0  0  0  0  0  0  0
   -4.4130   13.6250   -0.3060 C   0  0  2  0  0  0  0  0  0  0  0  0
   -5.4580   15.4040   -1.5670 C   0  0  0  0  0  0  0  0  0  0  0  0
   -4.8400   15.0710   -0.2620 C   0  0  1  0  0  0  0  0  0  0  0  0
   -4.4560   13.1160    1.4450 S   0  0  0  0  0  0  0  0  0  0  0  0
   -5.9880   14.0570    1.4910 C   0  0  2  0  0  0  0  0  0  0  0  0
   -5.5280   15.3040    1.0090 N   0  0  0  0  0  0  0  0  0  0  0  0
   -6.6010   14.1540    2.7920 N   0  0  0  0  0  0  0  0  0  0  0  0
   -4.3960   15.6190    1.8570 C   0  0  0  0  0  0  0  0  0  0  0  0
   -3.2730   16.2180    1.2290 N   0  0  0  0  0  0  0  0  0  0  0  0
   -2.1630   15.4750    0.8430 C   0  0  0  0  0  0  0  0  0  0  0  0
   -1.7930   15.5290   -0.4430 N   0  0  0  0  0  0  0  0  0  0  0  0
   -1.5100   14.7630    1.7730 N   0  0  0  0  0  0  0  0  0  0  0  0
   -0.7050   14.8420   -0.8020 C   0  0  0  0  0  0  0  0  0  0  0  0
   -0.4190   14.0920    1.3630 C   0  0  0  0  0  0  0  0  0  0  0  0
    0.0310   14.1040    0.0670 C   0  0  0  0  0  0  0  0  0  0  0  0
  2  1  1  1
  2  3  1  0
  2  4  1  0
  5  4  1  1
  3  6  2  0
  5  7  1  0
  7  6  1  6
  5  8  1  0
  8  9  1  0
  7 10  1  0
  9 10  1  0
  9 11  1  1
 10 12  1  0
 12 13  1  0
 13 14  1  0
 14 15  2  0
 14 16  1  0
 15 17  1  0
 16 18  2  0
 17 19  2  0
 18 19  1  0
M  END
