mac-x0415-mac-x0357
     RDKit          3D

 21 23  0  0  0  0  0  0  0  0999 V2000
   -0.4900   11.6320   -1.4480 O   0  0  0  0  0  0  0  0  0  0  0  0
    0.0750   12.5160   -2.3510 C   0  0  0  0  0  0  0  0  0  0  0  0
    1.3900   12.7400   -1.9370 O   0  0  0  0  0  0  0  0  0  0  0  0
   -0.6160   13.7340   -2.2700 O   0  0  0  0  0  0  0  0  0  0  0  0
   -0.0260   11.9090   -3.7120 C   0  0  0  0  0  0  0  0  0  0  0  0
    0.2460   12.6360   -4.8560 C   0  0  0  0  0  0  0  0  0  0  0  0
   -0.4140   10.5730   -3.8400 C   0  0  0  0  0  0  0  0  0  0  0  0
    0.5690   14.0360   -4.6720 C   0  0  0  0  0  0  0  0  0  0  0  0
   -0.5230    9.9550   -5.0780 C   0  0  0  0  0  0  0  0  0  0  0  0
    0.1470   11.9860   -6.0940 C   0  0  0  0  0  0  0  0  0  0  0  0
    0.3960   12.6340   -7.2100 O   0  0  0  0  0  0  0  0  0  0  0  0
    1.7670   14.8420   -4.4290 C   0  0  0  0  0  0  0  0  0  0  0  0
   -0.3420   14.9630   -4.6950 C   0  0  0  0  0  0  0  0  0  0  0  0
   -0.2320   10.6680   -6.2200 C   0  0  0  0  0  0  0  0  0  0  0  0
    1.5940   16.1410   -4.3220 N   0  0  0  0  0  0  0  0  0  0  0  0
    0.1510   16.3170   -4.4060 C   0  0  1  0  0  0  0  0  0  0  0  0
   -1.7140   14.7580   -4.9630 C   0  0  0  0  0  0  0  0  0  0  0  0
   -0.5160   17.3460   -5.2740 C   0  0  0  0  0  0  0  0  0  0  0  0
   -2.3980   15.7540   -5.5070 C   0  0  0  0  0  0  0  0  0  0  0  0
   -4.1650   15.4120   -5.9620 Br  0  0  0  0  0  0  0  0  0  0  0  0
   -1.7520   17.0630   -5.7830 C   0  0  0  0  0  0  0  0  0  0  0  0
  2  1  1  0
  2  3  1  0
  2  4  1  0
  2  5  1  0
  5  6  2  0
  5  7  1  0
  6  8  1  0
  7  9  2  0
  6 10  1  0
 10 11  1  0
  8 12  1  0
  8 13  2  0
  9 14  1  0
 10 14  2  0
 12 15  2  0
 13 16  1  0
 15 16  1  0
 13 17  1  0
 16 18  1  6
 17 19  2  0
 19 20  1  0
 18 21  2  0
 19 21  1  0
M  END
