mac-x0138-mac-x0231
     RDKit          3D

 30 33  0  0  0  0  0  0  0  0999 V2000
   -1.6730   14.6910   -3.2170 C   0  0  0  0  0  0  0  0  0  0  0  0
   -2.6790   14.8930   -2.2360 N   0  0  0  0  0  0  0  0  0  0  0  0
   -3.9970   15.1690   -2.4230 C   0  0  0  0  0  0  0  0  0  0  0  0
   -2.4530   14.8410   -0.9210 C   0  0  0  0  0  0  0  0  0  0  0  0
   -4.6210   15.2970   -1.2690 N   0  0  0  0  0  0  0  0  0  0  0  0
   -3.6430   15.0870   -0.3220 C   0  0  0  0  0  0  0  0  0  0  0  0
   -1.3160   14.6090   -0.3370 N   0  0  0  0  0  0  0  0  0  0  0  0
   -3.6250   15.0800    1.0730 C   0  0  0  0  0  0  0  0  0  0  0  0
   -1.3890   14.6310    0.9800 C   0  0  0  0  0  0  0  0  0  0  0  0
   -4.7640   15.3300    1.7960 N   0  0  0  0  0  0  0  0  0  0  0  0
   -0.1500   14.4420    1.4400 N   0  0  0  0  0  0  0  0  0  0  0  0
   -2.4570   14.8300    1.7290 N   0  0  0  0  0  0  0  0  0  0  0  0
    0.5610   15.0080    0.3120 C   0  0  0  0  0  0  0  0  0  0  0  0
    0.8450   13.9800   -0.7850 C   0  0  0  0  0  0  0  0  0  0  0  0
    2.2090   14.0570   -1.4480 C   0  0  0  0  0  0  0  0  0  0  0  0
    2.0290   13.6130   -2.7980 N   0  0  0  0  0  0  0  0  0  0  0  0
    1.5640   12.5310   -3.3100 C   0  0  0  0  0  0  0  0  0  0  0  0
    1.1220   11.4770   -2.6030 O   0  0  0  0  0  0  0  0  0  0  0  0
    1.4480   12.5280   -4.7610 C   0  0  0  0  0  0  0  0  0  0  0  0
    1.0170   13.9510   -4.8900 C   0  0  0  0  0  0  0  0  0  0  0  0
   -0.3850   14.2750   -5.1680 C   0  0  0  0  0  0  0  0  0  0  0  0
    1.9190   14.8500   -4.6440 N   0  0  0  0  0  0  0  0  0  0  0  0
   -0.7420   15.6240   -5.1100 C   0  0  0  0  0  0  0  0  0  0  0  0
    1.5650   16.1550   -4.6800 N   0  0  0  0  0  0  0  0  0  0  0  0
   -1.3450   13.3020   -5.4630 C   0  0  0  0  0  0  0  0  0  0  0  0
    0.2890   16.6340   -4.8030 C   0  0  0  0  0  0  0  0  0  0  0  0
   -2.0720   16.0100   -5.3440 C   0  0  0  0  0  0  0  0  0  0  0  0
   -2.6680   13.6830   -5.6970 C   0  0  0  0  0  0  0  0  0  0  0  0
    0.0140   17.8220   -4.6740 O   0  0  0  0  0  0  0  0  0  0  0  0
   -3.0330   15.0330   -5.6370 C   0  0  0  0  0  0  0  0  0  0  0  0
  1  2  1  0
  2  3  1  0
  2  4  1  0
  3  5  2  0
  4  6  2  0
  5  6  1  0
  4  7  1  0
  6  8  1  0
  7  9  2  0
  8 10  1  0
  9 11  1  0
  8 12  2  0
  9 12  1  0
 11 13  1  0
 13 14  1  0
 14 15  1  0
 15 16  1  0
 16 17  2  3
 17 18  1  0
 17 19  1  0
 19 20  1  0
 20 21  1  0
 20 22  2  0
 21 23  2  0
 22 24  1  0
 21 25  1  0
 23 26  1  0
 24 26  1  0
 23 27  1  0
 25 28  2  0
 26 29  2  0
 27 30  2  0
 28 30  1  0
M  END
