mac-x0345-mac-x0213
     RDKit          3D

 23 25  0  0  0  0  0  0  0  0999 V2000
   -7.2690   14.6870    0.4280 C   0  0  0  0  0  0  0  0  0  0  0  0
   -6.0350   14.8360   -0.4250 C   0  0  0  0  0  0  0  0  0  0  0  0
   -6.1920   14.5540   -1.7580 N   0  0  0  0  0  0  0  0  0  0  0  0
   -4.7850   15.2270    0.0730 C   0  0  0  0  0  0  0  0  0  0  0  0
   -4.3230   15.6620    1.8340 Br  0  0  0  0  0  0  0  0  0  0  0  0
   -3.7260   15.3200   -0.7770 C   0  0  0  0  0  0  0  0  0  0  0  0
   -5.1140   14.6550   -2.5900 C   0  0  0  0  0  0  0  0  0  0  0  0
   -5.1730   14.3660   -3.9750 N   0  0  0  0  0  0  0  0  0  0  0  0
   -3.8800   15.0390   -2.1100 C   0  0  0  0  0  0  0  0  0  0  0  0
   -4.3690   15.2300   -4.8530 C   0  0  0  0  0  0  0  0  0  0  0  0
   -3.1990   14.7350   -5.6310 C   0  0  0  0  0  0  0  0  0  0  0  0
   -2.0630   15.7040   -5.3870 C   0  0  0  0  0  0  0  0  0  0  0  0
   -0.9790   15.1980   -4.7660 C   0  0  0  0  0  0  0  0  0  0  0  0
   -2.0250   17.0750   -5.7490 C   0  0  0  0  0  0  0  0  0  0  0  0
   -0.8380   13.7970   -4.3020 C   0  0  0  0  0  0  0  0  0  0  0  0
    0.1590   15.9450   -4.4810 C   0  0  0  0  0  0  0  0  0  0  0  0
   -0.8750   17.8550   -5.4660 C   0  0  0  0  0  0  0  0  0  0  0  0
    0.1530   14.0460   -3.1850 C   0  0  2  0  0  0  0  0  0  0  0  0
    1.1510   15.0480   -3.7960 C   0  0  0  0  0  0  0  0  0  0  0  0
    0.2360   17.2860   -4.8250 C   0  0  0  0  0  0  0  0  0  0  0  0
    0.7410   12.7580   -2.6900 C   0  0  0  0  0  0  0  0  0  0  0  0
    0.0350   11.6690   -3.0580 O   0  0  0  0  0  0  0  0  0  0  0  0
    1.7290   12.6200   -2.0210 O   0  0  0  0  0  0  0  0  0  0  0  0
  1  2  1  0
  2  3  2  0
  2  4  1  0
  4  5  1  0
  4  6  2  0
  3  7  1  0
  7  8  1  0
  6  9  1  0
  7  9  2  0
  8 10  1  0
 10 11  1  0
 11 12  1  0
 12 13  1  0
 12 14  2  0
 13 15  1  0
 13 16  2  0
 14 17  1  0
 15 18  1  0
 16 19  1  0
 18 19  1  0
 16 20  1  0
 17 20  2  0
 18 21  1  6
 21 22  1  0
 21 23  2  0
M  END
