mac-x0178-diamond-x0465_0_A
     RDKit          3D

 24 25  0  0  0  0  0  0  0  0999 V2000
   -0.2670   18.2750   -6.4680 N   0  0  0  0  0  0  0  0  0  0  0  0
   -1.6470   17.7150   -5.6910 S   0  0  0  0  0  0  0  0  0  0  0  0
   -2.5690   17.2330   -6.6920 O   0  0  0  0  0  0  0  0  0  0  0  0
   -1.9960   18.7340   -4.7350 O   0  0  0  0  0  0  0  0  0  0  0  0
   -1.0240   16.3410   -4.7670 C   0  0  0  0  0  0  0  0  0  0  0  0
    0.1660   16.4420   -4.0240 C   0  0  0  0  0  0  0  0  0  0  0  0
   -1.7540   15.1690   -4.7950 C   0  0  0  0  0  0  0  0  0  0  0  0
    0.6170   15.3370   -3.2910 C   0  0  0  0  0  0  0  0  0  0  0  0
   -1.3000   14.0900   -4.0760 C   0  0  0  0  0  0  0  0  0  0  0  0
   -0.1250   14.1600   -3.3200 C   0  0  0  0  0  0  0  0  0  0  0  0
    0.2930   12.9530   -2.5930 C   0  0  0  0  0  0  0  0  0  0  0  0
    0.5570   12.8970   -1.3760 O   0  0  0  0  0  0  0  0  0  0  0  0
    0.3380   11.9420   -3.4960 N   0  0  0  0  0  0  0  0  0  0  0  0
    0.7860   12.3410   -4.8570 C   0  0  1  0  0  0  0  0  0  0  0  0
    0.7840   10.6940   -2.9730 O   0  0  0  0  0  0  0  0  0  0  0  0
    2.2020   12.9290   -4.8420 C   0  0  0  0  0  0  0  0  0  0  0  0
    0.7020   11.2740   -5.7930 O   0  0  0  0  0  0  0  0  0  0  0  0
   -0.5080   10.6860   -5.9730 C   0  0  0  0  0  0  0  0  0  0  0  0
   -0.6620    9.4970   -6.6770 C   0  0  0  0  0  0  0  0  0  0  0  0
   -1.6280   11.3050   -5.4310 C   0  0  0  0  0  0  0  0  0  0  0  0
    0.4030    8.8870   -7.2180 F   0  0  0  0  0  0  0  0  0  0  0  0
   -1.9090    8.9140   -6.8400 C   0  0  0  0  0  0  0  0  0  0  0  0
   -2.8870   10.7280   -5.5950 C   0  0  0  0  0  0  0  0  0  0  0  0
   -3.0300    9.5340   -6.2940 C   0  0  0  0  0  0  0  0  0  0  0  0
  2  1  1  0
  2  3  2  0
  2  4  2  0
  2  5  1  0
  5  6  2  0
  5  7  1  0
  6  8  1  0
  7  9  2  0
  8 10  2  0
  9 10  1  0
 10 11  1  0
 11 12  2  0
 11 13  1  0
 13 14  1  0
 13 15  1  0
 14 16  1  1
 14 17  1  0
 17 18  1  0
 18 19  2  0
 18 20  1  0
 19 21  1  0
 19 22  1  0
 20 23  2  0
 22 24  2  0
 23 24  1  0
M  END
