mac-x0271-mac-x0567
     RDKit          3D

 17 19  0  0  0  0  0  0  0  0999 V2000
   -3.9080   15.0330   -3.4860 O   0  0  0  0  0  0  0  0  0  0  0  0
   -4.4070   14.6900   -2.1930 C   0  0  1  0  0  0  0  0  0  0  0  0
   -3.6500   15.4510   -1.1380 C   0  0  0  0  0  0  0  0  0  0  0  0
   -5.8970   14.9670   -2.0240 C   0  0  0  0  0  0  0  0  0  0  0  0
   -6.3190   14.8540   -0.5870 C   0  0  0  0  0  0  0  0  0  0  0  0
   -3.9150   14.9100    0.2670 C   0  0  2  0  0  0  0  0  0  0  0  0
   -5.4590   14.8220    0.4610 C   0  0  0  0  0  0  0  0  0  0  0  0
   -7.7310   14.7860   -0.4350 O   0  0  0  0  0  0  0  0  0  0  0  0
   -3.2610   15.7030    1.3370 N   0  0  0  0  0  0  0  0  0  0  0  0
   -3.0180   13.6740    0.3290 C   0  0  0  0  0  0  0  0  0  0  0  0
   -6.0690   14.7200    1.7710 C   0  0  0  0  0  0  0  0  0  0  0  0
   -8.3210   14.8080    0.7920 C   0  0  0  0  0  0  0  0  0  0  0  0
   -1.6560   14.3640    0.3640 C   0  0  1  0  0  0  0  0  0  0  0  0
   -1.8620   15.2490    1.4680 N   0  0  0  0  0  0  0  0  0  0  0  0
   -9.5350   14.9150    0.9440 O   0  0  0  0  0  0  0  0  0  0  0  0
   -0.4910   13.5740    0.6620 N   0  0  0  0  0  0  0  0  0  0  0  0
   -7.4080   14.7080    1.9440 C   0  0  0  0  0  0  0  0  0  0  0  0
  2  1  1  6
  2  3  1  0
  2  4  1  0
  4  5  1  0
  6  3  1  6
  5  7  2  0
  6  7  1  0
  5  8  1  0
  6  9  1  0
  6 10  1  0
  7 11  1  0
  8 12  1  0
 10 13  1  0
  9 14  1  0
 13 14  1  0
 12 15  2  0
 13 16  1  1
 11 17  2  0
 12 17  1  0
M  END
