mac-x0588-mac-x0226
     RDKit          3D

 32 36  0  0  0  0  0  0  0  0999 V2000
   -4.3390   15.4700    1.1920 N   0  0  0  0  0  0  0  0  0  0  0  0
   -3.7170   14.7630    0.0700 C   0  0  2  0  0  0  0  0  0  0  0  0
   -2.2040   14.5160    0.1610 C   0  0  1  0  0  0  0  0  0  0  0  0
   -4.0650   15.4680   -1.1520 N   0  0  0  0  0  0  0  0  0  0  0  0
   -3.2700   15.0610   -2.3300 C   0  0  0  0  0  0  0  0  0  0  0  0
   -1.4790   15.4590   -0.7590 C   0  0  2  0  0  0  0  0  0  0  0  0
   -1.5140   14.8580    1.4090 N   0  0  0  0  0  0  0  0  0  0  0  0
   -1.8700   15.3810   -2.1360 N   0  0  0  0  0  0  0  0  0  0  0  0
   -0.0970   15.2200   -0.4100 N   0  0  0  0  0  0  0  0  0  0  0  0
   -0.1460   14.6770    0.9490 C   0  0  0  0  0  0  0  0  0  0  0  0
   -0.8570   14.8910   -3.1050 C   0  0  2  0  0  0  0  0  0  0  0  0
    0.5870   14.6160   -2.5860 C   0  0  0  0  0  0  0  0  0  0  0  0
   -0.7430   15.8810   -4.3170 C   0  0  1  0  0  0  0  0  0  0  0  0
    0.7360   13.4930   -1.5600 C   0  0  0  0  0  0  0  0  0  0  0  0
   -1.4690   17.1090   -4.1330 O   0  0  0  0  0  0  0  0  0  0  0  0
    0.6840   16.3120   -4.6810 C   0  0  0  0  0  0  0  0  0  0  0  0
    1.3830   12.3700   -2.1340 O   0  0  0  0  0  0  0  0  0  0  0  0
    0.5170   17.6880   -5.2930 C   0  0  0  0  0  0  0  0  0  0  0  0
   -0.9580   18.0070   -5.1190 C   0  0  0  0  0  0  0  0  0  0  0  0
    0.5550   11.4940   -2.7590 C   0  0  0  0  0  0  0  0  0  0  0  0
   -0.1260   10.6370   -2.1920 O   0  0  0  0  0  0  0  0  0  0  0  0
    0.6250   11.6290   -4.1980 C   0  0  0  0  0  0  0  0  0  0  0  0
    1.3680   12.5540   -4.9630 C   0  0  0  0  0  0  0  0  0  0  0  0
   -0.0110   10.8540   -5.1380 C   0  0  0  0  0  0  0  0  0  0  0  0
    1.2230   12.3650   -6.2760 N   0  0  0  0  0  0  0  0  0  0  0  0
    0.3760   11.3050   -6.3780 N   0  0  0  0  0  0  0  0  0  0  0  0
   -0.0130   10.7620   -7.6320 C   0  0  0  0  0  0  0  0  0  0  0  0
   -1.1900   10.0180   -7.7310 C   0  0  0  0  0  0  0  0  0  0  0  0
    0.7580   10.9440   -8.7730 C   0  0  0  0  0  0  0  0  0  0  0  0
   -1.5690    9.4740   -8.9610 C   0  0  0  0  0  0  0  0  0  0  0  0
    0.3870   10.4080   -9.9970 C   0  0  0  0  0  0  0  0  0  0  0  0
   -0.7820    9.6690  -10.0950 C   0  0  0  0  0  0  0  0  0  0  0  0
  2  1  1  1
  2  3  1  0
  2  4  1  0
  4  5  1  0
  3  6  1  0
  3  7  1  1
  5  8  1  0
  6  8  1  0
  6  9  1  6
  7 10  1  0
  9 10  1  0
  8 11  1  0
 11 12  1  1
 11 13  1  0
 12 14  1  0
 13 15  1  0
 13 16  1  1
 14 17  1  0
 16 18  1  0
 15 19  1  0
 18 19  1  0
 17 20  1  0
 20 21  2  0
 20 22  1  0
 22 23  1  0
 22 24  2  0
 23 25  2  0
 24 26  1  0
 25 26  1  0
 26 27  1  0
 27 28  2  0
 27 29  1  0
 28 30  1  0
 29 31  2  0
 30 32  2  0
 31 32  1  0
M  END
