mac-x0228-mac-x0379
     RDKit          3D

 13 14  0  0  0  0  0  0  0  0999 V2000
   -1.1920   14.6080   -1.6060 O   0  0  0  0  0  0  0  0  0  0  0  0
   -2.1540   14.7460   -2.5290 C   0  0  0  0  0  0  0  0  0  0  0  0
   -1.8760   14.8030   -3.7170 O   0  0  0  0  0  0  0  0  0  0  0  0
   -3.5320   14.8110   -1.9620 C   0  0  0  0  0  0  0  0  0  0  0  0
   -3.8830   14.6630   -0.5940 C   0  0  0  0  0  0  0  0  0  0  0  0
   -4.5510   15.0360   -2.9090 C   0  0  0  0  0  0  0  0  0  0  0  0
   -2.9530   14.4330    0.5320 C   0  0  0  0  0  0  0  0  0  0  0  0
   -5.2110   14.7350   -0.2570 C   0  0  0  0  0  0  0  0  0  0  0  0
   -5.8970   15.1150   -2.5240 C   0  0  0  0  0  0  0  0  0  0  0  0
   -6.1930   14.9590   -1.1950 C   0  0  0  0  0  0  0  0  0  0  0  0
   -5.8260   14.5900    1.0780 C   0  0  0  0  0  0  0  0  0  0  0  0
   -7.4590   15.0060   -0.6640 O   0  0  0  0  0  0  0  0  0  0  0  0
   -7.2950   14.5070    0.6840 C   0  0  0  0  0  0  0  0  0  0  0  0
  1  2  1  0
  2  3  2  0
  2  4  1  0
  4  5  2  0
  4  6  1  0
  5  7  1  0
  5  8  1  0
  6  9  2  0
  8 10  2  0
  9 10  1  0
  8 11  1  0
 10 12  1  0
 11 13  1  0
 12 13  1  0
M  END
