mac-x0338-mac-x0439
     RDKit          3D

 23 25  0  0  0  0  0  0  0  0999 V2000
   -4.0440   15.2530    1.8960 N   0  0  0  0  0  0  0  0  0  0  0  0
   -5.0640   15.0660    1.0250 C   0  0  0  0  0  0  0  0  0  0  0  0
   -6.2260   14.9040    1.3850 O   0  0  0  0  0  0  0  0  0  0  0  0
   -4.6800   15.0860   -0.4010 C   0  0  0  0  0  0  0  0  0  0  0  0
   -3.3570   15.0210   -0.7230 N   0  0  0  0  0  0  0  0  0  0  0  0
   -5.6720   15.1730   -1.3430 C   0  0  0  0  0  0  0  0  0  0  0  0
   -3.0920   15.0630   -2.0590 C   0  0  0  0  0  0  0  0  0  0  0  0
   -5.3970   15.2050   -2.6640 N   0  0  0  0  0  0  0  0  0  0  0  0
   -4.0930   15.1600   -3.0290 C   0  0  0  0  0  0  0  0  0  0  0  0
   -3.8410   15.2340   -4.5280 C   0  0  0  0  0  0  0  0  0  0  0  0
   -2.5060   14.8510   -5.0860 C   0  0  0  0  0  0  0  0  0  0  0  0
   -1.5100   15.9760   -5.2870 C   0  0  0  0  0  0  0  0  0  0  0  0
   -0.1010   15.5500   -5.2270 C   0  0  2  0  0  0  0  0  0  0  0  0
   -1.7540   17.2990   -5.5250 C   0  0  0  0  0  0  0  0  0  0  0  0
    0.2960   14.4710   -4.3220 C   0  0  0  0  0  0  0  0  0  0  0  0
    0.7120   16.6460   -4.6450 C   0  0  0  0  0  0  0  0  0  0  0  0
   -0.6540   18.2560   -5.6890 C   0  0  0  0  0  0  0  0  0  0  0  0
    1.1760   14.9520   -3.4800 C   0  0  0  0  0  0  0  0  0  0  0  0
    1.4280   16.2850   -3.6570 N   0  0  0  0  0  0  0  0  0  0  0  0
    0.5950   17.9780   -5.2610 C   0  0  0  0  0  0  0  0  0  0  0  0
    1.7770   14.0610   -2.4720 C   0  0  0  0  0  0  0  0  0  0  0  0
    3.0870   14.3010   -2.2630 O   0  0  0  0  0  0  0  0  0  0  0  0
    1.1820   13.1810   -1.8770 O   0  0  0  0  0  0  0  0  0  0  0  0
  1  2  1  0
  2  3  2  0
  2  4  1  0
  4  5  2  0
  4  6  1  0
  5  7  1  0
  6  8  2  0
  7  9  2  0
  8  9  1  0
  9 10  1  0
 10 11  1  0
 11 12  1  0
 12 13  1  0
 12 14  2  0
 13 15  1  1
 13 16  1  0
 14 17  1  0
 15 18  2  0
 16 19  2  0
 18 19  1  0
 16 20  1  0
 17 20  2  0
 18 21  1  0
 21 22  1  0
 21 23  2  0
M  END
