mac-x0341-mac-x0412
     RDKit          3D

 13 14  0  0  0  0  0  0  0  0999 V2000
   -6.9840   14.6210    2.4130 N   0  0  0  0  0  0  0  0  0  0  0  0
   -6.1720   14.6510    1.3050 C   0  0  0  0  0  0  0  0  0  0  0  0
   -4.8950   14.8420    1.4290 N   0  0  0  0  0  0  0  0  0  0  0  0
   -6.8380   14.4630   -0.0050 N   0  0  1  0  0  0  0  0  0  0  0  0
   -8.1090   14.9890    0.0290 O   0  0  0  0  0  0  0  0  0  0  0  0
   -6.0270   14.9770   -1.1130 C   0  0  0  0  0  0  0  0  0  0  0  0
   -4.0740   14.8500    0.3000 C   0  0  0  0  0  0  0  0  0  0  0  0
   -6.6000   15.4000   -2.1010 O   0  0  0  0  0  0  0  0  0  0  0  0
   -4.5740   14.9200   -0.9970 C   0  0  0  0  0  0  0  0  0  0  0  0
   -2.6890   14.7760    0.4740 C   0  0  0  0  0  0  0  0  0  0  0  0
   -1.8390   14.7740   -0.6360 C   0  0  0  0  0  0  0  0  0  0  0  0
   -3.7430   14.9260   -2.1160 C   0  0  0  0  0  0  0  0  0  0  0  0
   -2.3630   14.8510   -1.9290 C   0  0  0  0  0  0  0  0  0  0  0  0
  1  2  1  0
  2  3  2  0
  2  4  1  0
  4  5  1  1
  4  6  1  0
  3  7  1  0
  6  8  2  0
  6  9  1  0
  7  9  2  0
  7 10  1  0
 10 11  2  0
  9 12  1  0
 11 13  1  0
 12 13  2  0
M  CHG  2   4   1   5  -1
M  END
