mac-x0282-diamond-x0849_0_A
     RDKit          3D

 10 11  0  0  0  0  0  0  0  0999 V2000
   -3.9060   15.1060   -2.8310 Br  0  0  0  0  0  0  0  0  0  0  0  0
   -3.5750   14.9550   -1.0000 C   0  0  0  0  0  0  0  0  0  0  0  0
   -4.4910   14.9720    0.0270 C   0  0  0  0  0  0  0  0  0  0  0  0
   -2.2870   14.7980   -0.4720 C   0  0  0  0  0  0  0  0  0  0  0  0
   -2.4500   14.7160    0.9010 C   0  0  0  0  0  0  0  0  0  0  0  0
   -3.7830   14.8170    1.1920 N   0  0  0  0  0  0  0  0  0  0  0  0
   -0.9800   14.7110   -0.9810 C   0  0  0  0  0  0  0  0  0  0  0  0
    0.0520   14.5550   -0.0650 C   0  0  0  0  0  0  0  0  0  0  0  0
   -1.4970   14.5620    1.8180 N   0  0  0  0  0  0  0  0  0  0  0  0
   -0.2640   14.4880    1.2850 C   0  0  0  0  0  0  0  0  0  0  0  0
  1  2  1  0
  2  3  2  0
  2  4  1  0
  4  5  2  0
  3  6  1  0
  5  6  1  0
  4  7  1  0
  7  8  2  0
  5  9  1  0
  8 10  1  0
  9 10  2  0
M  END
