mac-x0361-diamond-x0465_0_A
     RDKit          3D

 25 26  0  0  0  0  0  0  0  0999 V2000
   -6.1360   14.9290    1.6940 N   0  0  0  0  0  0  0  0  0  0  0  0
   -6.4100   14.7190    0.3620 C   0  0  0  0  0  0  0  0  0  0  0  0
   -7.5600   14.4630    0.0180 O   0  0  0  0  0  0  0  0  0  0  0  0
   -5.3130   14.8230   -0.6460 C   0  0  0  0  0  0  0  0  0  0  0  0
   -3.9800   14.7520   -0.2280 C   0  0  0  0  0  0  0  0  0  0  0  0
   -5.5830   14.9840   -2.0130 C   0  0  0  0  0  0  0  0  0  0  0  0
   -2.9400   14.8380   -1.1660 C   0  0  0  0  0  0  0  0  0  0  0  0
   -4.5380   15.0660   -2.9440 C   0  0  0  0  0  0  0  0  0  0  0  0
   -3.2120   14.9950   -2.5330 C   0  0  0  0  0  0  0  0  0  0  0  0
   -2.1110   15.0660   -3.3590 O   0  0  0  0  0  0  0  0  0  0  0  0
   -1.1180   14.0310   -3.2410 C   0  0  0  0  0  0  0  0  0  0  0  0
   -0.5030   13.6630   -4.6100 C   0  0  0  0  0  0  0  0  0  0  0  0
    0.7120   12.6820   -4.5600 C   0  0  2  0  0  0  0  0  0  0  0  0
    2.0950   13.3300   -4.7360 C   0  0  0  0  0  0  0  0  0  0  0  0
    0.5640   11.5190   -5.4400 O   0  0  0  0  0  0  0  0  0  0  0  0
    0.7380   12.1060   -3.1240 C   0  0  0  0  0  0  0  0  0  0  0  0
    1.0230   12.7120   -2.1040 O   0  0  0  0  0  0  0  0  0  0  0  0
    0.4120   10.7990   -3.0250 O   0  0  0  0  0  0  0  0  0  0  0  0
   -0.6070   10.8340   -5.6180 C   0  0  0  0  0  0  0  0  0  0  0  0
   -0.6970    9.8160   -6.5740 C   0  0  0  0  0  0  0  0  0  0  0  0
   -1.7270   11.1390   -4.8440 C   0  0  0  0  0  0  0  0  0  0  0  0
    0.3550    9.4890   -7.3390 F   0  0  0  0  0  0  0  0  0  0  0  0
   -1.8800    9.1100   -6.7590 C   0  0  0  0  0  0  0  0  0  0  0  0
   -2.9190   10.4330   -5.0300 C   0  0  0  0  0  0  0  0  0  0  0  0
   -2.9970    9.4180   -5.9850 C   0  0  0  0  0  0  0  0  0  0  0  0
  1  2  1  0
  2  3  2  0
  2  4  1  0
  4  5  2  0
  4  6  1  0
  5  7  1  0
  6  8  2  0
  7  9  2  0
  8  9  1  0
  9 10  1  0
 10 11  1  0
 11 12  1  0
 12 13  1  0
 13 14  1  6
 13 15  1  0
 13 16  1  0
 16 17  2  0
 16 18  1  0
 15 19  1  0
 19 20  2  0
 19 21  1  0
 20 22  1  0
 20 23  1  0
 21 24  2  0
 23 25  2  0
 24 25  1  0
M  END
