mac-x0509-diamond-x0727_0_A
     RDKit          3D

 18 19  0  0  0  0  0  0  0  0999 V2000
   -1.9140    8.2680   -5.7850 O   0  0  0  0  0  0  0  0  0  0  0  0
   -0.9940    8.6160   -6.5160 C   0  0  0  0  0  0  0  0  0  0  0  0
   -0.8110    9.9730   -7.2230 C   0  0  1  0  0  0  0  0  0  0  0  0
    0.1030    7.8470   -6.8880 N   0  0  0  0  0  0  0  0  0  0  0  0
    0.0860   11.0310   -6.5760 C   0  0  0  0  0  0  0  0  0  0  0  0
    0.0070    9.5530   -8.3870 C   0  0  0  0  0  0  0  0  0  0  0  0
    0.5450    8.3010   -8.1250 C   0  0  0  0  0  0  0  0  0  0  0  0
   -0.1860   11.4720   -5.3170 N   0  0  0  0  0  0  0  0  0  0  0  0
    1.0690   11.4950   -7.1680 O   0  0  0  0  0  0  0  0  0  0  0  0
    0.2730   10.2270   -9.5560 C   0  0  0  0  0  0  0  0  0  0  0  0
    1.3830    7.6730   -9.0080 C   0  0  0  0  0  0  0  0  0  0  0  0
    0.7870   12.3120   -4.6390 C   0  0  1  0  0  0  0  0  0  0  0  0
    1.1170    9.6150  -10.4720 C   0  0  0  0  0  0  0  0  0  0  0  0
    1.6700    8.3500  -10.1990 C   0  0  0  0  0  0  0  0  0  0  0  0
    0.5260   13.7910   -4.8950 C   0  0  0  0  0  0  0  0  0  0  0  0
    0.7450   11.9990   -3.1440 C   0  0  0  0  0  0  0  0  0  0  0  0
    0.2140   11.0000   -2.6730 O   0  0  0  0  0  0  0  0  0  0  0  0
    1.3560   12.9230   -2.3700 O   0  0  0  0  0  0  0  0  0  0  0  0
  1  2  2  0
  2  3  1  0
  2  4  1  0
  3  5  1  1
  3  6  1  0
  4  7  1  0
  6  7  2  0
  5  8  1  0
  5  9  2  0
  6 10  1  0
  7 11  1  0
  8 12  1  0
 10 13  2  0
 11 14  2  0
 13 14  1  0
 12 15  1  1
 12 16  1  0
 16 17  2  0
 16 18  1  0
M  END
