mac-x0387-diamond-x0727_0_A
     RDKit          3D

 25 27  0  0  0  0  0  0  0  0999 V2000
   -3.8770   15.1950    1.6560 N   0  0  0  0  0  0  0  0  0  0  0  0
   -2.6240   14.8990    1.0990 C   0  0  0  0  0  0  0  0  0  0  0  0
   -1.6340   14.6550    1.9630 N   0  0  0  0  0  0  0  0  0  0  0  0
   -2.4460   14.8730   -0.2960 C   0  0  0  0  0  0  0  0  0  0  0  0
   -1.1500   14.5910   -0.8000 C   0  0  0  0  0  0  0  0  0  0  0  0
   -0.4140   14.3880    1.4730 C   0  0  0  0  0  0  0  0  0  0  0  0
   -3.4980   15.1210   -1.2070 C   0  0  0  0  0  0  0  0  0  0  0  0
   -0.1290   14.3490    0.1280 C   0  0  0  0  0  0  0  0  0  0  0  0
   -0.9250   14.5660   -2.2030 C   0  0  0  0  0  0  0  0  0  0  0  0
   -3.2820   15.0920   -2.5790 C   0  0  0  0  0  0  0  0  0  0  0  0
    0.4770   14.2780   -2.7370 C   0  0  0  0  0  0  0  0  0  0  0  0
   -2.0100   14.8190   -3.0750 C   0  0  0  0  0  0  0  0  0  0  0  0
    0.9740   12.9590   -2.4280 O   0  0  0  0  0  0  0  0  0  0  0  0
    0.5820   11.9620   -3.2720 C   0  0  0  0  0  0  0  0  0  0  0  0
    0.8760   12.2960   -4.7450 C   0  0  1  0  0  0  0  0  0  0  0  0
    0.0690   10.9070   -2.8940 O   0  0  0  0  0  0  0  0  0  0  0  0
    0.1530   11.3480   -5.5930 N   0  0  0  0  0  0  0  0  0  0  0  0
    0.4740   13.7060   -5.1360 C   0  0  0  0  0  0  0  0  0  0  0  0
    0.7150   11.0590   -6.8090 C   0  0  0  0  0  0  0  0  0  0  0  0
    1.6480   11.6960   -7.2200 O   0  0  0  0  0  0  0  0  0  0  0  0
    0.0960    9.8870   -7.5610 C   0  0  0  0  0  0  0  0  0  0  0  0
   -1.2190   10.2600   -8.2480 C   0  0  0  0  0  0  0  0  0  0  0  0
   -0.2300    8.7130   -6.6170 C   0  0  0  0  0  0  0  0  0  0  0  0
   -2.1310    9.0590   -8.0400 C   0  0  0  0  0  0  0  0  0  0  0  0
   -1.7380    8.5380   -6.6690 C   0  0  0  0  0  0  0  0  0  0  0  0
  1  2  1  0
  2  3  2  0
  2  4  1  0
  4  5  2  0
  3  6  1  0
  4  7  1  0
  5  8  1  0
  6  8  2  0
  5  9  1  0
  7 10  2  0
  9 11  1  0
  9 12  2  0
 10 12  1  0
 11 13  1  0
 13 14  1  0
 14 15  1  0
 14 16  2  0
 15 17  1  0
 15 18  1  6
 17 19  1  0
 19 20  2  0
 19 21  1  0
 21 22  1  0
 21 23  1  0
 22 24  1  0
 23 25  1  0
 24 25  1  0
M  END
