mac-x0326-diamond-x0849_0_A
     RDKit          3D

 25 28  0  0  0  0  0  0  0  0999 V2000
   -5.8900   12.9380   -3.0020 Cl  0  0  0  0  0  0  0  0  0  0  0  0
   -4.3800   13.6260   -2.5040 C   0  0  0  0  0  0  0  0  0  0  0  0
   -3.2260   13.7040   -3.1710 C   0  0  0  0  0  0  0  0  0  0  0  0
   -4.1200   14.2290   -1.2680 C   0  0  0  0  0  0  0  0  0  0  0  0
   -1.9290   14.1170   -3.1510 C   0  0  0  0  0  0  0  0  0  0  0  0
   -2.7690   14.7650   -0.9950 C   0  0  0  0  0  0  0  0  0  0  0  0
   -3.2160   14.3230   -1.7800 C   0  0  0  0  0  0  0  0  0  0  0  0
   -0.8980   14.0430   -4.0850 N   0  0  0  0  0  0  0  0  0  0  0  0
   -1.6810   14.6910   -1.9590 C   0  0  0  0  0  0  0  0  0  0  0  0
   -2.2460   14.2300   -0.6910 C   0  0  0  0  0  0  0  0  0  0  0  0
   -4.3670   15.1160   -1.5140 C   0  0  0  0  0  0  0  0  0  0  0  0
    0.1830   14.5880   -3.5600 C   0  0  0  0  0  0  0  0  0  0  0  0
   -0.0110   15.1880   -1.9630 S   0  0  0  0  0  0  0  0  0  0  0  0
   -2.5260   14.9110    0.5490 C   0  0  0  0  0  0  0  0  0  0  0  0
   -4.5230   15.7270   -0.2800 C   0  0  0  0  0  0  0  0  0  0  0  0
   -1.0280   13.5230   -0.7360 C   0  0  0  0  0  0  0  0  0  0  0  0
    1.5130   14.6980   -4.2570 C   0  0  0  0  0  0  0  0  0  0  0  0
   -3.6390   15.6290    0.7300 N   0  0  0  0  0  0  0  0  0  0  0  0
   -1.6930   14.8770    1.5990 N   0  0  0  0  0  0  0  0  0  0  0  0
   -0.1910   13.5330    0.3550 C   0  0  0  0  0  0  0  0  0  0  0  0
    1.8600   13.4420   -5.0500 C   0  0  0  0  0  0  0  0  0  0  0  0
   -0.5520   14.2020    1.4820 C   0  0  0  0  0  0  0  0  0  0  0  0
    1.1650   12.2310   -4.5100 C   0  0  0  0  0  0  0  0  0  0  0  0
    0.4360   11.5570   -5.4270 O   0  0  0  0  0  0  0  0  0  0  0  0
    1.2650   11.8720   -3.3460 O   0  0  0  0  0  0  0  0  0  0  0  0
  1  2  1  0
  2  3  2  0
  2  4  1  0
  3  5  1  0
  4  6  2  0
  3  7  1  0
  5  8  1  0
  5  9  2  0
  6  9  1  0
  7 10  1  0
  7 11  2  0
  8 12  2  0
  9 13  1  0
 12 13  1  0
 10 14  2  0
 11 15  1  0
 10 16  1  0
 12 17  1  0
 14 18  1  0
 15 18  2  0
 14 19  1  0
 16 20  2  0
 17 21  1  0
 19 22  2  0
 20 22  1  0
 21 23  1  0
 23 24  1  0
 23 25  2  0
M  END
