mac-x0138-mac-x0453
     RDKit          3D

 14 15  0  0  0  0  0  0  0  0999 V2000
   -1.1190   14.7190   -3.2500 C   0  0  0  0  0  0  0  0  0  0  0  0
   -2.1380   14.8500   -2.2400 N   0  0  0  0  0  0  0  0  0  0  0  0
   -3.4580   15.1250   -2.4560 C   0  0  0  0  0  0  0  0  0  0  0  0
   -1.9480   14.7220   -0.8890 C   0  0  0  0  0  0  0  0  0  0  0  0
   -4.1380   15.1840   -1.3260 N   0  0  0  0  0  0  0  0  0  0  0  0
   -3.2050   14.9350   -0.3400 C   0  0  0  0  0  0  0  0  0  0  0  0
   -0.8060   14.4500   -0.2220 N   0  0  0  0  0  0  0  0  0  0  0  0
   -3.3040   14.8630    1.0660 C   0  0  0  0  0  0  0  0  0  0  0  0
   -1.0110   14.3980    1.1110 C   0  0  0  0  0  0  0  0  0  0  0  0
   -4.5200   15.0600    1.7450 N   0  0  0  0  0  0  0  0  0  0  0  0
    0.0490   14.1230    1.9510 N   0  0  0  0  0  0  0  0  0  0  0  0
   -2.1640   14.5890    1.7510 N   0  0  0  0  0  0  0  0  0  0  0  0
   -5.5830   14.1610    1.3480 C   0  0  0  0  0  0  0  0  0  0  0  0
   -6.7390   14.1320    2.2280 N   0  0  0  0  0  0  0  0  0  0  0  0
  1  2  1  0
  2  3  1  0
  2  4  1  0
  3  5  2  0
  4  6  2  0
  5  6  1  0
  4  7  1  0
  6  8  1  0
  7  9  2  0
  8 10  1  0
  9 11  1  0
  8 12  2  0
  9 12  1  0
 10 13  1  0
 13 14  1  0
M  END
