mac-x0451-mac-x0345
     RDKit          3D

 13 14  0  0  0  0  0  0  0  0999 V2000
   -6.4440   14.8130    3.1060 N   0  0  0  0  0  0  0  0  0  0  0  0
   -5.6790   14.8260    1.9990 C   0  0  0  0  0  0  0  0  0  0  0  0
   -6.2230   14.8670    0.8370 N   0  0  0  0  0  0  0  0  0  0  0  0
   -3.9610   14.8010    1.9820 S   0  0  0  0  0  0  0  0  0  0  0  0
   -5.2630   14.8870   -0.1400 C   0  0  0  0  0  0  0  0  0  0  0  0
   -3.9510   14.8520    0.2790 C   0  0  0  0  0  0  0  0  0  0  0  0
   -5.5880   14.9360   -1.4790 C   0  0  0  0  0  0  0  0  0  0  0  0
   -2.8780   14.8600   -0.6060 C   0  0  0  0  0  0  0  0  0  0  0  0
   -7.0590   14.9740   -1.7940 C   0  0  0  0  0  0  0  0  0  0  0  0
   -4.5320   14.9410   -2.4240 C   0  0  0  0  0  0  0  0  0  0  0  0
   -3.1950   14.9040   -1.9600 C   0  0  0  0  0  0  0  0  0  0  0  0
   -2.1810   14.9120   -2.8450 F   0  0  0  0  0  0  0  0  0  0  0  0
   -4.7950   14.9760   -3.7980 N   0  0  0  0  0  0  0  0  0  0  0  0
  1  2  1  0
  2  3  2  0
  2  4  1  0
  3  5  1  0
  4  6  1  0
  5  6  2  0
  5  7  1  0
  6  8  1  0
  7  9  1  0
  7 10  2  0
  8 11  2  0
 10 11  1  0
 11 12  1  0
 10 13  1  0
M  END
