mac-x0139-mac-x0348
     RDKit          3D

 26 29  0  0  0  0  0  0  0  0999 V2000
   -2.6120   14.6660   -3.1460 C   0  0  0  0  0  0  0  0  0  0  0  0
   -1.3060   14.7520   -2.4900 N   0  0  0  0  0  0  0  0  0  0  0  0
   -0.2000   14.4470   -3.4580 C   0  0  2  0  0  0  0  0  0  0  0  0
   -1.3220   14.7800   -1.0830 C   0  0  0  0  0  0  0  0  0  0  0  0
    1.1090   13.8460   -2.9990 C   0  0  0  0  0  0  0  0  0  0  0  0
   -2.5280   14.9420   -0.4810 C   0  0  0  0  0  0  0  0  0  0  0  0
   -0.1630   14.6830   -0.3070 N   0  0  0  0  0  0  0  0  0  0  0  0
   -0.1580   15.5300   -4.5480 C   0  0  2  0  0  0  0  0  0  0  0  0
    0.8290   12.4960   -2.4350 C   0  0  0  0  0  0  0  0  0  0  0  0
   -2.6020   14.9740    0.9850 C   0  0  0  0  0  0  0  0  0  0  0  0
   -0.3020   14.6970    0.9930 C   0  0  0  0  0  0  0  0  0  0  0  0
   -3.8910   15.1260   -0.8800 C   0  0  0  0  0  0  0  0  0  0  0  0
    0.5730   16.8360   -4.1700 C   0  0  0  0  0  0  0  0  0  0  0  0
   -1.5030   16.0860   -4.9170 C   0  0  1  0  0  0  0  0  0  0  0  0
    0.6390   12.2770   -1.2630 O   0  0  0  0  0  0  0  0  0  0  0  0
    0.7610   11.4940   -3.3350 O   0  0  0  0  0  0  0  0  0  0  0  0
   -1.4690   14.7670    1.6730 N   0  0  0  0  0  0  0  0  0  0  0  0
   -3.8010   15.2040    1.4130 N   0  0  0  0  0  0  0  0  0  0  0  0
   -4.5620   15.2870    0.2620 C   0  0  0  0  0  0  0  0  0  0  0  0
   -0.0710   17.9440   -4.9280 N   0  0  0  0  0  0  0  0  0  0  0  0
   -1.0430   17.2800   -5.7700 C   0  0  2  0  0  0  0  0  0  0  0  0
   -2.5540   15.2360   -5.5690 C   0  0  0  0  0  0  0  0  0  0  0  0
    0.9390   18.5450   -5.7840 C   0  0  0  0  0  0  0  0  0  0  0  0
   -3.4220   15.8150   -6.3920 C   0  0  0  0  0  0  0  0  0  0  0  0
   -2.2330   17.9650   -6.3490 C   0  0  0  0  0  0  0  0  0  0  0  0
   -3.3370   17.2360   -6.6420 C   0  0  0  0  0  0  0  0  0  0  0  0
  1  2  1  0
  2  3  1  0
  2  4  1  0
  3  5  1  1
  4  6  2  0
  4  7  1  0
  3  8  1  0
  5  9  1  0
  6 10  1  0
  7 11  2  0
  6 12  1  0
  8 13  1  1
  8 14  1  0
  9 15  2  0
  9 16  1  0
 10 17  1  0
 11 17  1  0
 10 18  2  0
 12 19  2  0
 18 19  1  0
 13 20  1  0
 14 21  1  0
 20 21  1  0
 14 22  1  6
 20 23  1  0
 22 24  2  0
 21 25  1  1
 24 26  1  0
 25 26  2  0
M  END
