mac-x0373-mac-x0381
     RDKit          3D

 32 35  0  0  0  0  0  0  0  0999 V2000
    0.4080   13.2650   -1.2960 O   0  0  0  0  0  0  0  0  0  0  0  0
    0.2500   14.3270   -2.1160 C   0  0  0  0  0  0  0  0  0  0  0  0
    1.1870   15.0930   -2.2390 O   0  0  0  0  0  0  0  0  0  0  0  0
   -1.0980   14.4390   -2.8200 C   0  0  1  0  0  0  0  0  0  0  0  0
   -1.4620   13.2080   -3.6500 C   0  0  0  0  0  0  0  0  0  0  0  0
   -2.2550   14.6880   -1.8870 C   0  0  0  0  0  0  0  0  0  0  0  0
   -0.8550   12.9530   -4.8910 C   0  0  0  0  0  0  0  0  0  0  0  0
   -2.4250   12.2950   -3.1740 C   0  0  0  0  0  0  0  0  0  0  0  0
   -3.4680   15.1970   -2.3650 C   0  0  0  0  0  0  0  0  0  0  0  0
   -2.1050   14.3790   -0.5280 C   0  0  0  0  0  0  0  0  0  0  0  0
   -1.2040   11.8180   -5.6300 C   0  0  0  0  0  0  0  0  0  0  0  0
   -2.7720   11.1650   -3.9120 C   0  0  0  0  0  0  0  0  0  0  0  0
   -4.5240   15.3650   -1.4960 C   0  0  0  0  0  0  0  0  0  0  0  0
   -3.1650   14.5470    0.3370 C   0  0  0  0  0  0  0  0  0  0  0  0
   -2.1600   10.9270   -5.1420 C   0  0  0  0  0  0  0  0  0  0  0  0
   -4.3680   15.0240   -0.1600 C   0  0  0  0  0  0  0  0  0  0  0  0
   -5.5130   15.1570    0.7350 C   0  0  0  0  0  0  0  0  0  0  0  0
   -6.0900   13.8070    1.1330 C   0  0  0  0  0  0  0  0  0  0  0  0
   -7.4340   14.0550    1.8050 C   0  0  0  0  0  0  0  0  0  0  0  0
   -7.3200   14.1990    3.2550 N   0  0  0  0  0  0  0  0  0  0  0  0
   -8.2940   14.6180    3.9430 C   0  0  0  0  0  0  0  0  0  0  0  0
   -8.1010   14.6720    5.2830 N   0  0  0  0  0  0  0  0  0  0  0  0
   -9.5860   15.0090    3.3470 C   0  0  0  0  0  0  0  0  0  0  0  0
   -9.5910   15.8820    2.2660 C   0  0  0  0  0  0  0  0  0  0  0  0
  -10.7720   14.4960    3.8550 C   0  0  0  0  0  0  0  0  0  0  0  0
  -10.7800   16.2510    1.6490 C   0  0  0  0  0  0  0  0  0  0  0  0
  -11.9740   14.8540    3.2470 C   0  0  0  0  0  0  0  0  0  0  0  0
  -11.9900   15.7230    2.1390 C   0  0  0  0  0  0  0  0  0  0  0  0
  -10.7940   17.1290    0.5530 C   0  0  0  0  0  0  0  0  0  0  0  0
  -13.1850   16.0800    1.5000 C   0  0  0  0  0  0  0  0  0  0  0  0
  -11.9960   17.4770   -0.0580 C   0  0  0  0  0  0  0  0  0  0  0  0
  -13.1910   16.9480    0.4140 C   0  0  0  0  0  0  0  0  0  0  0  0
  1  2  1  0
  2  3  2  0
  4  2  1  1
  4  5  1  0
  4  6  1  0
  5  7  2  0
  5  8  1  0
  6  9  2  0
  6 10  1  0
  7 11  1  0
  8 12  2  0
  9 13  1  0
 10 14  2  0
 11 15  2  0
 12 15  1  0
 13 16  2  0
 14 16  1  0
 16 17  1  0
 17 18  1  0
 18 19  1  0
 19 20  1  0
 20 21  2  3
 21 22  1  0
 21 23  1  0
 23 24  2  0
 23 25  1  0
 24 26  1  0
 25 27  2  0
 26 28  2  0
 27 28  1  0
 26 29  1  0
 28 30  1  0
 29 31  2  0
 30 32  2  0
 31 32  1  0
M  END
