mac-x0271-mac-x0302
     RDKit          3D

 19 20  0  0  0  0  0  0  0  0999 V2000
   -3.8500   15.2640   -2.8120 N   0  0  0  0  0  0  0  0  0  0  0  0
   -2.6020   15.0120   -2.6790 C   0  0  0  0  0  0  0  0  0  0  0  0
   -1.5900   15.0350   -3.5770 N   0  0  0  0  0  0  0  0  0  0  0  0
   -4.5870   15.1570   -1.6390 C   0  0  0  0  0  0  0  0  0  0  0  0
   -5.9830   14.9970   -1.5650 C   0  0  0  0  0  0  0  0  0  0  0  0
   -3.8500   15.2130   -0.4470 C   0  0  0  0  0  0  0  0  0  0  0  0
   -0.7370   13.8750   -3.7690 C   0  0  0  0  0  0  0  0  0  0  0  0
   -6.8200   14.9210   -2.6400 O   0  0  0  0  0  0  0  0  0  0  0  0
   -6.5840   14.8960   -0.3360 C   0  0  0  0  0  0  0  0  0  0  0  0
   -4.4720   15.1110    0.7920 C   0  0  0  0  0  0  0  0  0  0  0  0
    0.5170   13.9350   -2.9120 C   0  0  0  0  0  0  0  0  0  0  0  0
   -5.8510   14.9500    0.8410 C   0  0  0  0  0  0  0  0  0  0  0  0
   -7.9820   14.7350   -0.3110 O   0  0  0  0  0  0  0  0  0  0  0  0
    1.6140   14.2590   -3.6220 O   0  0  0  0  0  0  0  0  0  0  0  0
    0.6040   13.7150   -1.7160 O   0  0  0  0  0  0  0  0  0  0  0  0
   -6.5620   14.8400    2.0990 C   0  0  0  0  0  0  0  0  0  0  0  0
   -8.6880   14.8400    0.8700 C   0  0  0  0  0  0  0  0  0  0  0  0
   -9.9060   14.9790    0.9060 O   0  0  0  0  0  0  0  0  0  0  0  0
   -7.8960   14.7870    2.1060 C   0  0  0  0  0  0  0  0  0  0  0  0
  1  2  2  3
  2  3  1  0
  1  4  1  0
  4  5  2  0
  4  6  1  0
  3  7  1  0
  5  8  1  0
  5  9  1  0
  6 10  2  0
  7 11  1  0
  9 12  2  0
 10 12  1  0
  9 13  1  0
 11 14  1  0
 11 15  2  0
 12 16  1  0
 13 17  1  0
 17 18  2  0
 16 19  2  0
 17 19  1  0
M  END
