mac-x0116-mac-x0441
     RDKit          3D

 34 38  0  0  0  0  0  0  0  0999 V2000
   -5.8640   14.8120    1.6560 C   0  0  0  0  0  0  0  0  0  0  0  0
   -4.4430   15.1490    1.6790 N   0  0  0  0  0  0  0  0  0  0  0  0
   -3.7520   14.9840    0.4770 C   0  0  0  0  0  0  0  0  0  0  0  0
   -6.2560   13.3710    1.6840 C   0  0  0  0  0  0  0  0  0  0  0  0
   -6.2280   12.6860    0.5030 O   0  0  0  0  0  0  0  0  0  0  0  0
   -6.6760   12.5430    2.6990 C   0  0  0  0  0  0  0  0  0  0  0  0
   -6.9270   11.2890    2.1160 C   0  0  0  0  0  0  0  0  0  0  0  0
   -6.6380   11.4260    0.7770 C   0  0  0  0  0  0  0  0  0  0  0  0
   -4.3390   15.1820   -0.7310 N   0  0  0  0  0  0  0  0  0  0  0  0
   -2.4090   14.5900    0.5010 C   0  0  0  0  0  0  0  0  0  0  0  0
   -3.6000   14.9760   -1.8440 C   0  0  0  0  0  0  0  0  0  0  0  0
   -1.7680   14.3980   -0.7220 C   0  0  0  0  0  0  0  0  0  0  0  0
   -1.5750   14.3380    1.5640 N   0  0  0  0  0  0  0  0  0  0  0  0
   -2.3090   14.5770   -1.9390 N   0  0  0  0  0  0  0  0  0  0  0  0
   -0.4960   13.9840   -0.3760 N   0  0  0  0  0  0  0  0  0  0  0  0
   -0.4480   13.9820    1.0030 C   0  0  0  0  0  0  0  0  0  0  0  0
    0.6380   13.5910   -1.2340 C   0  0  0  0  0  0  0  0  0  0  0  0
    0.5480   13.6890   -2.7030 N   0  0  0  0  0  0  0  0  0  0  0  0
    0.6000   12.6410   -3.4910 C   0  0  0  0  0  0  0  0  0  0  0  0
    0.7210   11.3580   -3.0710 O   0  0  0  0  0  0  0  0  0  0  0  0
    0.5320   12.9280   -4.9780 C   0  0  0  0  0  0  0  0  0  0  0  0
    0.2130   11.8650   -5.9270 N   0  0  0  0  0  0  0  0  0  0  0  0
    0.9600   11.8440   -7.0670 N   0  0  0  0  0  0  0  0  0  0  0  0
   -0.7230   10.8670   -5.9100 C   0  0  0  0  0  0  0  0  0  0  0  0
    0.4750   10.8100   -7.7930 C   0  0  0  0  0  0  0  0  0  0  0  0
   -0.5680   10.1790   -7.0980 C   0  0  0  0  0  0  0  0  0  0  0  0
   -1.7320   10.5380   -4.8780 C   0  0  0  0  0  0  0  0  0  0  0  0
    0.9460   10.3640   -9.1630 C   0  0  0  0  0  0  0  0  0  0  0  0
   -1.3940    9.0050   -7.5020 C   0  0  0  0  0  0  0  0  0  0  0  0
   -2.8810    9.7720   -5.5630 C   0  0  0  0  0  0  0  0  0  0  0  0
    1.6430    9.1990   -9.1420 F   0  0  0  0  0  0  0  0  0  0  0  0
   -0.1100   10.1380   -9.9790 F   0  0  0  0  0  0  0  0  0  0  0  0
    1.6710   11.2710   -9.8440 F   0  0  0  0  0  0  0  0  0  0  0  0
   -2.3650    8.5770   -6.3870 C   0  0  0  0  0  0  0  0  0  0  0  0
  1  2  1  0
  2  3  1  0
  1  4  1  0
  4  5  1  0
  4  6  2  0
  6  7  1  0
  5  8  1  0
  7  8  2  0
  3  9  2  0
  3 10  1  0
  9 11  1  0
 10 12  2  0
 10 13  1  0
 11 14  2  0
 12 14  1  0
 12 15  1  0
 13 16  2  0
 15 16  1  0
 15 17  1  0
 17 18  1  0
 18 19  2  3
 19 20  1  0
 19 21  1  0
 21 22  1  0
 22 23  1  0
 22 24  1  0
 23 25  2  0
 24 26  2  0
 25 26  1  0
 24 27  1  0
 25 28  1  0
 26 29  1  0
 27 30  1  0
 28 31  1  0
 28 32  1  0
 28 33  1  0
 29 34  1  0
 30 34  1  0
M  END
