mac-x0397-diamond-x1012_0_A
     RDKit          3D

 25 27  0  0  0  0  0  0  0  0999 V2000
   -6.7110   14.9610   -2.5380 Cl  0  0  0  0  0  0  0  0  0  0  0  0
   -5.0850   14.9730   -2.0070 C   0  0  0  0  0  0  0  0  0  0  0  0
   -4.9830   14.9960   -0.6160 C   0  0  0  0  0  0  0  0  0  0  0  0
   -3.9560   14.9510   -2.8430 C   0  0  0  0  0  0  0  0  0  0  0  0
   -4.1030   14.8880   -4.3590 C   0  0  0  0  0  0  0  0  0  0  0  0
   -6.0290   14.9980    0.2870 N   0  0  0  0  0  0  0  0  0  0  0  0
   -3.7160   15.0110   -0.0610 C   0  0  0  0  0  0  0  0  0  0  0  0
   -2.7040   14.9610   -2.2310 C   0  0  0  0  0  0  0  0  0  0  0  0
   -3.3750   15.8250   -5.3650 C   0  0  0  0  0  0  0  0  0  0  0  0
   -5.5730   15.0180    1.4950 C   0  0  0  0  0  0  0  0  0  0  0  0
   -3.8570   15.0560    1.6290 S   0  0  0  0  0  0  0  0  0  0  0  0
   -2.5620   14.9900   -0.8390 C   0  0  0  0  0  0  0  0  0  0  0  0
   -6.4030   15.0060    2.5570 N   0  0  0  0  0  0  0  0  0  0  0  0
   -2.5900   16.9910   -4.9160 N   0  0  0  0  0  0  0  0  0  0  0  0
   -1.3270   16.8570   -4.8150 C   0  0  0  0  0  0  0  0  0  0  0  0
   -0.6060   17.9730   -4.5200 N   0  0  0  0  0  0  0  0  0  0  0  0
   -0.5730   15.7260   -4.9920 N   0  0  0  0  0  0  0  0  0  0  0  0
   -1.1850   14.4050   -5.2430 C   0  0  0  0  0  0  0  0  0  0  0  0
    0.8400   15.7230   -4.6040 C   0  0  0  0  0  0  0  0  0  0  0  0
   -1.1280   13.4910   -4.0340 C   0  0  0  0  0  0  0  0  0  0  0  0
    1.2160   14.4100   -3.9210 C   0  0  0  0  0  0  0  0  0  0  0  0
    0.0350   13.8450   -3.1170 C   0  0  0  0  0  0  0  0  0  0  0  0
    0.3760   12.6460   -2.2620 C   0  0  0  0  0  0  0  0  0  0  0  0
    0.4070   11.4610   -2.9020 O   0  0  0  0  0  0  0  0  0  0  0  0
    0.5890   12.6980   -1.0700 O   0  0  0  0  0  0  0  0  0  0  0  0
  1  2  1  0
  2  3  2  0
  2  4  1  0
  4  5  1  0
  3  6  1  0
  3  7  1  0
  4  8  2  0
  5  9  1  0
  6 10  2  0
  7 11  1  0
 10 11  1  0
  7 12  2  0
  8 12  1  0
 10 13  1  0
  9 14  1  0
 14 15  2  3
 15 16  1  0
 15 17  1  0
 17 18  1  0
 17 19  1  0
 18 20  1  0
 19 21  1  0
 20 22  1  0
 21 22  1  0
 22 23  1  0
 23 24  1  0
 23 25  2  0
M  END
