mac-x0437-mac-x0392
     RDKit          3D

 25 27  0  0  0  0  0  0  0  0999 V2000
    2.1350   12.5410   -2.2360 O   0  0  0  0  0  0  0  0  0  0  0  0
    1.0670   12.3230   -3.1180 C   0  0  0  0  0  0  0  0  0  0  0  0
    0.8210   10.9400   -3.1910 O   0  0  0  0  0  0  0  0  0  0  0  0
    1.4210   12.9020   -4.5060 C   0  0  0  0  0  0  0  0  0  0  0  0
   -0.1880   12.9330   -2.5180 C   0  0  0  0  0  0  0  0  0  0  0  0
    0.2350   13.1560   -5.4390 C   0  0  0  0  0  0  0  0  0  0  0  0
   -0.1200   14.3440   -2.6720 O   0  0  0  0  0  0  0  0  0  0  0  0
   -1.3550   14.8370   -2.6170 C   0  0  0  0  0  0  0  0  0  0  0  0
   -0.5640   11.9700   -5.6740 N   0  0  0  0  0  0  0  0  0  0  0  0
   -1.9850   15.2560   -3.5710 O   0  0  0  0  0  0  0  0  0  0  0  0
   -1.7170   11.6370   -5.0170 C   0  0  0  0  0  0  0  0  0  0  0  0
   -0.3020   10.9850   -6.5890 C   0  0  0  0  0  0  0  0  0  0  0  0
   -1.8600   14.7900   -1.2220 C   0  0  0  0  0  0  0  0  0  0  0  0
   -2.2110   10.4990   -5.4460 N   0  0  0  0  0  0  0  0  0  0  0  0
   -1.3440   10.0810   -6.4200 C   0  0  0  0  0  0  0  0  0  0  0  0
    0.7180   10.7990   -7.5230 C   0  0  0  0  0  0  0  0  0  0  0  0
   -1.0740   14.4480   -0.0990 C   0  0  0  0  0  0  0  0  0  0  0  0
   -3.2140   15.1220   -1.0760 C   0  0  0  0  0  0  0  0  0  0  0  0
    0.2930   14.0980   -0.1790 N   0  0  0  0  0  0  0  0  0  0  0  0
   -1.3860    8.9250   -7.2100 C   0  0  0  0  0  0  0  0  0  0  0  0
    0.6620    9.6410   -8.3050 C   0  0  0  0  0  0  0  0  0  0  0  0
   -3.7550   15.1140    0.1880 C   0  0  0  0  0  0  0  0  0  0  0  0
   -1.7400   14.4760    1.1210 C   0  0  0  0  0  0  0  0  0  0  0  0
   -0.3720    8.7170   -8.1520 C   0  0  0  0  0  0  0  0  0  0  0  0
   -3.0470   14.8000    1.2870 N   0  0  0  0  0  0  0  0  0  0  0  0
  2  1  1  0
  2  3  1  0
  2  4  1  0
  2  5  1  0
  4  6  1  0
  5  7  1  0
  7  8  1  0
  6  9  1  0
  8 10  2  0
  9 11  1  0
  9 12  1  0
  8 13  1  0
 11 14  2  0
 12 15  2  0
 14 15  1  0
 12 16  1  0
 13 17  2  0
 13 18  1  0
 17 19  1  0
 15 20  1  0
 16 21  2  0
 18 22  2  0
 17 23  1  0
 20 24  2  0
 21 24  1  0
 22 25  1  0
 23 25  2  0
M  END
