mac-x0584-mac-x0587
     RDKit          3D

 28 31  0  0  0  0  0  0  0  0999 V2000
   -1.8280   14.0280   -5.0840 C   0  0  0  0  0  0  0  0  0  0  0  0
   -2.6580   13.6450   -3.8590 C   0  0  1  0  0  0  0  0  0  0  0  0
   -1.5670   12.9660   -2.5480 S   0  0  0  0  0  0  0  0  0  0  0  0
   -3.4090   14.8370   -3.2430 C   0  0  0  0  0  0  0  0  0  0  0  0
   -1.0970   11.3300   -3.1630 C   0  0  0  0  0  0  0  0  0  0  0  0
   -4.1380   15.5600   -3.8950 O   0  0  0  0  0  0  0  0  0  0  0  0
   -3.1960   15.0840   -1.7950 C   0  0  0  0  0  0  0  0  0  0  0  0
    0.2320   10.9530   -2.5560 C   0  0  0  0  0  0  0  0  0  0  0  0
   -1.9210   15.1780   -1.1940 C   0  0  0  0  0  0  0  0  0  0  0  0
   -4.1540   15.2440   -0.8570 C   0  0  0  0  0  0  0  0  0  0  0  0
    0.6540    9.8450   -2.3690 O   0  0  0  0  0  0  0  0  0  0  0  0
    0.9820   12.0060   -2.1740 O   0  0  0  0  0  0  0  0  0  0  0  0
   -2.1820   15.3050    0.2400 C   0  0  0  0  0  0  0  0  0  0  0  0
   -0.6860   15.1950   -1.6510 C   0  0  0  0  0  0  0  0  0  0  0  0
   -3.4610   15.3890    0.4230 N   0  0  0  0  0  0  0  0  0  0  0  0
   -3.9590   15.5480    1.5450 O   0  0  0  0  0  0  0  0  0  0  0  0
   -0.4460   15.1430   -3.0170 N   0  0  0  0  0  0  0  0  0  0  0  0
    0.2950   15.2870   -0.6980 N   0  0  0  0  0  0  0  0  0  0  0  0
   -1.1610   15.3520    1.1420 N   0  0  0  0  0  0  0  0  0  0  0  0
    0.9090   15.2160   -3.6360 C   0  0  1  0  0  0  0  0  0  0  0  0
   -1.3320   16.0340   -3.8150 C   0  0  0  0  0  0  0  0  0  0  0  0
    0.0060   15.3430    0.6260 C   0  0  0  0  0  0  0  0  0  0  0  0
    1.3380   13.9910   -4.4420 C   0  0  0  0  0  0  0  0  0  0  0  0
    0.8250   16.4600   -4.5200 C   0  0  0  0  0  0  0  0  0  0  0  0
   -0.5570   16.2900   -5.0800 C   0  0  0  0  0  0  0  0  0  0  0  0
    2.5200   13.1050   -3.9720 C   0  0  0  0  0  0  0  0  0  0  0  0
    0.4710   12.7100   -4.4750 C   0  0  0  0  0  0  0  0  0  0  0  0
    1.7730   11.8950   -4.5340 C   0  0  0  0  0  0  0  0  0  0  0  0
  2  1  1  6
  2  3  1  0
  2  4  1  0
  3  5  1  0
  4  6  2  0
  4  7  1  0
  5  8  1  0
  7  9  1  0
  7 10  2  0
  8 11  2  0
  8 12  1  0
  9 13  1  0
  9 14  2  0
 10 15  1  0
 13 15  2  0
 15 16  1  0
 14 17  1  0
 14 18  1  0
 13 19  1  0
 17 20  1  0
 17 21  1  0
 18 22  1  0
 19 22  2  0
 20 23  1  6
 20 24  1  0
 21 25  1  0
 24 25  1  0
 23 26  1  0
 23 27  1  0
 26 28  1  0
 27 28  1  0
M  CHG  2  15   1  16  -1
M  END
