mac-x0301-diamond-x0290_0_A
     RDKit          3D

 18 19  0  0  0  0  0  0  0  0999 V2000
    0.5900   14.3150   -2.9630 O   0  0  0  0  0  0  0  0  0  0  0  0
   -0.6990   14.3090   -3.3460 C   0  0  0  0  0  0  0  0  0  0  0  0
   -1.0430   14.0150   -4.4780 O   0  0  0  0  0  0  0  0  0  0  0  0
   -1.6850   14.6870   -2.3090 C   0  0  0  0  0  0  0  0  0  0  0  0
   -1.5080   14.5950   -0.9320 C   0  0  0  0  0  0  0  0  0  0  0  0
   -2.9170   15.1840   -2.7640 C   0  0  0  0  0  0  0  0  0  0  0  0
   -2.5180   14.9920   -0.0720 C   0  0  0  0  0  0  0  0  0  0  0  0
   -3.9190   15.5790   -1.8720 C   0  0  0  0  0  0  0  0  0  0  0  0
   -0.4050   14.1330   -0.2430 O   0  0  0  0  0  0  0  0  0  0  0  0
   -3.7150   15.4870   -0.5180 C   0  0  0  0  0  0  0  0  0  0  0  0
   -2.2130   14.8400    1.2530 N   0  0  0  0  0  0  0  0  0  0  0  0
   -0.7870   14.3680    1.1570 C   0  0  0  0  0  0  0  0  0  0  0  0
   -3.3560   14.1880    1.8450 N   0  0  0  0  0  0  0  0  0  0  0  0
   -4.5770   13.9660    1.1200 C   0  0  0  0  0  0  0  0  0  0  0  0
   -4.6520   13.6740   -0.0760 O   0  0  0  0  0  0  0  0  0  0  0  0
   -5.8880   14.1140    1.9300 C   0  0  0  0  0  0  0  0  0  0  0  0
   -7.0810   13.7030    1.1350 N   0  0  0  0  0  0  0  0  0  0  0  0
   -8.1340   14.7130    1.0360 C   0  0  0  0  0  0  0  0  0  0  0  0
  1  2  1  0
  2  3  2  0
  2  4  1  0
  4  5  2  0
  4  6  1  0
  5  7  1  0
  6  8  2  0
  5  9  1  0
  7 10  2  0
  8 10  1  0
  7 11  1  0
  9 12  1  0
 11 12  1  0
 11 13  1  0
 13 14  1  0
 14 15  2  0
 14 16  1  0
 16 17  1  0
 17 18  1  0
M  END
