mac-x0138-mac-x0590
     RDKit          3D

 19 21  0  0  0  0  0  0  0  0999 V2000
   -1.2000   14.6610   -3.3330 C   0  0  0  0  0  0  0  0  0  0  0  0
   -1.5070   13.4400   -4.1950 C   0  0  0  0  0  0  0  0  0  0  0  0
   -0.4750   13.2450   -5.3070 C   0  0  0  0  0  0  0  0  0  0  0  0
   -2.1770   14.8820   -2.3020 N   0  0  0  0  0  0  0  0  0  0  0  0
   -3.4790   15.2550   -2.5040 C   0  0  0  0  0  0  0  0  0  0  0  0
   -1.9770   14.7610   -0.9570 C   0  0  0  0  0  0  0  0  0  0  0  0
   -4.1290   15.3900   -1.3730 N   0  0  0  0  0  0  0  0  0  0  0  0
   -3.1990   15.0870   -0.3970 C   0  0  0  0  0  0  0  0  0  0  0  0
   -0.8520   14.4120   -0.3030 N   0  0  0  0  0  0  0  0  0  0  0  0
    0.4830   12.0660   -5.0580 C   0  0  2  0  0  0  0  0  0  0  0  0
   -3.2690   15.0580    0.9920 C   0  0  0  0  0  0  0  0  0  0  0  0
   -1.0390   14.4080    1.0260 C   0  0  0  0  0  0  0  0  0  0  0  0
    0.7690   11.8490   -3.5660 C   0  0  0  0  0  0  0  0  0  0  0  0
    1.8540   12.3370   -5.6550 C   0  0  0  0  0  0  0  0  0  0  0  0
   -4.4260   15.3780    1.6880 N   0  0  0  0  0  0  0  0  0  0  0  0
    0.0030   14.0600    1.8510 N   0  0  0  0  0  0  0  0  0  0  0  0
   -2.1620   14.7060    1.6880 N   0  0  0  0  0  0  0  0  0  0  0  0
    2.7370   12.6890   -4.4820 C   0  0  0  0  0  0  0  0  0  0  0  0
    2.1540   12.1100   -3.3190 O   0  0  0  0  0  0  0  0  0  0  0  0
  1  2  1  0
  2  3  1  0
  1  4  1  0
  4  5  1  0
  4  6  1  0
  5  7  2  0
  6  8  2  0
  7  8  1  0
  6  9  1  0
 10  3  1  1
  8 11  1  0
  9 12  2  0
 10 13  1  0
 10 14  1  0
 11 15  1  0
 12 16  1  0
 11 17  2  0
 12 17  1  0
 14 18  1  0
 13 19  1  0
 18 19  1  0
M  END
