mac-x0319-mac-x0387
     RDKit          3D

 23 25  0  0  0  0  0  0  0  0999 V2000
    0.5290   10.4400   -2.5680 O   0  0  0  0  0  0  0  0  0  0  0  0
    0.7710   11.7730   -2.4750 C   0  0  0  0  0  0  0  0  0  0  0  0
    0.5190   12.3660   -1.3620 N   0  0  0  0  0  0  0  0  0  0  0  0
    1.3340   12.4590   -3.7210 C   0  0  0  0  0  0  0  0  0  0  0  0
    0.7220   13.7910   -1.1000 C   0  0  0  0  0  0  0  0  0  0  0  0
    0.6570   13.7590   -4.0940 C   0  0  0  0  0  0  0  0  0  0  0  0
    1.3100   14.9970   -3.9280 C   0  0  0  0  0  0  0  0  0  0  0  0
   -0.6450   13.7520   -4.6150 C   0  0  0  0  0  0  0  0  0  0  0  0
   -0.4560   14.2220   -0.2770 C   0  0  0  0  0  0  0  0  0  0  0  0
    0.6540   16.1800   -4.2730 C   0  0  0  0  0  0  0  0  0  0  0  0
   -1.2830   14.9460   -4.9560 C   0  0  0  0  0  0  0  0  0  0  0  0
   -1.6180   14.5780   -0.9340 C   0  0  0  0  0  0  0  0  0  0  0  0
   -0.4620   14.2660    1.1180 C   0  0  0  0  0  0  0  0  0  0  0  0
    1.3010   17.3650   -4.0960 O   0  0  0  0  0  0  0  0  0  0  0  0
   -0.6330   16.1630   -4.7830 C   0  0  0  0  0  0  0  0  0  0  0  0
   -2.7530   14.9600   -0.2000 C   0  0  0  0  0  0  0  0  0  0  0  0
   -1.5270   14.6230    1.8610 N   0  0  0  0  0  0  0  0  0  0  0  0
   -1.6780   14.5570   -2.3330 C   0  0  0  0  0  0  0  0  0  0  0  0
   -2.6550   14.9650    1.2080 C   0  0  0  0  0  0  0  0  0  0  0  0
   -2.8350   14.9070   -3.0190 C   0  0  0  0  0  0  0  0  0  0  0  0
   -3.9200   15.3130   -0.9170 C   0  0  0  0  0  0  0  0  0  0  0  0
   -3.7570   15.3380    2.0020 N   0  0  0  0  0  0  0  0  0  0  0  0
   -3.9540   15.2850   -2.3090 C   0  0  0  0  0  0  0  0  0  0  0  0
  1  2  1  0
  2  3  2  3
  2  4  1  0
  3  5  1  0
  4  6  1  0
  6  7  2  0
  6  8  1  0
  5  9  1  0
  7 10  1  0
  8 11  2  0
  9 12  1  0
  9 13  2  0
 10 14  1  0
 10 15  2  0
 11 15  1  0
 12 16  2  0
 13 17  1  0
 12 18  1  0
 16 19  1  0
 17 19  2  0
 18 20  2  0
 16 21  1  0
 19 22  1  0
 20 23  1  0
 21 23  2  0
M  END
