mac-x0397-diamond-x0926_0_A
     RDKit          3D

 11 12  0  0  0  0  0  0  0  0999 V2000
   -6.6090   15.2930   -2.0700 Cl  0  0  0  0  0  0  0  0  0  0  0  0
   -5.0200   15.0670   -1.4820 C   0  0  0  0  0  0  0  0  0  0  0  0
   -4.8950   14.9140   -0.0880 C   0  0  0  0  0  0  0  0  0  0  0  0
   -3.9130   15.0320   -2.3310 C   0  0  0  0  0  0  0  0  0  0  0  0
   -5.9020   14.9250    0.8670 N   0  0  0  0  0  0  0  0  0  0  0  0
   -3.6120   14.7260    0.4230 C   0  0  0  0  0  0  0  0  0  0  0  0
   -2.6490   14.8390   -1.7860 C   0  0  0  0  0  0  0  0  0  0  0  0
   -5.4050   14.7570    2.0670 C   0  0  0  0  0  0  0  0  0  0  0  0
   -3.7080   14.5690    2.1340 S   0  0  0  0  0  0  0  0  0  0  0  0
   -2.4800   14.6850   -0.4040 C   0  0  0  0  0  0  0  0  0  0  0  0
   -6.1600   14.7310    3.1780 N   0  0  0  0  0  0  0  0  0  0  0  0
  1  2  1  0
  2  3  2  0
  2  4  1  0
  3  5  1  0
  3  6  1  0
  4  7  2  0
  5  8  2  0
  6  9  1  0
  8  9  1  0
  6 10  2  0
  7 10  1  0
  8 11  1  0
M  END
