mac-x0263-diamond-x0371_0_A
     RDKit          3D

 21 23  0  0  0  0  0  0  0  0999 V2000
  -11.7260   14.3240    2.5250 O   0  0  0  0  0  0  0  0  0  0  0  0
  -10.9770   15.4440    2.4620 C   0  0  0  0  0  0  0  0  0  0  0  0
  -11.1820   16.3590    3.2400 O   0  0  0  0  0  0  0  0  0  0  0  0
   -9.9460   15.3850    1.3680 C   0  0  0  0  0  0  0  0  0  0  0  0
   -8.8620   14.3530    1.6690 C   0  0  2  0  0  0  0  0  0  0  0  0
   -8.6350   14.2240    3.1110 N   0  0  0  0  0  0  0  0  0  0  0  0
   -7.5690   14.6180    0.9500 C   0  0  0  0  0  0  0  0  0  0  0  0
   -8.2630   15.4760    3.7660 C   0  0  0  0  0  0  0  0  0  0  0  0
   -7.4450   14.9490   -0.3790 N   0  0  0  0  0  0  0  0  0  0  0  0
   -6.3910   14.5730    1.5220 N   0  0  0  0  0  0  0  0  0  0  0  0
   -6.1100   15.1250   -0.6510 C   0  0  0  0  0  0  0  0  0  0  0  0
   -5.4800   14.8850    0.5610 C   0  0  0  0  0  0  0  0  0  0  0  0
   -8.3860   15.5110    5.2360 C   0  0  0  0  0  0  0  0  0  0  0  0
   -5.4220   15.4660   -1.8070 C   0  0  0  0  0  0  0  0  0  0  0  0
   -4.0890   14.9760    0.6540 C   0  0  0  0  0  0  0  0  0  0  0  0
   -7.9020   14.4340    5.9060 O   0  0  0  0  0  0  0  0  0  0  0  0
   -8.9000   16.4310    6.1220 C   0  0  0  0  0  0  0  0  0  0  0  0
   -4.0300   15.5530   -1.7030 C   0  0  0  0  0  0  0  0  0  0  0  0
   -3.3750   15.3110   -0.4920 C   0  0  0  0  0  0  0  0  0  0  0  0
   -8.7100   15.8760    7.4120 C   0  0  0  0  0  0  0  0  0  0  0  0
   -8.0970   14.6610    7.2220 C   0  0  0  0  0  0  0  0  0  0  0  0
  1  2  1  0
  2  3  2  0
  2  4  1  0
  5  4  1  1
  5  6  1  0
  5  7  1  0
  6  8  1  0
  7  9  1  0
  7 10  2  0
  9 11  1  0
 10 12  1  0
 11 12  2  0
  8 13  1  0
 11 14  1  0
 12 15  1  0
 13 16  1  0
 13 17  2  0
 14 18  2  0
 15 19  2  0
 18 19  1  0
 17 20  1  0
 16 21  1  0
 20 21  2  0
M  END
