mac-x0179-mac-x0510
     RDKit          3D

 29 32  0  0  0  0  0  0  0  0999 V2000
    1.5910   12.8200   -2.1490 O   0  0  0  0  0  0  0  0  0  0  0  0
    0.9870   12.0700   -3.0950 C   0  0  0  0  0  0  0  0  0  0  0  0
    0.5980   10.9340   -2.8650 O   0  0  0  0  0  0  0  0  0  0  0  0
    0.8420   12.7560   -4.4420 C   0  0  0  0  0  0  0  0  0  0  0  0
    0.0610   11.9840   -5.4000 N   0  0  0  0  0  0  0  0  0  0  0  0
    0.7060   11.4880   -6.4900 C   0  0  0  0  0  0  0  0  0  0  0  0
   -1.1420   11.3330   -5.1920 C   0  0  0  0  0  0  0  0  0  0  0  0
    1.7650   11.8220   -6.9460 O   0  0  0  0  0  0  0  0  0  0  0  0
   -1.9620   11.6460   -4.2320 N   0  0  0  0  0  0  0  0  0  0  0  0
   -0.1090   10.4100   -7.0300 C   0  0  0  0  0  0  0  0  0  0  0  0
   -1.2410   10.2990   -6.2430 C   0  0  0  0  0  0  0  0  0  0  0  0
   -1.8930   12.6630   -3.1660 C   0  0  0  0  0  0  0  0  0  0  0  0
    0.1460    9.5990   -8.1250 C   0  0  0  0  0  0  0  0  0  0  0  0
   -2.1890    9.3330   -6.5430 C   0  0  0  0  0  0  0  0  0  0  0  0
   -1.3860   14.0230   -3.6490 C   0  0  0  0  0  0  0  0  0  0  0  0
   -0.8050    8.6250   -8.4300 C   0  0  0  0  0  0  0  0  0  0  0  0
   -1.9630    8.4940   -7.6460 C   0  0  0  0  0  0  0  0  0  0  0  0
   -2.4570   15.1100   -3.7730 C   0  0  0  0  0  0  0  0  0  0  0  0
   -3.4600   15.1430   -2.7110 N   0  0  0  0  0  0  0  0  0  0  0  0
   -3.4130   15.0650   -1.4260 C   0  0  0  0  0  0  0  0  0  0  0  0
   -2.3670   14.9080   -0.4520 C   0  0  0  0  0  0  0  0  0  0  0  0
   -4.6510   15.1600   -0.8410 N   0  0  0  0  0  0  0  0  0  0  0  0
   -4.9640   14.9920    0.4850 C   0  0  0  0  0  0  0  0  0  0  0  0
   -2.6490   14.8260    0.8930 C   0  0  0  0  0  0  0  0  0  0  0  0
   -1.0050   14.8140   -0.4970 N   0  0  0  0  0  0  0  0  0  0  0  0
   -6.1310   14.9340    0.8550 O   0  0  0  0  0  0  0  0  0  0  0  0
   -3.9220   14.8830    1.3640 N   0  0  0  0  0  0  0  0  0  0  0  0
   -1.5400   14.6880    1.6600 N   0  0  0  0  0  0  0  0  0  0  0  0
   -0.5540   14.6870    0.7950 C   0  0  0  0  0  0  0  0  0  0  0  0
  1  2  1  0
  2  3  2  0
  2  4  1  0
  4  5  1  0
  5  6  1  0
  5  7  1  0
  6  8  2  0
  7  9  2  3
  6 10  1  0
  7 11  1  0
 10 11  2  0
  9 12  1  0
 10 13  1  0
 11 14  1  0
 12 15  1  0
 13 16  2  0
 14 17  2  0
 16 17  1  0
 15 18  1  0
 18 19  1  0
 19 20  2  3
 20 21  1  0
 20 22  1  0
 22 23  1  0
 21 24  2  0
 21 25  1  0
 23 26  2  0
 23 27  1  0
 24 27  1  0
 24 28  1  0
 25 29  1  0
 28 29  2  0
M  END
