mac-x0344-mac-x0546
     RDKit          3D

 23 25  0  0  0  0  0  0  0  0999 V2000
    3.0640   12.7470   -4.6000 O   0  0  0  0  0  0  0  0  0  0  0  0
    2.0470   12.5230   -3.7580 C   0  0  0  0  0  0  0  0  0  0  0  0
    2.2120   12.3760   -2.5550 O   0  0  0  0  0  0  0  0  0  0  0  0
    0.6400   12.5930   -4.3950 C   0  0  2  0  0  0  0  0  0  0  0  0
   -0.2680   11.9970   -3.4700 O   0  0  0  0  0  0  0  0  0  0  0  0
    0.4550   11.9130   -5.7040 N   0  0  0  0  0  0  0  0  0  0  0  0
    0.5930   14.0760   -4.3960 C   0  0  0  0  0  0  0  0  0  0  0  0
   -0.4260   10.9220   -6.1790 C   0  0  0  0  0  0  0  0  0  0  0  0
   -0.2520   14.9160   -5.2390 C   0  0  1  0  0  0  0  0  0  0  0  0
    1.3700   14.8990   -3.6600 C   0  0  0  0  0  0  0  0  0  0  0  0
   -0.0950   10.0240   -7.2070 C   0  0  0  0  0  0  0  0  0  0  0  0
   -1.7100   10.7860   -5.6290 C   0  0  0  0  0  0  0  0  0  0  0  0
   -1.7340   14.9310   -5.1870 C   0  0  0  0  0  0  0  0  0  0  0  0
    0.2420   16.2600   -4.7430 C   0  0  0  0  0  0  0  0  0  0  0  0
    1.1560   16.2330   -3.8500 N   0  0  0  0  0  0  0  0  0  0  0  0
   -0.9980    9.0470   -7.6540 C   0  0  0  0  0  0  0  0  0  0  0  0
   -2.6240    9.8110   -6.0630 C   0  0  0  0  0  0  0  0  0  0  0  0
   -2.3890   16.0900   -5.3660 C   0  0  0  0  0  0  0  0  0  0  0  0
   -0.3610   17.4810   -5.2930 C   0  0  0  0  0  0  0  0  0  0  0  0
   -3.7280   16.2390   -5.3810 O   0  0  0  0  0  0  0  0  0  0  0  0
   -2.2630    8.9380   -7.0830 C   0  0  0  0  0  0  0  0  0  0  0  0
   -1.6650   17.3470   -5.5820 C   0  0  0  0  0  0  0  0  0  0  0  0
   -4.4860   15.2060   -5.9990 C   0  0  0  0  0  0  0  0  0  0  0  0
  1  2  1  0
  2  3  2  0
  2  4  1  0
  4  5  1  1
  4  6  1  0
  4  7  1  0
  6  8  1  0
  7  9  1  0
  7 10  2  0
  8 11  2  0
  8 12  1  0
  9 13  1  1
  9 14  1  0
 10 15  1  0
 14 15  2  0
 11 16  1  0
 12 17  2  0
 13 18  2  0
 14 19  1  0
 18 20  1  0
 16 21  2  0
 17 21  1  0
 18 22  1  0
 19 22  2  0
 20 23  1  0
M  END
