mac-x0337-mac-x0472
     RDKit          3D

 16 17  0  0  0  0  0  0  0  0999 V2000
   -5.0520    9.0030   -1.1860 C   0  0  0  0  0  0  0  0  0  0  0  0
   -4.9780   10.4810   -1.4180 C   0  0  0  0  0  0  0  0  0  0  0  0
   -5.9530   11.3320   -0.8810 C   0  0  0  0  0  0  0  0  0  0  0  0
   -3.9340   11.0240   -2.1760 C   0  0  0  0  0  0  0  0  0  0  0  0
   -3.8660   12.3980   -2.4050 C   0  0  0  0  0  0  0  0  0  0  0  0
   -5.8910   12.7050   -1.1040 C   0  0  0  0  0  0  0  0  0  0  0  0
   -4.8520   13.2260   -1.8700 C   0  0  0  0  0  0  0  0  0  0  0  0
   -4.8490   14.9600   -2.1420 S   0  0  2  0  0  0  0  0  0  0  0  0
   -3.2500   15.2830   -2.6260 N   0  0  0  0  0  0  0  0  0  0  0  0
   -5.2000   15.7660   -0.7220 N   0  0  0  0  0  0  0  0  0  0  0  0
   -2.9400   14.7240   -3.6890 O   0  0  0  0  0  0  0  0  0  0  0  0
   -3.9400   15.2930    0.3000 S   0  0  0  0  0  0  0  0  0  0  0  0
   -2.4320   14.7480   -0.1870 C   0  0  0  0  0  0  0  0  0  0  0  0
   -3.8280   15.2170    1.9540 C   0  0  0  0  0  0  0  0  0  0  0  0
   -1.8610   14.5140    0.9910 N   0  0  0  0  0  0  0  0  0  0  0  0
   -2.6040   14.7590    2.1810 N   0  0  0  0  0  0  0  0  0  0  0  0
  1  2  1  0
  2  3  2  0
  2  4  1  0
  4  5  2  0
  3  6  1  0
  5  7  1  0
  6  7  2  0
  7  8  1  0
  8  9  1  1
  8 10  1  0
  9 11  2  0
 10 12  1  0
 12 13  2  0
 12 14  1  0
 13 15  1  0
 14 16  2  0
 15 16  1  0
M  END
