mac-x0347-mac-x0496
     RDKit          3D

 28 30  0  0  0  0  0  0  0  0999 V2000
    1.6320   14.2600   -3.5180 O   0  0  0  0  0  0  0  0  0  0  0  0
    0.9400   13.9120   -2.4200 C   0  0  0  0  0  0  0  0  0  0  0  0
    1.4830   13.5860   -1.3960 O   0  0  0  0  0  0  0  0  0  0  0  0
   -0.5100   13.9640   -2.6100 C   0  0  0  0  0  0  0  0  0  0  0  0
   -1.4240   13.8080   -1.5510 C   0  0  0  0  0  0  0  0  0  0  0  0
   -0.9750   14.1830   -3.9030 C   0  0  0  0  0  0  0  0  0  0  0  0
   -2.7790   13.8850   -1.8550 C   0  0  0  0  0  0  0  0  0  0  0  0
   -2.2780   14.2560   -4.2260 N   0  0  0  0  0  0  0  0  0  0  0  0
   -3.1260   14.1060   -3.1960 C   0  0  0  0  0  0  0  0  0  0  0  0
   -3.9310   13.8170   -0.9800 C   0  0  0  0  0  0  0  0  0  0  0  0
   -4.3810   15.0350   -0.9720 C   0  0  0  0  0  0  0  0  0  0  0  0
   -4.5890   12.8200   -0.2610 C   0  0  0  0  0  0  0  0  0  0  0  0
   -3.4860   15.8560   -1.8130 C   0  0  0  0  0  0  0  0  0  0  0  0
   -5.5220   15.4220   -0.3020 C   0  0  0  0  0  0  0  0  0  0  0  0
   -5.7720   13.1550    0.4430 C   0  0  0  0  0  0  0  0  0  0  0  0
   -2.3880   16.2690   -1.4950 O   0  0  0  0  0  0  0  0  0  0  0  0
   -3.9700   16.0310   -3.0530 O   0  0  0  0  0  0  0  0  0  0  0  0
   -6.2790   14.4670    0.4220 C   0  0  0  0  0  0  0  0  0  0  0  0
   -7.4870   14.8200    1.0380 N   0  0  0  0  0  0  0  0  0  0  0  0
   -8.1230   14.3340    2.2590 C   0  0  0  0  0  0  0  0  0  0  0  0
   -8.4650   15.1840    0.0210 C   0  0  0  0  0  0  0  0  0  0  0  0
   -9.0660   15.3750    2.7800 C   0  0  0  0  0  0  0  0  0  0  0  0
   -7.8990   14.9000   -1.2420 O   0  0  0  0  0  0  0  0  0  0  0  0
  -10.2210   15.6350    2.0840 O   0  0  0  0  0  0  0  0  0  0  0  0
   -8.9260   16.1160    3.8430 N   0  0  0  0  0  0  0  0  0  0  0  0
  -10.0410   16.8960    3.8110 C   0  0  0  0  0  0  0  0  0  0  0  0
  -10.8740   16.6570    2.7820 N   0  0  0  0  0  0  0  0  0  0  0  0
  -10.2840   17.9160    4.8460 C   0  0  0  0  0  0  0  0  0  0  0  0
  1  2  1  0
  2  3  2  0
  2  4  1  0
  4  5  2  0
  4  6  1  0
  5  7  1  0
  6  8  2  0
  7  9  2  0
  8  9  1  0
  7 10  1  0
 10 11  2  0
 10 12  1  0
 11 13  1  0
 11 14  1  0
 12 15  2  0
 13 16  2  0
 13 17  1  0
 14 18  2  0
 15 18  1  0
 18 19  1  0
 19 20  1  0
 19 21  1  0
 20 22  1  0
 21 23  1  0
 22 24  1  0
 22 25  2  0
 25 26  1  0
 24 27  1  0
 26 27  2  0
 26 28  1  0
M  END
