mac-x0204-diamond-x0465_0_A
     RDKit          3D

 22 23  0  0  0  0  0  0  0  0999 V2000
    0.2790   12.9340   -2.2540 N   0  0  0  0  0  0  0  0  0  0  0  0
    0.0960   14.2040   -2.7230 C   0  0  0  0  0  0  0  0  0  0  0  0
    0.7810   15.1690   -2.4040 O   0  0  0  0  0  0  0  0  0  0  0  0
    0.5820   12.0780   -3.1750 C   0  0  0  0  0  0  0  0  0  0  0  0
    0.7580   12.5110   -4.6430 C   0  0  1  0  0  0  0  0  0  0  0  0
    0.7520   10.7690   -2.9000 O   0  0  0  0  0  0  0  0  0  0  0  0
   -1.0340   14.3230   -3.6810 C   0  0  0  0  0  0  0  0  0  0  0  0
    2.1550   13.0930   -4.8170 C   0  0  0  0  0  0  0  0  0  0  0  0
    0.6280   11.3670   -5.4970 O   0  0  0  0  0  0  0  0  0  0  0  0
   -1.2630   15.4820   -4.4270 C   0  0  0  0  0  0  0  0  0  0  0  0
   -1.9040   13.2560   -3.8590 C   0  0  0  0  0  0  0  0  0  0  0  0
   -2.3430   15.5060   -5.3040 C   0  0  0  0  0  0  0  0  0  0  0  0
   -2.9600   13.2550   -4.7100 N   0  0  0  0  0  0  0  0  0  0  0  0
   -0.5730   10.7300   -5.6330 C   0  0  0  0  0  0  0  0  0  0  0  0
   -2.6210   16.6080   -6.0590 O   0  0  0  0  0  0  0  0  0  0  0  0
   -3.1560   14.3880   -5.4170 C   0  0  0  0  0  0  0  0  0  0  0  0
   -0.6330    9.7430   -6.6250 C   0  0  0  0  0  0  0  0  0  0  0  0
   -1.7150   10.9790   -4.8790 C   0  0  0  0  0  0  0  0  0  0  0  0
    0.4470    9.4720   -7.3760 F   0  0  0  0  0  0  0  0  0  0  0  0
   -1.7980    9.0210   -6.8610 C   0  0  0  0  0  0  0  0  0  0  0  0
   -2.8890   10.2600   -5.1110 C   0  0  0  0  0  0  0  0  0  0  0  0
   -2.9330    9.2820   -6.0990 C   0  0  0  0  0  0  0  0  0  0  0  0
  1  2  1  0
  2  3  2  0
  1  4  2  3
  4  5  1  0
  4  6  1  0
  2  7  1  0
  5  8  1  1
  5  9  1  0
  7 10  2  0
  7 11  1  0
 10 12  1  0
 11 13  2  0
  9 14  1  0
 12 15  1  0
 12 16  2  0
 13 16  1  0
 14 17  2  0
 14 18  1  0
 17 19  1  0
 17 20  1  0
 18 21  2  0
 20 22  2  0
 21 22  1  0
M  END
