mac-x0565-diamond-x0471_0_A
     RDKit          3D

 28 31  0  0  0  0  0  0  0  0999 V2000
   -7.3630   16.3450   -1.4340 O   0  0  0  0  0  0  0  0  0  0  0  0
   -6.8620   15.0360   -1.3990 C   0  0  0  0  0  0  0  0  0  0  0  0
   -7.9090   14.1820   -1.7590 O   0  0  0  0  0  0  0  0  0  0  0  0
   -5.5480   14.8760   -2.2150 C   0  0  0  0  0  0  0  0  0  0  0  0
   -6.4390   14.8600   -0.0920 N   0  0  0  0  0  0  0  0  0  0  0  0
   -4.2550   14.7890   -1.5830 C   0  0  0  0  0  0  0  0  0  0  0  0
   -5.5680   14.8160   -3.6130 C   0  0  0  0  0  0  0  0  0  0  0  0
   -6.9630   14.4650    1.1190 C   0  0  0  0  0  0  0  0  0  0  0  0
   -5.1550   15.1660    0.0210 C   0  0  0  0  0  0  0  0  0  0  0  0
   -8.3710   14.0600    1.4490 C   0  0  0  0  0  0  0  0  0  0  0  0
   -3.1010   14.6770   -2.3690 C   0  0  0  0  0  0  0  0  0  0  0  0
   -4.3930   14.7040   -4.3760 C   0  0  0  0  0  0  0  0  0  0  0  0
   -5.9730   14.5010    1.9940 N   0  0  0  0  0  0  0  0  0  0  0  0
   -4.8480   14.9320    1.3080 C   0  0  0  0  0  0  0  0  0  0  0  0
   -4.2660   15.6320   -0.9520 C   0  0  0  0  0  0  0  0  0  0  0  0
   -8.4990   14.0050    2.8990 N   0  0  0  0  0  0  0  0  0  0  0  0
   -3.1790   14.6440   -3.7290 C   0  0  0  0  0  0  0  0  0  0  0  0
   -1.7980   14.5930   -1.9420 O   0  0  0  0  0  0  0  0  0  0  0  0
   -2.9640   15.8580   -0.5570 C   0  0  0  0  0  0  0  0  0  0  0  0
   -3.5210   15.1580    1.6870 C   0  0  0  0  0  0  0  0  0  0  0  0
   -9.0620   15.0510    3.5990 C   0  0  0  0  0  0  0  0  0  0  0  0
   -1.9510   14.5490   -4.3150 O   0  0  0  0  0  0  0  0  0  0  0  0
   -1.1210   14.8770   -3.1830 C   0  0  0  0  0  0  0  0  0  0  0  0
   -2.5920   15.6190    0.7450 C   0  0  0  0  0  0  0  0  0  0  0  0
   -9.4140   16.1010    3.0710 O   0  0  0  0  0  0  0  0  0  0  0  0
   -9.2550   14.8370    5.1040 C   0  0  0  0  0  0  0  0  0  0  0  0
   -9.6000   13.3910    5.4460 C   0  0  0  0  0  0  0  0  0  0  0  0
   -8.0720   15.3590    5.9080 C   0  0  0  0  0  0  0  0  0  0  0  0
  2  1  1  0
  2  3  1  0
  2  4  1  0
  2  5  1  0
  4  6  2  0
  4  7  1  0
  5  8  1  0
  5  9  1  0
  8 10  1  0
  6 11  1  0
  7 12  2  0
  8 13  2  0
  9 14  2  0
 13 14  1  0
  9 15  1  0
 10 16  1  0
 11 17  2  0
 12 17  1  0
 11 18  1  0
 15 19  2  0
 14 20  1  0
 16 21  1  0
 17 22  1  0
 18 23  1  0
 22 23  1  0
 19 24  1  0
 20 24  2  0
 21 25  2  0
 21 26  1  0
 26 27  1  0
 26 28  1  0
M  END
