mac-x0572-mac-x0255
     RDKit          3D

 29 32  0  0  0  0  0  0  0  0999 V2000
   -7.8560   14.6650    3.3080 C   0  0  0  0  0  0  0  0  0  0  0  0
   -7.1170   14.7360    1.9960 C   0  0  0  0  0  0  0  0  0  0  0  0
   -5.7570   14.9520    2.1290 N   0  0  0  0  0  0  0  0  0  0  0  0
   -7.7560   14.6030    0.8230 C   0  0  0  0  0  0  0  0  0  0  0  0
   -9.1190   14.3940    0.7020 O   0  0  0  0  0  0  0  0  0  0  0  0
   -6.9530   14.6900   -0.4250 C   0  0  0  0  0  0  0  0  0  0  0  0
   -4.9650   14.8650    1.1040 C   0  0  0  0  0  0  0  0  0  0  0  0
   -7.5440   14.8630   -1.4860 O   0  0  0  0  0  0  0  0  0  0  0  0
   -5.4520   14.5400   -0.2910 C   0  0  2  0  0  0  0  0  0  0  0  0
   -3.4970   15.0630    1.2680 C   0  0  0  0  0  0  0  0  0  0  0  0
   -2.7640   15.4440    0.2000 C   0  0  0  0  0  0  0  0  0  0  0  0
   -4.6550   15.2780   -1.3260 C   0  0  0  0  0  0  0  0  0  0  0  0
   -1.2630   15.6320    0.2600 C   0  0  0  0  0  0  0  0  0  0  0  0
   -3.4020   15.6860   -1.0830 C   0  0  0  0  0  0  0  0  0  0  0  0
   -0.5010   14.2970    0.1560 C   0  0  0  0  0  0  0  0  0  0  0  0
    0.1160   14.0670   -1.2330 C   0  0  0  0  0  0  0  0  0  0  0  0
    0.6360   12.7280   -1.3670 O   0  0  0  0  0  0  0  0  0  0  0  0
    0.5880   12.1430   -2.6110 C   0  0  0  0  0  0  0  0  0  0  0  0
   -0.0060   11.0990   -2.8320 O   0  0  0  0  0  0  0  0  0  0  0  0
    1.3690   12.8980   -3.6790 C   0  0  0  0  0  0  0  0  0  0  0  0
    0.6500   14.1300   -4.1650 C   0  0  0  0  0  0  0  0  0  0  0  0
    1.2060   15.3610   -4.4350 C   0  0  0  0  0  0  0  0  0  0  0  0
   -1.0390   14.1470   -4.4510 S   0  0  0  0  0  0  0  0  0  0  0  0
    0.2560   16.3370   -4.8810 C   0  0  0  0  0  0  0  0  0  0  0  0
   -1.0350   15.8000   -4.9350 C   0  0  0  0  0  0  0  0  0  0  0  0
    0.4400   17.6870   -5.2480 C   0  0  0  0  0  0  0  0  0  0  0  0
   -2.1380   16.5820   -5.3460 C   0  0  0  0  0  0  0  0  0  0  0  0
   -0.6460   18.4590   -5.6570 C   0  0  0  0  0  0  0  0  0  0  0  0
   -1.9170   17.9120   -5.7060 C   0  0  0  0  0  0  0  0  0  0  0  0
  1  2  1  0
  2  3  1  0
  2  4  2  0
  4  5  1  0
  4  6  1  0
  3  7  2  0
  6  8  2  0
  6  9  1  0
  7  9  1  0
  7 10  1  0
 10 11  2  0
  9 12  1  6
 11 13  1  0
 11 14  1  0
 12 14  2  0
 13 15  1  0
 15 16  1  0
 16 17  1  0
 17 18  1  0
 18 19  2  0
 18 20  1  0
 20 21  1  0
 21 22  2  0
 21 23  1  0
 22 24  1  0
 23 25  1  0
 24 25  2  0
 24 26  1  0
 25 27  1  0
 26 28  2  0
 27 29  2  0
 28 29  1  0
M  END
