mac-x0439-mac-x0180
     RDKit          3D

 25 27  0  0  0  0  0  0  0  0999 V2000
   -3.0120   15.8230   -5.4290 Cl  0  0  0  0  0  0  0  0  0  0  0  0
   -1.5300   16.6940   -5.5610 C   0  0  0  0  0  0  0  0  0  0  0  0
   -0.2380   15.9550   -5.3650 C   0  0  2  0  0  0  0  0  0  0  0  0
   -1.5100   18.0040   -5.8430 C   0  0  0  0  0  0  0  0  0  0  0  0
   -0.1480   14.8790   -4.4060 C   0  0  0  0  0  0  0  0  0  0  0  0
    0.7230   16.8910   -4.7350 C   0  0  0  0  0  0  0  0  0  0  0  0
   -0.2360   18.6940   -5.9440 C   0  0  0  0  0  0  0  0  0  0  0  0
    0.7210   15.2060   -3.4830 C   0  0  0  0  0  0  0  0  0  0  0  0
    1.2950   16.4380   -3.6800 N   0  0  0  0  0  0  0  0  0  0  0  0
    0.8960   18.1940   -5.4080 C   0  0  0  0  0  0  0  0  0  0  0  0
    0.8820   14.3310   -2.3040 C   0  0  0  0  0  0  0  0  0  0  0  0
    1.8860   14.9220   -1.4530 O   0  0  0  0  0  0  0  0  0  0  0  0
    1.2270   12.9900   -2.5750 O   0  0  0  0  0  0  0  0  0  0  0  0
   -0.6830   14.6350   -2.2740 C   0  0  0  0  0  0  0  0  0  0  0  0
   -1.1190   14.9370   -3.3940 O   0  0  0  0  0  0  0  0  0  0  0  0
   -1.7950   14.6890   -1.2850 C   0  0  0  0  0  0  0  0  0  0  0  0
   -1.7690   14.5660    0.0990 C   0  0  0  0  0  0  0  0  0  0  0  0
   -3.0360   14.9080   -1.9280 C   0  0  0  0  0  0  0  0  0  0  0  0
   -2.9810   14.6580    0.8200 C   0  0  0  0  0  0  0  0  0  0  0  0
   -4.2220   14.9990   -1.2150 C   0  0  0  0  0  0  0  0  0  0  0  0
   -4.2090   14.8720    0.1690 C   0  0  0  0  0  0  0  0  0  0  0  0
   -5.4560   14.9680    0.8180 N   0  0  0  0  0  0  0  0  0  0  0  0
   -6.7100   14.7320    0.2730 C   0  0  0  0  0  0  0  0  0  0  0  0
   -7.7580   14.4820    1.3310 C   0  0  0  0  0  0  0  0  0  0  0  0
   -7.0120   14.7210   -0.9130 O   0  0  0  0  0  0  0  0  0  0  0  0
  1  2  1  0
  2  3  1  0
  2  4  2  0
  3  5  1  1
  3  6  1  0
  4  7  1  0
  5  8  2  0
  6  9  2  0
  8  9  1  0
  6 10  1  0
  7 10  2  0
  8 11  1  0
 11 12  1  0
 11 13  1  0
 11 14  1  0
 14 15  2  0
 14 16  1  0
 16 17  2  0
 16 18  1  0
 17 19  1  0
 18 20  2  0
 19 21  2  0
 20 21  1  0
 21 22  1  0
 22 23  1  0
 23 24  1  0
 23 25  2  0
M  END
