mac-x0319-mac-x0283
     RDKit          3D

 24 26  0  0  0  0  0  0  0  0999 V2000
    0.5910   10.4810   -2.3780 O   0  0  0  0  0  0  0  0  0  0  0  0
    0.6650   11.8420   -2.3690 C   0  0  0  0  0  0  0  0  0  0  0  0
    0.2590   12.4120   -1.2780 N   0  0  0  0  0  0  0  0  0  0  0  0
    1.2070   12.4570   -3.6590 C   0  0  0  0  0  0  0  0  0  0  0  0
    0.2350   13.8660   -1.0680 C   0  0  0  0  0  0  0  0  0  0  0  0
    0.5490   13.7740   -4.0010 C   0  0  0  0  0  0  0  0  0  0  0  0
   -0.6750   14.1460    0.1500 C   0  0  0  0  0  0  0  0  0  0  0  0
    1.2650   14.9820   -3.9380 C   0  0  0  0  0  0  0  0  0  0  0  0
   -0.8030   13.8060   -4.3780 C   0  0  0  0  0  0  0  0  0  0  0  0
   -1.4610   15.4760    0.0880 C   0  0  0  0  0  0  0  0  0  0  0  0
    0.6230   16.1830   -4.2470 C   0  0  0  0  0  0  0  0  0  0  0  0
   -1.4280   15.0170   -4.6880 C   0  0  0  0  0  0  0  0  0  0  0  0
    1.3320   17.3390   -4.1710 O   0  0  0  0  0  0  0  0  0  0  0  0
   -0.7130   16.2090   -4.6190 C   0  0  0  0  0  0  0  0  0  0  0  0
   -2.9490   15.3290   -0.2240 C   0  0  0  0  0  0  0  0  0  0  0  0
   -3.3780   15.3750   -1.5630 C   0  0  0  0  0  0  0  0  0  0  0  0
   -3.9100   15.1420    0.8070 C   0  0  0  0  0  0  0  0  0  0  0  0
   -5.2820   15.0050    0.4610 C   0  0  0  0  0  0  0  0  0  0  0  0
   -4.7270   15.2420   -1.9170 C   0  0  0  0  0  0  0  0  0  0  0  0
   -6.5410   14.8090    1.1120 C   0  0  0  0  0  0  0  0  0  0  0  0
   -5.6290   15.0580   -0.8770 C   0  0  0  0  0  0  0  0  0  0  0  0
   -6.7270   14.7100    2.4410 N   0  0  0  0  0  0  0  0  0  0  0  0
   -7.5490   14.7480    0.2380 N   0  0  0  0  0  0  0  0  0  0  0  0
   -6.9740   14.9060   -1.0070 O   0  0  0  0  0  0  0  0  0  0  0  0
  1  2  1  0
  2  3  2  3
  2  4  1  0
  3  5  1  0
  4  6  1  0
  5  7  1  0
  6  8  2  0
  6  9  1  0
  7 10  1  0
  8 11  1  0
  9 12  2  0
 11 13  1  0
 11 14  2  0
 12 14  1  0
 10 15  1  0
 15 16  2  0
 15 17  1  0
 17 18  2  0
 16 19  1  0
 18 20  1  0
 18 21  1  0
 19 21  2  0
 20 22  1  0
 20 23  2  0
 21 24  1  0
 23 24  1  0
M  END
