mac-x0284-diamond-x0962_0_A
     RDKit          3D

 18 19  0  0  0  0  0  0  0  0999 V2000
   -4.7680   15.3300   -0.9540 C   0  0  0  0  0  0  0  0  0  0  0  0
   -3.7850   15.1020   -2.0690 C   0  0  0  0  0  0  0  0  0  0  0  0
   -4.2310   15.1620   -3.3430 C   0  0  0  0  0  0  0  0  0  0  0  0
   -2.4470   14.8370   -1.8170 C   0  0  0  0  0  0  0  0  0  0  0  0
   -2.3660   14.8150   -0.4930 C   0  0  0  0  0  0  0  0  0  0  0  0
   -1.5030   14.6460   -2.7850 C   0  0  0  0  0  0  0  0  0  0  0  0
   -3.3330   14.9750   -4.3660 C   0  0  0  0  0  0  0  0  0  0  0  0
   -0.0710   14.3720   -2.5450 C   0  0  0  0  0  0  0  0  0  0  0  0
   -2.8790   14.8160    0.4960 C   0  0  0  0  0  0  0  0  0  0  0  0
   -1.9860   14.7230   -4.0930 C   0  0  0  0  0  0  0  0  0  0  0  0
   -1.2060   14.5610   -5.1960 O   0  0  0  0  0  0  0  0  0  0  0  0
    0.4860   14.4650   -1.4630 O   0  0  0  0  0  0  0  0  0  0  0  0
    0.6020   14.0050   -3.6360 O   0  0  0  0  0  0  0  0  0  0  0  0
   -3.9280   14.8570    1.3630 C   0  0  0  0  0  0  0  0  0  0  0  0
   -3.9140   15.0690    2.6750 N   0  0  0  0  0  0  0  0  0  0  0  0
   -5.2470   14.6850    1.0120 C   0  0  0  0  0  0  0  0  0  0  0  0
   -5.2080   15.0250    3.0900 C   0  0  0  0  0  0  0  0  0  0  0  0
   -6.0410   14.7920    2.1020 N   0  0  0  0  0  0  0  0  0  0  0  0
  1  2  1  0
  2  3  2  0
  2  4  1  0
  4  5  1  0
  4  6  2  0
  3  7  1  0
  6  8  1  0
  5  9  3  0
  6 10  1  0
  7 10  2  0
 10 11  1  0
  8 12  2  0
  8 13  1  0
  9 14  1  0
 14 15  1  0
 14 16  2  0
 15 17  1  0
 16 18  1  0
 17 18  2  0
M  END
