mac-x0306-mac-x0283
     RDKit          3D

 11 12  0  0  0  0  0  0  0  0999 V2000
   -8.6580   14.6210    1.0720 C   0  0  0  0  0  0  0  0  0  0  0  0
   -7.9260   14.4670    2.2170 C   0  0  0  0  0  0  0  0  0  0  0  0
   -6.6240   14.5400    1.8210 N   0  0  0  0  0  0  0  0  0  0  0  0
   -7.8350   14.7840   -0.0040 N   0  0  0  0  0  0  0  0  0  0  0  0
   -6.5970   14.7380    0.4510 C   0  0  0  0  0  0  0  0  0  0  0  0
   -5.3970   14.8760   -0.3770 C   0  0  0  0  0  0  0  0  0  0  0  0
   -5.4620   15.1120   -1.7530 C   0  0  0  0  0  0  0  0  0  0  0  0
   -4.1330   14.7700    0.2140 C   0  0  0  0  0  0  0  0  0  0  0  0
   -4.2830   15.2230   -2.4680 C   0  0  0  0  0  0  0  0  0  0  0  0
   -3.0110   14.8940   -0.5830 C   0  0  0  0  0  0  0  0  0  0  0  0
   -3.0590   15.1170   -1.9140 N   0  0  0  0  0  0  0  0  0  0  0  0
  1  2  2  0
  2  3  1  0
  1  4  1  0
  3  5  1  0
  4  5  2  0
  5  6  1  0
  6  7  2  0
  6  8  1  0
  7  9  1  0
  8 10  2  0
  9 11  2  0
 10 11  1  0
M  END
