mac-x0584-mac-x0354
     RDKit          3D

 34 39  0  0  0  0  0  0  0  0999 V2000
    0.3510   11.2380   -8.1730 C   0  0  0  0  0  0  0  0  0  0  0  0
    0.7220   11.5910   -6.8220 N   0  0  0  0  0  0  0  0  0  0  0  0
    1.6800   12.4950   -6.5870 N   0  0  0  0  0  0  0  0  0  0  0  0
    0.1700   11.0600   -5.6920 C   0  0  0  0  0  0  0  0  0  0  0  0
    1.7610   12.5470   -5.2670 C   0  0  0  0  0  0  0  0  0  0  0  0
    0.8610   11.6740   -4.6000 C   0  0  0  0  0  0  0  0  0  0  0  0
   -0.8930   10.0610   -5.8480 C   0  0  0  0  0  0  0  0  0  0  0  0
    0.7710   11.5010   -3.1220 C   0  0  0  0  0  0  0  0  0  0  0  0
   -0.6160    8.6890   -5.9840 C   0  0  0  0  0  0  0  0  0  0  0  0
   -2.2290   10.4790   -5.8740 C   0  0  0  0  0  0  0  0  0  0  0  0
    0.8680   12.4860   -2.2860 N   0  0  0  0  0  0  0  0  0  0  0  0
    0.6060   10.2060   -2.6530 O   0  0  0  0  0  0  0  0  0  0  0  0
   -1.6480    7.7710   -6.1340 C   0  0  0  0  0  0  0  0  0  0  0  0
   -3.2580    9.5560   -6.0220 C   0  0  0  0  0  0  0  0  0  0  0  0
    0.9700   13.8270   -2.8680 C   0  0  0  0  0  0  0  0  0  0  0  0
   -2.9660    8.2010   -6.1510 C   0  0  0  0  0  0  0  0  0  0  0  0
   -0.4580   14.1200   -3.3970 C   0  0  2  0  0  0  0  0  0  0  0  0
   -1.2150   12.8140   -3.1590 C   0  0  0  0  0  0  0  0  0  0  0  0
   -0.5830   14.6920   -4.8410 C   0  0  0  0  0  0  0  0  0  0  0  0
   -1.2880   15.0140   -2.6080 N   0  0  0  0  0  0  0  0  0  0  0  0
   -0.5260   11.5700   -2.5360 C   0  0  0  0  0  0  0  0  0  0  0  0
   -1.6560   11.9410   -4.3410 C   0  0  0  0  0  0  0  0  0  0  0  0
   -2.4770   15.2030   -3.4540 C   0  0  0  0  0  0  0  0  0  0  0  0
   -1.9050   15.4720   -4.8330 C   0  0  0  0  0  0  0  0  0  0  0  0
   -1.4640   14.8780   -1.2320 C   0  0  0  0  0  0  0  0  0  0  0  0
   -1.3020   10.6900   -3.5160 C   0  0  0  0  0  0  0  0  0  0  0  0
   -0.4030   14.6220   -0.3870 N   0  0  0  0  0  0  0  0  0  0  0  0
   -2.6530   15.0140   -0.6330 C   0  0  0  0  0  0  0  0  0  0  0  0
   -0.5620   14.5200    0.9700 C   0  0  0  0  0  0  0  0  0  0  0  0
   -2.7440   14.9070    0.8420 C   0  0  0  0  0  0  0  0  0  0  0  0
   -3.9960   15.2870   -1.0280 C   0  0  0  0  0  0  0  0  0  0  0  0
   -1.6610   14.6410    1.6260 N   0  0  0  0  0  0  0  0  0  0  0  0
   -3.9520   15.1170    1.2690 N   0  0  0  0  0  0  0  0  0  0  0  0
   -4.6870   15.3380    0.1160 C   0  0  0  0  0  0  0  0  0  0  0  0
  1  2  1  0
  2  3  1  0
  2  4  1  0
  3  5  2  0
  4  6  2  0
  5  6  1  0
  4  7  1  0
  6  8  1  0
  7  9  2  0
  7 10  1  0
  8 11  2  3
  8 12  1  0
  9 13  1  0
 10 14  2  0
 11 15  1  0
 13 16  2  0
 14 16  1  0
 17 15  1  1
 17 18  1  0
 17 19  1  0
 17 20  1  0
 18 21  1  0
 18 22  1  0
 20 23  1  0
 19 24  1  0
 23 24  1  0
 20 25  1  0
 21 26  1  0
 22 26  1  0
 25 27  1  0
 25 28  2  0
 27 29  1  0
 28 30  1  0
 28 31  1  0
 29 32  2  0
 30 32  1  0
 30 33  2  0
 31 34  2  0
 33 34  1  0
M  END
