mac-x0385-mac-x0380
     RDKit          3D

 23 25  0  0  0  0  0  0  0  0999 V2000
   -4.7100   15.9580   -0.9420 C   0  0  0  0  0  0  0  0  0  0  0  0
   -3.3260   15.7350   -0.4010 C   0  0  0  0  0  0  0  0  0  0  0  0
   -2.2460   15.9390   -1.1960 C   0  0  0  0  0  0  0  0  0  0  0  0
   -3.0770   15.3060    0.9000 C   0  0  0  0  0  0  0  0  0  0  0  0
   -4.2500   15.1090    1.5730 N   0  0  0  0  0  0  0  0  0  0  0  0
   -1.8730   15.0940    1.3850 N   0  0  0  0  0  0  0  0  0  0  0  0
   -1.0170   15.7450   -0.7740 N   0  0  0  0  0  0  0  0  0  0  0  0
   -0.9150   15.3310    0.4900 C   0  0  0  0  0  0  0  0  0  0  0  0
   -5.0700   14.6300    0.5630 C   0  0  0  0  0  0  0  0  0  0  0  0
    0.4160   15.0960    0.9250 C   0  0  0  0  0  0  0  0  0  0  0  0
   -6.4150   14.4350    0.7310 C   0  0  0  0  0  0  0  0  0  0  0  0
   -4.4490   14.3660   -0.6670 C   0  0  0  0  0  0  0  0  0  0  0  0
   -5.1600   13.9200   -1.7610 C   0  0  0  0  0  0  0  0  0  0  0  0
   -7.1720   13.9870   -0.3620 C   0  0  0  0  0  0  0  0  0  0  0  0
   -6.9180   14.7120    2.0080 N   0  0  0  0  0  0  0  0  0  0  0  0
   -4.4640   13.6640   -3.0610 C   0  0  0  0  0  0  0  0  0  0  0  0
   -6.5430   13.7300   -1.6110 C   0  0  0  0  0  0  0  0  0  0  0  0
   -8.2090   14.5430    2.3710 C   0  0  0  0  0  0  0  0  0  0  0  0
   -8.9190   13.7360   -0.2220 S   0  0  0  0  0  0  0  0  0  0  0  0
   -3.2550   13.0790   -2.9150 O   0  0  0  0  0  0  0  0  0  0  0  0
   -4.8810   13.9480   -4.1680 O   0  0  0  0  0  0  0  0  0  0  0  0
   -8.6690   15.1530    3.3430 O   0  0  0  0  0  0  0  0  0  0  0  0
   -9.0580   13.5810    1.5710 C   0  0  0  0  0  0  0  0  0  0  0  0
  1  2  1  0
  2  3  2  0
  2  4  1  0
  4  5  1  0
  4  6  2  0
  3  7  1  0
  6  8  1  0
  7  8  2  0
  5  9  1  0
  8 10  1  0
  9 11  1  0
  9 12  2  0
 12 13  1  0
 11 14  2  0
 11 15  1  0
 13 16  1  0
 13 17  2  0
 14 17  1  0
 15 18  1  0
 14 19  1  0
 16 20  1  0
 16 21  2  0
 18 22  2  0
 18 23  1  0
 19 23  1  0
M  END
