mac-x0451-diamond-x0371_0_A
     RDKit          3D

 19 21  0  0  0  0  0  0  0  0999 V2000
   -7.2690   14.5280    2.6320 N   0  0  0  0  0  0  0  0  0  0  0  0
   -8.1660   15.4700    3.2490 C   0  0  0  0  0  0  0  0  0  0  0  0
   -8.8960   16.2140    2.5770 O   0  0  0  0  0  0  0  0  0  0  0  0
   -7.9340   13.2460    2.5740 C   0  0  0  0  0  0  0  0  0  0  0  0
   -6.2920   14.7400    1.5840 C   0  0  0  0  0  0  0  0  0  0  0  0
   -6.5890   14.8230    0.3080 N   0  0  0  0  0  0  0  0  0  0  0  0
   -4.5760   14.8560    1.8500 S   0  0  0  0  0  0  0  0  0  0  0  0
   -8.2880   15.5070    4.7200 C   0  0  0  0  0  0  0  0  0  0  0  0
   -5.4590   14.9330   -0.4900 C   0  0  0  0  0  0  0  0  0  0  0  0
   -4.2440   14.9470    0.1790 C   0  0  0  0  0  0  0  0  0  0  0  0
   -7.8650   14.4410    5.4760 O   0  0  0  0  0  0  0  0  0  0  0  0
   -8.7890   16.4770    5.5790 C   0  0  0  0  0  0  0  0  0  0  0  0
   -5.4580   15.0180   -1.8940 C   0  0  0  0  0  0  0  0  0  0  0  0
   -3.0150   15.0170   -0.4950 C   0  0  0  0  0  0  0  0  0  0  0  0
   -8.6580   15.9740    6.9010 C   0  0  0  0  0  0  0  0  0  0  0  0
   -8.0850   14.7300    6.7800 C   0  0  0  0  0  0  0  0  0  0  0  0
   -4.2460   15.0880   -2.5840 C   0  0  0  0  0  0  0  0  0  0  0  0
   -3.0520   15.0770   -1.8880 C   0  0  0  0  0  0  0  0  0  0  0  0
   -1.9040   15.1250   -2.5800 F   0  0  0  0  0  0  0  0  0  0  0  0
  1  2  1  0
  2  3  2  0
  1  4  1  0
  1  5  1  0
  5  6  2  0
  5  7  1  0
  2  8  1  0
  6  9  1  0
  7 10  1  0
  9 10  2  0
  8 11  1  0
  8 12  2  0
  9 13  1  0
 10 14  1  0
 12 15  1  0
 11 16  1  0
 15 16  2  0
 13 17  2  0
 14 18  2  0
 17 18  1  0
 18 19  1  0
M  END
