mac-x0509-diamond-x0855_0_A
     RDKit          3D

 19 21  0  0  0  0  0  0  0  0999 V2000
   -1.6450    8.5780   -5.4980 N   0  0  0  0  0  0  0  0  0  0  0  0
   -1.2190    8.4370   -6.6810 C   0  0  0  0  0  0  0  0  0  0  0  0
   -1.2430    9.7160   -7.5400 C   0  0  0  0  0  0  0  0  0  0  0  0
   -1.7230    9.9500   -5.4040 C   0  0  0  0  0  0  0  0  0  0  0  0
   -0.7250    7.4130   -7.4450 N   0  0  0  0  0  0  0  0  0  0  0  0
   -0.6250   10.5840   -4.9430 C   0  0  0  0  0  0  0  0  0  0  0  0
   -2.6670   10.9530   -5.6740 C   0  0  0  0  0  0  0  0  0  0  0  0
   -0.1660    9.4080   -8.4850 C   0  0  0  0  0  0  0  0  0  0  0  0
    0.1300    8.0400   -8.3840 C   0  0  0  0  0  0  0  0  0  0  0  0
   -0.8930   11.8870   -4.9410 N   0  0  0  0  0  0  0  0  0  0  0  0
   -2.1490   12.1800   -5.3860 N   0  0  0  0  0  0  0  0  0  0  0  0
    0.0560   12.8830   -4.5010 C   0  0  0  0  0  0  0  0  0  0  0  0
    0.4810   10.2650   -9.3390 C   0  0  0  0  0  0  0  0  0  0  0  0
    1.1370    7.5110   -9.1550 C   0  0  0  0  0  0  0  0  0  0  0  0
    0.7750   12.3590   -3.2790 C   0  0  0  0  0  0  0  0  0  0  0  0
    1.4860    9.7320  -10.1250 C   0  0  0  0  0  0  0  0  0  0  0  0
    1.8170    8.3710  -10.0320 C   0  0  0  0  0  0  0  0  0  0  0  0
    1.4440   13.2560   -2.5260 O   0  0  0  0  0  0  0  0  0  0  0  0
    0.7460   11.1730   -2.9730 O   0  0  0  0  0  0  0  0  0  0  0  0
  1  2  2  3
  2  3  1  0
  1  4  1  0
  2  5  1  0
  4  6  2  0
  4  7  1  0
  3  8  1  0
  5  9  1  0
  8  9  2  0
  6 10  1  0
  7 11  2  0
 10 11  1  0
 10 12  1  0
  8 13  1  0
  9 14  1  0
 12 15  1  0
 13 16  2  0
 14 17  2  0
 16 17  1  0
 15 18  1  0
 15 19  2  0
M  END
