mac-x0178-mac-x0565
     RDKit          3D

 21 22  0  0  0  0  0  0  0  0999 V2000
   -0.4110   17.8980   -6.2500 N   0  0  0  0  0  0  0  0  0  0  0  0
   -1.8470   17.3960   -5.5220 S   0  0  0  0  0  0  0  0  0  0  0  0
   -2.7190   17.1630   -6.6550 O   0  0  0  0  0  0  0  0  0  0  0  0
   -2.0600   18.4540   -4.5770 O   0  0  0  0  0  0  0  0  0  0  0  0
   -1.3600   15.8190   -4.7120 C   0  0  1  0  0  0  0  0  0  0  0  0
    0.0430   15.9400   -4.1460 C   0  0  0  0  0  0  0  0  0  0  0  0
   -2.3490   15.1070   -3.7000 C   0  0  1  0  0  0  0  0  0  0  0  0
    0.5030   15.0610   -3.2440 C   0  0  0  0  0  0  0  0  0  0  0  0
   -1.6490   13.7250   -3.5220 C   0  0  0  0  0  0  0  0  0  0  0  0
   -2.3250   15.6700   -2.2620 C   0  0  0  0  0  0  0  0  0  0  0  0
   -3.8490   14.9830   -4.0820 C   0  0  0  0  0  0  0  0  0  0  0  0
   -0.3330   13.9050   -2.7220 C   0  0  1  0  0  0  0  0  0  0  0  0
   -3.3260   15.4660   -1.3560 C   0  0  0  0  0  0  0  0  0  0  0  0
   -4.8450   14.7870   -3.1610 C   0  0  0  0  0  0  0  0  0  0  0  0
    0.4870   12.6190   -2.6480 C   0  0  0  0  0  0  0  0  0  0  0  0
   -4.5580   14.6590   -1.6820 C   0  0  2  0  0  0  0  0  0  0  0  0
    1.6170   12.5380   -2.2080 O   0  0  0  0  0  0  0  0  0  0  0  0
   -0.1540   11.5200   -3.1070 O   0  0  0  0  0  0  0  0  0  0  0  0
   -5.7850   15.0010   -0.7930 C   0  0  0  0  0  0  0  0  0  0  0  0
   -5.4480   15.2490    0.4930 O   0  0  0  0  0  0  0  0  0  0  0  0
   -6.9680   15.0440   -1.1050 O   0  0  0  0  0  0  0  0  0  0  0  0
  2  1  1  0
  2  3  2  0
  2  4  2  0
  5  2  1  1
  5  6  1  0
  5  7  1  0
  6  8  2  0
  7  9  1  1
  7 10  1  0
  7 11  1  0
  8 12  1  0
  9 12  1  0
 10 13  2  0
 11 14  2  0
 12 15  1  6
 13 16  1  0
 14 16  1  0
 15 17  2  0
 15 18  1  0
 16 19  1  1
 19 20  1  0
 19 21  2  0
M  END
