mac-x0206-mac-x0361
     RDKit          3D

 19 20  0  0  0  0  0  0  0  0999 V2000
   -3.7050   15.0660    1.4960 N   0  0  0  0  0  0  0  0  0  0  0  0
   -4.7510   15.4040    0.6830 C   0  0  0  0  0  0  0  0  0  0  0  0
   -4.5230   16.0700   -0.3170 O   0  0  0  0  0  0  0  0  0  0  0  0
   -6.1260   14.9110    1.0610 C   0  0  0  0  0  0  0  0  0  0  0  0
   -7.0290   14.5630    0.0650 C   0  0  0  0  0  0  0  0  0  0  0  0
   -6.5020   14.8130    2.3900 C   0  0  0  0  0  0  0  0  0  0  0  0
   -6.5740   14.7100   -1.2100 N   0  0  0  0  0  0  0  0  0  0  0  0
   -8.3070   14.1110    0.3820 C   0  0  0  0  0  0  0  0  0  0  0  0
   -7.7780   14.3620    2.7260 C   0  0  0  0  0  0  0  0  0  0  0  0
   -5.3740   14.2760   -1.2740 C   0  0  0  0  0  0  0  0  0  0  0  0
   -8.6830   14.0100    1.7220 C   0  0  0  0  0  0  0  0  0  0  0  0
   -4.8850   13.6560   -0.1510 N   0  0  0  0  0  0  0  0  0  0  0  0
   -4.4460   14.4090   -2.3720 C   0  0  0  0  0  0  0  0  0  0  0  0
   -3.1100   14.4630   -1.9980 C   0  0  0  0  0  0  0  0  0  0  0  0
   -4.8540   14.4940   -3.6910 C   0  0  0  0  0  0  0  0  0  0  0  0
   -2.1390   14.6070   -2.9630 C   0  0  0  0  0  0  0  0  0  0  0  0
   -3.8740   14.6410   -4.6660 C   0  0  0  0  0  0  0  0  0  0  0  0
   -2.5330   14.6960   -4.2880 C   0  0  0  0  0  0  0  0  0  0  0  0
   -1.6060   14.8420   -5.2720 O   0  0  0  0  0  0  0  0  0  0  0  0
  1  2  1  0
  2  3  2  0
  2  4  1  0
  4  5  2  0
  4  6  1  0
  5  7  1  0
  5  8  1  0
  6  9  2  0
  7 10  2  3
  8 11  2  0
  9 11  1  0
 10 12  1  0
 10 13  1  0
 13 14  2  0
 13 15  1  0
 14 16  1  0
 15 17  2  0
 16 18  2  0
 17 18  1  0
 18 19  1  0
M  END
