mac-x0373-diamond-x0626_0_A
     RDKit          3D

 22 23  0  0  0  0  0  0  0  0999 V2000
    0.7090   13.1130   -1.8340 O   0  0  0  0  0  0  0  0  0  0  0  0
    0.3030   14.3500   -2.1940 C   0  0  0  0  0  0  0  0  0  0  0  0
    1.0630   15.2930   -2.1360 O   0  0  0  0  0  0  0  0  0  0  0  0
   -1.1360   14.4540   -2.6700 C   0  0  1  0  0  0  0  0  0  0  0  0
   -1.5300   13.2600   -3.5550 C   0  0  0  0  0  0  0  0  0  0  0  0
   -2.1410   14.6790   -1.5500 C   0  0  0  0  0  0  0  0  0  0  0  0
   -0.9680   13.0150   -4.8160 C   0  0  0  0  0  0  0  0  0  0  0  0
   -2.5040   12.3600   -3.0700 C   0  0  0  0  0  0  0  0  0  0  0  0
   -3.4430   15.0080   -1.9740 C   0  0  0  0  0  0  0  0  0  0  0  0
   -1.8720   14.5710   -0.1500 C   0  0  0  0  0  0  0  0  0  0  0  0
   -0.5360   14.2500    0.4950 C   0  0  0  0  0  0  0  0  0  0  0  0
   -1.3640   11.9050   -5.5690 C   0  0  0  0  0  0  0  0  0  0  0  0
   -2.8970   11.2540   -3.8240 C   0  0  0  0  0  0  0  0  0  0  0  0
   -4.4650   15.1940   -1.0570 C   0  0  0  0  0  0  0  0  0  0  0  0
   -2.9330   14.7590    0.7460 C   0  0  0  0  0  0  0  0  0  0  0  0
   -2.3270   11.0260   -5.0730 C   0  0  0  0  0  0  0  0  0  0  0  0
   -4.2010   15.0490    0.3080 C   0  0  0  0  0  0  0  0  0  0  0  0
   -5.2780   15.1850    1.1650 N   0  0  0  0  0  0  0  0  0  0  0  0
   -6.5020   14.7750    0.6970 C   0  0  0  0  0  0  0  0  0  0  0  0
   -6.8230   14.6860   -0.4800 O   0  0  0  0  0  0  0  0  0  0  0  0
   -7.4610   14.4330    1.8100 C   0  0  0  0  0  0  0  0  0  0  0  0
   -8.8940   14.5630    1.3330 C   0  0  0  0  0  0  0  0  0  0  0  0
  1  2  1  0
  2  3  2  0
  4  2  1  1
  4  5  1  0
  4  6  1  0
  5  7  2  0
  5  8  1  0
  6  9  2  0
  6 10  1  0
 10 11  1  0
  7 12  1  0
  8 13  2  0
  9 14  1  0
 10 15  2  0
 12 16  2  0
 13 16  1  0
 14 17  2  0
 15 17  1  0
 17 18  1  0
 18 19  1  0
 19 20  2  0
 19 21  1  0
 21 22  1  0
M  END
