mac-x0213-mac-x0346
     RDKit          3D

 25 27  0  0  0  0  0  0  0  0999 V2000
    0.1930   11.9270   -3.4710 O   0  0  0  0  0  0  0  0  0  0  0  0
    0.2180   12.9030   -2.5470 C   0  0  0  0  0  0  0  0  0  0  0  0
    0.4310   12.6390   -1.3690 O   0  0  0  0  0  0  0  0  0  0  0  0
   -0.0520   14.2950   -3.0650 C   0  0  2  0  0  0  0  0  0  0  0  0
   -1.5010   14.6350   -3.5260 C   0  0  2  0  0  0  0  0  0  0  0  0
    0.9420   14.9090   -4.0700 C   0  0  0  0  0  0  0  0  0  0  0  0
   -2.5350   13.6180   -4.0320 C   0  0  0  0  0  0  0  0  0  0  0  0
   -1.2580   15.8170   -4.4140 C   0  0  0  0  0  0  0  0  0  0  0  0
    0.1010   15.9850   -4.6970 C   0  0  0  0  0  0  0  0  0  0  0  0
   -3.8910   13.5800   -3.2900 C   0  0  0  0  0  0  0  0  0  0  0  0
   -2.2110   16.6850   -4.9110 C   0  0  0  0  0  0  0  0  0  0  0  0
    0.5230   17.0510   -5.4740 C   0  0  0  0  0  0  0  0  0  0  0  0
   -4.2610   14.7950   -2.6080 O   0  0  0  0  0  0  0  0  0  0  0  0
   -1.7940   17.7550   -5.6960 C   0  0  0  0  0  0  0  0  0  0  0  0
   -0.4330   17.9390   -5.9710 C   0  0  0  0  0  0  0  0  0  0  0  0
   -4.0630   14.9390   -1.2520 C   0  0  0  0  0  0  0  0  0  0  0  0
   -5.1940   15.0300   -0.4020 C   0  0  0  0  0  0  0  0  0  0  0  0
   -2.7920   14.9970   -0.6640 C   0  0  0  0  0  0  0  0  0  0  0  0
   -6.6180   14.9760   -0.8840 C   0  0  0  0  0  0  0  0  0  0  0  0
   -2.6240   15.1460    0.7110 C   0  0  0  0  0  0  0  0  0  0  0  0
   -5.0000   15.1780    0.9830 C   0  0  0  0  0  0  0  0  0  0  0  0
   -7.6440   14.9780    0.0380 N   0  0  0  0  0  0  0  0  0  0  0  0
   -6.8760   14.9260   -2.0830 O   0  0  0  0  0  0  0  0  0  0  0  0
   -3.7250   15.2380    1.5370 C   0  0  0  0  0  0  0  0  0  0  0  0
   -7.5600   14.0690    1.1220 O   0  0  0  0  0  0  0  0  0  0  0  0
  1  2  1  0
  2  3  2  0
  4  2  1  6
  4  5  1  0
  4  6  1  0
  5  7  1  6
  5  8  1  0
  6  9  1  0
  8  9  2  0
  7 10  1  0
  8 11  1  0
  9 12  1  0
 10 13  1  0
 11 14  2  0
 12 15  2  0
 14 15  1  0
 13 16  1  0
 16 17  2  0
 16 18  1  0
 17 19  1  0
 18 20  2  0
 17 21  1  0
 19 22  1  0
 19 23  2  0
 20 24  1  0
 21 24  2  0
 22 25  1  0
M  END
