mac-x0137-diamond-x0438_0_A
     RDKit          3D

 25 28  0  0  0  0  0  0  0  0999 V2000
   -2.8100   12.7590   -4.2140 F   0  0  0  0  0  0  0  0  0  0  0  0
   -1.7570   13.5450   -4.5580 C   0  0  2  0  0  0  0  0  0  0  0  0
   -0.5580   12.6430   -4.9030 C   0  0  0  0  0  0  0  0  0  0  0  0
   -1.4720   14.4920   -3.3940 C   0  0  0  0  0  0  0  0  0  0  0  0
   -1.0010   13.6370   -2.2980 N   0  0  0  0  0  0  0  0  0  0  0  0
    0.1800   12.0720   -3.6760 C   0  0  0  0  0  0  0  0  0  0  0  0
    0.3380   13.1050   -2.5650 C   0  0  0  0  0  0  0  0  0  0  0  0
   -1.1680   14.1500   -0.9950 C   0  0  0  0  0  0  0  0  0  0  0  0
   -0.0920   14.3830   -0.2450 N   0  0  0  0  0  0  0  0  0  0  0  0
   -2.4270   14.4000   -0.4970 C   0  0  0  0  0  0  0  0  0  0  0  0
   -0.3120   14.8500    0.9940 C   0  0  0  0  0  0  0  0  0  0  0  0
   -2.5440   14.8980    0.7790 C   0  0  0  0  0  0  0  0  0  0  0  0
   -3.7650   14.2220   -1.0970 C   0  0  0  0  0  0  0  0  0  0  0  0
   -1.5000   15.1230    1.5610 N   0  0  0  0  0  0  0  0  0  0  0  0
   -3.8970   15.1460    1.1680 N   0  0  0  0  0  0  0  0  0  0  0  0
   -4.7310   14.6420    0.0620 C   0  0  2  0  0  0  0  0  0  0  0  0
   -5.7690   13.6430    0.5010 N   0  0  0  0  0  0  0  0  0  0  0  0
   -5.6680   15.6590   -0.6360 C   0  0  0  0  0  0  0  0  0  0  0  0
   -7.0500   15.2260   -0.2960 N   0  0  0  0  0  0  0  0  0  0  0  0
   -6.8500   14.5220    0.9540 C   0  0  1  0  0  0  0  0  0  0  0  0
   -8.1450   13.9000    1.4910 C   0  0  0  0  0  0  0  0  0  0  0  0
   -9.1300   15.0660    2.4500 S   0  0  0  0  0  0  0  0  0  0  0  0
   -8.1490   15.5010    3.8740 C   0  0  0  0  0  0  0  0  0  0  0  0
  -10.3230   14.3980    2.9380 O   0  0  0  0  0  0  0  0  0  0  0  0
   -9.2880   16.2690    1.6530 O   0  0  0  0  0  0  0  0  0  0  0  0
  2  1  1  1
  2  3  1  0
  2  4  1  0
  4  5  1  0
  3  6  1  0
  5  7  1  0
  6  7  1  0
  5  8  1  0
  8  9  2  0
  8 10  1  0
  9 11  1  0
 10 12  2  0
 10 13  1  0
 11 14  2  0
 12 14  1  0
 12 15  1  0
 16 13  1  6
 16 15  1  0
 16 17  1  0
 16 18  1  0
 18 19  1  0
 17 20  1  0
 19 20  1  0
 20 21  1  6
 22 21  1  0
 22 23  1  0
 22 24  2  0
 22 25  2  0
M  END
