mac-x0132-diamond-x0933_0_A
     RDKit          3D

 11 12  0  0  0  0  0  0  0  0999 V2000
   -4.2760   14.9610    2.0750 N   0  0  0  0  0  0  0  0  0  0  0  0
   -5.2780   14.8660    1.1100 C   0  0  0  0  0  0  0  0  0  0  0  0
   -6.5410   14.6880    1.5210 N   0  0  0  0  0  0  0  0  0  0  0  0
   -4.9190   14.9630   -0.2280 C   0  0  0  0  0  0  0  0  0  0  0  0
   -5.9670   14.8700   -1.1360 C   0  0  0  0  0  0  0  0  0  0  0  0
   -7.4650   14.6100    0.5610 C   0  0  0  0  0  0  0  0  0  0  0  0
   -3.5940   15.1400   -0.6770 C   0  0  0  0  0  0  0  0  0  0  0  0
   -7.2400   14.6960   -0.7580 N   0  0  0  0  0  0  0  0  0  0  0  0
   -5.6670   14.9620   -2.4860 C   0  0  0  0  0  0  0  0  0  0  0  0
   -3.3160   15.2230   -2.0310 C   0  0  0  0  0  0  0  0  0  0  0  0
   -4.3550   15.1360   -2.9420 C   0  0  0  0  0  0  0  0  0  0  0  0
  1  2  1  0
  2  3  2  0
  2  4  1  0
  4  5  2  0
  3  6  1  0
  4  7  1  0
  5  8  1  0
  6  8  2  0
  5  9  1  0
  7 10  2  0
  9 11  2  0
 10 11  1  0
M  END
