mac-x0306-diamond-x0591_0_A
     RDKit          3D

 19 20  0  0  0  0  0  0  0  0999 V2000
   -7.4760   15.6110   -0.7720 N   0  0  0  0  0  0  0  0  0  0  0  0
   -8.6190   15.3180    0.0650 C   0  0  0  0  0  0  0  0  0  0  0  0
   -6.9890   14.6770   -1.6510 C   0  0  0  0  0  0  0  0  0  0  0  0
   -7.7110   14.0640   -2.4240 O   0  0  0  0  0  0  0  0  0  0  0  0
   -5.5000   14.4280   -1.5990 C   0  0  1  0  0  0  0  0  0  0  0  0
   -4.7430   15.0720   -2.7320 C   0  0  0  0  0  0  0  0  0  0  0  0
   -4.9330   14.9440   -0.3060 C   0  0  1  0  0  0  0  0  0  0  0  0
   -5.9150   14.5210    0.7530 C   0  0  0  0  0  0  0  0  0  0  0  0
   -3.2910   14.7600   -2.6190 N   0  0  0  0  0  0  0  0  0  0  0  0
   -3.4700   14.5830   -0.2390 C   0  0  0  0  0  0  0  0  0  0  0  0
   -2.4500   14.4800   -4.0910 S   0  0  0  0  0  0  0  0  0  0  0  0
   -5.8580   14.8600    2.0770 N   0  0  0  0  0  0  0  0  0  0  0  0
   -6.9750   13.7690    0.5200 N   0  0  0  0  0  0  0  0  0  0  0  0
   -2.6750   14.4930   -1.3330 C   0  0  0  0  0  0  0  0  0  0  0  0
   -1.0640   15.3730   -3.8500 N   0  0  0  0  0  0  0  0  0  0  0  0
   -1.9880   13.1170   -4.1740 O   0  0  0  0  0  0  0  0  0  0  0  0
   -3.1460   15.1080   -5.1910 O   0  0  0  0  0  0  0  0  0  0  0  0
   -7.6170   13.6240    1.7140 C   0  0  0  0  0  0  0  0  0  0  0  0
   -6.9420   14.2970    2.6960 C   0  0  0  0  0  0  0  0  0  0  0  0
  1  2  1  0
  1  3  1  0
  3  4  2  0
  5  3  1  6
  5  6  1  0
  5  7  1  0
  7  8  1  1
  6  9  1  0
  7 10  1  0
  9 11  1  0
  8 12  1  0
  8 13  2  0
  9 14  1  0
 10 14  2  0
 11 15  1  0
 11 16  2  0
 11 17  2  0
 13 18  1  0
 12 19  1  0
 18 19  2  0
M  END
