mac-x0131-mac-x0587
     RDKit          3D

 24 26  0  0  0  0  0  0  0  0999 V2000
   -3.6970   15.0130   -4.1890 C   0  0  0  0  0  0  0  0  0  0  0  0
   -3.0990   14.9660   -2.8260 C   0  0  0  0  0  0  0  0  0  0  0  0
   -3.7630   15.1610   -1.6080 C   0  0  0  0  0  0  0  0  0  0  0  0
   -1.7550   14.7090   -2.5520 N   0  0  0  0  0  0  0  0  0  0  0  0
   -5.2110   15.4600   -1.4180 C   0  0  0  0  0  0  0  0  0  0  0  0
   -0.5900   14.4050   -3.4580 C   0  0  2  0  0  0  0  0  0  0  0  0
   -2.8080   15.0190   -0.5600 C   0  0  0  0  0  0  0  0  0  0  0  0
   -1.5890   14.7500   -1.1670 C   0  0  0  0  0  0  0  0  0  0  0  0
    0.5770   15.4020   -3.2530 C   0  0  0  0  0  0  0  0  0  0  0  0
   -0.7560   14.1970   -5.2940 S   0  0  0  0  0  0  0  0  0  0  0  0
   -2.8050   15.0850    0.8540 C   0  0  0  0  0  0  0  0  0  0  0  0
   -0.4240   14.5570   -0.5210 N   0  0  0  0  0  0  0  0  0  0  0  0
   -0.2670   12.9460   -3.3130 C   0  0  0  0  0  0  0  0  0  0  0  0
   -3.9350   15.3520    1.6200 N   0  0  0  0  0  0  0  0  0  0  0  0
    0.6220   12.9940   -5.5130 C   0  0  0  0  0  0  0  0  0  0  0  0
   -1.6490   14.8840    1.5230 N   0  0  0  0  0  0  0  0  0  0  0  0
   -0.5420   14.6400    0.8100 C   0  0  0  0  0  0  0  0  0  0  0  0
    0.4860   12.1410   -2.4900 C   0  0  0  0  0  0  0  0  0  0  0  0
   -0.8960   12.1530   -4.2620 O   0  0  0  0  0  0  0  0  0  0  0  0
    1.1360   12.3130   -4.2530 C   0  0  0  0  0  0  0  0  0  0  0  0
   -0.5400   10.8650   -4.0370 C   0  0  0  0  0  0  0  0  0  0  0  0
    0.3030   10.8050   -2.9530 C   0  0  0  0  0  0  0  0  0  0  0  0
    0.8050   11.1880   -3.9100 O   0  0  0  0  0  0  0  0  0  0  0  0
    2.0000   12.9950   -3.4740 O   0  0  0  0  0  0  0  0  0  0  0  0
  1  2  1  0
  2  3  2  0
  2  4  1  0
  3  5  1  0
  4  6  1  0
  3  7  1  0
  4  8  1  0
  7  8  2  0
  6  9  1  6
  6 10  1  0
  7 11  1  0
  8 12  1  0
  6 13  1  0
 11 14  1  0
 10 15  1  0
 11 16  2  0
 12 17  2  0
 16 17  1  0
 13 18  2  0
 13 19  1  0
 15 20  1  0
 19 21  1  0
 18 22  1  0
 21 22  2  0
 20 23  2  0
 20 24  1  0
M  END
