mac-x0116-mac-x0439
     RDKit          3D

 30 34  0  0  0  0  0  0  0  0999 V2000
   -5.9060   14.8610    1.8870 C   0  0  0  0  0  0  0  0  0  0  0  0
   -4.5190   15.3380    1.8490 N   0  0  0  0  0  0  0  0  0  0  0  0
   -3.8690   15.0040    0.6650 C   0  0  0  0  0  0  0  0  0  0  0  0
   -6.2490   13.4070    1.8370 C   0  0  0  0  0  0  0  0  0  0  0  0
   -6.2020   12.7830    0.6180 O   0  0  0  0  0  0  0  0  0  0  0  0
   -6.6460   12.5120    2.8040 C   0  0  0  0  0  0  0  0  0  0  0  0
   -6.8570   11.2850    2.1530 C   0  0  0  0  0  0  0  0  0  0  0  0
   -6.5730   11.4970    0.8270 C   0  0  0  0  0  0  0  0  0  0  0  0
   -4.5660   15.1070   -0.5050 N   0  0  0  0  0  0  0  0  0  0  0  0
   -2.5380   14.5460    0.5970 C   0  0  0  0  0  0  0  0  0  0  0  0
   -3.9830   14.7610   -1.6570 C   0  0  0  0  0  0  0  0  0  0  0  0
   -2.0960   14.2020   -0.6660 C   0  0  0  0  0  0  0  0  0  0  0  0
   -1.5310   14.3370    1.5340 N   0  0  0  0  0  0  0  0  0  0  0  0
   -2.7510   14.2850   -1.8360 N   0  0  0  0  0  0  0  0  0  0  0  0
   -0.8470   13.7320   -0.5120 N   0  0  0  0  0  0  0  0  0  0  0  0
   -0.5220   13.8460    0.8250 C   0  0  0  0  0  0  0  0  0  0  0  0
   -0.1170   13.2050   -1.6610 C   0  0  0  0  0  0  0  0  0  0  0  0
    1.2690   13.4650   -1.8800 N   0  0  0  0  0  0  0  0  0  0  0  0
    1.6000   14.3730   -2.6690 C   0  0  0  0  0  0  0  0  0  0  0  0
    2.9350   14.5450   -2.8180 O   0  0  0  0  0  0  0  0  0  0  0  0
    0.8440   15.3750   -3.5050 C   0  0  0  0  0  0  0  0  0  0  0  0
   -0.4770   15.5500   -3.6410 C   0  0  0  0  0  0  0  0  0  0  0  0
    1.5610   16.2840   -4.2430 N   0  0  0  0  0  0  0  0  0  0  0  0
   -0.7170   16.7590   -4.4870 C   0  0  1  0  0  0  0  0  0  0  0  0
    0.6900   17.0620   -4.8070 C   0  0  0  0  0  0  0  0  0  0  0  0
   -1.6640   16.9350   -5.5880 C   0  0  0  0  0  0  0  0  0  0  0  0
    0.9220   18.2390   -5.6610 C   0  0  0  0  0  0  0  0  0  0  0  0
   -3.1010   15.9860   -5.6220 Cl  0  0  0  0  0  0  0  0  0  0  0  0
   -1.3700   17.8630   -6.5030 C   0  0  0  0  0  0  0  0  0  0  0  0
   -0.1140   18.5990   -6.4500 C   0  0  0  0  0  0  0  0  0  0  0  0
  1  2  1  0
  2  3  1  0
  1  4  1  0
  4  5  1  0
  4  6  2  0
  6  7  1  0
  5  8  1  0
  7  8  2  0
  3  9  2  0
  3 10  1  0
  9 11  1  0
 10 12  2  0
 10 13  1  0
 11 14  2  0
 12 14  1  0
 12 15  1  0
 13 16  2  0
 15 16  1  0
 15 17  1  0
 17 18  1  0
 18 19  2  3
 19 20  1  0
 19 21  1  0
 21 22  2  0
 21 23  1  0
 24 22  1  6
 23 25  2  0
 24 25  1  0
 24 26  1  0
 25 27  1  0
 26 28  1  0
 26 29  2  0
 27 30  2  0
 29 30  1  0
M  END
