mac-x0204-mac-x0305
     RDKit          3D

 18 19  0  0  0  0  0  0  0  0999 V2000
   -0.3210   14.0690   -1.2720 N   0  0  0  0  0  0  0  0  0  0  0  0
    0.1000   14.2560   -2.5760 C   0  0  0  0  0  0  0  0  0  0  0  0
    1.2870   14.4760   -2.8370 O   0  0  0  0  0  0  0  0  0  0  0  0
    0.4320   13.0960   -0.5260 O   0  0  0  0  0  0  0  0  0  0  0  0
   -1.5910   14.5290   -0.7920 C   0  0  0  0  0  0  0  0  0  0  0  0
   -0.9060   14.2150   -3.6650 C   0  0  0  0  0  0  0  0  0  0  0  0
   -1.9140   14.7540    0.5690 C   0  0  0  0  0  0  0  0  0  0  0  0
   -2.5230   14.7630   -1.7560 N   0  0  0  0  0  0  0  0  0  0  0  0
   -1.0710   14.5630    1.6420 O   0  0  0  0  0  0  0  0  0  0  0  0
   -1.3310   15.3710   -4.3280 C   0  0  0  0  0  0  0  0  0  0  0  0
   -1.4610   12.9940   -4.0420 C   0  0  0  0  0  0  0  0  0  0  0  0
   -3.1940   15.2150    0.8950 C   0  0  0  0  0  0  0  0  0  0  0  0
   -3.7490   15.2130   -1.4090 C   0  0  0  0  0  0  0  0  0  0  0  0
   -2.2880   15.2570   -5.3260 C   0  0  0  0  0  0  0  0  0  0  0  0
   -2.3980   12.8580   -5.0200 N   0  0  0  0  0  0  0  0  0  0  0  0
   -4.1260   15.4510   -0.1090 C   0  0  0  0  0  0  0  0  0  0  0  0
   -2.7400   16.3540   -6.0020 O   0  0  0  0  0  0  0  0  0  0  0  0
   -2.7920   13.9990   -5.6410 C   0  0  0  0  0  0  0  0  0  0  0  0
  1  2  1  0
  2  3  2  0
  1  4  1  0
  1  5  1  0
  2  6  1  0
  5  7  2  0
  5  8  1  0
  7  9  1  0
  6 10  2  0
  6 11  1  0
  7 12  1  0
  8 13  2  0
 10 14  1  0
 11 15  2  0
 12 16  2  0
 13 16  1  0
 14 17  1  0
 14 18  2  0
 15 18  1  0
M  END
