mac-x0565-diamond-x0290_0_A
     RDKit          3D

 22 25  0  0  0  0  0  0  0  0999 V2000
   -5.3720   15.0060    0.9920 N   0  0  0  0  0  0  0  0  0  0  0  0
   -5.7750   14.8440   -0.3460 C   0  0  0  0  0  0  0  0  0  0  0  0
   -7.0730   14.5820   -0.5030 N   0  0  0  0  0  0  0  0  0  0  0  0
   -6.5210   14.4420    1.7120 C   0  0  0  0  0  0  0  0  0  0  0  0
   -4.1170   14.7730    1.5640 N   0  0  0  0  0  0  0  0  0  0  0  0
   -7.6350   14.5310    0.7680 N   0  0  0  0  0  0  0  0  0  0  0  0
   -4.8570   14.9210   -1.5100 C   0  0  0  0  0  0  0  0  0  0  0  0
   -2.8490   14.4900    0.9880 C   0  0  0  0  0  0  0  0  0  0  0  0
   -3.4880   15.0450   -1.3030 C   0  0  0  0  0  0  0  0  0  0  0  0
   -5.3590   14.8530   -2.8260 C   0  0  0  0  0  0  0  0  0  0  0  0
   -1.7740   14.7880    1.7550 N   0  0  0  0  0  0  0  0  0  0  0  0
   -2.6890   13.9390   -0.2790 C   0  0  0  0  0  0  0  0  0  0  0  0
   -2.6600   15.0830   -2.4000 C   0  0  0  0  0  0  0  0  0  0  0  0
   -4.4850   14.8990   -3.9220 C   0  0  0  0  0  0  0  0  0  0  0  0
   -0.5400   14.5460    1.2600 C   0  0  0  0  0  0  0  0  0  0  0  0
   -1.3940   13.6990   -0.7730 C   0  0  0  0  0  0  0  0  0  0  0  0
   -1.1750   13.1080   -2.1320 C   0  0  0  0  0  0  0  0  0  0  0  0
   -3.1400   15.0160   -3.6730 C   0  0  0  0  0  0  0  0  0  0  0  0
   -1.2990   15.1850   -2.3670 O   0  0  0  0  0  0  0  0  0  0  0  0
   -0.3050   14.0160    0.0180 C   0  0  0  0  0  0  0  0  0  0  0  0
   -2.1520   15.0750   -4.6060 O   0  0  0  0  0  0  0  0  0  0  0  0
   -0.9870   15.2300   -3.7710 C   0  0  0  0  0  0  0  0  0  0  0  0
  1  2  1  0
  2  3  2  0
  1  4  1  0
  1  5  1  0
  3  6  1  0
  4  6  1  0
  2  7  1  0
  5  8  1  0
  7  9  2  0
  7 10  1  0
  8 11  2  0
  8 12  1  0
  9 13  1  0
 10 14  2  0
 11 15  1  0
 12 16  2  0
 16 17  1  0
 13 18  2  0
 14 18  1  0
 13 19  1  0
 15 20  2  0
 16 20  1  0
 18 21  1  0
 19 22  1  0
 21 22  1  0
M  END
