mac-x0404-mac-x0131
     RDKit          3D

 33 37  0  0  0  0  0  0  0  0999 V2000
    2.0630   12.9720   -2.2400 O   0  0  0  0  0  0  0  0  0  0  0  0
    1.4690   12.5760   -3.3890 C   0  0  0  0  0  0  0  0  0  0  0  0
    1.0770   11.4350   -3.5090 O   0  0  0  0  0  0  0  0  0  0  0  0
    1.3710   13.6860   -4.4130 C   0  0  0  0  0  0  0  0  0  0  0  0
    0.8720   14.8730   -3.7720 O   0  0  0  0  0  0  0  0  0  0  0  0
   -0.2770   15.3680   -4.3760 C   0  0  0  0  0  0  0  0  0  0  0  0
   -0.2090   16.5480   -5.0890 C   0  0  0  0  0  0  0  0  0  0  0  0
   -1.4930   14.7680   -4.2850 C   0  0  0  0  0  0  0  0  0  0  0  0
   -1.8390   13.6010   -3.5290 C   0  0  2  0  0  0  0  0  0  0  0  0
   -1.3450   17.0890   -5.7180 C   0  0  0  0  0  0  0  0  0  0  0  0
   -2.6150   15.2890   -4.9260 C   0  0  0  0  0  0  0  0  0  0  0  0
    0.9680   17.2110   -5.1780 C   0  0  0  0  0  0  0  0  0  0  0  0
   -2.5520   16.4380   -5.6420 C   0  0  0  0  0  0  0  0  0  0  0  0
   -1.2470   18.2810   -6.4140 C   0  0  0  0  0  0  0  0  0  0  0  0
    1.0850   18.4000   -5.8640 C   0  0  0  0  0  0  0  0  0  0  0  0
   -2.4700   14.1530   -2.3270 N   0  0  0  0  0  0  0  0  0  0  0  0
   -1.0890   12.3510   -3.4370 C   0  0  0  0  0  0  0  0  0  0  0  0
   -0.0300   18.9390   -6.4870 C   0  0  0  0  0  0  0  0  0  0  0  0
   -3.7700   14.6040   -2.4260 C   0  0  0  0  0  0  0  0  0  0  0  0
   -2.0040   14.3410   -1.0280 C   0  0  0  0  0  0  0  0  0  0  0  0
   -0.1400   11.8430   -2.5930 C   0  0  0  0  0  0  0  0  0  0  0  0
   -1.4020   11.4590   -4.4070 O   0  0  0  0  0  0  0  0  0  0  0  0
   -4.5530   14.5630   -3.6940 C   0  0  0  0  0  0  0  0  0  0  0  0
   -4.1580   15.0600   -1.2020 C   0  0  0  0  0  0  0  0  0  0  0  0
   -3.0580   14.8910   -0.3110 C   0  0  0  0  0  0  0  0  0  0  0  0
   -0.7860   14.0590   -0.5170 N   0  0  0  0  0  0  0  0  0  0  0  0
   -0.6590   10.3670   -4.1860 C   0  0  0  0  0  0  0  0  0  0  0  0
    0.1360   10.5460   -3.0820 C   0  0  0  0  0  0  0  0  0  0  0  0
   -5.4860   15.6230   -0.8770 C   0  0  0  0  0  0  0  0  0  0  0  0
   -2.8420   15.1490    1.0470 C   0  0  0  0  0  0  0  0  0  0  0  0
   -0.6920   14.3630    0.7930 C   0  0  0  0  0  0  0  0  0  0  0  0
   -3.8250   15.6770    1.8750 N   0  0  0  0  0  0  0  0  0  0  0  0
   -1.6400   14.8790    1.5930 N   0  0  0  0  0  0  0  0  0  0  0  0
  1  2  1  0
  2  3  2  0
  2  4  1  0
  4  5  1  0
  5  6  1  0
  6  7  2  0
  6  8  1  0
  9  8  1  1
  7 10  1  0
  8 11  2  0
  7 12  1  0
 10 13  2  0
 11 13  1  0
 10 14  1  0
 12 15  2  0
  9 16  1  0
  9 17  1  0
 14 18  2  0
 15 18  1  0
 16 19  1  0
 16 20  1  0
 17 21  2  0
 17 22  1  0
 19 23  1  0
 19 24  2  0
 20 25  2  0
 24 25  1  0
 20 26  1  0
 22 27  1  0
 21 28  1  0
 27 28  2  0
 24 29  1  0
 25 30  1  0
 26 31  2  0
 30 32  1  0
 30 33  2  0
 31 33  1  0
M  END
