mac-x1493-mac-x0161
     RDKit          3D

 30 34  0  0  0  0  0  0  0  0999 V2000
   -3.5930   11.4190   -2.7270 O   0  0  0  0  0  0  0  0  0  0  0  0
   -3.3130   12.6870   -2.2780 C   0  0  0  0  0  0  0  0  0  0  0  0
   -2.1380   13.3470   -2.5190 C   0  0  0  0  0  0  0  0  0  0  0  0
   -4.4830   13.1880   -1.5220 C   0  0  0  0  0  0  0  0  0  0  0  0
   -4.6310   13.0470   -0.1430 C   0  0  0  0  0  0  0  0  0  0  0  0
   -5.5110   13.8330   -2.2060 C   0  0  0  0  0  0  0  0  0  0  0  0
   -1.7700   14.6630   -2.0910 N   0  0  0  0  0  0  0  0  0  0  0  0
   -1.2230   12.5880   -3.3300 C   0  0  0  0  0  0  0  0  0  0  0  0
   -5.7800   13.5480    0.4910 C   0  0  0  0  0  0  0  0  0  0  0  0
   -6.6320   14.3270   -1.6270 N   0  0  0  0  0  0  0  0  0  0  0  0
   -2.8420   15.6250   -2.2610 C   0  0  0  0  0  0  0  0  0  0  0  0
   -1.0110   14.9340   -0.8710 C   0  0  1  0  0  0  0  0  0  0  0  0
   -1.5300   11.6240   -4.2720 C   0  0  0  0  0  0  0  0  0  0  0  0
    0.1500   12.7110   -3.3030 O   0  0  0  0  0  0  0  0  0  0  0  0
   -6.7600   14.1850   -0.3010 C   0  0  0  0  0  0  0  0  0  0  0  0
   -5.9600   13.4260    1.8770 C   0  0  0  0  0  0  0  0  0  0  0  0
   -3.7480   15.9580   -1.1840 N   0  0  0  0  0  0  0  0  0  0  0  0
   -1.8330   15.4090    0.3410 C   0  0  1  0  0  0  0  0  0  0  0  0
   -0.2820   13.7720   -0.3160 N   0  0  0  0  0  0  0  0  0  0  0  0
    0.7180   11.8390   -4.2150 N   0  0  0  0  0  0  0  0  0  0  0  0
   -0.3120   11.2010   -4.7770 C   0  0  0  0  0  0  0  0  0  0  0  0
   -0.1670   10.2560   -5.7300 O   0  0  0  0  0  0  0  0  0  0  0  0
   -7.8960   14.6790    0.3250 C   0  0  0  0  0  0  0  0  0  0  0  0
   -7.1110   13.9330    2.4800 C   0  0  0  0  0  0  0  0  0  0  0  0
   -3.3400   15.4880    0.1170 C   0  0  1  0  0  0  0  0  0  0  0  0
   -1.4910   14.4790    1.4440 N   0  0  0  0  0  0  0  0  0  0  0  0
   -0.1570   14.1190    1.0840 C   0  0  0  0  0  0  0  0  0  0  0  0
   -4.0290   16.2850    1.0910 N   0  0  0  0  0  0  0  0  0  0  0  0
   -0.9540    9.0870   -5.5290 C   0  0  0  0  0  0  0  0  0  0  0  0
   -8.0800   14.5590    1.7050 C   0  0  0  0  0  0  0  0  0  0  0  0
  1  2  1  0
  2  3  2  3
  2  4  1  0
  4  5  2  0
  4  6  1  0
  3  7  1  0
  3  8  1  0
  5  9  1  0
  6 10  2  0
  7 11  1  0
  7 12  1  0
  8 13  2  0
  8 14  1  0
  9 15  2  0
 10 15  1  0
  9 16  1  0
 11 17  1  0
 12 18  1  0
 12 19  1  1
 14 20  1  0
 13 21  1  0
 20 21  2  0
 21 22  1  0
 15 23  1  0
 16 24  2  0
 17 25  1  0
 18 25  1  0
 18 26  1  1
 19 27  1  0
 26 27  1  0
 25 28  1  1
 22 29  1  0
 23 30  2  0
 24 30  1  0
M  END
