mac-x0226-mac-x0138
     RDKit          3D

 28 31  0  0  0  0  0  0  0  0999 V2000
    1.2540   12.4160   -1.9860 O   0  0  0  0  0  0  0  0  0  0  0  0
    0.3170   11.7040   -2.7630 C   0  0  0  0  0  0  0  0  0  0  0  0
    0.3480   10.3500   -2.3310 O   0  0  0  0  0  0  0  0  0  0  0  0
   -1.0940   12.2390   -2.5430 C   0  0  0  0  0  0  0  0  0  0  0  0
    0.6220   11.7740   -4.2130 C   0  0  0  0  0  0  0  0  0  0  0  0
   -1.5530   13.2080   -3.6410 C   0  0  0  0  0  0  0  0  0  0  0  0
    1.5370   12.5970   -4.9070 C   0  0  0  0  0  0  0  0  0  0  0  0
    0.0470   11.0140   -5.2020 C   0  0  0  0  0  0  0  0  0  0  0  0
   -1.4040   14.6650   -3.2500 C   0  0  0  0  0  0  0  0  0  0  0  0
    1.5370   12.3630   -6.2180 N   0  0  0  0  0  0  0  0  0  0  0  0
    0.6120   11.3790   -6.3900 N   0  0  0  0  0  0  0  0  0  0  0  0
    0.3160   10.8310   -7.6560 C   0  0  0  0  0  0  0  0  0  0  0  0
   -2.3300   14.8940   -2.1830 N   0  0  0  0  0  0  0  0  0  0  0  0
   -0.9250   10.2150   -7.8510 C   0  0  0  0  0  0  0  0  0  0  0  0
    1.2340   10.8870   -8.7020 C   0  0  0  0  0  0  0  0  0  0  0  0
   -3.6280   15.2790   -2.3450 C   0  0  0  0  0  0  0  0  0  0  0  0
   -2.0790   14.7600   -0.8450 C   0  0  0  0  0  0  0  0  0  0  0  0
   -1.2430    9.6620   -9.0880 C   0  0  0  0  0  0  0  0  0  0  0  0
    0.9130   10.3360   -9.9410 C   0  0  0  0  0  0  0  0  0  0  0  0
   -4.2400   15.4080   -1.1960 N   0  0  0  0  0  0  0  0  0  0  0  0
   -3.2830   15.0870   -0.2540 C   0  0  0  0  0  0  0  0  0  0  0  0
   -0.9320   14.3970   -0.2220 N   0  0  0  0  0  0  0  0  0  0  0  0
   -0.3260    9.7230  -10.1340 C   0  0  0  0  0  0  0  0  0  0  0  0
   -3.3120   15.0380    1.1370 C   0  0  0  0  0  0  0  0  0  0  0  0
   -1.0800   14.3800    1.1180 C   0  0  0  0  0  0  0  0  0  0  0  0
   -4.4480   15.3510    1.8690 N   0  0  0  0  0  0  0  0  0  0  0  0
   -0.0050   14.0300    1.9240 N   0  0  0  0  0  0  0  0  0  0  0  0
   -2.1890   14.6750    1.8000 N   0  0  0  0  0  0  0  0  0  0  0  0
  2  1  1  0
  2  3  1  0
  2  4  1  0
  2  5  1  0
  4  6  1  0
  5  7  1  0
  5  8  2  0
  6  9  1  0
  7 10  2  0
  8 11  1  0
 10 11  1  0
 11 12  1  0
  9 13  1  0
 12 14  2  0
 12 15  1  0
 13 16  1  0
 13 17  1  0
 14 18  1  0
 15 19  2  0
 16 20  2  0
 17 21  2  0
 20 21  1  0
 17 22  1  0
 18 23  2  0
 19 23  1  0
 21 24  1  0
 22 25  2  0
 24 26  1  0
 25 27  1  0
 24 28  2  0
 25 28  1  0
M  END
