mac-x0402-diamond-x0969_0_A
     RDKit          3D

 11 12  0  0  0  0  0  0  0  0999 V2000
   -1.7630   14.8600   -3.3990 Cl  0  0  0  0  0  0  0  0  0  0  0  0
   -3.0750   14.9030   -2.2890 C   0  0  0  0  0  0  0  0  0  0  0  0
   -4.3630   15.0200   -2.7840 C   0  0  0  0  0  0  0  0  0  0  0  0
   -2.8280   14.8200   -0.9120 C   0  0  0  0  0  0  0  0  0  0  0  0
   -3.9350   14.8540   -0.0550 C   0  0  0  0  0  0  0  0  0  0  0  0
   -5.4510   15.0530   -1.9180 C   0  0  0  0  0  0  0  0  0  0  0  0
   -5.2350   14.9660   -0.5390 C   0  0  0  0  0  0  0  0  0  0  0  0
   -3.9950   14.7750    1.6550 S   0  0  0  0  0  0  0  0  0  0  0  0
   -5.7130   14.8910    1.6000 C   0  0  0  0  0  0  0  0  0  0  0  0
   -6.2270   14.9800    0.4120 N   0  0  0  0  0  0  0  0  0  0  0  0
   -6.4880   14.8960    2.6930 N   0  0  0  0  0  0  0  0  0  0  0  0
  1  2  1  0
  2  3  2  0
  2  4  1  0
  4  5  2  0
  3  6  1  0
  5  7  1  0
  6  7  2  0
  5  8  1  0
  8  9  1  0
  7 10  1  0
  9 10  2  0
  9 11  1  0
M  END
