mac-x0137-diamond-x0805_0_A
     RDKit          3D

 32 36  0  0  0  0  0  0  0  0999 V2000
   -3.1010   11.6190   -4.4900 F   0  0  0  0  0  0  0  0  0  0  0  0
   -1.9030   11.9650   -3.9450 C   0  0  2  0  0  0  0  0  0  0  0  0
   -1.0670   10.7080   -3.7650 C   0  0  0  0  0  0  0  0  0  0  0  0
   -2.1360   12.5990   -2.5850 C   0  0  0  0  0  0  0  0  0  0  0  0
   -0.9060   13.0630   -1.8970 N   0  0  0  0  0  0  0  0  0  0  0  0
   -0.2560   10.7670   -2.4660 C   0  0  0  0  0  0  0  0  0  0  0  0
    0.2420   12.1690   -2.1140 C   0  0  0  0  0  0  0  0  0  0  0  0
   -1.1260   13.6200   -0.6470 C   0  0  0  0  0  0  0  0  0  0  0  0
   -0.3030   13.3700    0.4190 N   0  0  0  0  0  0  0  0  0  0  0  0
   -2.1770   14.3980   -0.4170 C   0  0  0  0  0  0  0  0  0  0  0  0
   -0.5570   13.9720    1.6210 C   0  0  0  0  0  0  0  0  0  0  0  0
   -2.4770   14.8920    0.9150 C   0  0  0  0  0  0  0  0  0  0  0  0
   -3.2280   14.8910   -1.2040 C   0  0  0  0  0  0  0  0  0  0  0  0
   -1.5820   14.7120    1.9170 N   0  0  0  0  0  0  0  0  0  0  0  0
   -3.6710   15.4450    0.9760 N   0  0  0  0  0  0  0  0  0  0  0  0
   -4.1130   15.4220   -0.3650 C   0  0  0  0  0  0  0  0  0  0  0  0
   -3.2300   14.7700   -2.6280 C   0  0  0  0  0  0  0  0  0  0  0  0
   -4.3490   14.6520   -3.4390 C   0  0  0  0  0  0  0  0  0  0  0  0
   -1.9490   14.7680   -3.1770 C   0  0  0  0  0  0  0  0  0  0  0  0
   -5.4270   15.9990   -0.7320 C   0  0  0  0  0  0  0  0  0  0  0  0
   -4.1480   14.5260   -4.8160 C   0  0  0  0  0  0  0  0  0  0  0  0
   -1.7130   14.6360   -4.5320 C   0  0  0  0  0  0  0  0  0  0  0  0
   -2.8470   14.5150   -5.3600 C   0  0  0  0  0  0  0  0  0  0  0  0
   -0.2650   14.6140   -5.0570 C   0  0  2  0  0  0  0  0  0  0  0  0
    0.5810   13.7100   -4.1550 C   0  0  1  0  0  0  0  0  0  0  0  0
    0.4320   15.9750   -5.1330 C   0  0  0  0  0  0  0  0  0  0  0  0
    0.6060   12.3020   -4.6200 C   0  0  0  0  0  0  0  0  0  0  0  0
    2.0520   14.0660   -4.0740 C   0  0  0  0  0  0  0  0  0  0  0  0
    1.1580   16.2730   -3.8360 C   0  0  0  0  0  0  0  0  0  0  0  0
    0.0520   12.0630   -5.8190 O   0  0  0  0  0  0  0  0  0  0  0  0
    1.0840   11.4120   -3.9830 O   0  0  0  0  0  0  0  0  0  0  0  0
    2.2720   15.3850   -3.5910 O   0  0  0  0  0  0  0  0  0  0  0  0
  2  1  1  1
  2  3  1  0
  2  4  1  0
  4  5  1  0
  3  6  1  0
  5  7  1  0
  6  7  1  0
  5  8  1  0
  8  9  1  0
  8 10  2  0
  9 11  1  0
 10 12  1  0
 10 13  1  0
 11 14  2  0
 12 14  1  0
 12 15  2  0
 13 16  2  0
 15 16  1  0
 13 17  1  0
 17 18  2  0
 17 19  1  0
 16 20  1  0
 18 21  1  0
 19 22  2  0
 21 23  2  0
 22 23  1  0
 24 22  1  1
 24 25  1  0
 24 26  1  0
 25 27  1  6
 25 28  1  0
 26 29  1  0
 27 30  1  0
 27 31  2  0
 28 32  1  0
 29 32  1  0
M  END
