mac-x0496-mac-x0354
     RDKit          3D

 36 39  0  0  0  0  0  0  0  0999 V2000
   -9.6620   17.6780    4.6900 C   0  0  0  0  0  0  0  0  0  0  0  0
   -9.6350   16.7280    3.5480 C   0  0  0  0  0  0  0  0  0  0  0  0
  -10.3450   16.8700    2.4110 N   0  0  0  0  0  0  0  0  0  0  0  0
   -8.8600   15.6150    3.5800 N   0  0  0  0  0  0  0  0  0  0  0  0
  -10.0060   15.7620    1.6530 O   0  0  0  0  0  0  0  0  0  0  0  0
   -9.1140   15.0670    2.4130 C   0  0  0  0  0  0  0  0  0  0  0  0
   -8.5590   13.8300    1.8460 C   0  0  0  0  0  0  0  0  0  0  0  0
   -7.1440   14.0660    1.6010 N   0  0  0  0  0  0  0  0  0  0  0  0
   -6.7160   14.5800    0.3940 C   0  0  0  0  0  0  0  0  0  0  0  0
   -7.4740   14.8880   -0.5110 O   0  0  0  0  0  0  0  0  0  0  0  0
   -5.2470   14.7350    0.2420 C   0  0  0  0  0  0  0  0  0  0  0  0
   -4.4880   14.8220    1.4040 C   0  0  0  0  0  0  0  0  0  0  0  0
   -4.6210   14.7890   -1.0110 C   0  0  0  0  0  0  0  0  0  0  0  0
   -3.1090   14.9480    1.3430 C   0  0  0  0  0  0  0  0  0  0  0  0
   -3.2320   14.9200   -1.0720 C   0  0  0  0  0  0  0  0  0  0  0  0
   -2.5820   14.9770   -2.3930 C   0  0  0  0  0  0  0  0  0  0  0  0
   -2.4780   14.9950    0.1070 C   0  0  0  0  0  0  0  0  0  0  0  0
   -1.3600   14.8880   -2.7910 N   0  0  0  0  0  0  0  0  0  0  0  0
   -3.5010   15.1750   -3.3520 O   0  0  0  0  0  0  0  0  0  0  0  0
   -0.2480   14.6850   -1.8550 C   0  0  0  0  0  0  0  0  0  0  0  0
    0.8570   13.8980   -2.5730 C   0  0  0  0  0  0  0  0  0  0  0  0
    0.5930   12.5030   -2.2910 N   0  0  0  0  0  0  0  0  0  0  0  0
    0.5730   11.5690   -3.1540 C   0  0  0  0  0  0  0  0  0  0  0  0
    0.3000   10.2860   -2.7880 O   0  0  0  0  0  0  0  0  0  0  0  0
    0.8460   11.7580   -4.5850 C   0  0  0  0  0  0  0  0  0  0  0  0
    1.8180   12.6040   -5.1870 C   0  0  0  0  0  0  0  0  0  0  0  0
    0.2390   11.1420   -5.6910 C   0  0  0  0  0  0  0  0  0  0  0  0
    0.8650   11.6230   -6.7990 N   0  0  0  0  0  0  0  0  0  0  0  0
    1.8280   12.5170   -6.5160 N   0  0  0  0  0  0  0  0  0  0  0  0
   -0.8200   10.1690   -5.8200 C   0  0  0  0  0  0  0  0  0  0  0  0
    0.5560   11.2280   -8.1680 C   0  0  0  0  0  0  0  0  0  0  0  0
   -0.5850    8.9430   -6.4590 C   0  0  0  0  0  0  0  0  0  0  0  0
   -2.0860   10.4520   -5.3100 C   0  0  0  0  0  0  0  0  0  0  0  0
   -1.6100    8.0140   -6.5800 C   0  0  0  0  0  0  0  0  0  0  0  0
   -3.1120    9.5240   -5.4310 C   0  0  0  0  0  0  0  0  0  0  0  0
   -2.8740    8.3020   -6.0660 C   0  0  0  0  0  0  0  0  0  0  0  0
  1  2  1  0
  2  3  2  0
  2  4  1  0
  3  5  1  0
  4  6  2  0
  5  6  1  0
  6  7  1  0
  7  8  1  0
  8  9  1  0
  9 10  2  0
  9 11  1  0
 11 12  2  0
 11 13  1  0
 12 14  1  0
 13 15  2  0
 15 16  1  0
 14 17  2  0
 15 17  1  0
 16 18  2  3
 16 19  1  0
 18 20  1  0
 20 21  1  0
 21 22  1  0
 22 23  2  3
 23 24  1  0
 23 25  1  0
 25 26  1  0
 25 27  2  0
 27 28  1  0
 26 29  2  0
 28 29  1  0
 27 30  1  0
 28 31  1  0
 30 32  2  0
 30 33  1  0
 32 34  1  0
 33 35  2  0
 34 36  2  0
 35 36  1  0
M  END
