mac-x0277-diamond-x1018_0_A
     RDKit          3D

 24 26  0  0  0  0  0  0  0  0999 V2000
   -1.1980   18.4370   -5.2270 Cl  0  0  0  0  0  0  0  0  0  0  0  0
   -0.4930   16.8830   -4.9650 C   0  0  0  0  0  0  0  0  0  0  0  0
   -1.2390   15.7110   -5.0760 C   0  0  0  0  0  0  0  0  0  0  0  0
    0.8610   16.8210   -4.6450 C   0  0  0  0  0  0  0  0  0  0  0  0
   -2.7060   15.6960   -5.4080 C   0  0  0  0  0  0  0  0  0  0  0  0
   -0.6020   14.4770   -4.8550 C   0  0  0  0  0  0  0  0  0  0  0  0
    1.4800   15.5850   -4.4230 C   0  0  0  0  0  0  0  0  0  0  0  0
   -3.5300   15.2840   -4.1940 C   0  0  0  0  0  0  0  0  0  0  0  0
    0.7540   14.4020   -4.5300 C   0  0  0  0  0  0  0  0  0  0  0  0
    1.4050   13.0560   -4.2970 C   0  0  0  0  0  0  0  0  0  0  0  0
   -2.7540   14.4870   -3.1380 C   0  0  0  0  0  0  0  0  0  0  0  0
    1.0300   12.4210   -2.9670 C   0  0  0  0  0  0  0  0  0  0  0  0
   -3.5750   14.1780   -1.9700 N   0  0  0  0  0  0  0  0  0  0  0  0
    0.4000   11.2270   -3.1100 O   0  0  0  0  0  0  0  0  0  0  0  0
    1.2420   12.8880   -1.8640 O   0  0  0  0  0  0  0  0  0  0  0  0
   -2.9830   14.7370   -0.7550 N   0  0  0  0  0  0  0  0  0  0  0  0
   -4.8550   14.7850   -2.1700 N   0  0  0  0  0  0  0  0  0  0  0  0
   -5.2140   15.3380   -0.9620 N   0  0  0  0  0  0  0  0  0  0  0  0
   -4.1000   15.3250   -0.0150 C   0  0  1  0  0  0  0  0  0  0  0  0
   -6.5250   15.1400   -0.6350 N   0  0  0  0  0  0  0  0  0  0  0  0
   -4.4600   14.6170    1.2430 C   0  0  0  0  0  0  0  0  0  0  0  0
   -6.7600   14.6520    0.5360 C   0  0  0  0  0  0  0  0  0  0  0  0
   -5.7260   14.2860    1.5250 C   0  0  0  0  0  0  0  0  0  0  0  0
   -8.4260   14.4390    0.9340 Cl  0  0  0  0  0  0  0  0  0  0  0  0
  1  2  1  0
  2  3  2  0
  2  4  1  0
  3  5  1  0
  3  6  1  0
  4  7  2  0
  5  8  1  0
  6  9  2  0
  7  9  1  0
  9 10  1  0
  8 11  1  0
 10 12  1  0
 11 13  1  0
 12 14  1  0
 12 15  2  0
 13 16  1  0
 13 17  1  0
 17 18  1  0
 16 19  1  0
 18 19  1  0
 18 20  1  0
 19 21  1  1
 20 22  2  0
 21 23  2  0
 22 23  1  0
 22 24  1  0
M  END
