mac-x0341-diamond-x0905_0_A
     RDKit          3D

 12 13  0  0  0  0  0  0  0  0999 V2000
   -6.8550   14.7180    2.3200 N   0  0  0  0  0  0  0  0  0  0  0  0
   -6.0980   14.7690    1.1980 C   0  0  0  0  0  0  0  0  0  0  0  0
   -4.8200   14.8370    1.3290 N   0  0  0  0  0  0  0  0  0  0  0  0
   -6.7140   14.7420   -0.0190 N   0  0  0  0  0  0  0  0  0  0  0  0
   -6.0250   15.0010   -1.1850 C   0  0  0  0  0  0  0  0  0  0  0  0
   -4.0190   14.8490    0.1920 C   0  0  0  0  0  0  0  0  0  0  0  0
   -6.5890   15.2590   -2.2360 O   0  0  0  0  0  0  0  0  0  0  0  0
   -4.5610   14.9290   -1.0850 C   0  0  0  0  0  0  0  0  0  0  0  0
   -2.6400   14.7670    0.3460 C   0  0  0  0  0  0  0  0  0  0  0  0
   -1.8090   14.7640   -0.7760 C   0  0  0  0  0  0  0  0  0  0  0  0
   -3.7460   14.9330   -2.2160 C   0  0  0  0  0  0  0  0  0  0  0  0
   -2.3640   14.8480   -2.0570 C   0  0  0  0  0  0  0  0  0  0  0  0
  1  2  1  0
  2  3  2  0
  2  4  1  0
  4  5  1  0
  3  6  1  0
  5  7  2  0
  5  8  1  0
  6  8  2  0
  6  9  1  0
  9 10  2  0
  8 11  1  0
 10 12  1  0
 11 12  2  0
M  END
