mac-x0472-diamond-x0910_0_A
     RDKit          3D

 21 23  0  0  0  0  0  0  0  0999 V2000
   -5.0180   14.7520   -4.3010 O   0  0  0  0  0  0  0  0  0  0  0  0
   -3.8660   14.2310   -3.6270 S   0  0  0  0  0  0  0  0  0  0  0  0
   -2.6310   13.9910   -4.3400 O   0  0  0  0  0  0  0  0  0  0  0  0
   -4.4220   12.7230   -2.8610 C   0  0  0  0  0  0  0  0  0  0  0  0
   -3.5640   15.4320   -2.4170 C   0  0  0  0  0  0  0  0  0  0  0  0
   -3.6560   11.5670   -3.0210 C   0  0  0  0  0  0  0  0  0  0  0  0
   -5.6140   12.7020   -2.1320 C   0  0  0  0  0  0  0  0  0  0  0  0
   -4.6810   15.4840   -1.4260 C   0  0  0  0  0  0  0  0  0  0  0  0
   -4.1010   10.3760   -2.4580 C   0  0  0  0  0  0  0  0  0  0  0  0
   -6.0510   11.5080   -1.5700 C   0  0  0  0  0  0  0  0  0  0  0  0
   -4.0870   15.2570    0.2040 S   0  0  0  0  0  0  0  0  0  0  0  0
   -5.3000   10.3530   -1.7400 C   0  0  0  0  0  0  0  0  0  0  0  0
   -2.5480   14.9700    0.6790 C   0  0  0  0  0  0  0  0  0  0  0  0
   -4.8450   15.2650    1.6720 C   0  0  0  0  0  0  0  0  0  0  0  0
   -2.6590   14.8930    1.9540 N   0  0  0  0  0  0  0  0  0  0  0  0
   -3.8980   15.0560    2.5480 N   0  0  0  0  0  0  0  0  0  0  0  0
   -1.1830   14.8060    0.0670 C   0  0  0  0  0  0  0  0  0  0  0  0
   -0.2260   15.0460    0.9140 N   0  0  0  0  0  0  0  0  0  0  0  0
   -0.8310   14.4550   -1.1950 N   0  0  0  0  0  0  0  0  0  0  0  0
    0.8140   14.8380    0.1610 N   0  0  0  0  0  0  0  0  0  0  0  0
    0.4680   14.4880   -1.0880 C   0  0  0  0  0  0  0  0  0  0  0  0
  1  2  2  0
  2  3  2  0
  2  4  1  0
  2  5  1  0
  4  6  2  0
  4  7  1  0
  5  8  1  0
  6  9  1  0
  7 10  2  0
  8 11  1  0
  9 12  2  0
 10 12  1  0
 11 13  2  0
 11 14  1  0
 13 15  1  0
 14 16  2  0
 15 16  1  0
 13 17  1  0
 17 18  2  0
 17 19  1  0
 18 20  1  0
 19 21  2  0
 20 21  1  0
M  END
