mac-x0213-mac-x0348
     RDKit          3D

 20 23  0  0  0  0  0  0  0  0999 V2000
    0.8430   11.1950   -2.7490 O   0  0  0  0  0  0  0  0  0  0  0  0
    0.6060   12.5760   -2.7660 C   0  0  0  0  0  0  0  0  0  0  0  0
    0.4660   12.9120   -1.3870 O   0  0  0  0  0  0  0  0  0  0  0  0
    1.7640   13.3580   -3.3840 C   0  0  0  0  0  0  0  0  0  0  0  0
   -0.6900   12.7750   -3.5420 C   0  0  2  0  0  0  0  0  0  0  0  0
    1.4830   14.8600   -3.5060 C   0  0  0  0  0  0  0  0  0  0  0  0
   -0.9280   14.2370   -4.0680 C   0  0  1  0  0  0  0  0  0  0  0  0
   -1.8570   12.2520   -2.6740 C   0  0  0  0  0  0  0  0  0  0  0  0
   -2.0270   13.0820   -1.4030 C   0  0  0  0  0  0  0  0  0  0  0  0
   -2.0550   14.8440   -3.1820 C   0  0  2  0  0  0  0  0  0  0  0  0
    0.3180   15.1410   -4.4510 C   0  0  1  0  0  0  0  0  0  0  0  0
   -2.2990   16.2920   -3.4510 C   0  0  0  0  0  0  0  0  0  0  0  0
   -0.0810   16.6250   -4.5970 C   0  0  1  0  0  0  0  0  0  0  0  0
   -1.8570   14.5610   -1.6900 C   0  0  0  0  0  0  0  0  0  0  0  0
    0.7180   17.4350   -5.6580 C   0  0  0  0  0  0  0  0  0  0  0  0
   -1.6140   16.6390   -4.7310 C   0  0  0  0  0  0  0  0  0  0  0  0
   -2.3180   15.5580   -5.5370 C   0  0  0  0  0  0  0  0  0  0  0  0
   -2.0830   17.8400   -5.4040 C   0  0  0  0  0  0  0  0  0  0  0  0
   -2.9000   17.4910   -6.3660 C   0  0  0  0  0  0  0  0  0  0  0  0
   -3.0860   16.0850   -6.4360 C   0  0  0  0  0  0  0  0  0  0  0  0
  2  1  1  0
  2  3  1  0
  2  4  1  0
  2  5  1  0
  4  6  1  0
  7  5  1  1
  5  8  1  1
  8  9  1  0
  7 10  1  0
 11  6  1  1
  7 11  1  0
 10 12  1  1
 11 13  1  0
  9 14  1  0
 10 14  1  0
 13 15  1  6
 12 16  1  0
 13 16  1  0
 16 17  1  0
 16 18  1  0
 18 19  2  0
 17 20  2  0
 19 20  1  0
M  END
