mac-x0588-mac-x0305
     RDKit          3D

 19 21  0  0  0  0  0  0  0  0999 V2000
   -4.6900   14.9040    0.9740 N   0  0  0  0  0  0  0  0  0  0  0  0
   -3.6290   15.5530    0.2100 C   0  0  1  0  0  0  0  0  0  0  0  0
   -2.2550   14.8550    0.4150 C   0  0  1  0  0  0  0  0  0  0  0  0
   -4.1140   15.4400   -1.1510 N   0  0  0  0  0  0  0  0  0  0  0  0
   -2.3490   13.4750    0.2240 O   0  0  0  0  0  0  0  0  0  0  0  0
   -3.0220   15.2200   -2.1130 C   0  0  0  0  0  0  0  0  0  0  0  0
   -1.2050   15.4860   -0.4680 C   0  0  2  0  0  0  0  0  0  0  0  0
   -1.5860   14.9410    1.6780 N   0  0  0  0  0  0  0  0  0  0  0  0
   -1.6180   15.5660   -1.8480 N   0  0  0  0  0  0  0  0  0  0  0  0
   -0.0160   14.7260   -0.0470 N   0  0  0  0  0  0  0  0  0  0  0  0
   -0.2890   14.3730    1.3420 C   0  0  0  0  0  0  0  0  0  0  0  0
   -0.5660   15.4310   -2.7590 C   0  0  0  0  0  0  0  0  0  0  0  0
    0.2060   14.3110   -2.7200 C   0  0  0  0  0  0  0  0  0  0  0  0
   -0.3320   16.6280   -3.7130 C   0  0  2  0  0  0  0  0  0  0  0  0
    0.0680   13.2390   -1.8600 O   0  0  0  0  0  0  0  0  0  0  0  0
   -1.5080   17.2480   -4.3250 O   0  0  0  0  0  0  0  0  0  0  0  0
    0.5810   16.3470   -4.8920 C   0  0  0  0  0  0  0  0  0  0  0  0
    0.4980   17.6950   -5.5610 C   0  0  0  0  0  0  0  0  0  0  0  0
   -0.9870   18.0180   -5.4280 C   0  0  0  0  0  0  0  0  0  0  0  0
  2  1  1  1
  2  3  1  0
  2  4  1  0
  3  5  1  6
  4  6  1  0
  3  7  1  0
  3  8  1  0
  6  9  1  0
  7  9  1  0
  7 10  1  6
  8 11  1  0
 10 11  1  0
  9 12  1  0
 12 13  2  3
 14 12  1  6
 13 15  1  0
 14 16  1  0
 14 17  1  0
 17 18  1  0
 16 19  1  0
 18 19  1  0
M  END
