mac-x0148-mac-x0568
     RDKit          3D

 28 32  0  0  0  0  0  0  0  0999 V2000
   -8.6460   14.3990    1.7560 C   0  0  0  0  0  0  0  0  0  0  0  0
   -7.5570   14.5370    0.7430 C   0  0  0  0  0  0  0  0  0  0  0  0
   -6.2740   14.1060    1.0350 C   0  0  0  0  0  0  0  0  0  0  0  0
   -7.8930   15.0940   -0.4430 N   0  0  0  0  0  0  0  0  0  0  0  0
   -6.9250   15.2340   -1.3710 C   0  0  0  0  0  0  0  0  0  0  0  0
   -5.2890   14.2520    0.0630 C   0  0  0  0  0  0  0  0  0  0  0  0
   -5.6350   14.8370   -1.1740 C   0  0  0  0  0  0  0  0  0  0  0  0
   -4.6760   15.0490   -2.2580 C   0  0  0  0  0  0  0  0  0  0  0  0
   -4.9190   14.7980   -3.4170 O   0  0  0  0  0  0  0  0  0  0  0  0
   -3.5280   15.5230   -1.8930 N   0  0  0  0  0  0  0  0  0  0  0  0
   -3.2220   15.3830   -0.6720 C   0  0  0  0  0  0  0  0  0  0  0  0
   -2.0140   14.8050   -0.3230 C   0  0  0  0  0  0  0  0  0  0  0  0
   -3.8850   15.6990    0.4350 C   0  0  0  0  0  0  0  0  0  0  0  0
   -2.1320   14.8350    1.1380 C   0  0  0  0  0  0  0  0  0  0  0  0
   -0.9330   14.3130   -0.9580 C   0  0  0  0  0  0  0  0  0  0  0  0
   -3.2320   15.3550    1.5760 N   0  0  0  0  0  0  0  0  0  0  0  0
   -0.7360   14.2480   -2.3730 N   0  0  0  0  0  0  0  0  0  0  0  0
    0.0270   13.8610   -0.0890 N   0  0  0  0  0  0  0  0  0  0  0  0
   -1.1850   14.3390    1.9060 N   0  0  0  0  0  0  0  0  0  0  0  0
   -1.8890   14.1600   -3.3750 C   0  0  1  0  0  0  0  0  0  0  0  0
    0.5280   13.5600   -2.7510 C   0  0  0  0  0  0  0  0  0  0  0  0
   -0.1920   13.8750    1.2710 C   0  0  0  0  0  0  0  0  0  0  0  0
   -2.0780   15.4280   -4.2210 C   0  0  0  0  0  0  0  0  0  0  0  0
   -1.7540   13.1000   -4.4890 C   0  0  1  0  0  0  0  0  0  0  0  0
    0.2680   12.2460   -3.4570 C   0  0  0  0  0  0  0  0  0  0  0  0
   -2.5000   13.6590   -5.6860 C   0  0  0  0  0  0  0  0  0  0  0  0
   -2.6530   15.0670   -5.4900 O   0  0  0  0  0  0  0  0  0  0  0  0
   -0.3750   12.5630   -4.7740 C   0  0  0  0  0  0  0  0  0  0  0  0
  1  2  1  0
  2  3  2  0
  2  4  1  0
  4  5  2  0
  3  6  1  0
  5  7  1  0
  6  7  2  0
  7  8  1  0
  8  9  2  0
  8 10  1  0
 10 11  1  0
 11 12  1  0
 11 13  2  0
 12 14  1  0
 12 15  2  0
 13 16  1  0
 14 16  2  0
 15 17  1  0
 15 18  1  0
 14 19  1  0
 17 20  1  0
 17 21  1  0
 18 22  1  0
 19 22  2  0
 20 23  1  6
 20 24  1  0
 21 25  1  0
 24 26  1  6
 23 27  1  0
 26 27  1  0
 24 28  1  0
 25 28  1  0
M  END
