mac-x0357-diamond-x0722_0_A
     RDKit          3D

 22 23  0  0  0  0  0  0  0  0999 V2000
    2.2330   13.4300   -4.0670 C   0  0  0  0  0  0  0  0  0  0  0  0
    0.9760   12.7160   -4.4870 C   0  0  0  0  0  0  0  0  0  0  0  0
    0.9610   12.1090   -5.7710 C   0  0  0  0  0  0  0  0  0  0  0  0
   -0.2100   12.6050   -3.6830 C   0  0  0  0  0  0  0  0  0  0  0  0
    2.0740   12.1960   -6.5610 O   0  0  0  0  0  0  0  0  0  0  0  0
   -0.5180   13.1350   -2.2990 C   0  0  0  0  0  0  0  0  0  0  0  0
   -1.3110   11.8980   -4.2130 C   0  0  0  0  0  0  0  0  0  0  0  0
   -0.1460   11.4190   -6.2610 C   0  0  0  0  0  0  0  0  0  0  0  0
   -1.5690   13.8710   -1.9220 N   0  0  0  0  0  0  0  0  0  0  0  0
    0.4060   12.7310   -1.3860 O   0  0  0  0  0  0  0  0  0  0  0  0
   -1.2810   11.3150   -5.4760 C   0  0  0  0  0  0  0  0  0  0  0  0
   -2.0480   14.3690   -0.6870 C   0  0  0  0  0  0  0  0  0  0  0  0
   -3.3120   14.9100   -0.3270 C   0  0  0  0  0  0  0  0  0  0  0  0
   -1.3510   14.4400    0.5210 N   0  0  0  0  0  0  0  0  0  0  0  0
   -0.0180   14.0640    0.8370 C   0  0  0  0  0  0  0  0  0  0  0  0
   -4.5290   15.1270   -1.1820 C   0  0  0  0  0  0  0  0  0  0  0  0
   -2.0400   14.9420    1.5500 N   0  0  0  0  0  0  0  0  0  0  0  0
   -3.2210   15.2280    1.0520 C   0  0  0  0  0  0  0  0  0  0  0  0
   -4.2250   15.8210    1.9450 C   0  0  0  0  0  0  0  0  0  0  0  0
   -5.8640   14.6400   -0.6230 C   0  0  0  0  0  0  0  0  0  0  0  0
   -6.9090   15.2730   -0.7850 O   0  0  0  0  0  0  0  0  0  0  0  0
   -5.9080   13.4680    0.0720 N   0  0  0  0  0  0  0  0  0  0  0  0
  1  2  1  0
  2  3  2  0
  2  4  1  0
  3  5  1  0
  4  6  1  0
  4  7  2  0
  3  8  1  0
  6  9  2  3
  6 10  1  0
  7 11  1  0
  8 11  2  0
  9 12  1  0
 12 13  2  0
 12 14  1  0
 14 15  1  0
 13 16  1  0
 14 17  1  0
 13 18  1  0
 17 18  2  0
 18 19  1  0
 16 20  1  0
 20 21  2  0
 20 22  1  0
M  END
