mac-x0437-mac-x0587
     RDKit          3D

 25 27  0  0  0  0  0  0  0  0999 V2000
    1.5730   12.6720   -2.1250 O   0  0  0  0  0  0  0  0  0  0  0  0
    1.1270   12.1050   -3.3300 C   0  0  0  0  0  0  0  0  0  0  0  0
    1.9160   10.9870   -3.5650 O   0  0  0  0  0  0  0  0  0  0  0  0
    1.3170   13.0700   -4.5020 C   0  0  0  0  0  0  0  0  0  0  0  0
   -0.2950   11.5970   -3.1620 C   0  0  0  0  0  0  0  0  0  0  0  0
    0.0040   13.5140   -5.1890 C   0  0  2  0  0  0  0  0  0  0  0  0
   -0.6440   14.7990   -4.4740 C   0  0  2  0  0  0  0  0  0  0  0  0
   -0.8210   12.3340   -5.5760 N   0  0  0  0  0  0  0  0  0  0  0  0
    0.3590   15.6890   -3.7340 C   0  0  0  0  0  0  0  0  0  0  0  0
   -2.0740   14.7130   -3.8220 C   0  0  0  0  0  0  0  0  0  0  0  0
   -2.0030   11.9580   -4.9880 C   0  0  0  0  0  0  0  0  0  0  0  0
   -0.5640   11.3980   -6.5860 C   0  0  0  0  0  0  0  0  0  0  0  0
   -2.9900   14.6100   -4.6360 O   0  0  0  0  0  0  0  0  0  0  0  0
   -2.5160   10.8780   -5.5320 N   0  0  0  0  0  0  0  0  0  0  0  0
   -1.6470   10.5160   -6.5260 C   0  0  0  0  0  0  0  0  0  0  0  0
    0.4630   11.2140   -7.5340 C   0  0  0  0  0  0  0  0  0  0  0  0
   -2.4300   14.8130   -2.4620 N   0  0  0  0  0  0  0  0  0  0  0  0
   -1.7320    9.4320   -7.4210 C   0  0  0  0  0  0  0  0  0  0  0  0
    0.3640   10.1290   -8.4220 C   0  0  0  0  0  0  0  0  0  0  0  0
   -3.7850   15.0730   -1.9640 C   0  0  0  0  0  0  0  0  0  0  0  0
   -1.5780   14.7410   -1.3330 C   0  0  0  0  0  0  0  0  0  0  0  0
   -0.3700   14.7910   -1.2530 O   0  0  0  0  0  0  0  0  0  0  0  0
   -0.7190    9.2460   -8.3730 C   0  0  0  0  0  0  0  0  0  0  0  0
   -3.6890   15.1100   -0.4460 C   0  0  0  0  0  0  0  0  0  0  0  0
   -2.3790   14.6100   -0.1970 N   0  0  0  0  0  0  0  0  0  0  0  0
  2  1  1  0
  2  3  1  0
  2  4  1  0
  2  5  1  0
  6  4  1  1
  6  7  1  0
  6  8  1  0
  7  9  1  1
  7 10  1  0
  8 11  1  0
  8 12  1  0
 10 13  2  0
 11 14  2  0
 12 15  2  0
 14 15  1  0
 12 16  1  0
 10 17  1  0
 15 18  1  0
 16 19  2  0
 17 20  1  0
 17 21  1  0
 21 22  2  0
 18 23  2  0
 19 23  1  0
 20 24  1  0
 21 25  1  0
 24 25  1  0
M  END
