mac-x0206-mac-x0302
     RDKit          3D

 22 24  0  0  0  0  0  0  0  0999 V2000
   -3.1910   12.5970   -1.1710 N   0  0  0  0  0  0  0  0  0  0  0  0
   -4.2080   13.4810   -1.7280 C   0  0  2  0  0  0  0  0  0  0  0  0
   -3.4060   14.7960   -2.2890 C   0  0  1  0  0  0  0  0  0  0  0  0
   -5.3850   13.6280   -0.5840 C   0  0  0  0  0  0  0  0  0  0  0  0
   -1.9140   14.8740   -2.2550 N   0  0  0  0  0  0  0  0  0  0  0  0
   -4.0670   15.5510   -3.2940 O   0  0  0  0  0  0  0  0  0  0  0  0
   -6.4590   14.5140   -0.7570 C   0  0  0  0  0  0  0  0  0  0  0  0
   -5.4730   12.9320    0.6400 C   0  0  0  0  0  0  0  0  0  0  0  0
   -3.8670   15.1340   -1.0170 C   0  0  0  0  0  0  0  0  0  0  0  0
   -6.2210   15.1580   -1.8210 O   0  0  0  0  0  0  0  0  0  0  0  0
   -1.1260   14.4420   -3.4310 C   0  0  0  0  0  0  0  0  0  0  0  0
   -7.5530   14.7310    0.0850 C   0  0  0  0  0  0  0  0  0  0  0  0
   -6.5550   13.1280    1.5420 C   0  0  0  0  0  0  0  0  0  0  0  0
   -5.1790   15.2530   -0.9180 C   0  0  0  0  0  0  0  0  0  0  0  0
   -3.0180   15.2300    0.0910 C   0  0  0  0  0  0  0  0  0  0  0  0
    0.2600   13.9940   -2.9420 C   0  0  0  0  0  0  0  0  0  0  0  0
   -7.6000   14.0160    1.2640 C   0  0  0  0  0  0  0  0  0  0  0  0
   -5.6830   15.4330    0.3270 C   0  0  0  0  0  0  0  0  0  0  0  0
   -3.5350   15.4290    1.3390 C   0  0  0  0  0  0  0  0  0  0  0  0
    1.1920   14.0060   -3.9240 O   0  0  0  0  0  0  0  0  0  0  0  0
    0.5230   13.6550   -1.8000 O   0  0  0  0  0  0  0  0  0  0  0  0
   -4.8900   15.5250    1.4640 C   0  0  0  0  0  0  0  0  0  0  0  0
  2  1  1  1
  2  3  1  0
  2  4  1  0
  3  5  1  0
  3  6  1  6
  4  7  2  0
  4  8  1  0
  3  9  1  0
  7 10  1  0
  5 11  1  0
  7 12  1  0
  8 13  2  0
  9 14  2  0
 10 14  1  0
  9 15  1  0
 11 16  1  0
 12 17  2  0
 13 17  1  0
 14 18  1  0
 15 19  2  0
 16 20  1  0
 16 21  2  0
 18 22  2  0
 19 22  1  0
M  END
