mac-x0159-diamond-x0967_0_A
     RDKit          3D

 25 29  0  0  0  0  0  0  0  0999 V2000
   -3.4900   16.2780    0.7270 N   0  0  0  0  0  0  0  0  0  0  0  0
   -3.3520   15.0650   -0.0620 C   0  0  2  0  0  0  0  0  0  0  0  0
   -1.9050   14.6300    0.0790 C   0  0  1  0  0  0  0  0  0  0  0  0
   -3.8340   15.3900   -1.4360 N   0  0  0  0  0  0  0  0  0  0  0  0
   -4.2950   14.1320    0.6780 C   0  0  0  0  0  0  0  0  0  0  0  0
   -2.9160   15.1970   -2.5870 C   0  0  0  0  0  0  0  0  0  0  0  0
   -1.0810   15.2290   -1.0260 C   0  0  2  0  0  0  0  0  0  0  0  0
   -1.1790   15.0530    1.2390 N   0  0  0  0  0  0  0  0  0  0  0  0
   -5.5610   14.9450    0.7470 C   0  0  1  0  0  0  0  0  0  0  0  0
   -5.1670   14.8510   -1.7670 N   0  0  0  0  0  0  0  0  0  0  0  0
   -1.5710   14.7040   -2.2670 N   0  0  0  0  0  0  0  0  0  0  0  0
    0.2130   14.7090   -0.6460 N   0  0  0  0  0  0  0  0  0  0  0  0
    0.1500   14.7150    0.8200 C   0  0  0  0  0  0  0  0  0  0  0  0
   -6.1370   15.0660   -0.6860 C   0  0  1  0  0  0  0  0  0  0  0  0
   -6.5450   14.5670    1.8060 C   0  0  0  0  0  0  0  0  0  0  0  0
   -0.6050   14.5860   -3.3690 C   0  0  0  0  0  0  0  0  0  0  0  0
   -7.3720   14.3370   -0.9170 N   0  0  0  0  0  0  0  0  0  0  0  0
   -7.8310   14.4160    1.5110 C   0  0  0  0  0  0  0  0  0  0  0  0
   -0.3010   15.8760   -4.0970 C   0  0  0  0  0  0  0  0  0  0  0  0
   -8.3610   14.6120    0.1270 C   0  0  0  0  0  0  0  0  0  0  0  0
    0.9430   16.4700   -4.1820 C   0  0  0  0  0  0  0  0  0  0  0  0
   -1.3070   16.5790   -4.7690 N   0  0  0  0  0  0  0  0  0  0  0  0
   -0.8080   17.6600   -5.3320 C   0  0  0  0  0  0  0  0  0  0  0  0
    0.8660   17.9090   -5.1010 S   0  0  0  0  0  0  0  0  0  0  0  0
   -1.5870   18.6410   -6.1330 C   0  0  0  0  0  0  0  0  0  0  0  0
  2  1  1  1
  2  3  1  0
  2  4  1  0
  2  5  1  0
  4  6  1  0
  3  7  1  0
  3  8  1  1
  9  5  1  6
  4 10  1  0
  6 11  1  0
  7 11  1  0
  7 12  1  1
  8 13  1  0
 12 13  1  0
  9 14  1  0
 14 10  1  6
  9 15  1  0
 11 16  1  0
 14 17  1  0
 15 18  2  0
 16 19  1  0
 17 20  1  0
 18 20  1  0
 19 21  2  0
 19 22  1  0
 22 23  2  0
 21 24  1  0
 23 24  1  0
 23 25  1  0
M  END
