mac-x0132-mac-x0159
     RDKit          3D

 27 31  0  0  0  0  0  0  0  0999 V2000
   -4.1450   14.8510    1.2350 N   0  0  0  0  0  0  0  0  0  0  0  0
   -5.4730   14.7400    0.8500 C   0  0  0  0  0  0  0  0  0  0  0  0
   -6.4880   14.5560    1.7070 N   0  0  0  0  0  0  0  0  0  0  0  0
   -3.1990   14.8280    0.0980 C   0  0  2  0  0  0  0  0  0  0  0  0
   -5.6720   14.8220   -0.5160 C   0  0  0  0  0  0  0  0  0  0  0  0
   -3.5030   14.1230   -1.1580 N   0  0  0  0  0  0  0  0  0  0  0  0
   -1.7650   14.5420    0.5070 C   0  0  1  0  0  0  0  0  0  0  0  0
   -6.9720   14.6910   -0.9690 C   0  0  0  0  0  0  0  0  0  0  0  0
   -7.7070   14.4510    1.1610 C   0  0  0  0  0  0  0  0  0  0  0  0
   -4.6260   15.0240   -1.4340 C   0  0  0  0  0  0  0  0  0  0  0  0
   -2.7350   14.6520   -2.2900 C   0  0  0  0  0  0  0  0  0  0  0  0
   -0.9600   14.1370   -0.7680 C   0  0  1  0  0  0  0  0  0  0  0  0
   -0.9880   15.6310    1.0270 N   0  0  0  0  0  0  0  0  0  0  0  0
   -8.0010   14.5070   -0.1430 N   0  0  0  0  0  0  0  0  0  0  0  0
   -7.1940   14.7490   -2.3320 C   0  0  0  0  0  0  0  0  0  0  0  0
   -4.8660   15.0790   -2.7940 C   0  0  0  0  0  0  0  0  0  0  0  0
   -1.3410   14.8070   -1.9990 N   0  0  0  0  0  0  0  0  0  0  0  0
    0.4020   14.4970   -0.4050 N   0  0  0  0  0  0  0  0  0  0  0  0
    0.2820   15.0220    0.9410 C   0  0  0  0  0  0  0  0  0  0  0  0
   -0.4510   14.6010   -3.1560 C   0  0  0  0  0  0  0  0  0  0  0  0
   -6.1590   14.9350   -3.2400 C   0  0  0  0  0  0  0  0  0  0  0  0
   -0.2100   15.8150   -4.0390 C   0  0  0  0  0  0  0  0  0  0  0  0
    1.0050   16.4400   -4.2470 C   0  0  0  0  0  0  0  0  0  0  0  0
   -1.2710   16.4040   -4.7360 N   0  0  0  0  0  0  0  0  0  0  0  0
   -0.8430   17.4410   -5.4310 C   0  0  0  0  0  0  0  0  0  0  0  0
    0.8290   17.7740   -5.3100 S   0  0  0  0  0  0  0  0  0  0  0  0
   -1.7010   18.3090   -6.2840 C   0  0  0  0  0  0  0  0  0  0  0  0
  1  2  1  0
  2  3  2  0
  4  1  1  1
  2  5  1  0
  4  6  1  0
  4  7  1  0
  5  8  2  0
  3  9  1  0
  5 10  1  0
  6 11  1  0
  7 12  1  0
  7 13  1  6
  8 14  1  0
  9 14  2  0
  8 15  1  0
 10 16  2  0
 11 17  1  0
 12 17  1  0
 12 18  1  1
 13 19  1  0
 18 19  1  0
 17 20  1  0
 15 21  2  0
 16 21  1  0
 20 22  1  0
 22 23  2  0
 22 24  1  0
 24 25  2  0
 23 26  1  0
 25 26  1  0
 25 27  1  0
M  END
