mac-x0123-mac-x0188
     RDKit          3D

 21 24  0  0  0  0  0  0  0  0999 V2000
   -3.4850   14.2070    1.7640 N   0  0  0  0  0  0  0  0  0  0  0  0
   -4.3620   14.4190    0.6920 C   0  0  0  0  0  0  0  0  0  0  0  0
   -5.7450   14.5080    0.8270 C   0  0  0  0  0  0  0  0  0  0  0  0
   -3.8680   14.5480   -0.6070 C   0  0  0  0  0  0  0  0  0  0  0  0
   -4.7290   14.7770   -1.6670 C   0  0  0  0  0  0  0  0  0  0  0  0
   -6.5440   14.7280   -0.3110 C   0  0  0  0  0  0  0  0  0  0  0  0
   -6.5740   14.3920    2.0690 C   0  0  0  0  0  0  0  0  0  0  0  0
   -2.4890   14.4620   -1.0220 N   0  0  0  0  0  0  0  0  0  0  0  0
   -6.0770   14.8760   -1.5900 N   0  0  0  0  0  0  0  0  0  0  0  0
   -8.0090   14.7830    0.0670 C   0  0  0  0  0  0  0  0  0  0  0  0
   -8.0210   14.5510    1.5860 C   0  0  0  0  0  0  0  0  0  0  0  0
   -3.8810   14.8850   -2.8310 N   0  0  0  0  0  0  0  0  0  0  0  0
   -2.5550   14.2940   -2.5050 C   0  0  2  0  0  0  0  0  0  0  0  0
   -2.6590   12.9580   -3.1020 N   0  0  0  0  0  0  0  0  0  0  0  0
   -1.1730   14.6970   -3.1120 C   0  0  1  0  0  0  0  0  0  0  0  0
    0.0300   14.4630   -2.2220 C   0  0  0  0  0  0  0  0  0  0  0  0
   -1.0020   14.0080   -4.4530 C   0  0  2  0  0  0  0  0  0  0  0  0
   -1.9560   12.9460   -4.4160 O   0  0  0  0  0  0  0  0  0  0  0  0
    0.3770   13.4170   -4.8230 C   0  0  0  0  0  0  0  0  0  0  0  0
    0.8220   15.2680   -1.7860 O   0  0  0  0  0  0  0  0  0  0  0  0
    0.2240   13.1560   -1.9020 O   0  0  0  0  0  0  0  0  0  0  0  0
  1  2  1  0
  2  3  2  0
  2  4  1  0
  4  5  2  0
  3  6  1  0
  3  7  1  0
  4  8  1  0
  5  9  1  0
  6  9  2  0
  6 10  1  0
  7 11  1  0
 10 11  1  0
  5 12  1  0
 13  8  1  1
 12 13  1  0
 13 14  1  0
 13 15  1  0
 15 16  1  1
 15 17  1  0
 14 18  1  0
 17 18  1  0
 17 19  1  1
 16 20  2  0
 16 21  1  0
M  END
