mac-x0344-mac-x0361
     RDKit          3D

 24 25  0  0  0  0  0  0  0  0999 V2000
    2.1690   13.2850   -4.6380 O   0  0  0  0  0  0  0  0  0  0  0  0
    1.0230   13.0860   -3.8320 C   0  0  0  0  0  0  0  0  0  0  0  0
    1.4210   13.1320   -2.4790 O   0  0  0  0  0  0  0  0  0  0  0  0
    0.3970   11.6940   -4.1830 C   0  0  0  0  0  0  0  0  0  0  0  0
   -0.0340   14.1690   -4.1230 C   0  0  0  0  0  0  0  0  0  0  0  0
    0.2170   10.8540   -3.3020 O   0  0  0  0  0  0  0  0  0  0  0  0
    0.1150   11.5680   -5.5310 N   0  0  0  0  0  0  0  0  0  0  0  0
   -0.8340   14.6280   -2.9000 C   0  0  0  0  0  0  0  0  0  0  0  0
   -2.1030   15.1650   -3.2970 O   0  0  0  0  0  0  0  0  0  0  0  0
   -0.7410   10.6310   -6.1290 C   0  0  0  0  0  0  0  0  0  0  0  0
   -0.3030    9.9770   -7.2880 C   0  0  0  0  0  0  0  0  0  0  0  0
   -1.9950   10.3230   -5.6200 C   0  0  0  0  0  0  0  0  0  0  0  0
   -3.2100   15.0580   -2.4950 C   0  0  0  0  0  0  0  0  0  0  0  0
   -1.1200    9.0330   -7.9140 C   0  0  0  0  0  0  0  0  0  0  0  0
   -2.8120    9.3810   -6.2410 C   0  0  0  0  0  0  0  0  0  0  0  0
   -2.9640   14.9170   -1.1220 C   0  0  0  0  0  0  0  0  0  0  0  0
   -4.5260   15.0810   -2.9420 C   0  0  0  0  0  0  0  0  0  0  0  0
   -2.3740    8.7340   -7.3900 C   0  0  0  0  0  0  0  0  0  0  0  0
   -4.0220   14.8050   -0.2160 C   0  0  0  0  0  0  0  0  0  0  0  0
   -5.5880   14.9720   -2.0420 C   0  0  0  0  0  0  0  0  0  0  0  0
   -5.3400   14.8340   -0.6770 C   0  0  0  0  0  0  0  0  0  0  0  0
   -6.4450   14.7120    0.3070 C   0  0  0  0  0  0  0  0  0  0  0  0
   -6.1230   14.7430    1.6320 N   0  0  0  0  0  0  0  0  0  0  0  0
   -7.6120   14.5880   -0.0480 O   0  0  0  0  0  0  0  0  0  0  0  0
  2  1  1  0
  2  3  1  0
  2  4  1  0
  2  5  1  0
  4  6  2  0
  4  7  1  0
  5  8  1  0
  8  9  1  0
  7 10  1  0
 10 11  2  0
 10 12  1  0
  9 13  1  0
 11 14  1  0
 12 15  2  0
 13 16  2  0
 13 17  1  0
 14 18  2  0
 15 18  1  0
 16 19  1  0
 17 20  2  0
 19 21  2  0
 20 21  1  0
 21 22  1  0
 22 23  1  0
 22 24  2  0
M  END
