mac-x0381-mac-x0123
     RDKit          3D

 26 30  0  0  0  0  0  0  0  0999 V2000
   -8.4130   13.3860    4.5750 N   0  0  0  0  0  0  0  0  0  0  0  0
   -8.3730   14.4440    3.6080 C   0  0  0  0  0  0  0  0  0  0  0  0
   -7.5720   15.3730    4.3640 N   0  0  0  0  0  0  0  0  0  0  0  0
   -9.7070   15.0750    3.2600 C   0  0  0  0  0  0  0  0  0  0  0  0
   -7.6530   13.9480    2.3120 C   0  0  2  0  0  0  0  0  0  0  0  0
   -9.8080   15.9330    2.1550 C   0  0  0  0  0  0  0  0  0  0  0  0
  -10.8620   14.8270    4.0090 C   0  0  0  0  0  0  0  0  0  0  0  0
   -6.1860   14.3220    2.4640 C   0  0  0  0  0  0  0  0  0  0  0  0
   -8.0760   14.4460    0.8950 C   0  0  0  0  0  0  0  0  0  0  0  0
  -11.0100   16.5230    1.7840 C   0  0  0  0  0  0  0  0  0  0  0  0
  -12.0780   15.4110    3.6570 C   0  0  0  0  0  0  0  0  0  0  0  0
   -6.7590   14.5520    0.1640 C   0  0  0  0  0  0  0  0  0  0  0  0
   -5.6450   14.5140    1.1390 C   0  0  0  0  0  0  0  0  0  0  0  0
  -12.1660   16.2600    2.5410 C   0  0  0  0  0  0  0  0  0  0  0  0
  -11.0840   17.3710    0.6690 C   0  0  0  0  0  0  0  0  0  0  0  0
   -4.4020   14.6390    0.7250 C   0  0  0  0  0  0  0  0  0  0  0  0
   -6.6350   14.6670   -1.1180 N   0  0  0  0  0  0  0  0  0  0  0  0
   -3.2950   14.6270    1.5710 N   0  0  0  0  0  0  0  0  0  0  0  0
  -13.3790   16.8460    2.1660 C   0  0  0  0  0  0  0  0  0  0  0  0
  -12.2990   17.9480    0.3080 C   0  0  0  0  0  0  0  0  0  0  0  0
   -4.2340   14.7720   -0.6630 N   0  0  0  0  0  0  0  0  0  0  0  0
   -5.3330   14.7780   -1.5500 C   0  0  0  0  0  0  0  0  0  0  0  0
  -13.4450   17.6870    1.0540 C   0  0  0  0  0  0  0  0  0  0  0  0
   -4.8670   14.9010   -2.7730 N   0  0  0  0  0  0  0  0  0  0  0  0
   -3.0770   14.8970   -1.3520 N   0  0  0  0  0  0  0  0  0  0  0  0
   -3.5190   14.9700   -2.6020 C   0  0  0  0  0  0  0  0  0  0  0  0
  2  1  1  0
  2  3  1  0
  2  4  1  0
  5  2  1  1
  4  6  2  0
  4  7  1  0
  5  8  1  0
  5  9  1  0
  6 10  1  0
  7 11  2  0
  9 12  1  0
  8 13  1  0
 12 13  1  0
 10 14  2  0
 11 14  1  0
 10 15  1  0
 13 16  2  0
 12 17  2  0
 16 18  1  0
 14 19  1  0
 15 20  2  0
 16 21  1  0
 17 22  1  0
 21 22  1  0
 19 23  2  0
 20 23  1  0
 22 24  2  0
 21 25  1  0
 24 26  1  0
 25 26  2  0
M  END
