mac-x0179-mac-x0159
     RDKit          3D

 33 37  0  0  0  0  0  0  0  0999 V2000
    1.9480   12.4220   -2.5380 O   0  0  0  0  0  0  0  0  0  0  0  0
    0.9070   11.7030   -3.0170 C   0  0  0  0  0  0  0  0  0  0  0  0
    0.7820   10.5200   -2.7430 O   0  0  0  0  0  0  0  0  0  0  0  0
   -0.0350   12.5060   -3.8620 C   0  0  1  0  0  0  0  0  0  0  0  0
    0.2980   13.9690   -3.8790 C   0  0  0  0  0  0  0  0  0  0  0  0
   -0.3400   11.8500   -5.1590 N   0  0  0  0  0  0  0  0  0  0  0  0
   -0.8120   14.9910   -3.5970 C   0  0  1  0  0  0  0  0  0  0  0  0
    0.5380   11.5590   -6.2000 C   0  0  0  0  0  0  0  0  0  0  0  0
   -1.4320   11.0600   -5.2330 C   0  0  0  0  0  0  0  0  0  0  0  0
    1.6130   12.0540   -6.4790 O   0  0  0  0  0  0  0  0  0  0  0  0
   -2.4050   11.0450   -4.5110 O   0  0  0  0  0  0  0  0  0  0  0  0
   -0.0820   10.4580   -6.9650 C   0  0  0  0  0  0  0  0  0  0  0  0
   -1.2820   10.1630   -6.3540 C   0  0  0  0  0  0  0  0  0  0  0  0
   -1.5930   15.1350   -2.3370 N   0  0  0  0  0  0  0  0  0  0  0  0
   -0.4360   16.2530   -4.2940 C   0  0  0  0  0  0  0  0  0  0  0  0
    0.3360    9.7570   -8.0840 C   0  0  0  0  0  0  0  0  0  0  0  0
   -2.1300    9.1740   -6.7970 C   0  0  0  0  0  0  0  0  0  0  0  0
   -3.0300   15.1500   -2.5910 C   0  0  0  0  0  0  0  0  0  0  0  0
   -1.1470   14.4740   -1.1120 C   0  0  2  0  0  0  0  0  0  0  0  0
    0.8520   16.7490   -4.3330 C   0  0  0  0  0  0  0  0  0  0  0  0
   -1.3730   16.9960   -4.9710 N   0  0  0  0  0  0  0  0  0  0  0  0
   -0.5110    8.7420   -8.5590 C   0  0  0  0  0  0  0  0  0  0  0  0
   -1.7350    8.4530   -7.9190 C   0  0  0  0  0  0  0  0  0  0  0  0
   -3.8970   15.0670   -1.4240 N   0  0  0  0  0  0  0  0  0  0  0  0
   -2.1160   14.5770    0.0970 C   0  0  2  0  0  0  0  0  0  0  0  0
    0.0650   15.0580   -0.5980 N   0  0  0  0  0  0  0  0  0  0  0  0
   -0.7920   18.0340   -5.5160 C   0  0  0  0  0  0  0  0  0  0  0  0
    0.9000   18.1800   -5.2470 S   0  0  0  0  0  0  0  0  0  0  0  0
   -1.5020   19.0510   -6.3290 C   0  0  0  0  0  0  0  0  0  0  0  0
   -3.2760   15.5130   -0.2200 C   0  0  2  0  0  0  0  0  0  0  0  0
   -1.3060   15.0890    1.2270 N   0  0  0  0  0  0  0  0  0  0  0  0
    0.0380   14.7810    0.8140 C   0  0  0  0  0  0  0  0  0  0  0  0
   -4.3470   15.4530    0.7560 N   0  0  0  0  0  0  0  0  0  0  0  0
  1  2  1  0
  2  3  2  0
  2  4  1  0
  4  5  1  6
  4  6  1  0
  7  5  1  1
  6  8  1  0
  6  9  1  0
  8 10  2  0
  9 11  2  0
  8 12  1  0
  9 13  1  0
 12 13  2  0
  7 14  1  0
  7 15  1  0
 12 16  1  0
 13 17  1  0
 14 18  1  0
 14 19  1  0
 15 20  2  0
 15 21  1  0
 16 22  2  0
 17 23  2  0
 22 23  1  0
 18 24  1  0
 19 25  1  0
 19 26  1  1
 21 27  2  0
 20 28  1  0
 27 28  1  0
 27 29  1  0
 24 30  1  0
 25 30  1  0
 25 31  1  1
 26 32  1  0
 31 32  1  0
 30 33  1  1
M  END
