mac-x0564-diamond-x0282_0_A
     RDKit          3D

 27 31  0  0  0  0  0  0  0  0999 V2000
    0.6090   13.4350   -1.8100 O   0  0  0  0  0  0  0  0  0  0  0  0
   -0.0700   13.8450   -2.7540 C   0  0  0  0  0  0  0  0  0  0  0  0
    0.1980   13.3780   -4.0110 N   0  0  0  0  0  0  0  0  0  0  0  0
   -1.2030   14.8660   -2.6200 C   0  0  1  0  0  0  0  0  0  0  0  0
   -2.0640   15.0330   -3.8780 C   0  0  1  0  0  0  0  0  0  0  0  0
   -0.5430   13.7570   -5.1780 C   0  0  0  0  0  0  0  0  0  0  0  0
   -2.1690   14.5270   -1.6290 O   0  0  0  0  0  0  0  0  0  0  0  0
   -1.9380   13.9450   -4.8310 N   0  0  0  0  0  0  0  0  0  0  0  0
   -3.0490   15.6160   -1.8260 C   0  0  1  0  0  0  0  0  0  0  0  0
   -3.4450   15.4340   -3.2880 C   0  0  2  0  0  0  0  0  0  0  0  0
   -4.7640   14.7070   -3.4720 C   0  0  0  0  0  0  0  0  0  0  0  0
   -4.2370   15.7610   -0.9010 C   0  0  0  0  0  0  0  0  0  0  0  0
   -5.5120   14.2890   -2.4180 C   0  0  0  0  0  0  0  0  0  0  0  0
   -5.0790   14.4890   -0.9580 C   0  0  2  0  0  0  0  0  0  0  0  0
   -6.2030   14.5820    0.1340 C   0  0  1  0  0  0  0  0  0  0  0  0
   -4.0980   13.3410   -0.6030 C   0  0  0  0  0  0  0  0  0  0  0  0
   -7.2150   13.4440    0.2860 C   0  0  0  0  0  0  0  0  0  0  0  0
   -5.4930   14.9090    1.4640 C   0  0  0  0  0  0  0  0  0  0  0  0
   -3.4660   13.7310    0.6300 N   0  0  0  0  0  0  0  0  0  0  0  0
   -8.5350   13.9280    0.0640 O   0  0  0  0  0  0  0  0  0  0  0  0
   -4.3020   13.9940    1.7560 C   0  0  0  0  0  0  0  0  0  0  0  0
   -2.1970   14.2900    0.6670 C   0  0  0  0  0  0  0  0  0  0  0  0
   -1.7920   15.1060   -0.3020 N   0  0  0  0  0  0  0  0  0  0  0  0
   -1.4080   13.9740    1.6930 N   0  0  0  0  0  0  0  0  0  0  0  0
   -0.5540   15.5950   -0.2480 C   0  0  0  0  0  0  0  0  0  0  0  0
   -0.1870   14.4640    1.7030 C   0  0  0  0  0  0  0  0  0  0  0  0
    0.3040   15.2930    0.7480 C   0  0  0  0  0  0  0  0  0  0  0  0
  1  2  2  0
  2  3  1  0
  2  4  1  0
  4  5  1  0
  3  6  1  0
  4  7  1  1
  5  8  1  1
  6  8  1  0
  7  9  1  0
  5 10  1  0
  9 10  1  0
 10 11  1  1
  9 12  1  1
 11 13  2  0
 14 12  1  6
 14 13  1  0
 14 15  1  0
 14 16  1  0
 15 17  1  1
 15 18  1  0
 16 19  1  0
 17 20  1  0
 18 21  1  0
 19 21  1  0
 19 22  1  0
 22 23  2  0
 22 24  1  0
 23 25  1  0
 24 26  2  0
 25 27  2  0
 26 27  1  0
M  END
