mac-x0567-mac-x0380
     RDKit          3D

 19 21  0  0  0  0  0  0  0  0999 V2000
    0.2210   13.9150    0.1520 N   0  0  0  0  0  0  0  0  0  0  0  0
   -1.0400   14.1600    0.5570 C   0  0  0  0  0  0  0  0  0  0  0  0
   -1.4390   14.3330    1.8310 N   0  0  0  0  0  0  0  0  0  0  0  0
   -2.1770   14.2930   -0.1530 C   0  0  0  0  0  0  0  0  0  0  0  0
   -2.7740   14.5680    1.9730 N   0  0  0  0  0  0  0  0  0  0  0  0
   -3.2280   14.5340    0.7230 C   0  0  0  0  0  0  0  0  0  0  0  0
   -2.4250   14.2350   -1.5470 C   0  0  0  0  0  0  0  0  0  0  0  0
   -4.6650   14.7300    0.2250 C   0  0  2  0  0  0  0  0  0  0  0  0
   -3.2020   15.4990   -1.8500 C   0  0  1  0  0  0  0  0  0  0  0  0
   -3.1550   15.5140   -3.3460 C   0  0  0  0  0  0  0  0  0  0  0  0
   -4.5830   15.6110   -1.0810 C   0  0  0  0  0  0  0  0  0  0  0  0
   -5.4920   15.1650    1.3640 N   0  0  0  0  0  0  0  0  0  0  0  0
   -5.2870   13.5630   -0.4660 C   0  0  0  0  0  0  0  0  0  0  0  0
   -1.8750   15.6010   -3.7650 O   0  0  0  0  0  0  0  0  0  0  0  0
   -4.0820   15.4350   -4.1130 O   0  0  0  0  0  0  0  0  0  0  0  0
   -6.7470   14.7460    1.7910 C   0  0  0  0  0  0  0  0  0  0  0  0
   -6.9220   13.0060   -0.2620 S   0  0  0  0  0  0  0  0  0  0  0  0
   -7.2310   15.0540    2.8780 O   0  0  0  0  0  0  0  0  0  0  0  0
   -7.6470   13.8560    1.0260 C   0  0  0  0  0  0  0  0  0  0  0  0
  1  2  1  0
  2  3  1  0
  2  4  2  0
  3  5  1  0
  4  6  1  0
  5  6  2  0
  4  7  1  0
  6  8  1  0
  7  9  1  0
  9 10  1  6
  8 11  1  6
  9 11  1  0
  8 12  1  0
  8 13  1  0
 10 14  1  0
 10 15  2  0
 12 16  1  0
 13 17  2  0
 16 18  2  0
 16 19  1  0
 17 19  2  0
M  END
