mac-x0375-mac-x0588
     RDKit          3D

 29 32  0  0  0  0  0  0  0  0999 V2000
    1.8720   12.9300   -2.9410 O   0  0  0  0  0  0  0  0  0  0  0  0
    1.3010   11.9750   -3.7050 C   0  0  0  0  0  0  0  0  0  0  0  0
    1.6130   10.8280   -3.5260 O   0  0  0  0  0  0  0  0  0  0  0  0
    0.2830   12.4990   -4.7070 C   0  0  2  0  0  0  0  0  0  0  0  0
    0.3280   11.7290   -5.9010 O   0  0  0  0  0  0  0  0  0  0  0  0
    0.4350   13.9520   -5.0580 C   0  0  0  0  0  0  0  0  0  0  0  0
   -0.8780   14.6260   -4.6710 C   0  0  0  0  0  0  0  0  0  0  0  0
   -0.7770   10.9690   -6.0890 C   0  0  0  0  0  0  0  0  0  0  0  0
   -0.7620   15.2450   -3.2750 C   0  0  2  0  0  0  0  0  0  0  0  0
   -0.8700   10.3240   -7.3230 C   0  0  0  0  0  0  0  0  0  0  0  0
   -1.7860   10.7910   -5.1490 C   0  0  0  0  0  0  0  0  0  0  0  0
   -1.9580    9.4990   -7.6020 C   0  0  0  0  0  0  0  0  0  0  0  0
   -2.8730    9.9730   -5.4290 C   0  0  0  0  0  0  0  0  0  0  0  0
   -1.8440   14.7960   -2.3440 N   0  0  0  0  0  0  0  0  0  0  0  0
   -0.4260   16.7350   -3.5500 C   0  0  2  0  0  0  0  0  0  0  0  0
   -2.9580    9.3230   -6.6540 C   0  0  0  0  0  0  0  0  0  0  0  0
   -3.1620   15.3830   -2.4730 C   0  0  0  0  0  0  0  0  0  0  0  0
   -1.4880   14.5130   -0.9630 C   0  0  2  0  0  0  0  0  0  0  0  0
   -1.5370   17.4750   -4.1470 O   0  0  0  0  0  0  0  0  0  0  0  0
    0.8000   16.9720   -4.4270 C   0  0  0  0  0  0  0  0  0  0  0  0
   -4.0360   14.9560   -1.3860 N   0  0  0  0  0  0  0  0  0  0  0  0
   -2.0830   15.4620    0.0340 C   0  0  1  0  0  0  0  0  0  0  0  0
   -0.0950   14.7120   -0.6210 N   0  0  0  0  0  0  0  0  0  0  0  0
    0.3700   17.8980   -5.5300 C   0  0  0  0  0  0  0  0  0  0  0  0
   -1.1320   18.0230   -5.4100 C   0  0  0  0  0  0  0  0  0  0  0  0
   -3.6230   15.4310   -0.0900 C   0  0  2  0  0  0  0  0  0  0  0  0
   -1.4570   15.0180    1.2890 N   0  0  0  0  0  0  0  0  0  0  0  0
   -0.1040   14.6750    0.8380 C   0  0  0  0  0  0  0  0  0  0  0  0
   -4.3440   14.5920    0.8440 N   0  0  0  0  0  0  0  0  0  0  0  0
  1  2  1  0
  2  3  2  0
  2  4  1  0
  4  5  1  0
  4  6  1  6
  6  7  1  0
  5  8  1  0
  9  7  1  6
  8 10  2  0
  8 11  1  0
 10 12  1  0
 11 13  2  0
  9 14  1  0
  9 15  1  0
 12 16  2  0
 13 16  1  0
 14 17  1  0
 14 18  1  0
 15 19  1  0
 15 20  1  6
 17 21  1  0
 18 22  1  0
 18 23  1  6
 20 24  1  0
 19 25  1  0
 24 25  1  0
 21 26  1  0
 22 26  1  0
 22 27  1  1
 23 28  1  0
 27 28  1  0
 26 29  1  1
M  END
