mac-x0347-mac-x0387
     RDKit          3D

 21 23  0  0  0  0  0  0  0  0999 V2000
    1.2050   15.1510   -3.6810 O   0  0  0  0  0  0  0  0  0  0  0  0
    0.5600   14.7400   -2.5810 C   0  0  0  0  0  0  0  0  0  0  0  0
    1.2080   14.5150   -1.5710 O   0  0  0  0  0  0  0  0  0  0  0  0
   -0.9400   14.5390   -2.6830 C   0  0  1  0  0  0  0  0  0  0  0  0
   -1.7880   14.5410   -1.3700 C   0  0  2  0  0  0  0  0  0  0  0  0
   -1.6050   15.3230   -3.8280 C   0  0  0  0  0  0  0  0  0  0  0  0
   -3.2880   14.2970   -1.8310 C   0  0  1  0  0  0  0  0  0  0  0  0
   -2.8790   14.7220   -4.2730 N   0  0  0  0  0  0  0  0  0  0  0  0
   -1.9230   15.8920   -0.6330 C   0  0  0  0  0  0  0  0  0  0  0  0
   -1.0850   13.6160   -0.3320 C   0  0  0  0  0  0  0  0  0  0  0  0
   -3.4120   13.7620   -3.2840 C   0  0  0  0  0  0  0  0  0  0  0  0
   -4.3200   13.8650   -0.7870 C   0  0  0  0  0  0  0  0  0  0  0  0
   -2.6110   15.5230    0.6880 C   0  0  2  0  0  0  0  0  0  0  0  0
   -0.9950   13.9180    0.9910 C   0  0  0  0  0  0  0  0  0  0  0  0
   -3.5430   16.5160    1.1640 N   0  0  0  0  0  0  0  0  0  0  0  0
   -4.8480   14.8080    0.1150 C   0  0  0  0  0  0  0  0  0  0  0  0
   -4.7690   12.5440   -0.6890 C   0  0  0  0  0  0  0  0  0  0  0  0
   -1.5570   15.0410    1.5030 N   0  0  0  0  0  0  0  0  0  0  0  0
   -5.7780   14.4440    1.0830 C   0  0  0  0  0  0  0  0  0  0  0  0
   -5.7100   12.1860    0.2810 C   0  0  0  0  0  0  0  0  0  0  0  0
   -6.2080   13.1320    1.1650 C   0  0  0  0  0  0  0  0  0  0  0  0
  1  2  1  0
  2  3  2  0
  4  2  1  1
  4  5  1  0
  4  6  1  0
  5  7  1  0
  6  8  1  0
  5  9  1  1
  5 10  1  0
  7 11  1  0
  8 11  1  0
  7 12  1  1
  9 13  1  0
 10 14  2  0
 13 15  1  1
 12 16  2  0
 12 17  1  0
 13 18  1  0
 14 18  1  0
 16 19  1  0
 17 20  2  0
 19 21  2  0
 20 21  1  0
M  END
