mac-x0439-diamond-x0685_1_A
     RDKit          3D

 24 26  0  0  0  0  0  0  0  0999 V2000
   -3.1340   15.7410   -5.2000 Cl  0  0  0  0  0  0  0  0  0  0  0  0
   -1.6700   16.6260   -5.3430 C   0  0  0  0  0  0  0  0  0  0  0  0
   -0.3850   15.9060   -5.1200 C   0  0  2  0  0  0  0  0  0  0  0  0
   -1.6510   17.9270   -5.6760 C   0  0  0  0  0  0  0  0  0  0  0  0
   -0.0970   14.7890   -4.1950 C   0  0  0  0  0  0  0  0  0  0  0  0
    0.7090   16.8200   -4.7090 C   0  0  0  0  0  0  0  0  0  0  0  0
   -0.3880   18.6420   -5.8020 C   0  0  0  0  0  0  0  0  0  0  0  0
    1.0430   15.0720   -3.5450 C   0  0  0  0  0  0  0  0  0  0  0  0
    1.5250   16.3180   -3.8450 N   0  0  0  0  0  0  0  0  0  0  0  0
    0.7790   18.1540   -5.3450 C   0  0  0  0  0  0  0  0  0  0  0  0
    1.7130   14.1210   -2.5980 C   0  0  0  0  0  0  0  0  0  0  0  0
    2.6610   14.7370   -1.8600 O   0  0  0  0  0  0  0  0  0  0  0  0
    1.6280   12.8720   -2.3460 N   0  0  0  0  0  0  0  0  0  0  0  0
    0.6630   11.8310   -3.0990 S   0  0  2  0  0  0  0  0  0  0  0  0
   -0.8280   12.6530   -3.5000 C   0  0  0  0  0  0  0  0  0  0  0  0
    0.2210   10.9440   -1.8190 O   0  0  0  0  0  0  0  0  0  0  0  0
   -1.4620   12.1040   -4.7700 C   0  0  0  0  0  0  0  0  0  0  0  0
   -1.2210   10.6650   -4.9280 N   0  0  0  0  0  0  0  0  0  0  0  0
   -0.7130   10.3620   -6.2610 C   0  0  0  0  0  0  0  0  0  0  0  0
   -0.5650    8.8450   -6.4480 C   0  0  0  0  0  0  0  0  0  0  0  0
   -1.6390   10.9570   -7.3510 C   0  0  0  0  0  0  0  0  0  0  0  0
    0.0360    8.5440   -7.8070 C   0  0  0  0  0  0  0  0  0  0  0  0
   -1.1280   10.6340   -8.7500 C   0  0  0  0  0  0  0  0  0  0  0  0
   -0.8480    9.1370   -8.9190 C   0  0  0  0  0  0  0  0  0  0  0  0
  1  2  1  0
  2  3  1  0
  2  4  2  0
  3  5  1  1
  3  6  1  0
  4  7  1  0
  5  8  2  0
  6  9  2  0
  8  9  1  0
  6 10  1  0
  7 10  2  0
  8 11  1  0
 11 12  1  0
 11 13  2  3
 13 14  1  0
 14 15  1  0
 14 16  1  1
 15 17  1  0
 17 18  1  0
 18 19  1  0
 19 20  1  0
 19 21  1  0
 20 22  1  0
 21 23  1  0
 22 24  1  0
 23 24  1  0
M  END
