mac-x0522-diamond-x0631_0_A
     RDKit          3D

 23 25  0  0  0  0  0  0  0  0999 V2000
    1.9480    9.3610  -10.4580 N   0  0  0  0  0  0  0  0  0  0  0  0
    2.8130    8.7820  -11.2280 C   0  0  0  0  0  0  0  0  0  0  0  0
    3.3120    7.5210  -10.9450 N   0  0  0  0  0  0  0  0  0  0  0  0
    1.3960   10.5750  -10.5700 N   0  0  0  0  0  0  0  0  0  0  0  0
    3.3240    9.5230  -12.4690 C   0  0  0  0  0  0  0  0  0  0  0  0
    0.3330   10.7410   -9.5880 C   0  0  2  0  0  0  0  0  0  0  0  0
    3.0150    6.7780   -9.8370 C   0  0  0  0  0  0  0  0  0  0  0  0
    4.4270    9.0260  -13.1850 C   0  0  0  0  0  0  0  0  0  0  0  0
    2.7140   10.7160  -12.9120 C   0  0  0  0  0  0  0  0  0  0  0  0
    0.7770   11.5920   -8.5000 N   0  0  0  0  0  0  0  0  0  0  0  0
    0.1150    9.4510   -8.9540 N   0  0  0  0  0  0  0  0  0  0  0  0
    3.6520    5.7510   -9.2990 N   0  0  0  0  0  0  0  0  0  0  0  0
    1.5810    7.2190   -8.9590 S   0  0  0  0  0  0  0  0  0  0  0  0
    4.9040    9.7040  -14.3100 C   0  0  0  0  0  0  0  0  0  0  0  0
    3.1990   11.3890  -14.0370 C   0  0  0  0  0  0  0  0  0  0  0  0
   -0.1410    9.8140   -7.5900 N   0  0  0  0  0  0  0  0  0  0  0  0
    0.8180   10.8080   -7.2920 N   0  0  0  0  0  0  0  0  0  0  0  0
   -0.1650    8.6650   -6.6800 C   0  0  0  0  0  0  0  0  0  0  0  0
    1.8430    5.9740   -7.8240 C   0  0  0  0  0  0  0  0  0  0  0  0
    2.9890    5.2960   -8.1610 C   0  0  0  0  0  0  0  0  0  0  0  0
    4.2920   10.8830  -14.7340 C   0  0  0  0  0  0  0  0  0  0  0  0
   -1.4700    7.8910   -6.8420 C   0  0  0  0  0  0  0  0  0  0  0  0
   -2.5810    8.7690   -7.4020 C   0  0  0  0  0  0  0  0  0  0  0  0
  1  2  2  3
  2  3  1  0
  1  4  1  0
  2  5  1  0
  6  4  1  6
  3  7  1  0
  5  8  2  0
  5  9  1  0
  6 10  1  0
  6 11  1  0
  7 12  2  0
  7 13  1  0
  8 14  1  0
  9 15  2  0
 11 16  1  0
 10 17  1  0
 16 17  1  0
 16 18  1  0
 13 19  1  0
 12 20  1  0
 19 20  2  0
 14 21  2  0
 15 21  1  0
 18 22  1  0
 22 23  1  0
M  END
