mac-x0344-diamond-x0900_1_A
     RDKit          3D

 13 13  0  0  0  0  0  0  0  0999 V2000
    1.5950   13.6550   -4.6870 O   0  0  0  0  0  0  0  0  0  0  0  0
    1.1950   12.8600   -3.6840 C   0  0  0  0  0  0  0  0  0  0  0  0
    1.4050   13.0200   -2.5010 O   0  0  0  0  0  0  0  0  0  0  0  0
    0.4110   11.6590   -4.2370 C   0  0  0  0  0  0  0  0  0  0  0  0
    0.0100   10.8170   -3.4460 O   0  0  0  0  0  0  0  0  0  0  0  0
    0.2670   11.6830   -5.6040 N   0  0  0  0  0  0  0  0  0  0  0  0
   -0.7830   10.9850   -6.3430 C   0  0  1  0  0  0  0  0  0  0  0  0
   -0.2010   10.0510   -7.3890 C   0  0  0  0  0  0  0  0  0  0  0  0
   -1.7930   10.2600   -5.4380 C   0  0  0  0  0  0  0  0  0  0  0  0
   -1.3120    9.4470   -8.1910 C   0  0  0  0  0  0  0  0  0  0  0  0
   -2.6480    9.2520   -6.1580 C   0  0  0  0  0  0  0  0  0  0  0  0
   -1.3030    9.4460   -9.4270 O   0  0  0  0  0  0  0  0  0  0  0  0
   -2.4410    8.8650   -7.4310 C   0  0  0  0  0  0  0  0  0  0  0  0
  1  2  1  0
  2  3  2  0
  2  4  1  0
  4  5  2  0
  4  6  1  0
  7  6  1  1
  7  8  1  0
  7  9  1  0
  8 10  1  0
  9 11  1  0
 10 12  2  0
 10 13  1  0
 11 13  2  0
M  END
