mac-x0193-mac-x0588
     RDKit          3D

 32 35  0  0  0  0  0  0  0  0999 V2000
    0.1350   11.3380   -3.2690 O   0  0  0  0  0  0  0  0  0  0  0  0
    1.0670   12.1950   -3.7530 C   0  0  0  0  0  0  0  0  0  0  0  0
    1.5660   13.1480   -3.0960 N   0  0  0  0  0  0  0  0  0  0  0  0
    1.4660   12.0150   -5.1630 C   0  0  0  0  0  0  0  0  0  0  0  0
    0.3160   11.5240   -5.9130 N   0  0  0  0  0  0  0  0  0  0  0  0
    0.9290   13.2910   -1.8490 C   0  0  0  0  0  0  0  0  0  0  0  0
    0.6410   11.2270   -7.1770 C   0  0  0  0  0  0  0  0  0  0  0  0
   -0.4110   13.7340   -2.4390 C   0  0  0  0  0  0  0  0  0  0  0  0
    1.7360   11.4700   -7.4810 O   0  0  0  0  0  0  0  0  0  0  0  0
   -0.3070   10.6560   -7.9750 N   0  0  0  0  0  0  0  0  0  0  0  0
   -0.6340   15.2640   -2.5820 C   0  0  2  0  0  0  0  0  0  0  0  0
    0.0360    9.9020   -9.1970 C   0  0  0  0  0  0  0  0  0  0  0  0
   -1.7260   15.6540   -1.7180 N   0  0  0  0  0  0  0  0  0  0  0  0
   -0.7020   15.8030   -4.0540 C   0  0  1  0  0  0  0  0  0  0  0  0
    1.0700    8.8170   -8.9360 C   0  0  0  0  0  0  0  0  0  0  0  0
    0.4680   10.7470  -10.3800 C   0  0  0  0  0  0  0  0  0  0  0  0
   -3.0630   15.3950   -2.2340 C   0  0  0  0  0  0  0  0  0  0  0  0
   -1.5340   14.9420   -0.5190 C   0  0  2  0  0  0  0  0  0  0  0  0
   -1.5250   16.9900   -4.2030 O   0  0  0  0  0  0  0  0  0  0  0  0
    0.6560   16.0950   -4.7170 C   0  0  0  0  0  0  0  0  0  0  0  0
    1.9230    8.3690  -10.1280 C   0  0  0  0  0  0  0  0  0  0  0  0
    0.6410    9.9040  -11.6580 C   0  0  0  0  0  0  0  0  0  0  0  0
   -3.9450   14.8090   -1.1940 N   0  0  0  0  0  0  0  0  0  0  0  0
   -2.3320   15.3950    0.6250 C   0  0  1  0  0  0  0  0  0  0  0  0
   -0.2200   15.0910    0.0460 N   0  0  0  0  0  0  0  0  0  0  0  0
    0.5940   17.5620   -5.0890 C   0  0  0  0  0  0  0  0  0  0  0  0
   -0.8890   17.8490   -5.1580 C   0  0  0  0  0  0  0  0  0  0  0  0
    1.1640    8.4790  -11.4260 C   0  0  0  0  0  0  0  0  0  0  0  0
   -3.8000   15.3960    0.1420 C   0  0  2  0  0  0  0  0  0  0  0  0
   -1.8250   14.4480    1.6280 N   0  0  0  0  0  0  0  0  0  0  0  0
   -0.4010   14.3140    1.2610 C   0  0  0  0  0  0  0  0  0  0  0  0
   -4.7350   14.6960    0.9960 N   0  0  0  0  0  0  0  0  0  0  0  0
  1  2  1  0
  2  3  2  3
  2  4  1  0
  4  5  1  0
  3  6  1  0
  5  7  1  0
  6  8  1  0
  7  9  2  0
  7 10  1  0
 11  8  1  6
 10 12  1  0
 11 13  1  0
 11 14  1  0
 12 15  1  0
 12 16  1  0
 13 17  1  0
 13 18  1  0
 14 19  1  0
 14 20  1  1
 15 21  1  0
 16 22  1  0
 17 23  1  0
 18 24  1  0
 18 25  1  1
 20 26  1  0
 19 27  1  0
 26 27  1  0
 21 28  1  0
 22 28  1  0
 23 29  1  0
 24 29  1  0
 24 30  1  1
 25 31  1  0
 30 31  1  0
 29 32  1  1
M  END
