mac-x0572-mac-x0358
     RDKit          3D

 27 29  0  0  0  0  0  0  0  0999 V2000
   -7.8620   14.4690    3.0750 C   0  0  0  0  0  0  0  0  0  0  0  0
   -7.0680   14.6170    1.7970 C   0  0  0  0  0  0  0  0  0  0  0  0
   -5.7200   14.7970    1.9930 N   0  0  0  0  0  0  0  0  0  0  0  0
   -7.6450   14.5780    0.5850 C   0  0  0  0  0  0  0  0  0  0  0  0
   -9.0030   14.3950    0.3970 O   0  0  0  0  0  0  0  0  0  0  0  0
   -6.7660   14.7460   -0.6150 C   0  0  0  0  0  0  0  0  0  0  0  0
   -4.9450   15.1730    1.0220 C   0  0  0  0  0  0  0  0  0  0  0  0
   -7.1730   14.3150   -1.6930 O   0  0  0  0  0  0  0  0  0  0  0  0
   -5.4390   15.4600   -0.3850 C   0  0  1  0  0  0  0  0  0  0  0  0
   -3.5110   15.3420    1.3130 C   0  0  0  0  0  0  0  0  0  0  0  0
   -2.6450   15.4550    0.3040 C   0  0  0  0  0  0  0  0  0  0  0  0
   -4.3440   15.3860   -1.4290 C   0  0  0  0  0  0  0  0  0  0  0  0
   -3.0210   15.4040   -1.1030 C   0  0  0  0  0  0  0  0  0  0  0  0
   -1.8270   15.3790   -2.0600 C   0  0  0  0  0  0  0  0  0  0  0  0
   -0.7760   14.2910   -1.7910 C   0  0  0  0  0  0  0  0  0  0  0  0
    0.6790   14.5900   -2.1290 C   0  0  0  0  0  0  0  0  0  0  0  0
    1.3900   13.3310   -2.1790 O   0  0  0  0  0  0  0  0  0  0  0  0
    0.8930   12.4110   -3.0620 C   0  0  0  0  0  0  0  0  0  0  0  0
    0.5200   11.2860   -2.7450 O   0  0  0  0  0  0  0  0  0  0  0  0
    0.8770   12.9930   -4.4660 C   0  0  0  0  0  0  0  0  0  0  0  0
   -0.4860   13.4920   -4.8770 C   0  0  0  0  0  0  0  0  0  0  0  0
   -1.4910   12.5980   -5.2570 C   0  0  0  0  0  0  0  0  0  0  0  0
   -0.7750   14.8630   -4.8840 C   0  0  0  0  0  0  0  0  0  0  0  0
   -1.2090   11.2600   -5.2480 O   0  0  0  0  0  0  0  0  0  0  0  0
   -2.7550   13.0470   -5.6340 C   0  0  0  0  0  0  0  0  0  0  0  0
   -2.0410   15.3220   -5.2590 C   0  0  0  0  0  0  0  0  0  0  0  0
   -3.0310   14.4150   -5.6350 C   0  0  0  0  0  0  0  0  0  0  0  0
  1  2  1  0
  2  3  1  0
  2  4  2  0
  4  5  1  0
  4  6  1  0
  3  7  2  0
  6  8  2  0
  6  9  1  0
  7  9  1  0
  7 10  1  0
 10 11  2  0
  9 12  1  6
 11 13  1  0
 12 13  2  0
 13 14  1  0
 14 15  1  0
 15 16  1  0
 16 17  1  0
 17 18  1  0
 18 19  2  0
 18 20  1  0
 20 21  1  0
 21 22  2  0
 21 23  1  0
 22 24  1  0
 22 25  1  0
 23 26  2  0
 25 27  2  0
 26 27  1  0
M  END
