mac-x0527-mac-x0223
     RDKit          3D

 29 31  0  0  0  0  0  0  0  0999 V2000
   -4.0040   13.3200   -3.3640 O   0  0  0  0  0  0  0  0  0  0  0  0
   -3.3490   14.4780   -2.9190 C   0  0  2  0  0  0  0  0  0  0  0  0
   -1.9860   14.1200   -2.5700 N   0  0  0  0  0  0  0  0  0  0  0  0
   -4.0260   14.8310   -1.5850 C   0  0  0  0  0  0  0  0  0  0  0  0
   -3.3490   15.4190   -4.1680 C   0  0  0  0  0  0  0  0  0  0  0  0
   -5.3800   15.0520   -1.4090 C   0  0  0  0  0  0  0  0  0  0  0  0
   -3.1640   14.8810   -0.5060 N   0  0  0  0  0  0  0  0  0  0  0  0
   -1.9000   15.5950   -4.5050 C   0  0  0  0  0  0  0  0  0  0  0  0
   -5.9180   15.3050   -0.1910 N   0  0  0  0  0  0  0  0  0  0  0  0
   -3.7030   15.1320    0.7000 C   0  0  0  0  0  0  0  0  0  0  0  0
   -1.3980   16.8850   -4.6660 C   0  0  0  0  0  0  0  0  0  0  0  0
   -0.9830   14.5110   -4.6500 C   0  0  0  0  0  0  0  0  0  0  0  0
   -5.0530   15.3340    0.8550 C   0  0  0  0  0  0  0  0  0  0  0  0
   -2.2100   18.0030   -4.5990 O   0  0  0  0  0  0  0  0  0  0  0  0
   -1.1970   13.0580   -4.6600 C   0  0  0  0  0  0  0  0  0  0  0  0
   -0.0660   17.1220   -4.8930 C   0  0  0  0  0  0  0  0  0  0  0  0
    0.3700   14.7740   -4.8350 C   0  0  0  0  0  0  0  0  0  0  0  0
    0.2310   18.4210   -5.0190 O   0  0  0  0  0  0  0  0  0  0  0  0
    1.3440   13.6030   -4.8780 C   0  0  0  0  0  0  0  0  0  0  0  0
   -1.9150   12.1970   -3.8290 C   0  0  0  0  0  0  0  0  0  0  0  0
   -0.5100   12.5070   -5.7610 C   0  0  0  0  0  0  0  0  0  0  0  0
    0.8230   16.0720   -4.9580 C   0  0  0  0  0  0  0  0  0  0  0  0
    1.3230   18.6330   -5.8640 C   0  0  0  0  0  0  0  0  0  0  0  0
    1.0720   12.6730   -3.6860 C   0  0  0  0  0  0  0  0  0  0  0  0
   -1.9280   10.8220   -4.1180 C   0  0  0  0  0  0  0  0  0  0  0  0
   -0.5200   11.1590   -6.0410 C   0  0  0  0  0  0  0  0  0  0  0  0
    0.5030   11.5930   -3.6760 O   0  0  0  0  0  0  0  0  0  0  0  0
    1.5340   13.1720   -2.5170 O   0  0  0  0  0  0  0  0  0  0  0  0
   -1.2300   10.3100   -5.2210 C   0  0  0  0  0  0  0  0  0  0  0  0
  2  1  1  0
  2  3  1  1
  2  4  1  0
  2  5  1  0
  4  6  2  0
  4  7  1  0
  5  8  1  0
  6  9  1  0
  7 10  2  0
  8 11  2  0
  8 12  1  0
  9 13  2  0
 10 13  1  0
 11 14  1  0
 12 15  1  0
 11 16  1  0
 12 17  2  0
 16 18  1  0
 17 19  1  0
 15 20  2  0
 15 21  1  0
 16 22  2  0
 17 22  1  0
 18 23  1  0
 19 24  1  0
 20 25  1  0
 21 26  2  0
 24 27  2  0
 24 28  1  0
 25 29  2  0
 26 29  1  0
M  END
