mac-x0337-mac-x0546
     RDKit          3D

 28 30  0  0  0  0  0  0  0  0999 V2000
   -5.8190    9.2060   -2.0790 C   0  0  0  0  0  0  0  0  0  0  0  0
   -5.3150   10.5770   -1.7370 C   0  0  0  0  0  0  0  0  0  0  0  0
   -6.0830   11.4290   -0.9330 C   0  0  0  0  0  0  0  0  0  0  0  0
   -4.0740   11.0170   -2.2160 C   0  0  0  0  0  0  0  0  0  0  0  0
   -3.6120   12.2930   -1.9010 C   0  0  0  0  0  0  0  0  0  0  0  0
   -5.6270   12.7090   -0.6160 C   0  0  0  0  0  0  0  0  0  0  0  0
   -4.3930   13.1390   -1.1050 C   0  0  0  0  0  0  0  0  0  0  0  0
   -3.8180   14.7680   -0.7360 S   0  0  2  0  0  0  0  0  0  0  0  0
   -3.7400   15.4730   -2.0760 N   0  0  0  0  0  0  0  0  0  0  0  0
   -2.8050   14.7550    0.2910 O   0  0  0  0  0  0  0  0  0  0  0  0
   -5.0690   15.6310   -0.0520 N   0  0  0  0  0  0  0  0  0  0  0  0
   -3.5490   14.5550   -3.2160 C   0  0  0  0  0  0  0  0  0  0  0  0
   -4.4660   14.7900   -4.4340 C   0  0  0  0  0  0  0  0  0  0  0  0
   -3.7960   15.6680   -5.4330 N   0  0  0  0  0  0  0  0  0  0  0  0
   -4.1530   15.1040   -6.7190 C   0  0  0  0  0  0  0  0  0  0  0  0
   -2.4690   15.9350   -5.1070 C   0  0  0  0  0  0  0  0  0  0  0  0
   -1.7870   14.8700   -4.7130 C   0  0  0  0  0  0  0  0  0  0  0  0
   -1.7770   17.2560   -5.0970 C   0  0  0  0  0  0  0  0  0  0  0  0
   -0.4300   14.9570   -4.2170 C   0  0  2  0  0  0  0  0  0  0  0  0
   -0.4320   17.4040   -4.9140 C   0  0  0  0  0  0  0  0  0  0  0  0
    0.3080   16.1410   -4.7380 C   0  0  0  0  0  0  0  0  0  0  0  0
    0.6040   13.9320   -4.4210 C   0  0  0  0  0  0  0  0  0  0  0  0
    0.4090   12.4790   -4.2320 C   0  0  0  0  0  0  0  0  0  0  0  0
    1.5520   15.9110   -4.9660 N   0  0  0  0  0  0  0  0  0  0  0  0
    1.7040   14.5510   -4.7670 C   0  0  0  0  0  0  0  0  0  0  0  0
    0.5210   12.0800   -2.7940 C   0  0  0  0  0  0  0  0  0  0  0  0
    0.9090   12.7730   -1.8730 O   0  0  0  0  0  0  0  0  0  0  0  0
    0.1410   10.8080   -2.5800 O   0  0  0  0  0  0  0  0  0  0  0  0
  1  2  1  0
  2  3  2  0
  2  4  1  0
  4  5  2  0
  3  6  1  0
  5  7  1  0
  6  7  2  0
  7  8  1  0
  8  9  2  0
  8 10  2  0
  8 11  1  1
  9 12  1  0
 12 13  1  0
 13 14  1  0
 14 15  1  0
 14 16  1  0
 16 17  2  0
 16 18  1  0
 19 17  1  6
 18 20  2  0
 19 21  1  0
 20 21  1  0
 19 22  1  0
 22 23  1  0
 21 24  2  0
 22 25  2  0
 24 25  1  0
 23 26  1  0
 26 27  2  0
 26 28  1  0
M  END
