mac-x0328-mac-x0283
     RDKit          3D

 14 15  0  0  0  0  0  0  0  0999 V2000
   -1.9320   14.5670   -3.5860 O   0  0  0  0  0  0  0  0  0  0  0  0
   -2.0410   14.5970   -2.2360 C   0  0  0  0  0  0  0  0  0  0  0  0
   -1.0880   14.4200   -1.5030 O   0  0  0  0  0  0  0  0  0  0  0  0
   -3.4270   14.8820   -1.7470 C   0  0  0  0  0  0  0  0  0  0  0  0
   -3.7490   14.8500   -0.4190 C   0  0  0  0  0  0  0  0  0  0  0  0
   -4.4390   15.2070   -2.7540 C   0  0  0  0  0  0  0  0  0  0  0  0
   -5.1670   15.1960   -0.0180 C   0  0  1  0  0  0  0  0  0  0  0  0
   -5.7580   15.2660   -2.4650 C   0  0  0  0  0  0  0  0  0  0  0  0
   -6.2460   15.0060   -1.0900 C   0  0  2  0  0  0  0  0  0  0  0  0
   -6.0870   14.6570    1.0750 C   0  0  0  0  0  0  0  0  0  0  0  0
   -7.3710   15.8440   -0.8970 O   0  0  0  0  0  0  0  0  0  0  0  0
   -6.0030   15.0240    2.3850 N   0  0  0  0  0  0  0  0  0  0  0  0
   -6.9910   13.8320    0.6200 N   0  0  0  0  0  0  0  0  0  0  0  0
   -6.7280   13.7250   -0.7860 O   0  0  0  0  0  0  0  0  0  0  0  0
  1  2  1  0
  2  3  2  0
  2  4  1  0
  4  5  2  0
  4  6  1  0
  7  5  1  6
  6  8  2  0
  7  9  1  0
  8  9  1  0
  7 10  1  0
  9 11  1  1
 10 12  1  0
 10 13  2  0
  9 14  1  0
 13 14  1  0
M  END
