mac-x0565-mac-x0433
     RDKit          3D

 19 21  0  0  0  0  0  0  0  0999 V2000
   -5.2250   12.2810    0.5410 O   0  0  0  0  0  0  0  0  0  0  0  0
   -5.6400   12.6900   -0.7580 C   0  0  2  0  0  0  0  0  0  0  0  0
   -4.6210   13.3450   -1.7060 C   0  0  0  0  0  0  0  0  0  0  0  0
   -5.7540   14.0510   -0.6500 C   0  0  0  0  0  0  0  0  0  0  0  0
   -3.2710   13.5500   -1.3430 C   0  0  0  0  0  0  0  0  0  0  0  0
   -5.0580   13.8260   -2.9810 C   0  0  0  0  0  0  0  0  0  0  0  0
   -6.6650   14.6570   -1.3460 N   0  0  0  0  0  0  0  0  0  0  0  0
   -4.7860   14.5120    0.1380 C   0  0  0  0  0  0  0  0  0  0  0  0
   -2.4420   14.2060   -2.2420 C   0  0  0  0  0  0  0  0  0  0  0  0
   -4.1920   14.4820   -3.8620 C   0  0  0  0  0  0  0  0  0  0  0  0
   -4.6870   15.7850    0.1900 C   0  0  0  0  0  0  0  0  0  0  0  0
   -6.5120   15.9070   -1.2570 C   0  0  0  0  0  0  0  0  0  0  0  0
   -2.8930   14.6550   -3.4610 C   0  0  0  0  0  0  0  0  0  0  0  0
   -1.1250   14.4880   -2.0520 O   0  0  0  0  0  0  0  0  0  0  0  0
   -3.6040   16.2870    1.0750 C   0  0  0  0  0  0  0  0  0  0  0  0
   -7.4380   16.5920   -1.9530 N   0  0  0  0  0  0  0  0  0  0  0  0
   -5.5400   16.5180   -0.5440 N   0  0  0  0  0  0  0  0  0  0  0  0
   -1.9170   15.2710   -4.1820 O   0  0  0  0  0  0  0  0  0  0  0  0
   -0.7700   14.9720   -3.3660 C   0  0  0  0  0  0  0  0  0  0  0  0
  2  1  1  1
  2  3  1  0
  2  4  1  0
  3  5  2  0
  3  6  1  0
  4  7  2  0
  4  8  1  0
  5  9  1  0
  6 10  2  0
  8 11  2  0
  7 12  1  0
  9 13  2  0
 10 13  1  0
  9 14  1  0
 11 15  1  0
 12 16  1  0
 11 17  1  0
 12 17  2  0
 13 18  1  0
 14 19  1  0
 18 19  1  0
M  END
