mac-x0231-mac-x0124
     RDKit          3D

 26 29  0  0  0  0  0  0  0  0999 V2000
    0.9480   10.5550   -3.2380 O   0  0  0  0  0  0  0  0  0  0  0  0
    1.5630   11.7350   -3.3350 C   0  0  0  0  0  0  0  0  0  0  0  0
    1.6960   12.3980   -2.3210 O   0  0  0  0  0  0  0  0  0  0  0  0
    2.0010   12.1480   -4.7160 C   0  0  0  0  0  0  0  0  0  0  0  0
    1.5410   13.5490   -4.7210 C   0  0  0  0  0  0  0  0  0  0  0  0
    0.1110   13.7790   -4.8960 C   0  0  0  0  0  0  0  0  0  0  0  0
    2.4040   14.4440   -4.4060 N   0  0  0  0  0  0  0  0  0  0  0  0
   -0.3150   14.9820   -4.4450 C   0  0  0  0  0  0  0  0  0  0  0  0
    1.9620   15.6930   -4.2490 N   0  0  0  0  0  0  0  0  0  0  0  0
   -0.7890   12.8450   -5.4320 C   0  0  0  0  0  0  0  0  0  0  0  0
    0.6720   15.9890   -3.9740 C   0  0  0  0  0  0  0  0  0  0  0  0
   -1.6390   15.2400   -4.4280 C   0  0  0  0  0  0  0  0  0  0  0  0
   -2.1560   13.1410   -5.4770 C   0  0  0  0  0  0  0  0  0  0  0  0
    0.3800   17.0600   -3.4520 O   0  0  0  0  0  0  0  0  0  0  0  0
   -1.9290   16.4830   -3.7660 C   0  0  0  0  0  0  0  0  0  0  0  0
   -2.5860   14.3490   -4.9540 C   0  0  0  0  0  0  0  0  0  0  0  0
   -2.4080   16.0080   -2.4450 N   0  0  0  0  0  0  0  0  0  0  0  0
   -3.7320   15.7560   -2.3060 C   0  0  0  0  0  0  0  0  0  0  0  0
   -1.7610   15.7240   -1.2070 C   0  0  0  0  0  0  0  0  0  0  0  0
   -3.9850   15.3550   -1.0390 C   0  0  0  0  0  0  0  0  0  0  0  0
   -2.7680   15.3350   -0.3370 C   0  0  0  0  0  0  0  0  0  0  0  0
   -0.4560   15.7900   -0.8450 N   0  0  0  0  0  0  0  0  0  0  0  0
   -2.4300   15.0210    0.9690 C   0  0  0  0  0  0  0  0  0  0  0  0
   -0.2560   15.4420    0.4600 C   0  0  0  0  0  0  0  0  0  0  0  0
   -3.3610   14.6600    1.8930 N   0  0  0  0  0  0  0  0  0  0  0  0
   -1.1690   15.0670    1.3810 N   0  0  0  0  0  0  0  0  0  0  0  0
  1  2  1  0
  2  3  2  0
  2  4  1  0
  4  5  1  0
  5  6  1  0
  5  7  2  0
  6  8  2  0
  7  9  1  0
  6 10  1  0
  8 11  1  0
  9 11  1  0
  8 12  1  0
 10 13  2  0
 11 14  2  0
 12 15  1  0
 12 16  2  0
 13 16  1  0
 15 17  1  0
 17 18  1  0
 17 19  1  0
 18 20  2  0
 19 21  2  0
 20 21  1  0
 19 22  1  0
 21 23  1  0
 22 24  2  0
 23 25  1  0
 23 26  2  0
 24 26  1  0
M  END
