mac-x0277-mac-x0163
     RDKit          3D

 25 27  0  0  0  0  0  0  0  0999 V2000
   -2.0110   17.7070   -5.3550 Cl  0  0  0  0  0  0  0  0  0  0  0  0
   -1.1030   16.6040   -4.2290 C   0  0  1  0  0  0  0  0  0  0  0  0
   -1.8300   15.2600   -3.8000 C   0  0  2  0  0  0  0  0  0  0  0  0
    0.1460   16.4540   -4.9940 C   0  0  0  0  0  0  0  0  0  0  0  0
   -3.4710   15.2380   -4.5920 Cl  0  0  0  0  0  0  0  0  0  0  0  0
   -1.7200   15.0250   -2.1630 C   0  0  1  0  0  0  0  0  0  0  0  0
    1.0230   15.5000   -4.9080 C   0  0  0  0  0  0  0  0  0  0  0  0
    1.1280   14.2570   -4.0450 C   0  0  2  0  0  0  0  0  0  0  0  0
   -2.7980   15.6440   -1.1470 C   0  0  1  0  0  0  0  0  0  0  0  0
   -1.6540   13.6890   -1.5460 N   0  0  0  0  0  0  0  0  0  0  0  0
   -0.2920   15.2690   -2.0950 N   0  0  0  0  0  0  0  0  0  0  0  0
    0.8780   12.9410   -4.8190 C   0  0  0  0  0  0  0  0  0  0  0  0
   -4.4910   15.4580   -1.8040 Cl  0  0  0  0  0  0  0  0  0  0  0  0
   -2.8960   14.8820    0.2270 C   0  0  2  0  0  0  0  0  0  0  0  0
   -0.9830   13.6660   -0.2290 C   0  0  0  0  0  0  0  0  0  0  0  0
    0.1330   15.3650   -0.7330 C   0  0  0  0  0  0  0  0  0  0  0  0
    0.3550   14.1020   -2.6710 C   0  0  2  0  0  0  0  0  0  0  0  0
    2.5880   14.1960   -3.6770 C   0  0  0  0  0  0  0  0  0  0  0  0
    0.6750   11.8780   -3.7670 C   0  0  0  0  0  0  0  0  0  0  0  0
   -3.5630   15.5650    1.3320 N   0  0  0  0  0  0  0  0  0  0  0  0
   -1.6340   14.4920    0.7690 N   0  0  0  0  0  0  0  0  0  0  0  0
    1.4100   13.4620   -1.7140 C   0  0  0  0  0  0  0  0  0  0  0  0
    2.7660   13.4460   -2.3830 C   0  0  0  0  0  0  0  0  0  0  0  0
   -0.2390   10.9540   -4.0920 O   0  0  0  0  0  0  0  0  0  0  0  0
    1.2480   11.8160   -2.6940 O   0  0  0  0  0  0  0  0  0  0  0  0
  2  1  1  6
  2  3  1  0
  2  4  1  0
  3  5  1  1
  3  6  1  0
  4  7  2  0
  7  8  1  0
  6  9  1  0
  6 10  1  6
  6 11  1  0
  8 12  1  6
  9 13  1  6
  9 14  1  0
 10 15  1  0
 11 16  1  0
  8 17  1  0
 11 17  1  0
  8 18  1  0
 12 19  1  0
 14 20  1  1
 14 21  1  0
 15 21  1  0
 17 22  1  1
 18 23  1  0
 22 23  1  0
 19 24  1  0
 19 25  2  0
M  END
