mac-x0357-mac-x0565
     RDKit          3D

 23 25  0  0  0  0  0  0  0  0999 V2000
    2.4240   13.0960   -4.2290 C   0  0  0  0  0  0  0  0  0  0  0  0
    1.0940   12.5020   -4.6200 C   0  0  0  0  0  0  0  0  0  0  0  0
    0.9120   11.9820   -5.9090 C   0  0  0  0  0  0  0  0  0  0  0  0
   -0.0110   12.4360   -3.7220 C   0  0  0  0  0  0  0  0  0  0  0  0
    1.9080   11.9820   -6.8300 O   0  0  0  0  0  0  0  0  0  0  0  0
    0.0280   12.9240   -2.3130 C   0  0  0  0  0  0  0  0  0  0  0  0
   -1.2260   11.8730   -4.1470 C   0  0  0  0  0  0  0  0  0  0  0  0
   -0.2960   11.4260   -6.3220 C   0  0  0  0  0  0  0  0  0  0  0  0
   -0.4500   13.9480   -1.6720 N   0  0  0  0  0  0  0  0  0  0  0  0
    0.7320   12.0710   -1.5550 O   0  0  0  0  0  0  0  0  0  0  0  0
   -1.3700   11.3710   -5.4420 C   0  0  0  0  0  0  0  0  0  0  0  0
   -1.1720   14.9050   -2.3120 N   0  0  0  0  0  0  0  0  0  0  0  0
   -2.5990   14.9030   -2.2750 C   0  0  0  0  0  0  0  0  0  0  0  0
   -0.9240   15.1530   -3.7420 C   0  0  0  0  0  0  0  0  0  0  0  0
   -3.4750   14.9190   -1.1820 C   0  0  0  0  0  0  0  0  0  0  0  0
   -3.1020   14.8930   -3.5620 C   0  0  0  0  0  0  0  0  0  0  0  0
   -2.1190   14.8860   -4.5140 O   0  0  0  0  0  0  0  0  0  0  0  0
   -4.8630   14.9260   -1.4370 C   0  0  0  0  0  0  0  0  0  0  0  0
   -4.4470   14.8940   -3.8370 C   0  0  0  0  0  0  0  0  0  0  0  0
   -5.8870   14.9470   -0.3610 C   0  0  0  0  0  0  0  0  0  0  0  0
   -5.3360   14.9120   -2.7630 C   0  0  0  0  0  0  0  0  0  0  0  0
   -5.3550   15.0920    0.8610 O   0  0  0  0  0  0  0  0  0  0  0  0
   -7.0940   14.8500   -0.5190 O   0  0  0  0  0  0  0  0  0  0  0  0
  1  2  1  0
  2  3  2  0
  2  4  1  0
  3  5  1  0
  4  6  1  0
  4  7  2  0
  3  8  1  0
  6  9  2  3
  6 10  1  0
  7 11  1  0
  8 11  2  0
  9 12  1  0
 12 13  1  0
 12 14  1  0
 13 15  2  0
 13 16  1  0
 14 17  1  0
 16 17  1  0
 15 18  1  0
 16 19  2  0
 18 20  1  0
 18 21  2  0
 19 21  1  0
 20 22  1  0
 20 23  2  0
M  END
