mac-x0301-mac-x0182
     RDKit          3D

 25 28  0  0  0  0  0  0  0  0999 V2000
    0.4750   15.1950   -3.0330 O   0  0  0  0  0  0  0  0  0  0  0  0
   -0.7190   14.5830   -3.1550 C   0  0  0  0  0  0  0  0  0  0  0  0
   -0.9730   13.9080   -4.2180 N   0  0  0  0  0  0  0  0  0  0  0  0
   -1.6250   14.7820   -1.9810 C   0  0  0  0  0  0  0  0  0  0  0  0
   -2.2360   13.2330   -4.3640 C   0  0  0  0  0  0  0  0  0  0  0  0
   -1.1910   14.6180   -0.6670 C   0  0  0  0  0  0  0  0  0  0  0  0
   -2.9780   15.1680   -2.1540 C   0  0  0  0  0  0  0  0  0  0  0  0
   -2.0050   11.8870   -3.8710 N   0  0  0  0  0  0  0  0  0  0  0  0
   -2.0210   14.8310    0.4220 C   0  0  0  0  0  0  0  0  0  0  0  0
   -3.8210   15.3790   -1.0410 C   0  0  0  0  0  0  0  0  0  0  0  0
    0.0580   14.2480   -0.2780 O   0  0  0  0  0  0  0  0  0  0  0  0
   -3.3410   15.2110    0.2670 C   0  0  0  0  0  0  0  0  0  0  0  0
   -1.3870   14.6330    1.6160 O   0  0  0  0  0  0  0  0  0  0  0  0
   -0.0490   14.4090    1.1530 C   0  0  0  0  0  0  0  0  0  0  0  0
   -0.7680   11.0860   -4.2700 S   0  0  2  0  0  0  0  0  0  0  0  0
    0.0920   10.3300   -3.3910 O   0  0  0  0  0  0  0  0  0  0  0  0
    0.2450   12.1620   -5.0960 N   0  0  0  0  0  0  0  0  0  0  0  0
   -1.1120   10.1250   -5.6700 C   0  0  0  0  0  0  0  0  0  0  0  0
    0.6770   11.5830   -6.2670 C   0  0  0  0  0  0  0  0  0  0  0  0
   -0.2480   10.5000   -6.6920 C   0  0  0  0  0  0  0  0  0  0  0  0
   -2.0660    9.1400   -5.8140 C   0  0  0  0  0  0  0  0  0  0  0  0
    1.6820   11.8750   -6.8780 O   0  0  0  0  0  0  0  0  0  0  0  0
   -2.1440    8.5080   -7.0550 C   0  0  0  0  0  0  0  0  0  0  0  0
   -0.3130    9.8790   -7.9290 C   0  0  0  0  0  0  0  0  0  0  0  0
   -1.2770    8.8720   -8.1050 C   0  0  0  0  0  0  0  0  0  0  0  0
  1  2  1  0
  2  3  2  3
  2  4  1  0
  3  5  1  0
  4  6  1  0
  4  7  2  0
  5  8  1  0
  6  9  2  0
  7 10  1  0
  6 11  1  0
  9 12  1  0
 10 12  2  0
  9 13  1  0
 11 14  1  0
 13 14  1  0
  8 15  2  0
 15 16  2  0
 15 17  1  6
 15 18  1  0
 17 19  1  0
 18 20  2  0
 19 20  1  0
 18 21  1  0
 19 22  2  0
 21 23  2  0
 20 24  1  0
 23 25  1  0
 24 25  2  0
M  END
