mac-x0451-mac-x0587
     RDKit          3D

 20 21  0  0  0  0  0  0  0  0999 V2000
   -6.4540   14.9760    2.5320 N   0  0  0  0  0  0  0  0  0  0  0  0
   -5.6300   14.5080    1.4720 C   0  0  1  0  0  0  0  0  0  0  0  0
   -6.2190   14.9090    0.2290 N   0  0  0  0  0  0  0  0  0  0  0  0
   -3.9190   15.0890    1.5540 S   0  0  0  0  0  0  0  0  0  0  0  0
   -5.1290   14.6690   -0.6980 C   0  0  2  0  0  0  0  0  0  0  0  0
   -3.8740   15.3380   -0.2120 C   0  0  2  0  0  0  0  0  0  0  0  0
   -5.3680   15.0020   -2.1000 C   0  0  0  0  0  0  0  0  0  0  0  0
   -2.6670   14.8670   -1.0160 C   0  0  0  0  0  0  0  0  0  0  0  0
   -1.5180   14.8010   -0.5510 O   0  0  0  0  0  0  0  0  0  0  0  0
   -4.3320   14.9140   -2.9300 C   0  0  0  0  0  0  0  0  0  0  0  0
   -2.9450   14.4900   -2.4770 C   0  0  1  0  0  0  0  0  0  0  0  0
   -2.0150   15.0770   -3.5300 C   0  0  0  0  0  0  0  0  0  0  0  0
   -0.5100   14.7830   -3.6310 C   0  0  2  0  0  0  0  0  0  0  0  0
   -2.5090   15.8260   -4.3910 O   0  0  0  0  0  0  0  0  0  0  0  0
    0.3420   15.9940   -4.0170 C   0  0  0  0  0  0  0  0  0  0  0  0
   -0.1780   13.4560   -4.8480 S   0  0  0  0  0  0  0  0  0  0  0  0
   -0.5680   11.9300   -3.9260 C   0  0  0  0  0  0  0  0  0  0  0  0
    0.4830   11.5170   -2.9280 C   0  0  0  0  0  0  0  0  0  0  0  0
    0.5440   10.3840   -2.4610 O   0  0  0  0  0  0  0  0  0  0  0  0
    1.3640   12.4970   -2.5710 O   0  0  0  0  0  0  0  0  0  0  0  0
  2  1  1  1
  2  3  1  0
  2  4  1  0
  3  5  1  0
  6  4  1  1
  5  6  1  0
  5  7  1  6
  6  8  1  0
  8  9  2  0
  7 10  2  0
  8 11  1  0
 10 11  1  0
 11 12  1  6
 12 13  1  0
 12 14  2  0
 13 15  1  6
 13 16  1  0
 16 17  1  0
 17 18  1  0
 18 19  2  0
 18 20  1  0
M  END
