mac-x0439-mac-x0584
     RDKit          3D

 31 36  0  0  0  0  0  0  0  0999 V2000
   -3.0120   16.3710   -5.7270 Cl  0  0  0  0  0  0  0  0  0  0  0  0
   -1.5260   17.2250   -5.5580 C   0  0  0  0  0  0  0  0  0  0  0  0
   -0.6360   17.0720   -4.3460 C   0  0  1  0  0  0  0  0  0  0  0  0
   -1.1630   18.0540   -6.5460 C   0  0  0  0  0  0  0  0  0  0  0  0
   -0.3790   15.8160   -3.5550 C   0  0  0  0  0  0  0  0  0  0  0  0
    0.7640   17.1830   -4.8570 C   0  0  0  0  0  0  0  0  0  0  0  0
    0.0870   18.7620   -6.5010 C   0  0  0  0  0  0  0  0  0  0  0  0
    0.8930   15.4210   -3.6850 C   0  0  0  0  0  0  0  0  0  0  0  0
    1.5810   16.2400   -4.5090 N   0  0  0  0  0  0  0  0  0  0  0  0
    1.0740   18.3620   -5.6950 C   0  0  0  0  0  0  0  0  0  0  0  0
    1.5330   14.2500   -2.9870 C   0  0  0  0  0  0  0  0  0  0  0  0
    2.5000   14.6820   -2.1290 O   0  0  0  0  0  0  0  0  0  0  0  0
    1.4400   12.9710   -2.9660 N   0  0  0  0  0  0  0  0  0  0  0  0
    0.5320   12.1880   -3.7980 C   0  0  1  0  0  0  0  0  0  0  0  0
    0.2620   10.8480   -3.0600 C   0  0  0  0  0  0  0  0  0  0  0  0
   -1.0100   12.3190   -3.5640 C   0  0  1  0  0  0  0  0  0  0  0  0
   -0.7800   11.5990   -2.2400 C   0  0  0  0  0  0  0  0  0  0  0  0
   -1.8440   13.5940   -3.5720 C   0  0  2  0  0  0  0  0  0  0  0  0
   -1.6790   14.2600   -4.9290 C   0  0  0  0  0  0  0  0  0  0  0  0
   -1.6230   14.7330   -2.6590 N   0  0  0  0  0  0  0  0  0  0  0  0
   -2.5010   15.7650   -3.2590 C   0  0  0  0  0  0  0  0  0  0  0  0
   -2.6570   15.3870   -4.7370 C   0  0  0  0  0  0  0  0  0  0  0  0
   -1.5910   14.7280   -1.2640 C   0  0  0  0  0  0  0  0  0  0  0  0
   -0.4670   14.4760   -0.4990 N   0  0  0  0  0  0  0  0  0  0  0  0
   -2.6900   14.9950   -0.5640 C   0  0  0  0  0  0  0  0  0  0  0  0
   -0.5160   14.4900    0.8730 C   0  0  0  0  0  0  0  0  0  0  0  0
   -2.6650   14.9990    0.9120 C   0  0  0  0  0  0  0  0  0  0  0  0
   -4.0410   15.3140   -0.8740 C   0  0  0  0  0  0  0  0  0  0  0  0
   -1.5360   14.7280    1.6240 N   0  0  0  0  0  0  0  0  0  0  0  0
   -3.8230   15.2810    1.4180 N   0  0  0  0  0  0  0  0  0  0  0  0
   -4.6330   15.4590    0.3100 C   0  0  0  0  0  0  0  0  0  0  0  0
  1  2  1  0
  2  3  1  0
  2  4  2  0
  3  5  1  6
  3  6  1  0
  4  7  1  0
  5  8  2  0
  6  9  2  0
  8  9  1  0
  6 10  1  0
  7 10  2  0
  8 11  1  0
 11 12  1  0
 11 13  2  3
 14 13  1  1
 14 15  1  0
 14 16  1  0
 15 17  1  0
 16 17  1  1
 16 18  1  0
 18 19  1  6
 18 20  1  0
 20 21  1  0
 19 22  1  0
 21 22  1  0
 20 23  1  0
 23 24  1  0
 23 25  2  0
 24 26  1  0
 25 27  1  0
 25 28  1  0
 26 29  2  0
 27 29  1  0
 27 30  2  0
 28 31  2  0
 30 31  1  0
M  END
