mac-x0231-mac-x0375
     RDKit          3D

 22 24  0  0  0  0  0  0  0  0999 V2000
    0.5080   10.6690   -3.1120 O   0  0  0  0  0  0  0  0  0  0  0  0
    1.0250   11.9120   -3.1420 C   0  0  0  0  0  0  0  0  0  0  0  0
    1.1790   12.4970   -2.0820 O   0  0  0  0  0  0  0  0  0  0  0  0
    1.3740   12.4560   -4.5340 C   0  0  1  0  0  0  0  0  0  0  0  0
    0.8830   11.6480   -5.6320 O   0  0  0  0  0  0  0  0  0  0  0  0
    0.9920   13.9380   -4.5920 C   0  0  0  0  0  0  0  0  0  0  0  0
   -0.4030   14.3240   -4.8870 C   0  0  0  0  0  0  0  0  0  0  0  0
    1.9300   14.8100   -4.3480 N   0  0  0  0  0  0  0  0  0  0  0  0
   -0.3060   10.9430   -5.7030 C   0  0  0  0  0  0  0  0  0  0  0  0
   -0.7130   15.6770   -4.8710 C   0  0  0  0  0  0  0  0  0  0  0  0
    1.6050   16.1280   -4.3760 N   0  0  0  0  0  0  0  0  0  0  0  0
   -1.4060   13.4010   -5.1740 C   0  0  0  0  0  0  0  0  0  0  0  0
   -0.3140    9.9850   -6.7270 C   0  0  0  0  0  0  0  0  0  0  0  0
   -1.4500   11.0660   -4.9090 C   0  0  0  0  0  0  0  0  0  0  0  0
    0.3520   16.6480   -4.5790 C   0  0  0  0  0  0  0  0  0  0  0  0
   -2.0240   16.1110   -5.1300 C   0  0  0  0  0  0  0  0  0  0  0  0
   -2.7090   13.8210   -5.4340 C   0  0  0  0  0  0  0  0  0  0  0  0
   -1.4280    9.1700   -6.9580 C   0  0  0  0  0  0  0  0  0  0  0  0
   -2.5680   10.2510   -5.1420 C   0  0  0  0  0  0  0  0  0  0  0  0
    0.1240   17.8530   -4.5270 O   0  0  0  0  0  0  0  0  0  0  0  0
   -3.0210   15.1750   -5.4110 C   0  0  0  0  0  0  0  0  0  0  0  0
   -2.5550    9.3060   -6.1630 C   0  0  0  0  0  0  0  0  0  0  0  0
  1  2  1  0
  2  3  2  0
  2  4  1  0
  4  5  1  6
  4  6  1  0
  6  7  1  0
  6  8  2  0
  5  9  1  0
  7 10  2  0
  8 11  1  0
  7 12  1  0
  9 13  2  0
  9 14  1  0
 10 15  1  0
 11 15  1  0
 10 16  1  0
 12 17  2  0
 13 18  1  0
 14 19  2  0
 15 20  2  0
 16 21  2  0
 17 21  1  0
 18 22  2  0
 19 22  1  0
M  END
