mac-x0472-mac-x0204
     RDKit          3D

 25 27  0  0  0  0  0  0  0  0999 V2000
   -5.4280   15.2770   -2.2740 O   0  0  0  0  0  0  0  0  0  0  0  0
   -4.4400   14.4130   -2.8670 S   0  0  1  0  0  0  0  0  0  0  0  0
   -4.0430   14.4420   -4.3710 N   0  0  0  0  0  0  0  0  0  0  0  0
   -3.0320   14.7650   -1.9650 N   0  0  0  0  0  0  0  0  0  0  0  0
   -4.7970   12.7320   -2.4580 C   0  0  0  0  0  0  0  0  0  0  0  0
   -3.0970   14.9020   -0.6010 C   0  0  0  0  0  0  0  0  0  0  0  0
   -3.9430   11.6960   -2.8700 C   0  0  0  0  0  0  0  0  0  0  0  0
   -5.9460   12.4640   -1.7220 C   0  0  0  0  0  0  0  0  0  0  0  0
   -2.6690   14.3900   -4.2790 C   0  0  0  0  0  0  0  0  0  0  0  0
   -2.1280   14.5390    0.2430 N   0  0  0  0  0  0  0  0  0  0  0  0
   -4.4540   15.5690    0.2350 S   0  0  0  0  0  0  0  0  0  0  0  0
   -4.2630   10.3860   -2.5420 C   0  0  0  0  0  0  0  0  0  0  0  0
   -6.2570   11.1540   -1.3960 C   0  0  0  0  0  0  0  0  0  0  0  0
   -1.9040   15.4600   -4.7040 C   0  0  0  0  0  0  0  0  0  0  0  0
   -2.2450   13.2730   -3.7150 N   0  0  0  0  0  0  0  0  0  0  0  0
   -2.4380   16.5710   -5.3140 O   0  0  0  0  0  0  0  0  0  0  0  0
   -3.6250   15.3120    1.6990 C   0  0  0  0  0  0  0  0  0  0  0  0
   -2.4370   14.7760    1.5710 N   0  0  0  0  0  0  0  0  0  0  0  0
   -5.4180   10.1190   -1.8120 C   0  0  0  0  0  0  0  0  0  0  0  0
   -0.5600   15.3850   -4.4620 C   0  0  0  0  0  0  0  0  0  0  0  0
   -0.9540   13.2170   -3.4840 C   0  0  0  0  0  0  0  0  0  0  0  0
   -0.0980   14.2360   -3.8120 C   0  0  0  0  0  0  0  0  0  0  0  0
    1.2710   14.0250   -3.4150 C   0  0  0  0  0  0  0  0  0  0  0  0
    1.5830   12.7390   -3.1770 O   0  0  0  0  0  0  0  0  0  0  0  0
    2.0260   14.9610   -3.2790 O   0  0  0  0  0  0  0  0  0  0  0  0
  1  2  2  0
  2  3  2  0
  2  4  1  1
  2  5  1  0
  4  6  1  0
  5  7  2  0
  5  8  1  0
  3  9  1  0
  6 10  2  0
  6 11  1  0
  7 12  1  0
  8 13  2  0
  9 14  2  0
  9 15  1  0
 14 16  1  0
 11 17  1  0
 10 18  1  0
 17 18  2  0
 12 19  2  0
 13 19  1  0
 14 20  1  0
 15 21  2  0
 20 22  2  0
 21 22  1  0
 22 23  1  0
 23 24  1  0
 23 25  2  0
M  END
