mac-x0354-mac-x0397
     RDKit          3D

 29 32  0  0  0  0  0  0  0  0999 V2000
    0.6480   10.9890   -8.4140 C   0  0  0  0  0  0  0  0  0  0  0  0
    0.9210   11.4800   -7.0800 N   0  0  0  0  0  0  0  0  0  0  0  0
    1.9020   12.3540   -6.8760 N   0  0  0  0  0  0  0  0  0  0  0  0
    0.2740   11.1470   -5.9380 C   0  0  0  0  0  0  0  0  0  0  0  0
    1.8990   12.6000   -5.6040 C   0  0  0  0  0  0  0  0  0  0  0  0
    0.9150   11.8830   -4.9480 C   0  0  0  0  0  0  0  0  0  0  0  0
   -0.8170   10.2050   -5.9340 C   0  0  0  0  0  0  0  0  0  0  0  0
    0.7030   11.9560   -3.5690 C   0  0  0  0  0  0  0  0  0  0  0  0
   -0.6200    8.9380   -6.4930 C   0  0  0  0  0  0  0  0  0  0  0  0
   -2.0530   10.5430   -5.3880 C   0  0  0  0  0  0  0  0  0  0  0  0
    1.0100   12.9770   -2.9030 N   0  0  0  0  0  0  0  0  0  0  0  0
    0.1720   10.8810   -2.9410 O   0  0  0  0  0  0  0  0  0  0  0  0
   -1.6540    8.0100   -6.5050 C   0  0  0  0  0  0  0  0  0  0  0  0
   -3.0890    9.6120   -5.4010 C   0  0  0  0  0  0  0  0  0  0  0  0
    0.7730   12.9710   -1.5220 C   0  0  0  0  0  0  0  0  0  0  0  0
   -2.8880    8.3480   -5.9590 C   0  0  0  0  0  0  0  0  0  0  0  0
   -0.6650   13.3440   -1.3130 C   0  0  0  0  0  0  0  0  0  0  0  0
   -1.2290   14.4440   -2.2260 C   0  0  0  0  0  0  0  0  0  0  0  0
   -2.5990   14.6520   -1.6830 C   0  0  0  0  0  0  0  0  0  0  0  0
   -3.7750   14.8350   -2.4250 C   0  0  0  0  0  0  0  0  0  0  0  0
   -2.6360   14.6260   -0.3010 C   0  0  0  0  0  0  0  0  0  0  0  0
   -3.8340   14.7570    0.3420 C   0  0  0  0  0  0  0  0  0  0  0  0
   -4.9840   14.9640   -1.7220 C   0  0  0  0  0  0  0  0  0  0  0  0
   -6.4970   15.1700   -2.4820 Cl  0  0  0  0  0  0  0  0  0  0  0  0
   -5.0330   14.9180   -0.3250 C   0  0  0  0  0  0  0  0  0  0  0  0
   -4.0890   14.7400    2.0100 S   0  0  0  0  0  0  0  0  0  0  0  0
   -5.7610   14.9190    1.7510 C   0  0  0  0  0  0  0  0  0  0  0  0
   -6.1350   15.0050    0.5040 N   0  0  0  0  0  0  0  0  0  0  0  0
   -6.6250   14.9700    2.7730 N   0  0  0  0  0  0  0  0  0  0  0  0
  1  2  1  0
  2  3  1  0
  2  4  1  0
  3  5  2  0
  4  6  2  0
  5  6  1  0
  4  7  1  0
  6  8  1  0
  7  9  2  0
  7 10  1  0
  8 11  2  3
  8 12  1  0
  9 13  1  0
 10 14  2  0
 11 15  1  0
 13 16  2  0
 14 16  1  0
 15 17  1  0
 17 18  1  0
 18 19  1  0
 19 20  2  0
 19 21  1  0
 21 22  2  0
 20 23  1  0
 23 24  1  0
 22 25  1  0
 23 25  2  0
 22 26  1  0
 26 27  1  0
 25 28  1  0
 27 28  2  0
 27 29  1  0
M  END
