mac-x0568-diamond-x0587_0_A
     RDKit          3D

 14 15  0  0  0  0  0  0  0  0999 V2000
   -8.1490   14.7080    1.9990 C   0  0  0  0  0  0  0  0  0  0  0  0
   -7.9500   14.6530    3.3690 N   0  0  0  0  0  0  0  0  0  0  0  0
   -9.2890   14.7580    1.5570 O   0  0  0  0  0  0  0  0  0  0  0  0
   -6.8760   14.7310    1.1880 C   0  0  0  0  0  0  0  0  0  0  0  0
   -6.8810   14.6320   -0.1830 N   0  0  0  0  0  0  0  0  0  0  0  0
   -5.7110   14.8740    1.9350 C   0  0  0  0  0  0  0  0  0  0  0  0
   -5.6300   14.6890   -0.7370 C   0  0  0  0  0  0  0  0  0  0  0  0
   -4.4730   14.9210    1.3250 C   0  0  0  0  0  0  0  0  0  0  0  0
   -5.2050   14.6150   -2.1750 C   0  0  1  0  0  0  0  0  0  0  0  0
   -4.4650   14.8250   -0.0280 C   0  0  0  0  0  0  0  0  0  0  0  0
   -3.3700   14.8400   -0.9750 C   0  0  0  0  0  0  0  0  0  0  0  0
   -3.7160   14.7640   -2.2170 N   0  0  0  0  0  0  0  0  0  0  0  0
   -5.4300   13.3870   -2.6950 F   0  0  0  0  0  0  0  0  0  0  0  0
   -2.0770   14.9180   -0.5830 N   0  0  0  0  0  0  0  0  0  0  0  0
  1  2  1  0
  1  3  2  0
  1  4  1  0
  4  5  2  0
  4  6  1  0
  5  7  1  0
  6  8  2  0
  7  9  1  0
  7 10  2  0
  8 10  1  0
 10 11  1  0
  9 12  1  0
 11 12  2  0
  9 13  1  1
 11 14  1  0
M  END
