mac-x0131-mac-x0453
     RDKit          3D

 20 22  0  0  0  0  0  0  0  0999 V2000
   -3.5450   15.1110   -4.2110 C   0  0  0  0  0  0  0  0  0  0  0  0
   -3.0490   15.0080   -2.8120 C   0  0  0  0  0  0  0  0  0  0  0  0
   -3.7640   15.0800   -1.6200 C   0  0  0  0  0  0  0  0  0  0  0  0
   -1.7190   14.8140   -2.4910 N   0  0  0  0  0  0  0  0  0  0  0  0
   -5.2340   15.2860   -1.4930 C   0  0  0  0  0  0  0  0  0  0  0  0
   -0.6020   14.6750   -3.4220 C   0  0  0  0  0  0  0  0  0  0  0  0
   -2.8240   14.9170   -0.5430 C   0  0  0  0  0  0  0  0  0  0  0  0
   -1.5710   14.7630   -1.1270 C   0  0  0  0  0  0  0  0  0  0  0  0
   -2.8760   14.8820    0.8740 C   0  0  0  0  0  0  0  0  0  0  0  0
   -0.4020   14.5930   -0.4840 N   0  0  0  0  0  0  0  0  0  0  0  0
   -0.4140   13.2330   -3.7070 C   0  0  0  0  0  0  0  0  0  0  0  0
   -4.0840   15.0220    1.5750 N   0  0  0  0  0  0  0  0  0  0  0  0
   -1.7050   14.7020    1.5460 N   0  0  0  0  0  0  0  0  0  0  0  0
   -0.5610   14.5780    0.8460 C   0  0  0  0  0  0  0  0  0  0  0  0
    0.4130   12.2530   -3.1900 C   0  0  0  0  0  0  0  0  0  0  0  0
   -1.2070   12.6970   -4.6750 O   0  0  0  0  0  0  0  0  0  0  0  0
   -5.1150   14.0130    1.3760 C   0  0  0  0  0  0  0  0  0  0  0  0
   -0.8910   11.3830   -4.7760 C   0  0  0  0  0  0  0  0  0  0  0  0
    0.0870   11.0640   -3.8830 C   0  0  0  0  0  0  0  0  0  0  0  0
   -6.3820   14.1720    2.0790 N   0  0  0  0  0  0  0  0  0  0  0  0
  1  2  1  0
  2  3  2  0
  2  4  1  0
  3  5  1  0
  4  6  1  0
  3  7  1  0
  4  8  1  0
  7  8  2  0
  7  9  1  0
  8 10  1  0
  6 11  1  0
  9 12  1  0
  9 13  2  0
 10 14  2  0
 13 14  1  0
 11 15  2  0
 11 16  1  0
 12 17  1  0
 16 18  1  0
 15 19  1  0
 18 19  2  0
 17 20  1  0
M  END
