mac-x0411-mac-x0137
     RDKit          3D

 27 30  0  0  0  0  0  0  0  0999 V2000
    0.3580    9.7960   -8.1670 Cl  0  0  0  0  0  0  0  0  0  0  0  0
   -0.7490   10.0160   -6.8600 C   0  0  0  0  0  0  0  0  0  0  0  0
   -0.6330   11.1130   -5.9710 C   0  0  0  0  0  0  0  0  0  0  0  0
   -1.7500    9.0710   -6.7140 C   0  0  0  0  0  0  0  0  0  0  0  0
    0.4130   11.9610   -6.2740 O   0  0  0  0  0  0  0  0  0  0  0  0
   -1.5620   11.2620   -4.8590 C   0  0  0  0  0  0  0  0  0  0  0  0
   -2.6530    9.1970   -5.6790 C   0  0  0  0  0  0  0  0  0  0  0  0
    0.7600   12.8800   -5.2580 C   0  0  0  0  0  0  0  0  0  0  0  0
   -2.5540   10.2610   -4.7800 C   0  0  0  0  0  0  0  0  0  0  0  0
   -1.6390   12.3440   -3.7120 C   0  0  2  0  0  0  0  0  0  0  0  0
    1.1860   12.0250   -4.1040 C   0  0  0  0  0  0  0  0  0  0  0  0
   -1.5350   13.9040   -3.7990 C   0  0  0  0  0  0  0  0  0  0  0  0
   -0.8880   11.8120   -2.4670 C   0  0  0  0  0  0  0  0  0  0  0  0
    2.2950   12.4790   -3.4690 O   0  0  0  0  0  0  0  0  0  0  0  0
    0.6020   11.0060   -3.7660 O   0  0  0  0  0  0  0  0  0  0  0  0
   -0.7620   14.4720   -2.6440 N   0  0  0  0  0  0  0  0  0  0  0  0
    0.4460   12.4950   -2.1090 C   0  0  0  0  0  0  0  0  0  0  0  0
    0.5740   13.8990   -2.6910 C   0  0  0  0  0  0  0  0  0  0  0  0
   -1.2050   14.5680   -1.2970 C   0  0  0  0  0  0  0  0  0  0  0  0
   -0.2800   14.3470   -0.2850 N   0  0  0  0  0  0  0  0  0  0  0  0
   -2.4420   14.8800   -0.8480 C   0  0  0  0  0  0  0  0  0  0  0  0
   -0.5950   14.3600    1.0470 C   0  0  0  0  0  0  0  0  0  0  0  0
   -2.7000   14.9390    0.6220 C   0  0  0  0  0  0  0  0  0  0  0  0
   -3.7080   15.2240   -1.4110 C   0  0  0  0  0  0  0  0  0  0  0  0
   -1.7440   14.6320    1.5570 N   0  0  0  0  0  0  0  0  0  0  0  0
   -3.9170   15.3080    0.8940 N   0  0  0  0  0  0  0  0  0  0  0  0
   -4.5040   15.4730   -0.3550 C   0  0  0  0  0  0  0  0  0  0  0  0
  1  2  1  0
  2  3  2  0
  2  4  1  0
  3  5  1  0
  3  6  1  0
  4  7  2  0
  5  8  1  0
  6  9  2  0
  7  9  1  0
 10  6  1  6
  8 11  1  0
 10 12  1  0
 10 13  1  0
 11 14  1  0
 11 15  2  0
 12 16  1  0
 13 17  1  0
 16 18  1  0
 17 18  1  0
 16 19  1  0
 19 20  1  0
 19 21  2  0
 20 22  1  0
 21 23  1  0
 21 24  1  0
 22 25  2  0
 23 25  1  0
 23 26  2  0
 24 27  2  0
 26 27  1  0
M  END
