mac-x0365-mac-x0358
     RDKit          3D

 22 23  0  0  0  0  0  0  0  0999 V2000
   -0.6450   15.1210   -1.6000 O   0  0  0  0  0  0  0  0  0  0  0  0
   -1.8610   14.8310   -2.0940 C   0  0  0  0  0  0  0  0  0  0  0  0
   -2.1410   14.3390   -3.1990 N   0  0  0  0  0  0  0  0  0  0  0  0
   -3.0760   14.9880   -1.3110 C   0  0  0  0  0  0  0  0  0  0  0  0
   -4.1940   15.0500   -2.1440 C   0  0  0  0  0  0  0  0  0  0  0  0
   -3.2130   15.0370    0.0800 C   0  0  0  0  0  0  0  0  0  0  0  0
   -1.7920   13.8260   -4.4050 C   0  0  0  0  0  0  0  0  0  0  0  0
   -5.4450   15.1360   -1.6150 C   0  0  0  0  0  0  0  0  0  0  0  0
   -4.5140   15.1260    0.6150 C   0  0  0  0  0  0  0  0  0  0  0  0
   -0.6120   13.2060   -4.8470 C   0  0  0  0  0  0  0  0  0  0  0  0
   -2.9060   13.9630   -5.2270 C   0  0  0  0  0  0  0  0  0  0  0  0
   -6.5120   15.1820   -2.4220 F   0  0  0  0  0  0  0  0  0  0  0  0
    0.6770   13.0300   -4.0660 C   0  0  0  0  0  0  0  0  0  0  0  0
   -5.6160   15.1630   -0.2550 C   0  0  0  0  0  0  0  0  0  0  0  0
   -0.6970   12.7000   -6.1360 C   0  0  0  0  0  0  0  0  0  0  0  0
   -2.9380   13.4750   -6.4900 C   0  0  0  0  0  0  0  0  0  0  0  0
   -6.8870   15.2190    0.2270 O   0  0  0  0  0  0  0  0  0  0  0  0
    0.6200   12.1810   -2.8380 C   0  0  0  0  0  0  0  0  0  0  0  0
    0.3490   12.0360   -6.6820 O   0  0  0  0  0  0  0  0  0  0  0  0
   -1.8270   12.8230   -6.9370 C   0  0  0  0  0  0  0  0  0  0  0  0
    1.3060   12.7370   -1.8250 O   0  0  0  0  0  0  0  0  0  0  0  0
    0.0510   11.1060   -2.7140 O   0  0  0  0  0  0  0  0  0  0  0  0
  1  2  1  0
  2  3  2  3
  2  4  1  0
  4  5  2  0
  4  6  1  0
  3  7  1  0
  5  8  1  0
  6  9  2  0
  7 10  2  0
  7 11  1  0
  8 12  1  0
 10 13  1  0
  8 14  2  0
  9 14  1  0
 10 15  1  0
 11 16  2  0
 14 17  1  0
 13 18  1  0
 15 19  1  0
 15 20  2  0
 16 20  1  0
 18 21  1  0
 18 22  2  0
M  END
