mac-x0228-mac-x0436
     RDKit          3D

 29 32  0  0  0  0  0  0  0  0999 V2000
   -1.1780   14.9820   -1.4150 O   0  0  0  0  0  0  0  0  0  0  0  0
   -2.0150   14.7030   -2.4290 C   0  0  0  0  0  0  0  0  0  0  0  0
   -1.4980   14.4010   -3.5570 N   0  0  0  0  0  0  0  0  0  0  0  0
   -3.4130   14.8100   -1.9690 C   0  0  0  0  0  0  0  0  0  0  0  0
   -2.3050   14.0540   -4.7050 C   0  0  0  0  0  0  0  0  0  0  0  0
   -3.6860   14.5870   -0.6170 C   0  0  0  0  0  0  0  0  0  0  0  0
   -4.4350   15.1280   -2.8780 C   0  0  0  0  0  0  0  0  0  0  0  0
   -2.6740   12.6500   -4.6250 N   0  0  0  0  0  0  0  0  0  0  0  0
   -5.0020   14.6890   -0.2030 C   0  0  0  0  0  0  0  0  0  0  0  0
   -5.7610   15.2260   -2.4280 C   0  0  0  0  0  0  0  0  0  0  0  0
   -6.0110   15.0030   -1.0940 C   0  0  0  0  0  0  0  0  0  0  0  0
   -5.5780   14.5010    1.1410 C   0  0  0  0  0  0  0  0  0  0  0  0
   -1.8890   11.6950   -5.0250 C   0  0  0  0  0  0  0  0  0  0  0  0
   -7.2560   15.0630   -0.5170 O   0  0  0  0  0  0  0  0  0  0  0  0
   -7.0630   14.4390    0.7740 C   0  0  0  0  0  0  0  0  0  0  0  0
   -0.4780   12.0160   -5.5970 C   0  0  0  0  0  0  0  0  0  0  0  0
   -2.1870   10.3560   -5.0220 N   0  0  0  0  0  0  0  0  0  0  0  0
    0.2910   13.2600   -5.1860 C   0  0  0  0  0  0  0  0  0  0  0  0
   -1.7580    9.6010   -6.1190 C   0  0  0  0  0  0  0  0  0  0  0  0
    0.0850   11.1980   -6.4450 N   0  0  0  0  0  0  0  0  0  0  0  0
    1.5590   12.9160   -4.4170 C   0  0  0  0  0  0  0  0  0  0  0  0
   -0.6170   10.0360   -6.8230 C   0  0  0  0  0  0  0  0  0  0  0  0
   -2.4290    8.4430   -6.5240 C   0  0  0  0  0  0  0  0  0  0  0  0
    1.2640   12.3450   -3.0520 C   0  0  0  0  0  0  0  0  0  0  0  0
   -0.1650    9.3020   -7.9200 C   0  0  0  0  0  0  0  0  0  0  0  0
   -1.9700    7.7190   -7.6240 C   0  0  0  0  0  0  0  0  0  0  0  0
    0.5850   11.1860   -3.0820 O   0  0  0  0  0  0  0  0  0  0  0  0
    1.5800   12.8400   -1.9840 O   0  0  0  0  0  0  0  0  0  0  0  0
   -0.8370    8.1460   -8.3220 C   0  0  0  0  0  0  0  0  0  0  0  0
  1  2  1  0
  2  3  2  3
  2  4  1  0
  3  5  1  0
  4  6  2  0
  4  7  1  0
  5  8  1  0
  6  9  1  0
  7 10  2  0
  9 11  2  0
 10 11  1  0
  9 12  1  0
  8 13  2  3
 11 14  1  0
 12 15  1  0
 14 15  1  0
 13 16  1  0
 13 17  1  0
 16 18  1  0
 17 19  1  0
 16 20  2  0
 18 21  1  0
 19 22  2  0
 20 22  1  0
 19 23  1  0
 21 24  1  0
 22 25  1  0
 23 26  2  0
 24 27  1  0
 24 28  2  0
 25 29  2  0
 26 29  1  0
M  END
