mac-x0180-mac-x0305
     RDKit          3D

 15 15  0  0  0  0  0  0  0  0999 V2000
   -7.8920   14.5280    1.1900 C   0  0  0  0  0  0  0  0  0  0  0  0
   -6.8630   14.7720    0.1090 C   0  0  0  0  0  0  0  0  0  0  0  0
   -7.1810   14.7390   -1.0680 O   0  0  0  0  0  0  0  0  0  0  0  0
   -5.6140   15.0240    0.6350 N   0  0  0  0  0  0  0  0  0  0  0  0
   -4.3840   14.9300   -0.0320 C   0  0  0  0  0  0  0  0  0  0  0  0
   -3.1840   14.7810    0.6410 C   0  0  0  0  0  0  0  0  0  0  0  0
   -4.3760   14.9840   -1.4330 C   0  0  0  0  0  0  0  0  0  0  0  0
   -1.9850   14.6770   -0.0570 C   0  0  0  0  0  0  0  0  0  0  0  0
   -3.1720   14.8800   -2.1420 C   0  0  0  0  0  0  0  0  0  0  0  0
   -0.8760   14.5280    0.7440 O   0  0  0  0  0  0  0  0  0  0  0  0
   -1.9430   14.7180   -1.4650 C   0  0  0  0  0  0  0  0  0  0  0  0
   -0.6430   14.5880   -2.2390 C   0  0  0  0  0  0  0  0  0  0  0  0
   -0.8900   14.5440   -3.6250 O   0  0  0  0  0  0  0  0  0  0  0  0
    0.2450   15.6290   -2.0010 O   0  0  0  0  0  0  0  0  0  0  0  0
    0.0690   13.4420   -1.8420 O   0  0  0  0  0  0  0  0  0  0  0  0
  1  2  1  0
  2  3  2  0
  2  4  1  0
  4  5  1  0
  5  6  2  0
  5  7  1  0
  6  8  1  0
  7  9  2  0
  8 10  1  0
  8 11  2  0
  9 11  1  0
 11 12  1  0
 12 13  1  0
 12 14  1  0
 12 15  1  0
M  END
