mac-x0472-mac-x0337
     RDKit          3D

 17 18  0  0  0  0  0  0  0  0999 V2000
   -4.5320   15.4660   -2.4100 N   0  0  0  0  0  0  0  0  0  0  0  0
   -3.4570   14.3720   -2.6540 S   0  0  1  0  0  0  0  0  0  0  0  0
   -2.6880   14.2890   -3.8780 O   0  0  0  0  0  0  0  0  0  0  0  0
   -5.6100   15.3910   -1.3680 N   0  0  0  0  0  0  0  0  0  0  0  0
   -2.3370   14.7340   -1.4600 N   0  0  0  0  0  0  0  0  0  0  0  0
   -4.1380   12.7670   -2.3100 C   0  0  0  0  0  0  0  0  0  0  0  0
   -2.7090   14.8300   -0.1730 C   0  0  0  0  0  0  0  0  0  0  0  0
   -3.3380   11.6440   -2.5410 C   0  0  0  0  0  0  0  0  0  0  0  0
   -5.4390   12.6260   -1.8240 C   0  0  0  0  0  0  0  0  0  0  0  0
   -1.9930   14.3330    0.8080 N   0  0  0  0  0  0  0  0  0  0  0  0
   -4.1500   15.6070    0.3780 S   0  0  0  0  0  0  0  0  0  0  0  0
   -3.8470   10.3710   -2.2860 C   0  0  0  0  0  0  0  0  0  0  0  0
   -5.9420   11.3470   -1.5710 C   0  0  0  0  0  0  0  0  0  0  0  0
   -3.6980   15.1910    1.9500 C   0  0  0  0  0  0  0  0  0  0  0  0
   -2.5680   14.5390    2.0300 N   0  0  0  0  0  0  0  0  0  0  0  0
   -5.1490   10.2130   -1.8030 C   0  0  0  0  0  0  0  0  0  0  0  0
   -5.6880    8.8460   -1.5380 C   0  0  0  0  0  0  0  0  0  0  0  0
  1  2  2  0
  2  3  2  0
  1  4  1  0
  2  5  1  1
  2  6  1  0
  5  7  1  0
  6  8  2  0
  6  9  1  0
  7 10  2  0
  7 11  1  0
  8 12  1  0
  9 13  2  0
 11 14  1  0
 10 15  1  0
 14 15  2  0
 12 16  2  0
 13 16  1  0
 16 17  1  0
M  END
