mac-x0398-diamond-x0574_0_A
     RDKit          3D

 17 18  0  0  0  0  0  0  0  0999 V2000
   -6.1960   15.0530    2.1370 N   0  0  0  0  0  0  0  0  0  0  0  0
   -7.4350   14.3510    1.8950 O   0  0  0  0  0  0  0  0  0  0  0  0
   -5.3910   14.7460    0.9660 C   0  0  1  0  0  0  0  0  0  0  0  0
   -6.2460   14.8410   -0.2970 C   0  0  0  0  0  0  0  0  0  0  0  0
   -4.1200   15.6130    0.8700 C   0  0  0  0  0  0  0  0  0  0  0  0
   -5.4350   15.3830   -1.4620 C   0  0  2  0  0  0  0  0  0  0  0  0
   -3.2010   14.9780   -0.1600 C   0  0  1  0  0  0  0  0  0  0  0  0
   -6.1350   15.0650   -2.6840 O   0  0  0  0  0  0  0  0  0  0  0  0
   -4.0210   14.7260   -1.4850 C   0  0  2  0  0  0  0  0  0  0  0  0
   -1.5340   15.7300   -0.5050 S   0  0  0  0  0  0  0  0  0  0  0  0
   -2.6660   13.7580    0.6020 C   0  0  0  0  0  0  0  0  0  0  0  0
   -3.3520   15.1530   -2.7850 C   0  0  0  0  0  0  0  0  0  0  0  0
   -1.6700   14.2190    1.5770 N   0  0  0  0  0  0  0  0  0  0  0  0
   -0.6700   14.8560    0.8060 C   0  0  1  0  0  0  0  0  0  0  0  0
   -3.9470   15.3010   -3.8390 O   0  0  0  0  0  0  0  0  0  0  0  0
   -2.0200   15.3520   -2.7080 O   0  0  0  0  0  0  0  0  0  0  0  0
    0.0710   13.7380    0.3330 N   0  0  0  0  0  0  0  0  0  0  0  0
  1  2  1  0
  3  1  1  1
  3  4  1  0
  3  5  1  0
  4  6  1  0
  7  5  1  1
  6  8  1  6
  6  9  1  0
  7  9  1  0
  7 10  1  0
  7 11  1  0
  9 12  1  6
 11 13  1  0
 10 14  1  0
 13 14  1  0
 12 15  2  0
 12 16  1  0
 14 17  1  6
M  END
