mac-x0228-mac-x0284
     RDKit          3D

 15 16  0  0  0  0  0  0  0  0999 V2000
   -0.6930   14.5850   -2.1010 C   0  0  0  0  0  0  0  0  0  0  0  0
   -2.0560   14.8360   -2.7620 C   0  0  0  0  0  0  0  0  0  0  0  0
   -2.0110   15.0090   -3.9740 O   0  0  0  0  0  0  0  0  0  0  0  0
   -0.3930   14.7230   -0.9370 O   0  0  0  0  0  0  0  0  0  0  0  0
    0.2010   14.1760   -3.0160 O   0  0  0  0  0  0  0  0  0  0  0  0
   -3.3970   14.8700   -2.0650 C   0  0  0  0  0  0  0  0  0  0  0  0
   -3.6620   14.7630   -0.6600 C   0  0  0  0  0  0  0  0  0  0  0  0
   -4.4940   15.0270   -2.9470 C   0  0  0  0  0  0  0  0  0  0  0  0
   -2.6550   14.6090    0.4320 C   0  0  0  0  0  0  0  0  0  0  0  0
   -4.9930   14.8020   -0.2600 C   0  0  0  0  0  0  0  0  0  0  0  0
   -5.8130   15.0760   -2.4940 C   0  0  0  0  0  0  0  0  0  0  0  0
   -6.0340   14.9590   -1.1520 C   0  0  0  0  0  0  0  0  0  0  0  0
   -5.5540   14.6850    1.1010 C   0  0  0  0  0  0  0  0  0  0  0  0
   -7.2760   14.9810   -0.5660 O   0  0  0  0  0  0  0  0  0  0  0  0
   -7.0300   14.4800    0.7630 C   0  0  0  0  0  0  0  0  0  0  0  0
  1  2  1  0
  2  3  2  0
  1  4  2  0
  1  5  1  0
  2  6  1  0
  6  7  2  0
  6  8  1  0
  7  9  1  0
  7 10  1  0
  8 11  2  0
 10 12  2  0
 11 12  1  0
 10 13  1  0
 12 14  1  0
 13 15  1  0
 14 15  1  0
M  END
