mac-x0565-diamond-x0711_0_A
     RDKit          3D

 17 18  0  0  0  0  0  0  0  0999 V2000
   -4.7420   14.9240    0.8210 O   0  0  0  0  0  0  0  0  0  0  0  0
   -5.3940   14.7030   -0.3270 C   0  0  0  0  0  0  0  0  0  0  0  0
   -6.6000   14.4820   -0.3250 O   0  0  0  0  0  0  0  0  0  0  0  0
   -4.5650   14.7760   -1.5810 C   0  0  0  0  0  0  0  0  0  0  0  0
   -3.1240   14.7340   -1.7210 C   0  0  0  0  0  0  0  0  0  0  0  0
   -5.3070   14.8980   -2.7830 C   0  0  0  0  0  0  0  0  0  0  0  0
   -2.0080   14.5830   -0.8370 N   0  0  0  0  0  0  0  0  0  0  0  0
   -2.6030   14.8540   -2.9550 C   0  0  0  0  0  0  0  0  0  0  0  0
   -4.6780   14.9840   -4.0300 C   0  0  0  0  0  0  0  0  0  0  0  0
   -0.6520   13.8200   -1.6420 S   0  0  0  0  0  0  0  0  0  0  0  0
   -3.3260   14.9740   -4.0780 C   0  0  0  0  0  0  0  0  0  0  0  0
   -1.2780   14.8690   -3.2120 O   0  0  0  0  0  0  0  0  0  0  0  0
   -1.4180   12.7340   -2.8510 C   0  0  0  0  0  0  0  0  0  0  0  0
    0.0690   14.8190   -2.4310 O   0  0  0  0  0  0  0  0  0  0  0  0
    0.0790   12.9160   -0.7980 O   0  0  0  0  0  0  0  0  0  0  0  0
   -2.5330   15.0710   -5.1820 O   0  0  0  0  0  0  0  0  0  0  0  0
   -1.2600   15.3170   -4.5530 C   0  0  0  0  0  0  0  0  0  0  0  0
  1  2  1  0
  2  3  2  0
  2  4  1  0
  4  5  2  0
  4  6  1  0
  5  7  1  0
  5  8  1  0
  6  9  2  0
 10  7  1  0
  8 11  2  0
  9 11  1  0
  8 12  1  0
 10 13  1  0
 10 14  2  0
 10 15  2  0
 11 16  1  0
 12 17  1  0
 16 17  1  0
M  END
