mac-x0148-mac-x0328
     RDKit          3D

 28 32  0  0  0  0  0  0  0  0999 V2000
   -2.9000   13.5700   -3.2890 O   0  0  0  0  0  0  0  0  0  0  0  0
   -3.1750   14.8920   -3.2470 C   0  0  0  0  0  0  0  0  0  0  0  0
   -2.5770   15.7960   -3.8080 O   0  0  0  0  0  0  0  0  0  0  0  0
   -1.5330   13.3040   -3.4780 C   0  0  2  0  0  0  0  0  0  0  0  0
   -1.0420   11.9100   -3.1290 C   0  0  0  0  0  0  0  0  0  0  0  0
   -0.7370   14.2600   -2.7040 N   0  0  0  0  0  0  0  0  0  0  0  0
   -4.3510   15.0620   -2.3910 C   0  0  0  0  0  0  0  0  0  0  0  0
    0.5360   14.4520   -3.4180 C   0  0  2  0  0  0  0  0  0  0  0  0
    0.4090   11.8520   -3.5920 C   0  0  0  0  0  0  0  0  0  0  0  0
   -0.9020   14.3970   -1.3000 C   0  0  0  0  0  0  0  0  0  0  0  0
   -4.2670   15.4380   -1.0490 C   0  0  0  0  0  0  0  0  0  0  0  0
   -5.5920   14.8210   -2.9740 C   0  0  0  0  0  0  0  0  0  0  0  0
    0.3520   15.4550   -4.5570 C   0  0  0  0  0  0  0  0  0  0  0  0
    0.8550   13.1770   -4.2270 C   0  0  1  0  0  0  0  0  0  0  0  0
    0.0920   14.9430   -0.5180 N   0  0  0  0  0  0  0  0  0  0  0  0
   -2.0130   14.0310   -0.6160 C   0  0  0  0  0  0  0  0  0  0  0  0
   -5.4200   15.5540   -0.2950 C   0  0  0  0  0  0  0  0  0  0  0  0
   -6.7470   14.9440   -2.2220 C   0  0  0  0  0  0  0  0  0  0  0  0
    0.2300   13.4330   -5.6050 C   0  0  0  0  0  0  0  0  0  0  0  0
   -0.3640   14.7360   -5.5640 O   0  0  0  0  0  0  0  0  0  0  0  0
   -0.0470   15.1020    0.8340 C   0  0  0  0  0  0  0  0  0  0  0  0
   -2.0920   14.2630    0.8530 C   0  0  0  0  0  0  0  0  0  0  0  0
   -3.2840   13.4350   -0.9050 C   0  0  0  0  0  0  0  0  0  0  0  0
   -6.6570   15.3040   -0.8890 C   0  0  0  0  0  0  0  0  0  0  0  0
   -7.8280   15.3970   -0.1990 O   0  0  0  0  0  0  0  0  0  0  0  0
   -1.0700   14.7940    1.5590 N   0  0  0  0  0  0  0  0  0  0  0  0
   -3.2410   13.9140    1.3450 N   0  0  0  0  0  0  0  0  0  0  0  0
   -3.9380   13.4050    0.2700 C   0  0  0  0  0  0  0  0  0  0  0  0
  1  2  1  0
  2  3  2  0
  4  1  1  1
  4  5  1  0
  4  6  1  0
  2  7  1  0
  6  8  1  0
  5  9  1  0
  6 10  1  0
  7 11  2  0
  7 12  1  0
  8 13  1  6
  8 14  1  0
 14  9  1  1
 10 15  1  0
 10 16  2  0
 11 17  1  0
 12 18  2  0
 14 19  1  0
 13 20  1  0
 19 20  1  0
 15 21  1  0
 16 22  1  0
 16 23  1  0
 17 24  2  0
 18 24  1  0
 24 25  1  0
 21 26  2  0
 22 26  1  0
 22 27  2  0
 23 28  2  0
 27 28  1  0
M  END
