mac-x0301-diamond-x0592_0_A
     RDKit          3D

 23 25  0  0  0  0  0  0  0  0999 V2000
    0.5320   14.2810   -2.8990 O   0  0  0  0  0  0  0  0  0  0  0  0
   -0.8140   14.3010   -2.9330 C   0  0  0  0  0  0  0  0  0  0  0  0
   -1.4200   14.0730   -3.9900 O   0  0  0  0  0  0  0  0  0  0  0  0
   -1.5030   14.6240   -1.6500 C   0  0  0  0  0  0  0  0  0  0  0  0
   -0.9800   14.5220   -0.3640 C   0  0  0  0  0  0  0  0  0  0  0  0
   -2.8010   15.0650   -1.6060 C   0  0  0  0  0  0  0  0  0  0  0  0
   -3.7650   15.2920   -2.4260 N   0  0  0  0  0  0  0  0  0  0  0  0
   -1.7160   14.8600    0.7880 C   0  0  0  0  0  0  0  0  0  0  0  0
   -3.5030   15.4090   -0.4330 C   0  0  0  0  0  0  0  0  0  0  0  0
    0.2390   14.1010   -0.0390 O   0  0  0  0  0  0  0  0  0  0  0  0
   -4.5200   15.0400   -1.4040 C   0  0  0  0  0  0  0  0  0  0  0  0
   -2.9670   15.3150    0.7920 C   0  0  0  0  0  0  0  0  0  0  0  0
   -1.0750   14.6910    1.9200 O   0  0  0  0  0  0  0  0  0  0  0  0
    0.1560   14.3360    1.3870 C   0  0  0  0  0  0  0  0  0  0  0  0
   -3.8220   14.6870   -0.2390 N   0  0  0  0  0  0  0  0  0  0  0  0
   -5.8720   15.0080   -1.0910 C   0  0  0  0  0  0  0  0  0  0  0  0
   -7.0120   15.2670   -1.8190 C   0  0  0  0  0  0  0  0  0  0  0  0
   -6.3230   14.6660    0.1700 C   0  0  0  0  0  0  0  0  0  0  0  0
   -8.1190   15.1130   -1.1010 N   0  0  0  0  0  0  0  0  0  0  0  0
   -7.6720   14.7460    0.1130 N   0  0  0  0  0  0  0  0  0  0  0  0
   -8.5880   14.4820    1.2010 C   0  0  0  0  0  0  0  0  0  0  0  0
   -7.8930   13.9960    2.4690 C   0  0  0  0  0  0  0  0  0  0  0  0
   -7.1020   15.0080    3.0570 O   0  0  0  0  0  0  0  0  0  0  0  0
  1  2  1  0
  2  3  2  0
  2  4  1  0
  4  5  2  0
  4  6  1  0
  6  7  1  0
  5  8  1  0
  6  9  2  0
  5 10  1  0
  7 11  2  3
  8 12  2  0
  9 12  1  0
  8 13  1  0
 10 14  1  0
 13 14  1  0
 11 15  1  0
 11 16  1  0
 16 17  1  0
 16 18  2  0
 17 19  2  0
 18 20  1  0
 19 20  1  0
 20 21  1  0
 21 22  1  0
 22 23  1  0
M  END
