mac-x0394-mac-x0455
     RDKit          3D

 22 23  0  0  0  0  0  0  0  0999 V2000
    1.1120   18.5340   -5.5770 Cl  0  0  0  0  0  0  0  0  0  0  0  0
    0.4110   17.0020   -5.1790 C   0  0  0  0  0  0  0  0  0  0  0  0
   -0.9130   16.8860   -5.4580 C   0  0  0  0  0  0  0  0  0  0  0  0
    1.1920   16.0100   -4.6230 C   0  0  0  0  0  0  0  0  0  0  0  0
    0.6360   14.8470   -4.3420 C   0  0  0  0  0  0  0  0  0  0  0  0
   -1.4870   15.6960   -5.1740 C   0  0  0  0  0  0  0  0  0  0  0  0
   -3.1900   15.5020   -5.5190 Cl  0  0  0  0  0  0  0  0  0  0  0  0
    1.4030   13.7230   -3.7070 C   0  0  0  0  0  0  0  0  0  0  0  0
   -0.7080   14.6800   -4.6230 C   0  0  0  0  0  0  0  0  0  0  0  0
    0.3570   13.1470   -2.6180 S   0  0  0  0  0  0  0  0  0  0  0  0
    0.6090   11.7420   -2.6640 O   0  0  0  0  0  0  0  0  0  0  0  0
    0.2830   14.6170   -2.0170 O   0  0  0  0  0  0  0  0  0  0  0  0
   -1.1530   13.2030   -3.0220 C   0  0  1  0  0  0  0  0  0  0  0  0
    0.7650   13.1120   -0.8650 O   0  0  0  0  0  0  0  0  0  0  0  0
   -2.2290   12.8640   -1.9920 C   0  0  0  0  0  0  0  0  0  0  0  0
   -1.5180   14.5340   -3.3890 O   0  0  0  0  0  0  0  0  0  0  0  0
   -1.3160   12.3660   -4.2340 C   0  0  0  0  0  0  0  0  0  0  0  0
   -2.4800   11.6660   -4.4770 C   0  0  0  0  0  0  0  0  0  0  0  0
   -0.3020   12.2480   -5.1490 C   0  0  0  0  0  0  0  0  0  0  0  0
   -2.5840   10.8800   -5.6070 C   0  0  0  0  0  0  0  0  0  0  0  0
   -0.3960   11.4760   -6.2650 C   0  0  0  0  0  0  0  0  0  0  0  0
   -1.5320   10.7790   -6.5140 C   0  0  0  0  0  0  0  0  0  0  0  0
  1  2  1  0
  2  3  2  0
  2  4  1  0
  4  5  2  0
  3  6  1  0
  6  7  1  0
  5  8  1  0
  5  9  1  0
  6  9  2  0
  8 10  1  0
 10 11  1  0
 10 12  2  0
 10 13  1  0
 10 14  1  0
 13 15  1  1
 13 16  1  0
 13 17  1  0
 17 18  2  0
 17 19  1  0
 18 20  1  0
 19 21  2  0
 20 22  2  0
 21 22  1  0
M  END
