mac-x0375-mac-x0404
     RDKit          3D

 22 24  0  0  0  0  0  0  0  0999 V2000
    1.2510   12.6630   -2.4730 O   0  0  0  0  0  0  0  0  0  0  0  0
    0.8710   11.9010   -3.5370 C   0  0  0  0  0  0  0  0  0  0  0  0
    0.3490   10.8120   -3.3620 O   0  0  0  0  0  0  0  0  0  0  0  0
    1.2030   12.5700   -4.8920 C   0  0  1  0  0  0  0  0  0  0  0  0
    0.3400   12.2400   -6.0020 O   0  0  0  0  0  0  0  0  0  0  0  0
    1.1300   13.9820   -4.5610 O   0  0  0  0  0  0  0  0  0  0  0  0
   -0.5210   11.1580   -5.9890 C   0  0  0  0  0  0  0  0  0  0  0  0
   -0.1140   14.5240   -4.7890 C   0  0  0  0  0  0  0  0  0  0  0  0
   -0.2610   10.0120   -6.7460 C   0  0  0  0  0  0  0  0  0  0  0  0
   -1.6800   11.2280   -5.2170 C   0  0  0  0  0  0  0  0  0  0  0  0
   -0.2150   15.8970   -5.0640 C   0  0  0  0  0  0  0  0  0  0  0  0
   -1.2480   13.7230   -4.7500 C   0  0  0  0  0  0  0  0  0  0  0  0
   -1.1630    8.9450   -6.7260 C   0  0  0  0  0  0  0  0  0  0  0  0
   -2.5780   10.1610   -5.2010 C   0  0  0  0  0  0  0  0  0  0  0  0
   -1.4870   16.4560   -5.3030 C   0  0  0  0  0  0  0  0  0  0  0  0
   -2.5030   14.2780   -4.9860 C   0  0  0  0  0  0  0  0  0  0  0  0
    0.9060   16.7210   -5.1090 C   0  0  0  0  0  0  0  0  0  0  0  0
   -2.3210    9.0200   -5.9540 C   0  0  0  0  0  0  0  0  0  0  0  0
   -2.6190   15.6390   -5.2600 C   0  0  0  0  0  0  0  0  0  0  0  0
   -1.5900   17.8220   -5.5840 C   0  0  0  0  0  0  0  0  0  0  0  0
    0.7970   18.0790   -5.3880 C   0  0  0  0  0  0  0  0  0  0  0  0
   -0.4610   18.6230   -5.6280 C   0  0  0  0  0  0  0  0  0  0  0  0
  1  2  1  0
  2  3  2  0
  2  4  1  0
  4  5  1  6
  4  6  1  0
  5  7  1  0
  6  8  1  0
  7  9  2  0
  7 10  1  0
  8 11  1  0
  8 12  2  0
  9 13  1  0
 10 14  2  0
 11 15  2  0
 12 16  1  0
 11 17  1  0
 13 18  2  0
 14 18  1  0
 15 19  1  0
 16 19  2  0
 15 20  1  0
 17 21  2  0
 20 22  2  0
 21 22  1  0
M  END
