mac-x1493-diamond-x0722_0_A
     RDKit          3D

 24 26  0  0  0  0  0  0  0  0999 V2000
   -1.9750   14.3920   -1.6780 O   0  0  0  0  0  0  0  0  0  0  0  0
   -2.5980   14.6240   -2.8600 C   0  0  0  0  0  0  0  0  0  0  0  0
   -1.5370   15.0550   -3.2830 O   0  0  0  0  0  0  0  0  0  0  0  0
   -2.5060   14.7410   -0.4890 C   0  0  0  0  0  0  0  0  0  0  0  0
   -3.6580   14.0450   -2.0050 C   0  0  0  0  0  0  0  0  0  0  0  0
   -3.7290   15.3000   -0.0200 C   0  0  0  0  0  0  0  0  0  0  0  0
   -1.7320   14.5440    0.6350 N   0  0  0  0  0  0  0  0  0  0  0  0
   -0.3900   14.0160    0.7330 C   0  0  0  0  0  0  0  0  0  0  0  0
   -4.9700   15.7510   -0.7760 C   0  0  0  0  0  0  0  0  0  0  0  0
   -3.5510   13.7480   -0.6410 C   0  0  0  0  0  0  0  0  0  0  0  0
   -4.8700   13.7860   -2.6200 C   0  0  0  0  0  0  0  0  0  0  0  0
   -2.3290   14.8940    1.7580 N   0  0  0  0  0  0  0  0  0  0  0  0
   -3.5190   15.3460    1.3860 C   0  0  0  0  0  0  0  0  0  0  0  0
   -4.3990   15.8100    2.4520 C   0  0  0  0  0  0  0  0  0  0  0  0
   -6.2900   15.1190   -0.3380 C   0  0  0  0  0  0  0  0  0  0  0  0
   -4.6580   13.2330    0.0510 C   0  0  0  0  0  0  0  0  0  0  0  0
   -5.9580   13.2750   -1.9900 N   0  0  0  0  0  0  0  0  0  0  0  0
   -7.2580   14.9880   -1.0840 O   0  0  0  0  0  0  0  0  0  0  0  0
   -6.3830   14.7080    0.9640 N   0  0  0  0  0  0  0  0  0  0  0  0
   -5.8540   13.0110   -0.6730 C   0  0  0  0  0  0  0  0  0  0  0  0
   -4.6000   12.9480    1.4260 C   0  0  0  0  0  0  0  0  0  0  0  0
   -6.9480   12.5100    0.0160 C   0  0  0  0  0  0  0  0  0  0  0  0
   -5.7150   12.4500    2.0890 C   0  0  0  0  0  0  0  0  0  0  0  0
   -6.8920   12.2290    1.3830 C   0  0  0  0  0  0  0  0  0  0  0  0
  1  2  1  0
  2  3  2  0
  1  4  1  0
  2  5  1  0
  4  6  2  0
  4  7  1  0
  7  8  1  0
  6  9  1  0
  5 10  2  0
  5 11  1  0
  7 12  1  0
  6 13  1  0
 12 13  2  0
 13 14  1  0
  9 15  1  0
 10 16  1  0
 11 17  2  0
 15 18  2  0
 15 19  1  0
 16 20  2  0
 17 20  1  0
 16 21  1  0
 20 22  1  0
 21 23  2  0
 22 24  2  0
 23 24  1  0
M  END
