mac-x0231-mac-x0271
     RDKit          3D

 27 30  0  0  0  0  0  0  0  0999 V2000
    0.4220   10.8000   -3.1780 O   0  0  0  0  0  0  0  0  0  0  0  0
    1.1710   11.9150   -3.1450 C   0  0  0  0  0  0  0  0  0  0  0  0
    1.4760   12.4050   -2.0730 O   0  0  0  0  0  0  0  0  0  0  0  0
    1.5570   12.5020   -4.4730 C   0  0  0  0  0  0  0  0  0  0  0  0
    1.1210   13.9290   -4.5150 C   0  0  0  0  0  0  0  0  0  0  0  0
   -0.3090   14.2110   -4.3840 C   0  0  0  0  0  0  0  0  0  0  0  0
    2.0170   14.8450   -4.5830 N   0  0  0  0  0  0  0  0  0  0  0  0
   -0.6980   15.5420   -4.4050 C   0  0  0  0  0  0  0  0  0  0  0  0
    1.6150   16.1410   -4.5700 N   0  0  0  0  0  0  0  0  0  0  0  0
   -1.2530   13.2010   -4.2140 C   0  0  0  0  0  0  0  0  0  0  0  0
    0.3240   16.5810   -4.6020 C   0  0  0  0  0  0  0  0  0  0  0  0
   -2.0360   15.8760   -4.2170 C   0  0  0  0  0  0  0  0  0  0  0  0
   -2.5870   13.5320   -4.0210 C   0  0  0  0  0  0  0  0  0  0  0  0
    0.0240   17.7580   -4.7760 O   0  0  0  0  0  0  0  0  0  0  0  0
   -2.9660   14.8720   -4.0020 C   0  0  0  0  0  0  0  0  0  0  0  0
   -4.2520   15.2610   -3.7490 O   0  0  0  0  0  0  0  0  0  0  0  0
   -4.7000   15.1580   -2.4120 C   0  0  0  0  0  0  0  0  0  0  0  0
   -6.0570   15.0620   -2.1120 C   0  0  0  0  0  0  0  0  0  0  0  0
   -3.7670   15.1500   -1.3460 C   0  0  0  0  0  0  0  0  0  0  0  0
   -6.4710   14.9480   -0.7870 C   0  0  0  0  0  0  0  0  0  0  0  0
   -4.2040   15.0350   -0.0070 C   0  0  0  0  0  0  0  0  0  0  0  0
   -5.5730   14.9270    0.2780 C   0  0  0  0  0  0  0  0  0  0  0  0
   -7.8610   14.8500   -0.5660 O   0  0  0  0  0  0  0  0  0  0  0  0
   -6.1040   14.7890    1.6310 C   0  0  0  0  0  0  0  0  0  0  0  0
   -8.3980   14.8410    0.7120 C   0  0  0  0  0  0  0  0  0  0  0  0
   -9.6070   14.9180    0.9180 O   0  0  0  0  0  0  0  0  0  0  0  0
   -7.4360   14.7430    1.8280 C   0  0  0  0  0  0  0  0  0  0  0  0
  1  2  1  0
  2  3  2  0
  2  4  1  0
  4  5  1  0
  5  6  1  0
  5  7  2  0
  6  8  2  0
  7  9  1  0
  6 10  1  0
  8 11  1  0
  9 11  1  0
  8 12  1  0
 10 13  2  0
 11 14  2  0
 12 15  2  0
 13 15  1  0
 15 16  1  0
 16 17  1  0
 17 18  2  0
 17 19  1  0
 18 20  1  0
 19 21  2  0
 20 22  2  0
 21 22  1  0
 20 23  1  0
 22 24  1  0
 23 25  1  0
 25 26  2  0
 24 27  2  0
 25 27  1  0
M  END
