mac-x0284-mac-x0396
     RDKit          3D

 19 20  0  0  0  0  0  0  0  0999 V2000
   -4.0140   15.0800    0.3000 C   0  0  2  0  0  0  0  0  0  0  0  0
   -3.6570   16.2070    1.0970 N   0  0  0  0  0  0  0  0  0  0  0  0
   -3.4260   14.0170    1.0000 O   0  0  0  0  0  0  0  0  0  0  0  0
   -3.3920   15.0450   -1.0670 C   0  0  0  0  0  0  0  0  0  0  0  0
   -5.5010   14.8890    0.2110 C   0  0  0  0  0  0  0  0  0  0  0  0
   -2.0270   14.7350   -1.1620 C   0  0  0  0  0  0  0  0  0  0  0  0
   -4.1120   15.2970   -2.2380 C   0  0  0  0  0  0  0  0  0  0  0  0
   -6.1770   14.9090   -1.0080 C   0  0  0  0  0  0  0  0  0  0  0  0
   -6.2810   14.6810    1.3440 C   0  0  0  0  0  0  0  0  0  0  0  0
   -1.3970   14.6760   -2.4030 C   0  0  0  0  0  0  0  0  0  0  0  0
   -3.4920   15.2330   -3.4740 C   0  0  0  0  0  0  0  0  0  0  0  0
   -7.5100   14.7380   -1.1470 N   0  0  0  0  0  0  0  0  0  0  0  0
   -7.6460   14.5030    1.2390 C   0  0  0  0  0  0  0  0  0  0  0  0
    0.0450   14.3510   -2.4020 C   0  0  0  0  0  0  0  0  0  0  0  0
   -2.1420   14.9220   -3.5590 C   0  0  0  0  0  0  0  0  0  0  0  0
   -8.2130   14.5400   -0.0180 C   0  0  0  0  0  0  0  0  0  0  0  0
   -1.6270   14.8820   -4.8210 O   0  0  0  0  0  0  0  0  0  0  0  0
    0.7910   14.4000   -1.4450 O   0  0  0  0  0  0  0  0  0  0  0  0
    0.4900   13.9790   -3.6100 O   0  0  0  0  0  0  0  0  0  0  0  0
  1  2  1  1
  1  3  1  0
  1  4  1  0
  1  5  1  0
  4  6  2  0
  4  7  1  0
  5  8  2  0
  5  9  1  0
  6 10  1  0
  7 11  2  0
  8 12  1  0
  9 13  2  0
 10 14  1  0
 10 15  2  0
 11 15  1  0
 12 16  2  0
 13 16  1  0
 15 17  1  0
 14 18  2  0
 14 19  1  0
M  END
