mac-x0394-mac-x0576
     RDKit          3D

 25 27  0  0  0  0  0  0  0  0999 V2000
    1.2390   18.0610   -6.1270 Cl  0  0  0  0  0  0  0  0  0  0  0  0
    0.5450   16.7770   -5.2500 C   0  0  0  0  0  0  0  0  0  0  0  0
   -0.7910   16.8700   -5.1760 C   0  0  0  0  0  0  0  0  0  0  0  0
    1.2500   15.7050   -4.6420 C   0  0  0  0  0  0  0  0  0  0  0  0
    0.5760   14.7080   -3.8800 C   0  0  0  0  0  0  0  0  0  0  0  0
   -1.4300   15.9360   -4.4580 C   0  0  0  0  0  0  0  0  0  0  0  0
   -3.1310   16.0270   -4.3690 Cl  0  0  0  0  0  0  0  0  0  0  0  0
    1.4240   13.6040   -3.2590 C   0  0  0  0  0  0  0  0  0  0  0  0
   -0.8290   14.8990   -3.7750 C   0  0  0  0  0  0  0  0  0  0  0  0
    0.7190   12.4780   -2.5420 C   0  0  0  0  0  0  0  0  0  0  0  0
   -1.9140   14.3400   -3.1040 N   0  0  0  0  0  0  0  0  0  0  0  0
    0.3590   11.4170   -3.3030 O   0  0  0  0  0  0  0  0  0  0  0  0
    0.5040   12.5190   -1.3410 O   0  0  0  0  0  0  0  0  0  0  0  0
   -2.0020   14.5640   -1.7800 C   0  0  0  0  0  0  0  0  0  0  0  0
   -0.8990   15.0160   -1.0820 N   0  0  0  0  0  0  0  0  0  0  0  0
   -3.2510   14.4830   -0.8940 C   0  0  2  0  0  0  0  0  0  0  0  0
   -0.7550   14.5340    0.2740 C   0  0  1  0  0  0  0  0  0  0  0  0
   -3.0390   14.1210    0.5820 C   0  0  1  0  0  0  0  0  0  0  0  0
   -4.5040   13.9930   -1.4210 N   0  0  0  0  0  0  0  0  0  0  0  0
    0.2670   15.1240    1.0580 N   0  0  0  0  0  0  0  0  0  0  0  0
   -1.8570   14.6960    1.1830 N   0  0  0  0  0  0  0  0  0  0  0  0
   -4.1420   14.6590    1.3420 N   0  0  0  0  0  0  0  0  0  0  0  0
   -5.5080   14.8530   -0.7690 C   0  0  0  0  0  0  0  0  0  0  0  0
   -5.3920   14.8220    0.7610 C   0  0  0  0  0  0  0  0  0  0  0  0
   -6.3900   14.9250    1.4670 O   0  0  0  0  0  0  0  0  0  0  0  0
  1  2  1  0
  2  3  2  0
  2  4  1  0
  4  5  2  0
  3  6  1  0
  6  7  1  0
  5  8  1  0
  5  9  1  0
  6  9  2  0
  8 10  1  0
  9 11  1  0
 10 12  1  0
 10 13  2  0
 11 14  2  3
 14 15  1  0
 14 16  1  0
 15 17  1  0
 16 18  1  0
 16 19  1  6
 17 20  1  1
 17 21  1  0
 18 21  1  1
 18 22  1  0
 19 23  1  0
 22 24  1  0
 23 24  1  0
 24 25  2  0
M  END
