mac-x0161-mac-x0392
     RDKit          3D

 21 23  0  0  0  0  0  0  0  0999 V2000
   -4.7050   15.0210    1.0360 N   0  0  0  0  0  0  0  0  0  0  0  0
   -3.5100   15.4110    0.3050 C   0  0  1  0  0  0  0  0  0  0  0  0
   -2.3030   14.4420    0.5260 C   0  0  1  0  0  0  0  0  0  0  0  0
   -3.9690   15.5230   -1.0620 N   0  0  0  0  0  0  0  0  0  0  0  0
   -3.2170   14.7210   -2.0380 C   0  0  0  0  0  0  0  0  0  0  0  0
   -1.2920   14.4360   -0.6570 C   0  0  1  0  0  0  0  0  0  0  0  0
   -1.4420   14.8740    1.6400 N   0  0  0  0  0  0  0  0  0  0  0  0
   -0.6150   13.1930   -0.7610 N   0  0  0  0  0  0  0  0  0  0  0  0
   -1.7890   14.9310   -1.9020 N   0  0  0  0  0  0  0  0  0  0  0  0
   -0.1890   15.2090   -0.1810 N   0  0  0  0  0  0  0  0  0  0  0  0
   -0.1060   14.6590    1.1430 C   0  0  0  0  0  0  0  0  0  0  0  0
   -1.0060   14.8050   -3.1010 C   0  0  0  0  0  0  0  0  0  0  0  0
   -1.5770   15.4800   -4.1830 O   0  0  0  0  0  0  0  0  0  0  0  0
    0.2940   15.3120   -2.9410 O   0  0  0  0  0  0  0  0  0  0  0  0
   -0.7660   13.3960   -3.5290 C   0  0  0  0  0  0  0  0  0  0  0  0
   -1.2260   12.6060   -4.5560 C   0  0  0  0  0  0  0  0  0  0  0  0
    0.1070   12.6720   -2.7700 O   0  0  0  0  0  0  0  0  0  0  0  0
    0.2290   11.3950   -3.2910 N   0  0  0  0  0  0  0  0  0  0  0  0
   -0.5770   11.3810   -4.3540 C   0  0  0  0  0  0  0  0  0  0  0  0
   -0.7180   10.2820   -5.1250 O   0  0  0  0  0  0  0  0  0  0  0  0
   -1.8030   10.3530   -6.0430 C   0  0  0  0  0  0  0  0  0  0  0  0
  2  1  1  1
  2  3  1  0
  2  4  1  0
  4  5  1  0
  3  6  1  0
  3  7  1  1
  6  8  1  6
  5  9  1  0
  6  9  1  0
  6 10  1  0
  7 11  1  0
 10 11  1  0
  9 12  1  0
 12 13  1  0
 12 14  1  0
 12 15  1  0
 15 16  2  0
 15 17  1  0
 17 18  1  0
 16 19  1  0
 18 19  2  0
 19 20  1  0
 20 21  1  0
M  END
