mac-x0568-mac-x0381
     RDKit          3D

 25 27  0  0  0  0  0  0  0  0999 V2000
   -8.6620   14.4530    0.6670 C   0  0  0  0  0  0  0  0  0  0  0  0
   -7.2360   14.6010    0.2350 C   0  0  0  0  0  0  0  0  0  0  0  0
   -6.1490   14.3790    1.0800 C   0  0  0  0  0  0  0  0  0  0  0  0
   -7.0760   14.9670   -1.0480 N   0  0  0  0  0  0  0  0  0  0  0  0
   -6.3000   13.9710    2.4890 C   0  0  0  0  0  0  0  0  0  0  0  0
   -5.8150   15.1150   -1.5050 C   0  0  0  0  0  0  0  0  0  0  0  0
   -4.8590   14.5400    0.5840 C   0  0  0  0  0  0  0  0  0  0  0  0
   -7.7260   13.6430    2.9060 C   0  0  0  0  0  0  0  0  0  0  0  0
   -4.6830   14.9120   -0.7340 C   0  0  0  0  0  0  0  0  0  0  0  0
   -3.3660   15.0900   -1.3550 C   0  0  0  0  0  0  0  0  0  0  0  0
   -8.3290   14.5040    4.0270 C   0  0  0  0  0  0  0  0  0  0  0  0
   -3.2660   15.4200   -2.5270 O   0  0  0  0  0  0  0  0  0  0  0  0
   -2.2590   14.8510   -0.5800 N   0  0  0  0  0  0  0  0  0  0  0  0
   -8.4170   13.7150    5.2150 N   0  0  0  0  0  0  0  0  0  0  0  0
   -7.4050   15.5000    4.4900 N   0  0  0  0  0  0  0  0  0  0  0  0
   -9.6450   15.1140    3.5490 C   0  0  0  0  0  0  0  0  0  0  0  0
   -9.6890   15.9380    2.4070 C   0  0  0  0  0  0  0  0  0  0  0  0
  -10.8490   14.8720    4.2220 C   0  0  0  0  0  0  0  0  0  0  0  0
  -10.8810   16.5020    1.9350 C   0  0  0  0  0  0  0  0  0  0  0  0
  -12.0460   15.4260    3.7700 C   0  0  0  0  0  0  0  0  0  0  0  0
  -12.0800   16.2380    2.6310 C   0  0  0  0  0  0  0  0  0  0  0  0
  -10.9140   17.3180    0.7920 C   0  0  0  0  0  0  0  0  0  0  0  0
  -13.2800   16.7900    2.1670 C   0  0  0  0  0  0  0  0  0  0  0  0
  -12.1150   17.8610    0.3450 C   0  0  0  0  0  0  0  0  0  0  0  0
  -13.3010   17.5980    1.0300 C   0  0  0  0  0  0  0  0  0  0  0  0
  1  2  1  0
  2  3  2  0
  2  4  1  0
  3  5  1  0
  4  6  2  0
  3  7  1  0
  5  8  1  0
  6  9  1  0
  7  9  2  0
  9 10  1  0
  8 11  1  0
 10 12  2  0
 10 13  1  0
 11 14  1  0
 11 15  1  0
 11 16  1  0
 16 17  2  0
 16 18  1  0
 17 19  1  0
 18 20  2  0
 19 21  2  0
 20 21  1  0
 19 22  1  0
 21 23  1  0
 22 24  2  0
 23 25  2  0
 24 25  1  0
M  END
