mac-x0305-diamond-x0837_0_A
     RDKit          3D

 17 18  0  0  0  0  0  0  0  0999 V2000
    0.4130   13.0840   -0.8350 O   0  0  0  0  0  0  0  0  0  0  0  0
   -0.4870   13.8280   -1.5240 C   0  0  0  0  0  0  0  0  0  0  0  0
   -0.2040   14.3390   -2.6030 O   0  0  0  0  0  0  0  0  0  0  0  0
   -1.8140   13.9160   -0.7940 C   0  0  1  0  0  0  0  0  0  0  0  0
   -1.6130   14.5280    0.6410 C   0  0  1  0  0  0  0  0  0  0  0  0
   -3.0250   14.4240   -1.5590 N   0  0  0  0  0  0  0  0  0  0  0  0
   -0.4660   15.3510    0.7860 O   0  0  0  0  0  0  0  0  0  0  0  0
   -2.7810   15.3940    0.9800 C   0  0  0  0  0  0  0  0  0  0  0  0
   -2.8800   15.8360   -1.4160 C   0  0  0  0  0  0  0  0  0  0  0  0
   -4.2480   14.4880   -0.7170 C   0  0  2  0  0  0  0  0  0  0  0  0
   -3.3930   16.0280   -0.0090 C   0  0  0  0  0  0  0  0  0  0  0  0
   -4.0390   13.7820    0.5980 C   0  0  0  0  0  0  0  0  0  0  0  0
   -5.6900   14.2190   -1.1430 C   0  0  0  0  0  0  0  0  0  0  0  0
   -4.9540   13.9200    1.5320 C   0  0  0  0  0  0  0  0  0  0  0  0
   -6.6290   14.6020   -0.0010 C   0  0  0  0  0  0  0  0  0  0  0  0
   -7.8270   14.8180   -0.1500 O   0  0  0  0  0  0  0  0  0  0  0  0
   -6.0380   14.6800    1.2440 N   0  0  0  0  0  0  0  0  0  0  0  0
  1  2  1  0
  2  3  2  0
  4  2  1  6
  4  5  1  0
  4  6  1  0
  5  7  1  6
  5  8  1  0
  6  9  1  0
 10  6  1  6
  8 11  2  0
  9 11  1  0
 10 12  1  0
 10 13  1  0
 12 14  2  0
 13 15  1  0
 15 16  2  0
 14 17  1  0
 15 17  1  0
M  END
