mac-x0402-mac-x0190
     RDKit          3D

 13 14  0  0  0  0  0  0  0  0999 V2000
   -2.1880   14.9430   -3.3300 Cl  0  0  0  0  0  0  0  0  0  0  0  0
   -3.4120   14.3020   -2.1890 C   0  0  2  0  0  0  0  0  0  0  0  0
   -4.7690   14.9180   -2.4720 C   0  0  0  0  0  0  0  0  0  0  0  0
   -2.9500   14.4630   -0.7340 C   0  0  0  0  0  0  0  0  0  0  0  0
   -4.1200   14.2700    0.2200 C   0  0  2  0  0  0  0  0  0  0  0  0
   -5.6100   15.3520   -1.5070 C   0  0  0  0  0  0  0  0  0  0  0  0
   -5.2440   15.2730   -0.0500 C   0  0  1  0  0  0  0  0  0  0  0  0
   -3.8090   14.4890    1.9950 S   0  0  0  0  0  0  0  0  0  0  0  0
   -5.5610   14.8700    2.2910 C   0  0  1  0  0  0  0  0  0  0  0  0
   -6.2100   14.9230    0.9980 N   0  0  0  0  0  0  0  0  0  0  0  0
   -6.1620   13.9120    3.1550 N   0  0  0  0  0  0  0  0  0  0  0  0
   -7.5990   14.4970    0.8310 C   0  0  0  0  0  0  0  0  0  0  0  0
   -8.4280   14.9080    1.9140 O   0  0  0  0  0  0  0  0  0  0  0  0
  2  1  1  6
  2  3  1  0
  2  4  1  0
  5  4  1  6
  3  6  2  0
  5  7  1  0
  7  6  1  6
  5  8  1  0
  8  9  1  0
  7 10  1  0
  9 10  1  0
  9 11  1  1
 10 12  1  0
 12 13  1  0
M  END
