mac-x0115-mac-x0182
     RDKit          3D

 30 33  0  0  0  0  0  0  0  0999 V2000
   -1.3920   18.6590   -5.1230 C   0  0  0  0  0  0  0  0  0  0  0  0
   -0.3780   17.8440   -5.9010 C   0  0  0  0  0  0  0  0  0  0  0  0
    1.0500   18.2560   -5.6110 C   0  0  0  0  0  0  0  0  0  0  0  0
   -0.4870   16.4740   -5.5300 O   0  0  0  0  0  0  0  0  0  0  0  0
    0.4170   16.0270   -4.5200 C   0  0  0  0  0  0  0  0  0  0  0  0
   -0.2600   14.8190   -3.8650 C   0  0  1  0  0  0  0  0  0  0  0  0
   -0.0930   13.5600   -4.7150 C   0  0  0  0  0  0  0  0  0  0  0  0
   -0.1540   14.7250   -2.3660 N   0  0  0  0  0  0  0  0  0  0  0  0
   -1.1100   12.5360   -4.3790 N   0  0  0  0  0  0  0  0  0  0  0  0
    0.9670   14.2030   -1.6680 C   0  0  0  0  0  0  0  0  0  0  0  0
   -1.3350   14.7820   -1.6750 C   0  0  0  0  0  0  0  0  0  0  0  0
    2.5350   13.9770   -2.2290 S   0  0  0  0  0  0  0  0  0  0  0  0
    0.7600   13.8230   -0.3470 N   0  0  0  0  0  0  0  0  0  0  0  0
   -1.3150   14.9130   -0.1930 C   0  0  2  0  0  0  0  0  0  0  0  0
   -2.5870   14.7540   -2.1430 C   0  0  0  0  0  0  0  0  0  0  0  0
   -0.5080   11.1610   -4.3860 S   0  0  2  0  0  0  0  0  0  0  0  0
   -0.0390   10.3550   -3.2880 O   0  0  0  0  0  0  0  0  0  0  0  0
   -0.3430   14.0380    0.4500 C   0  0  0  0  0  0  0  0  0  0  0  0
   -2.7410   14.9090    0.2200 N   0  0  0  0  0  0  0  0  0  0  0  0
   -3.3730   14.8400   -0.9200 C   0  0  0  0  0  0  0  0  0  0  0  0
    0.8710   11.6620   -5.1720 N   0  0  0  0  0  0  0  0  0  0  0  0
   -1.0910   10.1750   -5.6880 C   0  0  0  0  0  0  0  0  0  0  0  0
   -0.4500   13.5950    1.5720 O   0  0  0  0  0  0  0  0  0  0  0  0
    0.8080   11.3430   -6.4900 C   0  0  0  0  0  0  0  0  0  0  0  0
   -0.2660   10.3840   -6.7800 C   0  0  0  0  0  0  0  0  0  0  0  0
   -2.1640    9.3110   -5.7140 C   0  0  0  0  0  0  0  0  0  0  0  0
    1.5630   11.7550   -7.3060 O   0  0  0  0  0  0  0  0  0  0  0  0
   -2.3990    8.6360   -6.9150 C   0  0  0  0  0  0  0  0  0  0  0  0
   -0.4870    9.7230   -7.9730 C   0  0  0  0  0  0  0  0  0  0  0  0
   -1.5670    8.8420   -8.0360 C   0  0  0  0  0  0  0  0  0  0  0  0
  1  2  1  0
  2  3  1  0
  2  4  1  0
  4  5  1  0
  6  5  1  6
  6  7  1  0
  6  8  1  0
  7  9  1  0
  8 10  1  0
  8 11  1  0
 10 12  2  0
 10 13  1  0
 11 14  1  0
 11 15  2  0
  9 16  2  0
 16 17  2  0
 13 18  1  0
 14 18  1  0
 14 19  1  1
 15 20  1  0
 19 20  2  0
 16 21  1  6
 16 22  1  0
 18 23  2  0
 21 24  1  0
 22 25  2  0
 24 25  1  0
 22 26  1  0
 24 27  2  0
 26 28  2  0
 25 29  1  0
 28 30  1  0
 29 30  2  0
M  END
