mac-x0226-diamond-x0926_0_A
     RDKit          3D

 24 26  0  0  0  0  0  0  0  0999 V2000
    1.1110   12.5750   -1.9890 O   0  0  0  0  0  0  0  0  0  0  0  0
    0.2020   11.7540   -2.6930 C   0  0  0  0  0  0  0  0  0  0  0  0
    0.4200   10.4180   -2.2510 O   0  0  0  0  0  0  0  0  0  0  0  0
   -1.2740   12.1030   -2.3940 C   0  0  0  0  0  0  0  0  0  0  0  0
    0.4680   11.7790   -4.1670 C   0  0  0  0  0  0  0  0  0  0  0  0
   -1.5820   13.3740   -1.5800 C   0  0  0  0  0  0  0  0  0  0  0  0
    1.3660   12.5710   -4.9250 C   0  0  0  0  0  0  0  0  0  0  0  0
   -0.1400   10.9900   -5.1160 C   0  0  0  0  0  0  0  0  0  0  0  0
   -2.4770   14.4220   -2.2640 C   0  0  0  0  0  0  0  0  0  0  0  0
    1.3180   12.2930   -6.2310 N   0  0  0  0  0  0  0  0  0  0  0  0
    0.3800   11.3070   -6.3400 N   0  0  0  0  0  0  0  0  0  0  0  0
    0.0230   10.7150   -7.5810 C   0  0  0  0  0  0  0  0  0  0  0  0
   -3.2170   15.2710   -1.3080 N   0  0  0  0  0  0  0  0  0  0  0  0
   -1.1100    9.9080   -7.6970 C   0  0  0  0  0  0  0  0  0  0  0  0
    0.8020   10.9280   -8.7070 C   0  0  0  0  0  0  0  0  0  0  0  0
   -2.7270   15.4580   -0.0300 C   0  0  0  0  0  0  0  0  0  0  0  0
   -4.6230   15.2820   -1.4740 N   0  0  0  0  0  0  0  0  0  0  0  0
   -1.4340    9.3390   -8.9330 C   0  0  0  0  0  0  0  0  0  0  0  0
    0.4920   10.3700   -9.9360 C   0  0  0  0  0  0  0  0  0  0  0  0
   -3.4580   15.2930    1.0670 C   0  0  0  0  0  0  0  0  0  0  0  0
   -5.4870   15.0870   -0.4210 C   0  0  0  0  0  0  0  0  0  0  0  0
   -6.7060   15.0610   -0.6060 O   0  0  0  0  0  0  0  0  0  0  0  0
   -0.6350    9.5700  -10.0510 C   0  0  0  0  0  0  0  0  0  0  0  0
   -4.8860   14.8940    0.9680 C   0  0  0  0  0  0  0  0  0  0  0  0
  2  1  1  0
  2  3  1  0
  2  4  1  0
  2  5  1  0
  4  6  1  0
  5  7  1  0
  5  8  2  0
  6  9  1  0
  7 10  2  0
  8 11  1  0
 10 11  1  0
 11 12  1  0
  9 13  1  0
 12 14  2  0
 12 15  1  0
 13 16  1  0
 13 17  1  0
 14 18  1  0
 15 19  2  0
 16 20  2  0
 17 21  1  0
 21 22  2  0
 18 23  2  0
 19 23  1  0
 20 24  1  0
 21 24  1  0
M  END
