mac-x0398-mac-x0354
     RDKit          3D

 29 31  0  0  0  0  0  0  0  0999 V2000
   -6.3580   14.8520    2.0890 N   0  0  0  0  0  0  0  0  0  0  0  0
   -5.6040   14.9300    0.9150 C   0  0  0  0  0  0  0  0  0  0  0  0
   -4.2100   14.9060    0.9710 C   0  0  0  0  0  0  0  0  0  0  0  0
   -6.2390   15.0340   -0.3240 C   0  0  0  0  0  0  0  0  0  0  0  0
   -5.4890   15.1080   -1.4930 C   0  0  0  0  0  0  0  0  0  0  0  0
   -3.4530   14.9780   -0.1980 C   0  0  0  0  0  0  0  0  0  0  0  0
   -6.1250   15.2070   -2.6970 O   0  0  0  0  0  0  0  0  0  0  0  0
   -4.0940   15.0770   -1.4330 C   0  0  0  0  0  0  0  0  0  0  0  0
   -3.2540   15.1430   -2.6460 C   0  0  0  0  0  0  0  0  0  0  0  0
   -3.6830   15.2600   -3.7820 O   0  0  0  0  0  0  0  0  0  0  0  0
   -1.9610   15.0510   -2.2450 O   0  0  0  0  0  0  0  0  0  0  0  0
   -0.9800   14.5700   -3.1800 C   0  0  0  0  0  0  0  0  0  0  0  0
    0.4060   15.0210   -2.6820 C   0  0  0  0  0  0  0  0  0  0  0  0
    1.4510   13.8980   -2.7110 C   0  0  0  0  0  0  0  0  0  0  0  0
    0.8570   12.5990   -2.3680 N   0  0  0  0  0  0  0  0  0  0  0  0
    0.6310   11.7310   -3.2940 C   0  0  0  0  0  0  0  0  0  0  0  0
    0.0980   10.5580   -2.8860 O   0  0  0  0  0  0  0  0  0  0  0  0
    0.8930   11.8400   -4.7150 C   0  0  0  0  0  0  0  0  0  0  0  0
    1.8650   12.6310   -5.3490 C   0  0  0  0  0  0  0  0  0  0  0  0
    0.2620   11.1770   -5.7750 C   0  0  0  0  0  0  0  0  0  0  0  0
    0.8820   11.5980   -6.8990 N   0  0  0  0  0  0  0  0  0  0  0  0
    1.8630   12.4860   -6.6610 N   0  0  0  0  0  0  0  0  0  0  0  0
   -0.8150   10.2110   -5.8470 C   0  0  0  0  0  0  0  0  0  0  0  0
    0.5680   11.1680   -8.2450 C   0  0  0  0  0  0  0  0  0  0  0  0
   -0.5970    8.9720   -6.4600 C   0  0  0  0  0  0  0  0  0  0  0  0
   -2.0640   10.5170   -5.3150 C   0  0  0  0  0  0  0  0  0  0  0  0
   -1.6310    8.0430   -6.5350 C   0  0  0  0  0  0  0  0  0  0  0  0
   -3.0970    9.5850   -5.3920 C   0  0  0  0  0  0  0  0  0  0  0  0
   -2.8800    8.3490   -6.0020 C   0  0  0  0  0  0  0  0  0  0  0  0
  1  2  1  0
  2  3  2  0
  2  4  1  0
  4  5  2  0
  3  6  1  0
  5  7  1  0
  5  8  1  0
  6  8  2  0
  8  9  1  0
  9 10  2  0
  9 11  1  0
 11 12  1  0
 12 13  1  0
 13 14  1  0
 14 15  1  0
 15 16  2  3
 16 17  1  0
 16 18  1  0
 18 19  1  0
 18 20  2  0
 20 21  1  0
 19 22  2  0
 21 22  1  0
 20 23  1  0
 21 24  1  0
 23 25  2  0
 23 26  1  0
 25 27  1  0
 26 28  2  0
 27 29  2  0
 28 29  1  0
M  END
