mac-x0159-diamond-x0628_0_A
     RDKit          3D

 30 33  0  0  0  0  0  0  0  0999 V2000
   -4.1410   15.4830    1.2640 N   0  0  0  0  0  0  0  0  0  0  0  0
   -3.6480   14.7100    0.1350 C   0  0  2  0  0  0  0  0  0  0  0  0
   -2.1540   14.3500    0.2610 C   0  0  1  0  0  0  0  0  0  0  0  0
   -3.9500   15.5440   -0.9880 N   0  0  0  0  0  0  0  0  0  0  0  0
   -3.3950   15.0310   -2.2300 C   0  0  0  0  0  0  0  0  0  0  0  0
   -1.3580   14.3450   -1.0820 C   0  0  1  0  0  0  0  0  0  0  0  0
   -1.3540   15.2190    1.1350 N   0  0  0  0  0  0  0  0  0  0  0  0
   -1.9480   15.0610   -2.2400 N   0  0  0  0  0  0  0  0  0  0  0  0
   -0.0590   14.8960   -0.6840 N   0  0  0  0  0  0  0  0  0  0  0  0
   -0.0190   14.8600    0.7600 C   0  0  0  0  0  0  0  0  0  0  0  0
   -1.3550   14.7280   -3.5650 C   0  0  2  0  0  0  0  0  0  0  0  0
   -0.3590   13.5840   -3.5300 C   0  0  0  0  0  0  0  0  0  0  0  0
   -0.6840   15.9480   -4.2060 C   0  0  0  0  0  0  0  0  0  0  0  0
    0.2770   13.1650   -4.8710 C   0  0  1  0  0  0  0  0  0  0  0  0
    0.6440   16.3550   -4.1080 C   0  0  0  0  0  0  0  0  0  0  0  0
   -1.4740   16.7710   -4.9970 N   0  0  0  0  0  0  0  0  0  0  0  0
    1.6690   12.7640   -4.4780 C   0  0  0  0  0  0  0  0  0  0  0  0
   -0.7640   17.7640   -5.4770 C   0  0  0  0  0  0  0  0  0  0  0  0
    0.8810   17.7860   -5.0190 S   0  0  0  0  0  0  0  0  0  0  0  0
   -0.4360   11.9930   -5.4110 N   0  0  0  0  0  0  0  0  0  0  0  0
   -1.3010   18.8260   -6.3660 C   0  0  0  0  0  0  0  0  0  0  0  0
    1.4690   12.1070   -3.1420 C   0  0  0  0  0  0  0  0  0  0  0  0
    0.1320   11.2120   -6.3540 N   0  0  0  0  0  0  0  0  0  0  0  0
   -1.6890   11.5210   -5.0790 C   0  0  0  0  0  0  0  0  0  0  0  0
    0.8040   11.1050   -2.9210 O   0  0  0  0  0  0  0  0  0  0  0  0
    2.0690   12.7480   -2.1330 O   0  0  0  0  0  0  0  0  0  0  0  0
   -2.6020   12.1250   -4.0840 C   0  0  0  0  0  0  0  0  0  0  0  0
   -1.9380   10.4430   -5.7910 N   0  0  0  0  0  0  0  0  0  0  0  0
   -0.8110   10.2840   -6.5490 C   0  0  0  0  0  0  0  0  0  0  0  0
   -0.6570    9.1720   -7.5030 C   0  0  0  0  0  0  0  0  0  0  0  0
  2  1  1  1
  2  3  1  0
  2  4  1  0
  4  5  1  0
  3  6  1  0
  3  7  1  1
  5  8  1  0
  6  8  1  0
  6  9  1  1
  7 10  1  0
  9 10  1  0
  8 11  1  0
 11 12  1  1
 11 13  1  0
 14 12  1  1
 13 15  2  0
 13 16  1  0
 14 17  1  0
 16 18  2  0
 15 19  1  0
 18 19  1  0
 14 20  1  0
 18 21  1  0
 17 22  1  0
 20 23  1  0
 20 24  1  0
 22 25  2  0
 22 26  1  0
 24 27  1  0
 24 28  2  0
 23 29  2  0
 28 29  1  0
 29 30  1  0
M  END
