mac-x0328-mac-x0373
     RDKit          3D

 18 19  0  0  0  0  0  0  0  0999 V2000
   -1.6670   15.5030   -3.6830 O   0  0  0  0  0  0  0  0  0  0  0  0
   -1.8200   14.4460   -2.7080 C   0  0  1  0  0  0  0  0  0  0  0  0
   -0.5170   14.4500   -1.8420 C   0  0  0  0  0  0  0  0  0  0  0  0
   -3.1780   14.7170   -2.0140 C   0  0  0  0  0  0  0  0  0  0  0  0
   -1.9010   13.1490   -3.5170 C   0  0  0  0  0  0  0  0  0  0  0  0
   -0.3010   13.3800   -1.0420 O   0  0  0  0  0  0  0  0  0  0  0  0
    0.3280   15.3410   -1.8520 O   0  0  0  0  0  0  0  0  0  0  0  0
   -3.3930   14.7630   -0.6230 C   0  0  0  0  0  0  0  0  0  0  0  0
   -4.3030   14.9240   -2.8460 C   0  0  0  0  0  0  0  0  0  0  0  0
   -1.1540   12.9580   -4.7000 C   0  0  0  0  0  0  0  0  0  0  0  0
   -2.7400   12.1090   -3.0900 C   0  0  0  0  0  0  0  0  0  0  0  0
   -4.6750   14.9950   -0.0960 C   0  0  0  0  0  0  0  0  0  0  0  0
   -5.5760   15.1530   -2.3250 C   0  0  0  0  0  0  0  0  0  0  0  0
   -1.2510   11.7650   -5.4230 C   0  0  0  0  0  0  0  0  0  0  0  0
   -2.8370   10.9190   -3.8120 C   0  0  0  0  0  0  0  0  0  0  0  0
   -5.7540   15.1830   -0.9560 C   0  0  0  0  0  0  0  0  0  0  0  0
   -2.0930   10.7500   -4.9760 C   0  0  0  0  0  0  0  0  0  0  0  0
   -6.9900   15.3950   -0.4260 O   0  0  0  0  0  0  0  0  0  0  0  0
  2  1  1  6
  2  3  1  0
  2  4  1  0
  2  5  1  0
  3  6  1  0
  3  7  2  0
  4  8  2  0
  4  9  1  0
  5 10  2  0
  5 11  1  0
  8 12  1  0
  9 13  2  0
 10 14  1  0
 11 15  2  0
 12 16  2  0
 13 16  1  0
 14 17  2  0
 15 17  1  0
 16 18  1  0
M  END
