mac-x0333-mac-x0510
     RDKit          3D

 15 17  0  0  0  0  0  0  0  0999 V2000
   -2.3480   15.4000   -2.7040 O   0  0  0  0  0  0  0  0  0  0  0  0
   -3.1520   14.6170   -1.8090 C   0  0  1  0  0  0  0  0  0  0  0  0
   -2.8300   15.0210   -0.3310 C   0  0  2  0  0  0  0  0  0  0  0  0
   -4.6140   14.7590   -2.2490 C   0  0  0  0  0  0  0  0  0  0  0  0
   -5.5110   14.3820   -1.1060 C   0  0  1  0  0  0  0  0  0  0  0  0
   -4.0520   15.5660    0.4700 C   0  0  0  0  0  0  0  0  0  0  0  0
   -1.6770   15.9850   -0.3160 N   0  0  0  0  0  0  0  0  0  0  0  0
   -2.2890   13.8800    0.5180 C   0  0  0  0  0  0  0  0  0  0  0  0
   -3.9210   16.0930    1.5570 O   0  0  0  0  0  0  0  0  0  0  0  0
   -5.4560   15.4210   -0.0650 C   0  0  2  0  0  0  0  0  0  0  0  0
   -6.9080   14.3520   -1.3900 O   0  0  0  0  0  0  0  0  0  0  0  0
   -1.2780   14.5150    1.3720 N   0  0  0  0  0  0  0  0  0  0  0  0
   -0.5930   15.3440    0.4230 C   0  0  0  0  0  0  0  0  0  0  0  0
   -6.4690   14.9610    0.8140 O   0  0  0  0  0  0  0  0  0  0  0  0
   -7.4900   14.5460   -0.0890 C   0  0  0  0  0  0  0  0  0  0  0  0
  2  1  1  6
  2  3  1  0
  2  4  1  0
  5  4  1  6
  3  6  1  0
  3  7  1  0
  3  8  1  1
  6  9  2  0
  5 10  1  0
  6 10  1  0
  5 11  1  0
  8 12  1  0
  7 13  1  0
 12 13  1  0
 10 14  1  1
 11 15  1  0
 14 15  1  0
M  END
