mac-x0394-diamond-x0471_0_A
     RDKit          3D

 30 32  0  0  0  0  0  0  0  0999 V2000
    1.0410   18.3310   -5.1810 Cl  0  0  0  0  0  0  0  0  0  0  0  0
    0.3240   16.7940   -5.0260 C   0  0  0  0  0  0  0  0  0  0  0  0
   -1.0440   16.7140   -5.1950 C   0  0  0  0  0  0  0  0  0  0  0  0
    1.0940   15.6620   -4.7430 C   0  0  0  0  0  0  0  0  0  0  0  0
    0.4780   14.4110   -4.6280 C   0  0  0  0  0  0  0  0  0  0  0  0
   -1.6700   15.4810   -5.0840 C   0  0  0  0  0  0  0  0  0  0  0  0
   -3.1470   15.3680   -5.2570 C   0  0  0  0  0  0  0  0  0  0  0  0
    1.2760   13.1640   -4.3200 C   0  0  0  0  0  0  0  0  0  0  0  0
   -0.9080   14.3380   -4.8030 C   0  0  0  0  0  0  0  0  0  0  0  0
    0.8990   12.5200   -3.0030 C   0  0  0  0  0  0  0  0  0  0  0  0
   -3.7410   14.9230   -3.9310 C   0  0  0  0  0  0  0  0  0  0  0  0
    0.3540   11.2940   -3.1640 O   0  0  0  0  0  0  0  0  0  0  0  0
    1.0290   12.9720   -1.8780 O   0  0  0  0  0  0  0  0  0  0  0  0
   -2.9590   15.4950   -2.7330 C   0  0  0  0  0  0  0  0  0  0  0  0
   -3.7760   15.3190   -1.4890 C   0  0  0  0  0  0  0  0  0  0  0  0
   -5.1450   15.0890   -1.6690 C   0  0  0  0  0  0  0  0  0  0  0  0
   -3.2140   15.3680   -0.2000 C   0  0  0  0  0  0  0  0  0  0  0  0
   -5.9120   14.9000   -0.5380 C   0  0  0  0  0  0  0  0  0  0  0  0
   -4.0180   15.1750    0.9330 C   0  0  0  0  0  0  0  0  0  0  0  0
   -7.2480   14.6510   -0.3790 N   0  0  0  0  0  0  0  0  0  0  0  0
   -5.3930   14.9320    0.7480 C   0  0  0  0  0  0  0  0  0  0  0  0
   -7.4980   14.5370    0.9650 C   0  0  0  0  0  0  0  0  0  0  0  0
   -6.3930   14.7050    1.6630 N   0  0  0  0  0  0  0  0  0  0  0  0
   -8.8630   14.2600    1.4860 C   0  0  0  0  0  0  0  0  0  0  0  0
   -8.7810   14.1090    2.9260 N   0  0  0  0  0  0  0  0  0  0  0  0
   -9.1630   15.1600    3.7370 C   0  0  0  0  0  0  0  0  0  0  0  0
   -9.4410   16.2640    3.2790 O   0  0  0  0  0  0  0  0  0  0  0  0
   -9.2410   14.8360    5.2340 C   0  0  0  0  0  0  0  0  0  0  0  0
   -9.6600   13.3900    5.4970 C   0  0  0  0  0  0  0  0  0  0  0  0
   -7.9430   15.1880    5.9470 C   0  0  0  0  0  0  0  0  0  0  0  0
  1  2  1  0
  2  3  2  0
  2  4  1  0
  4  5  2  0
  3  6  1  0
  6  7  1  0
  5  8  1  0
  5  9  1  0
  6  9  2  0
  8 10  1  0
  7 11  1  0
 10 12  1  0
 10 13  2  0
 11 14  1  0
 14 15  1  0
 15 16  2  0
 15 17  1  0
 16 18  1  0
 17 19  2  0
 18 20  1  0
 18 21  2  0
 19 21  1  0
 20 22  1  0
 21 23  1  0
 22 23  2  0
 22 24  1  0
 24 25  1  0
 25 26  1  0
 26 27  2  0
 26 28  1  0
 28 29  1  0
 28 30  1  0
M  END
