mac-x0142-diamond-x0524_0_A
     RDKit          3D

 36 41  0  0  0  0  0  0  0  0999 V2000
   -0.4380    8.3040   -8.1640 N   0  0  0  0  0  0  0  0  0  0  0  0
   -0.8390    9.4160   -7.4650 C   0  0  0  0  0  0  0  0  0  0  0  0
   -1.8370    9.1850   -6.3400 C   0  0  0  0  0  0  0  0  0  0  0  0
    0.6180    8.3950   -9.1150 C   0  0  0  0  0  0  0  0  0  0  0  0
   -0.4560   10.6180   -7.6670 N   0  0  0  0  0  0  0  0  0  0  0  0
    1.7750    7.6290   -9.0130 C   0  0  0  0  0  0  0  0  0  0  0  0
    0.5030    9.2800  -10.1980 C   0  0  0  0  0  0  0  0  0  0  0  0
   -0.9630   11.6950   -6.8400 C   0  0  0  0  0  0  0  0  0  0  0  0
    2.7940    7.7290   -9.9630 C   0  0  0  0  0  0  0  0  0  0  0  0
    1.5230    9.3780  -11.1500 C   0  0  0  0  0  0  0  0  0  0  0  0
    0.1830   12.3100   -6.0680 C   0  0  0  0  0  0  0  0  0  0  0  0
    2.6830    8.6000  -11.0460 C   0  0  0  0  0  0  0  0  0  0  0  0
    3.6890    8.7110  -12.0180 N   0  0  0  0  0  0  0  0  0  0  0  0
   -0.2550   12.8720   -4.7180 C   0  0  1  0  0  0  0  0  0  0  0  0
    0.8440   13.6290   -3.9930 C   0  0  0  0  0  0  0  0  0  0  0  0
   -1.4670   13.7900   -4.9330 C   0  0  0  0  0  0  0  0  0  0  0  0
    3.8900    9.5910  -13.0870 C   0  0  0  0  0  0  0  0  0  0  0  0
    2.2700   13.4620   -4.4610 C   0  0  0  0  0  0  0  0  0  0  0  0
    1.8320   12.8000   -3.1930 C   0  0  0  0  0  0  0  0  0  0  0  0
   -1.9980   14.3800   -3.6320 C   0  0  0  0  0  0  0  0  0  0  0  0
    0.3990   14.9180   -3.3360 C   0  0  0  0  0  0  0  0  0  0  0  0
    3.1770   10.7820  -13.2390 C   0  0  0  0  0  0  0  0  0  0  0  0
    4.8540    9.2660  -14.0460 C   0  0  0  0  0  0  0  0  0  0  0  0
   -0.8970   14.6520   -2.6960 N   0  0  0  0  0  0  0  0  0  0  0  0
    3.4250   11.6210  -14.3200 C   0  0  0  0  0  0  0  0  0  0  0  0
    5.1050   10.1060  -15.1270 C   0  0  0  0  0  0  0  0  0  0  0  0
   -1.1610   14.7050   -1.3270 C   0  0  0  0  0  0  0  0  0  0  0  0
    4.3890   11.2860  -15.2640 C   0  0  0  0  0  0  0  0  0  0  0  0
   -0.1500   14.5340   -0.3990 N   0  0  0  0  0  0  0  0  0  0  0  0
   -2.3750   14.9340   -0.7980 C   0  0  0  0  0  0  0  0  0  0  0  0
   -0.3930   14.5340    0.9510 C   0  0  0  0  0  0  0  0  0  0  0  0
   -2.5470   14.9740    0.6750 C   0  0  0  0  0  0  0  0  0  0  0  0
   -3.6910   15.1990   -1.2810 C   0  0  0  0  0  0  0  0  0  0  0  0
   -1.5240   14.7260    1.5380 N   0  0  0  0  0  0  0  0  0  0  0  0
   -3.7640   15.2690    1.0210 N   0  0  0  0  0  0  0  0  0  0  0  0
   -4.4340   15.3950   -0.1840 C   0  0  0  0  0  0  0  0  0  0  0  0
  1  2  1  0
  2  3  1  0
  1  4  1  0
  2  5  2  3
  4  6  2  0
  4  7  1  0
  5  8  1  0
  6  9  1  0
  7 10  2  0
  8 11  1  0
  9 12  2  0
 10 12  1  0
 12 13  1  0
 14 11  1  6
 14 15  1  0
 14 16  1  0
 13 17  1  0
 15 18  1  0
 15 19  1  0
 18 19  1  0
 16 20  1  0
 15 21  1  0
 17 22  2  0
 17 23  1  0
 20 24  1  0
 21 24  1  0
 22 25  1  0
 23 26  2  0
 24 27  1  0
 25 28  2  0
 26 28  1  0
 27 29  1  0
 27 30  2  0
 29 31  1  0
 30 32  1  0
 30 33  1  0
 31 34  2  0
 32 34  1  0
 32 35  2  0
 33 36  2  0
 35 36  1  0
M  END
