mac-x0138-mac-x0392
     RDKit          3D

 14 16  0  0  0  0  0  0  0  0999 V2000
   -1.3270   14.4960   -3.0170 C   0  0  0  0  0  0  0  0  0  0  0  0
   -0.2510   14.3870   -1.9070 C   0  0  1  0  0  0  0  0  0  0  0  0
    0.7110   15.3830   -2.0710 O   0  0  0  0  0  0  0  0  0  0  0  0
   -2.2970   15.4820   -2.5240 N   0  0  0  0  0  0  0  0  0  0  0  0
   -3.7260   15.1620   -2.6820 C   0  0  0  0  0  0  0  0  0  0  0  0
   -2.1530   15.3970   -1.0810 C   0  0  2  0  0  0  0  0  0  0  0  0
   -1.0530   14.5550   -0.7040 N   0  0  0  0  0  0  0  0  0  0  0  0
   -4.3600   15.3510   -1.3590 N   0  0  0  0  0  0  0  0  0  0  0  0
   -3.3330   14.6520   -0.5870 C   0  0  2  0  0  0  0  0  0  0  0  0
   -0.6620   15.0130    0.5920 C   0  0  2  0  0  0  0  0  0  0  0  0
   -0.1470   13.9590    1.3880 N   0  0  0  0  0  0  0  0  0  0  0  0
   -3.1640   14.7200    0.9460 C   0  0  1  0  0  0  0  0  0  0  0  0
   -1.8830   15.3090    1.3330 N   0  0  0  0  0  0  0  0  0  0  0  0
   -4.2070   15.4200    1.6720 N   0  0  0  0  0  0  0  0  0  0  0  0
  1  2  1  0
  2  3  1  6
  1  4  1  0
  4  5  1  0
  6  4  1  6
  2  7  1  0
  6  7  1  0
  5  8  1  0
  6  9  1  0
  9  8  1  1
  7 10  1  0
 10 11  1  1
  9 12  1  0
 10 13  1  0
 12 13  1  0
 12 14  1  1
M  END
