mac-x0451-diamond-x0895_0_A
     RDKit          3D

 13 14  0  0  0  0  0  0  0  0999 V2000
   -6.4090   14.8210    2.6090 N   0  0  0  0  0  0  0  0  0  0  0  0
   -5.4020   14.8350    1.4900 C   0  0  0  0  0  0  0  0  0  0  0  0
   -5.8040   15.0110    0.1110 N   0  0  0  0  0  0  0  0  0  0  0  0
   -3.6940   14.6330    1.8470 S   0  0  0  0  0  0  0  0  0  0  0  0
   -2.2860   14.5810    0.9750 O   0  0  0  0  0  0  0  0  0  0  0  0
   -6.9850   15.1540   -0.2110 O   0  0  0  0  0  0  0  0  0  0  0  0
   -4.8210   14.9940   -0.6800 C   0  0  0  0  0  0  0  0  0  0  0  0
   -3.6610   14.8030    0.0620 C   0  0  0  0  0  0  0  0  0  0  0  0
   -4.9010   15.1420   -2.0600 C   0  0  0  0  0  0  0  0  0  0  0  0
   -2.4710   14.7520   -0.6950 C   0  0  0  0  0  0  0  0  0  0  0  0
   -3.7220   15.0890   -2.7650 C   0  0  0  0  0  0  0  0  0  0  0  0
   -2.5380   14.8950   -2.0850 C   0  0  0  0  0  0  0  0  0  0  0  0
   -1.4030   14.8450   -2.7870 F   0  0  0  0  0  0  0  0  0  0  0  0
  1  2  1  0
  2  3  2  0
  2  4  1  0
  4  5  2  0
  3  6  1  0
  3  7  1  0
  4  8  1  0
  7  8  2  0
  7  9  1  0
  8 10  1  0
  9 11  2  0
 10 12  2  0
 11 12  1  0
 12 13  1  0
M  CHG  2   3   1   6  -1
M  END
