mac-x0283-mac-x0455
     RDKit          3D

 23 25  0  0  0  0  0  0  0  0999 V2000
   -6.9880   14.8850    2.5500 N   0  0  0  0  0  0  0  0  0  0  0  0
   -6.7770   14.7930    1.2240 C   0  0  0  0  0  0  0  0  0  0  0  0
   -7.7030   14.6640    0.2670 N   0  0  0  0  0  0  0  0  0  0  0  0
   -5.4800   14.8210    0.6980 C   0  0  0  0  0  0  0  0  0  0  0  0
   -6.9870   14.5990   -0.9290 O   0  0  0  0  0  0  0  0  0  0  0  0
   -5.6530   14.6780   -0.6620 C   0  0  0  0  0  0  0  0  0  0  0  0
   -4.1970   14.9440    1.2280 C   0  0  0  0  0  0  0  0  0  0  0  0
   -4.5930   14.6190   -1.5650 C   0  0  0  0  0  0  0  0  0  0  0  0
   -3.1280   14.8790    0.3730 C   0  0  0  0  0  0  0  0  0  0  0  0
   -3.3040   14.7070   -0.9850 C   0  0  0  0  0  0  0  0  0  0  0  0
   -2.0460   14.6040   -1.7600 C   0  0  0  0  0  0  0  0  0  0  0  0
   -2.1590   14.7150   -3.2480 C   0  0  0  0  0  0  0  0  0  0  0  0
   -0.8220   14.3700   -3.9060 C   0  0  1  0  0  0  0  0  0  0  0  0
   -0.4160   15.4600   -4.7570 O   0  0  0  0  0  0  0  0  0  0  0  0
    0.2630   14.3100   -2.7870 C   0  0  0  0  0  0  0  0  0  0  0  0
   -0.8470   13.0540   -4.6650 C   0  0  0  0  0  0  0  0  0  0  0  0
    0.8730   15.2600   -2.3250 O   0  0  0  0  0  0  0  0  0  0  0  0
    0.4870   13.0430   -2.3480 O   0  0  0  0  0  0  0  0  0  0  0  0
   -1.9020   12.1340   -4.4870 C   0  0  0  0  0  0  0  0  0  0  0  0
    0.1810   12.7150   -5.5610 C   0  0  0  0  0  0  0  0  0  0  0  0
   -1.9250   10.9230   -5.1820 C   0  0  0  0  0  0  0  0  0  0  0  0
    0.1560   11.5050   -6.2540 C   0  0  0  0  0  0  0  0  0  0  0  0
   -0.8930   10.6100   -6.0660 C   0  0  0  0  0  0  0  0  0  0  0  0
  1  2  1  0
  2  3  2  0
  2  4  1  0
  3  5  1  0
  4  6  2  0
  5  6  1  0
  4  7  1  0
  6  8  1  0
  7  9  2  0
  8 10  2  0
  9 10  1  0
 10 11  1  0
 11 12  1  0
 12 13  1  0
 13 14  1  6
 13 15  1  0
 13 16  1  0
 15 17  2  0
 15 18  1  0
 16 19  2  0
 16 20  1  0
 19 21  1  0
 20 22  2  0
 21 23  2  0
 22 23  1  0
M  END
