mac-x0380-mac-x0572
     RDKit          3D

 16 17  0  0  0  0  0  0  0  0999 V2000
   -1.2970   14.6970   -2.5400 O   0  0  0  0  0  0  0  0  0  0  0  0
   -2.5830   15.0030   -2.8070 C   0  0  0  0  0  0  0  0  0  0  0  0
   -3.0000   15.2500   -3.9270 O   0  0  0  0  0  0  0  0  0  0  0  0
   -3.4530   15.0110   -1.6090 C   0  0  0  0  0  0  0  0  0  0  0  0
   -4.8230   15.2230   -1.7380 C   0  0  0  0  0  0  0  0  0  0  0  0
   -2.8890   14.7990   -0.3440 C   0  0  0  0  0  0  0  0  0  0  0  0
   -5.6400   15.2130   -0.6110 C   0  0  0  0  0  0  0  0  0  0  0  0
   -3.7020   14.7870    0.7920 C   0  0  0  0  0  0  0  0  0  0  0  0
   -5.0820   14.9880    0.6610 C   0  0  0  0  0  0  0  0  0  0  0  0
   -7.3800   15.4860   -0.8460 S   0  0  0  0  0  0  0  0  0  0  0  0
   -5.8740   14.9500    1.8200 N   0  0  0  0  0  0  0  0  0  0  0  0
   -7.9030   14.3120    0.4220 C   0  0  0  0  0  0  0  0  0  0  0  0
   -7.5650   13.0860   -0.1560 O   0  0  0  0  0  0  0  0  0  0  0  0
   -9.3110   14.3190    0.5370 O   0  0  0  0  0  0  0  0  0  0  0  0
   -7.2160   14.6320    1.8110 C   0  0  0  0  0  0  0  0  0  0  0  0
   -7.8420   14.6320    2.8820 O   0  0  0  0  0  0  0  0  0  0  0  0
  1  2  1  0
  2  3  2  0
  2  4  1  0
  4  5  2  0
  4  6  1  0
  5  7  1  0
  6  8  2  0
  7  9  2  0
  8  9  1  0
  7 10  1  0
  9 11  1  0
 10 12  1  0
 12 13  1  0
 12 14  1  0
 11 15  1  0
 12 15  1  0
 15 16  2  0
M  END
