mac-x0212-mac-x0139
     RDKit          3D

 24 26  0  0  0  0  0  0  0  0999 V2000
   -6.8660   12.6320    1.3580 C   0  0  0  0  0  0  0  0  0  0  0  0
   -7.0170   14.3700    0.9980 S   0  0  0  0  0  0  0  0  0  0  0  0
   -7.5850   15.0240    2.1540 O   0  0  0  0  0  0  0  0  0  0  0  0
   -7.5910   14.5420   -0.3170 O   0  0  0  0  0  0  0  0  0  0  0  0
   -5.3930   14.7530    0.9220 N   0  0  0  0  0  0  0  0  0  0  0  0
   -4.7390   14.1580   -0.2630 C   0  0  2  0  0  0  0  0  0  0  0  0
   -3.2550   13.7790   -0.0540 C   0  0  0  0  0  0  0  0  0  0  0  0
   -4.9990   15.0220   -1.4640 C   0  0  0  0  0  0  0  0  0  0  0  0
   -2.1810   14.6910   -0.7480 C   0  0  2  0  0  0  0  0  0  0  0  0
   -4.0540   15.3970   -2.3300 C   0  0  0  0  0  0  0  0  0  0  0  0
   -2.5890   15.0450   -2.2030 C   0  0  2  0  0  0  0  0  0  0  0  0
   -0.7620   14.1340   -0.7980 C   0  0  1  0  0  0  0  0  0  0  0  0
   -2.0270   15.8090    0.2720 C   0  0  0  0  0  0  0  0  0  0  0  0
   -2.0330   14.0790   -3.3150 C   0  0  2  0  0  0  0  0  0  0  0  0
    0.1460   15.1080   -1.3780 N   0  0  0  0  0  0  0  0  0  0  0  0
   -1.5280   15.2310    1.5100 N   0  0  0  0  0  0  0  0  0  0  0  0
   -0.1730   13.7130    0.4080 N   0  0  0  0  0  0  0  0  0  0  0  0
   -0.4960   14.0240   -3.5670 C   0  0  1  0  0  0  0  0  0  0  0  0
   -2.7000   14.3980   -4.5460 O   0  0  0  0  0  0  0  0  0  0  0  0
    0.2530   15.1200   -2.8310 C   0  0  0  0  0  0  0  0  0  0  0  0
   -0.1760   14.7520    1.3600 C   0  0  0  0  0  0  0  0  0  0  0  0
    0.2020   12.7260   -3.1160 C   0  0  0  0  0  0  0  0  0  0  0  0
    1.0980   12.6290   -2.2870 O   0  0  0  0  0  0  0  0  0  0  0  0
   -0.2230   11.6040   -3.7330 O   0  0  0  0  0  0  0  0  0  0  0  0
  1  2  1  0
  2  3  2  0
  2  4  2  0
  2  5  1  0
  6  5  1  1
  6  7  1  0
  6  8  1  0
  9  7  1  1
  8 10  2  0
  9 11  1  0
 11 10  1  1
  9 12  1  0
  9 13  1  0
 11 14  1  0
 12 15  1  1
 13 16  1  0
 12 17  1  0
 14 18  1  0
 14 19  1  6
 15 20  1  0
 18 20  1  0
 16 21  1  0
 17 21  1  0
 18 22  1  1
 22 23  2  0
 22 24  1  0
M  END
