mac-x0587-mac-x0439
     RDKit          3D

 27 30  0  0  0  0  0  0  0  0999 V2000
    0.0270   14.5970   -2.2710 C   0  0  0  0  0  0  0  0  0  0  0  0
   -1.0260   13.6570   -2.8380 C   0  0  2  0  0  0  0  0  0  0  0  0
   -0.9670   13.3330   -4.6500 S   0  0  0  0  0  0  0  0  0  0  0  0
   -2.3900   14.0940   -2.4100 C   0  0  0  0  0  0  0  0  0  0  0  0
    0.3000   12.0420   -4.6150 C   0  0  0  0  0  0  0  0  0  0  0  0
   -2.7560   15.0330   -3.1270 N   0  0  0  0  0  0  0  0  0  0  0  0
   -3.0630   13.5830   -1.3510 N   0  0  0  0  0  0  0  0  0  0  0  0
    0.7620   11.8640   -3.1930 C   0  0  0  0  0  0  0  0  0  0  0  0
   -4.4620   13.9240   -1.1500 C   0  0  0  0  0  0  0  0  0  0  0  0
   -2.4600   13.7730   -0.0790 C   0  0  0  0  0  0  0  0  0  0  0  0
   -2.0550   15.6890   -4.1080 C   0  0  0  0  0  0  0  0  0  0  0  0
    0.5560   10.8160   -2.5770 O   0  0  0  0  0  0  0  0  0  0  0  0
    1.4140   12.9430   -2.6500 N   0  0  0  0  0  0  0  0  0  0  0  0
   -1.3200   13.5130    0.2590 O   0  0  0  0  0  0  0  0  0  0  0  0
   -4.4230   14.9220   -0.0100 C   0  0  0  0  0  0  0  0  0  0  0  0
   -3.3840   14.3570    0.7770 N   0  0  0  0  0  0  0  0  0  0  0  0
   -0.6470   15.7680   -4.4310 C   0  0  0  0  0  0  0  0  0  0  0  0
   -2.9840   16.3820   -4.8400 C   0  0  0  0  0  0  0  0  0  0  0  0
    1.3380   14.2200   -2.9890 C   0  0  0  0  0  0  0  0  0  0  0  0
    0.6690   15.1820   -3.9770 C   0  0  0  0  0  0  0  0  0  0  0  0
   -0.4990   16.7060   -5.5190 C   0  0  0  0  0  0  0  0  0  0  0  0
   -2.7060   17.2300   -5.8780 C   0  0  0  0  0  0  0  0  0  0  0  0
    2.2010   14.9460   -2.2100 O   0  0  0  0  0  0  0  0  0  0  0  0
   -1.4540   17.4000   -6.1890 C   0  0  0  0  0  0  0  0  0  0  0  0
    0.6580   17.0050   -6.0290 C   0  0  0  0  0  0  0  0  0  0  0  0
    1.7250   15.6190   -4.6630 C   0  0  0  0  0  0  0  0  0  0  0  0
    1.7110   16.4880   -5.6490 N   0  0  0  0  0  0  0  0  0  0  0  0
  2  1  1  6
  2  3  1  0
  2  4  1  0
  3  5  1  0
  4  6  2  0
  4  7  1  0
  5  8  1  0
  7  9  1  0
  7 10  1  0
  6 11  1  0
  8 12  2  0
  8 13  1  0
 10 14  2  0
  9 15  1  0
 10 16  1  0
 15 16  1  0
 11 17  1  0
 11 18  2  0
 13 19  2  0
 17 20  2  0
 19 20  1  0
 17 21  1  0
 18 22  1  0
 19 23  1  0
 21 24  1  0
 22 24  2  0
 21 25  2  0
 20 26  1  0
 25 27  1  0
 26 27  2  0
M  END
