mac-x0412-diamond-x0592_0_A
     RDKit          3D

 16 17  0  0  0  0  0  0  0  0999 V2000
   -8.1470   14.4810    0.2740 N   0  0  0  0  0  0  0  0  0  0  0  0
   -8.8330   14.7600    1.5320 C   0  0  0  0  0  0  0  0  0  0  0  0
   -7.9820   15.1030    2.6260 O   0  0  0  0  0  0  0  0  0  0  0  0
   -6.8900   14.5460    0.4150 C   0  0  0  0  0  0  0  0  0  0  0  0
   -5.8780   14.2420   -0.7330 C   0  0  2  0  0  0  0  0  0  0  0  0
   -6.4400   14.8860    1.6740 N   0  0  0  0  0  0  0  0  0  0  0  0
   -4.4840   14.6300   -0.3470 C   0  0  0  0  0  0  0  0  0  0  0  0
   -5.1890   15.1240    1.8460 C   0  0  0  0  0  0  0  0  0  0  0  0
   -6.1370   14.7120   -2.1440 C   0  0  0  0  0  0  0  0  0  0  0  0
   -4.1580   15.0330    0.8030 C   0  0  0  0  0  0  0  0  0  0  0  0
   -3.4500   14.5280   -1.3470 C   0  0  0  0  0  0  0  0  0  0  0  0
   -5.1120   14.8790   -3.0120 C   0  0  0  0  0  0  0  0  0  0  0  0
   -2.7650   15.3340    0.9210 C   0  0  0  0  0  0  0  0  0  0  0  0
   -3.7510   14.6510   -2.6220 C   0  0  0  0  0  0  0  0  0  0  0  0
   -2.1980   14.8010    1.9750 N   0  0  0  0  0  0  0  0  0  0  0  0
   -2.1710   15.9740    0.0640 O   0  0  0  0  0  0  0  0  0  0  0  0
  1  2  1  0
  2  3  1  0
  1  4  2  3
  4  5  1  0
  4  6  1  0
  5  7  1  0
  6  8  2  0
  5  9  1  6
  7 10  2  0
  8 10  1  0
  7 11  1  0
  9 12  2  0
 10 13  1  0
 11 14  2  0
 12 14  1  0
 13 15  1  0
 13 16  2  0
M  END
