mac-x0116-mac-x0178
     RDKit          3D

 30 33  0  0  0  0  0  0  0  0999 V2000
   -5.9760   14.7790    1.5860 C   0  0  0  0  0  0  0  0  0  0  0  0
   -4.5860   15.2120    1.7120 N   0  0  0  0  0  0  0  0  0  0  0  0
   -3.7960   14.9970    0.5880 C   0  0  0  0  0  0  0  0  0  0  0  0
   -6.3310   13.3300    1.6480 C   0  0  0  0  0  0  0  0  0  0  0  0
   -6.2330   12.6220    0.4840 O   0  0  0  0  0  0  0  0  0  0  0  0
   -6.7690   12.5080    2.6610 C   0  0  0  0  0  0  0  0  0  0  0  0
   -6.9530   11.2360    2.0940 C   0  0  0  0  0  0  0  0  0  0  0  0
   -6.6140   11.3560    0.7700 C   0  0  0  0  0  0  0  0  0  0  0  0
   -4.2820   15.1330   -0.6710 N   0  0  0  0  0  0  0  0  0  0  0  0
   -2.4570   14.6200    0.7450 C   0  0  0  0  0  0  0  0  0  0  0  0
   -3.4540   14.8870   -1.7070 C   0  0  0  0  0  0  0  0  0  0  0  0
   -1.7240   14.3880   -0.3940 C   0  0  0  0  0  0  0  0  0  0  0  0
   -1.6980   14.4190    1.8700 N   0  0  0  0  0  0  0  0  0  0  0  0
   -2.1520   14.5020   -1.6690 N   0  0  0  0  0  0  0  0  0  0  0  0
   -0.4840   14.0130    0.0860 N   0  0  0  0  0  0  0  0  0  0  0  0
   -0.5200   14.0600    1.4380 C   0  0  0  0  0  0  0  0  0  0  0  0
    0.6510   13.6270   -0.7050 C   0  0  0  0  0  0  0  0  0  0  0  0
    0.3390   13.8470   -1.9950 N   0  0  0  0  0  0  0  0  0  0  0  0
    0.3410   13.1960   -3.0470 C   0  0  0  0  0  0  0  0  0  0  0  0
    0.6620   11.9570   -3.4620 O   0  0  0  0  0  0  0  0  0  0  0  0
   -0.2150   14.2040   -3.8570 C   0  0  0  0  0  0  0  0  0  0  0  0
    0.5080   15.3910   -3.8350 C   0  0  0  0  0  0  0  0  0  0  0  0
   -1.4030   14.0500   -4.5460 C   0  0  0  0  0  0  0  0  0  0  0  0
    0.0330   16.4820   -4.4910 C   0  0  0  0  0  0  0  0  0  0  0  0
   -1.8970   15.1560   -5.2150 C   0  0  0  0  0  0  0  0  0  0  0  0
   -1.1700   16.3570   -5.1590 C   0  0  0  0  0  0  0  0  0  0  0  0
   -1.7690   17.7960   -5.9410 S   0  0  0  0  0  0  0  0  0  0  0  0
   -0.3740   18.4100   -6.6340 N   0  0  0  0  0  0  0  0  0  0  0  0
   -2.6620   17.3730   -6.9620 O   0  0  0  0  0  0  0  0  0  0  0  0
   -2.1600   18.7160   -4.9000 O   0  0  0  0  0  0  0  0  0  0  0  0
  1  2  1  0
  2  3  1  0
  1  4  1  0
  4  5  1  0
  4  6  2  0
  6  7  1  0
  5  8  1  0
  7  8  2  0
  3  9  2  0
  3 10  1  0
  9 11  1  0
 10 12  2  0
 10 13  1  0
 11 14  2  0
 12 14  1  0
 12 15  1  0
 13 16  2  0
 15 16  1  0
 15 17  1  0
 17 18  1  0
 18 19  2  3
 19 20  1  0
 19 21  1  0
 21 22  2  0
 21 23  1  0
 22 24  1  0
 23 25  2  0
 24 26  2  0
 25 26  1  0
 26 27  1  0
 27 28  1  0
 27 29  2  0
 27 30  2  0
M  END
