mac-x0213-diamond-x0967_0_A
     RDKit          3D

 25 28  0  0  0  0  0  0  0  0999 V2000
    0.1180   11.7470   -3.2920 O   0  0  0  0  0  0  0  0  0  0  0  0
    0.1520   12.9080   -2.6290 C   0  0  0  0  0  0  0  0  0  0  0  0
    0.4310   12.8490   -1.3810 N   0  0  0  0  0  0  0  0  0  0  0  0
   -0.1490   14.1740   -3.3910 C   0  0  0  0  0  0  0  0  0  0  0  0
    0.4600   14.1600   -0.7310 C   0  0  0  0  0  0  0  0  0  0  0  0
   -1.3230   14.1250   -4.3660 C   0  0  0  0  0  0  0  0  0  0  0  0
    0.9690   14.8960   -4.1670 C   0  0  0  0  0  0  0  0  0  0  0  0
   -0.6330   14.3160    0.3230 C   0  0  0  0  0  0  0  0  0  0  0  0
   -1.2270   15.5550   -4.8170 C   0  0  0  0  0  0  0  0  0  0  0  0
    0.1000   16.0030   -4.7030 C   0  0  0  0  0  0  0  0  0  0  0  0
   -1.4680   15.5850    0.0700 C   0  0  0  0  0  0  0  0  0  0  0  0
   -2.2280   16.3900   -5.2870 C   0  0  0  0  0  0  0  0  0  0  0  0
    0.4480   17.2960   -5.0570 C   0  0  0  0  0  0  0  0  0  0  0  0
   -1.8780   17.6950   -5.6480 C   0  0  0  0  0  0  0  0  0  0  0  0
   -0.5540   18.1420   -5.5330 C   0  0  0  0  0  0  0  0  0  0  0  0
   -2.9420   15.3320   -0.1370 C   0  0  0  0  0  0  0  0  0  0  0  0
   -3.5310   15.2580   -1.3970 C   0  0  0  0  0  0  0  0  0  0  0  0
   -3.7910   15.1610    0.9480 C   0  0  0  0  0  0  0  0  0  0  0  0
   -5.1540   14.9300    0.7390 C   0  0  0  0  0  0  0  0  0  0  0  0
   -4.8520   15.0340   -1.6160 N   0  0  0  0  0  0  0  0  0  0  0  0
   -5.6620   14.8710   -0.5690 C   0  0  0  0  0  0  0  0  0  0  0  0
   -6.0250   14.7590    1.8160 C   0  0  0  0  0  0  0  0  0  0  0  0
   -6.9630   14.6500   -0.7880 N   0  0  0  0  0  0  0  0  0  0  0  0
   -7.3690   14.5310    1.5840 C   0  0  0  0  0  0  0  0  0  0  0  0
   -7.7870   14.4860    0.2730 C   0  0  0  0  0  0  0  0  0  0  0  0
  1  2  1  0
  2  3  2  3
  2  4  1  0
  3  5  1  0
  4  6  1  0
  4  7  1  0
  5  8  1  0
  6  9  1  0
  7 10  1  0
  9 10  2  0
  8 11  1  0
  9 12  1  0
 10 13  1  0
 12 14  2  0
 13 15  2  0
 14 15  1  0
 11 16  1  0
 16 17  2  0
 16 18  1  0
 18 19  2  0
 17 20  1  0
 19 21  1  0
 20 21  2  0
 19 22  1  0
 21 23  1  0
 22 24  2  0
 23 25  2  0
 24 25  1  0
M  END
