mac-x0255-mac-x0116
     RDKit          3D

 31 35  0  0  0  0  0  0  0  0999 V2000
    2.0990   12.5220   -2.1080 O   0  0  0  0  0  0  0  0  0  0  0  0
    0.9360   12.3700   -2.8770 C   0  0  0  0  0  0  0  0  0  0  0  0
    0.5980   10.9910   -2.8250 O   0  0  0  0  0  0  0  0  0  0  0  0
    1.1780   12.7990   -4.3320 C   0  0  0  0  0  0  0  0  0  0  0  0
   -0.1300   13.1550   -2.1410 C   0  0  0  0  0  0  0  0  0  0  0  0
    0.3430   14.1900   -1.1290 C   0  0  0  0  0  0  0  0  0  0  0  0
    0.5320   14.1090   -4.6480 C   0  0  0  0  0  0  0  0  0  0  0  0
    1.1300   15.3380   -4.7850 C   0  0  0  0  0  0  0  0  0  0  0  0
   -1.1560   14.2100   -4.8810 S   0  0  0  0  0  0  0  0  0  0  0  0
   -0.6910   14.3980   -0.1790 N   0  0  0  0  0  0  0  0  0  0  0  0
    0.2070   16.3820   -5.0930 C   0  0  0  0  0  0  0  0  0  0  0  0
   -1.1000   15.8990   -5.1720 C   0  0  0  0  0  0  0  0  0  0  0  0
   -1.9710   14.6630   -0.5360 C   0  0  0  0  0  0  0  0  0  0  0  0
   -0.6110   14.3660    1.1820 C   0  0  0  0  0  0  0  0  0  0  0  0
    0.4260   17.7570   -5.3180 C   0  0  0  0  0  0  0  0  0  0  0  0
   -2.1850   16.7400   -5.4650 C   0  0  0  0  0  0  0  0  0  0  0  0
   -2.4580   14.7800   -1.7800 N   0  0  0  0  0  0  0  0  0  0  0  0
   -2.6490   14.7800    0.6570 C   0  0  0  0  0  0  0  0  0  0  0  0
   -1.7850   14.5910    1.7300 N   0  0  0  0  0  0  0  0  0  0  0  0
   -0.6510   18.5870   -5.6160 C   0  0  0  0  0  0  0  0  0  0  0  0
   -1.9340   18.0900   -5.6880 C   0  0  0  0  0  0  0  0  0  0  0  0
   -3.7700   15.0480   -1.7620 C   0  0  0  0  0  0  0  0  0  0  0  0
   -4.0280   15.0560    0.5530 C   0  0  0  0  0  0  0  0  0  0  0  0
   -4.8540   15.1960    1.6680 N   0  0  0  0  0  0  0  0  0  0  0  0
   -4.5620   15.1900   -0.6880 N   0  0  0  0  0  0  0  0  0  0  0  0
   -6.2250   14.7360    1.4450 C   0  0  0  0  0  0  0  0  0  0  0  0
   -6.5330   13.2750    1.5290 C   0  0  0  0  0  0  0  0  0  0  0  0
   -6.3970   12.5470    0.3820 O   0  0  0  0  0  0  0  0  0  0  0  0
   -6.9560   12.4560    2.5570 C   0  0  0  0  0  0  0  0  0  0  0  0
   -7.0880   11.1670    2.0120 C   0  0  0  0  0  0  0  0  0  0  0  0
   -6.7350   11.2730    0.6890 C   0  0  0  0  0  0  0  0  0  0  0  0
  2  1  1  0
  2  3  1  0
  2  4  1  0
  2  5  1  0
  5  6  1  0
  4  7  1  0
  7  8  2  0
  7  9  1  0
  6 10  1  0
  8 11  1  0
  9 12  1  0
 11 12  2  0
 10 13  1  0
 10 14  1  0
 11 15  1  0
 12 16  1  0
 13 17  2  0
 13 18  1  0
 14 19  2  0
 18 19  1  0
 15 20  2  0
 16 21  2  0
 20 21  1  0
 17 22  1  0
 18 23  2  0
 23 24  1  0
 22 25  2  0
 23 25  1  0
 24 26  1  0
 26 27  1  0
 27 28  1  0
 27 29  2  0
 29 30  1  0
 28 31  1  0
 30 31  2  0
M  END
