mac-x0224-diamond-x0910_0_A
     RDKit          3D

 18 19  0  0  0  0  0  0  0  0999 V2000
   -5.0660   14.7310    1.0010 C   0  0  0  0  0  0  0  0  0  0  0  0
   -3.9540   16.0520    0.4780 S   0  0  0  0  0  0  0  0  0  0  0  0
   -3.4300   15.4950   -1.1620 C   0  0  0  0  0  0  0  0  0  0  0  0
   -2.0970   15.4730   -1.5910 C   0  0  0  0  0  0  0  0  0  0  0  0
   -4.4020   15.0560   -2.0490 C   0  0  0  0  0  0  0  0  0  0  0  0
   -1.1140   15.9320   -0.7950 N   0  0  0  0  0  0  0  0  0  0  0  0
   -1.6900   14.9910   -2.8230 C   0  0  0  0  0  0  0  0  0  0  0  0
   -4.0280   14.6040   -3.3210 C   0  0  0  0  0  0  0  0  0  0  0  0
   -0.2060   14.9510   -3.0960 C   0  0  0  0  0  0  0  0  0  0  0  0
   -2.6740   14.5690   -3.6970 C   0  0  0  0  0  0  0  0  0  0  0  0
   -0.8410   15.1280    0.1320 C   0  0  0  0  0  0  0  0  0  0  0  0
   -2.3140   14.1090   -4.9340 O   0  0  0  0  0  0  0  0  0  0  0  0
    0.6130   14.8940   -2.1710 O   0  0  0  0  0  0  0  0  0  0  0  0
    0.1940   14.9310   -4.3730 O   0  0  0  0  0  0  0  0  0  0  0  0
   -1.7400   14.9710    1.1070 N   0  0  0  0  0  0  0  0  0  0  0  0
    0.1960   14.4030    0.2900 N   0  0  0  0  0  0  0  0  0  0  0  0
   -1.2860   14.1050    1.9600 N   0  0  0  0  0  0  0  0  0  0  0  0
   -0.1190   13.7930    1.4430 C   0  0  0  0  0  0  0  0  0  0  0  0
  1  2  1  0
  2  3  1  0
  3  4  2  0
  3  5  1  0
  4  6  1  0
  4  7  1  0
  5  8  2  0
  7  9  1  0
  7 10  2  0
  8 10  1  0
  6 11  1  0
 10 12  1  0
  9 13  2  0
  9 14  1  0
 11 15  1  0
 11 16  2  0
 15 17  1  0
 16 18  1  0
 17 18  2  0
M  END
