mac-x0188-diamond-x0837_0_A
     RDKit          3D

 23 25  0  0  0  0  0  0  0  0999 V2000
    0.7740   12.9070   -4.7890 C   0  0  0  0  0  0  0  0  0  0  0  0
   -0.5470   13.3960   -4.2810 C   0  0  0  0  0  0  0  0  0  0  0  0
   -1.6690   13.4530   -4.9190 O   0  0  0  0  0  0  0  0  0  0  0  0
   -0.7490   13.8810   -2.9860 C   0  0  0  0  0  0  0  0  0  0  0  0
    0.2900   13.9640   -1.9770 C   0  0  0  0  0  0  0  0  0  0  0  0
   -2.5920   13.9460   -4.1380 N   0  0  0  0  0  0  0  0  0  0  0  0
   -2.1110   14.2550   -2.8970 C   0  0  0  0  0  0  0  0  0  0  0  0
    0.8250   15.0630   -1.7310 O   0  0  0  0  0  0  0  0  0  0  0  0
    0.7180   12.8310   -1.3060 O   0  0  0  0  0  0  0  0  0  0  0  0
   -2.8130   14.8790   -1.6720 C   0  0  0  0  0  0  0  0  0  0  0  0
   -4.0930   15.5970   -1.7350 C   0  0  0  0  0  0  0  0  0  0  0  0
   -2.0390   14.6780   -0.5560 C   0  0  0  0  0  0  0  0  0  0  0  0
   -3.6110   14.8250   -3.4780 I   0  0  0  0  0  0  0  0  0  0  0  0
   -4.2450   16.0340   -0.4410 C   0  0  0  0  0  0  0  0  0  0  0  0
   -2.3980   15.1640    0.6640 C   0  0  0  0  0  0  0  0  0  0  0  0
   -3.5280   15.8670    0.6960 C   0  0  0  0  0  0  0  0  0  0  0  0
   -4.7930   13.7650   -2.0370 C   0  0  1  0  0  0  0  0  0  0  0  0
   -4.0750   13.7490   -0.6980 C   0  0  0  0  0  0  0  0  0  0  0  0
   -6.1460   14.4080   -1.8490 C   0  0  0  0  0  0  0  0  0  0  0  0
   -4.5250   14.0020    0.5120 C   0  0  0  0  0  0  0  0  0  0  0  0
   -6.6540   14.5350   -0.4140 C   0  0  0  0  0  0  0  0  0  0  0  0
   -7.8660   14.8010   -0.2740 O   0  0  0  0  0  0  0  0  0  0  0  0
   -5.8450   14.3620    0.7300 N   0  0  0  0  0  0  0  0  0  0  0  0
  1  2  1  0
  2  3  1  0
  2  4  2  0
  4  5  1  0
  3  6  1  0
  4  7  1  0
  6  7  2  0
  5  8  2  0
  5  9  1  0
  7 10  1  0
 10 11  1  0
 10 12  2  0
 11 13  1  0
 11 14  2  0
 12 15  1  0
 14 16  1  0
 15 16  2  0
 17 13  1  6
 17 18  1  0
 17 19  1  0
 18 20  2  0
 19 21  1  0
 21 22  2  0
 20 23  1  0
 21 23  1  0
M  END
