mac-x0193-mac-x0415
     RDKit          3D

 24 26  0  0  0  0  0  0  0  0999 V2000
    0.4170   10.7450   -2.8880 O   0  0  0  0  0  0  0  0  0  0  0  0
    0.8940   11.9640   -3.2010 C   0  0  0  0  0  0  0  0  0  0  0  0
    1.7230   12.5130   -2.4980 O   0  0  0  0  0  0  0  0  0  0  0  0
    0.2750   12.5400   -4.4670 C   0  0  2  0  0  0  0  0  0  0  0  0
    0.2390   11.4380   -5.4730 N   0  0  0  0  0  0  0  0  0  0  0  0
    0.9330   13.8760   -4.8980 C   0  0  2  0  0  0  0  0  0  0  0  0
    0.9020   11.4410   -6.6810 C   0  0  0  0  0  0  0  0  0  0  0  0
    1.8690   14.6010   -3.9090 C   0  0  0  0  0  0  0  0  0  0  0  0
   -0.1290   14.9460   -5.0570 C   0  0  2  0  0  0  0  0  0  0  0  0
    1.9680   11.9900   -6.8240 O   0  0  0  0  0  0  0  0  0  0  0  0
    0.2150   10.7190   -7.6600 N   0  0  0  0  0  0  0  0  0  0  0  0
    1.7020   16.0480   -4.1900 N   0  0  0  0  0  0  0  0  0  0  0  0
    0.2600   16.1720   -4.2520 C   0  0  1  0  0  0  0  0  0  0  0  0
   -1.5900   14.6380   -4.8020 C   0  0  0  0  0  0  0  0  0  0  0  0
    0.8490   10.1660   -8.8640 C   0  0  0  0  0  0  0  0  0  0  0  0
   -0.3910   17.3180   -4.9560 C   0  0  0  0  0  0  0  0  0  0  0  0
   -2.4450   15.9090   -4.8960 C   0  0  2  0  0  0  0  0  0  0  0  0
   -3.8790   15.4770   -6.1330 Br  0  0  0  0  0  0  0  0  0  0  0  0
    1.3810    8.7550   -8.6170 C   0  0  0  0  0  0  0  0  0  0  0  0
   -0.0900   10.1500  -10.0790 C   0  0  0  0  0  0  0  0  0  0  0  0
   -1.7000   17.1790   -5.2690 C   0  0  0  0  0  0  0  0  0  0  0  0
    2.0510    8.1440   -9.8590 C   0  0  0  0  0  0  0  0  0  0  0  0
    0.5780    9.5820  -11.3410 C   0  0  0  0  0  0  0  0  0  0  0  0
    1.1800    8.1990  -11.1140 C   0  0  0  0  0  0  0  0  0  0  0  0
  1  2  1  0
  2  3  2  0
  2  4  1  0
  4  5  1  6
  4  6  1  0
  5  7  1  0
  6  8  1  1
  6  9  1  0
  7 10  2  0
  7 11  1  0
  8 12  1  0
  9 13  1  0
 12 13  1  0
  9 14  1  1
 11 15  1  0
 13 16  1  6
 14 17  1  0
 17 18  1  6
 15 19  1  0
 15 20  1  0
 16 21  2  0
 17 21  1  0
 19 22  1  0
 20 23  1  0
 22 24  1  0
 23 24  1  0
M  END
