mac-x0373-diamond-x0524_0_A
     RDKit          3D

 34 37  0  0  0  0  0  0  0  0999 V2000
    0.2400   12.8100   -1.4090 O   0  0  0  0  0  0  0  0  0  0  0  0
    0.0730   14.0970   -1.8440 C   0  0  0  0  0  0  0  0  0  0  0  0
    0.9650   14.9150   -1.6790 O   0  0  0  0  0  0  0  0  0  0  0  0
   -1.2770   14.3230   -2.5280 C   0  0  1  0  0  0  0  0  0  0  0  0
   -1.6700   13.1390   -3.3900 C   0  0  0  0  0  0  0  0  0  0  0  0
   -2.4000   14.7630   -1.6000 C   0  0  0  0  0  0  0  0  0  0  0  0
   -1.2120   13.0240   -4.7080 C   0  0  0  0  0  0  0  0  0  0  0  0
   -2.5040   12.1380   -2.8670 C   0  0  0  0  0  0  0  0  0  0  0  0
   -3.5920   15.2910   -2.1330 C   0  0  0  0  0  0  0  0  0  0  0  0
   -2.2790   14.6580   -0.2070 C   0  0  0  0  0  0  0  0  0  0  0  0
   -1.5680   11.9390   -5.5090 C   0  0  0  0  0  0  0  0  0  0  0  0
   -2.8670   11.0480   -3.6520 C   0  0  0  0  0  0  0  0  0  0  0  0
   -4.6250   15.6970   -1.2870 C   0  0  0  0  0  0  0  0  0  0  0  0
   -3.3120   15.0660    0.6310 C   0  0  0  0  0  0  0  0  0  0  0  0
   -1.0700   11.8530   -6.9270 C   0  0  0  0  0  0  0  0  0  0  0  0
   -2.4020   10.9490   -4.9650 C   0  0  0  0  0  0  0  0  0  0  0  0
   -4.4780   15.5840    0.0890 C   0  0  0  0  0  0  0  0  0  0  0  0
   -0.3740   10.6590   -7.3770 N   0  0  0  0  0  0  0  0  0  0  0  0
   -0.8690    9.4740   -7.4600 C   0  0  0  0  0  0  0  0  0  0  0  0
   -0.1850    8.3880   -7.9360 N   0  0  0  0  0  0  0  0  0  0  0  0
   -2.3120    9.2910   -7.0230 C   0  0  0  0  0  0  0  0  0  0  0  0
    0.7410    8.4970   -8.9910 C   0  0  0  0  0  0  0  0  0  0  0  0
    1.8410    7.6480   -8.9940 C   0  0  0  0  0  0  0  0  0  0  0  0
    0.6080    9.4220  -10.0320 C   0  0  0  0  0  0  0  0  0  0  0  0
    2.7950    7.7170  -10.0110 C   0  0  0  0  0  0  0  0  0  0  0  0
    1.5620    9.4900  -11.0530 C   0  0  0  0  0  0  0  0  0  0  0  0
    2.6680    8.6390  -11.0550 C   0  0  0  0  0  0  0  0  0  0  0  0
    3.6560    8.6630  -12.0490 N   0  0  0  0  0  0  0  0  0  0  0  0
    3.9150    9.5300  -13.1190 C   0  0  0  0  0  0  0  0  0  0  0  0
    3.1970   10.7310  -13.2390 C   0  0  0  0  0  0  0  0  0  0  0  0
    4.8780    9.2480  -14.0890 C   0  0  0  0  0  0  0  0  0  0  0  0
    3.4400   11.6110  -14.2910 C   0  0  0  0  0  0  0  0  0  0  0  0
    5.1260   10.1260  -15.1430 C   0  0  0  0  0  0  0  0  0  0  0  0
    4.4060   11.3100  -15.2450 C   0  0  0  0  0  0  0  0  0  0  0  0
  1  2  1  0
  2  3  2  0
  4  2  1  1
  4  5  1  0
  4  6  1  0
  5  7  2  0
  5  8  1  0
  6  9  2  0
  6 10  1  0
  7 11  1  0
  8 12  2  0
  9 13  1  0
 10 14  2  0
 11 15  1  0
 11 16  2  0
 12 16  1  0
 13 17  2  0
 14 17  1  0
 15 18  1  0
 18 19  2  3
 19 20  1  0
 19 21  1  0
 20 22  1  0
 22 23  2  0
 22 24  1  0
 23 25  1  0
 24 26  2  0
 25 27  2  0
 26 27  1  0
 27 28  1  0
 28 29  1  0
 29 30  2  0
 29 31  1  0
 30 32  1  0
 31 33  2  0
 32 34  2  0
 33 34  1  0
M  END
