mac-x0411-diamond-x0962_3_A
     RDKit          3D

 21 22  0  0  0  0  0  0  0  0999 V2000
    0.1220    8.1890   -6.7110 Cl  0  0  0  0  0  0  0  0  0  0  0  0
   -1.1110    9.2070   -6.0420 C   0  0  0  0  0  0  0  0  0  0  0  0
   -0.9200   10.5910   -5.7610 C   0  0  0  0  0  0  0  0  0  0  0  0
   -2.3260    8.5610   -5.7980 C   0  0  0  0  0  0  0  0  0  0  0  0
    0.3390   11.2060   -6.0190 N   0  0  0  0  0  0  0  0  0  0  0  0
   -2.0470   11.2790   -5.2260 C   0  0  0  0  0  0  0  0  0  0  0  0
   -3.3990    9.2640   -5.2720 C   0  0  0  0  0  0  0  0  0  0  0  0
   -2.0350   12.9640   -4.8250 Cl  0  0  0  0  0  0  0  0  0  0  0  0
    0.7420   12.3570   -5.1630 C   0  0  0  0  0  0  0  0  0  0  0  0
    0.9580   10.9920   -7.3390 C   0  0  0  0  0  0  0  0  0  0  0  0
   -3.2600   10.6160   -4.9890 C   0  0  0  0  0  0  0  0  0  0  0  0
    0.8180   12.1470   -3.6460 C   0  0  0  0  0  0  0  0  0  0  0  0
   -0.0540   11.0300   -8.5220 C   0  0  1  0  0  0  0  0  0  0  0  0
    1.5680   13.0510   -2.9810 O   0  0  0  0  0  0  0  0  0  0  0  0
    0.2630   11.2430   -3.0370 O   0  0  0  0  0  0  0  0  0  0  0  0
    0.6120   11.3890   -9.7800 N   0  0  0  0  0  0  0  0  0  0  0  0
   -0.7190    9.7200   -8.6900 C   0  0  0  0  0  0  0  0  0  0  0  0
   -0.1280    8.6120   -9.2490 N   0  0  0  0  0  0  0  0  0  0  0  0
   -1.9910    9.3090   -8.3590 C   0  0  0  0  0  0  0  0  0  0  0  0
   -1.0430    7.6060   -9.2290 C   0  0  0  0  0  0  0  0  0  0  0  0
   -2.1810    7.9960   -8.6980 N   0  0  0  0  0  0  0  0  0  0  0  0
  1  2  1  0
  2  3  2  0
  2  4  1  0
  3  5  1  0
  3  6  1  0
  4  7  2  0
  6  8  1  0
  5  9  1  0
  5 10  1  0
  6 11  2  0
  7 11  1  0
  9 12  1  0
 10 13  1  0
 12 14  1  0
 12 15  2  0
 13 16  1  6
 13 17  1  0
 17 18  1  0
 17 19  2  0
 18 20  1  0
 19 21  1  0
 20 21  2  0
M  END
