mac-x0411-diamond-x0905_0_A
     RDKit          3D

 23 24  0  0  0  0  0  0  0  0999 V2000
    0.6700    8.8580   -7.8560 Cl  0  0  0  0  0  0  0  0  0  0  0  0
   -0.6150    9.5160   -6.9040 C   0  0  0  0  0  0  0  0  0  0  0  0
   -0.5140   10.7510   -6.2260 C   0  0  0  0  0  0  0  0  0  0  0  0
   -1.7820    8.7590   -6.8390 C   0  0  0  0  0  0  0  0  0  0  0  0
    0.6760   11.4610   -6.3170 O   0  0  0  0  0  0  0  0  0  0  0  0
   -1.6250   11.2250   -5.4860 C   0  0  0  0  0  0  0  0  0  0  0  0
   -2.8670    9.2160   -6.1070 C   0  0  0  0  0  0  0  0  0  0  0  0
   -1.6660   12.5320   -4.7310 C   0  0  0  0  0  0  0  0  0  0  0  0
    0.9300   12.4600   -5.3120 C   0  0  0  0  0  0  0  0  0  0  0  0
   -2.7910   10.4340   -5.4430 C   0  0  0  0  0  0  0  0  0  0  0  0
    0.8820   11.9370   -3.8750 C   0  0  0  0  0  0  0  0  0  0  0  0
   -2.6010   12.5090   -3.5230 C   0  0  0  0  0  0  0  0  0  0  0  0
    1.3930   12.7730   -2.9490 O   0  0  0  0  0  0  0  0  0  0  0  0
    0.4350   10.8550   -3.5250 O   0  0  0  0  0  0  0  0  0  0  0  0
   -2.0340   13.2170   -2.2960 C   0  0  0  0  0  0  0  0  0  0  0  0
   -2.3860   14.7010   -2.2520 C   0  0  0  0  0  0  0  0  0  0  0  0
   -3.4660   14.9030   -1.2330 C   0  0  0  0  0  0  0  0  0  0  0  0
   -3.1170   15.0100    0.1140 C   0  0  0  0  0  0  0  0  0  0  0  0
   -4.8100   14.9740   -1.5970 C   0  0  0  0  0  0  0  0  0  0  0  0
   -4.1240   15.1740    1.0430 C   0  0  0  0  0  0  0  0  0  0  0  0
   -5.7260   15.1360   -0.5830 C   0  0  0  0  0  0  0  0  0  0  0  0
   -7.0540   15.2030   -0.8510 O   0  0  0  0  0  0  0  0  0  0  0  0
   -5.4290   15.2360    0.7200 N   0  0  0  0  0  0  0  0  0  0  0  0
  1  2  1  0
  2  3  2  0
  2  4  1  0
  3  5  1  0
  3  6  1  0
  4  7  2  0
  6  8  1  0
  5  9  1  0
  6 10  2  0
  7 10  1  0
  9 11  1  0
  8 12  1  0
 11 13  1  0
 11 14  2  0
 12 15  1  0
 15 16  1  0
 16 17  1  0
 17 18  2  0
 17 19  1  0
 18 20  1  0
 19 21  2  0
 21 22  1  0
 20 23  2  0
 21 23  1  0
M  END
