mac-x0357-diamond-x0421_0_A
     RDKit          3D

 21 23  0  0  0  0  0  0  0  0999 V2000
    2.2200   13.3450   -4.4030 C   0  0  0  0  0  0  0  0  0  0  0  0
    0.9240   12.6540   -4.7430 C   0  0  0  0  0  0  0  0  0  0  0  0
    0.8160   11.9550   -5.9570 C   0  0  0  0  0  0  0  0  0  0  0  0
   -0.2150   12.6720   -3.8780 C   0  0  0  0  0  0  0  0  0  0  0  0
    1.8910   11.9230   -6.7970 O   0  0  0  0  0  0  0  0  0  0  0  0
   -0.2150   13.3840   -2.5670 C   0  0  0  0  0  0  0  0  0  0  0  0
   -1.3880   11.9990   -4.2540 C   0  0  0  0  0  0  0  0  0  0  0  0
   -0.3540   11.2930   -6.3220 C   0  0  0  0  0  0  0  0  0  0  0  0
   -1.0760   13.9970   -1.7890 N   0  0  0  0  0  0  0  0  0  0  0  0
    1.0450   13.3420   -2.0890 O   0  0  0  0  0  0  0  0  0  0  0  0
   -1.4510   11.3160   -5.4690 C   0  0  0  0  0  0  0  0  0  0  0  0
   -2.5450   14.2310   -1.8980 C   0  0  2  0  0  0  0  0  0  0  0  0
   -2.9410   15.1900   -2.9240 N   0  0  0  0  0  0  0  0  0  0  0  0
   -3.2490   14.4720   -0.5520 C   0  0  0  0  0  0  0  0  0  0  0  0
   -2.7050   14.7700    0.6970 C   0  0  0  0  0  0  0  0  0  0  0  0
   -4.6390   14.3970   -0.4180 N   0  0  0  0  0  0  0  0  0  0  0  0
   -3.7600   14.8570    1.5630 N   0  0  0  0  0  0  0  0  0  0  0  0
   -4.8960   14.6270    0.8600 C   0  0  0  0  0  0  0  0  0  0  0  0
   -6.2960   14.6350    1.5370 C   0  0  0  0  0  0  0  0  0  0  0  0
   -7.5520   14.6320    0.7010 C   0  0  0  0  0  0  0  0  0  0  0  0
   -7.1420   13.3920    1.4480 C   0  0  0  0  0  0  0  0  0  0  0  0
  1  2  1  0
  2  3  2  0
  2  4  1  0
  3  5  1  0
  4  6  1  0
  4  7  2  0
  3  8  1  0
  6  9  2  3
  6 10  1  0
  7 11  1  0
  8 11  2  0
  9 12  1  0
 12 13  1  6
 12 14  1  0
 14 15  2  0
 14 16  1  0
 15 17  1  0
 16 18  2  0
 17 18  1  0
 18 19  1  0
 19 20  1  0
 19 21  1  0
 20 21  1  0
M  END
