mac-x0179-mac-x0397
     RDKit          3D

 28 31  0  0  0  0  0  0  0  0999 V2000
    1.5480   12.9100   -2.2680 O   0  0  0  0  0  0  0  0  0  0  0  0
    0.9850   12.1960   -3.2610 C   0  0  0  0  0  0  0  0  0  0  0  0
    0.6170   11.0490   -3.0360 O   0  0  0  0  0  0  0  0  0  0  0  0
    0.8620   12.9220   -4.5950 C   0  0  0  0  0  0  0  0  0  0  0  0
    0.1180   12.1860   -5.6080 N   0  0  0  0  0  0  0  0  0  0  0  0
    0.7520   11.5000   -6.5740 C   0  0  0  0  0  0  0  0  0  0  0  0
   -1.2120   11.8810   -5.5980 C   0  0  0  0  0  0  0  0  0  0  0  0
    1.8220   11.7110   -7.0480 O   0  0  0  0  0  0  0  0  0  0  0  0
   -2.0550   12.7120   -5.0940 N   0  0  0  0  0  0  0  0  0  0  0  0
   -0.1030   10.3790   -6.9240 C   0  0  0  0  0  0  0  0  0  0  0  0
   -1.3330   10.5720   -6.2970 C   0  0  0  0  0  0  0  0  0  0  0  0
   -1.7780   14.0650   -4.5660 C   0  0  0  0  0  0  0  0  0  0  0  0
    0.2010    9.2900   -7.7220 C   0  0  0  0  0  0  0  0  0  0  0  0
   -2.3180    9.6070   -6.4620 C   0  0  0  0  0  0  0  0  0  0  0  0
   -1.4360   14.2180   -3.0800 C   0  0  0  0  0  0  0  0  0  0  0  0
   -0.7890    8.3310   -7.8950 C   0  0  0  0  0  0  0  0  0  0  0  0
   -2.0380    8.4850   -7.2660 C   0  0  0  0  0  0  0  0  0  0  0  0
   -2.6360   14.4870   -2.2040 C   0  0  0  0  0  0  0  0  0  0  0  0
   -3.9080   14.6300   -2.7690 C   0  0  0  0  0  0  0  0  0  0  0  0
   -2.4760   14.5820   -0.8180 C   0  0  0  0  0  0  0  0  0  0  0  0
   -3.6090   14.7920   -0.0370 C   0  0  0  0  0  0  0  0  0  0  0  0
   -5.0100   14.8380   -1.9500 C   0  0  0  0  0  0  0  0  0  0  0  0
   -6.5990   15.0110   -2.5430 Cl  0  0  0  0  0  0  0  0  0  0  0  0
   -4.8860   14.9090   -0.5730 C   0  0  0  0  0  0  0  0  0  0  0  0
   -3.7100   14.9380    1.6420 S   0  0  0  0  0  0  0  0  0  0  0  0
   -5.4220   15.0870    1.5290 C   0  0  0  0  0  0  0  0  0  0  0  0
   -5.9030   15.0750    0.3340 N   0  0  0  0  0  0  0  0  0  0  0  0
   -6.2240   15.2020    2.5960 N   0  0  0  0  0  0  0  0  0  0  0  0
  1  2  1  0
  2  3  2  0
  2  4  1  0
  4  5  1  0
  5  6  1  0
  5  7  1  0
  6  8  2  0
  7  9  2  3
  6 10  1  0
  7 11  1  0
 10 11  2  0
  9 12  1  0
 10 13  1  0
 11 14  1  0
 12 15  1  0
 13 16  2  0
 14 17  2  0
 16 17  1  0
 15 18  1  0
 18 19  2  0
 18 20  1  0
 20 21  2  0
 19 22  1  0
 22 23  1  0
 21 24  1  0
 22 24  2  0
 21 25  1  0
 25 26  1  0
 24 27  1  0
 26 27  2  0
 26 28  1  0
M  END
