mac-x0365-mac-x0394
     RDKit          3D

 24 25  0  0  0  0  0  0  0  0999 V2000
   -1.0300   14.8360   -1.1770 O   0  0  0  0  0  0  0  0  0  0  0  0
   -2.1200   14.7890   -1.9660 C   0  0  0  0  0  0  0  0  0  0  0  0
   -2.0940   14.6470   -3.2240 N   0  0  0  0  0  0  0  0  0  0  0  0
   -3.4080   14.9000   -1.3120 C   0  0  0  0  0  0  0  0  0  0  0  0
   -3.3550   14.6270   -4.0010 C   0  0  0  0  0  0  0  0  0  0  0  0
   -4.4960   15.0210   -2.1650 C   0  0  0  0  0  0  0  0  0  0  0  0
   -3.5770   14.8780    0.0750 C   0  0  0  0  0  0  0  0  0  0  0  0
   -3.0250   15.2850   -5.3240 C   0  0  0  0  0  0  0  0  0  0  0  0
   -5.7520   15.1040   -1.6470 C   0  0  0  0  0  0  0  0  0  0  0  0
   -4.8670   14.9640    0.5950 C   0  0  0  0  0  0  0  0  0  0  0  0
   -6.8020   15.2090   -2.4670 F   0  0  0  0  0  0  0  0  0  0  0  0
   -5.9490   15.0700   -0.2830 C   0  0  0  0  0  0  0  0  0  0  0  0
   -1.5660   15.5070   -5.1850 C   0  0  0  0  0  0  0  0  0  0  0  0
   -7.2160   15.1370    0.2100 O   0  0  0  0  0  0  0  0  0  0  0  0
   -0.7840   14.3740   -4.9190 C   0  0  0  0  0  0  0  0  0  0  0  0
   -0.9760   16.7480   -5.2880 C   0  0  0  0  0  0  0  0  0  0  0  0
    0.5860   14.4530   -4.7390 C   0  0  0  0  0  0  0  0  0  0  0  0
    0.3900   16.8420   -5.1190 C   0  0  0  0  0  0  0  0  0  0  0  0
    1.0880   18.3830   -5.2610 Cl  0  0  0  0  0  0  0  0  0  0  0  0
    1.3940   13.2050   -4.4420 C   0  0  0  0  0  0  0  0  0  0  0  0
    1.1750   15.7120   -4.8420 C   0  0  0  0  0  0  0  0  0  0  0  0
    0.9990   12.4790   -3.1500 C   0  0  0  0  0  0  0  0  0  0  0  0
    0.3670   11.2970   -3.3760 O   0  0  0  0  0  0  0  0  0  0  0  0
    1.2040   12.8650   -2.0070 O   0  0  0  0  0  0  0  0  0  0  0  0
  1  2  1  0
  2  3  2  3
  2  4  1  0
  3  5  1  0
  4  6  2  0
  4  7  1  0
  5  8  1  0
  6  9  1  0
  7 10  2  0
  9 11  1  0
  9 12  2  0
 10 12  1  0
  8 13  1  0
 12 14  1  0
 13 15  2  0
 13 16  1  0
 15 17  1  0
 16 18  2  0
 18 19  1  0
 17 20  1  0
 17 21  2  0
 18 21  1  0
 20 22  1  0
 22 23  1  0
 22 24  2  0
M  END
