mac-x0303-mac-x0223
     RDKit          3D

 28 30  0  0  0  0  0  0  0  0999 V2000
   -8.4660   12.9890    2.8660 N   0  0  0  0  0  0  0  0  0  0  0  0
   -8.5750   14.5520    2.2470 S   0  0  0  0  0  0  0  0  0  0  0  0
   -8.2830   15.5080    3.2830 O   0  0  0  0  0  0  0  0  0  0  0  0
   -9.7700   14.6140    1.4420 O   0  0  0  0  0  0  0  0  0  0  0  0
   -7.2480   14.6830    1.1030 C   0  0  0  0  0  0  0  0  0  0  0  0
   -7.4500   14.6790   -0.2380 N   0  0  0  0  0  0  0  0  0  0  0  0
   -5.9630   14.7960    1.4050 N   0  0  0  0  0  0  0  0  0  0  0  0
   -6.2400   14.7880   -0.8450 C   0  0  0  0  0  0  0  0  0  0  0  0
   -5.3220   14.8620    0.1990 C   0  0  0  0  0  0  0  0  0  0  0  0
   -5.8970   14.8220   -2.1830 C   0  0  0  0  0  0  0  0  0  0  0  0
   -3.9600   14.9840   -0.0890 C   0  0  0  0  0  0  0  0  0  0  0  0
   -4.5500   14.9300   -2.4730 C   0  0  0  0  0  0  0  0  0  0  0  0
   -3.5890   15.0150   -1.4370 C   0  0  0  0  0  0  0  0  0  0  0  0
   -4.0940   14.9630   -3.9060 C   0  0  0  0  0  0  0  0  0  0  0  0
   -3.0570   16.0290   -3.7910 C   0  0  0  0  0  0  0  0  0  0  0  0
   -2.7240   16.8630   -4.9290 O   0  0  0  0  0  0  0  0  0  0  0  0
   -1.5780   16.2070   -4.8970 C   0  0  0  0  0  0  0  0  0  0  0  0
   -0.2760   16.6990   -4.8930 C   0  0  0  0  0  0  0  0  0  0  0  0
   -1.8830   14.8720   -4.8260 C   0  0  0  0  0  0  0  0  0  0  0  0
   -0.0860   18.0470   -4.9780 O   0  0  0  0  0  0  0  0  0  0  0  0
   -0.9030   13.9540   -4.7200 C   0  0  0  0  0  0  0  0  0  0  0  0
    0.7420   15.7390   -4.7830 C   0  0  0  0  0  0  0  0  0  0  0  0
    1.1390   18.4130   -5.5800 C   0  0  0  0  0  0  0  0  0  0  0  0
    0.4120   14.3650   -4.6860 C   0  0  0  0  0  0  0  0  0  0  0  0
    1.4170   13.2690   -4.5240 C   0  0  0  0  0  0  0  0  0  0  0  0
    1.0010   12.4180   -3.3350 C   0  0  0  0  0  0  0  0  0  0  0  0
    0.4140   11.3430   -3.3180 O   0  0  0  0  0  0  0  0  0  0  0  0
    1.3350   13.0050   -2.1610 O   0  0  0  0  0  0  0  0  0  0  0  0
  2  1  1  0
  2  3  2  0
  2  4  2  0
  2  5  1  0
  5  6  1  0
  5  7  2  0
  6  8  1  0
  7  9  1  0
  8  9  2  0
  8 10  1  0
  9 11  1  0
 10 12  2  0
 11 13  2  0
 12 13  1  0
 12 14  1  0
 14 15  1  0
 15 16  1  0
 16 17  1  0
 17 18  2  0
 17 19  1  0
 18 20  1  0
 19 21  2  0
 18 22  1  0
 20 23  1  0
 21 24  1  0
 22 24  2  0
 24 25  1  0
 25 26  1  0
 26 27  2  0
 26 28  1  0
M  END
