mac-x0338-mac-x0453
     RDKit          3D

 10 10  0  0  0  0  0  0  0  0999 V2000
   -4.4300   15.3530    2.1610 N   0  0  0  0  0  0  0  0  0  0  0  0
   -5.2490   14.9650    1.1240 C   0  0  0  0  0  0  0  0  0  0  0  0
   -6.4710   14.5980    1.4570 N   0  0  0  0  0  0  0  0  0  0  0  0
   -4.7170   14.9870   -0.2780 C   0  0  0  0  0  0  0  0  0  0  0  0
   -6.9210   14.5890    2.7170 N   0  0  0  0  0  0  0  0  0  0  0  0
   -3.3730   14.9290   -0.4900 N   0  0  0  0  0  0  0  0  0  0  0  0
   -5.6150   15.0600   -1.3320 C   0  0  0  0  0  0  0  0  0  0  0  0
   -2.9940   14.9480   -1.7880 C   0  0  0  0  0  0  0  0  0  0  0  0
   -5.2290   15.0750   -2.6280 N   0  0  0  0  0  0  0  0  0  0  0  0
   -3.8980   15.0200   -2.8310 C   0  0  0  0  0  0  0  0  0  0  0  0
  1  2  1  0
  2  3  2  3
  2  4  1  0
  3  5  1  0
  4  6  2  0
  4  7  1  0
  6  8  1  0
  7  9  2  0
  8 10  2  0
  9 10  1  0
M  END
