mac-x0397-mac-x0333
     RDKit          3D

 12 13  0  0  0  0  0  0  0  0999 V2000
   -6.7840   15.3140   -2.3310 Cl  0  0  0  0  0  0  0  0  0  0  0  0
   -5.1800   15.1150   -1.7960 C   0  0  0  0  0  0  0  0  0  0  0  0
   -5.0450   14.9320   -0.4250 C   0  0  0  0  0  0  0  0  0  0  0  0
   -4.0840   15.1270   -2.6450 C   0  0  0  0  0  0  0  0  0  0  0  0
   -6.0590   14.9070    0.5090 N   0  0  0  0  0  0  0  0  0  0  0  0
   -3.7620   14.7530    0.0760 C   0  0  0  0  0  0  0  0  0  0  0  0
   -2.8250   14.9460   -2.1040 C   0  0  0  0  0  0  0  0  0  0  0  0
   -1.7860   14.9690   -2.9760 O   0  0  0  0  0  0  0  0  0  0  0  0
   -5.5790   14.7220    1.6950 C   0  0  0  0  0  0  0  0  0  0  0  0
   -3.8720   14.5520    1.7590 S   0  0  0  0  0  0  0  0  0  0  0  0
   -2.6250   14.7530   -0.7380 C   0  0  0  0  0  0  0  0  0  0  0  0
   -6.3930   14.6800    2.7700 N   0  0  0  0  0  0  0  0  0  0  0  0
  1  2  1  0
  2  3  2  0
  2  4  1  0
  3  5  1  0
  3  6  1  0
  4  7  2  0
  7  8  1  0
  5  9  2  0
  6 10  1  0
  9 10  1  0
  6 11  2  0
  7 11  1  0
  9 12  1  0
M  END
