mac-x0527-mac-x0132
     RDKit          3D

 21 23  0  0  0  0  0  0  0  0999 V2000
   -3.9590   15.3080   -3.2870 O   0  0  0  0  0  0  0  0  0  0  0  0
   -3.1950   14.9280   -2.4030 C   0  0  0  0  0  0  0  0  0  0  0  0
   -1.8550   14.6620   -2.6280 N   0  0  0  0  0  0  0  0  0  0  0  0
   -3.6650   14.7160   -0.9810 C   0  0  0  0  0  0  0  0  0  0  0  0
   -1.2410   14.7650   -3.9390 C   0  0  0  0  0  0  0  0  0  0  0  0
   -2.7560   14.2770   -0.0440 N   0  0  0  0  0  0  0  0  0  0  0  0
   -4.8900   14.8610   -0.4260 C   0  0  0  0  0  0  0  0  0  0  0  0
   -1.0650   13.4030   -4.5790 C   0  0  0  0  0  0  0  0  0  0  0  0
   -6.2260   15.2330   -0.8470 C   0  0  0  0  0  0  0  0  0  0  0  0
   -4.8880   14.5490    1.0070 C   0  0  1  0  0  0  0  0  0  0  0  0
   -3.4400   14.1460    1.0560 C   0  0  0  0  0  0  0  0  0  0  0  0
   -4.9090   15.6090    1.9610 N   0  0  0  0  0  0  0  0  0  0  0  0
   -1.9470   12.3530   -4.2710 C   0  0  0  0  0  0  0  0  0  0  0  0
   -0.0220   13.1630   -5.4920 C   0  0  0  0  0  0  0  0  0  0  0  0
   -6.4770   16.1230   -1.7830 N   0  0  0  0  0  0  0  0  0  0  0  0
   -7.2570   14.6730   -0.2960 N   0  0  0  0  0  0  0  0  0  0  0  0
   -5.9250   13.5950    1.3280 N   0  0  0  0  0  0  0  0  0  0  0  0
   -1.7900   11.0980   -4.8590 C   0  0  0  0  0  0  0  0  0  0  0  0
    0.1310   11.9080   -6.0780 C   0  0  0  0  0  0  0  0  0  0  0  0
   -7.0220   13.7360    0.6690 C   0  0  0  0  0  0  0  0  0  0  0  0
   -0.7520   10.8720   -5.7630 C   0  0  0  0  0  0  0  0  0  0  0  0
  1  2  2  0
  2  3  1  0
  2  4  1  0
  3  5  1  0
  4  6  1  0
  4  7  2  0
  5  8  1  0
  7  9  1  0
  7 10  1  0
  6 11  2  0
 10 11  1  0
 10 12  1  1
  8 13  2  0
  8 14  1  0
  9 15  1  0
  9 16  2  0
 10 17  1  0
 13 18  1  0
 14 19  2  0
 16 20  1  0
 17 20  2  0
 18 21  2  0
 19 21  1  0
M  END
