mac-x0178-diamond-x0592_0_A
     RDKit          3D

 26 27  0  0  0  0  0  0  0  0999 V2000
   -0.3070   18.0950   -6.5010 N   0  0  0  0  0  0  0  0  0  0  0  0
   -1.6820   17.5590   -5.7030 S   0  0  0  0  0  0  0  0  0  0  0  0
   -2.6040   17.1060   -6.7150 O   0  0  0  0  0  0  0  0  0  0  0  0
   -2.0260   18.5920   -4.7590 O   0  0  0  0  0  0  0  0  0  0  0  0
   -1.0750   16.1870   -4.7570 C   0  0  0  0  0  0  0  0  0  0  0  0
    0.1750   16.2870   -4.1400 C   0  0  0  0  0  0  0  0  0  0  0  0
   -1.8490   15.0340   -4.6210 C   0  0  0  0  0  0  0  0  0  0  0  0
    0.6420   15.2300   -3.3590 C   0  0  0  0  0  0  0  0  0  0  0  0
   -1.3740   13.9800   -3.8360 C   0  0  0  0  0  0  0  0  0  0  0  0
   -0.1280   14.0690   -3.1850 C   0  0  0  0  0  0  0  0  0  0  0  0
    0.3530   12.9300   -2.2880 C   0  0  0  0  0  0  0  0  0  0  0  0
    1.7600   12.9500   -2.1990 O   0  0  0  0  0  0  0  0  0  0  0  0
    0.0270   11.6490   -2.7970 O   0  0  0  0  0  0  0  0  0  0  0  0
   -0.2960   13.1810   -0.9070 C   0  0  0  0  0  0  0  0  0  0  0  0
   -0.8800   14.5740   -0.6340 C   0  0  0  0  0  0  0  0  0  0  0  0
   -2.3240   14.6290   -0.8700 N   0  0  0  0  0  0  0  0  0  0  0  0
   -3.2110   14.7090    0.0600 C   0  0  0  0  0  0  0  0  0  0  0  0
   -2.8470   14.7330    1.3850 N   0  0  0  0  0  0  0  0  0  0  0  0
   -4.6380   14.7820   -0.1370 C   0  0  0  0  0  0  0  0  0  0  0  0
   -5.3870   15.1420   -1.2880 C   0  0  0  0  0  0  0  0  0  0  0  0
   -5.6050   14.5010    0.8000 C   0  0  0  0  0  0  0  0  0  0  0  0
   -6.7110   15.0860   -1.0810 N   0  0  0  0  0  0  0  0  0  0  0  0
   -6.8100   14.6940    0.2040 N   0  0  0  0  0  0  0  0  0  0  0  0
   -8.0990   14.5130    0.8380 C   0  0  0  0  0  0  0  0  0  0  0  0
   -7.9440   14.0730    2.2920 C   0  0  0  0  0  0  0  0  0  0  0  0
   -7.1820   15.0350    3.0190 O   0  0  0  0  0  0  0  0  0  0  0  0
  2  1  1  0
  2  3  2  0
  2  4  2  0
  2  5  1  0
  5  6  2  0
  5  7  1  0
  6  8  1  0
  7  9  2  0
  8 10  2  0
  9 10  1  0
 10 11  1  0
 11 12  1  0
 11 13  1  0
 11 14  1  0
 14 15  1  0
 15 16  1  0
 16 17  2  3
 17 18  1  0
 17 19  1  0
 19 20  1  0
 19 21  2  0
 20 22  2  0
 21 23  1  0
 22 23  1  0
 23 24  1  0
 24 25  1  0
 25 26  1  0
M  END
