mac-x0124-diamond-x0711_0_A
     RDKit          3D

 17 18  0  0  0  0  0  0  0  0999 V2000
   -0.8530   14.2750   -3.2580 C   0  0  0  0  0  0  0  0  0  0  0  0
   -1.3550   13.4270   -4.4170 C   0  0  0  0  0  0  0  0  0  0  0  0
   -0.2530   15.4630   -3.7440 O   0  0  0  0  0  0  0  0  0  0  0  0
    0.1960   13.5640   -2.6150 O   0  0  0  0  0  0  0  0  0  0  0  0
   -1.8960   14.5070   -2.2260 N   0  0  0  0  0  0  0  0  0  0  0  0
   -3.2910   14.5720   -2.3680 C   0  0  0  0  0  0  0  0  0  0  0  0
   -1.5870   14.6830   -0.9110 C   0  0  0  0  0  0  0  0  0  0  0  0
   -3.8810   14.7840   -1.0920 C   0  0  0  0  0  0  0  0  0  0  0  0
   -2.7710   14.8600   -0.2000 C   0  0  0  0  0  0  0  0  0  0  0  0
   -0.3340   14.6790   -0.4140 N   0  0  0  0  0  0  0  0  0  0  0  0
   -5.3240   14.9000   -0.6560 C   0  0  0  0  0  0  0  0  0  0  0  0
   -2.6370   15.0610    1.1630 C   0  0  0  0  0  0  0  0  0  0  0  0
   -0.3510   14.8710    0.9140 C   0  0  0  0  0  0  0  0  0  0  0  0
   -3.7020   15.2820    2.0010 N   0  0  0  0  0  0  0  0  0  0  0  0
   -5.5930   14.7720    0.6880 N   0  0  0  0  0  0  0  0  0  0  0  0
   -6.2860   15.0810   -1.3980 O   0  0  0  0  0  0  0  0  0  0  0  0
   -1.4170   15.0540    1.7030 N   0  0  0  0  0  0  0  0  0  0  0  0
  1  2  1  0
  1  3  1  0
  1  4  1  0
  1  5  1  0
  5  6  1  0
  5  7  1  0
  6  8  2  0
  7  9  2  0
  8  9  1  0
  7 10  1  0
  8 11  1  0
  9 12  1  0
 10 13  2  0
 12 14  1  0
 11 15  1  0
 11 16  2  0
 12 17  2  0
 13 17  1  0
M  END
