mac-x0348-diamond-x0685_0_A
     RDKit          3D

 26 28  0  0  0  0  0  0  0  0999 V2000
    0.9230   18.4500   -6.1870 C   0  0  0  0  0  0  0  0  0  0  0  0
    0.2980   17.4380   -5.3710 N   0  0  0  0  0  0  0  0  0  0  0  0
    0.8940   16.7200   -4.3810 C   0  0  0  0  0  0  0  0  0  0  0  0
   -1.0010   17.0550   -5.4810 C   0  0  0  0  0  0  0  0  0  0  0  0
   -0.0160   15.8670   -3.8310 C   0  0  0  0  0  0  0  0  0  0  0  0
   -1.2430   16.0890   -4.5060 C   0  0  0  0  0  0  0  0  0  0  0  0
   -1.9790   17.4880   -6.3520 C   0  0  0  0  0  0  0  0  0  0  0  0
    0.2840   14.9020   -2.7400 C   0  0  0  0  0  0  0  0  0  0  0  0
   -2.5480   15.5950   -4.4010 C   0  0  0  0  0  0  0  0  0  0  0  0
   -3.2150   16.9110   -6.2250 C   0  0  0  0  0  0  0  0  0  0  0  0
    0.7010   13.5570   -3.3540 C   0  0  0  0  0  0  0  0  0  0  0  0
   -2.9480   14.7420   -3.3620 C   0  0  0  0  0  0  0  0  0  0  0  0
   -3.5090   15.9830   -5.2750 C   0  0  0  0  0  0  0  0  0  0  0  0
    0.5340   12.4210   -2.3940 C   0  0  0  0  0  0  0  0  0  0  0  0
   -3.4270   14.4890   -2.2980 C   0  0  0  0  0  0  0  0  0  0  0  0
    0.5850   12.5470   -1.1870 O   0  0  0  0  0  0  0  0  0  0  0  0
    0.3020   11.2280   -2.9680 O   0  0  0  0  0  0  0  0  0  0  0  0
   -4.0450   14.5710   -1.0100 C   0  0  0  0  0  0  0  0  0  0  0  0
   -3.2960   14.6850    0.1540 C   0  0  0  0  0  0  0  0  0  0  0  0
   -5.4260   14.5550   -0.8820 C   0  0  0  0  0  0  0  0  0  0  0  0
   -3.9540   14.7690    1.3790 C   0  0  0  0  0  0  0  0  0  0  0  0
   -6.0850   14.6360    0.2990 N   0  0  0  0  0  0  0  0  0  0  0  0
   -5.3490   14.7400    1.4210 C   0  0  0  0  0  0  0  0  0  0  0  0
   -5.9540   14.8210    2.6790 N   0  0  0  0  0  0  0  0  0  0  0  0
   -7.4080   14.7730    2.7800 C   0  0  0  0  0  0  0  0  0  0  0  0
   -7.8720   13.3520    3.0440 C   0  0  0  0  0  0  0  0  0  0  0  0
  1  2  1  0
  2  3  1  0
  2  4  1  0
  3  5  2  0
  4  6  2  0
  5  6  1  0
  4  7  1  0
  5  8  1  0
  6  9  1  0
  7 10  2  0
  8 11  1  0
  9 12  1  0
  9 13  2  0
 10 13  1  0
 11 14  1  0
 12 15  3  0
 14 16  2  0
 14 17  1  0
 15 18  1  0
 18 19  2  0
 18 20  1  0
 19 21  1  0
 20 22  2  0
 21 23  2  0
 22 23  1  0
 23 24  1  0
 24 25  1  0
 25 26  1  0
M  END
