mac-x0546-mac-x0496
     RDKit          3D

 35 38  0  0  0  0  0  0  0  0999 V2000
   -4.2150   15.2200   -6.5370 C   0  0  0  0  0  0  0  0  0  0  0  0
   -3.7690   15.7380   -5.2660 N   0  0  0  0  0  0  0  0  0  0  0  0
   -4.4150   14.8890   -4.2190 C   0  0  0  0  0  0  0  0  0  0  0  0
   -2.4240   15.8990   -4.9790 C   0  0  0  0  0  0  0  0  0  0  0  0
   -3.4050   14.4960   -3.3140 O   0  0  0  0  0  0  0  0  0  0  0  0
   -1.7500   14.8110   -4.6510 C   0  0  0  0  0  0  0  0  0  0  0  0
   -1.7310   17.2160   -4.9600 C   0  0  0  0  0  0  0  0  0  0  0  0
   -2.8290   15.3830   -2.4760 C   0  0  0  0  0  0  0  0  0  0  0  0
   -0.3740   14.8880   -4.1940 C   0  0  2  0  0  0  0  0  0  0  0  0
   -0.3860   17.3620   -4.8160 C   0  0  0  0  0  0  0  0  0  0  0  0
   -1.9430   16.1650   -2.7400 O   0  0  0  0  0  0  0  0  0  0  0  0
    0.3520   16.0950   -4.6850 C   0  0  0  0  0  0  0  0  0  0  0  0
    0.6690   13.8770   -4.4270 C   0  0  0  0  0  0  0  0  0  0  0  0
   -3.4260   15.2290   -1.1380 C   0  0  0  0  0  0  0  0  0  0  0  0
    0.4540   12.4290   -4.2530 C   0  0  0  0  0  0  0  0  0  0  0  0
    1.5940   15.8790   -4.9200 N   0  0  0  0  0  0  0  0  0  0  0  0
    1.7540   14.5200   -4.7540 C   0  0  0  0  0  0  0  0  0  0  0  0
   -2.6010   15.3080   -0.0120 C   0  0  0  0  0  0  0  0  0  0  0  0
   -4.7930   15.0010   -0.9930 C   0  0  0  0  0  0  0  0  0  0  0  0
    0.6340   11.9430   -2.8510 C   0  0  0  0  0  0  0  0  0  0  0  0
   -3.1520   15.1580    1.2570 C   0  0  0  0  0  0  0  0  0  0  0  0
   -5.3410   14.8510    0.2720 C   0  0  0  0  0  0  0  0  0  0  0  0
    0.9870   12.6010   -1.8920 O   0  0  0  0  0  0  0  0  0  0  0  0
    0.3440   10.6330   -2.7440 O   0  0  0  0  0  0  0  0  0  0  0  0
   -6.7970   14.6050    0.4490 C   0  0  0  0  0  0  0  0  0  0  0  0
   -4.5210   14.9330    1.3970 C   0  0  0  0  0  0  0  0  0  0  0  0
   -7.2400   14.2790    1.7110 N   0  0  0  0  0  0  0  0  0  0  0  0
   -7.5430   14.6990   -0.5180 O   0  0  0  0  0  0  0  0  0  0  0  0
   -8.6530   13.9900    1.9130 C   0  0  0  0  0  0  0  0  0  0  0  0
   -9.3140   15.1580    2.5540 C   0  0  0  0  0  0  0  0  0  0  0  0
  -10.4900   15.5960    2.0140 O   0  0  0  0  0  0  0  0  0  0  0  0
   -8.9390   15.8600    3.5950 N   0  0  0  0  0  0  0  0  0  0  0  0
   -9.9300   16.7850    3.7160 C   0  0  0  0  0  0  0  0  0  0  0  0
  -10.9000   16.6780    2.8020 N   0  0  0  0  0  0  0  0  0  0  0  0
   -9.9160   17.8090    4.7820 C   0  0  0  0  0  0  0  0  0  0  0  0
  1  2  1  0
  2  3  1  0
  2  4  1  0
  3  5  1  0
  4  6  2  0
  4  7  1  0
  5  8  1  0
  9  6  1  6
  7 10  2  0
  8 11  2  0
  9 12  1  0
 10 12  1  0
  9 13  1  0
  8 14  1  0
 13 15  1  0
 12 16  2  0
 13 17  2  0
 16 17  1  0
 14 18  2  0
 14 19  1  0
 15 20  1  0
 18 21  1  0
 19 22  2  0
 20 23  2  0
 20 24  1  0
 22 25  1  0
 21 26  2  0
 22 26  1  0
 25 27  1  0
 25 28  2  0
 27 29  1  0
 29 30  1  0
 30 31  1  0
 30 32  2  0
 32 33  1  0
 31 34  1  0
 33 34  2  0
 33 35  1  0
M  END
