mac-x0385-diamond-x0471_0_A
     RDKit          3D

 24 26  0  0  0  0  0  0  0  0999 V2000
   -2.9850   15.1670   -2.9720 C   0  0  0  0  0  0  0  0  0  0  0  0
   -2.3060   14.8690   -1.6800 C   0  0  0  0  0  0  0  0  0  0  0  0
   -0.9570   14.8160   -1.6450 C   0  0  0  0  0  0  0  0  0  0  0  0
   -2.9840   14.6400   -0.5070 C   0  0  0  0  0  0  0  0  0  0  0  0
   -2.3680   14.3750    0.6620 N   0  0  0  0  0  0  0  0  0  0  0  0
   -0.2800   14.5570   -0.5560 N   0  0  0  0  0  0  0  0  0  0  0  0
   -4.4010   14.7080   -0.7610 C   0  0  0  0  0  0  0  0  0  0  0  0
   -1.0070   14.3450    0.5450 C   0  0  0  0  0  0  0  0  0  0  0  0
   -5.6130   14.5640   -0.0330 C   0  0  0  0  0  0  0  0  0  0  0  0
   -4.5150   14.9650   -2.1120 C   0  0  0  0  0  0  0  0  0  0  0  0
   -0.1980   14.0360    1.7190 C   0  0  0  0  0  0  0  0  0  0  0  0
   -5.9510   14.3030    1.2740 N   0  0  0  0  0  0  0  0  0  0  0  0
   -6.7960   14.7050   -0.7780 C   0  0  0  0  0  0  0  0  0  0  0  0
   -5.6860   15.0840   -2.7740 C   0  0  0  0  0  0  0  0  0  0  0  0
   -7.8110   14.5280    0.0800 N   0  0  0  0  0  0  0  0  0  0  0  0
   -7.2830   14.2830    1.2910 C   0  0  0  0  0  0  0  0  0  0  0  0
   -6.8670   14.9640   -2.1240 C   0  0  0  0  0  0  0  0  0  0  0  0
   -8.1790   14.0330    2.4240 C   0  0  0  0  0  0  0  0  0  0  0  0
   -7.6330   14.7420    3.5170 N   0  0  0  0  0  0  0  0  0  0  0  0
   -8.4630   15.3360    4.4130 C   0  0  0  0  0  0  0  0  0  0  0  0
   -9.0960   16.3600    4.1540 O   0  0  0  0  0  0  0  0  0  0  0  0
   -8.5300   14.5850    5.7290 C   0  0  0  0  0  0  0  0  0  0  0  0
   -9.7950   13.7370    5.8120 C   0  0  0  0  0  0  0  0  0  0  0  0
   -8.4460   15.5600    6.8960 C   0  0  0  0  0  0  0  0  0  0  0  0
  1  2  1  0
  2  3  2  0
  2  4  1  0
  4  5  2  0
  3  6  1  0
  4  7  1  0
  5  8  1  0
  6  8  2  0
  7  9  1  0
  7 10  2  0
  8 11  1  0
  9 12  1  0
  9 13  2  0
 10 14  1  0
 13 15  1  0
 12 16  2  0
 15 16  1  0
 13 17  1  0
 14 17  2  0
 16 18  1  0
 18 19  1  0
 19 20  1  0
 20 21  2  0
 20 22  1  0
 22 23  1  0
 22 24  1  0
M  END
