mac-x0436-diamond-x0962_1_A
     RDKit          3D

 25 27  0  0  0  0  0  0  0  0999 V2000
    0.7250   11.1480   -2.9570 O   0  0  0  0  0  0  0  0  0  0  0  0
    1.2180   12.4050   -2.9240 C   0  0  0  0  0  0  0  0  0  0  0  0
    1.3640   12.9790   -1.8640 O   0  0  0  0  0  0  0  0  0  0  0  0
    1.5390   12.9380   -4.3000 C   0  0  0  0  0  0  0  0  0  0  0  0
    0.2980   13.3000   -5.1110 C   0  0  0  0  0  0  0  0  0  0  0  0
   -0.4760   12.0510   -5.4720 C   0  0  0  0  0  0  0  0  0  0  0  0
   -1.8150   11.6980   -4.7420 C   0  0  0  0  0  0  0  0  0  0  0  0
    0.0150   11.2870   -6.4110 N   0  0  0  0  0  0  0  0  0  0  0  0
   -2.3030   12.5160   -3.8500 N   0  0  0  0  0  0  0  0  0  0  0  0
   -2.3880   10.5020   -5.1210 N   0  0  0  0  0  0  0  0  0  0  0  0
   -0.6660   10.1200   -6.7870 C   0  0  0  0  0  0  0  0  0  0  0  0
   -1.7660   13.8040   -3.3860 C   0  0  0  0  0  0  0  0  0  0  0  0
   -1.8560    9.7190   -6.1540 C   0  0  0  0  0  0  0  0  0  0  0  0
   -0.1340    9.3420   -7.8160 C   0  0  0  0  0  0  0  0  0  0  0  0
   -2.8500   14.9050   -3.3830 C   0  0  0  0  0  0  0  0  0  0  0  0
   -0.7770    8.1700   -8.2210 C   0  0  0  0  0  0  0  0  0  0  0  0
   -2.4960    8.5440   -6.5650 C   0  0  0  0  0  0  0  0  0  0  0  0
   -3.6340   14.9810   -2.1290 C   0  0  0  0  0  0  0  0  0  0  0  0
   -1.9590    7.7730   -7.5940 C   0  0  0  0  0  0  0  0  0  0  0  0
   -4.4020   14.9770   -1.1950 C   0  0  0  0  0  0  0  0  0  0  0  0
   -5.4160   14.8250   -0.2160 C   0  0  0  0  0  0  0  0  0  0  0  0
   -5.2380   14.8420    1.1380 N   0  0  0  0  0  0  0  0  0  0  0  0
   -6.7680   14.6280   -0.3920 C   0  0  0  0  0  0  0  0  0  0  0  0
   -6.4640   14.6510    1.7210 C   0  0  0  0  0  0  0  0  0  0  0  0
   -7.4130   14.5180    0.8150 N   0  0  0  0  0  0  0  0  0  0  0  0
  1  2  1  0
  2  3  2  0
  2  4  1  0
  4  5  1  0
  5  6  1  0
  6  7  1  0
  6  8  2  0
  7  9  2  3
  7 10  1  0
  8 11  1  0
  9 12  1  0
 10 13  1  0
 11 13  2  0
 11 14  1  0
 12 15  1  0
 14 16  2  0
 13 17  1  0
 15 18  1  0
 16 19  1  0
 17 19  2  0
 18 20  3  0
 20 21  1  0
 21 22  1  0
 21 23  2  0
 22 24  1  0
 23 25  1  0
 24 25  2  0
M  END
