mac-x0182-mac-x0439
     RDKit          3D

 27 30  0  0  0  0  0  0  0  0999 V2000
    1.6350   11.6480   -7.2910 O   0  0  0  0  0  0  0  0  0  0  0  0
    0.7330   11.3160   -6.5910 C   0  0  0  0  0  0  0  0  0  0  0  0
    0.5050   11.7990   -5.3480 N   0  0  0  0  0  0  0  0  0  0  0  0
   -0.2500   10.2830   -6.9750 C   0  0  0  0  0  0  0  0  0  0  0  0
   -0.9170   11.1580   -4.7400 S   0  0  2  0  0  0  0  0  0  0  0  0
   -1.2290   10.0890   -6.0230 C   0  0  0  0  0  0  0  0  0  0  0  0
   -0.2660    9.5410   -8.1320 C   0  0  0  0  0  0  0  0  0  0  0  0
   -1.8410   12.2620   -4.7890 O   0  0  0  0  0  0  0  0  0  0  0  0
   -0.4590   10.3300   -3.5650 N   0  0  0  0  0  0  0  0  0  0  0  0
   -2.2560    9.1770   -6.1370 C   0  0  0  0  0  0  0  0  0  0  0  0
   -1.2990    8.6010   -8.2870 C   0  0  0  0  0  0  0  0  0  0  0  0
    0.4810   10.9340   -2.6580 C   0  0  0  0  0  0  0  0  0  0  0  0
   -2.2880    8.4190   -7.2950 C   0  0  0  0  0  0  0  0  0  0  0  0
    0.4690   12.4490   -2.7970 C   0  0  0  0  0  0  0  0  0  0  0  0
    1.5380   13.0740   -2.0650 N   0  0  0  0  0  0  0  0  0  0  0  0
    1.7460   14.2560   -2.3970 C   0  0  0  0  0  0  0  0  0  0  0  0
    2.7600   14.8270   -1.7210 O   0  0  0  0  0  0  0  0  0  0  0  0
    1.0810   15.1260   -3.4250 C   0  0  0  0  0  0  0  0  0  0  0  0
   -0.0600   14.7820   -4.0480 C   0  0  0  0  0  0  0  0  0  0  0  0
    1.5470   16.3470   -3.8450 N   0  0  0  0  0  0  0  0  0  0  0  0
   -0.3790   15.8040   -5.0740 C   0  0  2  0  0  0  0  0  0  0  0  0
    0.7240   16.7640   -4.7440 C   0  0  0  0  0  0  0  0  0  0  0  0
   -1.6610   16.5570   -5.2310 C   0  0  0  0  0  0  0  0  0  0  0  0
    0.7960   18.0550   -5.4660 C   0  0  0  0  0  0  0  0  0  0  0  0
   -3.1110   15.7190   -4.9410 Cl  0  0  0  0  0  0  0  0  0  0  0  0
   -1.6530   17.8500   -5.6120 C   0  0  0  0  0  0  0  0  0  0  0  0
   -0.4030   18.5330   -5.8670 C   0  0  0  0  0  0  0  0  0  0  0  0
  1  2  2  0
  2  3  1  0
  2  4  1  0
  5  3  1  6
  4  6  2  0
  5  6  1  0
  4  7  1  0
  5  8  2  0
  5  9  2  0
  6 10  1  0
  7 11  2  0
  9 12  1  0
 10 13  2  0
 11 13  1  0
 12 14  1  0
 14 15  1  0
 15 16  2  3
 16 17  1  0
 16 18  1  0
 18 19  2  0
 18 20  1  0
 21 19  1  1
 20 22  2  0
 21 22  1  0
 21 23  1  0
 22 24  1  0
 23 25  1  0
 23 26  2  0
 24 27  2  0
 26 27  1  0
M  END
