mac-x0131-mac-x0375
     RDKit          3D

 29 32  0  0  0  0  0  0  0  0999 V2000
   -3.8370   15.1150   -4.0590 C   0  0  0  0  0  0  0  0  0  0  0  0
   -3.3080   15.0680   -2.6700 C   0  0  0  0  0  0  0  0  0  0  0  0
   -3.9270   15.2410   -1.4400 C   0  0  0  0  0  0  0  0  0  0  0  0
   -1.9900   14.8160   -2.4330 N   0  0  0  0  0  0  0  0  0  0  0  0
   -5.3660   15.5390   -1.2110 C   0  0  0  0  0  0  0  0  0  0  0  0
   -1.0170   14.5800   -3.4550 C   0  0  0  0  0  0  0  0  0  0  0  0
   -2.9120   15.0750   -0.4290 C   0  0  0  0  0  0  0  0  0  0  0  0
   -1.7230   14.8100   -1.0890 C   0  0  0  0  0  0  0  0  0  0  0  0
   -2.8380   15.1180    0.9750 C   0  0  0  0  0  0  0  0  0  0  0  0
   -0.5190   14.5910   -0.5220 N   0  0  0  0  0  0  0  0  0  0  0  0
   -1.0210   13.1240   -3.6410 C   0  0  0  0  0  0  0  0  0  0  0  0
   -3.9270   15.3920    1.7870 N   0  0  0  0  0  0  0  0  0  0  0  0
   -1.6520   14.8920    1.5840 N   0  0  0  0  0  0  0  0  0  0  0  0
   -0.5790   14.6490    0.8170 C   0  0  0  0  0  0  0  0  0  0  0  0
   -0.2190   12.2570   -4.2840 C   0  0  0  0  0  0  0  0  0  0  0  0
   -2.0360   12.4400   -3.0490 O   0  0  0  0  0  0  0  0  0  0  0  0
    0.9630   12.5970   -5.0330 C   0  0  1  0  0  0  0  0  0  0  0  0
   -1.8570   11.1250   -3.3110 C   0  0  0  0  0  0  0  0  0  0  0  0
   -0.7420   10.9560   -4.0680 C   0  0  0  0  0  0  0  0  0  0  0  0
    1.8550   12.3620   -3.8290 C   0  0  0  0  0  0  0  0  0  0  0  0
    0.9940   11.6260   -6.1090 O   0  0  0  0  0  0  0  0  0  0  0  0
    2.9730   13.0860   -3.7340 O   0  0  0  0  0  0  0  0  0  0  0  0
    1.5300   11.5750   -2.9590 O   0  0  0  0  0  0  0  0  0  0  0  0
   -0.1550   10.8500   -6.2810 C   0  0  0  0  0  0  0  0  0  0  0  0
   -0.2000    9.5490   -6.7910 C   0  0  0  0  0  0  0  0  0  0  0  0
   -1.3700   11.4470   -5.8930 C   0  0  0  0  0  0  0  0  0  0  0  0
   -1.4090    8.8600   -6.9010 C   0  0  0  0  0  0  0  0  0  0  0  0
   -2.5800   10.7530   -6.0030 C   0  0  0  0  0  0  0  0  0  0  0  0
   -2.6000    9.4600   -6.5050 C   0  0  0  0  0  0  0  0  0  0  0  0
  1  2  1  0
  2  3  2  0
  2  4  1  0
  3  5  1  0
  4  6  1  0
  3  7  1  0
  4  8  1  0
  7  8  2  0
  7  9  1  0
  8 10  1  0
  6 11  1  0
  9 12  1  0
  9 13  2  0
 10 14  2  0
 13 14  1  0
 11 15  2  0
 11 16  1  0
 15 17  1  0
 16 18  1  0
 15 19  1  0
 18 19  2  0
 17 20  1  0
 17 21  1  6
 20 22  1  0
 20 23  2  0
 21 24  1  0
 24 25  2  0
 24 26  1  0
 25 27  1  0
 26 28  2  0
 27 29  2  0
 28 29  1  0
M  END
