mac-x0271-mac-x0228
     RDKit          3D

 14 15  0  0  0  0  0  0  0  0999 V2000
   -2.9900   14.9400   -2.6930 C   0  0  0  0  0  0  0  0  0  0  0  0
   -1.7330   14.8840   -2.2000 O   0  0  0  0  0  0  0  0  0  0  0  0
   -3.1630   14.9750   -3.8970 O   0  0  0  0  0  0  0  0  0  0  0  0
   -4.0040   14.9350   -1.5930 C   0  0  0  0  0  0  0  0  0  0  0  0
   -5.4110   14.9500   -1.7370 C   0  0  0  0  0  0  0  0  0  0  0  0
   -3.4440   14.9050   -0.3100 C   0  0  0  0  0  0  0  0  0  0  0  0
   -6.2050   14.9180   -0.5680 C   0  0  0  0  0  0  0  0  0  0  0  0
   -4.2440   14.8790    0.8280 C   0  0  0  0  0  0  0  0  0  0  0  0
   -5.6260   14.8770    0.7040 C   0  0  0  0  0  0  0  0  0  0  0  0
   -7.6210   14.9200   -0.6930 O   0  0  0  0  0  0  0  0  0  0  0  0
   -6.4770   14.8290    1.8820 C   0  0  0  0  0  0  0  0  0  0  0  0
   -8.4560   14.8620    0.4300 C   0  0  0  0  0  0  0  0  0  0  0  0
   -9.6810   14.8590    0.3560 O   0  0  0  0  0  0  0  0  0  0  0  0
   -7.8060   14.8180    1.7470 C   0  0  0  0  0  0  0  0  0  0  0  0
  1  2  1  0
  1  3  2  0
  1  4  1  0
  4  5  2  0
  4  6  1  0
  5  7  1  0
  6  8  2  0
  7  9  2  0
  8  9  1  0
  7 10  1  0
  9 11  1  0
 10 12  1  0
 12 13  2  0
 11 14  2  0
 12 14  1  0
M  END
