mac-x0231-mac-x0358
     RDKit          3D

 16 17  0  0  0  0  0  0  0  0999 V2000
    0.4650   10.7760   -3.0770 O   0  0  0  0  0  0  0  0  0  0  0  0
    1.1400   11.9430   -2.9900 C   0  0  0  0  0  0  0  0  0  0  0  0
    1.3240   12.4510   -1.9050 O   0  0  0  0  0  0  0  0  0  0  0  0
    1.5790   12.4840   -4.3170 C   0  0  0  0  0  0  0  0  0  0  0  0
    1.1090   13.9000   -4.4710 C   0  0  0  0  0  0  0  0  0  0  0  0
   -0.3170   14.1790   -4.7920 C   0  0  0  0  0  0  0  0  0  0  0  0
    2.0000   14.8250   -4.2800 N   0  0  0  0  0  0  0  0  0  0  0  0
   -0.6720   15.5290   -4.8580 C   0  0  0  0  0  0  0  0  0  0  0  0
    1.6210   16.1210   -4.3880 N   0  0  0  0  0  0  0  0  0  0  0  0
   -1.3150   13.2100   -5.0230 C   0  0  0  0  0  0  0  0  0  0  0  0
   -1.0580   11.8590   -4.9780 O   0  0  0  0  0  0  0  0  0  0  0  0
    0.3490   16.5660   -4.6260 C   0  0  0  0  0  0  0  0  0  0  0  0
   -1.9920   15.9190   -5.1430 C   0  0  0  0  0  0  0  0  0  0  0  0
   -2.6300   13.5990   -5.3090 C   0  0  0  0  0  0  0  0  0  0  0  0
    0.0700   17.7610   -4.6540 O   0  0  0  0  0  0  0  0  0  0  0  0
   -2.9680   14.9510   -5.3670 C   0  0  0  0  0  0  0  0  0  0  0  0
  1  2  1  0
  2  3  2  0
  2  4  1  0
  4  5  1  0
  5  6  1  0
  5  7  2  0
  6  8  2  0
  7  9  1  0
  6 10  1  0
 10 11  1  0
  8 12  1  0
  9 12  1  0
  8 13  1  0
 10 14  2  0
 12 15  2  0
 13 16  2  0
 14 16  1  0
M  END
