mac-x0123-mac-x0346
     RDKit          3D

 18 20  0  0  0  0  0  0  0  0999 V2000
   -3.3350   14.8300    1.7660 N   0  0  0  0  0  0  0  0  0  0  0  0
   -4.3620   13.8690    1.3750 C   0  0  1  0  0  0  0  0  0  0  0  0
   -5.7580   14.3630    1.8290 C   0  0  1  0  0  0  0  0  0  0  0  0
   -4.1530   13.6360   -0.0600 N   0  0  0  0  0  0  0  0  0  0  0  0
   -5.3320   13.2830   -0.8560 C   0  0  1  0  0  0  0  0  0  0  0  0
   -6.7430   14.4780    0.6730 C   0  0  1  0  0  0  0  0  0  0  0  0
   -6.5370   13.4330    2.7190 C   0  0  0  0  0  0  0  0  0  0  0  0
   -3.4420   14.7330   -0.7740 N   0  0  0  0  0  0  0  0  0  0  0  0
   -6.6180   13.3320   -0.2120 N   0  0  0  0  0  0  0  0  0  0  0  0
   -8.1120   14.4970    1.3890 C   0  0  0  0  0  0  0  0  0  0  0  0
   -7.8530   13.5220    2.4740 C   0  0  0  0  0  0  0  0  0  0  0  0
   -5.3460   14.2390   -1.8770 N   0  0  0  0  0  0  0  0  0  0  0  0
   -4.0320   14.7240   -2.0950 C   0  0  1  0  0  0  0  0  0  0  0  0
   -6.4630   14.8690   -2.3290 C   0  0  0  0  0  0  0  0  0  0  0  0
   -4.0780   16.0230   -2.5830 O   0  0  0  0  0  0  0  0  0  0  0  0
   -7.3780   15.3320   -1.4000 N   0  0  0  0  0  0  0  0  0  0  0  0
   -6.6720   14.9940   -3.5220 O   0  0  0  0  0  0  0  0  0  0  0  0
   -8.2510   14.3220   -0.9060 O   0  0  0  0  0  0  0  0  0  0  0  0
  2  1  1  6
  2  3  1  0
  2  4  1  0
  4  5  1  0
  3  6  1  0
  3  7  1  1
  4  8  1  0
  5  9  1  1
  6  9  1  0
  6 10  1  1
  7 11  2  0
 10 11  1  0
  5 12  1  0
  8 13  1  0
 12 13  1  0
 12 14  1  0
 13 15  1  1
 14 16  1  0
 14 17  2  0
 16 18  1  0
M  END
