mac-x0338-mac-x0277
     RDKit          3D

 23 24  0  0  0  0  0  0  0  0999 V2000
   -4.3840   15.5900    2.0710 N   0  0  0  0  0  0  0  0  0  0  0  0
   -5.2820   15.1610    1.1530 C   0  0  0  0  0  0  0  0  0  0  0  0
   -6.4550   14.9570    1.4400 O   0  0  0  0  0  0  0  0  0  0  0  0
   -4.7510   14.9230   -0.1950 C   0  0  0  0  0  0  0  0  0  0  0  0
   -3.4150   14.7060   -0.2850 N   0  0  0  0  0  0  0  0  0  0  0  0
   -5.6050   14.9140   -1.2830 C   0  0  0  0  0  0  0  0  0  0  0  0
   -2.9870   14.4530   -1.5300 C   0  0  0  0  0  0  0  0  0  0  0  0
   -5.1570   14.6590   -2.5350 N   0  0  0  0  0  0  0  0  0  0  0  0
   -3.8250   14.4150   -2.6360 C   0  0  0  0  0  0  0  0  0  0  0  0
   -3.2210   14.0710   -3.9620 C   0  0  0  0  0  0  0  0  0  0  0  0
   -3.7010   14.8430   -5.1780 C   0  0  0  0  0  0  0  0  0  0  0  0
   -2.7690   15.9940   -5.5320 C   0  0  0  0  0  0  0  0  0  0  0  0
   -1.3180   15.8330   -5.1330 C   0  0  0  0  0  0  0  0  0  0  0  0
   -0.7300   14.5600   -4.9400 C   0  0  0  0  0  0  0  0  0  0  0  0
   -0.5250   16.9570   -4.9470 C   0  0  0  0  0  0  0  0  0  0  0  0
   -1.1890   18.5300   -5.1800 Cl  0  0  0  0  0  0  0  0  0  0  0  0
    0.6200   14.4300   -4.5640 C   0  0  0  0  0  0  0  0  0  0  0  0
    0.8100   16.8450   -4.5730 C   0  0  0  0  0  0  0  0  0  0  0  0
    1.2460   13.0670   -4.3580 C   0  0  0  0  0  0  0  0  0  0  0  0
    1.3810   15.5860   -4.3810 C   0  0  0  0  0  0  0  0  0  0  0  0
    0.9170   12.4320   -3.0250 C   0  0  0  0  0  0  0  0  0  0  0  0
    0.2270   11.2810   -3.1690 O   0  0  0  0  0  0  0  0  0  0  0  0
    1.1930   12.8330   -1.9110 O   0  0  0  0  0  0  0  0  0  0  0  0
  1  2  1  0
  2  3  2  0
  2  4  1  0
  4  5  2  0
  4  6  1  0
  5  7  1  0
  6  8  2  0
  7  9  2  0
  8  9  1  0
  9 10  1  0
 10 11  1  0
 11 12  1  0
 12 13  1  0
 13 14  2  0
 13 15  1  0
 15 16  1  0
 14 17  1  0
 15 18  2  0
 17 19  1  0
 17 20  2  0
 18 20  1  0
 19 21  1  0
 21 22  1  0
 21 23  2  0
M  END
