mac-x0381-mac-x0380
     RDKit          3D

 26 29  0  0  0  0  0  0  0  0999 V2000
   -7.9750   13.4040    4.2940 N   0  0  0  0  0  0  0  0  0  0  0  0
   -7.9250   14.5900    3.4680 C   0  0  0  0  0  0  0  0  0  0  0  0
   -7.1820   15.5090    4.3200 N   0  0  0  0  0  0  0  0  0  0  0  0
   -9.3500   15.1420    3.2040 C   0  0  0  0  0  0  0  0  0  0  0  0
   -7.0610   14.2180    2.1360 C   0  0  2  0  0  0  0  0  0  0  0  0
   -9.5850   15.9380    2.0650 C   0  0  0  0  0  0  0  0  0  0  0  0
  -10.4560   14.9020    4.0380 C   0  0  0  0  0  0  0  0  0  0  0  0
   -5.8300   15.0630    2.0370 N   0  0  0  0  0  0  0  0  0  0  0  0
   -7.9170   14.1060    0.8360 C   0  0  0  0  0  0  0  0  0  0  0  0
  -10.8400   16.4750    1.7500 C   0  0  0  0  0  0  0  0  0  0  0  0
  -11.7250   15.4290    3.7380 C   0  0  0  0  0  0  0  0  0  0  0  0
   -5.0660   15.0380    0.8660 C   0  0  0  0  0  0  0  0  0  0  0  0
   -7.4220   15.1760   -0.5720 S   0  0  0  0  0  0  0  0  0  0  0  0
  -11.9300   16.2130    2.5980 C   0  0  0  0  0  0  0  0  0  0  0  0
  -11.0240   17.2610    0.6030 C   0  0  0  0  0  0  0  0  0  0  0  0
   -5.6570   15.0840   -0.3990 C   0  0  0  0  0  0  0  0  0  0  0  0
   -3.6690   14.9590    0.9480 C   0  0  0  0  0  0  0  0  0  0  0  0
  -13.1910   16.7430    2.2780 C   0  0  0  0  0  0  0  0  0  0  0  0
  -12.2830   17.7840    0.2980 C   0  0  0  0  0  0  0  0  0  0  0  0
   -4.8880   15.0530   -1.5640 C   0  0  0  0  0  0  0  0  0  0  0  0
   -2.8850   14.9250   -0.2160 C   0  0  0  0  0  0  0  0  0  0  0  0
  -13.3620   17.5230    1.1350 C   0  0  0  0  0  0  0  0  0  0  0  0
   -3.5020   14.9710   -1.4750 C   0  0  0  0  0  0  0  0  0  0  0  0
   -2.6700   14.9320   -2.7030 C   0  0  0  0  0  0  0  0  0  0  0  0
   -1.3770   14.6290   -2.4700 O   0  0  0  0  0  0  0  0  0  0  0  0
   -3.1190   15.1460   -3.8180 O   0  0  0  0  0  0  0  0  0  0  0  0
  2  1  1  0
  2  3  1  0
  2  4  1  0
  5  2  1  1
  4  6  2  0
  4  7  1  0
  5  8  1  0
  5  9  1  0
  6 10  1  0
  7 11  2  0
  8 12  1  0
  9 13  1  0
 10 14  2  0
 11 14  1  0
 10 15  1  0
 12 16  2  0
 13 16  1  0
 12 17  1  0
 14 18  1  0
 15 19  2  0
 16 20  1  0
 17 21  2  0
 18 22  2  0
 19 22  1  0
 20 23  2  0
 21 23  1  0
 23 24  1  0
 24 25  1  0
 24 26  2  0
M  END
