mac-x0231-mac-x0365
     RDKit          3D

 26 28  0  0  0  0  0  0  0  0999 V2000
    0.9600   10.9070   -3.8320 O   0  0  0  0  0  0  0  0  0  0  0  0
    1.8800   11.8720   -3.9740 C   0  0  0  0  0  0  0  0  0  0  0  0
    2.4530   12.2970   -2.9830 O   0  0  0  0  0  0  0  0  0  0  0  0
    2.0810   12.4370   -5.3810 C   0  0  0  0  0  0  0  0  0  0  0  0
    1.4130   13.7230   -5.1280 C   0  0  0  0  0  0  0  0  0  0  0  0
   -0.0610   13.7800   -5.1920 C   0  0  0  0  0  0  0  0  0  0  0  0
    2.2130   14.5880   -4.6140 N   0  0  0  0  0  0  0  0  0  0  0  0
   -0.4680   14.4370   -4.1440 C   0  0  0  0  0  0  0  0  0  0  0  0
    1.5730   15.5840   -4.1100 N   0  0  0  0  0  0  0  0  0  0  0  0
   -1.0090   13.2370   -6.0690 C   0  0  0  0  0  0  0  0  0  0  0  0
    0.5310   15.1670   -3.3340 C   0  0  0  0  0  0  0  0  0  0  0  0
   -1.7250   14.4770   -3.8000 C   0  0  0  0  0  0  0  0  0  0  0  0
   -2.3950   13.3840   -5.7790 C   0  0  0  0  0  0  0  0  0  0  0  0
    0.4710   15.4890   -2.1790 O   0  0  0  0  0  0  0  0  0  0  0  0
   -1.6370   14.9510   -2.5560 N   0  0  0  0  0  0  0  0  0  0  0  0
   -2.7700   14.0090   -4.5790 C   0  0  0  0  0  0  0  0  0  0  0  0
   -2.3740   15.0830   -1.6030 C   0  0  0  0  0  0  0  0  0  0  0  0
   -1.6660   15.2730   -0.4940 O   0  0  0  0  0  0  0  0  0  0  0  0
   -3.7270   15.0200   -1.2490 C   0  0  0  0  0  0  0  0  0  0  0  0
   -4.7020   15.0940   -2.2150 C   0  0  0  0  0  0  0  0  0  0  0  0
   -3.9960   14.9040    0.1080 C   0  0  0  0  0  0  0  0  0  0  0  0
   -5.9990   15.0520   -1.7920 C   0  0  0  0  0  0  0  0  0  0  0  0
   -5.3020   14.8620    0.5220 C   0  0  0  0  0  0  0  0  0  0  0  0
   -6.9880   15.1190   -2.6800 F   0  0  0  0  0  0  0  0  0  0  0  0
   -6.3020   14.9390   -0.4360 C   0  0  0  0  0  0  0  0  0  0  0  0
   -7.5940   14.9020   -0.0220 O   0  0  0  0  0  0  0  0  0  0  0  0
  1  2  1  0
  2  3  2  0
  2  4  1  0
  4  5  1  0
  5  6  1  0
  5  7  2  0
  6  8  2  0
  7  9  1  0
  6 10  1  0
  8 11  1  0
  9 11  1  0
  8 12  1  0
 10 13  2  0
 11 14  2  0
 12 15  1  0
 12 16  2  0
 13 16  1  0
 15 17  2  3
 17 18  1  0
 17 19  1  0
 19 20  2  0
 19 21  1  0
 20 22  1  0
 21 23  2  0
 22 24  1  0
 22 25  2  0
 23 25  1  0
 25 26  1  0
M  END
