mac-x0588-diamond-x0926_0_A
     RDKit          3D

 17 19  0  0  0  0  0  0  0  0999 V2000
   -4.6500   15.2380    1.1890 N   0  0  0  0  0  0  0  0  0  0  0  0
   -3.6410   15.3970    0.1180 C   0  0  1  0  0  0  0  0  0  0  0  0
   -2.2840   14.7570    0.3410 C   0  0  1  0  0  0  0  0  0  0  0  0
   -4.1770   14.8200   -1.1650 N   0  0  1  0  0  0  0  0  0  0  0  0
   -5.5120   15.1230   -1.3360 O   0  0  0  0  0  0  0  0  0  0  0  0
   -3.2620   15.1650   -2.3330 C   0  0  0  0  0  0  0  0  0  0  0  0
   -1.3670   15.1940   -0.8050 C   0  0  2  0  0  0  0  0  0  0  0  0
   -1.4480   15.1120    1.4670 N   0  0  0  0  0  0  0  0  0  0  0  0
   -1.8710   14.7220   -2.0800 N   0  0  0  0  0  0  0  0  0  0  0  0
   -0.1550   14.5100   -0.3990 N   0  0  0  0  0  0  0  0  0  0  0  0
   -0.1350   14.6370    1.0540 C   0  0  0  0  0  0  0  0  0  0  0  0
   -0.8670   14.7100   -3.1900 C   0  0  0  0  0  0  0  0  0  0  0  0
   -0.8170   15.7990   -4.2950 C   0  0  1  0  0  0  0  0  0  0  0  0
   -1.4890   17.0270   -3.9780 O   0  0  0  0  0  0  0  0  0  0  0  0
    0.6030   16.2140   -4.6840 C   0  0  0  0  0  0  0  0  0  0  0  0
    0.4370   17.6160   -5.2350 C   0  0  0  0  0  0  0  0  0  0  0  0
   -1.0260   17.9420   -4.9780 C   0  0  0  0  0  0  0  0  0  0  0  0
  2  1  1  1
  2  3  1  0
  2  4  1  0
  4  5  1  6
  4  6  1  0
  3  7  1  0
  3  8  1  1
  6  9  1  0
  7  9  1  0
  7 10  1  1
  8 11  1  0
 10 11  1  0
  9 12  1  0
 13 12  1  1
 13 14  1  0
 13 15  1  0
 15 16  1  0
 14 17  1  0
 16 17  1  0
M  CHG  2   4   1   5  -1
M  END
