mac-x0263-mac-x0404
     RDKit          3D

 31 34  0  0  0  0  0  0  0  0999 V2000
  -11.5320   14.3290    2.5660 O   0  0  0  0  0  0  0  0  0  0  0  0
  -10.7970   15.4320    2.7970 C   0  0  0  0  0  0  0  0  0  0  0  0
  -11.1210   16.2190    3.6700 O   0  0  0  0  0  0  0  0  0  0  0  0
   -9.6160   15.5430    1.8810 C   0  0  0  0  0  0  0  0  0  0  0  0
   -8.5740   14.4630    2.1570 C   0  0  0  0  0  0  0  0  0  0  0  0
   -7.4190   14.6220    1.2390 C   0  0  0  0  0  0  0  0  0  0  0  0
   -7.5730   14.5100   -0.1060 N   0  0  0  0  0  0  0  0  0  0  0  0
   -6.1560   14.8800    1.5450 N   0  0  0  0  0  0  0  0  0  0  0  0
   -6.3620   14.6990   -0.6850 C   0  0  0  0  0  0  0  0  0  0  0  0
   -5.4780   14.9380    0.3470 C   0  0  0  0  0  0  0  0  0  0  0  0
   -6.0110   14.6680   -2.0030 C   0  0  0  0  0  0  0  0  0  0  0  0
   -4.1210   15.1820    0.0360 C   0  0  0  0  0  0  0  0  0  0  0  0
   -4.6920   14.8760   -2.3450 C   0  0  0  0  0  0  0  0  0  0  0  0
   -3.7280   15.1480   -1.3300 C   0  0  0  0  0  0  0  0  0  0  0  0
   -4.4850   14.7420   -3.8540 C   0  0  0  0  0  0  0  0  0  0  0  0
   -3.6100   15.7250   -4.6040 C   0  0  0  0  0  0  0  0  0  0  0  0
   -2.2340   15.2990   -4.7080 C   0  0  0  0  0  0  0  0  0  0  0  0
   -1.2310   16.2200   -4.9960 C   0  0  0  0  0  0  0  0  0  0  0  0
   -1.9850   13.9560   -4.4910 C   0  0  0  0  0  0  0  0  0  0  0  0
    0.0670   15.7380   -5.0310 C   0  0  0  0  0  0  0  0  0  0  0  0
   -0.7040   13.4860   -4.5330 C   0  0  0  0  0  0  0  0  0  0  0  0
   -1.4650   17.5920   -5.2430 C   0  0  0  0  0  0  0  0  0  0  0  0
    0.3260   14.3710   -4.7900 C   0  0  0  0  0  0  0  0  0  0  0  0
   -0.4250   18.4680   -5.5180 C   0  0  0  0  0  0  0  0  0  0  0  0
    1.0840   16.6310   -5.3050 C   0  0  0  0  0  0  0  0  0  0  0  0
    1.6270   13.9810   -4.8200 O   0  0  0  0  0  0  0  0  0  0  0  0
    0.8660   17.9830   -5.5460 C   0  0  0  0  0  0  0  0  0  0  0  0
    1.8960   12.6560   -4.4130 C   0  0  0  0  0  0  0  0  0  0  0  0
    1.1550   12.1480   -3.1700 C   0  0  0  0  0  0  0  0  0  0  0  0
    1.2850   12.9570   -2.0980 O   0  0  0  0  0  0  0  0  0  0  0  0
    0.4980   11.1250   -3.0560 O   0  0  0  0  0  0  0  0  0  0  0  0
  1  2  1  0
  2  3  2  0
  2  4  1  0
  4  5  1  0
  5  6  1  0
  6  7  1  0
  6  8  2  0
  7  9  1  0
  8 10  1  0
  9 10  2  0
  9 11  1  0
 10 12  1  0
 11 13  2  0
 12 14  2  0
 13 14  1  0
 13 15  1  0
 15 16  1  0
 16 17  1  0
 17 18  1  0
 17 19  2  0
 18 20  2  0
 19 21  1  0
 18 22  1  0
 20 23  1  0
 21 23  2  0
 22 24  2  0
 20 25  1  0
 23 26  1  0
 24 27  1  0
 25 27  2  0
 26 28  1  0
 28 29  1  0
 29 30  1  0
 29 31  2  0
M  END
