mac-x0206-diamond-x0844_0_A
     RDKit          3D

 10 10  0  0  0  0  0  0  0  0999 V2000
   -3.0580   15.0620   -0.3770 N   0  0  0  0  0  0  0  0  0  0  0  0
   -4.2920   15.1580   -0.9660 C   0  0  0  0  0  0  0  0  0  0  0  0
   -4.4050   15.3790   -2.1590 O   0  0  0  0  0  0  0  0  0  0  0  0
   -5.4560   14.9740   -0.0680 C   0  0  0  0  0  0  0  0  0  0  0  0
   -6.7370   14.7690   -0.5940 C   0  0  0  0  0  0  0  0  0  0  0  0
   -5.2790   15.0050    1.3240 C   0  0  0  0  0  0  0  0  0  0  0  0
   -6.9250   14.7370   -1.9430 O   0  0  0  0  0  0  0  0  0  0  0  0
   -7.8350   14.5960    0.2470 C   0  0  0  0  0  0  0  0  0  0  0  0
   -6.3870   14.8330    2.1590 C   0  0  0  0  0  0  0  0  0  0  0  0
   -7.6580   14.6280    1.6270 C   0  0  0  0  0  0  0  0  0  0  0  0
  1  2  1  0
  2  3  2  0
  2  4  1  0
  4  5  2  0
  4  6  1  0
  5  7  1  0
  5  8  1  0
  6  9  2  0
  8 10  2  0
  9 10  1  0
M  END
