mac-x0206-mac-x0392
     RDKit          3D

 20 21  0  0  0  0  0  0  0  0999 V2000
   -4.8510   16.1490   -1.4280 N   0  0  0  0  0  0  0  0  0  0  0  0
   -4.8530   14.8870   -0.8200 C   0  0  2  0  0  0  0  0  0  0  0  0
   -5.0720   14.0560   -1.9360 O   0  0  0  0  0  0  0  0  0  0  0  0
   -5.9560   14.8130    0.1760 C   0  0  0  0  0  0  0  0  0  0  0  0
   -3.4450   14.6910   -0.4050 C   0  0  0  0  0  0  0  0  0  0  0  0
   -7.2540   14.7010   -0.3020 C   0  0  0  0  0  0  0  0  0  0  0  0
   -5.7480   14.8580    1.5530 C   0  0  0  0  0  0  0  0  0  0  0  0
   -2.6540   14.6940   -1.5040 C   0  0  0  0  0  0  0  0  0  0  0  0
   -3.0080   14.5410    0.8740 N   0  0  0  0  0  0  0  0  0  0  0  0
   -7.4410   14.6630   -1.6580 O   0  0  0  0  0  0  0  0  0  0  0  0
   -8.3430   14.6310    0.5570 C   0  0  0  0  0  0  0  0  0  0  0  0
   -6.8370   14.7900    2.4280 C   0  0  0  0  0  0  0  0  0  0  0  0
   -1.3280   14.5350   -1.3650 C   0  0  0  0  0  0  0  0  0  0  0  0
   -1.6710   14.3800    0.9850 C   0  0  0  0  0  0  0  0  0  0  0  0
   -0.5230   14.5500   -2.6030 C   0  0  0  0  0  0  0  0  0  0  0  0
   -8.1270   14.6770    1.9300 C   0  0  0  0  0  0  0  0  0  0  0  0
   -0.7890   14.3690   -0.0990 C   0  0  0  0  0  0  0  0  0  0  0  0
    0.5600   14.2020    0.0610 N   0  0  0  0  0  0  0  0  0  0  0  0
   -0.9830   14.4930   -3.7300 O   0  0  0  0  0  0  0  0  0  0  0  0
    0.7950   14.6430   -2.3980 O   0  0  0  0  0  0  0  0  0  0  0  0
  2  1  1  6
  2  3  1  0
  2  4  1  0
  2  5  1  0
  4  6  2  0
  4  7  1  0
  5  8  2  0
  5  9  1  0
  6 10  1  0
  6 11  1  0
  7 12  2  0
  8 13  1  0
  9 14  2  0
 13 15  1  0
 11 16  2  0
 12 16  1  0
 13 17  2  0
 14 17  1  0
 17 18  1  0
 15 19  2  0
 15 20  1  0
M  END
