mac-x0472-diamond-x1015_0_A
     RDKit          3D

 29 32  0  0  0  0  0  0  0  0999 V2000
   -4.1930   15.3850   -2.9050 O   0  0  0  0  0  0  0  0  0  0  0  0
   -3.1950   14.3500   -2.7560 S   0  0  1  0  0  0  0  0  0  0  0  0
   -2.0570   14.0030   -3.7240 N   0  0  0  0  0  0  0  0  0  0  0  0
   -2.3310   14.8610   -1.4190 N   0  0  0  0  0  0  0  0  0  0  0  0
   -4.0500   12.8230   -2.3800 C   0  0  0  0  0  0  0  0  0  0  0  0
   -2.7780   14.8760   -0.1560 C   0  0  0  0  0  0  0  0  0  0  0  0
   -3.4770   11.6090   -2.7660 C   0  0  0  0  0  0  0  0  0  0  0  0
   -5.2830   12.8360   -1.7100 C   0  0  0  0  0  0  0  0  0  0  0  0
   -1.0440   13.1690   -3.0630 C   0  0  1  0  0  0  0  0  0  0  0  0
   -2.1220   14.4580    0.9030 N   0  0  0  0  0  0  0  0  0  0  0  0
   -4.3430   15.4960    0.2110 S   0  0  0  0  0  0  0  0  0  0  0  0
   -4.1260   10.4120   -2.4900 C   0  0  0  0  0  0  0  0  0  0  0  0
   -5.9290   11.6280   -1.4340 C   0  0  0  0  0  0  0  0  0  0  0  0
   -0.2800   12.1910   -3.7980 N   0  0  0  0  0  0  0  0  0  0  0  0
    0.2020   13.8580   -2.4670 C   0  0  0  0  0  0  0  0  0  0  0  0
    0.4260   15.0490   -2.2730 O   0  0  0  0  0  0  0  0  0  0  0  0
   -4.0150   15.1390    1.8480 C   0  0  0  0  0  0  0  0  0  0  0  0
   -2.8340   14.6060    2.0610 N   0  0  0  0  0  0  0  0  0  0  0  0
   -5.3520   10.4230   -1.8250 C   0  0  0  0  0  0  0  0  0  0  0  0
    0.4650   11.7080   -2.7340 C   0  0  0  0  0  0  0  0  0  0  0  0
    1.0450   12.8200   -2.1900 N   0  0  0  0  0  0  0  0  0  0  0  0
   -0.6550   11.4310   -4.9450 C   0  0  0  0  0  0  0  0  0  0  0  0
    0.5900   10.5630   -2.2930 O   0  0  0  0  0  0  0  0  0  0  0  0
   -0.0900   11.6980   -6.2080 C   0  0  0  0  0  0  0  0  0  0  0  0
   -1.5850   10.3860   -4.8640 C   0  0  0  0  0  0  0  0  0  0  0  0
   -0.4430   10.9490   -7.3390 C   0  0  0  0  0  0  0  0  0  0  0  0
   -1.9410    9.6350   -5.9910 C   0  0  0  0  0  0  0  0  0  0  0  0
   -1.3690    9.9190   -7.2230 C   0  0  0  0  0  0  0  0  0  0  0  0
   -1.8090    8.9930   -8.6020 Cl  0  0  0  0  0  0  0  0  0  0  0  0
  1  2  2  0
  2  3  2  0
  2  4  1  1
  2  5  1  0
  4  6  1  0
  5  7  2  0
  5  8  1  0
  9  3  1  6
  6 10  2  0
  6 11  1  0
  7 12  1  0
  8 13  2  0
  9 14  1  0
  9 15  1  0
 15 16  2  0
 11 17  1  0
 10 18  1  0
 17 18  2  0
 12 19  2  0
 13 19  1  0
 14 20  1  0
 15 21  1  0
 20 21  1  0
 14 22  1  0
 20 23  2  0
 22 24  2  0
 22 25  1  0
 24 26  1  0
 25 27  2  0
 26 28  2  0
 27 28  1  0
 28 29  1  0
M  END
