mac-x0373-mac-x0139
     RDKit          3D

 25 27  0  0  0  0  0  0  0  0999 V2000
    0.1090   13.0050   -1.8670 N   0  0  0  0  0  0  0  0  0  0  0  0
   -0.0280   14.3210   -2.2180 C   0  0  0  0  0  0  0  0  0  0  0  0
    0.8120   15.1800   -1.9690 O   0  0  0  0  0  0  0  0  0  0  0  0
    0.6450   12.2900   -2.7760 C   0  0  0  0  0  0  0  0  0  0  0  0
   -1.3810   14.6140   -3.0010 C   0  0  1  0  0  0  0  0  0  0  0  0
    1.1100   12.8910   -4.0640 C   0  0  0  0  0  0  0  0  0  0  0  0
    0.8260   10.9730   -2.6680 O   0  0  0  0  0  0  0  0  0  0  0  0
   -1.0280   15.7080   -4.0410 C   0  0  0  0  0  0  0  0  0  0  0  0
   -1.7710   13.2680   -3.6670 C   0  0  0  0  0  0  0  0  0  0  0  0
   -2.4530   15.2470   -2.0120 C   0  0  1  0  0  0  0  0  0  0  0  0
   -1.2530   12.9400   -4.9410 C   0  0  0  0  0  0  0  0  0  0  0  0
   -2.6260   12.3270   -3.0670 C   0  0  0  0  0  0  0  0  0  0  0  0
   -3.8870   14.9680   -2.4270 C   0  0  0  0  0  0  0  0  0  0  0  0
   -2.2680   15.2510   -0.4280 C   0  0  0  0  0  0  0  0  0  0  0  0
   -1.5690   11.7380   -5.5770 C   0  0  0  0  0  0  0  0  0  0  0  0
   -2.9440   11.1210   -3.7030 C   0  0  0  0  0  0  0  0  0  0  0  0
   -4.9020   15.2920   -1.6430 C   0  0  0  0  0  0  0  0  0  0  0  0
   -3.4770   15.9230    0.2090 C   0  0  0  0  0  0  0  0  0  0  0  0
   -0.9440   15.9590   -0.0580 C   0  0  0  0  0  0  0  0  0  0  0  0
   -2.2390   13.9580    0.3610 C   0  0  0  0  0  0  0  0  0  0  0  0
   -2.4130   10.8290   -4.9580 C   0  0  0  0  0  0  0  0  0  0  0  0
   -4.6690   15.9100   -0.3820 C   0  0  0  0  0  0  0  0  0  0  0  0
   -1.5200   14.1860    1.6030 N   0  0  0  0  0  0  0  0  0  0  0  0
    0.1390   15.0160    0.1510 N   0  0  0  0  0  0  0  0  0  0  0  0
   -0.1140   14.2500    1.3400 C   0  0  0  0  0  0  0  0  0  0  0  0
  1  2  1  0
  2  3  2  0
  1  4  2  3
  5  2  1  0
  4  6  1  0
  4  7  1  0
  5  8  1  6
  5  9  1  0
  5 10  1  0
  9 11  2  0
  9 12  1  0
 10 13  1  1
 10 14  1  0
 11 15  1  0
 12 16  2  0
 13 17  2  0
 14 18  1  0
 14 19  1  0
 14 20  1  0
 15 21  2  0
 16 21  1  0
 17 22  1  0
 18 22  2  0
 20 23  1  0
 19 24  1  0
 23 25  1  0
 24 25  1  0
M  END
