mac-x0305-diamond-x0864_0_A
     RDKit          3D

 21 22  0  0  0  0  0  0  0  0999 V2000
   -0.1480   12.6680   -1.4780 N   0  0  0  0  0  0  0  0  0  0  0  0
   -0.4030   14.0210   -1.5590 C   0  0  0  0  0  0  0  0  0  0  0  0
    0.3540   14.8020   -2.1290 O   0  0  0  0  0  0  0  0  0  0  0  0
    0.2310   11.9510   -2.5180 C   0  0  0  0  0  0  0  0  0  0  0  0
    0.4440   12.5220   -3.9330 C   0  0  0  0  0  0  0  0  0  0  0  0
    0.4710   10.6100   -2.4530 O   0  0  0  0  0  0  0  0  0  0  0  0
   -1.7000   14.5390   -0.9510 C   0  0  0  0  0  0  0  0  0  0  0  0
   -1.9610   14.7670    0.4340 C   0  0  0  0  0  0  0  0  0  0  0  0
   -2.6410   14.7820   -1.9140 N   0  0  0  0  0  0  0  0  0  0  0  0
   -0.1930   11.6820   -4.9680 N   0  0  0  0  0  0  0  0  0  0  0  0
   -1.0780   14.5580    1.4710 O   0  0  0  0  0  0  0  0  0  0  0  0
   -3.2310   15.2530    0.7780 C   0  0  0  0  0  0  0  0  0  0  0  0
   -3.8450   15.2510   -1.5290 C   0  0  0  0  0  0  0  0  0  0  0  0
   -1.4160   11.0980   -4.6940 C   0  0  0  0  0  0  0  0  0  0  0  0
    0.4700   11.4600   -6.1810 C   0  0  0  0  0  0  0  0  0  0  0  0
    1.4480   12.0780   -6.5840 O   0  0  0  0  0  0  0  0  0  0  0  0
   -4.1780   15.4980   -0.2120 C   0  0  0  0  0  0  0  0  0  0  0  0
   -1.9330   10.1610   -5.5000 C   0  0  0  0  0  0  0  0  0  0  0  0
   -0.0690   10.3550   -7.0230 C   0  0  0  0  0  0  0  0  0  0  0  0
   -1.2130    9.7480   -6.6800 C   0  0  0  0  0  0  0  0  0  0  0  0
   -1.9380    8.3510   -7.6840 Br  0  0  0  0  0  0  0  0  0  0  0  0
  1  2  1  0
  2  3  2  0
  1  4  2  3
  4  5  1  0
  4  6  1  0
  2  7  1  0
  7  8  2  0
  7  9  1  0
  5 10  1  0
  8 11  1  0
  8 12  1  0
  9 13  2  0
 10 14  1  0
 10 15  1  0
 15 16  2  0
 12 17  2  0
 13 17  1  0
 14 18  2  0
 15 19  1  0
 18 20  1  0
 19 20  2  0
 20 21  1  0
M  END
