mac-x0178-mac-x0305
     RDKit          3D

 21 22  0  0  0  0  0  0  0  0999 V2000
   -0.2670   18.1420   -6.4320 N   0  0  0  0  0  0  0  0  0  0  0  0
   -1.6650   17.5690   -5.7050 S   0  0  0  0  0  0  0  0  0  0  0  0
   -2.5910   17.1600   -6.7290 O   0  0  0  0  0  0  0  0  0  0  0  0
   -1.9970   18.5770   -4.7280 O   0  0  0  0  0  0  0  0  0  0  0  0
   -1.0850   16.1390   -4.8190 C   0  0  0  0  0  0  0  0  0  0  0  0
    0.1400   16.2050   -4.1390 C   0  0  0  0  0  0  0  0  0  0  0  0
   -1.8600   14.9730   -4.8010 C   0  0  0  0  0  0  0  0  0  0  0  0
    0.5800   15.0920   -3.4170 C   0  0  0  0  0  0  0  0  0  0  0  0
   -1.4150   13.8670   -4.0800 C   0  0  0  0  0  0  0  0  0  0  0  0
   -0.2060   13.9320   -3.3860 C   0  0  0  0  0  0  0  0  0  0  0  0
    0.2170   12.7790   -2.6030 C   0  0  0  0  0  0  0  0  0  0  0  0
    0.3270   12.7200   -1.3410 N   0  0  0  0  0  0  0  0  0  0  0  0
    0.4860   11.6910   -3.3390 O   0  0  0  0  0  0  0  0  0  0  0  0
    0.0120   13.9850   -0.6600 C   0  0  0  0  0  0  0  0  0  0  0  0
   -1.4350   14.4810   -0.5800 C   0  0  0  0  0  0  0  0  0  0  0  0
   -1.9460   14.7920    0.6760 C   0  0  0  0  0  0  0  0  0  0  0  0
   -2.2000   14.6260   -1.7100 N   0  0  0  0  0  0  0  0  0  0  0  0
   -1.2210   14.6640    1.8320 O   0  0  0  0  0  0  0  0  0  0  0  0
   -3.2550   15.2640    0.7950 C   0  0  0  0  0  0  0  0  0  0  0  0
   -3.4710   15.0900   -1.5660 C   0  0  0  0  0  0  0  0  0  0  0  0
   -4.0330   15.4190   -0.3470 C   0  0  0  0  0  0  0  0  0  0  0  0
  2  1  1  0
  2  3  2  0
  2  4  2  0
  2  5  1  0
  5  6  2  0
  5  7  1  0
  6  8  1  0
  7  9  2  0
  8 10  2  0
  9 10  1  0
 10 11  1  0
 11 12  2  3
 11 13  1  0
 12 14  1  0
 14 15  1  0
 15 16  2  0
 15 17  1  0
 16 18  1  0
 16 19  1  0
 17 20  2  0
 19 21  2  0
 20 21  1  0
M  END
