mac-x0263-mac-x0124
     RDKit          3D

 25 28  0  0  0  0  0  0  0  0999 V2000
  -11.6410   14.3190    2.6110 O   0  0  0  0  0  0  0  0  0  0  0  0
  -10.9360   15.4270    2.9040 C   0  0  0  0  0  0  0  0  0  0  0  0
  -11.3200   16.2090    3.7530 O   0  0  0  0  0  0  0  0  0  0  0  0
   -9.6950   15.5530    2.0860 C   0  0  0  0  0  0  0  0  0  0  0  0
   -9.0360   14.2060    1.8170 C   0  0  0  0  0  0  0  0  0  0  0  0
   -7.8300   14.4970    1.0220 C   0  0  0  0  0  0  0  0  0  0  0  0
   -7.8840   14.6640   -0.3350 N   0  0  0  0  0  0  0  0  0  0  0  0
   -6.6160   14.6430    1.4810 N   0  0  0  0  0  0  0  0  0  0  0  0
   -6.6310   14.9520   -0.7740 C   0  0  0  0  0  0  0  0  0  0  0  0
   -5.8590   14.9360    0.3760 C   0  0  0  0  0  0  0  0  0  0  0  0
   -6.1360   15.2170   -2.0410 C   0  0  0  0  0  0  0  0  0  0  0  0
   -4.5040   15.2050    0.2790 C   0  0  0  0  0  0  0  0  0  0  0  0
   -3.6410   15.2190    1.3160 N   0  0  0  0  0  0  0  0  0  0  0  0
   -4.7860   15.4790   -2.1240 C   0  0  0  0  0  0  0  0  0  0  0  0
   -4.0000   15.4740   -0.9820 C   0  0  0  0  0  0  0  0  0  0  0  0
   -2.3490   15.0980    0.9360 C   0  0  0  0  0  0  0  0  0  0  0  0
   -2.0960   15.3010   -0.4400 C   0  0  0  0  0  0  0  0  0  0  0  0
   -1.3440   14.7950    1.7370 N   0  0  0  0  0  0  0  0  0  0  0  0
   -2.8770   15.6290   -1.5940 C   0  0  0  0  0  0  0  0  0  0  0  0
   -0.8060   15.1680   -0.8830 C   0  0  0  0  0  0  0  0  0  0  0  0
   -0.1390   14.7030    1.1790 C   0  0  0  0  0  0  0  0  0  0  0  0
   -0.7840   15.3940   -2.2430 N   0  0  0  0  0  0  0  0  0  0  0  0
   -2.0460   15.6780   -2.6840 C   0  0  0  0  0  0  0  0  0  0  0  0
    0.2390   14.8630   -0.1150 N   0  0  0  0  0  0  0  0  0  0  0  0
    0.3970   15.3370   -3.0660 C   0  0  0  0  0  0  0  0  0  0  0  0
  1  2  1  0
  2  3  2  0
  2  4  1  0
  4  5  1  0
  5  6  1  0
  6  7  1  0
  6  8  2  0
  7  9  1  0
  8 10  1  0
  9 10  2  0
  9 11  1  0
 10 12  1  0
 12 13  1  0
 11 14  2  0
 12 15  2  0
 14 15  1  0
 13 16  1  0
 16 17  1  0
 16 18  2  0
 17 19  1  0
 17 20  2  0
 18 21  1  0
 20 22  1  0
 19 23  2  0
 22 23  1  0
 20 24  1  0
 21 24  2  0
 22 25  1  0
M  END
