mac-x0283-diamond-x0962_2_B
     RDKit          3D

 18 20  0  0  0  0  0  0  0  0999 V2000
   -6.7860   14.8460    2.5130 N   0  0  0  0  0  0  0  0  0  0  0  0
   -6.6700   14.7230    1.1610 C   0  0  0  0  0  0  0  0  0  0  0  0
   -7.7110   14.6240    0.2370 N   0  0  0  0  0  0  0  0  0  0  0  0
   -5.5310   14.6900    0.4450 C   0  0  0  0  0  0  0  0  0  0  0  0
   -9.1720   14.7490    0.4040 C   0  0  0  0  0  0  0  0  0  0  0  0
   -7.2520   15.0550   -1.0350 O   0  0  0  0  0  0  0  0  0  0  0  0
   -5.9200   14.5220   -0.9920 C   0  0  1  0  0  0  0  0  0  0  0  0
   -4.1320   14.7660    0.7900 C   0  0  0  0  0  0  0  0  0  0  0  0
   -9.6100   15.8130    1.4610 C   0  0  1  0  0  0  0  0  0  0  0  0
   -4.9380   15.1210   -1.9440 C   0  0  0  0  0  0  0  0  0  0  0  0
   -3.2530   15.0890   -0.1780 C   0  0  0  0  0  0  0  0  0  0  0  0
  -11.0570   16.0290    1.4890 N   0  0  0  0  0  0  0  0  0  0  0  0
   -3.6860   15.3700   -1.5440 C   0  0  0  0  0  0  0  0  0  0  0  0
   -9.0900   15.4870    2.8240 C   0  0  0  0  0  0  0  0  0  0  0  0
   -8.8860   16.3810    3.8520 N   0  0  0  0  0  0  0  0  0  0  0  0
   -8.7030   14.2730    3.3520 C   0  0  0  0  0  0  0  0  0  0  0  0
   -8.3900   15.6830    4.9170 C   0  0  0  0  0  0  0  0  0  0  0  0
   -8.2730   14.4040    4.6440 N   0  0  0  0  0  0  0  0  0  0  0  0
  1  2  1  0
  2  3  1  0
  2  4  2  0
  3  5  1  0
  3  6  1  0
  4  7  1  0
  6  7  1  0
  4  8  1  0
  5  9  1  0
  7 10  1  6
  8 11  2  0
  9 12  1  1
 10 13  2  0
 11 13  1  0
  9 14  1  0
 14 15  1  0
 14 16  2  0
 15 17  1  0
 16 18  1  0
 17 18  2  0
M  END
