mac-x0116-mac-x0190
     RDKit          3D

 22 25  0  0  0  0  0  0  0  0999 V2000
   -6.0030   14.4990    2.2260 C   0  0  0  0  0  0  0  0  0  0  0  0
   -4.5810   14.6830    1.9610 N   0  0  0  0  0  0  0  0  0  0  0  0
   -3.9580   14.6930    0.7200 C   0  0  0  0  0  0  0  0  0  0  0  0
   -6.4850   13.0830    2.1790 C   0  0  0  0  0  0  0  0  0  0  0  0
   -6.3530   12.4150    0.9980 O   0  0  0  0  0  0  0  0  0  0  0  0
   -7.0690   12.2570    3.1080 C   0  0  0  0  0  0  0  0  0  0  0  0
   -7.3130   11.0290    2.4580 C   0  0  0  0  0  0  0  0  0  0  0  0
   -6.8600   11.1800    1.1730 C   0  0  0  0  0  0  0  0  0  0  0  0
   -4.7770   14.6980   -0.5460 C   0  0  2  0  0  0  0  0  0  0  0  0
   -2.6280   14.6760    0.6110 C   0  0  0  0  0  0  0  0  0  0  0  0
   -3.9200   14.8510   -1.8090 C   0  0  0  0  0  0  0  0  0  0  0  0
   -1.9430   14.7100   -0.6690 C   0  0  0  0  0  0  0  0  0  0  0  0
   -1.6730   14.6190    1.5930 N   0  0  0  0  0  0  0  0  0  0  0  0
   -5.9500   15.6240   -0.4840 N   0  0  0  0  0  0  0  0  0  0  0  0
   -5.4960   13.3940   -0.5540 C   0  0  0  0  0  0  0  0  0  0  0  0
   -2.6100   14.8370   -1.8560 N   0  0  0  0  0  0  0  0  0  0  0  0
   -0.6590   14.6460   -0.4820 N   0  0  0  0  0  0  0  0  0  0  0  0
   -0.5650   14.6000    0.9090 C   0  0  0  0  0  0  0  0  0  0  0  0
   -7.0000   14.8420   -0.3800 C   0  0  0  0  0  0  0  0  0  0  0  0
   -6.7740   13.5070   -0.4350 N   0  0  0  0  0  0  0  0  0  0  0  0
   -8.4330   15.3330   -0.2130 C   0  0  0  0  0  0  0  0  0  0  0  0
   -8.8500   15.2650    1.1560 O   0  0  0  0  0  0  0  0  0  0  0  0
  1  2  1  0
  2  3  1  0
  1  4  1  0
  4  5  1  0
  4  6  2  0
  6  7  1  0
  5  8  1  0
  7  8  2  0
  3  9  1  0
  3 10  2  0
  9 11  1  6
 10 12  1  0
 10 13  1  0
  9 14  1  0
  9 15  1  0
 11 16  2  0
 12 16  1  0
 12 17  2  0
 13 18  2  0
 17 18  1  0
 14 19  2  0
 15 20  2  0
 19 20  1  0
 19 21  1  0
 21 22  1  0
M  END
