mac-x0188-diamond-x0950_1_A
     RDKit          3D

 19 21  0  0  0  0  0  0  0  0999 V2000
    1.2370   13.5270   -5.0220 C   0  0  0  0  0  0  0  0  0  0  0  0
    1.4530   12.1190   -4.5320 C   0  0  2  0  0  0  0  0  0  0  0  0
    0.5850   11.3730   -5.3750 O   0  0  0  0  0  0  0  0  0  0  0  0
   -0.0980   13.8710   -4.5560 C   0  0  0  0  0  0  0  0  0  0  0  0
    1.0110   11.9460   -3.0570 C   0  0  0  0  0  0  0  0  0  0  0  0
   -1.1320   13.9600   -5.4180 O   0  0  0  0  0  0  0  0  0  0  0  0
   -0.4890   14.1250   -3.2970 C   0  0  0  0  0  0  0  0  0  0  0  0
    0.4410   14.0830   -2.2070 C   0  0  0  0  0  0  0  0  0  0  0  0
    1.1620   12.9290   -2.1260 O   0  0  0  0  0  0  0  0  0  0  0  0
    0.4990   10.8750   -2.7190 O   0  0  0  0  0  0  0  0  0  0  0  0
   -2.2630   14.2930   -4.6970 N   0  0  0  0  0  0  0  0  0  0  0  0
   -1.8830   14.3970   -3.4030 C   0  0  0  0  0  0  0  0  0  0  0  0
    0.6120   15.0050   -1.4230 O   0  0  0  0  0  0  0  0  0  0  0  0
   -2.8460   14.7460   -2.3660 C   0  0  0  0  0  0  0  0  0  0  0  0
   -4.1410   15.1590   -2.6890 C   0  0  0  0  0  0  0  0  0  0  0  0
   -2.4750   14.6730   -1.0150 C   0  0  0  0  0  0  0  0  0  0  0  0
   -5.0460   15.4940   -1.6790 C   0  0  0  0  0  0  0  0  0  0  0  0
   -3.3810   15.0060   -0.0080 C   0  0  0  0  0  0  0  0  0  0  0  0
   -4.6630   15.4180   -0.3440 C   0  0  0  0  0  0  0  0  0  0  0  0
  1  2  1  0
  2  3  1  6
  1  4  1  0
  2  5  1  0
  4  6  1  0
  4  7  2  0
  7  8  1  0
  5  9  1  0
  8  9  1  0
  5 10  2  0
  6 11  1  0
  7 12  1  0
 11 12  2  0
  8 13  2  0
 12 14  1  0
 14 15  2  0
 14 16  1  0
 15 17  1  0
 16 18  2  0
 17 19  2  0
 18 19  1  0
M  END
