mac-x0333-mac-x0357
     RDKit          3D

 22 24  0  0  0  0  0  0  0  0999 V2000
   -2.6920   15.1230   -3.0710 O   0  0  0  0  0  0  0  0  0  0  0  0
   -3.4680   15.0310   -1.9460 C   0  0  0  0  0  0  0  0  0  0  0  0
   -2.8360   14.7040   -0.7190 C   0  0  0  0  0  0  0  0  0  0  0  0
   -4.8380   15.2540   -2.0490 C   0  0  0  0  0  0  0  0  0  0  0  0
   -1.3290   14.4470   -0.7920 C   0  0  0  0  0  0  0  0  0  0  0  0
   -5.5810   15.1520   -0.9060 C   0  0  0  0  0  0  0  0  0  0  0  0
   -3.6410   14.6230    0.4460 C   0  0  0  0  0  0  0  0  0  0  0  0
   -1.0590   13.8210   -2.0960 N   0  0  0  0  0  0  0  0  0  0  0  0
   -5.0110   14.8530    0.3060 C   0  0  0  0  0  0  0  0  0  0  0  0
   -6.9300   15.3170   -0.8090 O   0  0  0  0  0  0  0  0  0  0  0  0
   -0.0350   13.1450   -2.4690 C   0  0  0  0  0  0  0  0  0  0  0  0
   -5.9640   14.8160    1.2790 O   0  0  0  0  0  0  0  0  0  0  0  0
   -7.1250   14.6480    0.4480 C   0  0  0  0  0  0  0  0  0  0  0  0
    1.0650   12.8720   -1.7380 O   0  0  0  0  0  0  0  0  0  0  0  0
    0.0090   12.5420   -3.8340 C   0  0  0  0  0  0  0  0  0  0  0  0
    1.1130   12.5720   -4.7170 C   0  0  0  0  0  0  0  0  0  0  0  0
   -1.1820   11.8980   -4.2350 C   0  0  0  0  0  0  0  0  0  0  0  0
    2.4240   13.2280   -4.3740 C   0  0  0  0  0  0  0  0  0  0  0  0
   -1.2990   11.2910   -5.4840 C   0  0  0  0  0  0  0  0  0  0  0  0
    0.9580   11.9480   -5.9670 C   0  0  0  0  0  0  0  0  0  0  0  0
    2.0060   11.9590   -6.8190 O   0  0  0  0  0  0  0  0  0  0  0  0
   -0.2250   11.3160   -6.3560 C   0  0  0  0  0  0  0  0  0  0  0  0
  1  2  1  0
  2  3  2  0
  2  4  1  0
  3  5  1  0
  4  6  2  0
  3  7  1  0
  5  8  1  0
  6  9  1  0
  7  9  2  0
  6 10  1  0
  8 11  2  3
  9 12  1  0
 10 13  1  0
 12 13  1  0
 11 14  1  0
 11 15  1  0
 15 16  2  0
 15 17  1  0
 16 18  1  0
 17 19  2  0
 16 20  1  0
 20 21  1  0
 19 22  1  0
 20 22  2  0
M  END
