mac-x0337-diamond-x0471_0_A
     RDKit          3D

 27 29  0  0  0  0  0  0  0  0999 V2000
   -5.9070    8.9980   -2.0170 C   0  0  0  0  0  0  0  0  0  0  0  0
   -5.3190   10.3770   -2.0530 C   0  0  0  0  0  0  0  0  0  0  0  0
   -5.9400   11.4490   -1.4050 C   0  0  0  0  0  0  0  0  0  0  0  0
   -4.1240   10.5880   -2.7530 C   0  0  0  0  0  0  0  0  0  0  0  0
   -3.5570   11.8520   -2.8230 C   0  0  0  0  0  0  0  0  0  0  0  0
   -5.3750   12.7200   -1.4740 C   0  0  0  0  0  0  0  0  0  0  0  0
   -4.1840   12.9100   -2.1960 C   0  0  0  0  0  0  0  0  0  0  0  0
   -3.4670   14.5220   -2.3260 S   0  0  0  0  0  0  0  0  0  0  0  0
   -3.0530   14.8230   -3.6630 O   0  0  0  0  0  0  0  0  0  0  0  0
   -2.5650   14.6730   -1.1920 O   0  0  0  0  0  0  0  0  0  0  0  0
   -4.8620   15.3820   -2.0930 N   0  0  0  0  0  0  0  0  0  0  0  0
   -4.8520   15.3200   -0.7800 C   0  0  0  0  0  0  0  0  0  0  0  0
   -5.8880   15.0480    0.0430 C   0  0  0  0  0  0  0  0  0  0  0  0
   -3.6080   15.5410   -0.2850 C   0  0  0  0  0  0  0  0  0  0  0  0
   -7.2180   14.7780   -0.1300 N   0  0  0  0  0  0  0  0  0  0  0  0
   -5.6670   15.0040    1.4010 C   0  0  0  0  0  0  0  0  0  0  0  0
   -3.3430   15.5100    1.0340 C   0  0  0  0  0  0  0  0  0  0  0  0
   -7.7430   14.5840    1.1190 C   0  0  0  0  0  0  0  0  0  0  0  0
   -6.8320   14.7160    2.0520 N   0  0  0  0  0  0  0  0  0  0  0  0
   -4.3730   15.2450    1.9050 C   0  0  0  0  0  0  0  0  0  0  0  0
   -9.1630   14.2710    1.3600 C   0  0  0  0  0  0  0  0  0  0  0  0
   -9.2710   13.9870    2.7730 N   0  0  0  0  0  0  0  0  0  0  0  0
   -9.1190   14.9670    3.7320 C   0  0  0  0  0  0  0  0  0  0  0  0
   -9.2830   16.1600    3.4950 O   0  0  0  0  0  0  0  0  0  0  0  0
   -8.7470   14.4200    5.1090 C   0  0  0  0  0  0  0  0  0  0  0  0
   -9.9140   13.6360    5.7100 C   0  0  0  0  0  0  0  0  0  0  0  0
   -8.3260   15.5560    6.0420 C   0  0  0  0  0  0  0  0  0  0  0  0
  1  2  1  0
  2  3  2  0
  2  4  1  0
  4  5  2  0
  3  6  1  0
  5  7  1  0
  6  7  2  0
  7  8  1  0
  8  9  2  0
  8 10  2  0
  8 11  1  0
 11 12  1  0
 12 13  1  0
 12 14  2  0
 13 15  1  0
 13 16  2  0
 14 17  1  0
 15 18  1  0
 16 19  1  0
 18 19  2  0
 16 20  1  0
 17 20  2  0
 18 21  1  0
 21 22  1  0
 22 23  1  0
 23 24  2  0
 23 25  1  0
 25 26  1  0
 25 27  1  0
M  END
