mac-x0283-mac-x0306
     RDKit          3D

 10 11  0  0  0  0  0  0  0  0999 V2000
   -6.8730   14.5920    2.4630 N   0  0  0  0  0  0  0  0  0  0  0  0
   -6.7100   14.7210    1.1340 C   0  0  0  0  0  0  0  0  0  0  0  0
   -7.7190   14.7180    0.2620 N   0  0  0  0  0  0  0  0  0  0  0  0
   -5.4520   14.8850    0.4870 C   0  0  0  0  0  0  0  0  0  0  0  0
   -7.1390   14.8860   -0.9850 O   0  0  0  0  0  0  0  0  0  0  0  0
   -5.7890   14.9860   -0.8510 C   0  0  0  0  0  0  0  0  0  0  0  0
   -4.0960   14.9610    0.8510 C   0  0  0  0  0  0  0  0  0  0  0  0
   -4.8750   15.1620   -1.8820 C   0  0  0  0  0  0  0  0  0  0  0  0
   -3.1490   15.1330   -0.1650 C   0  0  0  0  0  0  0  0  0  0  0  0
   -3.5330   15.2330   -1.5050 C   0  0  0  0  0  0  0  0  0  0  0  0
  1  2  1  0
  2  3  2  0
  2  4  1  0
  3  5  1  0
  4  6  2  0
  5  6  1  0
  4  7  1  0
  6  8  1  0
  7  9  2  0
  8 10  2  0
  9 10  1  0
M  END
