mac-x0148-mac-x0510
     RDKit          3D

 20 23  0  0  0  0  0  0  0  0999 V2000
   -5.7250   15.0430    0.1370 O   0  0  0  0  0  0  0  0  0  0  0  0
   -4.5040   15.0870    0.1120 C   0  0  0  0  0  0  0  0  0  0  0  0
   -3.6860   15.1190    1.2140 N   0  0  0  0  0  0  0  0  0  0  0  0
   -3.6890   15.0810   -1.2080 C   0  0  0  0  0  0  0  0  0  0  0  0
   -4.0920   15.2620   -2.3180 O   0  0  0  0  0  0  0  0  0  0  0  0
   -2.4950   14.9490    0.7620 C   0  0  0  0  0  0  0  0  0  0  0  0
   -2.3400   14.7990   -0.7140 C   0  0  0  0  0  0  0  0  0  0  0  0
   -1.4440   14.9050    1.6000 N   0  0  0  0  0  0  0  0  0  0  0  0
   -1.1240   14.4670   -1.2250 C   0  0  0  0  0  0  0  0  0  0  0  0
   -0.6890   14.2320   -2.5440 N   0  0  0  0  0  0  0  0  0  0  0  0
   -0.1360   14.3350   -0.2630 N   0  0  0  0  0  0  0  0  0  0  0  0
   -0.3370   14.6090    1.0580 C   0  0  0  0  0  0  0  0  0  0  0  0
   -1.3130   14.5800   -3.8680 C   0  0  2  0  0  0  0  0  0  0  0  0
    0.4680   13.2970   -2.6770 C   0  0  0  0  0  0  0  0  0  0  0  0
   -2.7020   15.1810   -3.9650 C   0  0  0  0  0  0  0  0  0  0  0  0
   -1.6500   13.2840   -4.5980 C   0  0  1  0  0  0  0  0  0  0  0  0
    0.1530   12.0740   -3.5430 C   0  0  0  0  0  0  0  0  0  0  0  0
   -2.5620   13.6970   -5.7290 C   0  0  0  0  0  0  0  0  0  0  0  0
   -3.0610   14.9950   -5.3530 O   0  0  0  0  0  0  0  0  0  0  0  0
   -0.4110   12.4840   -4.9010 C   0  0  0  0  0  0  0  0  0  0  0  0
  1  2  2  0
  2  3  1  0
  2  4  1  0
  4  5  2  0
  3  6  2  0
  4  7  1  0
  6  7  1  0
  6  8  1  0
  7  9  2  0
  9 10  1  0
  9 11  1  0
  8 12  2  0
 11 12  1  0
 10 13  1  0
 10 14  1  0
 13 15  1  1
 13 16  1  0
 14 17  1  0
 16 18  1  6
 15 19  1  0
 18 19  1  0
 16 20  1  0
 17 20  1  0
M  END
