mac-x0568-diamond-x0104_0_A
     RDKit          3D

 18 20  0  0  0  0  0  0  0  0999 V2000
   -8.2550   14.6350    1.8640 C   0  0  0  0  0  0  0  0  0  0  0  0
   -7.6050   14.7350    3.0960 C   0  0  0  0  0  0  0  0  0  0  0  0
   -6.2750   14.8520    2.8210 N   0  0  0  0  0  0  0  0  0  0  0  0
   -7.2340   14.7070    0.8530 C   0  0  0  0  0  0  0  0  0  0  0  0
   -7.9670   14.7370    4.4150 N   0  0  0  0  0  0  0  0  0  0  0  0
   -7.3070   14.6710   -0.5020 N   0  0  0  0  0  0  0  0  0  0  0  0
   -6.0150   14.8430    1.5040 C   0  0  0  0  0  0  0  0  0  0  0  0
   -6.1030   14.7860   -1.1430 C   0  0  0  0  0  0  0  0  0  0  0  0
   -4.7970   14.9500    0.8490 C   0  0  0  0  0  0  0  0  0  0  0  0
   -9.1180   14.9010    5.1440 C   0  0  0  0  0  0  0  0  0  0  0  0
   -4.8510   14.9240   -0.5340 C   0  0  0  0  0  0  0  0  0  0  0  0
   -9.2680   15.1130    6.5090 C   0  0  0  0  0  0  0  0  0  0  0  0
  -10.6630   14.8490    4.3830 S   0  0  0  0  0  0  0  0  0  0  0  0
   -3.5810   15.0430   -1.2820 C   0  0  0  0  0  0  0  0  0  0  0  0
  -11.4940   15.1030    5.8560 C   0  0  0  0  0  0  0  0  0  0  0  0
  -10.6290   15.2280    6.9190 C   0  0  0  0  0  0  0  0  0  0  0  0
   -3.5640   15.3160   -2.4740 O   0  0  0  0  0  0  0  0  0  0  0  0
   -2.4090   14.8280   -0.6020 N   0  0  0  0  0  0  0  0  0  0  0  0
  1  2  2  0
  2  3  1  0
  1  4  1  0
  2  5  1  0
  4  6  2  0
  3  7  1  0
  4  7  1  0
  6  8  1  0
  7  9  2  0
  5 10  1  0
  8 11  2  0
  9 11  1  0
 10 12  2  0
 10 13  1  0
 11 14  1  0
 13 15  1  0
 12 16  1  0
 15 16  2  0
 14 17  2  0
 14 18  1  0
M  END
