mac-x0212-mac-x0138
     RDKit          3D

 18 19  0  0  0  0  0  0  0  0999 V2000
   -6.5660   12.7230    1.4150 C   0  0  0  0  0  0  0  0  0  0  0  0
   -6.9110   14.4440    1.0880 S   0  0  0  0  0  0  0  0  0  0  0  0
   -7.7390   14.9460    2.1650 O   0  0  0  0  0  0  0  0  0  0  0  0
   -7.3440   14.5960   -0.2850 O   0  0  0  0  0  0  0  0  0  0  0  0
   -5.3870   15.1290    1.3020 N   0  0  0  0  0  0  0  0  0  0  0  0
   -4.4260   15.0090    0.2530 C   0  0  0  0  0  0  0  0  0  0  0  0
   -3.0640   14.7280    0.4330 C   0  0  0  0  0  0  0  0  0  0  0  0
   -4.8660   15.1710   -1.0760 C   0  0  0  0  0  0  0  0  0  0  0  0
   -2.1700   14.5900   -0.6340 C   0  0  0  0  0  0  0  0  0  0  0  0
   -3.9920   15.0380   -2.1600 C   0  0  0  0  0  0  0  0  0  0  0  0
   -2.2700   14.5210    1.5560 N   0  0  0  0  0  0  0  0  0  0  0  0
   -2.6330   14.7370   -1.9570 C   0  0  0  0  0  0  0  0  0  0  0  0
   -0.9970   14.2800    1.1420 C   0  0  0  0  0  0  0  0  0  0  0  0
   -0.9040   14.3140   -0.1610 N   0  0  0  0  0  0  0  0  0  0  0  0
   -1.6830   14.5690   -3.0840 C   0  0  0  0  0  0  0  0  0  0  0  0
   -0.0120   14.0440    2.0160 N   0  0  0  0  0  0  0  0  0  0  0  0
   -0.5670   14.0850   -3.0590 O   0  0  0  0  0  0  0  0  0  0  0  0
   -2.1850   15.0210   -4.2510 O   0  0  0  0  0  0  0  0  0  0  0  0
  1  2  1  0
  2  3  2  0
  2  4  2  0
  2  5  1  0
  5  6  1  0
  6  7  2  0
  6  8  1  0
  7  9  1  0
  8 10  2  0
  7 11  1  0
  9 12  2  0
 10 12  1  0
 11 13  1  0
  9 14  1  0
 13 14  2  0
 12 15  1  0
 13 16  1  0
 15 17  2  0
 15 18  1  0
M  END
