mac-x0527-mac-x0568
     RDKit          3D

 19 20  0  0  0  0  0  0  0  0999 V2000
   -3.7490   15.4040   -3.4510 O   0  0  0  0  0  0  0  0  0  0  0  0
   -3.1480   14.8080   -2.2950 C   0  0  1  0  0  0  0  0  0  0  0  0
   -2.1430   13.8780   -2.7830 N   0  0  0  0  0  0  0  0  0  0  0  0
   -2.4230   15.9060   -1.5150 C   0  0  0  0  0  0  0  0  0  0  0  0
   -4.1750   14.2030   -1.2830 C   0  0  2  0  0  0  0  0  0  0  0  0
   -1.3040   14.3360   -3.8800 C   0  0  0  0  0  0  0  0  0  0  0  0
   -1.5340   15.4960   -0.4180 N   0  0  0  0  0  0  0  0  0  0  0  0
   -5.5370   14.9760   -1.1450 C   0  0  0  0  0  0  0  0  0  0  0  0
   -3.4210   14.1450    0.0150 N   0  0  0  0  0  0  0  0  0  0  0  0
   -1.0250   13.0970   -4.6780 C   0  0  0  0  0  0  0  0  0  0  0  0
   -6.1030   14.8650    0.2310 N   0  0  0  0  0  0  0  0  0  0  0  0
   -3.9380   14.6780    1.1720 C   0  0  0  0  0  0  0  0  0  0  0  0
   -7.5410   14.5930    0.4180 C   0  0  0  0  0  0  0  0  0  0  0  0
   -1.8690   11.9950   -4.4940 C   0  0  0  0  0  0  0  0  0  0  0  0
    0.0420   13.0120   -5.5850 C   0  0  0  0  0  0  0  0  0  0  0  0
   -5.2170   15.0180    1.2870 C   0  0  0  0  0  0  0  0  0  0  0  0
   -1.6600   10.8160   -5.2010 C   0  0  0  0  0  0  0  0  0  0  0  0
    0.2500   11.8270   -6.2940 C   0  0  0  0  0  0  0  0  0  0  0  0
   -0.5990   10.7310   -6.1020 C   0  0  0  0  0  0  0  0  0  0  0  0
  2  1  1  6
  2  3  1  0
  2  4  1  0
  2  5  1  0
  3  6  1  0
  4  7  1  0
  5  8  1  1
  5  9  1  0
  6 10  1  0
  8 11  1  0
  9 12  1  0
 11 13  1  0
 10 14  2  0
 10 15  1  0
 11 16  1  0
 12 16  2  0
 14 17  1  0
 15 18  2  0
 17 19  2  0
 18 19  1  0
M  END
