mac-x0472-mac-x0228
     RDKit          3D

 25 28  0  0  0  0  0  0  0  0999 V2000
   -4.2200   15.1750   -3.4690 O   0  0  0  0  0  0  0  0  0  0  0  0
   -3.1930   14.2010   -3.1530 S   0  0  0  0  0  0  0  0  0  0  0  0
   -2.2650   13.8960   -4.2240 O   0  0  0  0  0  0  0  0  0  0  0  0
   -2.2300   14.8000   -1.7010 C   0  0  1  0  0  0  0  0  0  0  0  0
   -4.0240   12.6790   -2.7010 C   0  0  0  0  0  0  0  0  0  0  0  0
   -1.4220   13.6070   -1.5350 O   0  0  0  0  0  0  0  0  0  0  0  0
   -2.5090   14.8740   -0.2150 C   0  0  0  0  0  0  0  0  0  0  0  0
   -3.3600   11.4660   -2.8860 C   0  0  0  0  0  0  0  0  0  0  0  0
   -5.3230   12.6950   -2.1750 C   0  0  0  0  0  0  0  0  0  0  0  0
   -3.7200   14.8200   -1.4220 C   0  0  0  0  0  0  0  0  0  0  0  0
   -1.8210   14.3010    0.7450 N   0  0  0  0  0  0  0  0  0  0  0  0
   -3.8790   15.7790    0.3720 S   0  0  0  0  0  0  0  0  0  0  0  0
   -3.9990   10.2780   -2.5520 C   0  0  0  0  0  0  0  0  0  0  0  0
   -5.9530   11.4990   -1.8390 C   0  0  0  0  0  0  0  0  0  0  0  0
   -4.2460   14.1910   -0.2890 C   0  0  0  0  0  0  0  0  0  0  0  0
   -4.6120   15.4890   -2.2900 C   0  0  0  0  0  0  0  0  0  0  0  0
   -3.4450   15.2860    1.9230 C   0  0  0  0  0  0  0  0  0  0  0  0
   -2.3700   14.5400    1.9720 N   0  0  0  0  0  0  0  0  0  0  0  0
   -5.2930   10.2940   -2.0310 C   0  0  0  0  0  0  0  0  0  0  0  0
   -5.5980   14.2640   -0.0550 C   0  0  0  0  0  0  0  0  0  0  0  0
   -5.9850   15.5410   -2.0370 C   0  0  0  0  0  0  0  0  0  0  0  0
   -6.4460   14.9260   -0.9110 C   0  0  0  0  0  0  0  0  0  0  0  0
   -6.3540   13.7040    1.0680 C   0  0  0  0  0  0  0  0  0  0  0  0
   -7.7540   14.9020   -0.5260 O   0  0  0  0  0  0  0  0  0  0  0  0
   -7.7260   14.3050    0.7890 C   0  0  0  0  0  0  0  0  0  0  0  0
  1  2  2  0
  2  3  2  0
  2  4  1  0
  2  5  1  0
  4  6  1  6
  4  7  1  0
  5  8  2  0
  5  9  1  0
  4 10  1  0
  7 11  2  0
  7 12  1  0
  8 13  1  0
  9 14  2  0
 10 15  2  0
 10 16  1  0
 12 17  1  0
 11 18  1  0
 17 18  2  0
 13 19  2  0
 14 19  1  0
 15 20  1  0
 16 21  2  0
 20 22  2  0
 21 22  1  0
 20 23  1  0
 22 24  1  0
 23 25  1  0
 24 25  1  0
M  END
