mac-x0576-mac-x0565
     RDKit          3D

 24 27  0  0  0  0  0  0  0  0999 V2000
   -0.1510   14.1280    1.9140 N   0  0  0  0  0  0  0  0  0  0  0  0
   -1.0780   13.8810    0.8770 C   0  0  1  0  0  0  0  0  0  0  0  0
   -2.3930   14.0620    1.4080 N   0  0  0  0  0  0  0  0  0  0  0  0
   -0.8550   14.8430   -0.1060 N   0  0  0  0  0  0  0  0  0  0  0  0
   -1.7560   14.8560   -1.1470 C   0  0  0  0  0  0  0  0  0  0  0  0
   -3.3980   13.9550    0.3460 C   0  0  2  0  0  0  0  0  0  0  0  0
   -1.3990   14.6950   -2.3080 O   0  0  0  0  0  0  0  0  0  0  0  0
   -3.1890   15.0940   -0.6760 C   0  0  2  0  0  0  0  0  0  0  0  0
   -4.8030   13.8620    0.6970 N   0  0  0  0  0  0  0  0  0  0  0  0
   -5.7690   14.1850   -0.2470 C   0  0  0  0  0  0  0  0  0  0  0  0
   -4.1670   15.1590   -1.7740 N   0  0  0  0  0  0  0  0  0  0  0  0
   -6.8280   13.4260   -0.3440 N   0  0  0  0  0  0  0  0  0  0  0  0
   -5.4700   15.4080   -1.1500 C   0  0  0  0  0  0  0  0  0  0  0  0
   -7.7840   13.7050   -1.3060 C   0  0  0  0  0  0  0  0  0  0  0  0
   -8.9780   13.8290   -1.0490 O   0  0  0  0  0  0  0  0  0  0  0  0
   -7.3120   13.8600   -2.7330 C   0  0  0  0  0  0  0  0  0  0  0  0
   -5.9380   13.7540   -3.0520 C   0  0  0  0  0  0  0  0  0  0  0  0
   -8.2380   14.1180   -3.7670 C   0  0  0  0  0  0  0  0  0  0  0  0
   -5.5570   13.9130   -4.3760 C   0  0  0  0  0  0  0  0  0  0  0  0
   -7.8220   14.2690   -5.0990 C   0  0  0  0  0  0  0  0  0  0  0  0
   -6.4750   14.1630   -5.3700 C   0  0  0  0  0  0  0  0  0  0  0  0
   -4.2840   13.8520   -4.8670 O   0  0  0  0  0  0  0  0  0  0  0  0
   -5.8790   14.2830   -6.5910 O   0  0  0  0  0  0  0  0  0  0  0  0
   -4.5070   14.4260   -6.1710 C   0  0  0  0  0  0  0  0  0  0  0  0
  2  1  1  1
  2  3  1  0
  2  4  1  0
  4  5  1  0
  6  3  1  1
  5  7  2  0
  5  8  1  0
  6  8  1  0
  6  9  1  0
  9 10  1  0
  8 11  1  6
 10 12  2  3
 10 13  1  0
 11 13  1  0
 12 14  1  0
 14 15  2  0
 14 16  1  0
 16 17  2  0
 16 18  1  0
 17 19  1  0
 18 20  2  0
 19 21  2  0
 20 21  1  0
 19 22  1  0
 21 23  1  0
 22 24  1  0
 23 24  1  0
M  END
