mac-x0255-mac-x0228
     RDKit          3D

 25 28  0  0  0  0  0  0  0  0999 V2000
    1.1560   13.0050   -1.8770 O   0  0  0  0  0  0  0  0  0  0  0  0
    0.5910   12.0790   -2.6900 C   0  0  0  0  0  0  0  0  0  0  0  0
    0.1300   11.0480   -2.2400 O   0  0  0  0  0  0  0  0  0  0  0  0
    0.6100   12.4600   -4.1500 C   0  0  0  0  0  0  0  0  0  0  0  0
    0.2000   13.8630   -4.4620 C   0  0  0  0  0  0  0  0  0  0  0  0
   -0.9530   14.5960   -4.3730 C   0  0  0  0  0  0  0  0  0  0  0  0
    1.3480   14.8860   -5.1000 S   0  0  0  0  0  0  0  0  0  0  0  0
   -2.2150   14.2980   -3.9280 N   0  0  0  0  0  0  0  0  0  0  0  0
   -0.8900   15.9430   -4.8290 C   0  0  0  0  0  0  0  0  0  0  0  0
    0.3240   16.2440   -5.2680 C   0  0  0  0  0  0  0  0  0  0  0  0
   -2.4150   14.6560   -2.7220 C   0  0  0  0  0  0  0  0  0  0  0  0
   -1.8820   16.9490   -4.8850 C   0  0  0  0  0  0  0  0  0  0  0  0
    0.6090   17.5150   -5.7750 C   0  0  0  0  0  0  0  0  0  0  0  0
   -1.3790   15.1070   -1.9970 O   0  0  0  0  0  0  0  0  0  0  0  0
   -1.6240   18.2170   -5.3840 C   0  0  0  0  0  0  0  0  0  0  0  0
   -0.3800   18.4910   -5.8280 C   0  0  0  0  0  0  0  0  0  0  0  0
   -3.6590   14.7090   -1.9820 C   0  0  0  0  0  0  0  0  0  0  0  0
   -3.8180   14.4560   -0.6240 C   0  0  0  0  0  0  0  0  0  0  0  0
   -4.7440   15.0720   -2.7920 C   0  0  0  0  0  0  0  0  0  0  0  0
   -5.1050   14.5850   -0.1250 C   0  0  0  0  0  0  0  0  0  0  0  0
   -6.0170   15.1970   -2.2730 C   0  0  0  0  0  0  0  0  0  0  0  0
   -6.1730   14.9500   -0.9380 C   0  0  0  0  0  0  0  0  0  0  0  0
   -5.6060   14.3850    1.2440 C   0  0  0  0  0  0  0  0  0  0  0  0
   -7.3710   15.0350   -0.2880 O   0  0  0  0  0  0  0  0  0  0  0  0
   -7.1110   14.3890    0.9790 C   0  0  0  0  0  0  0  0  0  0  0  0
  1  2  1  0
  2  3  2  0
  2  4  1  0
  4  5  1  0
  5  6  2  0
  5  7  1  0
  6  8  1  0
  6  9  1  0
  7 10  1  0
  9 10  2  0
  8 11  2  3
  9 12  1  0
 10 13  1  0
 11 14  1  0
 12 15  2  0
 13 16  2  0
 15 16  1  0
 11 17  1  0
 17 18  2  0
 17 19  1  0
 18 20  1  0
 19 21  2  0
 20 22  2  0
 21 22  1  0
 20 23  1  0
 22 24  1  0
 23 25  1  0
 24 25  1  0
M  END
