mac-x0436-diamond-x0104_0_A
     RDKit          3D

 35 38  0  0  0  0  0  0  0  0999 V2000
    0.5680   11.2120   -3.0650 O   0  0  0  0  0  0  0  0  0  0  0  0
    1.2500   12.3720   -3.0110 C   0  0  0  0  0  0  0  0  0  0  0  0
    1.5140   12.8680   -1.9340 O   0  0  0  0  0  0  0  0  0  0  0  0
    1.6110   12.9320   -4.3600 C   0  0  0  0  0  0  0  0  0  0  0  0
    0.3740   13.2360   -5.1990 C   0  0  0  0  0  0  0  0  0  0  0  0
   -0.3700   11.9680   -5.5510 C   0  0  0  0  0  0  0  0  0  0  0  0
   -1.6130   11.5770   -4.7230 C   0  0  0  0  0  0  0  0  0  0  0  0
    0.0510   11.2380   -6.5420 N   0  0  0  0  0  0  0  0  0  0  0  0
   -1.8130   12.2780   -3.6600 N   0  0  0  0  0  0  0  0  0  0  0  0
   -2.3650   10.5300   -5.2060 N   0  0  0  0  0  0  0  0  0  0  0  0
   -0.6530   10.0680   -6.8660 C   0  0  0  0  0  0  0  0  0  0  0  0
   -2.9470   12.0180   -2.7820 C   0  0  0  0  0  0  0  0  0  0  0  0
   -1.8490    9.7030   -6.2150 C   0  0  0  0  0  0  0  0  0  0  0  0
   -0.1360    9.2480   -7.8700 C   0  0  0  0  0  0  0  0  0  0  0  0
   -4.0370   13.0630   -2.9880 C   0  0  0  0  0  0  0  0  0  0  0  0
   -0.7980    8.0760   -8.2350 C   0  0  0  0  0  0  0  0  0  0  0  0
   -2.5070    8.5250   -6.5840 C   0  0  0  0  0  0  0  0  0  0  0  0
   -3.5670   14.4960   -2.7250 C   0  0  0  0  0  0  0  0  0  0  0  0
   -1.9810    7.7130   -7.5910 C   0  0  0  0  0  0  0  0  0  0  0  0
   -4.7000   15.3040   -2.4140 O   0  0  0  0  0  0  0  0  0  0  0  0
   -5.1770   15.1300   -1.1330 C   0  0  0  0  0  0  0  0  0  0  0  0
   -4.3280   15.1720   -0.0880 N   0  0  0  0  0  0  0  0  0  0  0  0
   -6.5390   14.9170   -1.0110 C   0  0  0  0  0  0  0  0  0  0  0  0
   -4.8690   14.9990    1.1430 C   0  0  0  0  0  0  0  0  0  0  0  0
   -7.0720   14.7410    0.2640 C   0  0  0  0  0  0  0  0  0  0  0  0
   -6.2270   14.7830    1.3760 C   0  0  0  0  0  0  0  0  0  0  0  0
   -6.7930   14.6120    2.6500 N   0  0  0  0  0  0  0  0  0  0  0  0
   -7.9790   15.0620    3.1370 C   0  0  0  0  0  0  0  0  0  0  0  0
   -8.1460   15.1130    4.4940 N   0  0  0  0  0  0  0  0  0  0  0  0
   -8.9320   15.4280    2.4470 O   0  0  0  0  0  0  0  0  0  0  0  0
   -9.2710   15.0900    5.2930 C   0  0  0  0  0  0  0  0  0  0  0  0
   -9.2760   15.2010    6.6680 C   0  0  0  0  0  0  0  0  0  0  0  0
  -10.8450   14.9160    4.6760 S   0  0  0  0  0  0  0  0  0  0  0  0
  -11.5490   14.9860    6.2310 C   0  0  0  0  0  0  0  0  0  0  0  0
  -10.5960   15.1410    7.2130 C   0  0  0  0  0  0  0  0  0  0  0  0
  1  2  1  0
  2  3  2  0
  2  4  1  0
  4  5  1  0
  5  6  1  0
  6  7  1  0
  6  8  2  0
  7  9  2  3
  7 10  1  0
  8 11  1  0
  9 12  1  0
 10 13  1  0
 11 13  2  0
 11 14  1  0
 12 15  1  0
 14 16  2  0
 13 17  1  0
 15 18  1  0
 16 19  1  0
 17 19  2  0
 18 20  1  0
 20 21  1  0
 21 22  2  0
 21 23  1  0
 22 24  1  0
 23 25  2  0
 24 26  2  0
 25 26  1  0
 26 27  1  0
 27 28  1  0
 28 29  1  0
 28 30  2  0
 29 31  1  0
 31 32  2  0
 31 33  1  0
 33 34  1  0
 32 35  1  0
 34 35  2  0
M  END
