mac-x0555-mac-x0255
     RDKit          3D

 27 30  0  0  0  0  0  0  0  0999 V2000
   -7.5350   14.3030    2.8990 N   0  0  0  0  0  0  0  0  0  0  0  0
   -7.0270   14.5220    1.6220 C   0  0  0  0  0  0  0  0  0  0  0  0
   -7.8220   14.7610    0.5060 C   0  0  0  0  0  0  0  0  0  0  0  0
   -5.6580   14.5110    1.4120 C   0  0  0  0  0  0  0  0  0  0  0  0
   -5.1280   14.7270    0.1420 C   0  0  0  0  0  0  0  0  0  0  0  0
   -7.3520   14.9820   -0.7450 N   0  0  0  0  0  0  0  0  0  0  0  0
   -6.0210   14.9650   -0.9210 C   0  0  0  0  0  0  0  0  0  0  0  0
   -3.7510   14.7020   -0.0770 C   0  0  0  0  0  0  0  0  0  0  0  0
   -5.4910   15.1840   -2.1800 C   0  0  0  0  0  0  0  0  0  0  0  0
   -3.2340   14.9070   -1.3520 C   0  0  0  0  0  0  0  0  0  0  0  0
   -1.7550   14.8420   -1.5670 C   0  0  0  0  0  0  0  0  0  0  0  0
   -4.1120   15.1570   -2.4080 C   0  0  0  0  0  0  0  0  0  0  0  0
   -1.1530   13.4670   -1.4900 C   0  0  0  0  0  0  0  0  0  0  0  0
    0.3380   13.5690   -1.2440 C   0  0  0  0  0  0  0  0  0  0  0  0
    0.9130   12.3200   -1.5250 O   0  0  0  0  0  0  0  0  0  0  0  0
    0.7240   11.9090   -2.8070 C   0  0  0  0  0  0  0  0  0  0  0  0
    0.0770   10.9100   -3.0870 O   0  0  0  0  0  0  0  0  0  0  0  0
    1.3990   12.7840   -3.8610 C   0  0  0  0  0  0  0  0  0  0  0  0
    0.6670   14.0390   -4.2720 C   0  0  0  0  0  0  0  0  0  0  0  0
    1.2180   15.2860   -4.4810 C   0  0  0  0  0  0  0  0  0  0  0  0
   -1.0230   14.0670   -4.5480 S   0  0  0  0  0  0  0  0  0  0  0  0
    0.2610   16.2790   -4.8770 C   0  0  0  0  0  0  0  0  0  0  0  0
   -1.0260   15.7420   -4.9530 C   0  0  0  0  0  0  0  0  0  0  0  0
    0.4410   17.6440   -5.1830 C   0  0  0  0  0  0  0  0  0  0  0  0
   -2.1320   16.5380   -5.3260 C   0  0  0  0  0  0  0  0  0  0  0  0
   -0.6500   18.4310   -5.5560 C   0  0  0  0  0  0  0  0  0  0  0  0
   -1.9150   17.8830   -5.6270 C   0  0  0  0  0  0  0  0  0  0  0  0
  1  2  1  0
  2  3  2  0
  2  4  1  0
  4  5  2  0
  3  6  1  0
  5  7  1  0
  6  7  2  0
  5  8  1  0
  7  9  1  0
  8 10  2  0
 10 11  1  0
  9 12  2  0
 10 12  1  0
 11 13  1  0
 13 14  1  0
 14 15  1  0
 15 16  1  0
 16 17  2  0
 16 18  1  0
 18 19  1  0
 19 20  2  0
 19 21  1  0
 20 22  1  0
 21 23  1  0
 22 23  2  0
 22 24  1  0
 23 25  1  0
 24 26  2  0
 25 27  2  0
 26 27  1  0
M  END
