mac-x0433-diamond-x0910_1_A
     RDKit          3D

  9  9  0  0  0  0  0  0  0  0999 V2000
   -3.1010   15.2340    0.5550 C   0  0  0  0  0  0  0  0  0  0  0  0
   -4.4700   15.0870   -0.0320 C   0  0  0  0  0  0  0  0  0  0  0  0
   -5.5370   14.8660    0.8120 C   0  0  0  0  0  0  0  0  0  0  0  0
   -4.6200   15.1700   -1.3710 N   0  0  0  0  0  0  0  0  0  0  0  0
   -5.8650   15.0290   -1.8490 C   0  0  0  0  0  0  0  0  0  0  0  0
   -6.7750   14.7350    0.2150 C   0  0  0  0  0  0  0  0  0  0  0  0
   -7.9930   14.4950    1.0520 C   0  0  0  0  0  0  0  0  0  0  0  0
   -6.0500   15.0930   -3.2100 N   0  0  0  0  0  0  0  0  0  0  0  0
   -6.9510   14.8160   -1.1090 N   0  0  0  0  0  0  0  0  0  0  0  0
  1  2  1  0
  2  3  2  0
  2  4  1  0
  4  5  2  0
  3  6  1  0
  6  7  1  0
  5  8  1  0
  5  9  1  0
  6  9  2  0
M  END
