mac-x0354-diamond-x0591_0_A
     RDKit          3D

 31 33  0  0  0  0  0  0  0  0999 V2000
    0.6670   11.0530   -8.3010 C   0  0  0  0  0  0  0  0  0  0  0  0
    0.9480   11.5330   -6.9600 N   0  0  0  0  0  0  0  0  0  0  0  0
    1.9430   12.3920   -6.7340 N   0  0  0  0  0  0  0  0  0  0  0  0
    0.2800   11.1900   -5.8340 C   0  0  0  0  0  0  0  0  0  0  0  0
    1.9210   12.6140   -5.4410 C   0  0  0  0  0  0  0  0  0  0  0  0
    0.9050   11.8940   -4.7910 C   0  0  0  0  0  0  0  0  0  0  0  0
   -0.8300   10.2540   -5.8970 C   0  0  0  0  0  0  0  0  0  0  0  0
    0.6500   11.9420   -3.3210 C   0  0  0  0  0  0  0  0  0  0  0  0
   -0.6110    8.9390   -6.3290 C   0  0  0  0  0  0  0  0  0  0  0  0
   -2.1100   10.6510   -5.5380 C   0  0  0  0  0  0  0  0  0  0  0  0
    1.8440   12.2150   -2.6200 O   0  0  0  0  0  0  0  0  0  0  0  0
    0.2080   10.6860   -2.8170 O   0  0  0  0  0  0  0  0  0  0  0  0
   -0.2710   13.0910   -2.9670 C   0  0  0  0  0  0  0  0  0  0  0  0
   -1.6640    8.0350   -6.3950 C   0  0  0  0  0  0  0  0  0  0  0  0
   -3.1650    9.7430   -5.6070 C   0  0  0  0  0  0  0  0  0  0  0  0
   -0.2610   14.1370   -4.0560 C   0  0  0  0  0  0  0  0  0  0  0  0
   -2.9420    8.4400   -6.0330 C   0  0  0  0  0  0  0  0  0  0  0  0
   -1.3660   13.7860   -4.9690 N   0  0  0  0  0  0  0  0  0  0  0  0
   -2.4550   14.8270   -5.0700 S   0  0  1  0  0  0  0  0  0  0  0  0
   -1.4710   16.1750   -4.9340 N   0  0  0  0  0  0  0  0  0  0  0  0
   -3.2480   15.1660   -6.2240 O   0  0  0  0  0  0  0  0  0  0  0  0
   -3.4920   14.7450   -3.6410 C   0  0  0  0  0  0  0  0  0  0  0  0
   -2.9780   14.5800   -2.3500 C   0  0  0  0  0  0  0  0  0  0  0  0
   -4.8520   14.8580   -3.8440 C   0  0  0  0  0  0  0  0  0  0  0  0
   -3.8590   14.5420   -1.2560 C   0  0  0  0  0  0  0  0  0  0  0  0
   -5.7240   14.8250   -2.7630 C   0  0  0  0  0  0  0  0  0  0  0  0
   -5.2400   14.6710   -1.4700 C   0  0  0  0  0  0  0  0  0  0  0  0
   -6.2560   14.6540   -0.3770 C   0  0  0  0  0  0  0  0  0  0  0  0
   -5.8060   14.5140    0.9100 N   0  0  0  0  0  0  0  0  0  0  0  0
   -7.4430   14.7640   -0.6600 O   0  0  0  0  0  0  0  0  0  0  0  0
   -6.7460   14.5200    2.0070 C   0  0  0  0  0  0  0  0  0  0  0  0
  1  2  1  0
  2  3  1  0
  2  4  1  0
  3  5  2  0
  4  6  2  0
  5  6  1  0
  4  7  1  0
  6  8  1  0
  7  9  2  0
  7 10  1  0
  8 11  1  0
  8 12  1  0
  8 13  1  0
  9 14  1  0
 10 15  2  0
 13 16  1  0
 14 17  2  0
 15 17  1  0
 16 18  1  0
 18 19  2  0
 19 20  1  1
 19 21  2  0
 19 22  1  0
 22 23  2  0
 22 24  1  0
 23 25  1  0
 24 26  2  0
 25 27  2  0
 26 27  1  0
 27 28  1  0
 28 29  1  0
 28 30  2  0
 29 31  1  0
M  END
