mac-x0588-mac-x0179
     RDKit          3D

 32 36  0  0  0  0  0  0  0  0999 V2000
   -4.6070   14.9240    0.9910 N   0  0  0  0  0  0  0  0  0  0  0  0
   -3.6140   15.5820    0.1760 C   0  0  1  0  0  0  0  0  0  0  0  0
   -2.2700   14.8300    0.1590 C   0  0  1  0  0  0  0  0  0  0  0  0
   -4.1940   15.6290   -1.1480 N   0  0  0  0  0  0  0  0  0  0  0  0
   -3.4250   14.9260   -2.1830 C   0  0  0  0  0  0  0  0  0  0  0  0
   -1.4100   15.3990   -0.9360 C   0  0  2  0  0  0  0  0  0  0  0  0
   -1.3930   15.0480    1.3050 N   0  0  0  0  0  0  0  0  0  0  0  0
   -2.0230   15.3030   -2.2560 N   0  0  0  0  0  0  0  0  0  0  0  0
   -0.1800   14.6530   -0.6950 N   0  0  0  0  0  0  0  0  0  0  0  0
   -0.0830   14.7040    0.7720 C   0  0  0  0  0  0  0  0  0  0  0  0
   -1.2840   14.8050   -3.4610 C   0  0  2  0  0  0  0  0  0  0  0  0
   -0.2190   13.7530   -3.0800 C   0  0  0  0  0  0  0  0  0  0  0  0
   -0.8010   15.8860   -4.4840 C   0  0  1  0  0  0  0  0  0  0  0  0
    0.5540   12.9870   -4.1860 C   0  0  1  0  0  0  0  0  0  0  0  0
   -1.4750   17.1430   -4.3300 O   0  0  0  0  0  0  0  0  0  0  0  0
    0.6810   16.2530   -4.5060 C   0  0  0  0  0  0  0  0  0  0  0  0
    1.3510   11.9910   -3.3700 C   0  0  0  0  0  0  0  0  0  0  0  0
    0.6930   17.6570   -5.0840 C   0  0  0  0  0  0  0  0  0  0  0  0
   -0.7760   18.0310   -5.1990 C   0  0  0  0  0  0  0  0  0  0  0  0
   -0.1010   12.2490   -5.2930 N   0  0  0  0  0  0  0  0  0  0  0  0
    2.2270   12.5980   -2.5470 O   0  0  0  0  0  0  0  0  0  0  0  0
    1.2610   10.7830   -3.3610 O   0  0  0  0  0  0  0  0  0  0  0  0
    0.6110   11.7930   -6.3830 C   0  0  0  0  0  0  0  0  0  0  0  0
   -1.1930   11.4360   -5.1010 C   0  0  0  0  0  0  0  0  0  0  0  0
    1.7230   12.0910   -6.7520 O   0  0  0  0  0  0  0  0  0  0  0  0
   -1.9540   11.3980   -4.1560 O   0  0  0  0  0  0  0  0  0  0  0  0
   -0.2050   10.7890   -7.0670 C   0  0  0  0  0  0  0  0  0  0  0  0
   -1.3130   10.5600   -6.2710 C   0  0  0  0  0  0  0  0  0  0  0  0
   -0.0070   10.1130   -8.2640 C   0  0  0  0  0  0  0  0  0  0  0  0
   -2.2850    9.6350   -6.6200 C   0  0  0  0  0  0  0  0  0  0  0  0
   -0.9770    9.1710   -8.6370 C   0  0  0  0  0  0  0  0  0  0  0  0
   -2.1060    8.9320   -7.8200 C   0  0  0  0  0  0  0  0  0  0  0  0
  2  1  1  1
  2  3  1  0
  2  4  1  0
  4  5  1  0
  3  6  1  0
  3  7  1  1
  5  8  1  0
  6  8  1  0
  6  9  1  6
  7 10  1  0
  9 10  1  0
  8 11  1  0
 11 12  1  1
 11 13  1  0
 14 12  1  1
 13 15  1  0
 13 16  1  1
 14 17  1  0
 16 18  1  0
 15 19  1  0
 18 19  1  0
 14 20  1  0
 17 21  1  0
 17 22  2  0
 20 23  1  0
 20 24  1  0
 23 25  2  0
 24 26  2  0
 23 27  1  0
 24 28  1  0
 27 28  2  0
 27 29  1  0
 28 30  1  0
 29 31  2  0
 30 32  2  0
 31 32  1  0
M  END
