mac-x0228-mac-x0584
     RDKit          3D

 29 34  0  0  0  0  0  0  0  0999 V2000
   -1.8110   12.9230   -2.0900 O   0  0  0  0  0  0  0  0  0  0  0  0
   -2.3690   14.0030   -2.8240 C   0  0  1  0  0  0  0  0  0  0  0  0
   -3.7360   14.2600   -2.2190 C   0  0  0  0  0  0  0  0  0  0  0  0
   -1.3210   15.1840   -2.7500 C   0  0  1  0  0  0  0  0  0  0  0  0
   -4.0410   13.9340   -0.8840 C   0  0  0  0  0  0  0  0  0  0  0  0
   -4.7440   14.8610   -3.0140 C   0  0  0  0  0  0  0  0  0  0  0  0
   -0.0540   14.7290   -3.5800 C   0  0  1  0  0  0  0  0  0  0  0  0
   -2.0120   16.2420   -3.6450 C   0  0  0  0  0  0  0  0  0  0  0  0
   -1.3370   15.2140   -1.2110 C   0  0  0  0  0  0  0  0  0  0  0  0
   -5.3020   14.2140   -0.3850 C   0  0  0  0  0  0  0  0  0  0  0  0
   -6.0150   15.1330   -2.4930 C   0  0  0  0  0  0  0  0  0  0  0  0
    0.1760   13.2460   -3.8870 C   0  0  0  0  0  0  0  0  0  0  0  0
   -0.2410   15.4170   -4.9580 C   0  0  0  0  0  0  0  0  0  0  0  0
   -1.7240   15.7550   -5.0440 C   0  0  0  0  0  0  0  0  0  0  0  0
   -0.2100   14.9160   -0.4510 N   0  0  0  0  0  0  0  0  0  0  0  0
   -2.4300   15.4580   -0.5040 C   0  0  0  0  0  0  0  0  0  0  0  0
   -6.2660   14.8040   -1.1800 C   0  0  0  0  0  0  0  0  0  0  0  0
   -5.8550   13.9760    0.9730 C   0  0  0  0  0  0  0  0  0  0  0  0
    1.4190   12.3830   -3.5720 C   0  0  0  0  0  0  0  0  0  0  0  0
   -0.6810   12.0900   -3.3250 C   0  0  0  0  0  0  0  0  0  0  0  0
   -0.3090   14.8010    0.9130 C   0  0  0  0  0  0  0  0  0  0  0  0
   -2.4230   15.3370    0.9740 C   0  0  0  0  0  0  0  0  0  0  0  0
   -3.7770   15.8060   -0.7590 C   0  0  0  0  0  0  0  0  0  0  0  0
   -7.4570   15.0150   -0.5370 O   0  0  0  0  0  0  0  0  0  0  0  0
   -7.3270   14.2770    0.7020 C   0  0  0  0  0  0  0  0  0  0  0  0
    0.4600   11.1700   -3.7140 C   0  0  0  0  0  0  0  0  0  0  0  0
   -1.3290   14.9820    1.6540 N   0  0  0  0  0  0  0  0  0  0  0  0
   -3.5730   15.5610    1.5060 N   0  0  0  0  0  0  0  0  0  0  0  0
   -4.3630   15.8400    0.4260 C   0  0  0  0  0  0  0  0  0  0  0  0
  2  1  1  1
  2  3  1  0
  2  4  1  0
  3  5  2  0
  3  6  1  0
  4  7  1  0
  4  8  1  0
  4  9  1  1
  5 10  1  0
  6 11  2  0
  7 12  1  6
  7 13  1  0
  8 14  1  0
 13 14  1  0
  9 15  1  0
  9 16  2  0
 10 17  2  0
 11 17  1  0
 10 18  1  0
 12 19  1  0
 12 20  1  0
 15 21  1  0
 16 22  1  0
 16 23  1  0
 17 24  1  0
 18 25  1  0
 24 25  1  0
 19 26  1  0
 20 26  1  0
 21 27  2  0
 22 27  1  0
 22 28  2  0
 23 29  2  0
 28 29  1  0
M  END
