mac-x0306-mac-x0148
     RDKit          3D

 25 29  0  0  0  0  0  0  0  0999 V2000
   -8.5620   14.8870    1.1480 C   0  0  0  0  0  0  0  0  0  0  0  0
   -7.7660   14.7450    2.2550 C   0  0  0  0  0  0  0  0  0  0  0  0
   -6.5360   14.4000    1.7700 N   0  0  0  0  0  0  0  0  0  0  0  0
   -7.8510   14.6370    0.0110 N   0  0  0  0  0  0  0  0  0  0  0  0
   -6.6180   14.3400    0.3890 C   0  0  0  0  0  0  0  0  0  0  0  0
   -5.4880   13.9780   -0.5600 C   0  0  1  0  0  0  0  0  0  0  0  0
   -5.5190   14.7350   -1.8450 C   0  0  0  0  0  0  0  0  0  0  0  0
   -4.0440   13.7150   -0.0130 C   0  0  0  0  0  0  0  0  0  0  0  0
   -4.4870   15.4350   -2.2390 C   0  0  0  0  0  0  0  0  0  0  0  0
   -2.8690   14.6270   -0.4770 C   0  0  1  0  0  0  0  0  0  0  0  0
   -3.3450   15.5500   -1.5320 N   0  0  0  0  0  0  0  0  0  0  0  0
   -2.5710   15.4700    0.7910 C   0  0  0  0  0  0  0  0  0  0  0  0
   -1.5130   13.9360   -1.0820 C   0  0  1  0  0  0  0  0  0  0  0  0
   -0.8490   14.2600   -2.4040 N   0  0  0  0  0  0  0  0  0  0  0  0
   -0.4080   13.7560   -0.1190 N   0  0  0  0  0  0  0  0  0  0  0  0
   -1.1380   15.5970    1.0590 N   0  0  0  0  0  0  0  0  0  0  0  0
   -1.4420   14.5140   -3.7440 C   0  0  2  0  0  0  0  0  0  0  0  0
    0.3630   13.3830   -2.5580 C   0  0  0  0  0  0  0  0  0  0  0  0
   -0.5700   14.3060    1.1960 C   0  0  0  0  0  0  0  0  0  0  0  0
   -2.8140   15.1060   -3.9810 C   0  0  0  0  0  0  0  0  0  0  0  0
   -1.6880   13.2070   -4.5110 C   0  0  1  0  0  0  0  0  0  0  0  0
    0.1610   12.1130   -3.3990 C   0  0  0  0  0  0  0  0  0  0  0  0
   -2.5110   13.6130   -5.7120 C   0  0  0  0  0  0  0  0  0  0  0  0
   -3.0690   14.8970   -5.3860 O   0  0  0  0  0  0  0  0  0  0  0  0
   -0.3980   12.4680   -4.7680 C   0  0  0  0  0  0  0  0  0  0  0  0
  1  2  2  0
  2  3  1  0
  1  4  1  0
  3  5  1  0
  4  5  2  0
  6  5  1  1
  6  7  1  0
  6  8  1  0
  7  9  2  0
 10  8  1  1
  9 11  1  0
 10 11  1  0
 10 12  1  0
 10 13  1  0
 13 14  1  6
 13 15  1  0
 12 16  1  0
 14 17  1  0
 14 18  1  0
 15 19  1  0
 16 19  1  0
 17 20  1  1
 17 21  1  0
 18 22  1  0
 21 23  1  6
 20 24  1  0
 23 24  1  0
 21 25  1  0
 22 25  1  0
M  END
