mac-x0333-mac-x0255
     RDKit          3D

 26 29  0  0  0  0  0  0  0  0999 V2000
   -2.4930   15.4920   -2.8050 O   0  0  0  0  0  0  0  0  0  0  0  0
   -3.3610   15.3510   -1.7590 C   0  0  0  0  0  0  0  0  0  0  0  0
   -2.8550   15.3420   -0.4360 C   0  0  0  0  0  0  0  0  0  0  0  0
   -4.7250   15.2200   -2.0340 C   0  0  0  0  0  0  0  0  0  0  0  0
   -1.3710   15.4790   -0.1200 C   0  0  0  0  0  0  0  0  0  0  0  0
   -5.5750   15.0790   -0.9630 C   0  0  0  0  0  0  0  0  0  0  0  0
   -3.7710   15.1980    0.6300 C   0  0  0  0  0  0  0  0  0  0  0  0
   -0.4240   14.9010   -1.1790 C   0  0  0  0  0  0  0  0  0  0  0  0
   -5.1140   15.0690    0.3260 C   0  0  0  0  0  0  0  0  0  0  0  0
   -6.9290   14.9370   -1.0260 O   0  0  0  0  0  0  0  0  0  0  0  0
    0.0240   13.4780   -0.8650 C   0  0  0  0  0  0  0  0  0  0  0  0
   -6.1330   14.9180    1.2200 O   0  0  0  0  0  0  0  0  0  0  0  0
   -7.2010   14.5440    0.3310 C   0  0  0  0  0  0  0  0  0  0  0  0
    1.0980   13.0840   -1.7440 O   0  0  0  0  0  0  0  0  0  0  0  0
    0.7950   12.2270   -2.7580 C   0  0  0  0  0  0  0  0  0  0  0  0
    0.2030   11.1620   -2.6240 O   0  0  0  0  0  0  0  0  0  0  0  0
    1.3030   12.7630   -4.0800 C   0  0  0  0  0  0  0  0  0  0  0  0
    0.6230   14.0510   -4.4390 C   0  0  0  0  0  0  0  0  0  0  0  0
    1.1990   15.2890   -4.6310 C   0  0  0  0  0  0  0  0  0  0  0  0
   -1.0690   14.1190   -4.6690 S   0  0  0  0  0  0  0  0  0  0  0  0
    0.2570   16.3070   -4.9770 C   0  0  0  0  0  0  0  0  0  0  0  0
   -1.0450   15.8040   -5.0340 C   0  0  0  0  0  0  0  0  0  0  0  0
    0.4540   17.6800   -5.2580 C   0  0  0  0  0  0  0  0  0  0  0  0
   -2.1420   16.6250   -5.3590 C   0  0  0  0  0  0  0  0  0  0  0  0
   -0.6280   18.4880   -5.5830 C   0  0  0  0  0  0  0  0  0  0  0  0
   -1.9060   17.9750   -5.6340 C   0  0  0  0  0  0  0  0  0  0  0  0
  1  2  1  0
  2  3  2  0
  2  4  1  0
  3  5  1  0
  4  6  2  0
  3  7  1  0
  5  8  1  0
  6  9  1  0
  7  9  2  0
  6 10  1  0
  8 11  1  0
  9 12  1  0
 10 13  1  0
 12 13  1  0
 11 14  1  0
 14 15  1  0
 15 16  2  0
 15 17  1  0
 17 18  1  0
 18 19  2  0
 18 20  1  0
 19 21  1  0
 20 22  1  0
 21 22  2  0
 21 23  1  0
 22 24  1  0
 23 25  2  0
 24 26  2  0
 25 26  1  0
M  END
