mac-x0472-diamond-x0895_0_A
     RDKit          3D

 16 17  0  0  0  0  0  0  0  0999 V2000
   -4.4330   15.4170   -2.4780 O   0  0  0  0  0  0  0  0  0  0  0  0
   -3.3670   14.4630   -2.6900 S   0  0  0  0  0  0  0  0  0  0  0  0
   -2.6950   14.3720   -3.9630 O   0  0  0  0  0  0  0  0  0  0  0  0
   -2.2780   14.5980   -1.4960 N   0  0  0  0  0  0  0  0  0  0  0  0
   -4.0880   12.8490   -2.3680 C   0  0  0  0  0  0  0  0  0  0  0  0
   -2.8070   14.7890   -0.1200 C   0  0  0  0  0  0  0  0  0  0  0  0
   -3.4080   11.6840   -2.7380 C   0  0  0  0  0  0  0  0  0  0  0  0
   -5.3430   12.7760   -1.7480 C   0  0  0  0  0  0  0  0  0  0  0  0
   -2.1480   14.5450    1.1940 N   0  0  0  0  0  0  0  0  0  0  0  0
   -4.4260   15.3810    0.1060 S   0  0  0  0  0  0  0  0  0  0  0  0
   -3.9930   10.4420   -2.4910 C   0  0  0  0  0  0  0  0  0  0  0  0
   -5.9180   11.5280   -1.5050 C   0  0  0  0  0  0  0  0  0  0  0  0
   -0.9910   14.1300    1.3770 O   0  0  0  0  0  0  0  0  0  0  0  0
   -4.1720   15.2670    1.8380 C   0  0  0  0  0  0  0  0  0  0  0  0
   -3.0230   14.8450    2.3100 N   0  0  0  0  0  0  0  0  0  0  0  0
   -5.2460   10.3690   -1.8780 C   0  0  0  0  0  0  0  0  0  0  0  0
  1  2  2  0
  2  3  2  0
  2  4  1  0
  2  5  1  0
  4  6  1  0
  5  7  2  0
  5  8  1  0
  6  9  2  0
  6 10  1  0
  7 11  1  0
  8 12  2  0
  9 13  1  0
 10 14  1  0
  9 15  1  0
 14 15  2  0
 11 16  2  0
 12 16  1  0
M  CHG  2   9   1  13  -1
M  END
