mac-x0392-diamond-x0864_0_A
     RDKit          3D

 23 24  0  0  0  0  0  0  0  0999 V2000
    0.2260   14.1830    0.1150 N   0  0  0  0  0  0  0  0  0  0  0  0
   -1.1400   14.4920    0.0030 C   0  0  0  0  0  0  0  0  0  0  0  0
   -1.9390   14.5650    1.1310 C   0  0  0  0  0  0  0  0  0  0  0  0
   -1.7750   14.7410   -1.2240 C   0  0  0  0  0  0  0  0  0  0  0  0
   -0.9940   14.6950   -2.4900 C   0  0  0  0  0  0  0  0  0  0  0  0
   -3.1460   15.0410   -1.2550 C   0  0  0  0  0  0  0  0  0  0  0  0
   -3.2590   14.8560    1.1320 N   0  0  0  0  0  0  0  0  0  0  0  0
   -1.4480   14.2760   -3.5420 O   0  0  0  0  0  0  0  0  0  0  0  0
    0.2580   15.2000   -2.3090 O   0  0  0  0  0  0  0  0  0  0  0  0
   -3.8330   15.0860   -0.0610 C   0  0  0  0  0  0  0  0  0  0  0  0
    1.3440   14.2660   -2.2760 C   0  0  0  0  0  0  0  0  0  0  0  0
    1.0000   12.8580   -2.1080 N   0  0  0  0  0  0  0  0  0  0  0  0
    0.7230   12.1960   -3.1630 C   0  0  0  0  0  0  0  0  0  0  0  0
    0.6740   12.6390   -4.6170 C   0  0  0  0  0  0  0  0  0  0  0  0
    0.4300   10.8950   -2.9550 O   0  0  0  0  0  0  0  0  0  0  0  0
   -0.0840   11.7580   -5.5090 N   0  0  0  0  0  0  0  0  0  0  0  0
   -1.4390   11.5930   -5.3610 C   0  0  0  0  0  0  0  0  0  0  0  0
    0.5640   11.2220   -6.5920 C   0  0  0  0  0  0  0  0  0  0  0  0
    1.5720   11.6840   -7.0860 O   0  0  0  0  0  0  0  0  0  0  0  0
   -2.0700   10.5830   -5.9810 C   0  0  0  0  0  0  0  0  0  0  0  0
   -0.0420    9.9840   -7.1360 C   0  0  0  0  0  0  0  0  0  0  0  0
   -1.3110    9.6880   -6.8230 C   0  0  0  0  0  0  0  0  0  0  0  0
   -2.1430    8.1440   -7.4590 Br  0  0  0  0  0  0  0  0  0  0  0  0
  1  2  1  0
  2  3  2  0
  2  4  1  0
  4  5  1  0
  4  6  2  0
  3  7  1  0
  5  8  2  0
  5  9  1  0
  6 10  1  0
  7 10  2  0
  9 11  1  0
 11 12  1  0
 12 13  2  3
 13 14  1  0
 13 15  1  0
 14 16  1  0
 16 17  1  0
 16 18  1  0
 18 19  2  0
 17 20  2  0
 18 21  1  0
 20 22  1  0
 21 22  2  0
 22 23  1  0
M  END
