mac-x0412-mac-x0328
     RDKit          3D

 14 15  0  0  0  0  0  0  0  0999 V2000
   -7.9900   14.9160   -0.4880 O   0  0  0  0  0  0  0  0  0  0  0  0
   -6.9730   14.7430    0.1690 C   0  0  0  0  0  0  0  0  0  0  0  0
   -7.0110   14.8430    1.5440 N   0  0  0  0  0  0  0  0  0  0  0  0
   -5.6240   14.4160   -0.5170 C   0  0  2  0  0  0  0  0  0  0  0  0
   -4.4160   14.7500    0.3430 C   0  0  0  0  0  0  0  0  0  0  0  0
   -5.9060   14.9910    2.1890 C   0  0  0  0  0  0  0  0  0  0  0  0
   -5.4750   15.0000   -1.9070 C   0  0  0  0  0  0  0  0  0  0  0  0
   -4.5350   15.0400    1.6420 C   0  0  0  0  0  0  0  0  0  0  0  0
   -3.1350   14.7010   -0.3470 C   0  0  0  0  0  0  0  0  0  0  0  0
   -4.2650   15.2160   -2.4390 C   0  0  0  0  0  0  0  0  0  0  0  0
   -3.0700   14.9040   -1.6790 C   0  0  0  0  0  0  0  0  0  0  0  0
   -1.7660   14.7990   -2.3720 C   0  0  0  0  0  0  0  0  0  0  0  0
   -1.8750   14.8080   -3.7180 O   0  0  0  0  0  0  0  0  0  0  0  0
   -0.7030   14.7090   -1.7840 O   0  0  0  0  0  0  0  0  0  0  0  0
  1  2  2  0
  2  3  1  0
  2  4  1  0
  4  5  1  0
  3  6  2  0
  4  7  1  6
  5  8  2  0
  6  8  1  0
  5  9  1  0
  7 10  2  0
  9 11  2  0
 10 11  1  0
 11 12  1  0
 12 13  1  0
 12 14  2  0
M  END
