mac-x0224-mac-x0567
     RDKit          3D

 17 18  0  0  0  0  0  0  0  0999 V2000
   -5.1040   15.0870    1.4970 C   0  0  0  0  0  0  0  0  0  0  0  0
   -4.0770   13.7760    0.7930 S   0  0  0  0  0  0  0  0  0  0  0  0
   -3.3490   14.6710   -0.6430 C   0  0  1  0  0  0  0  0  0  0  0  0
   -1.8050   14.8300   -0.6110 C   0  0  2  0  0  0  0  0  0  0  0  0
   -4.0230   14.3850   -1.9380 C   0  0  0  0  0  0  0  0  0  0  0  0
   -1.2030   15.3110   -2.0060 C   0  0  1  0  0  0  0  0  0  0  0  0
   -3.4820   14.7190   -3.0990 C   0  0  0  0  0  0  0  0  0  0  0  0
   -0.9450   13.8070    0.1500 C   0  0  1  0  0  0  0  0  0  0  0  0
   -1.7940   15.8670    0.4880 C   0  0  0  0  0  0  0  0  0  0  0  0
    0.0440   14.5460   -2.4580 C   0  0  0  0  0  0  0  0  0  0  0  0
    0.4570   13.8060   -0.1540 N   0  0  0  0  0  0  0  0  0  0  0  0
   -2.1600   15.3980   -3.2310 C   0  0  2  0  0  0  0  0  0  0  0  0
   -1.0960   14.0290    1.5810 N   0  0  0  0  0  0  0  0  0  0  0  0
   -2.0810   15.0640    1.6680 N   0  0  0  0  0  0  0  0  0  0  0  0
   -1.5310   14.7830   -4.3610 O   0  0  0  0  0  0  0  0  0  0  0  0
    1.0410   14.3070   -1.7990 O   0  0  0  0  0  0  0  0  0  0  0  0
   -0.0010   14.1150   -3.7300 O   0  0  0  0  0  0  0  0  0  0  0  0
  1  2  1  0
  3  2  1  1
  3  4  1  0
  3  5  1  0
  4  6  1  0
  5  7  2  0
  4  8  1  0
  4  9  1  1
  6 10  1  6
  8 11  1  6
  6 12  1  0
  7 12  1  0
  8 13  1  0
  9 14  1  0
 13 14  1  0
 12 15  1  6
 10 16  2  0
 10 17  1  0
M  END
