mac-x0341-mac-x0387
     RDKit          3D

 18 20  0  0  0  0  0  0  0  0999 V2000
   -6.8540   14.6840    2.1980 N   0  0  0  0  0  0  0  0  0  0  0  0
   -6.2210   14.7910    0.9990 C   0  0  0  0  0  0  0  0  0  0  0  0
   -4.8810   14.9060    1.0540 N   0  0  0  0  0  0  0  0  0  0  0  0
   -6.8860   14.7790   -0.1040 N   0  0  0  0  0  0  0  0  0  0  0  0
   -6.2540   14.8880   -1.3230 C   0  0  0  0  0  0  0  0  0  0  0  0
   -4.1640   15.0560   -0.0170 C   0  0  0  0  0  0  0  0  0  0  0  0
   -6.8580   14.8020   -2.3790 O   0  0  0  0  0  0  0  0  0  0  0  0
   -4.7860   15.1170   -1.3210 C   0  0  0  0  0  0  0  0  0  0  0  0
   -2.7050   15.0990    0.1780 C   0  0  0  0  0  0  0  0  0  0  0  0
   -4.2290   15.3460   -2.5130 C   0  0  0  0  0  0  0  0  0  0  0  0
   -2.3670   14.8520    1.4670 C   0  0  0  0  0  0  0  0  0  0  0  0
   -1.6630   15.3320   -0.7200 C   0  0  0  0  0  0  0  0  0  0  0  0
   -3.3270   14.6370    2.4090 N   0  0  0  0  0  0  0  0  0  0  0  0
   -1.7740   15.6160   -2.1150 C   0  0  0  0  0  0  0  0  0  0  0  0
   -2.8630   15.6160   -2.8640 C   0  0  0  0  0  0  0  0  0  0  0  0
   -0.3550   15.2880   -0.2440 C   0  0  0  0  0  0  0  0  0  0  0  0
   -1.1490   14.8020    1.9250 N   0  0  0  0  0  0  0  0  0  0  0  0
   -0.1650   15.0210    1.0730 C   0  0  0  0  0  0  0  0  0  0  0  0
  1  2  1  0
  2  3  1  0
  2  4  2  0
  4  5  1  0
  3  6  2  0
  5  7  2  0
  5  8  1  0
  6  8  1  0
  6  9  1  0
  8 10  2  0
  9 11  2  0
  9 12  1  0
 11 13  1  0
 12 14  1  0
 10 15  1  0
 14 15  2  0
 12 16  2  0
 11 17  1  0
 16 18  1  0
 17 18  2  0
M  END
