mac-x0404-diamond-x0722_0_A
     RDKit          3D

 29 31  0  0  0  0  0  0  0  0999 V2000
    1.4690   12.3950   -1.9680 O   0  0  0  0  0  0  0  0  0  0  0  0
    0.6220   11.8420   -2.9560 C   0  0  0  0  0  0  0  0  0  0  0  0
    0.6660   10.4370   -2.7710 O   0  0  0  0  0  0  0  0  0  0  0  0
    1.0950   12.4070   -4.3320 C   0  0  0  0  0  0  0  0  0  0  0  0
   -0.7670   12.2470   -2.5540 C   0  0  0  0  0  0  0  0  0  0  0  0
    1.0430   13.8570   -4.3090 O   0  0  0  0  0  0  0  0  0  0  0  0
   -0.8070   13.3280   -1.5120 C   0  0  0  0  0  0  0  0  0  0  0  0
   -1.8750   14.3660   -1.6570 C   0  0  0  0  0  0  0  0  0  0  0  0
   -0.1760   14.4070   -4.6620 C   0  0  0  0  0  0  0  0  0  0  0  0
   -0.2370   15.7950   -4.9330 C   0  0  0  0  0  0  0  0  0  0  0  0
   -1.3290   13.6280   -4.7550 C   0  0  0  0  0  0  0  0  0  0  0  0
   -2.4100   14.7380   -0.3480 C   0  0  0  0  0  0  0  0  0  0  0  0
   -1.4820   16.3700   -5.2940 C   0  0  0  0  0  0  0  0  0  0  0  0
   -2.5460   14.2070   -5.1060 C   0  0  0  0  0  0  0  0  0  0  0  0
    0.8800   16.6380   -4.8670 C   0  0  0  0  0  0  0  0  0  0  0  0
   -3.6350   15.2570    0.0210 C   0  0  0  0  0  0  0  0  0  0  0  0
   -1.6700   14.6110    0.8150 N   0  0  0  0  0  0  0  0  0  0  0  0
   -0.3210   14.1390    1.0450 C   0  0  0  0  0  0  0  0  0  0  0  0
   -4.8200   15.6070   -0.8300 C   0  0  0  0  0  0  0  0  0  0  0  0
   -2.6220   15.5660   -5.3710 C   0  0  0  0  0  0  0  0  0  0  0  0
   -1.5670   17.7360   -5.5770 C   0  0  0  0  0  0  0  0  0  0  0  0
    0.7830   17.9990   -5.1520 C   0  0  0  0  0  0  0  0  0  0  0  0
   -2.3340   15.0000    1.8680 N   0  0  0  0  0  0  0  0  0  0  0  0
   -3.5000   15.3990    1.4140 C   0  0  0  0  0  0  0  0  0  0  0  0
   -4.4250   15.9240    2.3920 C   0  0  0  0  0  0  0  0  0  0  0  0
   -6.0260   14.7200   -0.5820 C   0  0  0  0  0  0  0  0  0  0  0  0
   -0.4450   18.5420   -5.5100 C   0  0  0  0  0  0  0  0  0  0  0  0
   -7.1830   15.0820   -0.7810 O   0  0  0  0  0  0  0  0  0  0  0  0
   -5.7770   13.4610   -0.1140 N   0  0  0  0  0  0  0  0  0  0  0  0
  2  1  1  0
  2  3  1  0
  2  4  1  0
  2  5  1  0
  4  6  1  0
  5  7  1  0
  7  8  1  0
  6  9  1  0
  9 10  1  0
  9 11  2  0
  8 12  1  0
 10 13  2  0
 11 14  1  0
 10 15  1  0
 12 16  2  0
 12 17  1  0
 17 18  1  0
 16 19  1  0
 13 20  1  0
 14 20  2  0
 13 21  1  0
 15 22  2  0
 17 23  1  0
 16 24  1  0
 23 24  2  0
 24 25  1  0
 19 26  1  0
 21 27  2  0
 22 27  1  0
 26 28  2  0
 26 29  1  0
M  END
