mac-x0555-mac-x0451
     RDKit          3D

 12 13  0  0  0  0  0  0  0  0999 V2000
   -7.4250   14.3370    2.8670 N   0  0  0  0  0  0  0  0  0  0  0  0
   -6.9220   14.5360    1.5840 C   0  0  0  0  0  0  0  0  0  0  0  0
   -7.7480   14.6960    0.4800 C   0  0  0  0  0  0  0  0  0  0  0  0
   -5.5480   14.5870    1.3470 C   0  0  0  0  0  0  0  0  0  0  0  0
   -5.0540   14.7910    0.0490 C   0  0  0  0  0  0  0  0  0  0  0  0
   -7.3190   14.8990   -0.7820 N   0  0  0  0  0  0  0  0  0  0  0  0
   -5.9950   14.9460   -0.9930 C   0  0  0  0  0  0  0  0  0  0  0  0
   -3.6750   14.8390   -0.2380 C   0  0  0  0  0  0  0  0  0  0  0  0
   -5.5320   15.1510   -2.2810 C   0  0  0  0  0  0  0  0  0  0  0  0
   -3.2550   15.0330   -1.5510 C   0  0  0  0  0  0  0  0  0  0  0  0
   -1.9540   15.0620   -1.8560 F   0  0  0  0  0  0  0  0  0  0  0  0
   -4.1720   15.1950   -2.5700 C   0  0  0  0  0  0  0  0  0  0  0  0
  1  2  1  0
  2  3  2  0
  2  4  1  0
  4  5  2  0
  3  6  1  0
  5  7  1  0
  6  7  2  0
  5  8  1  0
  7  9  1  0
  8 10  2  0
 10 11  1  0
  9 12  2  0
 10 12  1  0
M  END
