mac-x0139-mac-x0437
     RDKit          3D

 26 29  0  0  0  0  0  0  0  0999 V2000
   -2.0980   15.4830   -3.4570 C   0  0  0  0  0  0  0  0  0  0  0  0
   -1.0010   15.3720   -2.5030 N   0  0  0  0  0  0  0  0  0  0  0  0
    0.2600   14.8740   -3.1190 C   0  0  0  0  0  0  0  0  0  0  0  0
   -1.2270   15.2380   -1.1080 C   0  0  0  0  0  0  0  0  0  0  0  0
    0.0930   13.4210   -3.5870 C   0  0  2  0  0  0  0  0  0  0  0  0
   -2.4580   15.3160   -0.5510 C   0  0  0  0  0  0  0  0  0  0  0  0
   -0.1150   15.0200   -0.2860 N   0  0  0  0  0  0  0  0  0  0  0  0
    1.0210   12.5030   -2.8400 C   0  0  0  0  0  0  0  0  0  0  0  0
    0.1970   13.1290   -5.1000 C   0  0  0  0  0  0  0  0  0  0  0  0
   -2.5840   15.1540    0.9180 C   0  0  0  0  0  0  0  0  0  0  0  0
   -0.2950   14.8740    0.9940 C   0  0  0  0  0  0  0  0  0  0  0  0
   -3.8090   15.5270   -0.9560 C   0  0  0  0  0  0  0  0  0  0  0  0
    2.0460   12.8110   -2.2700 O   0  0  0  0  0  0  0  0  0  0  0  0
    0.6180   11.2180   -2.8280 O   0  0  0  0  0  0  0  0  0  0  0  0
   -1.4830   14.8920    1.6370 N   0  0  0  0  0  0  0  0  0  0  0  0
   -3.8070   15.2880    1.3260 N   0  0  0  0  0  0  0  0  0  0  0  0
   -4.5290   15.5060    0.1700 C   0  0  0  0  0  0  0  0  0  0  0  0
   -0.5780   11.9700   -5.5080 N   0  0  0  0  0  0  0  0  0  0  0  0
   -1.7670   11.6120   -4.9400 C   0  0  0  0  0  0  0  0  0  0  0  0
   -0.2880   11.0440   -6.4880 C   0  0  0  0  0  0  0  0  0  0  0  0
   -2.2640   10.5240   -5.4740 N   0  0  0  0  0  0  0  0  0  0  0  0
   -1.3620   10.1530   -6.4340 C   0  0  0  0  0  0  0  0  0  0  0  0
    0.7650   10.8800   -7.3980 C   0  0  0  0  0  0  0  0  0  0  0  0
   -1.4050    9.0560   -7.2990 C   0  0  0  0  0  0  0  0  0  0  0  0
    0.7050    9.7770   -8.2570 C   0  0  0  0  0  0  0  0  0  0  0  0
   -0.3600    8.8760   -8.2120 C   0  0  0  0  0  0  0  0  0  0  0  0
  1  2  1  0
  2  3  1  0
  2  4  1  0
  5  3  1  6
  4  6  2  0
  4  7  1  0
  5  8  1  0
  5  9  1  0
  6 10  1  0
  7 11  2  0
  6 12  1  0
  8 13  2  0
  8 14  1  0
 10 15  1  0
 11 15  1  0
 10 16  2  0
 12 17  2  0
 16 17  1  0
  9 18  1  0
 18 19  1  0
 18 20  1  0
 19 21  2  0
 20 22  2  0
 21 22  1  0
 20 23  1  0
 22 24  1  0
 23 25  2  0
 24 26  2  0
 25 26  1  0
M  END
