mac-x0360-mac-x0305
     RDKit          3D

 21 22  0  0  0  0  0  0  0  0999 V2000
   -8.0720   10.8790    1.5800 Cl  0  0  0  0  0  0  0  0  0  0  0  0
   -6.8230   11.5490    0.6150 C   0  0  0  0  0  0  0  0  0  0  0  0
   -6.2930   10.8480   -0.4600 C   0  0  0  0  0  0  0  0  0  0  0  0
   -6.3710   12.7970    0.9380 C   0  0  0  0  0  0  0  0  0  0  0  0
   -5.3750   13.3800    0.1950 C   0  0  0  0  0  0  0  0  0  0  0  0
   -5.2750   11.4190   -1.2210 C   0  0  0  0  0  0  0  0  0  0  0  0
   -4.6440   10.5020   -2.5410 Cl  0  0  0  0  0  0  0  0  0  0  0  0
   -4.9630   15.0130    0.7700 S   0  0  0  0  0  0  0  0  0  0  0  0
   -4.7910   12.7040   -0.9070 C   0  0  0  0  0  0  0  0  0  0  0  0
   -5.5380   15.8920   -0.2230 O   0  0  0  0  0  0  0  0  0  0  0  0
   -3.5260   15.0940    1.2170 N   0  0  0  0  0  0  0  0  0  0  0  0
   -2.8580   14.9340   -0.0050 C   0  0  0  0  0  0  0  0  0  0  0  0
   -1.5760   14.4740   -0.1170 C   0  0  0  0  0  0  0  0  0  0  0  0
   -3.6490   15.2790   -1.0990 C   0  0  0  0  0  0  0  0  0  0  0  0
   -0.8540   14.1630    1.0160 O   0  0  0  0  0  0  0  0  0  0  0  0
   -1.1410   14.3640   -1.4250 C   0  0  0  0  0  0  0  0  0  0  0  0
   -3.1260   15.1420   -2.3340 C   0  0  0  0  0  0  0  0  0  0  0  0
    0.1960   13.8690   -1.7900 C   0  0  0  0  0  0  0  0  0  0  0  0
   -1.8870   14.6880   -2.5220 N   0  0  0  0  0  0  0  0  0  0  0  0
    0.5010   12.6830   -1.2010 O   0  0  0  0  0  0  0  0  0  0  0  0
    0.9800   14.3890   -2.5520 O   0  0  0  0  0  0  0  0  0  0  0  0
  1  2  1  0
  2  3  2  0
  2  4  1  0
  4  5  2  0
  3  6  1  0
  6  7  1  0
  5  8  1  0
  5  9  1  0
  6  9  2  0
  8 10  2  0
  8 11  2  0
 11 12  1  0
 12 13  2  0
 12 14  1  0
 13 15  1  0
 13 16  1  0
 14 17  2  0
 16 18  1  0
 16 19  2  0
 17 19  1  0
 18 20  1  0
 18 21  2  0
M  END
