mac-x0321-mac-x0433
     RDKit          3D

 13 13  0  0  0  0  0  0  0  0999 V2000
   -4.6760   15.2320    1.7300 Cl  0  0  0  0  0  0  0  0  0  0  0  0
   -4.5720   15.1500    0.0020 C   0  0  0  0  0  0  0  0  0  0  0  0
   -3.2810   15.1520   -0.5530 C   0  0  0  0  0  0  0  0  0  0  0  0
   -5.7500   15.0750   -0.8010 C   0  0  0  0  0  0  0  0  0  0  0  0
   -2.0760   15.2280    0.3440 C   0  0  0  0  0  0  0  0  0  0  0  0
   -7.1420   15.0380   -0.1790 C   0  0  0  0  0  0  0  0  0  0  0  0
   -3.1720   15.0740   -1.9520 C   0  0  0  0  0  0  0  0  0  0  0  0
   -5.5920   15.0230   -2.1990 C   0  0  0  0  0  0  0  0  0  0  0  0
   -1.8820   15.0350   -2.6750 C   0  0  0  0  0  0  0  0  0  0  0  0
   -6.6690   14.9610   -3.0880 N   0  0  0  0  0  0  0  0  0  0  0  0
   -4.3150   15.0200   -2.7500 C   0  0  0  0  0  0  0  0  0  0  0  0
   -0.8190   14.9680   -1.8480 O   0  0  0  0  0  0  0  0  0  0  0  0
   -1.8020   15.0430   -3.8890 O   0  0  0  0  0  0  0  0  0  0  0  0
  1  2  1  0
  2  3  2  0
  2  4  1  0
  3  5  1  0
  4  6  1  0
  3  7  1  0
  4  8  2  0
  7  9  1  0
  8 10  1  0
  7 11  2  0
  8 11  1  0
  9 12  1  0
  9 13  2  0
M  END
