mac-x0567-mac-x0301
     RDKit          3D

 13 14  0  0  0  0  0  0  0  0999 V2000
    0.3330   13.9570   -0.0520 N   0  0  0  0  0  0  0  0  0  0  0  0
   -0.9240   14.3340    0.2660 C   0  0  0  0  0  0  0  0  0  0  0  0
   -1.3350   14.4300    1.5650 N   0  0  0  0  0  0  0  0  0  0  0  0
   -2.0180   14.6780   -0.4930 C   0  0  0  0  0  0  0  0  0  0  0  0
   -2.6140   14.8110    1.7160 N   0  0  0  0  0  0  0  0  0  0  0  0
   -3.0730   14.9760    0.4690 C   0  0  0  0  0  0  0  0  0  0  0  0
   -2.1660   14.7520   -1.9040 C   0  0  0  0  0  0  0  0  0  0  0  0
   -1.1980   14.4890   -3.0070 C   0  0  0  0  0  0  0  0  0  0  0  0
   -4.3560   15.3730    0.0620 C   0  0  0  0  0  0  0  0  0  0  0  0
   -3.4830   15.1560   -2.2590 C   0  0  0  0  0  0  0  0  0  0  0  0
    0.1140   14.6020   -2.7270 O   0  0  0  0  0  0  0  0  0  0  0  0
   -1.5240   14.1830   -4.1440 O   0  0  0  0  0  0  0  0  0  0  0  0
   -4.5240   15.4510   -1.3310 C   0  0  0  0  0  0  0  0  0  0  0  0
  1  2  1  0
  2  3  1  0
  2  4  2  0
  3  5  1  0
  4  6  1  0
  5  6  2  0
  4  7  1  0
  7  8  1  0
  6  9  1  0
  7 10  2  0
  8 11  1  0
  8 12  2  0
  9 13  2  0
 10 13  1  0
M  END
