mac-x0397-mac-x0472
     RDKit          3D

 21 23  0  0  0  0  0  0  0  0999 V2000
   -6.5700   14.6390   -2.7310 Cl  0  0  0  0  0  0  0  0  0  0  0  0
   -5.0790   14.9510   -1.9140 C   0  0  0  0  0  0  0  0  0  0  0  0
   -4.9300   14.3810   -0.5450 C   0  0  2  0  0  0  0  0  0  0  0  0
   -4.0980   15.6450   -2.5000 C   0  0  0  0  0  0  0  0  0  0  0  0
   -5.8880   14.8700    0.4620 N   0  0  0  0  0  0  0  0  0  0  0  0
   -3.4660   14.4130   -0.0610 C   0  0  2  0  0  0  0  0  0  0  0  0
   -2.8640   15.9600   -1.8300 C   0  0  0  0  0  0  0  0  0  0  0  0
   -2.6760   13.3510   -0.6220 N   0  0  0  0  0  0  0  0  0  0  0  0
   -5.2950   14.8930    1.5960 C   0  0  0  0  0  0  0  0  0  0  0  0
   -3.5970   14.4720    1.7270 S   0  0  0  0  0  0  0  0  0  0  0  0
   -2.5570   15.4300   -0.6620 C   0  0  0  0  0  0  0  0  0  0  0  0
   -5.9500   15.2310    2.7160 N   0  0  0  0  0  0  0  0  0  0  0  0
   -2.7920   13.1130   -2.2660 S   0  0  0  0  0  0  0  0  0  0  0  0
   -3.4730   14.2140   -2.8960 O   0  0  0  0  0  0  0  0  0  0  0  0
   -1.5010   12.6930   -2.7500 O   0  0  0  0  0  0  0  0  0  0  0  0
   -3.8680   11.7310   -2.2850 C   0  0  0  0  0  0  0  0  0  0  0  0
   -3.3800   10.5130   -2.7300 C   0  0  0  0  0  0  0  0  0  0  0  0
   -5.1900   11.8740   -1.8530 C   0  0  0  0  0  0  0  0  0  0  0  0
   -4.2290    9.4120   -2.7430 C   0  0  0  0  0  0  0  0  0  0  0  0
   -6.0320   10.7750   -1.8670 C   0  0  0  0  0  0  0  0  0  0  0  0
   -5.5520    9.5440   -2.3110 C   0  0  0  0  0  0  0  0  0  0  0  0
  1  2  1  0
  2  3  1  0
  2  4  2  0
  3  5  1  1
  3  6  1  0
  4  7  1  0
  6  8  1  1
  5  9  2  0
  6 10  1  0
  9 10  1  0
  6 11  1  0
  7 11  2  0
  9 12  1  0
 13  8  1  0
 13 14  2  0
 13 15  2  0
 13 16  1  0
 16 17  2  0
 16 18  1  0
 17 19  1  0
 18 20  2  0
 19 21  2  0
 20 21  1  0
M  END
