mac-x0380-diamond-x0438_0_A
     RDKit          3D

 18 20  0  0  0  0  0  0  0  0999 V2000
   -1.3140   14.7500   -2.4510 O   0  0  0  0  0  0  0  0  0  0  0  0
   -2.6190   14.9950   -2.6820 C   0  0  0  0  0  0  0  0  0  0  0  0
   -3.0750   15.2360   -3.7860 O   0  0  0  0  0  0  0  0  0  0  0  0
   -3.4590   14.9450   -1.4570 C   0  0  0  0  0  0  0  0  0  0  0  0
   -4.8490   15.0080   -1.5570 C   0  0  0  0  0  0  0  0  0  0  0  0
   -2.8520   14.8270   -0.1960 C   0  0  0  0  0  0  0  0  0  0  0  0
   -5.6340   14.9430   -0.4040 C   0  0  0  0  0  0  0  0  0  0  0  0
   -3.6380   14.7650    0.9650 C   0  0  0  0  0  0  0  0  0  0  0  0
   -5.0380   14.8160    0.8860 C   0  0  0  0  0  0  0  0  0  0  0  0
   -7.4060   15.0200   -0.6470 S   0  0  0  0  0  0  0  0  0  0  0  0
   -5.8190   14.7360    2.0700 N   0  0  0  0  0  0  0  0  0  0  0  0
   -7.8230   14.0800    0.8260 C   0  0  2  0  0  0  0  0  0  0  0  0
   -9.2930   14.0270    1.1420 C   0  0  0  0  0  0  0  0  0  0  0  0
   -7.1730   14.7190    2.0140 C   0  0  0  0  0  0  0  0  0  0  0  0
   -7.9300   15.2510    2.9210 N   0  0  0  0  0  0  0  0  0  0  0  0
   -9.4930   15.1770    2.4760 S   0  0  0  0  0  0  0  0  0  0  0  0
  -10.3040   14.5430    3.4890 O   0  0  0  0  0  0  0  0  0  0  0  0
   -9.8610   16.4500    1.8950 O   0  0  0  0  0  0  0  0  0  0  0  0
  1  2  1  0
  2  3  2  0
  2  4  1  0
  4  5  2  0
  4  6  1  0
  5  7  1  0
  6  8  2  0
  7  9  2  0
  8  9  1  0
  7 10  1  0
  9 11  1  0
 10 12  1  0
 12 13  1  1
 11 14  1  0
 12 14  1  0
 14 15  2  0
 13 16  1  0
 16 15  1  0
 16 17  2  0
 16 18  2  0
M  END
