mac-x1493-mac-x0131
     RDKit          3D

 30 34  0  0  0  0  0  0  0  0999 V2000
   -3.1380   12.3970   -4.6170 O   0  0  0  0  0  0  0  0  0  0  0  0
   -2.9250   13.1600   -3.5130 C   0  0  0  0  0  0  0  0  0  0  0  0
   -1.7560   13.6490   -3.0750 C   0  0  0  0  0  0  0  0  0  0  0  0
   -4.1740   13.4660   -2.6850 C   0  0  0  0  0  0  0  0  0  0  0  0
   -4.1300   13.4150   -1.2590 C   0  0  0  0  0  0  0  0  0  0  0  0
   -5.4140   13.8280   -3.2190 C   0  0  0  0  0  0  0  0  0  0  0  0
   -2.1770   14.2610   -1.9360 N   0  0  0  0  0  0  0  0  0  0  0  0
   -0.5190   13.3560   -3.7180 C   0  0  0  0  0  0  0  0  0  0  0  0
   -5.2590   13.7410   -0.4680 C   0  0  0  0  0  0  0  0  0  0  0  0
   -6.5220   14.1340   -2.4800 N   0  0  0  0  0  0  0  0  0  0  0  0
   -3.3680   14.9650   -2.0580 C   0  0  0  0  0  0  0  0  0  0  0  0
   -1.7550   14.3080   -0.6280 C   0  0  0  0  0  0  0  0  0  0  0  0
    0.7900   13.8190   -3.6670 C   0  0  0  0  0  0  0  0  0  0  0  0
   -0.5550   12.3400   -4.6470 O   0  0  0  0  0  0  0  0  0  0  0  0
   -4.0810   15.1660   -3.3570 C   0  0  0  0  0  0  0  0  0  0  0  0
   -6.4410   14.1010   -1.1400 C   0  0  0  0  0  0  0  0  0  0  0  0
   -5.2330   13.7240    0.9470 C   0  0  0  0  0  0  0  0  0  0  0  0
   -3.7510   15.3760   -0.8370 C   0  0  0  0  0  0  0  0  0  0  0  0
   -2.7620   14.9660    0.0490 C   0  0  0  0  0  0  0  0  0  0  0  0
   -0.6350   13.8010   -0.0840 N   0  0  0  0  0  0  0  0  0  0  0  0
    0.6690   12.1670   -5.1600 C   0  0  0  0  0  0  0  0  0  0  0  0
    1.5460   13.0540   -4.5900 C   0  0  0  0  0  0  0  0  0  0  0  0
   -4.9750   16.0970   -0.4650 C   0  0  0  0  0  0  0  0  0  0  0  0
   -7.5600   14.4380   -0.3870 C   0  0  0  0  0  0  0  0  0  0  0  0
   -6.3770   14.0730    1.6680 C   0  0  0  0  0  0  0  0  0  0  0  0
   -2.6600   15.0930    1.3830 C   0  0  0  0  0  0  0  0  0  0  0  0
   -0.6190   14.0180    1.2420 C   0  0  0  0  0  0  0  0  0  0  0  0
   -3.7000   15.6890    2.0800 N   0  0  0  0  0  0  0  0  0  0  0  0
   -7.5370   14.4280    1.0050 C   0  0  0  0  0  0  0  0  0  0  0  0
   -1.5620   14.6170    1.9860 N   0  0  0  0  0  0  0  0  0  0  0  0
  1  2  1  0
  2  3  2  3
  2  4  1  0
  4  5  2  0
  4  6  1  0
  3  7  1  0
  3  8  1  0
  5  9  1  0
  6 10  2  0
  7 11  1  0
  7 12  1  0
  8 13  2  0
  8 14  1  0
 11 15  1  0
  9 16  2  0
 10 16  1  0
  9 17  1  0
 11 18  2  0
 12 19  2  0
 18 19  1  0
 12 20  1  0
 14 21  1  0
 13 22  1  0
 21 22  2  0
 18 23  1  0
 16 24  1  0
 17 25  2  0
 19 26  1  0
 20 27  2  0
 26 28  1  0
 24 29  2  0
 25 29  1  0
 26 30  2  0
 27 30  1  0
M  END
