mac-x1493-diamond-x0969_0_A
     RDKit          3D

 13 14  0  0  0  0  0  0  0  0999 V2000
   -1.2280   14.7310   -1.6040 O   0  0  0  0  0  0  0  0  0  0  0  0
   -2.3010   14.9080   -2.3960 C   0  0  0  0  0  0  0  0  0  0  0  0
   -2.1810   15.0870   -3.5930 O   0  0  0  0  0  0  0  0  0  0  0  0
   -3.5710   14.8550   -1.6520 C   0  0  0  0  0  0  0  0  0  0  0  0
   -3.6630   14.9660   -0.2670 C   0  0  0  0  0  0  0  0  0  0  0  0
   -4.7440   14.6790   -2.3650 C   0  0  0  0  0  0  0  0  0  0  0  0
   -4.9150   14.8850    0.3510 C   0  0  0  0  0  0  0  0  0  0  0  0
   -5.9710   14.5980   -1.7970 N   0  0  0  0  0  0  0  0  0  0  0  0
   -6.0560   14.6930   -0.4630 C   0  0  0  0  0  0  0  0  0  0  0  0
   -5.0620   14.9830    1.7380 C   0  0  0  0  0  0  0  0  0  0  0  0
   -7.3000   14.5980    0.1440 C   0  0  0  0  0  0  0  0  0  0  0  0
   -6.3250   14.8840    2.3200 C   0  0  0  0  0  0  0  0  0  0  0  0
   -7.4450   14.6890    1.5270 C   0  0  0  0  0  0  0  0  0  0  0  0
  1  2  1  0
  2  3  2  0
  2  4  1  0
  4  5  2  0
  4  6  1  0
  5  7  1  0
  6  8  2  0
  7  9  2  0
  8  9  1  0
  7 10  1  0
  9 11  1  0
 10 12  2  0
 11 13  2  0
 12 13  1  0
M  END
