mac-x0132-mac-x0224
     RDKit          3D

 22 24  0  0  0  0  0  0  0  0999 V2000
   -4.2090   15.4050    1.7940 N   0  0  0  0  0  0  0  0  0  0  0  0
   -2.8610   14.4080    1.7420 S   0  0  0  0  0  0  0  0  0  0  0  0
   -2.5250   14.1800   -0.0040 C   0  0  0  0  0  0  0  0  0  0  0  0
   -5.3540   15.0560    1.0220 C   0  0  0  0  0  0  0  0  0  0  0  0
   -5.1720   15.1090   -0.3530 C   0  0  0  0  0  0  0  0  0  0  0  0
   -6.5320   14.6950    1.5750 N   0  0  0  0  0  0  0  0  0  0  0  0
   -6.2700   14.7570   -1.1310 C   0  0  0  0  0  0  0  0  0  0  0  0
   -7.5180   14.3870    0.7280 C   0  0  0  0  0  0  0  0  0  0  0  0
   -3.9630   15.4860   -0.9640 C   0  0  0  0  0  0  0  0  0  0  0  0
   -1.2310   14.4030   -0.4750 C   0  0  0  0  0  0  0  0  0  0  0  0
   -3.5200   13.7770   -0.9100 C   0  0  0  0  0  0  0  0  0  0  0  0
   -7.4450   14.4000   -0.6080 N   0  0  0  0  0  0  0  0  0  0  0  0
   -6.1220   14.7800   -2.5090 C   0  0  0  0  0  0  0  0  0  0  0  0
   -3.8350   15.4990   -2.3440 C   0  0  0  0  0  0  0  0  0  0  0  0
   -0.9290   14.2310   -1.8300 C   0  0  0  0  0  0  0  0  0  0  0  0
   -3.2170   13.6130   -2.2700 C   0  0  0  0  0  0  0  0  0  0  0  0
    0.4320   14.4430   -2.3430 C   0  0  0  0  0  0  0  0  0  0  0  0
   -4.9190   15.1380   -3.1160 C   0  0  0  0  0  0  0  0  0  0  0  0
   -1.9230   13.8440   -2.7270 C   0  0  0  0  0  0  0  0  0  0  0  0
   -1.7070   13.6680   -4.0690 O   0  0  0  0  0  0  0  0  0  0  0  0
    1.3720   14.8040   -1.6680 O   0  0  0  0  0  0  0  0  0  0  0  0
    0.5640   14.1740   -3.6510 O   0  0  0  0  0  0  0  0  0  0  0  0
  1  2  1  0
  2  3  1  0
  1  4  1  0
  4  5  1  0
  4  6  2  0
  5  7  2  0
  6  8  1  0
  5  9  1  0
  3 10  2  0
  3 11  1  0
  7 12  1  0
  8 12  2  0
  7 13  1  0
  9 14  2  0
 10 15  1  0
 11 16  2  0
 15 17  1  0
 13 18  2  0
 14 18  1  0
 15 19  2  0
 16 19  1  0
 19 20  1  0
 17 21  2  0
 17 22  1  0
M  END
