mac-x0337-mac-x0404
     RDKit          3D

 27 29  0  0  0  0  0  0  0  0999 V2000
   -5.7460    9.1950   -1.9760 C   0  0  0  0  0  0  0  0  0  0  0  0
   -5.2690   10.6100   -1.8170 C   0  0  0  0  0  0  0  0  0  0  0  0
   -6.0460   11.5510   -1.1270 C   0  0  0  0  0  0  0  0  0  0  0  0
   -4.0390   10.9980   -2.3560 C   0  0  0  0  0  0  0  0  0  0  0  0
   -3.5880   12.3100   -2.2200 C   0  0  0  0  0  0  0  0  0  0  0  0
   -5.5990   12.8670   -0.9890 C   0  0  0  0  0  0  0  0  0  0  0  0
   -4.3720   13.2410   -1.5420 C   0  0  0  0  0  0  0  0  0  0  0  0
   -3.8110   14.9100   -1.3780 S   0  0  2  0  0  0  0  0  0  0  0  0
   -3.9810   15.7330   -2.6850 N   0  0  0  0  0  0  0  0  0  0  0  0
   -2.6840   14.9330   -0.4700 O   0  0  0  0  0  0  0  0  0  0  0  0
   -4.9570   15.7060   -0.4510 N   0  0  0  0  0  0  0  0  0  0  0  0
   -3.7590   15.2200   -4.0840 C   0  0  0  0  0  0  0  0  0  0  0  0
   -2.3100   15.0190   -4.3960 C   0  0  0  0  0  0  0  0  0  0  0  0
   -1.3740   16.0540   -4.7810 C   0  0  0  0  0  0  0  0  0  0  0  0
   -1.8890   13.7170   -4.2740 C   0  0  0  0  0  0  0  0  0  0  0  0
   -0.0300   15.6670   -4.9730 C   0  0  0  0  0  0  0  0  0  0  0  0
   -0.5920   13.3590   -4.4740 C   0  0  0  0  0  0  0  0  0  0  0  0
   -1.6710   17.4280   -4.9790 C   0  0  0  0  0  0  0  0  0  0  0  0
    0.3400   14.3160   -4.8040 C   0  0  0  0  0  0  0  0  0  0  0  0
   -0.7000   18.3710   -5.3370 C   0  0  0  0  0  0  0  0  0  0  0  0
    0.9240   16.6330   -5.3280 C   0  0  0  0  0  0  0  0  0  0  0  0
    1.6430   13.9970   -4.9730 O   0  0  0  0  0  0  0  0  0  0  0  0
    0.6090   17.9710   -5.5090 C   0  0  0  0  0  0  0  0  0  0  0  0
    2.0530   12.7690   -4.4030 C   0  0  0  0  0  0  0  0  0  0  0  0
    1.2770   12.2660   -3.1790 C   0  0  0  0  0  0  0  0  0  0  0  0
    1.2550   13.1160   -2.1370 O   0  0  0  0  0  0  0  0  0  0  0  0
    0.6990   11.1890   -3.0880 O   0  0  0  0  0  0  0  0  0  0  0  0
  1  2  1  0
  2  3  2  0
  2  4  1  0
  4  5  2  0
  3  6  1  0
  5  7  1  0
  6  7  2  0
  7  8  1  0
  8  9  2  0
  8 10  2  0
  8 11  1  1
  9 12  1  0
 12 13  1  0
 13 14  1  0
 13 15  2  0
 14 16  2  0
 15 17  1  0
 14 18  1  0
 16 19  1  0
 17 19  2  0
 18 20  2  0
 16 21  1  0
 19 22  1  0
 20 23  1  0
 21 23  2  0
 22 24  1  0
 24 25  1  0
 25 26  1  0
 25 27  2  0
M  END
