mac-x0345-mac-x0361
     RDKit          3D

 11 12  0  0  0  0  0  0  0  0999 V2000
   -7.2420   14.5350    0.7910 C   0  0  0  0  0  0  0  0  0  0  0  0
   -6.5000   14.7270    1.9280 C   0  0  0  0  0  0  0  0  0  0  0  0
   -5.2100   15.0580    1.6420 O   0  0  0  0  0  0  0  0  0  0  0  0
   -6.3490   14.7590   -0.2690 C   0  0  0  0  0  0  0  0  0  0  0  0
   -5.1150   15.0730    0.2940 C   0  0  0  0  0  0  0  0  0  0  0  0
   -6.5650   14.6980   -1.5930 N   0  0  0  0  0  0  0  0  0  0  0  0
   -3.9870   15.3480   -0.4610 C   0  0  0  0  0  0  0  0  0  0  0  0
   -5.4840   14.9540   -2.3360 C   0  0  0  0  0  0  0  0  0  0  0  0
   -5.6930   14.8790   -3.7220 N   0  0  0  0  0  0  0  0  0  0  0  0
   -4.2040   15.2750   -1.8330 C   0  0  0  0  0  0  0  0  0  0  0  0
   -3.1530   15.5130   -2.7020 O   0  0  0  0  0  0  0  0  0  0  0  0
  1  2  2  0
  2  3  1  0
  1  4  1  0
  3  5  1  0
  4  5  2  0
  4  6  1  0
  5  7  1  0
  6  8  2  0
  8  9  1  0
  7 10  2  0
  8 10  1  0
 10 11  1  0
M  END
