mac-x0365-diamond-x0685_1_A
     RDKit          3D

 23 24  0  0  0  0  0  0  0  0999 V2000
   -0.6670   13.9460   -1.7830 O   0  0  0  0  0  0  0  0  0  0  0  0
   -1.6070   14.6890   -2.4420 C   0  0  0  0  0  0  0  0  0  0  0  0
   -1.4270   15.2080   -3.5280 O   0  0  0  0  0  0  0  0  0  0  0  0
    0.2290   12.7470   -2.4600 S   0  0  0  0  0  0  0  0  0  0  0  0
   -0.1290   12.6000   -4.2150 C   0  0  0  0  0  0  0  0  0  0  0  0
    1.8170   12.9990   -2.4040 O   0  0  0  0  0  0  0  0  0  0  0  0
   -0.0440   11.3290   -1.7640 O   0  0  0  0  0  0  0  0  0  0  0  0
   -2.9340   14.8180   -1.7390 C   0  0  0  0  0  0  0  0  0  0  0  0
   -1.4990   11.9830   -4.4740 C   0  0  0  0  0  0  0  0  0  0  0  0
   -4.0990   14.9600   -2.5020 C   0  0  0  0  0  0  0  0  0  0  0  0
   -3.0450   14.8010   -0.3250 C   0  0  0  0  0  0  0  0  0  0  0  0
   -1.4680   10.5810   -4.9060 N   0  0  0  0  0  0  0  0  0  0  0  0
   -5.3300   15.0720   -1.8790 C   0  0  0  0  0  0  0  0  0  0  0  0
   -4.3050   14.9180    0.2930 C   0  0  0  0  0  0  0  0  0  0  0  0
   -6.4370   15.2010   -2.6170 F   0  0  0  0  0  0  0  0  0  0  0  0
   -5.4440   15.0500   -0.5010 C   0  0  0  0  0  0  0  0  0  0  0  0
   -0.7690   10.3260   -6.1760 C   0  0  0  0  0  0  0  0  0  0  0  0
   -6.6760   15.1530    0.0700 O   0  0  0  0  0  0  0  0  0  0  0  0
   -0.5880    8.8310   -6.4640 C   0  0  0  0  0  0  0  0  0  0  0  0
   -1.5750   10.9610   -7.3340 C   0  0  0  0  0  0  0  0  0  0  0  0
    0.0800    8.5850   -7.8150 C   0  0  0  0  0  0  0  0  0  0  0  0
   -1.0220   10.6770   -8.7360 C   0  0  0  0  0  0  0  0  0  0  0  0
   -0.7020    9.2040   -8.9770 C   0  0  0  0  0  0  0  0  0  0  0  0
  1  2  1  0
  2  3  2  0
  4  1  1  0
  4  5  1  0
  4  6  1  0
  4  7  1  0
  2  8  1  0
  5  9  1  0
  8 10  2  0
  8 11  1  0
  9 12  1  0
 10 13  1  0
 11 14  2  0
 13 15  1  0
 13 16  2  0
 14 16  1  0
 12 17  1  0
 16 18  1  0
 17 19  1  0
 17 20  1  0
 19 21  1  0
 20 22  1  0
 21 23  1  0
 22 23  1  0
M  END
