mac-x0132-diamond-x0766_0_A
     RDKit          3D

 23 26  0  0  0  0  0  0  0  0999 V2000
   -4.2370   14.6920    2.0170 N   0  0  0  0  0  0  0  0  0  0  0  0
   -5.1620   14.7300    0.9880 C   0  0  0  0  0  0  0  0  0  0  0  0
   -6.4430   14.7030    1.4120 N   0  0  0  0  0  0  0  0  0  0  0  0
   -4.7520   14.7870   -0.3400 C   0  0  0  0  0  0  0  0  0  0  0  0
   -5.8130   14.8330   -1.2240 C   0  0  0  0  0  0  0  0  0  0  0  0
   -7.3690   14.7400    0.4630 C   0  0  0  0  0  0  0  0  0  0  0  0
   -3.3180   14.7800   -0.7270 C   0  0  0  0  0  0  0  0  0  0  0  0
   -7.1190   14.8080   -0.8400 N   0  0  0  0  0  0  0  0  0  0  0  0
   -5.7130   14.9060   -2.6740 C   0  0  0  0  0  0  0  0  0  0  0  0
   -2.6580   14.7540   -2.0530 C   0  0  0  0  0  0  0  0  0  0  0  0
   -2.2930   14.7570    0.1420 C   0  0  0  0  0  0  0  0  0  0  0  0
   -4.6560   14.8950   -3.4950 C   0  0  0  0  0  0  0  0  0  0  0  0
   -3.2560   14.8090   -3.2170 C   0  0  0  0  0  0  0  0  0  0  0  0
   -1.1900   14.6650   -1.8650 C   0  0  0  0  0  0  0  0  0  0  0  0
   -1.0220   14.6890   -0.5380 C   0  0  0  0  0  0  0  0  0  0  0  0
   -0.0620   14.5670   -2.8830 C   0  0  1  0  0  0  0  0  0  0  0  0
    0.0810   13.2990   -3.7410 C   0  0  2  0  0  0  0  0  0  0  0  0
    0.1130   15.6780   -3.9080 C   0  0  0  0  0  0  0  0  0  0  0  0
    0.5210   12.1780   -2.8440 C   0  0  0  0  0  0  0  0  0  0  0  0
    1.1290   13.6700   -4.8130 C   0  0  0  0  0  0  0  0  0  0  0  0
    1.3390   15.1800   -4.6660 C   0  0  0  0  0  0  0  0  0  0  0  0
    1.4210   12.2690   -2.0380 O   0  0  0  0  0  0  0  0  0  0  0  0
   -0.1640   11.0280   -2.9690 O   0  0  0  0  0  0  0  0  0  0  0  0
  1  2  1  0
  2  3  2  0
  2  4  1  0
  4  5  2  0
  3  6  1  0
  4  7  1  0
  5  8  1  0
  6  8  2  0
  5  9  1  0
  7 10  1  0
  7 11  2  0
  9 12  2  0
 10 13  2  0
 12 13  1  0
 10 14  1  0
 11 15  1  0
 14 15  2  0
 16 14  1  6
 16 17  1  0
 16 18  1  0
 17 19  1  1
 17 20  1  0
 18 21  1  0
 20 21  1  0
 19 22  2  0
 19 23  1  0
M  END
