mac-x0365-mac-x0392
     RDKit          3D

 18 19  0  0  0  0  0  0  0  0999 V2000
   -1.0650   15.4330   -2.8700 O   0  0  0  0  0  0  0  0  0  0  0  0
   -1.9100   14.5200   -2.2230 C   0  0  0  0  0  0  0  0  0  0  0  0
   -1.7910   13.3010   -2.9160 O   0  0  0  0  0  0  0  0  0  0  0  0
   -3.3670   14.8560   -1.9520 C   0  0  0  0  0  0  0  0  0  0  0  0
   -1.7130   14.4730   -0.7480 C   0  0  0  0  0  0  0  0  0  0  0  0
   -4.4370   14.7410   -2.8320 C   0  0  0  0  0  0  0  0  0  0  0  0
   -3.6450   15.3030   -0.6350 C   0  0  0  0  0  0  0  0  0  0  0  0
   -0.5820   14.3050    0.0310 C   0  0  0  0  0  0  0  0  0  0  0  0
   -2.9530   14.6470   -0.1200 C   0  0  0  0  0  0  0  0  0  0  0  0
    0.6980   14.1150   -0.4800 N   0  0  0  0  0  0  0  0  0  0  0  0
   -5.7220   15.0470   -2.3760 C   0  0  0  0  0  0  0  0  0  0  0  0
   -4.9240   15.6050   -0.1940 C   0  0  0  0  0  0  0  0  0  0  0  0
   -3.0580   14.6640    1.2350 C   0  0  0  0  0  0  0  0  0  0  0  0
   -0.7990   14.3370    1.4070 C   0  0  0  0  0  0  0  0  0  0  0  0
   -6.7430   14.9210   -3.2180 F   0  0  0  0  0  0  0  0  0  0  0  0
   -5.9690   15.4670   -1.0760 C   0  0  0  0  0  0  0  0  0  0  0  0
   -1.9920   14.5140    2.0130 N   0  0  0  0  0  0  0  0  0  0  0  0
   -7.2520   15.7300   -0.7030 O   0  0  0  0  0  0  0  0  0  0  0  0
  2  1  1  0
  2  3  1  0
  2  4  1  0
  2  5  1  0
  4  6  2  0
  4  7  1  0
  5  8  2  0
  5  9  1  0
  8 10  1  0
  6 11  1  0
  7 12  2  0
  9 13  2  0
  8 14  1  0
 11 15  1  0
 11 16  2  0
 12 16  1  0
 13 17  1  0
 14 17  2  0
 16 18  1  0
M  END
