mac-x0283-mac-x0451
     RDKit          3D

 11 12  0  0  0  0  0  0  0  0999 V2000
   -6.8450   14.6700    2.4220 N   0  0  0  0  0  0  0  0  0  0  0  0
   -6.6660   14.7460    1.0870 C   0  0  0  0  0  0  0  0  0  0  0  0
   -7.6660   14.7350    0.2040 N   0  0  0  0  0  0  0  0  0  0  0  0
   -5.4020   14.8530    0.4470 C   0  0  0  0  0  0  0  0  0  0  0  0
   -7.0710   14.8380   -1.0410 O   0  0  0  0  0  0  0  0  0  0  0  0
   -5.7180   14.9070   -0.8970 C   0  0  0  0  0  0  0  0  0  0  0  0
   -4.0420   14.9100    0.8240 C   0  0  0  0  0  0  0  0  0  0  0  0
   -4.7880   15.0110   -1.9250 C   0  0  0  0  0  0  0  0  0  0  0  0
   -3.0810   15.0100   -0.1820 C   0  0  0  0  0  0  0  0  0  0  0  0
   -3.4520   15.0570   -1.5270 C   0  0  0  0  0  0  0  0  0  0  0  0
   -2.4870   15.1480   -2.4630 F   0  0  0  0  0  0  0  0  0  0  0  0
  1  2  1  0
  2  3  2  0
  2  4  1  0
  3  5  1  0
  4  6  2  0
  5  6  1  0
  4  7  1  0
  6  8  1  0
  7  9  2  0
  8 10  2  0
  9 10  1  0
 10 11  1  0
M  END
