mac-x0277-diamond-x0895_1_A
     RDKit          3D

 22 23  0  0  0  0  0  0  0  0999 V2000
   -1.2560   18.3760   -5.2340 Cl  0  0  0  0  0  0  0  0  0  0  0  0
   -0.5440   16.8240   -4.9980 C   0  0  0  0  0  0  0  0  0  0  0  0
   -1.2920   15.6530   -5.0810 C   0  0  0  0  0  0  0  0  0  0  0  0
    0.8190   16.7530   -4.7170 C   0  0  0  0  0  0  0  0  0  0  0  0
   -2.9860   15.6640   -5.4220 Cl  0  0  0  0  0  0  0  0  0  0  0  0
   -0.6720   14.4160   -4.8870 C   0  0  0  0  0  0  0  0  0  0  0  0
    1.4380   15.5110   -4.5200 C   0  0  0  0  0  0  0  0  0  0  0  0
    0.6980   14.3290   -4.6050 C   0  0  0  0  0  0  0  0  0  0  0  0
    1.3200   12.9640   -4.3800 C   0  0  0  0  0  0  0  0  0  0  0  0
    0.8020   12.6030   -3.0340 C   0  0  0  0  0  0  0  0  0  0  0  0
    0.4770   11.3160   -2.7980 O   0  0  0  0  0  0  0  0  0  0  0  0
    0.6160   13.4680   -2.1350 N   0  0  0  0  0  0  0  0  0  0  0  0
    0.0490   13.2860   -0.8390 C   0  0  0  0  0  0  0  0  0  0  0  0
   -0.5770   14.6120   -0.4900 C   0  0  0  0  0  0  0  0  0  0  0  0
   -0.5000   14.9260    0.9830 C   0  0  0  0  0  0  0  0  0  0  0  0
   -1.7980   14.7770    1.6140 N   0  0  0  0  0  0  0  0  0  0  0  0
   -2.8960   14.6980    0.9350 C   0  0  0  0  0  0  0  0  0  0  0  0
   -3.0600   14.6960   -0.5780 C   0  0  0  0  0  0  0  0  0  0  0  0
   -4.1280   14.5920    1.4680 N   0  0  0  0  0  0  0  0  0  0  0  0
   -4.4420   15.0750   -0.6530 N   0  0  0  0  0  0  0  0  0  0  0  0
   -5.0720   14.8060    0.5280 C   0  0  0  0  0  0  0  0  0  0  0  0
   -6.2770   14.7630    0.7020 O   0  0  0  0  0  0  0  0  0  0  0  0
  1  2  1  0
  2  3  2  0
  2  4  1  0
  3  5  1  0
  3  6  1  0
  4  7  2  0
  6  8  2  0
  7  8  1  0
  8  9  1  0
  9 10  1  0
 10 11  1  0
 10 12  2  3
 12 13  1  0
 13 14  1  0
 14 15  1  0
 15 16  1  0
 16 17  2  3
 17 18  1  0
 17 19  1  0
 18 20  1  0
 19 21  1  0
 20 21  1  0
 21 22  2  0
M  END
