mac-x0282-mac-x0354
     RDKit          3D

 26 29  0  0  0  0  0  0  0  0999 V2000
    0.5600   11.0160   -8.3970 C   0  0  0  0  0  0  0  0  0  0  0  0
    0.8600   11.4960   -7.0650 N   0  0  0  0  0  0  0  0  0  0  0  0
    1.8450   12.3680   -6.8850 N   0  0  0  0  0  0  0  0  0  0  0  0
    0.2410   11.1560   -5.9070 C   0  0  0  0  0  0  0  0  0  0  0  0
    1.8750   12.6050   -5.6150 C   0  0  0  0  0  0  0  0  0  0  0  0
    0.9100   11.8860   -4.9270 C   0  0  0  0  0  0  0  0  0  0  0  0
   -0.8440   10.2110   -5.8990 C   0  0  0  0  0  0  0  0  0  0  0  0
    0.8040   12.0010   -3.5320 C   0  0  0  0  0  0  0  0  0  0  0  0
   -0.6320    8.9480   -6.4630 C   0  0  0  0  0  0  0  0  0  0  0  0
   -2.0780   10.5360   -5.3520 C   0  0  0  0  0  0  0  0  0  0  0  0
    1.2970   13.0210   -2.9680 N   0  0  0  0  0  0  0  0  0  0  0  0
    0.2300   11.0030   -2.8230 O   0  0  0  0  0  0  0  0  0  0  0  0
   -1.6580    8.0120   -6.4760 C   0  0  0  0  0  0  0  0  0  0  0  0
   -3.1070    9.5980   -5.3650 C   0  0  0  0  0  0  0  0  0  0  0  0
    1.3730   13.3030   -1.5800 C   0  0  0  0  0  0  0  0  0  0  0  0
   -2.8940    8.3370   -5.9280 C   0  0  0  0  0  0  0  0  0  0  0  0
    0.9880   14.7030   -1.1830 C   0  0  0  0  0  0  0  0  0  0  0  0
   -0.3020   14.7260   -0.4450 C   0  0  0  0  0  0  0  0  0  0  0  0
   -1.4610   14.8680   -1.1840 C   0  0  0  0  0  0  0  0  0  0  0  0
   -0.4030   14.6160    0.9480 C   0  0  0  0  0  0  0  0  0  0  0  0
   -2.6700   14.9120   -0.5010 C   0  0  0  0  0  0  0  0  0  0  0  0
   -1.5500   14.6370    1.6650 N   0  0  0  0  0  0  0  0  0  0  0  0
   -4.0220   15.0630   -0.8790 C   0  0  0  0  0  0  0  0  0  0  0  0
   -2.6310   14.7910    0.8800 C   0  0  0  0  0  0  0  0  0  0  0  0
   -4.7710   15.0240    0.2700 C   0  0  0  0  0  0  0  0  0  0  0  0
   -3.9150   14.8530    1.3290 N   0  0  0  0  0  0  0  0  0  0  0  0
  1  2  1  0
  2  3  1  0
  2  4  1  0
  3  5  2  0
  4  6  2  0
  5  6  1  0
  4  7  1  0
  6  8  1  0
  7  9  2  0
  7 10  1  0
  8 11  2  3
  8 12  1  0
  9 13  1  0
 10 14  2  0
 11 15  1  0
 13 16  2  0
 14 16  1  0
 15 17  1  0
 17 18  1  0
 18 19  2  0
 18 20  1  0
 19 21  1  0
 20 22  2  0
 21 23  1  0
 21 24  2  0
 22 24  1  0
 23 25  2  0
 24 26  1  0
 25 26  1  0
M  END
