mac-x0451-diamond-x0711_0_A
     RDKit          3D

 19 21  0  0  0  0  0  0  0  0999 V2000
   -7.2240   14.0150    0.3670 N   0  0  0  0  0  0  0  0  0  0  0  0
   -6.7900   14.4060   -0.8800 C   0  0  0  0  0  0  0  0  0  0  0  0
   -7.5650   15.0010   -1.5870 O   0  0  0  0  0  0  0  0  0  0  0  0
   -6.5500   14.4740    1.4970 C   0  0  0  0  0  0  0  0  0  0  0  0
   -5.2780   15.1370    1.0090 C   0  0  2  0  0  0  0  0  0  0  0  0
   -5.3270   14.0380   -1.2420 C   0  0  2  0  0  0  0  0  0  0  0  0
   -4.5010   14.2780    0.0330 C   0  0  1  0  0  0  0  0  0  0  0  0
   -4.7610   14.7020   -2.5660 C   0  0  0  0  0  0  0  0  0  0  0  0
   -4.5540   15.4750    2.2310 C   0  0  0  0  0  0  0  0  0  0  0  0
   -3.2020   14.9440   -0.2920 C   0  0  2  0  0  0  0  0  0  0  0  0
   -2.8660   15.3210    2.2940 S   0  0  0  0  0  0  0  0  0  0  0  0
   -3.2300   14.9750   -2.6270 C   0  0  2  0  0  0  0  0  0  0  0  0
   -2.5420   14.4330   -3.7490 O   0  0  0  0  0  0  0  0  0  0  0  0
   -2.5370   14.3850   -1.4580 C   0  0  0  0  0  0  0  0  0  0  0  0
   -2.2430   14.9490    0.7820 C   0  0  0  0  0  0  0  0  0  0  0  0
   -0.9380   14.0450   -3.6060 S   0  0  0  0  0  0  0  0  0  0  0  0
   -1.0030   12.6670   -4.7150 C   0  0  0  0  0  0  0  0  0  0  0  0
   -0.1320   15.0800   -4.2210 O   0  0  0  0  0  0  0  0  0  0  0  0
   -0.6050   13.5120   -2.2970 O   0  0  0  0  0  0  0  0  0  0  0  0
  1  2  1  0
  2  3  2  0
  1  4  1  0
  5  4  1  1
  2  6  1  0
  7  5  1  1
  6  7  1  0
  6  8  1  6
  5  9  1  0
  7 10  1  0
  9 11  2  0
  8 12  1  0
 12 13  1  6
 10 14  1  6
 12 14  1  0
 10 15  1  0
 11 15  2  0
 16 13  1  0
 16 17  1  0
 16 18  2  0
 16 19  2  0
M  END
