mac-x0572-mac-x0555
     RDKit          3D

 13 14  0  0  0  0  0  0  0  0999 V2000
   -7.9240   14.5290    3.1830 C   0  0  0  0  0  0  0  0  0  0  0  0
   -7.1890   14.6390    1.8670 C   0  0  0  0  0  0  0  0  0  0  0  0
   -5.8350   14.7400    2.0340 N   0  0  0  0  0  0  0  0  0  0  0  0
   -7.8060   14.6370    0.6650 C   0  0  0  0  0  0  0  0  0  0  0  0
   -9.1730   14.5350    0.4780 O   0  0  0  0  0  0  0  0  0  0  0  0
   -6.9350   14.7630   -0.5570 C   0  0  0  0  0  0  0  0  0  0  0  0
   -5.0620   15.0720    1.0520 C   0  0  0  0  0  0  0  0  0  0  0  0
   -7.3400   14.3760   -1.6540 O   0  0  0  0  0  0  0  0  0  0  0  0
   -5.5660   15.3940   -0.3470 C   0  0  1  0  0  0  0  0  0  0  0  0
   -3.6130   15.1350    1.3240 C   0  0  0  0  0  0  0  0  0  0  0  0
   -2.7740   15.0930    0.2940 C   0  0  0  0  0  0  0  0  0  0  0  0
   -4.5270   15.1200   -1.3910 C   0  0  0  0  0  0  0  0  0  0  0  0
   -3.2300   14.9890   -1.0750 C   0  0  0  0  0  0  0  0  0  0  0  0
  1  2  1  0
  2  3  1  0
  2  4  2  0
  4  5  1  0
  4  6  1  0
  3  7  2  0
  6  8  2  0
  6  9  1  0
  7  9  1  0
  7 10  1  0
 10 11  2  0
  9 12  1  6
 11 13  1  0
 12 13  2  0
M  END
