mac-x0301-mac-x0123
     RDKit          3D

 23 27  0  0  0  0  0  0  0  0999 V2000
   -0.0940   14.8890   -3.6260 O   0  0  0  0  0  0  0  0  0  0  0  0
   -1.4370   14.6920   -3.5590 C   0  0  0  0  0  0  0  0  0  0  0  0
   -2.1010   14.4970   -4.5560 O   0  0  0  0  0  0  0  0  0  0  0  0
   -1.9570   14.7280   -2.1710 C   0  0  0  0  0  0  0  0  0  0  0  0
   -1.0160   14.8020   -1.1770 C   0  0  0  0  0  0  0  0  0  0  0  0
   -3.3060   14.6930   -1.7020 C   0  0  0  0  0  0  0  0  0  0  0  0
   -1.3050   14.8350    0.1610 C   0  0  0  0  0  0  0  0  0  0  0  0
   -3.4780   14.7180   -0.3210 C   0  0  0  0  0  0  0  0  0  0  0  0
    0.2930   14.8550   -1.3710 O   0  0  0  0  0  0  0  0  0  0  0  0
   -4.5740   14.6300   -2.3010 N   0  0  0  0  0  0  0  0  0  0  0  0
   -2.5220   14.7900    0.6310 C   0  0  0  0  0  0  0  0  0  0  0  0
   -0.2560   14.9170    0.9590 O   0  0  0  0  0  0  0  0  0  0  0  0
    0.7100   14.6640   -0.0500 C   0  0  0  0  0  0  0  0  0  0  0  0
   -4.7450   14.6500   -0.0680 N   0  0  0  0  0  0  0  0  0  0  0  0
   -5.4410   14.6060   -1.2620 C   0  0  0  0  0  0  0  0  0  0  0  0
   -5.2580   14.6180    1.2170 C   0  0  0  0  0  0  0  0  0  0  0  0
   -6.8100   14.5460   -1.2020 N   0  0  0  0  0  0  0  0  0  0  0  0
   -4.4340   14.6190    2.3530 N   0  0  0  0  0  0  0  0  0  0  0  0
   -7.3000   14.5300    0.0210 C   0  0  0  0  0  0  0  0  0  0  0  0
   -6.5460   14.5560    1.3070 C   0  0  0  0  0  0  0  0  0  0  0  0
   -7.4660   14.4880    2.4570 C   0  0  0  0  0  0  0  0  0  0  0  0
   -8.7530   14.4770    0.3580 C   0  0  0  0  0  0  0  0  0  0  0  0
   -8.7260   13.9480    1.8010 C   0  0  0  0  0  0  0  0  0  0  0  0
  1  2  1  0
  2  3  2  0
  2  4  1  0
  4  5  2  0
  4  6  1  0
  5  7  1  0
  6  8  2  0
  5  9  1  0
  6 10  1  0
  7 11  2  0
  8 11  1  0
  7 12  1  0
  9 13  1  0
 12 13  1  0
  8 14  1  0
 10 15  2  0
 14 15  1  0
 14 16  1  0
 15 17  1  0
 16 18  1  0
 17 19  2  0
 16 20  2  0
 19 20  1  0
 20 21  1  0
 19 22  1  0
 21 23  1  0
 22 23  1  0
M  END
