mac-x1493-diamond-x1012_0_A
     RDKit          3D

 25 27  0  0  0  0  0  0  0  0999 V2000
   -1.4790   14.8650   -1.7570 O   0  0  0  0  0  0  0  0  0  0  0  0
   -2.5930   14.8660   -2.5130 C   0  0  0  0  0  0  0  0  0  0  0  0
   -2.6890   14.8400   -3.7910 N   0  0  0  0  0  0  0  0  0  0  0  0
   -3.8040   14.8460   -1.7020 C   0  0  0  0  0  0  0  0  0  0  0  0
   -3.7820   14.9460   -0.3160 C   0  0  0  0  0  0  0  0  0  0  0  0
   -5.0300   14.7040   -2.3250 C   0  0  0  0  0  0  0  0  0  0  0  0
   -1.5870   14.7760   -4.7230 C   0  0  2  0  0  0  0  0  0  0  0  0
   -4.9900   14.8820    0.3880 C   0  0  0  0  0  0  0  0  0  0  0  0
   -6.2090   14.6420   -1.6790 N   0  0  0  0  0  0  0  0  0  0  0  0
   -0.8640   13.4880   -4.3480 C   0  0  0  0  0  0  0  0  0  0  0  0
   -0.6990   15.9390   -4.6310 N   0  0  0  0  0  0  0  0  0  0  0  0
   -1.1480   17.2400   -4.7510 C   0  0  0  0  0  0  0  0  0  0  0  0
   -6.1860   14.7230   -0.3480 C   0  0  0  0  0  0  0  0  0  0  0  0
   -5.0340   14.9640    1.7770 C   0  0  0  0  0  0  0  0  0  0  0  0
    0.0840   13.7900   -3.2060 C   0  0  1  0  0  0  0  0  0  0  0  0
    0.7570   15.6780   -4.7240 C   0  0  0  0  0  0  0  0  0  0  0  0
   -0.2100   18.2190   -4.7260 N   0  0  0  0  0  0  0  0  0  0  0  0
   -2.3210   17.5840   -4.8550 O   0  0  0  0  0  0  0  0  0  0  0  0
    0.4600   12.6040   -2.3470 C   0  0  0  0  0  0  0  0  0  0  0  0
   -7.3890   14.6430    0.3390 C   0  0  0  0  0  0  0  0  0  0  0  0
   -6.2590   14.8810    2.4460 C   0  0  0  0  0  0  0  0  0  0  0  0
    1.2610   14.5780   -3.7780 C   0  0  0  0  0  0  0  0  0  0  0  0
    0.5590   11.4060   -2.9500 O   0  0  0  0  0  0  0  0  0  0  0  0
    0.6450   12.6830   -1.1480 O   0  0  0  0  0  0  0  0  0  0  0  0
   -7.4340   14.7180    1.7270 C   0  0  0  0  0  0  0  0  0  0  0  0
  1  2  1  0
  2  3  2  3
  2  4  1  0
  4  5  2  0
  4  6  1  0
  7  3  1  1
  5  8  1  0
  6  9  2  0
  7 10  1  0
  7 11  1  0
 11 12  1  0
  8 13  2  0
  9 13  1  0
  8 14  1  0
 10 15  1  0
 11 16  1  0
 12 17  1  0
 12 18  2  0
 15 19  1  6
 13 20  1  0
 14 21  2  0
 15 22  1  0
 16 22  1  0
 19 23  1  0
 19 24  2  0
 20 25  2  0
 21 25  1  0
M  END
