mac-x0132-diamond-x0685_1_A
     RDKit          3D

 26 28  0  0  0  0  0  0  0  0999 V2000
   -4.3400   15.4390    2.0210 N   0  0  0  0  0  0  0  0  0  0  0  0
   -5.2780   15.1160    1.0480 C   0  0  0  0  0  0  0  0  0  0  0  0
   -6.5450   14.8900    1.4320 N   0  0  0  0  0  0  0  0  0  0  0  0
   -4.8550   15.0550   -0.2590 C   0  0  0  0  0  0  0  0  0  0  0  0
   -5.8380   14.7770   -1.2010 C   0  0  0  0  0  0  0  0  0  0  0  0
   -7.4070   14.6240    0.4460 C   0  0  0  0  0  0  0  0  0  0  0  0
   -3.5180   15.2530   -0.6390 C   0  0  0  0  0  0  0  0  0  0  0  0
   -7.1160   14.5650   -0.8640 N   0  0  0  0  0  0  0  0  0  0  0  0
   -5.4490   14.7200   -2.5350 C   0  0  0  0  0  0  0  0  0  0  0  0
   -3.1270   15.1720   -1.9650 C   0  0  0  0  0  0  0  0  0  0  0  0
   -1.6610   15.3490   -2.3040 C   0  0  0  0  0  0  0  0  0  0  0  0
   -4.1100   14.9120   -2.9270 C   0  0  0  0  0  0  0  0  0  0  0  0
   -0.8440   14.3200   -1.4910 C   0  0  0  0  0  0  0  0  0  0  0  0
    0.4120   14.0250   -2.1060 O   0  0  0  0  0  0  0  0  0  0  0  0
    0.6990   12.5810   -2.7640 S   0  0  0  0  0  0  0  0  0  0  0  0
   -0.0270   12.6060   -4.4030 C   0  0  0  0  0  0  0  0  0  0  0  0
    2.2630   12.3270   -2.9950 O   0  0  0  0  0  0  0  0  0  0  0  0
    0.0340   11.3690   -1.9360 O   0  0  0  0  0  0  0  0  0  0  0  0
   -1.4190   11.9830   -4.4400 C   0  0  0  0  0  0  0  0  0  0  0  0
   -1.3530   10.5660   -4.8580 N   0  0  0  0  0  0  0  0  0  0  0  0
   -0.8150   10.3250   -6.2130 C   0  0  0  0  0  0  0  0  0  0  0  0
   -0.5950    8.8240   -6.4620 C   0  0  0  0  0  0  0  0  0  0  0  0
   -1.6270   10.9660   -7.3510 C   0  0  0  0  0  0  0  0  0  0  0  0
    0.0930    8.6000   -7.8040 C   0  0  0  0  0  0  0  0  0  0  0  0
   -0.9810   10.7010   -8.7140 C   0  0  0  0  0  0  0  0  0  0  0  0
   -0.7170    9.2130   -8.9440 C   0  0  0  0  0  0  0  0  0  0  0  0
  1  2  1  0
  2  3  2  0
  2  4  1  0
  4  5  2  0
  3  6  1  0
  4  7  1  0
  5  8  1  0
  6  8  2  0
  5  9  1  0
  7 10  2  0
 10 11  1  0
  9 12  2  0
 10 12  1  0
 11 13  1  0
 13 14  1  0
 15 14  1  0
 15 16  1  0
 15 17  1  0
 15 18  1  0
 16 19  1  0
 19 20  1  0
 20 21  1  0
 21 22  1  0
 21 23  1  0
 22 24  1  0
 23 25  1  0
 24 26  1  0
 25 26  1  0
M  END
