mac-x0587-diamond-x0933_0_A
     RDKit          3D

 16 16  0  0  0  0  0  0  0  0999 V2000
   -0.0270   16.0900   -4.0990 C   0  0  0  0  0  0  0  0  0  0  0  0
   -0.6940   14.7990   -3.6080 C   0  0  2  0  0  0  0  0  0  0  0  0
   -0.3560   13.5270   -4.9060 S   0  0  0  0  0  0  0  0  0  0  0  0
   -2.2060   15.0170   -3.3400 C   0  0  0  0  0  0  0  0  0  0  0  0
   -0.6920   11.9710   -4.0160 C   0  0  0  0  0  0  0  0  0  0  0  0
   -2.9690   15.2830   -4.2720 O   0  0  0  0  0  0  0  0  0  0  0  0
   -2.6850   14.9070   -2.0210 N   0  0  0  0  0  0  0  0  0  0  0  0
    0.4180   11.5310   -3.1020 C   0  0  0  0  0  0  0  0  0  0  0  0
   -4.0550   15.1250   -1.5450 C   0  0  0  0  0  0  0  0  0  0  0  0
   -1.8690   14.7390   -0.8870 C   0  0  0  0  0  0  0  0  0  0  0  0
    0.5830   10.3960   -2.6990 O   0  0  0  0  0  0  0  0  0  0  0  0
    1.2460   12.5360   -2.7360 O   0  0  0  0  0  0  0  0  0  0  0  0
   -0.6550   14.7750   -0.7990 O   0  0  0  0  0  0  0  0  0  0  0  0
   -3.9380   15.1920   -0.0030 C   0  0  2  0  0  0  0  0  0  0  0  0
   -2.7090   14.5230    0.2120 N   0  0  0  0  0  0  0  0  0  0  0  0
   -4.9830   14.5330    0.7810 N   0  0  0  0  0  0  0  0  0  0  0  0
  2  1  1  6
  2  3  1  0
  2  4  1  0
  3  5  1  0
  4  6  2  0
  4  7  1  0
  5  8  1  0
  7  9  1  0
  7 10  1  0
  8 11  2  0
  8 12  1  0
 10 13  2  0
  9 14  1  0
 10 15  1  0
 14 15  1  0
 14 16  1  1
M  END
