mac-x0415-diamond-x0681_0_A
     RDKit          3D

 28 31  0  0  0  0  0  0  0  0999 V2000
   -0.0370   11.0340   -3.1400 O   0  0  0  0  0  0  0  0  0  0  0  0
    0.7270   12.1510   -3.1770 C   0  0  0  0  0  0  0  0  0  0  0  0
    1.2160   12.6160   -2.1600 O   0  0  0  0  0  0  0  0  0  0  0  0
    0.8760   12.7440   -4.5760 C   0  0  0  0  0  0  0  0  0  0  0  0
    0.6780   14.2010   -4.5380 C   0  0  0  0  0  0  0  0  0  0  0  0
    1.7470   15.1820   -4.3590 C   0  0  0  0  0  0  0  0  0  0  0  0
   -0.3730   15.0200   -4.6550 C   0  0  0  0  0  0  0  0  0  0  0  0
    1.4440   16.4360   -4.3520 N   0  0  0  0  0  0  0  0  0  0  0  0
    0.0190   16.4360   -4.4570 C   0  0  1  0  0  0  0  0  0  0  0  0
   -1.7740   14.7940   -4.8960 C   0  0  0  0  0  0  0  0  0  0  0  0
   -0.6640   17.4110   -5.3400 C   0  0  0  0  0  0  0  0  0  0  0  0
   -2.5000   15.8010   -5.4480 C   0  0  0  0  0  0  0  0  0  0  0  0
   -3.8450   15.6730   -5.7320 O   0  0  0  0  0  0  0  0  0  0  0  0
   -1.8880   17.0910   -5.7970 C   0  0  0  0  0  0  0  0  0  0  0  0
   -4.5070   14.6460   -4.9740 C   0  0  0  0  0  0  0  0  0  0  0  0
   -4.6520   15.0760   -3.5120 C   0  0  0  0  0  0  0  0  0  0  0  0
   -4.2130   14.1470   -2.5400 N   0  0  0  0  0  0  0  0  0  0  0  0
   -3.1690   14.4330   -1.7120 C   0  0  0  0  0  0  0  0  0  0  0  0
   -2.0810   14.8210   -2.1080 O   0  0  0  0  0  0  0  0  0  0  0  0
   -3.5250   14.1940   -0.2590 C   0  0  2  0  0  0  0  0  0  0  0  0
   -4.6810   13.2470   -0.2440 C   0  0  0  0  0  0  0  0  0  0  0  0
   -3.8970   15.4790    0.4960 C   0  0  0  0  0  0  0  0  0  0  0  0
   -5.6530   13.3090    0.7090 N   0  0  0  0  0  0  0  0  0  0  0  0
   -4.3830   15.0740    1.8660 C   0  0  0  0  0  0  0  0  0  0  0  0
   -4.9300   12.2720   -1.1000 N   0  0  0  0  0  0  0  0  0  0  0  0
   -5.6800   14.2730    1.7920 C   0  0  0  0  0  0  0  0  0  0  0  0
   -6.5650   12.3310    0.4630 C   0  0  0  0  0  0  0  0  0  0  0  0
   -6.0980   11.6980   -0.6670 C   0  0  0  0  0  0  0  0  0  0  0  0
  1  2  1  0
  2  3  2  0
  2  4  1  0
  4  5  1  0
  5  6  1  0
  5  7  2  0
  6  8  2  0
  7  9  1  0
  8  9  1  0
  7 10  1  0
  9 11  1  6
 10 12  2  0
 12 13  1  0
 11 14  2  0
 12 14  1  0
 13 15  1  0
 15 16  1  0
 16 17  1  0
 17 18  1  0
 18 19  2  0
 20 18  1  6
 20 21  1  0
 20 22  1  0
 21 23  1  0
 22 24  1  0
 21 25  2  0
 23 26  1  0
 24 26  1  0
 23 27  1  0
 25 28  1  0
 27 28  2  0
M  END
