mac-x0159-diamond-x0592_0_A
     RDKit          3D

 27 30  0  0  0  0  0  0  0  0999 V2000
   -3.6590   15.1180    0.4440 N   0  0  0  0  0  0  0  0  0  0  0  0
   -4.3070   15.6190   -0.5430 C   0  0  0  0  0  0  0  0  0  0  0  0
   -3.7020   16.1920   -1.4160 O   0  0  0  0  0  0  0  0  0  0  0  0
   -2.9310   14.0100    0.0760 C   0  0  1  0  0  0  0  0  0  0  0  0
   -3.4320   13.5780   -1.2250 N   0  0  0  0  0  0  0  0  0  0  0  0
   -1.5010   14.3550    0.1450 C   0  0  1  0  0  0  0  0  0  0  0  0
   -5.6600   15.3380   -0.5280 C   0  0  0  0  0  0  0  0  0  0  0  0
   -2.8340   14.2480   -2.3930 C   0  0  0  0  0  0  0  0  0  0  0  0
   -1.0070   15.1490   -1.0530 C   0  0  2  0  0  0  0  0  0  0  0  0
   -1.0340   15.2370    1.1590 N   0  0  0  0  0  0  0  0  0  0  0  0
   -6.6480   15.4970   -1.4880 C   0  0  0  0  0  0  0  0  0  0  0  0
   -6.2660   14.7960    0.5660 C   0  0  0  0  0  0  0  0  0  0  0  0
   -1.4090   14.4840   -2.2580 N   0  0  0  0  0  0  0  0  0  0  0  0
    0.3840   15.0320   -0.6780 N   0  0  0  0  0  0  0  0  0  0  0  0
    0.3040   14.9720    0.7870 C   0  0  0  0  0  0  0  0  0  0  0  0
   -7.8330   15.0870   -1.0320 N   0  0  0  0  0  0  0  0  0  0  0  0
   -7.5580   14.6710    0.2230 N   0  0  0  0  0  0  0  0  0  0  0  0
   -0.5990   14.4860   -3.4820 C   0  0  0  0  0  0  0  0  0  0  0  0
   -8.5900   14.1530    1.0850 C   0  0  0  0  0  0  0  0  0  0  0  0
   -8.0290   13.8630    2.4680 C   0  0  0  0  0  0  0  0  0  0  0  0
   -0.2980   15.8090   -4.1500 C   0  0  0  0  0  0  0  0  0  0  0  0
   -7.2350   14.9400    2.9500 O   0  0  0  0  0  0  0  0  0  0  0  0
    0.9420   16.4310   -4.1720 C   0  0  0  0  0  0  0  0  0  0  0  0
   -1.2940   16.5160   -4.8310 N   0  0  0  0  0  0  0  0  0  0  0  0
   -0.7980   17.6270   -5.3400 C   0  0  0  0  0  0  0  0  0  0  0  0
    0.8620   17.9010   -5.0430 S   0  0  0  0  0  0  0  0  0  0  0  0
   -1.5680   18.6180   -6.1300 C   0  0  0  0  0  0  0  0  0  0  0  0
  1  2  1  0
  2  3  2  0
  4  1  1  6
  4  5  1  0
  4  6  1  0
  2  7  1  0
  5  8  1  0
  6  9  1  0
  6 10  1  1
  7 11  1  0
  7 12  2  0
  8 13  1  0
  9 13  1  0
  9 14  1  1
 10 15  1  0
 14 15  1  0
 11 16  2  0
 12 17  1  0
 16 17  1  0
 13 18  1  0
 17 19  1  0
 19 20  1  0
 18 21  1  0
 20 22  1  0
 21 23  2  0
 21 24  1  0
 24 25  2  0
 23 26  1  0
 25 26  1  0
 25 27  1  0
M  END
