mac-x0319-mac-x0159
     RDKit          3D

 23 25  0  0  0  0  0  0  0  0999 V2000
    0.5090   10.5350   -2.5410 O   0  0  0  0  0  0  0  0  0  0  0  0
    0.7550   11.8760   -2.4380 C   0  0  0  0  0  0  0  0  0  0  0  0
    0.6520   12.4330   -1.3580 O   0  0  0  0  0  0  0  0  0  0  0  0
    1.1550   12.5920   -3.7180 C   0  0  0  0  0  0  0  0  0  0  0  0
    0.4660   13.9180   -4.0890 C   0  0  0  0  0  0  0  0  0  0  0  0
    1.2370   14.8670   -4.7560 C   0  0  0  0  0  0  0  0  0  0  0  0
   -0.8710   14.2970   -3.8310 C   0  0  0  0  0  0  0  0  0  0  0  0
   -1.8510   13.4510   -3.1010 C   0  0  0  0  0  0  0  0  0  0  0  0
    0.7110   16.1080   -5.1600 C   0  0  0  0  0  0  0  0  0  0  0  0
   -1.3760   15.5510   -4.2540 C   0  0  0  0  0  0  0  0  0  0  0  0
    1.5290   16.9590   -5.8070 O   0  0  0  0  0  0  0  0  0  0  0  0
   -0.5950   16.4750   -4.9280 C   0  0  0  0  0  0  0  0  0  0  0  0
   -2.3800   14.0150   -1.8360 N   0  0  0  0  0  0  0  0  0  0  0  0
   -1.1480   17.8070   -5.3790 C   0  0  0  0  0  0  0  0  0  0  0  0
   -2.9830   15.3310   -2.0690 C   0  0  0  0  0  0  0  0  0  0  0  0
   -1.4950   14.0150   -0.6790 C   0  0  2  0  0  0  0  0  0  0  0  0
   -3.7680   15.7170   -0.9070 N   0  0  0  0  0  0  0  0  0  0  0  0
   -2.2180   14.4610    0.6040 C   0  0  2  0  0  0  0  0  0  0  0  0
   -0.3400   14.9080   -0.7400 N   0  0  0  0  0  0  0  0  0  0  0  0
   -3.6710   14.8050    0.2130 C   0  0  1  0  0  0  0  0  0  0  0  0
   -1.3310   15.4320    1.2270 N   0  0  0  0  0  0  0  0  0  0  0  0
   -0.0570   15.0170    0.6750 C   0  0  0  0  0  0  0  0  0  0  0  0
   -4.4020   15.4980    1.2660 N   0  0  0  0  0  0  0  0  0  0  0  0
  1  2  1  0
  2  3  2  0
  2  4  1  0
  4  5  1  0
  5  6  2  0
  5  7  1  0
  7  8  1  0
  6  9  1  0
  7 10  2  0
  9 11  1  0
  9 12  2  0
 10 12  1  0
  8 13  1  0
 12 14  1  0
 13 15  1  0
 13 16  1  0
 15 17  1  0
 16 18  1  0
 16 19  1  6
 17 20  1  0
 18 20  1  0
 18 21  1  6
 19 22  1  0
 21 22  1  0
 20 23  1  1
M  END
