mac-x0348-mac-x0565
     RDKit          3D

 27 30  0  0  0  0  0  0  0  0999 V2000
    0.9100   18.6360   -5.7570 C   0  0  0  0  0  0  0  0  0  0  0  0
    0.2580   17.4290   -5.3900 N   0  0  0  0  0  0  0  0  0  0  0  0
    0.8470   16.4180   -4.6820 C   0  0  0  0  0  0  0  0  0  0  0  0
   -1.0390   17.1130   -5.7060 C   0  0  0  0  0  0  0  0  0  0  0  0
   -0.0760   15.4270   -4.5510 C   0  0  0  0  0  0  0  0  0  0  0  0
   -1.2630   15.8550   -5.1940 C   0  0  0  0  0  0  0  0  0  0  0  0
   -2.0280   17.8070   -6.3960 C   0  0  0  0  0  0  0  0  0  0  0  0
   -0.0090   14.0910   -3.8990 C   0  0  1  0  0  0  0  0  0  0  0  0
   -2.5260   15.2470   -5.3840 C   0  0  0  0  0  0  0  0  0  0  0  0
   -3.2670   17.1790   -6.5730 C   0  0  0  0  0  0  0  0  0  0  0  0
    1.2110   13.6960   -3.0970 C   0  0  0  0  0  0  0  0  0  0  0  0
   -3.5160   15.9170   -6.0740 C   0  0  0  0  0  0  0  0  0  0  0  0
   -1.3620   13.9760   -3.1980 C   0  0  2  0  0  0  0  0  0  0  0  0
    0.8340   12.5490   -2.2130 C   0  0  0  0  0  0  0  0  0  0  0  0
   -2.3070   14.5760   -4.0860 O   0  0  0  0  0  0  0  0  0  0  0  0
   -1.4950   14.6030   -1.8930 O   0  0  0  0  0  0  0  0  0  0  0  0
    0.5660   12.6530   -1.0380 O   0  0  0  0  0  0  0  0  0  0  0  0
    0.7740   11.3490   -2.8210 O   0  0  0  0  0  0  0  0  0  0  0  0
   -2.8650   14.7360   -1.9350 C   0  0  0  0  0  0  0  0  0  0  0  0
   -3.3130   14.7220   -3.2320 C   0  0  0  0  0  0  0  0  0  0  0  0
   -3.7510   14.8600   -0.8880 C   0  0  0  0  0  0  0  0  0  0  0  0
   -4.6220   14.8360   -3.5870 C   0  0  0  0  0  0  0  0  0  0  0  0
   -5.1170   14.9680   -1.2230 C   0  0  0  0  0  0  0  0  0  0  0  0
   -5.5400   14.9620   -2.5640 C   0  0  0  0  0  0  0  0  0  0  0  0
   -6.1870   15.0830   -0.2180 C   0  0  0  0  0  0  0  0  0  0  0  0
   -5.7380   15.0560    1.0440 O   0  0  0  0  0  0  0  0  0  0  0  0
   -7.3760   15.1720   -0.4590 O   0  0  0  0  0  0  0  0  0  0  0  0
  1  2  1  0
  2  3  1  0
  2  4  1  0
  3  5  2  0
  4  6  2  0
  5  6  1  0
  4  7  1  0
  5  8  1  0
  6  9  1  0
  7 10  2  0
  8 11  1  1
  9 12  2  0
 10 12  1  0
  8 13  1  0
 11 14  1  0
 13 15  1  6
 13 16  1  0
 14 17  2  0
 14 18  1  0
 16 19  1  0
 15 20  1  0
 19 20  2  0
 19 21  1  0
 20 22  1  0
 21 23  2  0
 22 24  2  0
 23 24  1  0
 23 25  1  0
 25 26  1  0
 25 27  2  0
M  END
