mac-x0365-mac-x0371
     RDKit          3D

 22 23  0  0  0  0  0  0  0  0999 V2000
   -1.1160   15.0290   -1.6610 O   0  0  0  0  0  0  0  0  0  0  0  0
   -2.1820   14.7850   -2.4440 C   0  0  0  0  0  0  0  0  0  0  0  0
   -1.9420   14.5440   -3.6870 N   0  0  0  0  0  0  0  0  0  0  0  0
   -3.4090   14.8650   -1.6820 C   0  0  0  0  0  0  0  0  0  0  0  0
   -4.5680   14.9720   -2.4240 C   0  0  0  0  0  0  0  0  0  0  0  0
   -3.4470   14.8440   -0.2790 C   0  0  0  0  0  0  0  0  0  0  0  0
   -0.6070   14.6680   -3.9380 C   0  0  0  0  0  0  0  0  0  0  0  0
   -5.7730   15.0470   -1.7820 C   0  0  0  0  0  0  0  0  0  0  0  0
   -4.6830   14.9210    0.3700 C   0  0  0  0  0  0  0  0  0  0  0  0
    0.2880   13.5820   -4.0160 C   0  0  0  0  0  0  0  0  0  0  0  0
   -0.1820   15.9840   -4.0950 C   0  0  0  0  0  0  0  0  0  0  0  0
   -6.8840   15.1440   -2.5130 F   0  0  0  0  0  0  0  0  0  0  0  0
   -0.1800   12.1390   -3.8820 C   0  0  0  0  0  0  0  0  0  0  0  0
   -5.8460   15.0200   -0.3990 C   0  0  0  0  0  0  0  0  0  0  0  0
    1.1220   16.2750   -4.3050 C   0  0  0  0  0  0  0  0  0  0  0  0
    1.6200   13.9250   -4.2230 C   0  0  0  0  0  0  0  0  0  0  0  0
   -7.0820   15.0890    0.1650 O   0  0  0  0  0  0  0  0  0  0  0  0
    2.9090   12.8090   -4.3320 Cl  0  0  0  0  0  0  0  0  0  0  0  0
    0.0300   11.4080   -2.5740 C   0  0  0  0  0  0  0  0  0  0  0  0
    2.0010   15.2330   -4.3550 C   0  0  0  0  0  0  0  0  0  0  0  0
    0.1960   12.2040   -1.4940 O   0  0  0  0  0  0  0  0  0  0  0  0
    0.0470   10.1990   -2.4280 O   0  0  0  0  0  0  0  0  0  0  0  0
  1  2  1  0
  2  3  2  3
  2  4  1  0
  4  5  2  0
  4  6  1  0
  3  7  1  0
  5  8  1  0
  6  9  2  0
  7 10  2  0
  7 11  1  0
  8 12  1  0
 10 13  1  0
  8 14  2  0
  9 14  1  0
 11 15  2  0
 10 16  1  0
 14 17  1  0
 16 18  1  0
 13 19  1  0
 15 20  1  0
 16 20  2  0
 19 21  1  0
 19 22  2  0
M  END
