mac-x0301-diamond-x0969_0_A
     RDKit          3D

 20 23  0  0  0  0  0  0  0  0999 V2000
    0.7480   14.7210   -3.0930 O   0  0  0  0  0  0  0  0  0  0  0  0
   -0.5660   14.6160   -3.3420 C   0  0  0  0  0  0  0  0  0  0  0  0
   -0.9970   14.4460   -4.4740 O   0  0  0  0  0  0  0  0  0  0  0  0
   -1.4570   14.7100   -2.1570 C   0  0  0  0  0  0  0  0  0  0  0  0
   -1.0640   14.6910   -0.7550 C   0  0  0  0  0  0  0  0  0  0  0  0
   -2.7580   14.8200   -2.4530 C   0  0  0  0  0  0  0  0  0  0  0  0
   -1.9140   14.7670    0.2670 C   0  0  0  0  0  0  0  0  0  0  0  0
   -3.7530   14.8740   -1.4010 C   0  0  0  0  0  0  0  0  0  0  0  0
    0.2360   14.5930   -0.3530 O   0  0  0  0  0  0  0  0  0  0  0  0
   -3.3260   14.8380    0.0260 C   0  0  0  0  0  0  0  0  0  0  0  0
   -1.3280   14.7510    1.5180 O   0  0  0  0  0  0  0  0  0  0  0  0
    0.0260   14.5050    1.0870 C   0  0  0  0  0  0  0  0  0  0  0  0
   -5.0340   14.9140   -1.7460 C   0  0  0  0  0  0  0  0  0  0  0  0
   -6.0140   14.8870   -0.7470 C   0  0  0  0  0  0  0  0  0  0  0  0
   -4.2640   14.8470    0.9710 C   0  0  0  0  0  0  0  0  0  0  0  0
   -7.3180   14.8760   -0.8200 N   0  0  0  0  0  0  0  0  0  0  0  0
   -5.6040   14.8490    0.5750 N   0  0  0  0  0  0  0  0  0  0  0  0
   -6.7890   14.8020    1.2950 C   0  0  0  0  0  0  0  0  0  0  0  0
   -7.8050   14.8180    0.4620 N   0  0  0  0  0  0  0  0  0  0  0  0
   -6.8660   14.7560    2.6360 N   0  0  0  0  0  0  0  0  0  0  0  0
  1  2  1  0
  2  3  2  0
  2  4  1  0
  4  5  1  0
  4  6  2  0
  5  7  2  0
  6  8  1  0
  5  9  1  0
  7 10  1  0
  8 10  1  0
  7 11  1  0
  9 12  1  0
 11 12  1  0
  8 13  2  0
 13 14  1  0
 10 15  2  0
 14 16  2  0
 14 17  1  0
 15 17  1  0
 17 18  1  0
 16 19  1  0
 18 19  2  0
 18 20  1  0
M  END
