mac-x0305-diamond-x0855_0_A
     RDKit          3D

 21 22  0  0  0  0  0  0  0  0999 V2000
    0.3320   13.2560   -0.2610 O   0  0  0  0  0  0  0  0  0  0  0  0
   -0.2300   14.1230   -1.1680 C   0  0  0  0  0  0  0  0  0  0  0  0
    0.3790   14.4990   -2.2460 N   0  0  0  0  0  0  0  0  0  0  0  0
   -1.6000   14.5740   -0.7430 C   0  0  0  0  0  0  0  0  0  0  0  0
    1.7380   14.0070   -2.4570 C   0  0  0  0  0  0  0  0  0  0  0  0
   -1.9870   14.7920    0.5910 C   0  0  0  0  0  0  0  0  0  0  0  0
   -2.4550   14.7710   -1.8110 N   0  0  0  0  0  0  0  0  0  0  0  0
   -1.1510   14.6040    1.6630 O   0  0  0  0  0  0  0  0  0  0  0  0
    1.8800   12.5890   -2.5620 O   0  0  0  0  0  0  0  0  0  0  0  0
   -3.2940   15.2290    0.8260 C   0  0  0  0  0  0  0  0  0  0  0  0
   -3.7100   15.1980   -1.5290 C   0  0  0  0  0  0  0  0  0  0  0  0
    0.9300   11.9010   -3.2350 C   0  0  0  0  0  0  0  0  0  0  0  0
   -4.1630   15.4370   -0.2460 C   0  0  0  0  0  0  0  0  0  0  0  0
    0.3960   10.8820   -2.8050 O   0  0  0  0  0  0  0  0  0  0  0  0
    0.5850   12.4760   -4.5810 C   0  0  0  0  0  0  0  0  0  0  0  0
   -0.4600   11.6580   -5.1580 N   0  0  0  0  0  0  0  0  0  0  0  0
   -0.3280   10.7210   -6.1410 C   0  0  0  0  0  0  0  0  0  0  0  0
   -1.7250   11.7850   -4.7030 N   0  0  0  0  0  0  0  0  0  0  0  0
   -1.5800   10.2080   -6.3160 C   0  0  0  0  0  0  0  0  0  0  0  0
   -2.4090   10.8890   -5.4200 C   0  0  0  0  0  0  0  0  0  0  0  0
   -2.1210    8.8690   -7.4920 Br  0  0  0  0  0  0  0  0  0  0  0  0
  1  2  1  0
  2  3  2  3
  2  4  1  0
  3  5  1  0
  4  6  2  0
  4  7  1  0
  6  8  1  0
  5  9  1  0
  6 10  1  0
  7 11  2  0
  9 12  1  0
 10 13  2  0
 11 13  1  0
 12 14  2  0
 12 15  1  0
 15 16  1  0
 16 17  1  0
 16 18  1  0
 17 19  2  0
 18 20  2  0
 19 20  1  0
 19 21  1  0
M  END
