mac-x0527-diamond-x0626_0_A
     RDKit          3D

 21 22  0  0  0  0  0  0  0  0999 V2000
   -3.4230   15.2780   -3.6010 O   0  0  0  0  0  0  0  0  0  0  0  0
   -2.7520   14.9820   -2.6150 C   0  0  0  0  0  0  0  0  0  0  0  0
   -1.4360   14.6150   -2.6820 N   0  0  0  0  0  0  0  0  0  0  0  0
   -3.3390   15.0050   -1.2390 C   0  0  0  0  0  0  0  0  0  0  0  0
   -0.7460   14.6550   -3.9440 C   0  0  0  0  0  0  0  0  0  0  0  0
   -4.6550   15.2890   -1.2100 C   0  0  0  0  0  0  0  0  0  0  0  0
   -2.6140   14.7540   -0.0160 N   0  0  0  0  0  0  0  0  0  0  0  0
   -1.1410   14.6220    0.0950 C   0  0  0  0  0  0  0  0  0  0  0  0
   -0.7840   13.3060   -4.6140 C   0  0  0  0  0  0  0  0  0  0  0  0
   -5.3570   15.3440   -0.0300 N   0  0  0  0  0  0  0  0  0  0  0  0
   -3.3260   14.9870    1.1590 C   0  0  0  0  0  0  0  0  0  0  0  0
   -1.7590   12.3520   -4.2740 C   0  0  0  0  0  0  0  0  0  0  0  0
    0.1660   12.9870   -5.5950 C   0  0  0  0  0  0  0  0  0  0  0  0
   -4.6270   15.2730    1.1500 C   0  0  0  0  0  0  0  0  0  0  0  0
   -6.5970   14.8730   -0.0050 N   0  0  0  0  0  0  0  0  0  0  0  0
   -1.7760   11.1060   -4.9030 C   0  0  0  0  0  0  0  0  0  0  0  0
    0.1460   11.7430   -6.2210 C   0  0  0  0  0  0  0  0  0  0  0  0
   -6.8800   14.3870    1.1500 C   0  0  0  0  0  0  0  0  0  0  0  0
   -0.8260   10.8030   -5.8740 C   0  0  0  0  0  0  0  0  0  0  0  0
   -8.1700   13.7990    1.5810 C   0  0  0  0  0  0  0  0  0  0  0  0
   -9.2690   14.5610    0.8790 C   0  0  0  0  0  0  0  0  0  0  0  0
  1  2  2  0
  2  3  1  0
  2  4  1  0
  3  5  1  0
  4  6  2  0
  4  7  1  0
  7  8  1  0
  5  9  1  0
  6 10  1  0
  7 11  1  0
  9 12  2  0
  9 13  1  0
 10 14  1  0
 11 14  2  0
 10 15  1  0
 12 16  1  0
 13 17  2  0
 15 18  2  3
 16 19  2  0
 17 19  1  0
 18 20  1  0
 20 21  1  0
M  END
