mac-x0398-mac-x0496
     RDKit          3D

 19 20  0  0  0  0  0  0  0  0999 V2000
   -6.5770   14.8080    2.0530 N   0  0  0  0  0  0  0  0  0  0  0  0
   -8.0070   14.3760    1.9780 C   0  0  0  0  0  0  0  0  0  0  0  0
   -8.9870   15.3620    2.5550 C   0  0  0  0  0  0  0  0  0  0  0  0
   -5.7350   14.8800    0.9060 C   0  0  0  0  0  0  0  0  0  0  0  0
   -6.2960   14.9970   -0.3760 C   0  0  0  0  0  0  0  0  0  0  0  0
   -4.3300   14.8480    0.9820 C   0  0  0  0  0  0  0  0  0  0  0  0
   -5.5250   15.0730   -1.5240 C   0  0  0  0  0  0  0  0  0  0  0  0
   -3.5410   14.9240   -0.1780 C   0  0  0  0  0  0  0  0  0  0  0  0
  -10.2200   15.5250    1.9720 O   0  0  0  0  0  0  0  0  0  0  0  0
   -8.8110   16.1340    3.5950 N   0  0  0  0  0  0  0  0  0  0  0  0
   -7.6570   15.0380   -0.5300 O   0  0  0  0  0  0  0  0  0  0  0  0
   -6.2160   15.1830   -2.7010 O   0  0  0  0  0  0  0  0  0  0  0  0
   -4.1410   15.0340   -1.4430 C   0  0  0  0  0  0  0  0  0  0  0  0
   -9.9820   16.8230    3.6730 C   0  0  0  0  0  0  0  0  0  0  0  0
  -10.8820   16.5030    2.7330 N   0  0  0  0  0  0  0  0  0  0  0  0
   -3.2840   15.1000   -2.6490 C   0  0  0  0  0  0  0  0  0  0  0  0
  -10.2150   17.8350    4.7170 C   0  0  0  0  0  0  0  0  0  0  0  0
   -3.6830   15.1900   -3.7950 O   0  0  0  0  0  0  0  0  0  0  0  0
   -1.9660   15.0280   -2.3850 O   0  0  0  0  0  0  0  0  0  0  0  0
  1  2  1  0
  2  3  1  0
  1  4  1  0
  4  5  2  0
  4  6  1  0
  5  7  1  0
  6  8  2  0
  3  9  1  0
  3 10  2  0
  5 11  1  0
  7 12  1  0
  7 13  2  0
  8 13  1  0
 10 14  1  0
  9 15  1  0
 14 15  2  0
 13 16  1  0
 14 17  1  0
 16 18  2  0
 16 19  1  0
M  END
