mac-x0302-mac-x0361
     RDKit          3D

 16 16  0  0  0  0  0  0  0  0999 V2000
    1.6980   14.3290   -3.7550 O   0  0  0  0  0  0  0  0  0  0  0  0
    0.6410   14.1390   -2.9510 C   0  0  0  0  0  0  0  0  0  0  0  0
    0.7760   13.6040   -1.8630 O   0  0  0  0  0  0  0  0  0  0  0  0
   -0.6530   14.6450   -3.5560 C   0  0  0  0  0  0  0  0  0  0  0  0
   -1.7070   14.4700   -2.5760 N   0  0  0  0  0  0  0  0  0  0  0  0
   -2.9610   15.0070   -2.6170 C   0  0  0  0  0  0  0  0  0  0  0  0
   -3.4330   15.4740   -3.6440 O   0  0  0  0  0  0  0  0  0  0  0  0
   -3.7260   15.0060   -1.3710 C   0  0  0  0  0  0  0  0  0  0  0  0
   -5.1110   14.9690   -1.3650 C   0  0  0  0  0  0  0  0  0  0  0  0
   -2.9920   15.0400   -0.1800 C   0  0  0  0  0  0  0  0  0  0  0  0
   -5.7500   14.9650   -0.1430 C   0  0  0  0  0  0  0  0  0  0  0  0
   -3.6450   15.0400    1.0350 C   0  0  0  0  0  0  0  0  0  0  0  0
   -7.1120   14.9200   -0.0190 N   0  0  0  0  0  0  0  0  0  0  0  0
   -5.0180   15.0030    1.0480 C   0  0  0  0  0  0  0  0  0  0  0  0
   -7.3020   14.6180    1.2040 C   0  0  0  0  0  0  0  0  0  0  0  0
   -8.4930   14.4960    1.7770 N   0  0  0  0  0  0  0  0  0  0  0  0
  1  2  1  0
  2  3  2  0
  2  4  1  0
  4  5  1  0
  5  6  1  0
  6  7  2  0
  6  8  1  0
  8  9  2  0
  8 10  1  0
  9 11  1  0
 10 12  2  0
 11 13  1  0
 11 14  2  0
 12 14  1  0
 13 15  2  3
 15 16  1  0
M  END
