mac-x0139-mac-x0124
     RDKit          3D

 20 22  0  0  0  0  0  0  0  0999 V2000
   -1.2700   14.9790   -3.9990 C   0  0  0  0  0  0  0  0  0  0  0  0
   -0.9830   14.6430   -2.5950 N   0  0  0  0  0  0  0  0  0  0  0  0
    0.4540   14.5270   -2.4400 C   0  0  0  0  0  0  0  0  0  0  0  0
   -1.6730   15.4390   -1.5590 C   0  0  1  0  0  0  0  0  0  0  0  0
    0.6300   13.1530   -1.8670 C   0  0  0  0  0  0  0  0  0  0  0  0
   -2.9910   14.8040   -0.8690 C   0  0  1  0  0  0  0  0  0  0  0  0
   -0.7120   15.9610   -0.5890 N   0  0  0  0  0  0  0  0  0  0  0  0
   -2.5510   16.2160   -2.4090 N   0  0  0  0  0  0  0  0  0  0  0  0
    1.3930   12.2740   -2.7630 C   0  0  0  0  0  0  0  0  0  0  0  0
   -2.6250   13.9540    0.3880 C   0  0  1  0  0  0  0  0  0  0  0  0
   -0.4400   14.9910    0.4680 C   0  0  0  0  0  0  0  0  0  0  0  0
   -4.1760   15.5820   -0.3530 C   0  0  0  0  0  0  0  0  0  0  0  0
   -3.3060   15.2260   -3.0230 C   0  0  0  0  0  0  0  0  0  0  0  0
   -3.5970   14.2700   -2.1280 C   0  0  0  0  0  0  0  0  0  0  0  0
    2.5640   12.3850   -3.0060 O   0  0  0  0  0  0  0  0  0  0  0  0
    0.6460   11.2880   -3.2930 O   0  0  0  0  0  0  0  0  0  0  0  0
   -1.7050   14.7430    1.1790 N   0  0  0  0  0  0  0  0  0  0  0  0
   -3.9680   13.8290    1.0130 N   0  0  0  0  0  0  0  0  0  0  0  0
   -4.6750   14.9660    0.7110 C   0  0  0  0  0  0  0  0  0  0  0  0
   -2.5140   15.9330    1.1760 N   0  0  0  0  0  0  0  0  0  0  0  0
  1  2  1  0
  2  3  1  0
  4  2  1  6
  3  5  1  0
  4  6  1  0
  4  7  1  0
  4  8  1  0
  5  9  1  0
  6 10  1  0
  7 11  1  0
  6 12  1  1
  8 13  1  0
  6 14  1  0
 13 14  2  0
  9 15  2  0
  9 16  1  0
 10 17  1  0
 11 17  1  0
 10 18  1  1
 12 19  2  0
 18 19  1  0
 17 20  1  0
M  END
