mac-x1493-diamond-x0900_0_A
     RDKit          3D

 14 15  0  0  0  0  0  0  0  0999 V2000
   -1.2530   14.7130   -1.6840 O   0  0  0  0  0  0  0  0  0  0  0  0
   -2.3630   14.9240   -2.4230 C   0  0  0  0  0  0  0  0  0  0  0  0
   -2.3390   15.1390   -3.6200 O   0  0  0  0  0  0  0  0  0  0  0  0
   -3.6200   14.8650   -1.6430 C   0  0  0  0  0  0  0  0  0  0  0  0
   -3.6410   14.9970   -0.2540 C   0  0  0  0  0  0  0  0  0  0  0  0
   -4.8120   14.6640   -2.3320 C   0  0  0  0  0  0  0  0  0  0  0  0
   -4.8590   14.9120    0.4340 C   0  0  0  0  0  0  0  0  0  0  0  0
   -6.0190   14.5810   -1.6610 N   0  0  0  0  0  0  0  0  0  0  0  0
   -7.1000   14.3960   -2.2820 O   0  0  0  0  0  0  0  0  0  0  0  0
   -6.0530   14.6970   -0.2770 C   0  0  0  0  0  0  0  0  0  0  0  0
   -4.9250   15.0310    1.8170 C   0  0  0  0  0  0  0  0  0  0  0  0
   -7.2820   14.5990    0.4060 C   0  0  0  0  0  0  0  0  0  0  0  0
   -6.1540   14.9310    2.4850 C   0  0  0  0  0  0  0  0  0  0  0  0
   -7.3300   14.7130    1.7860 C   0  0  0  0  0  0  0  0  0  0  0  0
  1  2  1  0
  2  3  2  0
  2  4  1  0
  4  5  2  0
  4  6  1  0
  5  7  1  0
  6  8  2  0
  8  9  1  0
  7 10  2  0
  8 10  1  0
  7 11  1  0
 10 12  1  0
 11 13  2  0
 12 14  2  0
 13 14  1  0
M  CHG  2   8   1   9  -1
M  END
