mac-x0190-mac-x0379
     RDKit          3D

 15 16  0  0  0  0  0  0  0  0999 V2000
   -9.1590   14.8180    1.9840 O   0  0  0  0  0  0  0  0  0  0  0  0
   -9.0220   14.2270    0.6840 C   0  0  0  0  0  0  0  0  0  0  0  0
   -7.6180   14.4320    0.2280 C   0  0  0  0  0  0  0  0  0  0  0  0
   -7.1890   14.2690   -1.0810 N   0  0  0  0  0  0  0  0  0  0  0  0
   -6.6250   14.7870    0.9800 N   0  0  0  0  0  0  0  0  0  0  0  0
   -5.8290   14.5350   -1.1470 C   0  0  0  0  0  0  0  0  0  0  0  0
   -5.5390   14.8570    0.1470 C   0  0  0  0  0  0  0  0  0  0  0  0
   -4.8350   14.5330   -2.1770 C   0  0  0  0  0  0  0  0  0  0  0  0
   -4.2680   15.1990    0.4850 C   0  0  0  0  0  0  0  0  0  0  0  0
   -4.0390   15.5700    1.8600 C   0  0  0  0  0  0  0  0  0  0  0  0
   -3.4910   14.8720   -1.7980 C   0  0  0  0  0  0  0  0  0  0  0  0
   -3.2440   15.1950   -0.4680 C   0  0  0  0  0  0  0  0  0  0  0  0
   -2.2900   14.9030   -2.7500 C   0  0  0  0  0  0  0  0  0  0  0  0
   -2.3590   14.8830   -3.9710 O   0  0  0  0  0  0  0  0  0  0  0  0
   -1.0820   14.9600   -2.1180 O   0  0  0  0  0  0  0  0  0  0  0  0
  1  2  1  0
  2  3  1  0
  3  4  1  0
  3  5  2  0
  4  6  1  0
  5  7  1  0
  6  7  2  0
  6  8  1  0
  7  9  1  0
  9 10  1  0
  8 11  2  0
  9 12  2  0
 11 12  1  0
 11 13  1  0
 13 14  2  0
 13 15  1  0
M  END
