mac-x0555-mac-x0148
     RDKit          3D

 25 29  0  0  0  0  0  0  0  0999 V2000
   -7.7020   13.8680    2.7570 N   0  0  0  0  0  0  0  0  0  0  0  0
   -7.0740   14.2110    1.5610 C   0  0  0  0  0  0  0  0  0  0  0  0
   -7.7080   14.8270    0.4850 C   0  0  0  0  0  0  0  0  0  0  0  0
   -5.7300   13.9300    1.4130 C   0  0  0  0  0  0  0  0  0  0  0  0
   -5.0650   14.2660    0.2540 C   0  0  0  0  0  0  0  0  0  0  0  0
   -7.0900   15.1820   -0.6710 N   0  0  0  0  0  0  0  0  0  0  0  0
   -5.7700   14.9010   -0.7530 C   0  0  0  0  0  0  0  0  0  0  0  0
   -3.6100   13.9370    0.1170 C   0  0  0  0  0  0  0  0  0  0  0  0
   -5.0690   15.3020   -1.9590 C   0  0  0  0  0  0  0  0  0  0  0  0
   -2.7980   14.8430   -0.8210 C   0  0  1  0  0  0  0  0  0  0  0  0
   -3.7140   15.2980   -2.0010 C   0  0  0  0  0  0  0  0  0  0  0  0
   -2.3180   15.9440    0.1010 C   0  0  0  0  0  0  0  0  0  0  0  0
   -1.4190   14.1730   -1.2540 C   0  0  1  0  0  0  0  0  0  0  0  0
   -1.1970   13.7470   -2.6420 N   0  0  0  0  0  0  0  0  0  0  0  0
   -0.2190   14.8480   -0.7450 N   0  0  0  0  0  0  0  0  0  0  0  0
   -1.4280   15.4610    1.1670 N   0  0  0  0  0  0  0  0  0  0  0  0
   -1.1980   14.6340   -3.8240 C   0  0  2  0  0  0  0  0  0  0  0  0
   -0.1240   12.7500   -2.6640 C   0  0  0  0  0  0  0  0  0  0  0  0
   -0.2190   14.8350    0.6980 C   0  0  0  0  0  0  0  0  0  0  0  0
   -2.5100   15.3500   -4.2250 C   0  0  0  0  0  0  0  0  0  0  0  0
   -0.9360   13.8320   -5.1350 C   0  0  2  0  0  0  0  0  0  0  0  0
   -0.2940   11.7890   -3.8210 C   0  0  0  0  0  0  0  0  0  0  0  0
   -2.3300   13.5760   -5.6610 C   0  0  0  0  0  0  0  0  0  0  0  0
   -3.0170   14.8040   -5.4540 O   0  0  0  0  0  0  0  0  0  0  0  0
   -0.0750   12.5550   -5.1000 C   0  0  0  0  0  0  0  0  0  0  0  0
  1  2  1  0
  2  3  2  0
  2  4  1  0
  4  5  2  0
  3  6  1  0
  5  7  1  0
  6  7  2  0
  5  8  1  0
  7  9  1  0
 10  8  1  1
  9 11  2  0
 10 11  1  0
 10 12  1  0
 10 13  1  0
 13 14  1  6
 13 15  1  0
 12 16  1  0
 14 17  1  0
 14 18  1  0
 15 19  1  0
 16 19  1  0
 17 20  1  6
 17 21  1  0
 18 22  1  0
 21 23  1  1
 20 24  1  0
 23 24  1  0
 21 25  1  0
 22 25  1  0
M  END
