mac-x0455-diamond-x0844_0_A
     RDKit          3D

 19 20  0  0  0  0  0  0  0  0999 V2000
   -2.8250   14.7220   -2.7420 C   0  0  0  0  0  0  0  0  0  0  0  0
   -1.3620   14.2500   -3.1830 C   0  0  1  0  0  0  0  0  0  0  0  0
   -0.9430   15.3730   -4.0260 O   0  0  0  0  0  0  0  0  0  0  0  0
   -3.6770   14.4700   -1.4210 C   0  0  1  0  0  0  0  0  0  0  0  0
   -0.2300   14.2820   -2.1210 C   0  0  0  0  0  0  0  0  0  0  0  0
   -1.2660   13.0510   -4.1490 C   0  0  0  0  0  0  0  0  0  0  0  0
   -3.1290   14.9090   -0.0790 C   0  0  0  0  0  0  0  0  0  0  0  0
   -5.1380   14.9730   -1.5560 C   0  0  0  0  0  0  0  0  0  0  0  0
    0.3270   15.2250   -1.5960 O   0  0  0  0  0  0  0  0  0  0  0  0
    0.1760   13.0270   -1.7890 O   0  0  0  0  0  0  0  0  0  0  0  0
   -2.2400   12.0410   -4.2320 C   0  0  0  0  0  0  0  0  0  0  0  0
   -0.1480   12.9280   -5.0160 C   0  0  0  0  0  0  0  0  0  0  0  0
   -3.9420   15.0590    0.9850 C   0  0  0  0  0  0  0  0  0  0  0  0
   -5.9810   14.8680   -0.2870 C   0  0  0  0  0  0  0  0  0  0  0  0
   -7.2160   14.8360   -0.2990 O   0  0  0  0  0  0  0  0  0  0  0  0
   -2.1040   10.9680   -5.1260 C   0  0  0  0  0  0  0  0  0  0  0  0
   -0.0120   11.8570   -5.9100 C   0  0  0  0  0  0  0  0  0  0  0  0
   -5.2810   14.8210    0.8880 N   0  0  0  0  0  0  0  0  0  0  0  0
   -0.9960   10.8730   -5.9620 C   0  0  0  0  0  0  0  0  0  0  0  0
  1  2  1  0
  2  3  1  6
  4  1  1  6
  2  5  1  0
  2  6  1  0
  4  7  1  0
  4  8  1  0
  5  9  2  0
  5 10  1  0
  6 11  2  0
  6 12  1  0
  7 13  2  0
  8 14  1  0
 14 15  2  0
 11 16  1  0
 12 17  2  0
 13 18  1  0
 14 18  1  0
 16 19  2  0
 17 19  1  0
M  END
