mac-x0159-mac-x0180
     RDKit          3D

 22 24  0  0  0  0  0  0  0  0999 V2000
   -4.7710   14.7790    0.8170 N   0  0  0  0  0  0  0  0  0  0  0  0
   -6.1140   14.7070    0.4260 C   0  0  0  0  0  0  0  0  0  0  0  0
   -7.0970   14.4450    1.5430 C   0  0  0  0  0  0  0  0  0  0  0  0
   -3.7130   15.3390   -0.0340 C   0  0  2  0  0  0  0  0  0  0  0  0
   -6.5250   14.8420   -0.7280 O   0  0  0  0  0  0  0  0  0  0  0  0
   -3.8630   14.5810   -1.2460 N   0  0  0  0  0  0  0  0  0  0  0  0
   -2.2460   15.4380    0.4430 C   0  0  2  0  0  0  0  0  0  0  0  0
   -3.1070   15.1210   -2.3630 C   0  0  0  0  0  0  0  0  0  0  0  0
   -1.2420   15.4310   -0.7340 C   0  0  2  0  0  0  0  0  0  0  0  0
   -1.7280   14.3650    1.3080 N   0  0  0  0  0  0  0  0  0  0  0  0
   -1.7000   15.4540   -2.1240 N   0  0  0  0  0  0  0  0  0  0  0  0
   -0.2890   14.3700   -0.4230 N   0  0  0  0  0  0  0  0  0  0  0  0
   -0.3160   14.3090    1.0220 C   0  0  0  0  0  0  0  0  0  0  0  0
   -0.7680   15.0380   -3.1530 C   0  0  0  0  0  0  0  0  0  0  0  0
   -1.3370   14.0890   -4.0260 O   0  0  0  0  0  0  0  0  0  0  0  0
    0.3560   14.4110   -2.5850 O   0  0  0  0  0  0  0  0  0  0  0  0
   -0.3580   16.2010   -4.0530 C   0  0  0  0  0  0  0  0  0  0  0  0
    0.9270   16.6660   -4.2480 C   0  0  0  0  0  0  0  0  0  0  0  0
   -1.3330   16.8910   -4.7760 N   0  0  0  0  0  0  0  0  0  0  0  0
   -0.7740   17.8460   -5.4830 C   0  0  0  0  0  0  0  0  0  0  0  0
    0.9240   17.9820   -5.3380 S   0  0  0  0  0  0  0  0  0  0  0  0
   -1.5090   18.7800   -6.3730 C   0  0  0  0  0  0  0  0  0  0  0  0
  1  2  1  0
  2  3  1  0
  4  1  1  1
  2  5  2  0
  4  6  1  0
  4  7  1  0
  6  8  1  0
  7  9  1  0
  7 10  1  1
  8 11  1  0
  9 11  1  0
  9 12  1  6
 10 13  1  0
 12 13  1  0
 11 14  1  0
 14 15  1  0
 14 16  1  0
 14 17  1  0
 17 18  2  0
 17 19  1  0
 19 20  2  0
 18 21  1  0
 20 21  1  0
 20 22  1  0
M  END
