mac-x0282-diamond-x0471_0_A
     RDKit          3D

 20 22  0  0  0  0  0  0  0  0999 V2000
   -8.0940   14.2540    2.9710 N   0  0  0  0  0  0  0  0  0  0  0  0
   -8.9340   15.1390    3.6280 C   0  0  0  0  0  0  0  0  0  0  0  0
   -9.4740   16.0870    3.0670 O   0  0  0  0  0  0  0  0  0  0  0  0
   -8.2650   13.9690    1.5380 C   0  0  0  0  0  0  0  0  0  0  0  0
   -9.1830   14.8510    5.1150 C   0  0  0  0  0  0  0  0  0  0  0  0
   -7.1810   14.6010    0.5890 C   0  0  2  0  0  0  0  0  0  0  0  0
   -9.4920   13.3790    5.3820 C   0  0  0  0  0  0  0  0  0  0  0  0
   -8.0170   15.3360    5.9690 C   0  0  0  0  0  0  0  0  0  0  0  0
   -6.7090   13.6820   -0.4360 N   0  0  0  0  0  0  0  0  0  0  0  0
   -5.9750   15.0580    1.2700 N   0  0  0  0  0  0  0  0  0  0  0  0
   -4.7830   14.5240    0.6480 C   0  0  1  0  0  0  0  0  0  0  0  0
   -5.3960   13.2320    0.1110 C   0  0  0  0  0  0  0  0  0  0  0  0
   -4.1440   15.3150   -0.5520 C   0  0  0  0  0  0  0  0  0  0  0  0
   -3.7370   14.3360    1.6480 N   0  0  0  0  0  0  0  0  0  0  0  0
   -2.6830   15.2310   -0.2210 C   0  0  0  0  0  0  0  0  0  0  0  0
   -2.5280   14.6920    1.0470 C   0  0  0  0  0  0  0  0  0  0  0  0
   -1.5640   15.5920   -0.9490 C   0  0  0  0  0  0  0  0  0  0  0  0
   -1.3760   14.5050    1.6560 N   0  0  0  0  0  0  0  0  0  0  0  0
   -0.3310   15.3930   -0.3390 C   0  0  0  0  0  0  0  0  0  0  0  0
   -0.2980   14.8630    0.9460 C   0  0  0  0  0  0  0  0  0  0  0  0
  1  2  1  0
  2  3  2  0
  1  4  1  0
  2  5  1  0
  6  4  1  1
  5  7  1  0
  5  8  1  0
  6  9  1  0
  6 10  1  0
 11 10  1  0
  9 12  1  0
 11 12  1  6
 11 13  1  0
 11 14  1  0
 13 15  1  0
 14 16  1  0
 15 16  2  0
 15 17  1  0
 16 18  1  0
 17 19  2  0
 18 20  2  0
 19 20  1  0
M  END
