mac-x0319-mac-x0567
     RDKit          3D

 22 24  0  0  0  0  0  0  0  0999 V2000
    0.7520   10.9890   -2.9380 O   0  0  0  0  0  0  0  0  0  0  0  0
    0.8760   12.2870   -3.3090 C   0  0  0  0  0  0  0  0  0  0  0  0
    0.5990   13.1930   -2.4760 N   0  0  0  0  0  0  0  0  0  0  0  0
    1.2870   12.6500   -4.6860 C   0  0  0  0  0  0  0  0  0  0  0  0
    0.1790   12.7720   -1.2290 C   0  0  0  0  0  0  0  0  0  0  0  0
    0.6050   13.9820   -4.7170 C   0  0  0  0  0  0  0  0  0  0  0  0
    0.1680   13.7420   -0.1460 N   0  0  0  0  0  0  0  0  0  0  0  0
    1.3150   15.1640   -4.4740 C   0  0  0  0  0  0  0  0  0  0  0  0
   -0.7720   14.0410   -4.9640 C   0  0  0  0  0  0  0  0  0  0  0  0
    0.6360   16.3780   -4.4830 C   0  0  0  0  0  0  0  0  0  0  0  0
   -1.4380   15.2640   -4.9700 C   0  0  0  0  0  0  0  0  0  0  0  0
   -1.0260   14.2060    0.3060 C   0  0  0  0  0  0  0  0  0  0  0  0
    1.2650   17.5620   -4.2460 O   0  0  0  0  0  0  0  0  0  0  0  0
   -0.7260   16.4340   -4.7300 C   0  0  0  0  0  0  0  0  0  0  0  0
   -1.3640   14.3320    1.6240 N   0  0  0  0  0  0  0  0  0  0  0  0
   -2.1400   14.6340   -0.3690 C   0  0  0  0  0  0  0  0  0  0  0  0
   -2.6130   14.8080    1.8320 N   0  0  0  0  0  0  0  0  0  0  0  0
   -3.1200   15.0090    0.6100 C   0  0  0  0  0  0  0  0  0  0  0  0
   -2.2820   14.6910   -1.7550 C   0  0  0  0  0  0  0  0  0  0  0  0
   -4.3780   15.4960    0.2160 C   0  0  0  0  0  0  0  0  0  0  0  0
   -3.5530   15.1840   -2.1220 C   0  0  0  0  0  0  0  0  0  0  0  0
   -4.5550   15.5690   -1.1830 C   0  0  0  0  0  0  0  0  0  0  0  0
  1  2  1  0
  2  3  2  3
  2  4  1  0
  3  5  1  0
  4  6  1  0
  5  7  1  0
  6  8  2  0
  6  9  1  0
  8 10  1  0
  9 11  2  0
  7 12  1  0
 10 13  1  0
 10 14  2  0
 11 14  1  0
 12 15  1  0
 12 16  2  0
 15 17  1  0
 16 18  1  0
 17 18  2  0
 16 19  1  0
 18 20  1  0
 19 21  2  0
 20 22  2  0
 21 22  1  0
M  END
