mac-x0305-diamond-x0950_0_A
     RDKit          3D

 15 15  0  0  0  0  0  0  0  0999 V2000
   -0.0120   12.6700   -1.3680 O   0  0  0  0  0  0  0  0  0  0  0  0
   -0.2200   14.0190   -1.5020 C   0  0  0  0  0  0  0  0  0  0  0  0
    0.5280   14.8360   -2.0160 O   0  0  0  0  0  0  0  0  0  0  0  0
    0.5060   11.8960   -2.4150 C   0  0  0  0  0  0  0  0  0  0  0  0
    1.0340   12.7520   -3.6220 C   0  0  1  0  0  0  0  0  0  0  0  0
    0.5480   10.6610   -2.4150 O   0  0  0  0  0  0  0  0  0  0  0  0
   -1.5620   14.4930   -0.9650 C   0  0  0  0  0  0  0  0  0  0  0  0
    2.5580   12.9060   -3.6360 C   0  0  0  0  0  0  0  0  0  0  0  0
    0.6920   12.2040   -4.9010 O   0  0  0  0  0  0  0  0  0  0  0  0
   -1.8450   14.7170    0.4180 C   0  0  0  0  0  0  0  0  0  0  0  0
   -2.5060   14.7120   -1.9390 N   0  0  0  0  0  0  0  0  0  0  0  0
   -1.0000   14.5480    1.4980 O   0  0  0  0  0  0  0  0  0  0  0  0
   -3.1240   15.1710    0.7530 C   0  0  0  0  0  0  0  0  0  0  0  0
   -3.7250   15.1540   -1.5560 C   0  0  0  0  0  0  0  0  0  0  0  0
   -4.0760   15.3960   -0.2400 C   0  0  0  0  0  0  0  0  0  0  0  0
  1  2  1  0
  2  3  2  0
  1  4  1  0
  4  5  1  0
  4  6  2  0
  2  7  1  0
  5  8  1  6
  5  9  1  0
  7 10  2  0
  7 11  1  0
 10 12  1  0
 10 13  1  0
 11 14  2  0
 13 15  2  0
 14 15  1  0
M  END
