mac-x0139-diamond-x0805_0_A
     RDKit          3D

 30 33  0  0  0  0  0  0  0  0999 V2000
   -1.5960   16.1050   -3.0320 C   0  0  0  0  0  0  0  0  0  0  0  0
   -0.6690   15.6170   -2.0100 N   0  0  0  0  0  0  0  0  0  0  0  0
    0.4900   14.8430   -2.4970 C   0  0  0  0  0  0  0  0  0  0  0  0
   -1.0660   15.3570   -0.7070 C   0  0  0  0  0  0  0  0  0  0  0  0
    0.5940   13.4320   -1.8850 C   0  0  0  0  0  0  0  0  0  0  0  0
   -2.3410   15.4770   -0.2870 C   0  0  0  0  0  0  0  0  0  0  0  0
   -0.0540   14.9310    0.1640 N   0  0  0  0  0  0  0  0  0  0  0  0
    0.9080   12.3510   -2.9090 C   0  0  0  0  0  0  0  0  0  0  0  0
   -2.6290   15.1680    1.1290 C   0  0  0  0  0  0  0  0  0  0  0  0
   -0.3670   14.6520    1.3770 C   0  0  0  0  0  0  0  0  0  0  0  0
   -3.6160   15.8300   -0.8000 C   0  0  0  0  0  0  0  0  0  0  0  0
    2.3160   12.2270   -2.9550 O   0  0  0  0  0  0  0  0  0  0  0  0
    0.4380   11.0860   -2.4660 O   0  0  0  0  0  0  0  0  0  0  0  0
   -1.6110   14.7440    1.9070 N   0  0  0  0  0  0  0  0  0  0  0  0
   -3.8750   15.3620    1.4320 N   0  0  0  0  0  0  0  0  0  0  0  0
   -4.4480   15.7500    0.2340 C   0  0  0  0  0  0  0  0  0  0  0  0
    0.4520   12.7120   -4.3520 C   0  0  2  0  0  0  0  0  0  0  0  0
    1.6550   13.1640   -5.1730 C   0  0  0  0  0  0  0  0  0  0  0  0
   -0.6280   13.8060   -4.5750 C   0  0  1  0  0  0  0  0  0  0  0  0
   -1.9560   13.6480   -3.8050 C   0  0  0  0  0  0  0  0  0  0  0  0
    2.2250   14.2890   -4.5380 O   0  0  0  0  0  0  0  0  0  0  0  0
   -0.0820   15.2630   -4.7280 C   0  0  0  0  0  0  0  0  0  0  0  0
   -3.1680   13.5090   -4.4810 C   0  0  0  0  0  0  0  0  0  0  0  0
   -2.0200   13.6390   -2.3870 C   0  0  0  0  0  0  0  0  0  0  0  0
    1.4390   15.4740   -4.6720 C   0  0  0  0  0  0  0  0  0  0  0  0
   -3.2370   13.5040   -1.6900 C   0  0  0  0  0  0  0  0  0  0  0  0
   -4.3750   13.3730   -3.7910 C   0  0  0  0  0  0  0  0  0  0  0  0
   -3.1480   13.5160   -0.3250 O   0  0  0  0  0  0  0  0  0  0  0  0
   -4.4110   13.3710   -2.4010 C   0  0  0  0  0  0  0  0  0  0  0  0
   -4.3370   13.2260    0.4130 C   0  0  0  0  0  0  0  0  0  0  0  0
  1  2  1  0
  2  3  1  0
  2  4  1  0
  3  5  1  0
  4  6  2  0
  4  7  1  0
  5  8  1  0
  6  9  1  0
  7 10  2  0
  6 11  1  0
  8 12  1  0
  8 13  1  0
  9 14  1  0
 10 14  1  0
  9 15  2  0
 11 16  2  0
 15 16  1  0
 17  8  1  1
 17 18  1  0
 17 19  1  0
 19 20  1  1
 18 21  1  0
 19 22  1  0
 20 23  2  0
 20 24  1  0
 21 25  1  0
 22 25  1  0
 24 26  2  0
 23 27  1  0
 26 28  1  0
 26 29  1  0
 27 29  2  0
 28 30  1  0
M  END
