mac-x0305-mac-x0415
     RDKit          3D

 23 25  0  0  0  0  0  0  0  0999 V2000
   -0.2030   12.7210   -1.4090 N   0  0  0  0  0  0  0  0  0  0  0  0
   -0.4060   14.0720   -1.4570 C   0  0  0  0  0  0  0  0  0  0  0  0
    0.4050   14.8560   -1.9360 O   0  0  0  0  0  0  0  0  0  0  0  0
    0.3150   12.1050   -2.4310 C   0  0  0  0  0  0  0  0  0  0  0  0
    0.4380   10.7600   -2.2810 O   0  0  0  0  0  0  0  0  0  0  0  0
    0.8220   12.5430   -3.8080 C   0  0  0  0  0  0  0  0  0  0  0  0
   -1.7190   14.5820   -0.9200 C   0  0  0  0  0  0  0  0  0  0  0  0
   -1.9780   14.8000    0.4610 C   0  0  0  0  0  0  0  0  0  0  0  0
   -2.6500   14.8220   -1.8900 N   0  0  0  0  0  0  0  0  0  0  0  0
    0.7530   13.9850   -4.1810 C   0  0  0  0  0  0  0  0  0  0  0  0
   -1.1120   14.5970    1.5190 O   0  0  0  0  0  0  0  0  0  0  0  0
   -3.2410   15.2780    0.8050 C   0  0  0  0  0  0  0  0  0  0  0  0
   -3.8500   15.2860   -1.5050 C   0  0  0  0  0  0  0  0  0  0  0  0
    1.7880   14.9900   -3.9000 C   0  0  0  0  0  0  0  0  0  0  0  0
   -0.1540   14.7570   -4.7970 C   0  0  0  0  0  0  0  0  0  0  0  0
   -4.1910   15.5270   -0.1850 C   0  0  0  0  0  0  0  0  0  0  0  0
    1.5850   16.2080   -4.2960 N   0  0  0  0  0  0  0  0  0  0  0  0
    0.3360   16.1480   -5.0050 C   0  0  2  0  0  0  0  0  0  0  0  0
   -1.4620   14.4650   -5.3040 C   0  0  0  0  0  0  0  0  0  0  0  0
   -0.6880   17.1920   -4.7870 C   0  0  0  0  0  0  0  0  0  0  0  0
   -2.3420   15.4900   -5.3990 C   0  0  0  0  0  0  0  0  0  0  0  0
   -4.0630   15.2050   -6.0520 Br  0  0  0  0  0  0  0  0  0  0  0  0
   -1.9680   16.8520   -4.9940 C   0  0  0  0  0  0  0  0  0  0  0  0
  1  2  1  0
  2  3  2  0
  1  4  2  3
  4  5  1  0
  4  6  1  0
  2  7  1  0
  7  8  2  0
  7  9  1  0
  6 10  1  0
  8 11  1  0
  8 12  1  0
  9 13  2  0
 10 14  1  0
 10 15  2  0
 12 16  2  0
 13 16  1  0
 14 17  2  0
 15 18  1  0
 17 18  1  0
 15 19  1  0
 18 20  1  1
 19 21  2  0
 21 22  1  0
 20 23  2  0
 21 23  1  0
M  END
