mac-x0283-mac-x0588
     RDKit          3D

 20 23  0  0  0  0  0  0  0  0999 V2000
   -6.5870   14.7220    2.2270 N   0  0  0  0  0  0  0  0  0  0  0  0
   -6.3460   14.7810    0.9060 C   0  0  0  0  0  0  0  0  0  0  0  0
   -7.3050   14.7290   -0.0180 N   0  0  0  0  0  0  0  0  0  0  0  0
   -5.0610   14.9140    0.3150 C   0  0  0  0  0  0  0  0  0  0  0  0
   -6.6540   14.8300   -1.2380 O   0  0  0  0  0  0  0  0  0  0  0  0
   -5.3200   14.9400   -1.0180 C   0  0  0  0  0  0  0  0  0  0  0  0
   -3.6760   15.0160    0.8470 C   0  0  0  0  0  0  0  0  0  0  0  0
   -4.3670   15.0610   -2.1480 C   0  0  0  0  0  0  0  0  0  0  0  0
   -2.4870   15.0680   -0.2370 C   0  0  1  0  0  0  0  0  0  0  0  0
   -2.9120   15.5180   -1.7090 C   0  0  1  0  0  0  0  0  0  0  0  0
   -1.4450   15.9280    0.4290 N   0  0  0  0  0  0  0  0  0  0  0  0
   -1.7110   13.7570   -0.3130 C   0  0  0  0  0  0  0  0  0  0  0  0
   -1.8540   15.3350   -2.8890 C   0  0  0  0  0  0  0  0  0  0  0  0
   -0.3140   14.1740   -0.3410 N   0  0  0  0  0  0  0  0  0  0  0  0
   -0.3040   15.0760    0.7580 C   0  0  0  0  0  0  0  0  0  0  0  0
   -0.9610   16.4550   -3.4970 C   0  0  2  0  0  0  0  0  0  0  0  0
   -1.6980   17.4810   -4.1970 O   0  0  0  0  0  0  0  0  0  0  0  0
    0.1890   16.0660   -4.4220 C   0  0  0  0  0  0  0  0  0  0  0  0
    0.4830   17.3700   -5.1250 C   0  0  0  0  0  0  0  0  0  0  0  0
   -0.8930   17.9820   -5.2790 C   0  0  0  0  0  0  0  0  0  0  0  0
  1  2  1  0
  2  3  2  0
  2  4  1  0
  3  5  1  0
  4  6  2  0
  5  6  1  0
  4  7  1  0
  6  8  1  0
  9  7  1  1
  8 10  1  0
  9 10  1  0
  9 11  1  0
  9 12  1  0
 10 13  1  6
 12 14  1  0
 11 15  1  0
 14 15  1  0
 16 13  1  6
 16 17  1  0
 16 18  1  0
 18 19  1  0
 17 20  1  0
 19 20  1  0
M  END
