mac-x0182-mac-x0282
     RDKit          3D

 23 26  0  0  0  0  0  0  0  0999 V2000
    1.7360   11.9110   -6.8460 O   0  0  0  0  0  0  0  0  0  0  0  0
    0.7420   11.6740   -6.2000 C   0  0  0  0  0  0  0  0  0  0  0  0
    0.3710   12.2990   -5.0370 N   0  0  0  0  0  0  0  0  0  0  0  0
   -0.2370   10.6230   -6.5650 C   0  0  0  0  0  0  0  0  0  0  0  0
   -0.6680   11.3260   -4.1440 S   0  0  2  0  0  0  0  0  0  0  0  0
   -1.0970   10.3230   -5.5110 C   0  0  0  0  0  0  0  0  0  0  0  0
   -0.3500    9.9660   -7.7820 C   0  0  0  0  0  0  0  0  0  0  0  0
   -1.8430   12.2340   -3.7270 N   0  0  0  0  0  0  0  0  0  0  0  0
    0.1630   10.5430   -3.2630 O   0  0  0  0  0  0  0  0  0  0  0  0
   -2.0950    9.3700   -5.6130 C   0  0  0  0  0  0  0  0  0  0  0  0
   -1.3530    8.9960   -7.9140 C   0  0  0  0  0  0  0  0  0  0  0  0
   -1.7490   13.7240   -3.5890 C   0  0  0  0  0  0  0  0  0  0  0  0
   -2.2170    8.7020   -6.8380 C   0  0  0  0  0  0  0  0  0  0  0  0
   -0.6490   14.2280   -2.6170 C   0  0  0  0  0  0  0  0  0  0  0  0
   -1.0480   14.3860   -1.1450 C   0  0  0  0  0  0  0  0  0  0  0  0
   -2.3240   14.7540   -0.6330 C   0  0  0  0  0  0  0  0  0  0  0  0
   -0.0570   14.1500   -0.1700 C   0  0  0  0  0  0  0  0  0  0  0  0
   -3.6020   15.0990   -1.1710 C   0  0  0  0  0  0  0  0  0  0  0  0
   -2.4720   14.8250    0.7570 C   0  0  0  0  0  0  0  0  0  0  0  0
   -0.3570   14.2630    1.1860 C   0  0  0  0  0  0  0  0  0  0  0  0
   -4.4530   15.3590   -0.1180 C   0  0  0  0  0  0  0  0  0  0  0  0
   -3.7530   15.1860    1.0430 N   0  0  0  0  0  0  0  0  0  0  0  0
   -1.5490   14.5870    1.6980 N   0  0  0  0  0  0  0  0  0  0  0  0
  1  2  2  0
  2  3  1  0
  2  4  1  0
  5  3  1  6
  4  6  2  0
  5  6  1  0
  4  7  1  0
  5  8  2  0
  5  9  2  0
  6 10  1  0
  7 11  2  0
  8 12  1  0
 10 13  2  0
 11 13  1  0
 12 14  1  0
 14 15  1  0
 15 16  1  0
 15 17  2  0
 16 18  1  0
 16 19  2  0
 17 20  1  0
 18 21  2  0
 19 22  1  0
 21 22  1  0
 19 23  1  0
 20 23  2  0
M  END
