mac-x0148-mac-x0373
     RDKit          3D

 21 24  0  0  0  0  0  0  0  0999 V2000
    1.5690   13.6330   -1.5600 O   0  0  0  0  0  0  0  0  0  0  0  0
    0.7260   14.3950   -2.3110 C   0  0  0  0  0  0  0  0  0  0  0  0
    1.0900   15.4310   -2.8200 O   0  0  0  0  0  0  0  0  0  0  0  0
   -0.6720   13.8010   -2.3930 C   0  0  1  0  0  0  0  0  0  0  0  0
   -1.6210   14.0840   -3.6110 C   0  0  1  0  0  0  0  0  0  0  0  0
   -0.3980   12.2650   -2.4570 C   0  0  0  0  0  0  0  0  0  0  0  0
   -1.1940   14.2500   -1.0270 C   0  0  0  0  0  0  0  0  0  0  0  0
   -2.3180   15.3730   -4.0010 C   0  0  0  0  0  0  0  0  0  0  0  0
   -1.0700   13.7320   -4.9840 C   0  0  2  0  0  0  0  0  0  0  0  0
   -0.7180   11.5900   -3.7990 C   0  0  0  0  0  0  0  0  0  0  0  0
   -0.2030   14.1860   -0.0480 N   0  0  0  0  0  0  0  0  0  0  0  0
   -2.3990   14.6810   -0.6210 C   0  0  0  0  0  0  0  0  0  0  0  0
   -2.3950   13.7780   -5.7130 C   0  0  0  0  0  0  0  0  0  0  0  0
   -2.9720   15.0230   -5.2560 O   0  0  0  0  0  0  0  0  0  0  0  0
   -0.2900   12.4390   -4.9960 C   0  0  0  0  0  0  0  0  0  0  0  0
   -0.4600   14.4480    1.2590 C   0  0  0  0  0  0  0  0  0  0  0  0
   -2.5660   15.0110    0.8230 C   0  0  0  0  0  0  0  0  0  0  0  0
   -3.7020   14.9580   -1.1440 C   0  0  0  0  0  0  0  0  0  0  0  0
   -1.5720   14.8480    1.7310 N   0  0  0  0  0  0  0  0  0  0  0  0
   -3.7480   15.4540    1.1070 N   0  0  0  0  0  0  0  0  0  0  0  0
   -4.4180   15.4070   -0.0990 C   0  0  0  0  0  0  0  0  0  0  0  0
  1  2  1  0
  2  3  2  0
  4  2  1  6
  4  5  1  0
  4  6  1  0
  4  7  1  0
  5  8  1  6
  5  9  1  0
  6 10  1  0
  7 11  1  0
  7 12  2  0
  9 13  1  6
  8 14  1  0
 13 14  1  0
  9 15  1  0
 10 15  1  0
 11 16  1  0
 12 17  1  0
 12 18  1  0
 16 19  2  0
 17 19  1  0
 17 20  2  0
 18 21  2  0
 20 21  1  0
M  END
