mac-x0303-diamond-x0962_2_B
     RDKit          3D

 19 21  0  0  0  0  0  0  0  0999 V2000
   -9.1450   13.0690    1.7290 N   0  0  0  0  0  0  0  0  0  0  0  0
   -8.0940   14.2450    2.1870 S   0  0  0  0  0  0  0  0  0  0  0  0
   -7.7320   14.8370    3.4920 O   0  0  0  0  0  0  0  0  0  0  0  0
   -9.0300   15.3980    1.9660 N   0  0  0  0  0  0  0  0  0  0  0  0
   -6.8930   14.5920    0.8810 C   0  0  0  0  0  0  0  0  0  0  0  0
  -10.0090   15.3690    0.9290 N   0  0  0  0  0  0  0  0  0  0  0  0
   -7.0940   14.8410   -0.4030 N   0  0  0  0  0  0  0  0  0  0  0  0
   -5.6250   14.6120    1.1520 N   0  0  0  0  0  0  0  0  0  0  0  0
   -9.8010   15.7250    3.1600 C   0  0  2  0  0  0  0  0  0  0  0  0
   -5.8880   15.0120   -0.9660 C   0  0  0  0  0  0  0  0  0  0  0  0
   -4.9760   14.8650    0.0230 C   0  0  0  0  0  0  0  0  0  0  0  0
   -9.0170   16.6340    3.9390 N   0  0  0  0  0  0  0  0  0  0  0  0
   -9.9220   14.5310    4.0470 C   0  0  0  0  0  0  0  0  0  0  0  0
   -5.4370   15.2760   -2.2180 C   0  0  0  0  0  0  0  0  0  0  0  0
   -3.6430   14.9720   -0.2060 C   0  0  0  0  0  0  0  0  0  0  0  0
   -8.3120   15.8910    4.9750 C   0  0  0  0  0  0  0  0  0  0  0  0
   -8.6980   14.5180    4.8650 N   0  0  0  0  0  0  0  0  0  0  0  0
   -4.0650   15.3870   -2.4840 C   0  0  0  0  0  0  0  0  0  0  0  0
   -3.1510   15.2310   -1.4640 C   0  0  0  0  0  0  0  0  0  0  0  0
  1  2  1  0
  2  3  2  0
  2  4  1  0
  2  5  1  0
  4  6  1  0
  5  7  1  0
  5  8  2  0
  9  4  1  6
  7 10  1  0
  8 11  1  0
 10 11  2  0
  9 12  1  0
  9 13  1  0
 10 14  1  0
 11 15  1  0
 12 16  1  0
 13 17  1  0
 16 17  1  0
 14 18  2  0
 15 19  2  0
 18 19  1  0
M  END
