mac-x0223-diamond-x0905_0_A
     RDKit          3D

 23 24  0  0  0  0  0  0  0  0999 V2000
    1.1350   18.4150   -5.5480 C   0  0  0  0  0  0  0  0  0  0  0  0
   -0.1150   18.0830   -4.9670 O   0  0  0  0  0  0  0  0  0  0  0  0
   -0.3150   16.7410   -4.8600 C   0  0  0  0  0  0  0  0  0  0  0  0
   -1.6050   16.2240   -5.0830 C   0  0  0  0  0  0  0  0  0  0  0  0
    0.7060   15.8280   -4.5430 C   0  0  0  0  0  0  0  0  0  0  0  0
   -2.6710   16.9730   -5.3990 O   0  0  0  0  0  0  0  0  0  0  0  0
   -1.8390   14.8700   -4.9910 C   0  0  0  0  0  0  0  0  0  0  0  0
    0.4270   14.4530   -4.4560 C   0  0  0  0  0  0  0  0  0  0  0  0
    1.4530   13.4190   -4.1170 C   0  0  0  0  0  0  0  0  0  0  0  0
   -3.6530   15.9790   -5.7300 C   0  0  0  0  0  0  0  0  0  0  0  0
   -0.8480   13.9940   -4.6830 C   0  0  0  0  0  0  0  0  0  0  0  0
    0.9230   12.5170   -3.0270 C   0  0  0  0  0  0  0  0  0  0  0  0
   -3.9600   15.1340   -4.4490 C   0  0  0  0  0  0  0  0  0  0  0  0
    0.3140   11.4630   -3.1200 O   0  0  0  0  0  0  0  0  0  0  0  0
    1.1940   13.0330   -1.8130 O   0  0  0  0  0  0  0  0  0  0  0  0
   -3.1490   15.5180   -3.1720 C   0  0  0  0  0  0  0  0  0  0  0  0
   -3.8480   15.3940   -1.8340 C   0  0  0  0  0  0  0  0  0  0  0  0
   -3.1480   15.4520   -0.6130 C   0  0  0  0  0  0  0  0  0  0  0  0
   -5.2280   15.2120   -1.7800 C   0  0  0  0  0  0  0  0  0  0  0  0
   -3.8580   15.3220    0.5770 C   0  0  0  0  0  0  0  0  0  0  0  0
   -5.8180   15.0980   -0.5450 C   0  0  0  0  0  0  0  0  0  0  0  0
   -7.1570   14.9170   -0.4450 O   0  0  0  0  0  0  0  0  0  0  0  0
   -5.1950   15.1420    0.6390 N   0  0  0  0  0  0  0  0  0  0  0  0
  1  2  1  0
  2  3  1  0
  3  4  2  0
  3  5  1  0
  4  6  1  0
  4  7  1  0
  5  8  2  0
  8  9  1  0
  6 10  1  0
  7 11  2  0
  8 11  1  0
  9 12  1  0
 10 13  1  0
 12 14  2  0
 12 15  1  0
 13 16  1  0
 16 17  1  0
 17 18  2  0
 17 19  1  0
 18 20  1  0
 19 21  2  0
 21 22  1  0
 20 23  2  0
 21 23  1  0
M  END
