mac-x0305-mac-x0204
     RDKit          3D

 18 19  0  0  0  0  0  0  0  0999 V2000
    0.3280   13.0750   -0.5510 O   0  0  0  0  0  0  0  0  0  0  0  0
   -0.2030   14.3000   -1.0950 C   0  0  1  0  0  0  0  0  0  0  0  0
    0.1010   14.3850   -2.5930 C   0  0  0  0  0  0  0  0  0  0  0  0
   -1.6270   14.6650   -0.7110 C   0  0  0  0  0  0  0  0  0  0  0  0
    1.2640   14.5460   -2.9570 O   0  0  0  0  0  0  0  0  0  0  0  0
   -2.0490   14.8180    0.6180 C   0  0  0  0  0  0  0  0  0  0  0  0
   -2.4850   14.8560   -1.7570 N   0  0  0  0  0  0  0  0  0  0  0  0
   -0.9490   14.2820   -3.6460 C   0  0  0  0  0  0  0  0  0  0  0  0
   -1.2430   14.6400    1.7160 O   0  0  0  0  0  0  0  0  0  0  0  0
   -3.3700   15.1810    0.8670 C   0  0  0  0  0  0  0  0  0  0  0  0
   -3.7600   15.2100   -1.4810 C   0  0  0  0  0  0  0  0  0  0  0  0
   -1.4230   15.3910   -4.3520 C   0  0  0  0  0  0  0  0  0  0  0  0
   -1.4900   13.0330   -3.9550 C   0  0  0  0  0  0  0  0  0  0  0  0
   -4.2420   15.3850   -0.2010 C   0  0  0  0  0  0  0  0  0  0  0  0
   -2.4060   15.2080   -5.3180 C   0  0  0  0  0  0  0  0  0  0  0  0
   -2.4500   12.8310   -4.8990 N   0  0  0  0  0  0  0  0  0  0  0  0
   -2.8610   16.3020   -5.9980 O   0  0  0  0  0  0  0  0  0  0  0  0
   -2.8860   13.9280   -5.5590 C   0  0  0  0  0  0  0  0  0  0  0  0
  2  1  1  6
  2  3  1  0
  2  4  1  0
  3  5  2  0
  4  6  2  0
  4  7  1  0
  3  8  1  0
  6  9  1  0
  6 10  1  0
  7 11  2  0
  8 12  2  0
  8 13  1  0
 10 14  2  0
 11 14  1  0
 12 15  1  0
 13 16  2  0
 15 17  1  0
 15 18  2  0
 16 18  1  0
M  END
