mac-x0433-mac-x0271
     RDKit          3D

 15 17  0  0  0  0  0  0  0  0999 V2000
   -3.0750   15.1560    0.4530 C   0  0  0  0  0  0  0  0  0  0  0  0
   -4.3550   14.6720   -0.2530 C   0  0  1  0  0  0  0  0  0  0  0  0
   -5.6680   15.0840    0.3770 C   0  0  1  0  0  0  0  0  0  0  0  0
   -4.5910   15.1020   -1.6650 N   0  0  0  0  0  0  0  0  0  0  0  0
   -3.7510   14.4010   -2.6340 O   0  0  0  0  0  0  0  0  0  0  0  0
   -6.0050   15.2610   -2.1680 C   0  0  1  0  0  0  0  0  0  0  0  0
   -6.6910   14.1780   -0.1850 C   0  0  2  0  0  0  0  0  0  0  0  0
   -6.0390   14.9810    1.8360 C   0  0  0  0  0  0  0  0  0  0  0  0
   -5.9530   14.8520   -3.5440 N   0  0  0  0  0  0  0  0  0  0  0  0
   -7.0170   14.4470   -1.5190 N   0  0  0  0  0  0  0  0  0  0  0  0
   -7.2950   14.4870    2.0150 C   0  0  0  0  0  0  0  0  0  0  0  0
   -7.9220   14.2090    0.6850 C   0  0  2  0  0  0  0  0  0  0  0  0
   -8.7100   12.9810    0.2400 C   0  0  0  0  0  0  0  0  0  0  0  0
   -7.5950   13.2050   -1.9880 C   0  0  0  0  0  0  0  0  0  0  0  0
   -8.0310   12.3450   -0.9010 O   0  0  0  0  0  0  0  0  0  0  0  0
  2  1  1  1
  2  3  1  0
  2  4  1  0
  4  5  1  0
  4  6  1  0
  3  7  1  0
  3  8  1  1
  6  9  1  6
  6 10  1  0
  7 10  1  6
  8 11  2  0
  7 12  1  0
 12 11  1  1
 12 13  1  0
 10 14  1  0
 13 15  1  0
 14 15  1  0
M  END
