mac-x0303-diamond-x0962_1_A
     RDKit          3D

 15 16  0  0  0  0  0  0  0  0999 V2000
   -7.9740   12.9160    2.5190 N   0  0  0  0  0  0  0  0  0  0  0  0
   -8.1010   14.5020    1.9720 S   0  0  0  0  0  0  0  0  0  0  0  0
   -7.6850   15.3630    3.0480 O   0  0  0  0  0  0  0  0  0  0  0  0
   -9.3950   14.6410    1.3460 O   0  0  0  0  0  0  0  0  0  0  0  0
   -6.9510   14.7060    0.6320 C   0  0  0  0  0  0  0  0  0  0  0  0
   -7.3350   14.7450   -0.6500 N   0  0  0  0  0  0  0  0  0  0  0  0
   -5.5650   14.8540    0.6480 N   0  0  0  0  0  0  0  0  0  0  0  0
   -4.4230   14.9250    1.4860 C   0  0  0  0  0  0  0  0  0  0  0  0
   -6.1610   14.9110   -1.3680 C   0  0  0  0  0  0  0  0  0  0  0  0
   -5.0930   14.9760   -0.5470 C   0  0  0  0  0  0  0  0  0  0  0  0
   -3.3570   14.9830    1.8930 N   0  0  0  0  0  0  0  0  0  0  0  0
   -5.8900   15.0150   -2.7260 C   0  0  0  0  0  0  0  0  0  0  0  0
   -3.7600   15.1370   -0.8980 C   0  0  0  0  0  0  0  0  0  0  0  0
   -4.5470   15.1730   -3.1410 C   0  0  0  0  0  0  0  0  0  0  0  0
   -3.5000   15.2340   -2.2350 C   0  0  0  0  0  0  0  0  0  0  0  0
  2  1  1  0
  2  3  2  0
  2  4  2  0
  2  5  1  0
  5  6  2  0
  5  7  1  0
  7  8  1  0
  6  9  1  0
  7 10  1  0
  9 10  2  0
  8 11  3  0
  9 12  1  0
 10 13  1  0
 12 14  2  0
 13 15  2  0
 14 15  1  0
M  END
