mac-x0283-mac-x0379
     RDKit          3D

 14 15  0  0  0  0  0  0  0  0999 V2000
   -6.7100   14.7280    2.1090 N   0  0  0  0  0  0  0  0  0  0  0  0
   -6.5030   14.7610    0.7640 C   0  0  0  0  0  0  0  0  0  0  0  0
   -7.4910   14.7450   -0.1290 N   0  0  0  0  0  0  0  0  0  0  0  0
   -5.2330   14.8170    0.1150 C   0  0  0  0  0  0  0  0  0  0  0  0
   -6.8750   14.7920   -1.3750 O   0  0  0  0  0  0  0  0  0  0  0  0
   -5.5200   14.8320   -1.2330 C   0  0  0  0  0  0  0  0  0  0  0  0
   -3.8950   14.8560    0.4930 C   0  0  0  0  0  0  0  0  0  0  0  0
   -3.5000   14.8510    1.8960 C   0  0  0  0  0  0  0  0  0  0  0  0
   -4.5400   14.8760   -2.2610 C   0  0  0  0  0  0  0  0  0  0  0  0
   -2.8920   14.8950   -0.4860 C   0  0  0  0  0  0  0  0  0  0  0  0
   -3.1770   14.9020   -1.8510 C   0  0  0  0  0  0  0  0  0  0  0  0
   -2.0280   14.9310   -2.8550 C   0  0  0  0  0  0  0  0  0  0  0  0
   -2.1050   14.8820   -4.0700 O   0  0  0  0  0  0  0  0  0  0  0  0
   -0.8050   15.0140   -2.2760 O   0  0  0  0  0  0  0  0  0  0  0  0
  1  2  1  0
  2  3  2  0
  2  4  1  0
  3  5  1  0
  4  6  2  0
  5  6  1  0
  4  7  1  0
  7  8  1  0
  6  9  1  0
  7 10  2  0
  9 11  2  0
 10 11  1  0
 11 12  1  0
 12 13  2  0
 12 14  1  0
M  END
