mac-x0193-mac-x0527
     RDKit          3D

 29 31  0  0  0  0  0  0  0  0999 V2000
    0.7370   11.2990   -3.1800 O   0  0  0  0  0  0  0  0  0  0  0  0
    1.4690   12.4330   -3.3950 C   0  0  0  0  0  0  0  0  0  0  0  0
    2.1020   12.8960   -2.4750 O   0  0  0  0  0  0  0  0  0  0  0  0
    1.3300   12.9690   -4.8130 C   0  0  0  0  0  0  0  0  0  0  0  0
   -0.0750   12.6290   -5.1940 C   0  0  0  0  0  0  0  0  0  0  0  0
   -0.3570   11.6710   -6.1770 C   0  0  0  0  0  0  0  0  0  0  0  0
   -1.1450   13.2750   -4.5300 C   0  0  0  0  0  0  0  0  0  0  0  0
   -0.8660   14.3590   -3.4930 C   0  0  0  0  0  0  0  0  0  0  0  0
   -2.4620   12.8910   -4.8550 C   0  0  0  0  0  0  0  0  0  0  0  0
   -1.6630   11.3150   -6.4790 C   0  0  0  0  0  0  0  0  0  0  0  0
    0.6380   10.9520   -6.9780 C   0  0  0  0  0  0  0  0  0  0  0  0
   -1.8150   14.4600   -2.4180 N   0  0  0  0  0  0  0  0  0  0  0  0
   -2.7160   11.9200   -5.8100 C   0  0  0  0  0  0  0  0  0  0  0  0
    1.7630   11.3980   -7.0650 O   0  0  0  0  0  0  0  0  0  0  0  0
    0.1320    9.8050   -7.5530 N   0  0  0  0  0  0  0  0  0  0  0  0
   -3.0700   15.0100   -2.4670 C   0  0  0  0  0  0  0  0  0  0  0  0
    0.4200    9.3340   -8.8960 C   0  0  0  0  0  0  0  0  0  0  0  0
   -3.5310   15.4540   -3.5160 O   0  0  0  0  0  0  0  0  0  0  0  0
   -3.8230   15.0270   -1.1990 C   0  0  0  0  0  0  0  0  0  0  0  0
    1.5440    8.3120   -8.8440 C   0  0  0  0  0  0  0  0  0  0  0  0
    0.6300   10.4030   -9.9470 C   0  0  0  0  0  0  0  0  0  0  0  0
   -5.2050   15.1040   -1.2070 C   0  0  0  0  0  0  0  0  0  0  0  0
   -3.0770   14.9530   -0.0540 N   0  0  0  0  0  0  0  0  0  0  0  0
    2.2350    8.0660  -10.1830 C   0  0  0  0  0  0  0  0  0  0  0  0
    0.7760    9.7850  -11.3480 C   0  0  0  0  0  0  0  0  0  0  0  0
   -5.9210   15.1030   -0.0610 N   0  0  0  0  0  0  0  0  0  0  0  0
   -3.7900   14.9550    1.0900 C   0  0  0  0  0  0  0  0  0  0  0  0
    1.2950    8.3430  -11.3430 C   0  0  0  0  0  0  0  0  0  0  0  0
   -5.1820   15.0250    1.0870 C   0  0  0  0  0  0  0  0  0  0  0  0
  1  2  1  0
  2  3  2  0
  2  4  1  0
  4  5  1  0
  5  6  2  0
  5  7  1  0
  7  8  1  0
  7  9  2  0
  6 10  1  0
  6 11  1  0
  8 12  1  0
  9 13  1  0
 10 13  2  0
 11 14  2  0
 11 15  1  0
 12 16  1  0
 15 17  1  0
 16 18  2  0
 16 19  1  0
 17 20  1  0
 17 21  1  0
 19 22  2  0
 19 23  1  0
 20 24  1  0
 21 25  1  0
 22 26  1  0
 23 27  2  0
 24 28  1  0
 25 28  1  0
 26 29  2  0
 27 29  1  0
M  END
