mac-x0142-mac-x0347
     RDKit          3D

 32 37  0  0  0  0  0  0  0  0999 V2000
    0.2700   11.5470   -2.7470 O   0  0  0  0  0  0  0  0  0  0  0  0
   -0.1620   12.8100   -2.2470 C   0  0  0  0  0  0  0  0  0  0  0  0
   -0.1190   12.6590   -0.8300 O   0  0  0  0  0  0  0  0  0  0  0  0
    0.8130   13.9930   -2.6100 C   0  0  1  0  0  0  0  0  0  0  0  0
   -1.5750   13.1310   -2.6720 C   0  0  0  0  0  0  0  0  0  0  0  0
    1.4180   13.9450   -4.0170 C   0  0  0  0  0  0  0  0  0  0  0  0
    0.0890   15.2550   -2.2070 N   0  0  0  0  0  0  0  0  0  0  0  0
   -2.5930   13.3100   -1.7370 C   0  0  0  0  0  0  0  0  0  0  0  0
   -1.9330   13.2840   -4.0120 C   0  0  0  0  0  0  0  0  0  0  0  0
    2.6980   13.1480   -4.2370 C   0  0  0  0  0  0  0  0  0  0  0  0
    1.4040   12.5940   -4.7240 C   0  0  0  0  0  0  0  0  0  0  0  0
    1.0430   15.0760   -4.9300 C   0  0  0  0  0  0  0  0  0  0  0  0
   -0.4890   16.1110   -3.2660 C   0  0  0  0  0  0  0  0  0  0  0  0
   -0.5370   15.1820   -0.9440 C   0  0  0  0  0  0  0  0  0  0  0  0
   -3.8960   13.6310   -2.1230 C   0  0  0  0  0  0  0  0  0  0  0  0
   -3.1810   13.5930   -4.4450 N   0  0  0  0  0  0  0  0  0  0  0  0
   -0.3830   15.4950   -4.6520 C   0  0  0  0  0  0  0  0  0  0  0  0
    0.2180   14.7890    0.1380 N   0  0  0  0  0  0  0  0  0  0  0  0
   -1.8370   15.4370   -0.6460 C   0  0  0  0  0  0  0  0  0  0  0  0
   -4.1260   13.7600   -3.4900 C   0  0  0  0  0  0  0  0  0  0  0  0
   -4.9390   13.8200   -1.1170 C   0  0  0  0  0  0  0  0  0  0  0  0
   -0.3090   14.5950    1.3820 C   0  0  0  0  0  0  0  0  0  0  0  0
   -2.3230   15.2690    0.7530 C   0  0  0  0  0  0  0  0  0  0  0  0
   -3.0200   15.8560   -1.3240 C   0  0  0  0  0  0  0  0  0  0  0  0
   -4.8360   13.1900    0.1330 C   0  0  0  0  0  0  0  0  0  0  0  0
   -6.0610   14.6260   -1.3590 C   0  0  0  0  0  0  0  0  0  0  0  0
   -1.5140   14.8160    1.7460 N   0  0  0  0  0  0  0  0  0  0  0  0
   -3.5750   15.5760    0.9030 N   0  0  0  0  0  0  0  0  0  0  0  0
   -3.9730   15.9220   -0.3740 C   0  0  0  0  0  0  0  0  0  0  0  0
   -5.8190   13.3590    1.1010 C   0  0  0  0  0  0  0  0  0  0  0  0
   -7.0440   14.7980   -0.3860 C   0  0  0  0  0  0  0  0  0  0  0  0
   -6.9220   14.1620    0.8480 C   0  0  0  0  0  0  0  0  0  0  0  0
  2  1  1  0
  2  3  1  0
  4  2  1  6
  2  5  1  0
  4  6  1  0
  4  7  1  0
  5  8  2  0
  5  9  1  0
  6 10  1  0
  6 11  1  0
 10 11  1  0
  6 12  1  0
  7 13  1  0
  7 14  1  0
  8 15  1  0
  9 16  2  0
 12 17  1  0
 13 17  1  0
 14 18  1  0
 14 19  2  0
 15 20  2  0
 16 20  1  0
 15 21  1  0
 18 22  1  0
 19 23  1  0
 19 24  1  0
 21 25  2  0
 21 26  1  0
 22 27  2  0
 23 27  1  0
 23 28  2  0
 24 29  2  0
 28 29  1  0
 25 30  1  0
 26 31  2  0
 30 32  2  0
 31 32  1  0
M  END
