mac-x0415-mac-x0338
     RDKit          3D

 25 27  0  0  0  0  0  0  0  0999 V2000
    0.2510   11.1000   -3.2950 O   0  0  0  0  0  0  0  0  0  0  0  0
    0.9880   12.2220   -3.1830 C   0  0  0  0  0  0  0  0  0  0  0  0
    1.2870   12.6400   -2.0770 O   0  0  0  0  0  0  0  0  0  0  0  0
    1.3450   12.8370   -4.5240 C   0  0  0  0  0  0  0  0  0  0  0  0
    0.9450   14.2520   -4.4770 C   0  0  0  0  0  0  0  0  0  0  0  0
    1.8210   15.3820   -4.1960 C   0  0  0  0  0  0  0  0  0  0  0  0
   -0.1860   14.8880   -4.6860 C   0  0  0  0  0  0  0  0  0  0  0  0
    1.3340   16.5880   -4.2160 N   0  0  0  0  0  0  0  0  0  0  0  0
   -0.0690   16.3330   -4.4070 C   0  0  1  0  0  0  0  0  0  0  0  0
   -1.4440   14.3920   -5.0840 C   0  0  0  0  0  0  0  0  0  0  0  0
   -0.9410   17.2330   -5.2130 C   0  0  0  0  0  0  0  0  0  0  0  0
   -2.3240   15.2480   -5.6120 C   0  0  0  0  0  0  0  0  0  0  0  0
   -3.5020   14.7200   -6.0480 O   0  0  0  0  0  0  0  0  0  0  0  0
   -2.0470   16.6950   -5.7740 C   0  0  0  0  0  0  0  0  0  0  0  0
   -4.0130   13.8810   -5.0220 C   0  0  0  0  0  0  0  0  0  0  0  0
   -4.6390   14.9170   -4.1750 C   0  0  0  0  0  0  0  0  0  0  0  0
   -4.6070   14.9210   -2.6980 C   0  0  0  0  0  0  0  0  0  0  0  0
   -3.4710   14.8450   -1.8880 C   0  0  0  0  0  0  0  0  0  0  0  0
   -5.8420   15.0280   -2.1950 N   0  0  0  0  0  0  0  0  0  0  0  0
   -3.5620   14.8830   -0.5350 N   0  0  0  0  0  0  0  0  0  0  0  0
   -5.9330   15.0690   -0.8740 C   0  0  0  0  0  0  0  0  0  0  0  0
   -4.8370   15.0000   -0.0630 C   0  0  0  0  0  0  0  0  0  0  0  0
   -5.0780   15.0620    1.3810 C   0  0  0  0  0  0  0  0  0  0  0  0
   -4.0400   15.4500    2.1580 N   0  0  0  0  0  0  0  0  0  0  0  0
   -6.1730   14.8050    1.8590 O   0  0  0  0  0  0  0  0  0  0  0  0
  1  2  1  0
  2  3  2  0
  2  4  1  0
  4  5  1  0
  5  6  1  0
  5  7  2  0
  6  8  2  0
  7  9  1  0
  8  9  1  0
  7 10  1  0
  9 11  1  6
 10 12  2  0
 12 13  1  0
 11 14  2  0
 12 14  1  0
 13 15  1  0
 15 16  1  0
 16 17  1  0
 17 18  2  0
 17 19  1  0
 18 20  1  0
 19 21  2  0
 20 22  2  0
 21 22  1  0
 22 23  1  0
 23 24  1  0
 23 25  2  0
M  END
