mac-x0301-diamond-x0849_0_A
     RDKit          3D

 12 13  0  0  0  0  0  0  0  0999 V2000
    0.3660   14.4110   -3.0490 O   0  0  0  0  0  0  0  0  0  0  0  0
   -0.9650   14.4270   -3.2040 C   0  0  0  0  0  0  0  0  0  0  0  0
   -1.4560   14.2300   -4.3010 O   0  0  0  0  0  0  0  0  0  0  0  0
   -1.7360   14.7010   -1.9590 C   0  0  0  0  0  0  0  0  0  0  0  0
   -1.2370   14.5780   -0.6660 C   0  0  0  0  0  0  0  0  0  0  0  0
   -3.0770   15.1230   -2.0930 C   0  0  0  0  0  0  0  0  0  0  0  0
   -2.0240   14.8640    0.4430 C   0  0  0  0  0  0  0  0  0  0  0  0
   -3.8650   15.4060   -0.9610 C   0  0  0  0  0  0  0  0  0  0  0  0
    0.0070   14.1890   -0.2900 O   0  0  0  0  0  0  0  0  0  0  0  0
   -3.3360   15.2760    0.3260 C   0  0  0  0  0  0  0  0  0  0  0  0
   -1.3600   14.6980    1.6260 O   0  0  0  0  0  0  0  0  0  0  0  0
   -0.0450   14.4200    1.1300 C   0  0  0  0  0  0  0  0  0  0  0  0
  1  2  1  0
  2  3  2  0
  2  4  1  0
  4  5  2  0
  4  6  1  0
  5  7  1  0
  6  8  2  0
  5  9  1  0
  7 10  2  0
  8 10  1  0
  7 11  1  0
  9 12  1  0
 11 12  1  0
M  END
