mac-x0337-diamond-x0574_0_A
     RDKit          3D

 23 25  0  0  0  0  0  0  0  0999 V2000
   -5.5580    9.2390   -2.1480 C   0  0  0  0  0  0  0  0  0  0  0  0
   -5.1090   10.6670   -2.0650 C   0  0  0  0  0  0  0  0  0  0  0  0
   -6.0050   11.6630   -1.6650 C   0  0  0  0  0  0  0  0  0  0  0  0
   -3.7900   11.0250   -2.3930 C   0  0  0  0  0  0  0  0  0  0  0  0
   -3.3730   12.3610   -2.3290 C   0  0  0  0  0  0  0  0  0  0  0  0
   -5.5990   12.9960   -1.6010 C   0  0  0  0  0  0  0  0  0  0  0  0
   -4.2830   13.3460   -1.9360 C   0  0  0  0  0  0  0  0  0  0  0  0
   -3.8160   15.0610   -1.8610 S   0  0  1  0  0  0  0  0  0  0  0  0
   -4.9100   15.8100   -1.3240 O   0  0  0  0  0  0  0  0  0  0  0  0
   -2.3120   15.3170   -1.6400 N   0  0  0  0  0  0  0  0  0  0  0  0
   -3.8680   15.5420   -3.4480 N   0  0  0  0  0  0  0  0  0  0  0  0
   -1.7210   15.7030   -0.3040 N   0  0  0  0  0  0  0  0  0  0  0  0
   -2.5760   15.3050    0.7870 C   0  0  1  0  0  0  0  0  0  0  0  0
   -0.4770   14.9660   -0.0110 C   0  0  1  0  0  0  0  0  0  0  0  0
   -0.0120   14.9120    1.3370 N   0  0  0  0  0  0  0  0  0  0  0  0
   -4.0280   15.8690    0.8780 C   0  0  0  0  0  0  0  0  0  0  0  0
   -2.5300   13.7760    0.6670 C   0  0  2  0  0  0  0  0  0  0  0  0
   -1.0900   13.3490   -0.3420 S   0  0  0  0  0  0  0  0  0  0  0  0
   -4.9990   14.7840    1.3730 C   0  0  1  0  0  0  0  0  0  0  0  0
   -3.7590   13.0960    0.2020 C   0  0  0  0  0  0  0  0  0  0  0  0
   -6.3710   15.1520    1.3200 O   0  0  0  0  0  0  0  0  0  0  0  0
   -4.9210   13.5730    0.5460 C   0  0  0  0  0  0  0  0  0  0  0  0
   -7.1040   14.6790    2.4420 C   0  0  0  0  0  0  0  0  0  0  0  0
  1  2  1  0
  2  3  2  0
  2  4  1  0
  4  5  2  0
  3  6  1  0
  5  7  1  0
  6  7  2  0
  7  8  1  0
  8  9  2  0
  8 10  2  0
  8 11  1  6
 10 12  1  0
 12 13  1  0
 12 14  1  0
 14 15  1  1
 13 16  1  6
 13 17  1  0
 14 18  1  0
 17 18  1  0
 16 19  1  0
 17 20  1  6
 19 21  1  6
 19 22  1  0
 20 22  2  0
 21 23  1  0
M  END
