mac-x0124-diamond-x0421_0_A
     RDKit          3D

 21 24  0  0  0  0  0  0  0  0999 V2000
   -2.3360   14.5310   -3.1840 C   0  0  0  0  0  0  0  0  0  0  0  0
   -3.0200   13.4690   -3.5840 C   0  0  0  0  0  0  0  0  0  0  0  0
   -2.9770   12.7900   -4.7760 N   0  0  0  0  0  0  0  0  0  0  0  0
   -2.7080   14.9020   -1.9440 N   0  0  0  0  0  0  0  0  0  0  0  0
   -3.9310   15.5440   -1.8790 C   0  0  0  0  0  0  0  0  0  0  0  0
   -2.2120   14.7710   -0.6600 C   0  0  0  0  0  0  0  0  0  0  0  0
   -3.9350   13.0150   -2.5040 C   0  0  0  0  0  0  0  0  0  0  0  0
   -4.2460   15.8040   -0.6010 C   0  0  0  0  0  0  0  0  0  0  0  0
   -3.1880   15.3130    0.1670 C   0  0  0  0  0  0  0  0  0  0  0  0
   -1.0460   14.2220   -0.2430 N   0  0  0  0  0  0  0  0  0  0  0  0
   -4.2840   11.7690   -2.0390 C   0  0  0  0  0  0  0  0  0  0  0  0
   -4.5990   13.9680   -1.7390 N   0  0  0  0  0  0  0  0  0  0  0  0
   -2.9860   15.2810    1.5010 C   0  0  0  0  0  0  0  0  0  0  0  0
   -0.9420   14.2630    1.0960 C   0  0  0  0  0  0  0  0  0  0  0  0
   -5.1520   11.9950   -0.9860 N   0  0  0  0  0  0  0  0  0  0  0  0
   -5.3060   13.3410   -0.8360 C   0  0  0  0  0  0  0  0  0  0  0  0
   -3.9710   15.7890    2.3350 N   0  0  0  0  0  0  0  0  0  0  0  0
   -1.8380   14.7500    1.9740 N   0  0  0  0  0  0  0  0  0  0  0  0
   -6.1780   14.0540    0.2470 C   0  0  0  0  0  0  0  0  0  0  0  0
   -7.6660   14.1790    0.0670 C   0  0  0  0  0  0  0  0  0  0  0  0
   -7.1130   13.2270    1.0900 C   0  0  0  0  0  0  0  0  0  0  0  0
  1  2  2  3
  2  3  1  0
  1  4  1  0
  4  5  1  0
  4  6  1  0
  2  7  1  0
  5  8  2  0
  6  9  2  0
  8  9  1  0
  6 10  1  0
  7 11  2  0
  7 12  1  0
  9 13  1  0
 10 14  2  0
 11 15  1  0
 12 16  2  0
 15 16  1  0
 13 17  1  0
 13 18  2  0
 14 18  1  0
 16 19  1  0
 19 20  1  0
 19 21  1  0
 20 21  1  0
M  END
