mac-x0565-diamond-x0855_0_A
     RDKit          3D

 23 25  0  0  0  0  0  0  0  0999 V2000
   -5.3010   15.1140    0.8840 O   0  0  0  0  0  0  0  0  0  0  0  0
   -5.8790   14.9640   -0.3180 C   0  0  0  0  0  0  0  0  0  0  0  0
   -7.0900   14.8590   -0.4350 O   0  0  0  0  0  0  0  0  0  0  0  0
   -4.8970   14.9510   -1.4340 C   0  0  0  0  0  0  0  0  0  0  0  0
   -3.5110   14.8860   -1.1570 C   0  0  0  0  0  0  0  0  0  0  0  0
   -5.3410   14.9990   -2.7650 C   0  0  0  0  0  0  0  0  0  0  0  0
   -2.6370   14.8790   -2.2430 C   0  0  0  0  0  0  0  0  0  0  0  0
   -4.4340   14.9900   -3.8240 C   0  0  0  0  0  0  0  0  0  0  0  0
   -3.0990   14.9370   -3.5320 C   0  0  0  0  0  0  0  0  0  0  0  0
   -1.2620   14.8190   -2.2180 O   0  0  0  0  0  0  0  0  0  0  0  0
   -2.1070   14.9370   -4.4560 O   0  0  0  0  0  0  0  0  0  0  0  0
   -0.9420   15.0670   -3.6220 C   0  0  2  0  0  0  0  0  0  0  0  0
    0.1100   14.1100   -4.2050 C   0  0  0  0  0  0  0  0  0  0  0  0
   -0.1780   12.6700   -3.7870 C   0  0  2  0  0  0  0  0  0  0  0  0
    1.0360   12.0150   -3.1930 C   0  0  0  0  0  0  0  0  0  0  0  0
   -0.8900   11.8100   -4.7270 N   0  0  0  0  0  0  0  0  0  0  0  0
    1.8670   12.8020   -2.4850 O   0  0  0  0  0  0  0  0  0  0  0  0
    1.2370   10.8250   -3.3310 O   0  0  0  0  0  0  0  0  0  0  0  0
   -0.5030   11.2220   -5.9040 C   0  0  0  0  0  0  0  0  0  0  0  0
   -2.1670   11.5220   -4.3890 N   0  0  0  0  0  0  0  0  0  0  0  0
   -1.6100   10.5040   -6.3200 C   0  0  0  0  0  0  0  0  0  0  0  0
   -2.5940   10.7270   -5.3630 C   0  0  0  0  0  0  0  0  0  0  0  0
   -1.8500    9.4270   -7.8240 Br  0  0  0  0  0  0  0  0  0  0  0  0
  1  2  1  0
  2  3  2  0
  2  4  1  0
  4  5  2  0
  4  6  1  0
  5  7  1  0
  6  8  2  0
  7  9  2  0
  8  9  1  0
  7 10  1  0
  9 11  1  0
 10 12  1  0
 11 12  1  0
 12 13  1  6
 14 13  1  6
 14 15  1  0
 14 16  1  0
 15 17  1  0
 15 18  2  0
 16 19  1  0
 16 20  1  0
 19 21  2  0
 20 22  2  0
 21 22  1  0
 21 23  1  0
M  END
