mac-x0271-mac-x0204
     RDKit          3D

 23 25  0  0  0  0  0  0  0  0999 V2000
   -4.9090   14.9620   -3.7880 O   0  0  0  0  0  0  0  0  0  0  0  0
   -5.1200   14.9360   -2.4610 C   0  0  0  0  0  0  0  0  0  0  0  0
   -4.0340   15.0910   -1.6550 C   0  0  0  0  0  0  0  0  0  0  0  0
   -6.3910   14.7600   -1.9990 C   0  0  0  0  0  0  0  0  0  0  0  0
   -2.7140   15.3100   -2.4040 C   0  0  0  0  0  0  0  0  0  0  0  0
   -6.6030   14.7310   -0.6490 C   0  0  0  0  0  0  0  0  0  0  0  0
   -4.2450   15.0580   -0.2280 C   0  0  0  0  0  0  0  0  0  0  0  0
   -5.5660   14.8700    0.2720 C   0  0  0  0  0  0  0  0  0  0  0  0
   -7.9380   14.5480   -0.2630 O   0  0  0  0  0  0  0  0  0  0  0  0
   -2.2310   14.5320   -3.6270 C   0  0  0  0  0  0  0  0  0  0  0  0
   -5.9390   14.8100    1.6870 C   0  0  0  0  0  0  0  0  0  0  0  0
   -8.3340   14.7750    1.0310 C   0  0  0  0  0  0  0  0  0  0  0  0
   -1.0670   13.7540   -3.5840 C   0  0  0  0  0  0  0  0  0  0  0  0
   -2.9150   14.5660   -4.8670 C   0  0  0  0  0  0  0  0  0  0  0  0
   -9.5060   14.9880    1.3310 O   0  0  0  0  0  0  0  0  0  0  0  0
   -0.1510   13.6400   -2.4410 C   0  0  0  0  0  0  0  0  0  0  0  0
   -4.0170   15.3390   -5.0690 O   0  0  0  0  0  0  0  0  0  0  0  0
   -7.2500   14.7590    2.0350 C   0  0  0  0  0  0  0  0  0  0  0  0
   -2.4680   13.8050   -5.9260 C   0  0  0  0  0  0  0  0  0  0  0  0
   -0.7040   13.0260   -4.7090 C   0  0  0  0  0  0  0  0  0  0  0  0
    0.0510   12.3870   -2.0130 O   0  0  0  0  0  0  0  0  0  0  0  0
    0.4140   14.5990   -1.9330 O   0  0  0  0  0  0  0  0  0  0  0  0
   -1.3850   13.0220   -5.8710 N   0  0  0  0  0  0  0  0  0  0  0  0
  1  2  1  0
  2  3  2  0
  2  4  1  0
  3  5  1  0
  4  6  2  0
  3  7  1  0
  6  8  1  0
  7  8  2  0
  6  9  1  0
  5 10  1  0
  8 11  1  0
  9 12  1  0
 10 13  2  0
 10 14  1  0
 12 15  2  0
 13 16  1  0
 14 17  1  0
 11 18  2  0
 12 18  1  0
 14 19  2  0
 13 20  1  0
 16 21  1  0
 16 22  2  0
 19 23  1  0
 20 23  2  0
M  END
