mac-x0404-diamond-x0727_0_A
     RDKit          3D

 23 25  0  0  0  0  0  0  0  0999 V2000
    1.5410   12.9420   -2.3000 O   0  0  0  0  0  0  0  0  0  0  0  0
    0.8350   11.9780   -2.9240 C   0  0  0  0  0  0  0  0  0  0  0  0
    0.7230   10.8790   -2.4120 O   0  0  0  0  0  0  0  0  0  0  0  0
    0.2060   12.3990   -4.2570 C   0  0  1  0  0  0  0  0  0  0  0  0
    0.7550   13.6350   -4.7100 O   0  0  0  0  0  0  0  0  0  0  0  0
    0.2510   11.2900   -5.2250 N   0  0  0  0  0  0  0  0  0  0  0  0
    0.7890   11.3030   -6.4950 C   0  0  0  0  0  0  0  0  0  0  0  0
   -0.3560   14.4040   -4.9410 C   0  0  0  0  0  0  0  0  0  0  0  0
    1.6560   12.0860   -6.8330 O   0  0  0  0  0  0  0  0  0  0  0  0
   -0.3070   15.8140   -5.1300 C   0  0  0  0  0  0  0  0  0  0  0  0
   -1.5820   13.7330   -4.9890 C   0  0  0  0  0  0  0  0  0  0  0  0
    0.2250   10.1990   -7.4160 C   0  0  0  0  0  0  0  0  0  0  0  0
   -1.5390   16.4870   -5.3700 C   0  0  0  0  0  0  0  0  0  0  0  0
   -2.7630   14.4120   -5.2190 C   0  0  0  0  0  0  0  0  0  0  0  0
    0.8700   16.5860   -5.1040 C   0  0  0  0  0  0  0  0  0  0  0  0
   -1.0700   10.6020   -8.1300 C   0  0  0  0  0  0  0  0  0  0  0  0
   -0.1190    8.9090   -6.6320 C   0  0  0  0  0  0  0  0  0  0  0  0
   -2.7420   15.7790   -5.4070 C   0  0  0  0  0  0  0  0  0  0  0  0
   -1.5590   17.8630   -5.5780 C   0  0  0  0  0  0  0  0  0  0  0  0
    0.8250   17.9680   -5.3170 C   0  0  0  0  0  0  0  0  0  0  0  0
   -2.0030    9.3960   -8.0660 C   0  0  0  0  0  0  0  0  0  0  0  0
   -1.6070    8.6520   -6.8100 C   0  0  0  0  0  0  0  0  0  0  0  0
   -0.3910   18.5920   -5.5550 C   0  0  0  0  0  0  0  0  0  0  0  0
  1  2  1  0
  2  3  2  0
  2  4  1  0
  4  5  1  0
  4  6  1  6
  6  7  1  0
  5  8  1  0
  7  9  2  0
  8 10  1  0
  8 11  2  0
  7 12  1  0
 10 13  2  0
 11 14  1  0
 10 15  1  0
 12 16  1  0
 12 17  1  0
 13 18  1  0
 14 18  2  0
 13 19  1  0
 15 20  2  0
 16 21  1  0
 17 22  1  0
 21 22  1  0
 19 23  2  0
 20 23  1  0
M  END
