mac-x0380-diamond-x0950_1_A
     RDKit          3D

 23 24  0  0  0  0  0  0  0  0999 V2000
   -1.3430   15.0470   -2.5660 O   0  0  0  0  0  0  0  0  0  0  0  0
   -2.7060   14.8400   -2.8790 C   0  0  0  0  0  0  0  0  0  0  0  0
   -3.1090   15.9020   -3.7240 O   0  0  0  0  0  0  0  0  0  0  0  0
   -2.8140   13.5620   -3.7310 C   0  0  0  0  0  0  0  0  0  0  0  0
   -3.5640   14.9030   -1.6160 C   0  0  0  0  0  0  0  0  0  0  0  0
   -1.4710   13.0080   -4.2310 C   0  0  0  0  0  0  0  0  0  0  0  0
   -4.9610   14.9690   -1.6640 C   0  0  0  0  0  0  0  0  0  0  0  0
   -2.9620   14.8870   -0.3360 C   0  0  0  0  0  0  0  0  0  0  0  0
   -0.6480   14.0340   -5.0230 C   0  0  0  0  0  0  0  0  0  0  0  0
   -5.7330   15.0050   -0.4990 C   0  0  0  0  0  0  0  0  0  0  0  0
   -3.7230   14.9250    0.8380 C   0  0  0  0  0  0  0  0  0  0  0  0
    0.8690   13.9470   -4.7950 C   0  0  0  0  0  0  0  0  0  0  0  0
   -5.1160   14.9780    0.7560 C   0  0  0  0  0  0  0  0  0  0  0  0
   -7.4970   15.0710   -0.6670 S   0  0  0  0  0  0  0  0  0  0  0  0
    1.3650   12.5270   -4.5550 C   0  0  2  0  0  0  0  0  0  0  0  0
   -5.8630   14.9940    1.9490 N   0  0  0  0  0  0  0  0  0  0  0  0
   -7.8800   14.1180    0.8110 C   0  0  0  0  0  0  0  0  0  0  0  0
    0.7510   11.6640   -5.5190 O   0  0  0  0  0  0  0  0  0  0  0  0
    1.0300   12.0410   -3.1390 C   0  0  0  0  0  0  0  0  0  0  0  0
   -7.1930   14.6580    2.0390 C   0  0  0  0  0  0  0  0  0  0  0  0
   -7.8090   14.8070    3.0990 O   0  0  0  0  0  0  0  0  0  0  0  0
    0.3380   11.0890   -2.8220 O   0  0  0  0  0  0  0  0  0  0  0  0
    1.6070   12.8160   -2.1890 O   0  0  0  0  0  0  0  0  0  0  0  0
  2  1  1  0
  2  3  1  0
  2  4  1  0
  2  5  1  0
  4  6  1  0
  5  7  2  0
  5  8  1  0
  6  9  1  0
  7 10  1  0
  8 11  2  0
  9 12  1  0
 10 13  2  0
 11 13  1  0
 10 14  1  0
 12 15  1  0
 13 16  1  0
 14 17  1  0
 15 18  1  6
 15 19  1  0
 16 20  1  0
 17 20  1  0
 20 21  2  0
 19 22  2  0
 19 23  1  0
M  END
