mac-x0190-mac-x0590
     RDKit          3D

 23 26  0  0  0  0  0  0  0  0999 V2000
   -8.8550   15.0150    2.3990 O   0  0  0  0  0  0  0  0  0  0  0  0
   -8.8460   14.6460    1.0240 C   0  0  0  0  0  0  0  0  0  0  0  0
   -7.4300   14.5560    0.5730 C   0  0  0  0  0  0  0  0  0  0  0  0
   -7.0570   14.8480   -0.7240 N   0  0  0  0  0  0  0  0  0  0  0  0
   -6.3780   14.2070    1.2850 N   0  0  0  0  0  0  0  0  0  0  0  0
   -5.6990   14.6580   -0.8100 C   0  0  0  0  0  0  0  0  0  0  0  0
   -5.3120   14.2650    0.4270 C   0  0  0  0  0  0  0  0  0  0  0  0
   -4.8070   14.8230   -1.9790 C   0  0  0  0  0  0  0  0  0  0  0  0
   -3.9070   13.9320    0.7800 C   0  0  0  0  0  0  0  0  0  0  0  0
   -3.3290   15.1770   -1.5520 C   0  0  1  0  0  0  0  0  0  0  0  0
   -2.8020   14.5560   -0.1550 C   0  0  1  0  0  0  0  0  0  0  0  0
   -2.2830   15.0060   -2.7630 C   0  0  0  0  0  0  0  0  0  0  0  0
   -2.0600   15.4680    0.7780 N   0  0  0  0  0  0  0  0  0  0  0  0
   -1.6290   13.6180   -0.4680 C   0  0  0  0  0  0  0  0  0  0  0  0
   -1.9610   13.6310   -3.4390 C   0  0  0  0  0  0  0  0  0  0  0  0
   -0.4720   14.5100   -0.5120 N   0  0  0  0  0  0  0  0  0  0  0  0
   -0.6390   15.1220    0.7770 C   0  0  0  0  0  0  0  0  0  0  0  0
   -0.8450   13.6480   -4.5350 C   0  0  0  0  0  0  0  0  0  0  0  0
    0.1080   12.4320   -4.6260 C   0  0  2  0  0  0  0  0  0  0  0  0
    0.6760   11.9900   -3.2780 C   0  0  0  0  0  0  0  0  0  0  0  0
    1.3620   12.6580   -5.4740 C   0  0  0  0  0  0  0  0  0  0  0  0
    2.4160   13.0150   -4.4460 C   0  0  0  0  0  0  0  0  0  0  0  0
    2.0840   12.2870   -3.2610 O   0  0  0  0  0  0  0  0  0  0  0  0
  1  2  1  0
  2  3  1  0
  3  4  1  0
  3  5  2  0
  4  6  1  0
  5  7  1  0
  6  7  2  0
  6  8  1  0
  7  9  1  0
  8 10  1  0
 11  9  1  1
 10 11  1  0
 10 12  1  6
 11 13  1  0
 11 14  1  0
 12 15  1  0
 14 16  1  0
 13 17  1  0
 16 17  1  0
 15 18  1  0
 19 18  1  1
 19 20  1  0
 19 21  1  0
 21 22  1  0
 20 23  1  0
 22 23  1  0
M  END
