mac-x0282-diamond-x0727_0_A
     RDKit          3D

 23 25  0  0  0  0  0  0  0  0999 V2000
    0.2360   11.4310   -5.4950 N   0  0  0  0  0  0  0  0  0  0  0  0
    0.9740   12.4160   -4.7000 C   0  0  1  0  0  0  0  0  0  0  0  0
    0.6580   13.8240   -5.1810 C   0  0  0  0  0  0  0  0  0  0  0  0
    0.7320   11.1060   -6.7320 C   0  0  0  0  0  0  0  0  0  0  0  0
    1.6550   11.7290   -7.1870 O   0  0  0  0  0  0  0  0  0  0  0  0
    0.6290   12.3090   -3.2120 C   0  0  0  0  0  0  0  0  0  0  0  0
    0.0930    9.9290   -7.4520 C   0  0  0  0  0  0  0  0  0  0  0  0
    0.4970   11.2530   -2.5880 O   0  0  0  0  0  0  0  0  0  0  0  0
    0.4800   13.5860   -2.7400 O   0  0  0  0  0  0  0  0  0  0  0  0
   -1.1970   10.3040   -8.1940 C   0  0  0  0  0  0  0  0  0  0  0  0
   -0.2640    8.7380   -6.5430 C   0  0  0  0  0  0  0  0  0  0  0  0
    0.9240   14.0010   -1.4320 C   0  0  0  0  0  0  0  0  0  0  0  0
   -2.1320    9.1220   -7.9930 C   0  0  0  0  0  0  0  0  0  0  0  0
   -1.7720    8.5840   -6.6200 C   0  0  0  0  0  0  0  0  0  0  0  0
   -0.2960   14.3100   -0.6100 C   0  0  0  0  0  0  0  0  0  0  0  0
   -1.4530   14.6300   -1.3040 C   0  0  0  0  0  0  0  0  0  0  0  0
   -0.3570   14.2950    0.7960 C   0  0  0  0  0  0  0  0  0  0  0  0
   -2.6000   14.9120   -0.5730 C   0  0  0  0  0  0  0  0  0  0  0  0
   -1.4440   14.5610    1.5650 N   0  0  0  0  0  0  0  0  0  0  0  0
   -3.9240   15.2680   -0.9110 C   0  0  0  0  0  0  0  0  0  0  0  0
   -2.5190   14.8580    0.8120 C   0  0  0  0  0  0  0  0  0  0  0  0
   -4.6120   15.4150    0.2630 C   0  0  0  0  0  0  0  0  0  0  0  0
   -3.7550   15.1650    1.3000 N   0  0  0  0  0  0  0  0  0  0  0  0
  1  2  1  0
  2  3  1  6
  1  4  1  0
  4  5  2  0
  2  6  1  0
  4  7  1  0
  6  8  2  0
  6  9  1  0
  7 10  1  0
  7 11  1  0
  9 12  1  0
 10 13  1  0
 11 14  1  0
 13 14  1  0
 12 15  1  0
 15 16  2  0
 15 17  1  0
 16 18  1  0
 17 19  2  0
 18 20  1  0
 18 21  2  0
 19 21  1  0
 20 22  2  0
 21 23  1  0
 22 23  1  0
M  END
