mac-x0223-mac-x0204
     RDKit          3D

 14 14  0  0  0  0  0  0  0  0999 V2000
    1.2490   18.4410   -5.7920 C   0  0  0  0  0  0  0  0  0  0  0  0
    0.2080   18.2730   -4.8600 O   0  0  0  0  0  0  0  0  0  0  0  0
   -0.2510   16.9980   -4.7690 C   0  0  0  0  0  0  0  0  0  0  0  0
   -1.6300   16.9020   -4.8030 C   0  0  0  0  0  0  0  0  0  0  0  0
    0.5140   15.8470   -4.6480 C   0  0  0  0  0  0  0  0  0  0  0  0
   -2.3480   18.0600   -4.9070 O   0  0  0  0  0  0  0  0  0  0  0  0
   -2.2830   15.6840   -4.7270 C   0  0  0  0  0  0  0  0  0  0  0  0
   -0.1140   14.5950   -4.5620 C   0  0  0  0  0  0  0  0  0  0  0  0
    0.7070   13.3410   -4.4100 C   0  0  0  0  0  0  0  0  0  0  0  0
   -1.5210   14.5200   -4.6050 C   0  0  0  0  0  0  0  0  0  0  0  0
    0.7270   12.8760   -2.9410 C   0  0  0  0  0  0  0  0  0  0  0  0
    0.1070   11.6370   -2.7240 O   0  0  0  0  0  0  0  0  0  0  0  0
    2.0360   12.6990   -2.5100 O   0  0  0  0  0  0  0  0  0  0  0  0
    0.1940   13.8780   -2.1110 O   0  0  0  0  0  0  0  0  0  0  0  0
  1  2  1  0
  2  3  1  0
  3  4  2  0
  3  5  1  0
  4  6  1  0
  4  7  1  0
  5  8  2  0
  8  9  1  0
  7 10  2  0
  8 10  1  0
  9 11  1  0
 11 12  1  0
 11 13  1  0
 11 14  1  0
M  END
