mac-x0306-diamond-x0626_0_A
     RDKit          3D

 22 24  0  0  0  0  0  0  0  0999 V2000
   -4.3540   14.2500    2.1490 N   0  0  0  0  0  0  0  0  0  0  0  0
   -5.0210   14.3690    1.0650 C   0  0  0  0  0  0  0  0  0  0  0  0
   -4.6810   15.3630    0.3330 N   0  0  0  0  0  0  0  0  0  0  0  0
   -3.1770   14.2920    1.5060 C   0  0  0  0  0  0  0  0  0  0  0  0
   -5.9780   13.2410    0.6180 C   0  0  0  0  0  0  0  0  0  0  0  0
   -2.0280   14.7600    1.8360 N   0  0  0  0  0  0  0  0  0  0  0  0
   -3.2270   13.6200   -0.1000 S   0  0  0  0  0  0  0  0  0  0  0  0
   -7.1220   12.9700    1.5870 C   0  0  0  0  0  0  0  0  0  0  0  0
   -5.0780   15.2240   -0.8950 C   0  0  0  0  0  0  0  0  0  0  0  0
   -1.6100   14.0180   -0.3440 C   0  0  0  0  0  0  0  0  0  0  0  0
   -1.1410   14.6130    0.7880 C   0  0  0  0  0  0  0  0  0  0  0  0
    0.1970   15.0990    0.9680 C   0  0  0  0  0  0  0  0  0  0  0  0
   -4.0620   15.3020   -1.8360 C   0  0  0  0  0  0  0  0  0  0  0  0
   -6.3380   14.9820   -1.1960 C   0  0  0  0  0  0  0  0  0  0  0  0
   -7.3960   14.8990   -0.1720 C   0  0  0  0  0  0  0  0  0  0  0  0
   -4.1950   15.1360   -3.1190 N   0  0  0  0  0  0  0  0  0  0  0  0
   -6.5360   14.7990   -2.5230 C   0  0  0  0  0  0  0  0  0  0  0  0
   -7.1420   14.8870    1.1910 N   0  0  0  0  0  0  0  0  0  0  0  0
   -8.6950   14.8250   -0.3600 N   0  0  0  0  0  0  0  0  0  0  0  0
   -5.4610   14.8780   -3.4160 C   0  0  0  0  0  0  0  0  0  0  0  0
   -9.2670   14.7720    0.8900 C   0  0  0  0  0  0  0  0  0  0  0  0
   -8.3150   14.8100    1.8710 C   0  0  0  0  0  0  0  0  0  0  0  0
  1  2  1  0
  2  3  2  3
  1  4  1  0
  2  5  1  0
  4  6  2  0
  4  7  1  0
  5  8  1  0
  3  9  1  0
  7 10  1  0
  6 11  1  0
 10 11  2  0
 11 12  1  0
  9 13  2  0
  9 14  1  0
 14 15  1  0
 13 16  1  0
 14 17  2  0
 15 18  1  0
 15 19  2  0
 16 20  2  0
 17 20  1  0
 19 21  1  0
 18 22  1  0
 21 22  2  0
M  END
