mac-x0115-mac-x0161
     RDKit          3D

 25 27  0  0  0  0  0  0  0  0999 V2000
   -1.4790   18.6370   -5.2570 C   0  0  0  0  0  0  0  0  0  0  0  0
   -0.4590   17.6110   -5.6940 C   0  0  0  0  0  0  0  0  0  0  0  0
    0.9560   18.1420   -5.5350 C   0  0  0  0  0  0  0  0  0  0  0  0
   -0.6650   16.4500   -4.8790 O   0  0  0  0  0  0  0  0  0  0  0  0
    0.4250   15.5260   -4.9420 C   0  0  0  0  0  0  0  0  0  0  0  0
    0.4340   14.5420   -3.7500 C   0  0  1  0  0  0  0  0  0  0  0  0
    0.1330   14.8630   -2.3280 N   0  0  0  0  0  0  0  0  0  0  0  0
   -0.0190   13.1660   -3.9720 C   0  0  0  0  0  0  0  0  0  0  0  0
    1.0260   14.4860   -1.3640 C   0  0  0  0  0  0  0  0  0  0  0  0
   -1.1050   15.5590   -1.9660 C   0  0  2  0  0  0  0  0  0  0  0  0
   -0.7260   12.5140   -4.9420 C   0  0  0  0  0  0  0  0  0  0  0  0
    0.3390   12.2930   -2.9940 O   0  0  0  0  0  0  0  0  0  0  0  0
    2.6330   14.0910   -1.6210 S   0  0  0  0  0  0  0  0  0  0  0  0
    0.5720   14.4110   -0.0710 N   0  0  0  0  0  0  0  0  0  0  0  0
   -1.4760   15.6790   -0.4560 C   0  0  2  0  0  0  0  0  0  0  0  0
   -2.3750   15.0380   -2.6060 C   0  0  0  0  0  0  0  0  0  0  0  0
   -0.1200   11.0390   -3.3110 N   0  0  0  0  0  0  0  0  0  0  0  0
   -0.7490   11.1910   -4.4720 C   0  0  0  0  0  0  0  0  0  0  0  0
   -1.3230   10.1480   -5.0870 O   0  0  0  0  0  0  0  0  0  0  0  0
   -0.6230   14.8300    0.4530 C   0  0  0  0  0  0  0  0  0  0  0  0
   -2.9180   15.2870   -0.4250 N   0  0  0  0  0  0  0  0  0  0  0  0
   -3.3460   14.9240   -1.6810 C   0  0  0  0  0  0  0  0  0  0  0  0
   -0.9600   14.5260    1.6170 O   0  0  0  0  0  0  0  0  0  0  0  0
   -3.8350   15.5650    0.6050 N   0  0  0  0  0  0  0  0  0  0  0  0
   -1.9210   10.4650   -6.3350 C   0  0  0  0  0  0  0  0  0  0  0  0
  1  2  1  0
  2  3  1  0
  2  4  1  0
  4  5  1  0
  6  5  1  6
  6  7  1  0
  6  8  1  0
  7  9  1  0
  7 10  1  0
  8 11  2  0
  8 12  1  0
  9 13  2  0
  9 14  1  0
 10 15  1  0
 10 16  1  6
 12 17  1  0
 11 18  1  0
 17 18  2  0
 18 19  1  0
 14 20  1  0
 15 20  1  1
 15 21  1  0
 16 22  2  0
 21 22  1  0
 20 23  2  0
 21 24  1  0
 19 25  1  0
M  END
