mac-x0396-diamond-x0587_0_A
     RDKit          3D

 14 14  0  0  0  0  0  0  0  0999 V2000
   -3.2590   15.1780    0.6620 N   0  0  0  0  0  0  0  0  0  0  0  0
   -3.9820   14.4480   -0.5780 S   0  0  0  0  0  0  0  0  0  0  0  0
   -4.1600   14.2070   -2.0130 O   0  0  0  0  0  0  0  0  0  0  0  0
   -3.0760   13.3150   -0.6430 F   0  0  0  0  0  0  0  0  0  0  0  0
   -3.5790   15.9560   -1.5200 F   0  0  0  0  0  0  0  0  0  0  0  0
   -5.5530   14.5780   -0.1660 C   0  0  0  0  0  0  0  0  0  0  0  0
   -6.4720   14.6220   -1.1910 C   0  0  0  0  0  0  0  0  0  0  0  0
   -6.1410   14.6560    1.0890 C   0  0  0  0  0  0  0  0  0  0  0  0
   -7.7600   14.7170   -1.0680 N   0  0  0  0  0  0  0  0  0  0  0  0
   -7.5250   14.7650    1.2390 C   0  0  0  0  0  0  0  0  0  0  0  0
   -8.1640   14.8680    2.5740 C   0  0  0  0  0  0  0  0  0  0  0  0
   -8.3110   14.7900    0.1290 C   0  0  0  0  0  0  0  0  0  0  0  0
   -7.5090   14.7000    3.8070 N   0  0  0  0  0  0  0  0  0  0  0  0
   -9.3930   15.1310    2.5870 O   0  0  0  0  0  0  0  0  0  0  0  0
  1  2  1  0
  2  3  2  0
  2  4  1  0
  2  5  1  0
  2  6  1  0
  6  7  2  0
  6  8  1  0
  7  9  1  0
  8 10  2  0
 10 11  1  0
  9 12  2  0
 10 12  1  0
 11 13  1  0
 11 14  2  0
M  END
