mac-x0223-diamond-x0711_0_A
     RDKit          3D

 24 25  0  0  0  0  0  0  0  0999 V2000
    1.2600   18.5000   -5.7960 C   0  0  0  0  0  0  0  0  0  0  0  0
    0.3000   18.3380   -4.8030 O   0  0  0  0  0  0  0  0  0  0  0  0
   -0.3440   17.1410   -4.7210 C   0  0  0  0  0  0  0  0  0  0  0  0
   -1.6940   17.0950   -4.8790 C   0  0  0  0  0  0  0  0  0  0  0  0
    0.2880   15.9660   -4.4800 C   0  0  0  0  0  0  0  0  0  0  0  0
   -2.3310   18.3050   -5.0880 O   0  0  0  0  0  0  0  0  0  0  0  0
   -2.3880   15.9200   -4.8180 C   0  0  0  0  0  0  0  0  0  0  0  0
   -0.3860   14.7700   -4.3940 C   0  0  0  0  0  0  0  0  0  0  0  0
    0.3050   13.5130   -4.0850 C   0  0  0  0  0  0  0  0  0  0  0  0
   -1.7530   14.7640   -4.5800 C   0  0  0  0  0  0  0  0  0  0  0  0
   -0.3770   12.8880   -2.8380 S   0  0  0  0  0  0  0  0  0  0  0  0
   -0.5890   12.1930   -1.4550 O   0  0  0  0  0  0  0  0  0  0  0  0
    1.2560   12.5740   -2.2210 O   0  0  0  0  0  0  0  0  0  0  0  0
   -1.1010   14.2650   -2.3030 N   0  0  0  0  0  0  0  0  0  0  0  0
   -1.1230   11.6720   -3.6060 C   0  0  0  0  0  0  0  0  0  0  0  0
   -2.4310   14.3880   -1.6650 C   0  0  0  0  0  0  0  0  0  0  0  0
   -3.5740   14.7320   -2.4000 C   0  0  0  0  0  0  0  0  0  0  0  0
   -2.5570   14.1690   -0.3270 C   0  0  0  0  0  0  0  0  0  0  0  0
   -4.8320   14.8450   -1.7870 C   0  0  0  0  0  0  0  0  0  0  0  0
   -3.8240   14.2840    0.2730 C   0  0  0  0  0  0  0  0  0  0  0  0
   -4.9590   14.6120   -0.4310 C   0  0  0  0  0  0  0  0  0  0  0  0
   -6.2600   14.7070    0.2370 C   0  0  0  0  0  0  0  0  0  0  0  0
   -6.3230   14.6990    1.6800 N   0  0  0  0  0  0  0  0  0  0  0  0
   -7.3580   14.7880   -0.3790 O   0  0  0  0  0  0  0  0  0  0  0  0
  1  2  1  0
  2  3  1  0
  3  4  2  0
  3  5  1  0
  4  6  1  0
  4  7  1  0
  5  8  2  0
  8  9  1  0
  7 10  2  0
  8 10  1  0
  9 11  1  0
 11 12  2  0
 11 13  1  0
 11 14  1  0
 11 15  1  0
 14 16  1  0
 16 17  2  0
 16 18  1  0
 17 19  1  0
 18 20  2  0
 19 21  2  0
 20 21  1  0
 21 22  1  0
 22 23  1  0
 22 24  2  0
M  END
