mac-x0441-mac-x0436
     RDKit          3D

 24 26  0  0  0  0  0  0  0  0999 V2000
    0.2230   10.8220   -3.3120 O   0  0  0  0  0  0  0  0  0  0  0  0
    0.7820   12.0520   -3.3310 C   0  0  0  0  0  0  0  0  0  0  0  0
    0.9720   12.6290   -2.2720 O   0  0  0  0  0  0  0  0  0  0  0  0
    1.1270   12.5720   -4.7100 C   0  0  2  0  0  0  0  0  0  0  0  0
    0.9640   14.0790   -4.7500 C   0  0  0  0  0  0  0  0  0  0  0  0
    0.5200   11.8610   -5.8440 N   0  0  0  0  0  0  0  0  0  0  0  0
    1.3030   11.7090   -6.9600 N   0  0  0  0  0  0  0  0  0  0  0  0
   -0.7310   11.2880   -6.0150 C   0  0  0  0  0  0  0  0  0  0  0  0
    0.5620   11.0310   -7.8550 C   0  0  0  0  0  0  0  0  0  0  0  0
   -0.6880   10.7760   -7.2880 C   0  0  0  0  0  0  0  0  0  0  0  0
   -1.9330   11.1490   -5.1610 C   0  0  0  0  0  0  0  0  0  0  0  0
    0.9580   10.5720   -9.2530 C   0  0  0  0  0  0  0  0  0  0  0  0
   -2.2030   11.9050   -4.2250 O   0  0  0  0  0  0  0  0  0  0  0  0
   -1.8410   10.0820   -7.8130 C   0  0  0  0  0  0  0  0  0  0  0  0
   -2.8580    9.9480   -5.5530 C   0  0  0  0  0  0  0  0  0  0  0  0
    1.5940    9.3710   -9.2690 F   0  0  0  0  0  0  0  0  0  0  0  0
   -0.1390   10.4100  -10.0310 F   0  0  0  0  0  0  0  0  0  0  0  0
    1.7260   11.4110   -9.9740 F   0  0  0  0  0  0  0  0  0  0  0  0
   -2.1240    9.1410   -6.6480 C   0  0  1  0  0  0  0  0  0  0  0  0
   -2.6590    7.9000   -7.3070 C   0  0  0  0  0  0  0  0  0  0  0  0
   -0.7320    8.7820   -6.1000 C   0  0  0  0  0  0  0  0  0  0  0  0
   -1.7820    7.2680   -8.1150 C   0  0  0  0  0  0  0  0  0  0  0  0
    0.1050    8.5300   -7.2950 C   0  0  0  0  0  0  0  0  0  0  0  0
   -0.4280    7.7940   -8.2720 C   0  0  0  0  0  0  0  0  0  0  0  0
  1  2  1  0
  2  3  2  0
  2  4  1  0
  4  5  1  1
  4  6  1  0
  6  7  1  0
  6  8  1  0
  7  9  2  0
  8 10  2  0
  9 10  1  0
  8 11  1  0
  9 12  1  0
 11 13  2  0
 10 14  1  0
 11 15  1  0
 12 16  1  0
 12 17  1  0
 12 18  1  0
 19 14  1  6
 15 19  1  0
 19 20  1  0
 19 21  1  0
 20 22  2  0
 21 23  1  0
 22 24  1  0
 23 24  2  0
M  END
