mac-x0375-diamond-x0910_0_A
     RDKit          3D

 20 21  0  0  0  0  0  0  0  0999 V2000
    2.1610   12.4110   -2.9690 O   0  0  0  0  0  0  0  0  0  0  0  0
    0.8230   12.2360   -3.3890 C   0  0  0  0  0  0  0  0  0  0  0  0
    0.5380   10.8600   -3.2160 O   0  0  0  0  0  0  0  0  0  0  0  0
    0.7420   12.6960   -4.8760 C   0  0  0  0  0  0  0  0  0  0  0  0
   -0.0390   13.0420   -2.4080 C   0  0  0  0  0  0  0  0  0  0  0  0
    0.7220   11.5790   -5.7710 O   0  0  0  0  0  0  0  0  0  0  0  0
   -1.4890   12.5890   -2.2780 C   0  0  0  0  0  0  0  0  0  0  0  0
   -2.4410   13.6920   -2.7420 C   0  0  0  0  0  0  0  0  0  0  0  0
   -0.4450   10.8800   -5.8830 C   0  0  0  0  0  0  0  0  0  0  0  0
   -2.7660   14.5710   -1.6280 N   0  0  0  0  0  0  0  0  0  0  0  0
   -0.3870    9.7500   -6.7090 C   0  0  0  0  0  0  0  0  0  0  0  0
   -1.6480   11.2010   -5.2550 C   0  0  0  0  0  0  0  0  0  0  0  0
   -1.5130    8.9510   -6.9000 C   0  0  0  0  0  0  0  0  0  0  0  0
   -2.7760   10.4030   -5.4470 C   0  0  0  0  0  0  0  0  0  0  0  0
   -1.8780   14.7050   -0.6200 C   0  0  0  0  0  0  0  0  0  0  0  0
   -2.7120    9.2750   -6.2690 C   0  0  0  0  0  0  0  0  0  0  0  0
   -2.2710   14.6940    0.6910 N   0  0  0  0  0  0  0  0  0  0  0  0
   -0.5760   14.8650   -0.6710 N   0  0  0  0  0  0  0  0  0  0  0  0
   -1.2210   14.8470    1.5090 N   0  0  0  0  0  0  0  0  0  0  0  0
   -0.2190   14.9510    0.6400 C   0  0  0  0  0  0  0  0  0  0  0  0
  2  1  1  0
  2  3  1  0
  2  4  1  0
  2  5  1  0
  4  6  1  0
  5  7  1  0
  7  8  1  0
  6  9  1  0
  8 10  1  0
  9 11  2  0
  9 12  1  0
 11 13  1  0
 12 14  2  0
 10 15  1  0
 13 16  2  0
 14 16  1  0
 15 17  1  0
 15 18  2  0
 17 19  1  0
 18 20  1  0
 19 20  2  0
M  END
