mac-x0402-mac-x0283
     RDKit          3D

 11 12  0  0  0  0  0  0  0  0999 V2000
   -1.7610   14.8580   -3.3920 Cl  0  0  0  0  0  0  0  0  0  0  0  0
   -3.0780   14.9020   -2.2800 C   0  0  0  0  0  0  0  0  0  0  0  0
   -4.3650   15.0220   -2.7810 C   0  0  0  0  0  0  0  0  0  0  0  0
   -2.8330   14.8160   -0.9050 C   0  0  0  0  0  0  0  0  0  0  0  0
   -3.9370   14.8500   -0.0490 C   0  0  0  0  0  0  0  0  0  0  0  0
   -5.4500   15.0550   -1.9130 C   0  0  0  0  0  0  0  0  0  0  0  0
   -5.2370   14.9650   -0.5320 C   0  0  0  0  0  0  0  0  0  0  0  0
   -4.0020   14.7680    1.6570 S   0  0  0  0  0  0  0  0  0  0  0  0
   -5.7160   14.8880    1.6020 C   0  0  0  0  0  0  0  0  0  0  0  0
   -6.2270   14.9810    0.4120 N   0  0  0  0  0  0  0  0  0  0  0  0
   -6.4920   14.8940    2.6970 N   0  0  0  0  0  0  0  0  0  0  0  0
  1  2  1  0
  2  3  2  0
  2  4  1  0
  4  5  2  0
  3  6  1  0
  5  7  1  0
  6  7  2  0
  5  8  1  0
  8  9  1  0
  7 10  1  0
  9 10  2  0
  9 11  1  0
M  END
