mac-x0226-mac-x0441
     RDKit          3D

 24 26  0  0  0  0  0  0  0  0999 V2000
    1.7550   12.1540   -3.8070 O   0  0  0  0  0  0  0  0  0  0  0  0
    0.3470   12.0830   -3.9440 C   0  0  0  0  0  0  0  0  0  0  0  0
   -0.0220   10.8990   -3.2590 O   0  0  0  0  0  0  0  0  0  0  0  0
   -0.1050   13.3290   -3.2020 C   0  0  0  0  0  0  0  0  0  0  0  0
   -0.0480   12.1260   -5.4520 C   0  0  1  0  0  0  0  0  0  0  0  0
    1.1350   12.0910   -6.4360 C   0  0  0  0  0  0  0  0  0  0  0  0
   -1.0700   11.1610   -6.1760 C   0  0  2  0  0  0  0  0  0  0  0  0
    0.5720   11.7540   -7.7580 N   0  0  0  0  0  0  0  0  0  0  0  0
   -0.8220   11.6570   -7.5610 N   0  0  0  0  0  0  0  0  0  0  0  0
   -2.5630   11.4650   -5.8620 C   0  0  0  0  0  0  0  0  0  0  0  0
   -0.7250    9.6830   -6.1730 C   0  0  0  0  0  0  0  0  0  0  0  0
    0.9460   10.4830   -8.4430 C   0  0  0  0  0  0  0  0  0  0  0  0
   -1.3410   11.0580   -8.7040 C   0  0  0  0  0  0  0  0  0  0  0  0
   -1.6430    8.7110   -6.1220 C   0  0  0  0  0  0  0  0  0  0  0  0
   -3.4850   10.2700   -5.9550 C   0  0  0  0  0  0  0  0  0  0  0  0
    1.7070    9.6730   -7.7050 F   0  0  0  0  0  0  0  0  0  0  0  0
   -0.1260    9.7170   -8.7390 F   0  0  0  0  0  0  0  0  0  0  0  0
    1.5570   10.6810   -9.6310 F   0  0  0  0  0  0  0  0  0  0  0  0
   -2.3510   10.0880   -8.6810 C   0  0  0  0  0  0  0  0  0  0  0  0
   -0.8340   11.4120   -9.9640 C   0  0  0  0  0  0  0  0  0  0  0  0
   -3.0440    9.0100   -6.0690 C   0  0  0  0  0  0  0  0  0  0  0  0
   -2.8290    9.4990   -9.8520 C   0  0  0  0  0  0  0  0  0  0  0  0
   -1.3030   10.8310  -11.1350 C   0  0  0  0  0  0  0  0  0  0  0  0
   -2.3020    9.8720  -11.0820 C   0  0  0  0  0  0  0  0  0  0  0  0
  2  1  1  0
  2  3  1  0
  2  4  1  0
  5  2  1  1
  5  6  1  0
  5  7  1  0
  6  8  1  0
  7  9  1  0
  8  9  1  0
  7 10  1  1
  7 11  1  0
  8 12  1  0
  9 13  1  0
 11 14  2  0
 10 15  1  0
 12 16  1  0
 12 17  1  0
 12 18  1  0
 13 19  2  0
 13 20  1  0
 14 21  1  0
 15 21  2  0
 19 22  1  0
 20 23  2  0
 22 24  2  0
 23 24  1  0
M  END
