mac-x0453-mac-x0337
     RDKit          3D

 18 19  0  0  0  0  0  0  0  0999 V2000
   -6.6360   14.1980    2.2020 N   0  0  0  0  0  0  0  0  0  0  0  0
   -5.4820   13.8550    1.3570 C   0  0  0  0  0  0  0  0  0  0  0  0
   -4.9950   14.8890    0.3180 C   0  0  2  0  0  0  0  0  0  0  0  0
   -4.5340   14.2930   -1.2760 S   0  0  0  0  0  0  0  0  0  0  0  0
   -3.6080   15.2610    0.1880 C   0  0  0  0  0  0  0  0  0  0  0  0
   -5.0170   15.1330   -2.3580 O   0  0  0  0  0  0  0  0  0  0  0  0
   -3.0850   14.1740   -1.1490 O   0  0  0  0  0  0  0  0  0  0  0  0
   -2.5090   15.2700    0.9740 C   0  0  0  0  0  0  0  0  0  0  0  0
   -3.3170   15.6800   -1.0900 N   0  0  0  0  0  0  0  0  0  0  0  0
   -4.9520   12.6370   -1.5070 C   0  0  0  0  0  0  0  0  0  0  0  0
   -1.5140   15.7020    0.1280 N   0  0  0  0  0  0  0  0  0  0  0  0
   -2.0570   15.9310   -1.0980 C   0  0  0  0  0  0  0  0  0  0  0  0
   -4.0550   11.8650   -2.2330 C   0  0  0  0  0  0  0  0  0  0  0  0
   -6.1210   12.1340   -0.9830 C   0  0  0  0  0  0  0  0  0  0  0  0
   -4.3470   10.5350   -2.4450 C   0  0  0  0  0  0  0  0  0  0  0  0
   -6.4100   10.8030   -1.1950 C   0  0  0  0  0  0  0  0  0  0  0  0
   -5.5290    9.9980   -1.9280 C   0  0  0  0  0  0  0  0  0  0  0  0
   -5.8550    8.5600   -2.1530 C   0  0  0  0  0  0  0  0  0  0  0  0
  1  2  1  0
  3  2  1  1
  3  4  1  0
  3  5  1  0
  4  6  2  0
  4  7  2  0
  5  8  2  0
  5  9  1  0
  4 10  1  0
  8 11  1  0
  9 12  2  0
 11 12  1  0
 10 13  2  0
 10 14  1  0
 13 15  1  0
 14 16  2  0
 15 17  2  0
 16 17  1  0
 17 18  1  0
M  END
