mac-x0124-diamond-x0727_0_A
     RDKit          3D

 26 28  0  0  0  0  0  0  0  0999 V2000
    0.3000   14.7720   -2.7810 C   0  0  0  0  0  0  0  0  0  0  0  0
   -0.9720   14.7740   -2.1040 N   0  0  0  0  0  0  0  0  0  0  0  0
   -2.2090   14.7800   -2.6760 C   0  0  0  0  0  0  0  0  0  0  0  0
   -1.0770   14.7670   -0.7690 C   0  0  0  0  0  0  0  0  0  0  0  0
   -2.3310   14.7340   -4.1450 C   0  0  0  0  0  0  0  0  0  0  0  0
   -3.1450   14.8160   -1.6480 C   0  0  0  0  0  0  0  0  0  0  0  0
   -2.4170   14.8010   -0.4210 C   0  0  0  0  0  0  0  0  0  0  0  0
   -0.0240   14.7330    0.0360 N   0  0  0  0  0  0  0  0  0  0  0  0
   -1.4730   13.5160   -4.5720 C   0  0  0  0  0  0  0  0  0  0  0  0
   -2.6910   14.8080    0.9410 C   0  0  0  0  0  0  0  0  0  0  0  0
   -0.4040   14.7200    1.3080 C   0  0  0  0  0  0  0  0  0  0  0  0
   -3.9780   14.8670    1.4580 N   0  0  0  0  0  0  0  0  0  0  0  0
   -0.6890   13.0280   -3.4230 O   0  0  0  0  0  0  0  0  0  0  0  0
   -1.6580   14.7500    1.8060 N   0  0  0  0  0  0  0  0  0  0  0  0
    0.2740   12.0940   -3.6870 C   0  0  0  0  0  0  0  0  0  0  0  0
    1.0350   12.4960   -4.9560 C   0  0  1  0  0  0  0  0  0  0  0  0
    0.4810   11.0870   -3.0080 O   0  0  0  0  0  0  0  0  0  0  0  0
    0.2640   12.1820   -6.1430 N   0  0  0  0  0  0  0  0  0  0  0  0
    1.2850   13.9910   -4.9550 C   0  0  0  0  0  0  0  0  0  0  0  0
    0.5570   11.1150   -6.9260 C   0  0  0  0  0  0  0  0  0  0  0  0
    1.6190   10.9520   -7.4730 O   0  0  0  0  0  0  0  0  0  0  0  0
   -0.5710   10.1290   -7.0420 C   0  0  0  0  0  0  0  0  0  0  0  0
   -1.2080   10.0240   -8.4110 C   0  0  0  0  0  0  0  0  0  0  0  0
   -0.2740    8.6870   -6.6910 C   0  0  0  0  0  0  0  0  0  0  0  0
   -2.1270    8.8130   -8.2490 C   0  0  0  0  0  0  0  0  0  0  0  0
   -1.5980    8.0330   -7.0370 C   0  0  0  0  0  0  0  0  0  0  0  0
  1  2  1  0
  2  3  1  0
  2  4  1  0
  3  5  1  0
  3  6  2  0
  4  7  2  0
  6  7  1  0
  4  8  1  0
  5  9  1  0
  7 10  1  0
  8 11  2  0
 10 12  1  0
  9 13  1  0
 10 14  2  0
 11 14  1  0
 13 15  1  0
 15 16  1  0
 15 17  2  0
 16 18  1  0
 16 19  1  1
 18 20  1  0
 20 21  2  0
 20 22  1  0
 22 23  1  0
 22 24  1  0
 23 25  1  0
 24 26  1  0
 25 26  1  0
M  END
