mac-x1493-diamond-x0962_0_A
     RDKit          3D

 13 14  0  0  0  0  0  0  0  0999 V2000
   -1.2340   14.7270   -1.6150 O   0  0  0  0  0  0  0  0  0  0  0  0
   -2.3050   14.8960   -2.4090 C   0  0  0  0  0  0  0  0  0  0  0  0
   -2.1870   15.0690   -3.6070 O   0  0  0  0  0  0  0  0  0  0  0  0
   -3.5750   14.8420   -1.6620 C   0  0  0  0  0  0  0  0  0  0  0  0
   -3.6660   14.9640   -0.2750 C   0  0  0  0  0  0  0  0  0  0  0  0
   -4.7460   14.6540   -2.3730 C   0  0  0  0  0  0  0  0  0  0  0  0
   -4.9210   14.8800    0.3410 C   0  0  0  0  0  0  0  0  0  0  0  0
   -5.9730   14.5700   -1.8100 N   0  0  0  0  0  0  0  0  0  0  0  0
   -6.0570   14.6760   -0.4730 C   0  0  0  0  0  0  0  0  0  0  0  0
   -5.0690   14.9880    1.7280 C   0  0  0  0  0  0  0  0  0  0  0  0
   -7.3010   14.5790    0.1330 C   0  0  0  0  0  0  0  0  0  0  0  0
   -6.3320   14.8880    2.3110 C   0  0  0  0  0  0  0  0  0  0  0  0
   -7.4500   14.6800    1.5160 C   0  0  0  0  0  0  0  0  0  0  0  0
  1  2  1  0
  2  3  2  0
  2  4  1  0
  4  5  2  0
  4  6  1  0
  5  7  1  0
  6  8  2  0
  7  9  2  0
  8  9  1  0
  7 10  1  0
  9 11  1  0
 10 12  2  0
 11 13  2  0
 12 13  1  0
M  END
