mac-x0588-diamond-x0465_0_A
     RDKit          3D

 30 33  0  0  0  0  0  0  0  0999 V2000
   -4.6870   15.2870    1.1230 N   0  0  0  0  0  0  0  0  0  0  0  0
   -3.7020   14.8170    0.1640 C   0  0  2  0  0  0  0  0  0  0  0  0
   -2.2730   15.2430    0.5420 C   0  0  2  0  0  0  0  0  0  0  0  0
   -4.1090   15.4160   -1.1110 N   0  0  0  0  0  0  0  0  0  0  0  0
   -3.1180   15.2070   -2.2070 C   0  0  0  0  0  0  0  0  0  0  0  0
   -1.4220   14.8780   -0.6270 C   0  0  1  0  0  0  0  0  0  0  0  0
   -1.6040   14.4800    1.6140 N   0  0  0  0  0  0  0  0  0  0  0  0
   -1.7580   15.5930   -1.8000 N   0  0  0  0  0  0  0  0  0  0  0  0
   -0.1150   15.1750   -0.0730 N   0  0  0  0  0  0  0  0  0  0  0  0
   -0.2020   14.4170    1.1660 C   0  0  0  0  0  0  0  0  0  0  0  0
   -0.7230   15.5120   -2.8640 C   0  0  1  0  0  0  0  0  0  0  0  0
   -0.9750   14.2150   -3.6690 C   0  0  0  0  0  0  0  0  0  0  0  0
   -0.4170   16.7600   -3.7410 C   0  0  2  0  0  0  0  0  0  0  0  0
   -0.4260   13.0930   -2.8980 N   0  0  0  0  0  0  0  0  0  0  0  0
   -1.5550   17.3940   -4.3700 O   0  0  0  0  0  0  0  0  0  0  0  0
    0.5620   16.4940   -4.8720 C   0  0  0  0  0  0  0  0  0  0  0  0
    0.3960   12.3010   -3.4270 C   0  0  0  0  0  0  0  0  0  0  0  0
    0.4710   17.8220   -5.5700 C   0  0  0  0  0  0  0  0  0  0  0  0
   -1.0150   18.1350   -5.4720 C   0  0  0  0  0  0  0  0  0  0  0  0
    0.8410   12.5310   -4.8690 C   0  0  1  0  0  0  0  0  0  0  0  0
    0.9340   11.2320   -2.8070 O   0  0  0  0  0  0  0  0  0  0  0  0
    2.3080   12.9580   -4.8490 C   0  0  0  0  0  0  0  0  0  0  0  0
    0.6810   11.4000   -5.7080 O   0  0  0  0  0  0  0  0  0  0  0  0
   -0.5430   10.7850   -5.7560 C   0  0  0  0  0  0  0  0  0  0  0  0
   -0.6460    9.7010   -6.6380 C   0  0  0  0  0  0  0  0  0  0  0  0
   -1.6690   11.1440   -5.0120 C   0  0  0  0  0  0  0  0  0  0  0  0
    0.4070    9.3190   -7.3780 F   0  0  0  0  0  0  0  0  0  0  0  0
   -1.8320    8.9900   -6.7770 C   0  0  0  0  0  0  0  0  0  0  0  0
   -2.8650   10.4320   -5.1490 C   0  0  0  0  0  0  0  0  0  0  0  0
   -2.9470    9.3550   -6.0290 C   0  0  0  0  0  0  0  0  0  0  0  0
  2  1  1  1
  2  3  1  0
  2  4  1  0
  4  5  1  0
  3  6  1  0
  3  7  1  1
  5  8  1  0
  6  8  1  0
  6  9  1  1
  7 10  1  0
  9 10  1  0
  8 11  1  0
 11 12  1  6
 11 13  1  0
 12 14  1  0
 13 15  1  0
 13 16  1  6
 14 17  2  3
 16 18  1  0
 15 19  1  0
 18 19  1  0
 17 20  1  0
 17 21  1  0
 20 22  1  1
 20 23  1  0
 23 24  1  0
 24 25  2  0
 24 26  1  0
 25 27  1  0
 25 28  1  0
 26 29  2  0
 28 30  2  0
 29 30  1  0
M  END
