mac-x0277-diamond-x0524_0_A
     RDKit          3D

 31 33  0  0  0  0  0  0  0  0999 V2000
   -1.3460   18.5240   -5.1660 Cl  0  0  0  0  0  0  0  0  0  0  0  0
   -0.6370   16.9720   -4.9320 C   0  0  0  0  0  0  0  0  0  0  0  0
   -1.3770   15.7960   -5.0500 C   0  0  0  0  0  0  0  0  0  0  0  0
    0.7200   16.9110   -4.6190 C   0  0  0  0  0  0  0  0  0  0  0  0
   -3.0600   15.7770   -5.4280 Cl  0  0  0  0  0  0  0  0  0  0  0  0
   -0.7530   14.5690   -4.8660 C   0  0  0  0  0  0  0  0  0  0  0  0
    1.3380   15.6730   -4.4330 C   0  0  0  0  0  0  0  0  0  0  0  0
    0.6090   14.4940   -4.5600 C   0  0  0  0  0  0  0  0  0  0  0  0
    1.2170   13.1250   -4.3950 C   0  0  1  0  0  0  0  0  0  0  0  0
    0.8620   12.3910   -3.1030 C   0  0  0  0  0  0  0  0  0  0  0  0
    1.0290   12.3600   -5.7290 C   0  0  0  0  0  0  0  0  0  0  0  0
    0.2170   11.2210   -3.2650 O   0  0  0  0  0  0  0  0  0  0  0  0
    1.1030   12.7790   -1.9680 O   0  0  0  0  0  0  0  0  0  0  0  0
   -0.1730   11.4310   -5.9380 C   0  0  0  0  0  0  0  0  0  0  0  0
    0.0580   10.5000   -7.0370 N   0  0  0  0  0  0  0  0  0  0  0  0
   -0.6700    9.4550   -7.2130 C   0  0  0  0  0  0  0  0  0  0  0  0
   -0.5290    8.5000   -8.1950 N   0  0  0  0  0  0  0  0  0  0  0  0
   -1.8090    9.2410   -6.2300 C   0  0  0  0  0  0  0  0  0  0  0  0
    0.5150    8.5860   -9.1600 C   0  0  0  0  0  0  0  0  0  0  0  0
    1.6500    7.7870   -9.0030 C   0  0  0  0  0  0  0  0  0  0  0  0
    0.4540    9.4340  -10.2660 C   0  0  0  0  0  0  0  0  0  0  0  0
    2.6950    7.8370   -9.9370 C   0  0  0  0  0  0  0  0  0  0  0  0
    1.4960    9.4820  -11.1960 C   0  0  0  0  0  0  0  0  0  0  0  0
    2.6320    8.6870  -11.0520 C   0  0  0  0  0  0  0  0  0  0  0  0
    3.6960    8.7070  -11.9630 N   0  0  0  0  0  0  0  0  0  0  0  0
    3.9970    9.5450  -13.0520 C   0  0  0  0  0  0  0  0  0  0  0  0
    3.2300   10.7020  -13.2800 C   0  0  0  0  0  0  0  0  0  0  0  0
    5.0430    9.2690  -13.9310 C   0  0  0  0  0  0  0  0  0  0  0  0
    3.5060   11.5480  -14.3540 C   0  0  0  0  0  0  0  0  0  0  0  0
    5.3220   10.1120  -15.0060 C   0  0  0  0  0  0  0  0  0  0  0  0
    4.5550   11.2530  -15.2190 C   0  0  0  0  0  0  0  0  0  0  0  0
  1  2  1  0
  2  3  2  0
  2  4  1  0
  3  5  1  0
  3  6  1  0
  4  7  2  0
  6  8  2  0
  7  8  1  0
  8  9  1  0
  9 10  1  0
  9 11  1  6
 10 12  1  0
 10 13  2  0
 11 14  1  0
 14 15  1  0
 15 16  2  3
 16 17  1  0
 16 18  1  0
 17 19  1  0
 19 20  2  0
 19 21  1  0
 20 22  1  0
 21 23  2  0
 22 24  2  0
 23 24  1  0
 24 25  1  0
 25 26  1  0
 26 27  2  0
 26 28  1  0
 27 29  1  0
 28 30  2  0
 29 31  2  0
 30 31  1  0
M  END
