mac-x0223-mac-x0398
     RDKit          3D

 24 25  0  0  0  0  0  0  0  0999 V2000
    1.2830   18.4800   -5.8070 C   0  0  0  0  0  0  0  0  0  0  0  0
   -0.0000   17.9680   -6.0110 O   0  0  0  0  0  0  0  0  0  0  0  0
   -0.2540   16.8110   -5.3520 C   0  0  0  0  0  0  0  0  0  0  0  0
   -1.4320   16.8070   -4.6700 C   0  0  0  0  0  0  0  0  0  0  0  0
    0.5600   15.6700   -5.3070 C   0  0  0  0  0  0  0  0  0  0  0  0
   -2.2420   17.9220   -4.7000 O   0  0  0  0  0  0  0  0  0  0  0  0
   -1.8030   15.6840   -3.9360 C   0  0  0  0  0  0  0  0  0  0  0  0
    0.1680   14.5280   -4.5770 C   0  0  0  0  0  0  0  0  0  0  0  0
    1.0070   13.2760   -4.5020 C   0  0  0  0  0  0  0  0  0  0  0  0
   -2.9980   15.8370   -3.2490 O   0  0  0  0  0  0  0  0  0  0  0  0
   -1.0330   14.5500   -3.8870 C   0  0  0  0  0  0  0  0  0  0  0  0
    0.6920   12.4660   -3.2600 C   0  0  0  0  0  0  0  0  0  0  0  0
   -4.0080   14.9610   -3.1220 C   0  0  0  0  0  0  0  0  0  0  0  0
    0.2190   11.3430   -3.1800 O   0  0  0  0  0  0  0  0  0  0  0  0
    0.9910   13.1440   -2.1290 O   0  0  0  0  0  0  0  0  0  0  0  0
   -4.4280   14.2530   -4.0090 O   0  0  0  0  0  0  0  0  0  0  0  0
   -4.5800   14.9660   -1.7510 C   0  0  0  0  0  0  0  0  0  0  0  0
   -5.9560   14.9690   -1.5620 C   0  0  0  0  0  0  0  0  0  0  0  0
   -3.7280   14.9560   -0.6180 C   0  0  0  0  0  0  0  0  0  0  0  0
   -6.8180   14.9760   -2.6400 O   0  0  0  0  0  0  0  0  0  0  0  0
   -6.4920   14.9520   -0.2830 C   0  0  0  0  0  0  0  0  0  0  0  0
   -4.2790   14.9380    0.6730 C   0  0  0  0  0  0  0  0  0  0  0  0
   -5.6720   14.9310    0.8430 C   0  0  0  0  0  0  0  0  0  0  0  0
   -6.2700   14.9020    2.1030 N   0  0  0  0  0  0  0  0  0  0  0  0
  1  2  1  0
  2  3  1  0
  3  4  2  0
  3  5  1  0
  4  6  1  0
  4  7  1  0
  5  8  2  0
  8  9  1  0
  7 10  1  0
  7 11  2  0
  8 11  1  0
  9 12  1  0
 10 13  1  0
 12 14  2  0
 12 15  1  0
 13 16  2  0
 13 17  1  0
 17 18  2  0
 17 19  1  0
 18 20  1  0
 18 21  1  0
 19 22  2  0
 21 23  2  0
 22 23  1  0
 23 24  1  0
M  END
