mac-x0385-diamond-x0895_0_A
     RDKit          3D

 10 10  0  0  0  0  0  0  0  0999 V2000
   -5.2370   15.6160   -0.8930 C   0  0  0  0  0  0  0  0  0  0  0  0
   -3.8240   15.2820   -0.5420 C   0  0  0  0  0  0  0  0  0  0  0  0
   -2.9060   15.0150   -1.5430 C   0  0  0  0  0  0  0  0  0  0  0  0
   -3.3740   15.2250    0.7840 C   0  0  0  0  0  0  0  0  0  0  0  0
   -4.2800   15.5020    1.8490 N   0  0  0  0  0  0  0  0  0  0  0  0
   -2.0170   14.8980    1.0200 N   0  0  0  0  0  0  0  0  0  0  0  0
   -1.6140   14.7110   -1.3270 N   0  0  0  0  0  0  0  0  0  0  0  0
   -1.5040   14.8070    2.1660 O   0  0  0  0  0  0  0  0  0  0  0  0
   -1.1930   14.6620   -0.0390 C   0  0  0  0  0  0  0  0  0  0  0  0
    0.2100   14.3500    0.2900 C   0  0  0  0  0  0  0  0  0  0  0  0
  1  2  1  0
  2  3  2  0
  2  4  1  0
  4  5  1  0
  4  6  2  0
  3  7  1  0
  6  8  1  0
  6  9  1  0
  7  9  2  0
  9 10  1  0
M  CHG  2   6   1   8  -1
M  END
