mac-x0451-mac-x0415
     RDKit          3D

 25 28  0  0  0  0  0  0  0  0999 V2000
   -6.2750   14.9480    2.8330 N   0  0  0  0  0  0  0  0  0  0  0  0
   -5.5290   14.8140    1.7130 C   0  0  0  0  0  0  0  0  0  0  0  0
   -6.0290   15.0420    0.5300 N   0  0  0  0  0  0  0  0  0  0  0  0
   -3.8760   14.3410    1.7160 S   0  0  0  0  0  0  0  0  0  0  0  0
   -5.0870   14.8370   -0.4490 C   0  0  0  0  0  0  0  0  0  0  0  0
   -3.8310   14.4310   -0.0070 C   0  0  0  0  0  0  0  0  0  0  0  0
   -5.3040   14.9970   -1.8240 C   0  0  0  0  0  0  0  0  0  0  0  0
   -2.7730   14.1540   -0.9040 C   0  0  0  0  0  0  0  0  0  0  0  0
   -4.2760   14.7230   -2.7240 C   0  0  0  0  0  0  0  0  0  0  0  0
   -3.0250   14.2950   -2.2930 C   0  0  0  0  0  0  0  0  0  0  0  0
   -2.0980   14.0140   -3.3190 O   0  0  0  0  0  0  0  0  0  0  0  0
   -1.7360   14.9890   -4.2240 C   0  0  0  0  0  0  0  0  0  0  0  0
   -0.3640   15.3080   -4.2510 C   0  0  0  0  0  0  0  0  0  0  0  0
   -2.4900   15.6430   -5.1250 C   0  0  0  0  0  0  0  0  0  0  0  0
   -4.2520   15.1800   -5.4790 Br  0  0  0  0  0  0  0  0  0  0  0  0
    0.6850   14.4730   -4.2540 C   0  0  0  0  0  0  0  0  0  0  0  0
    0.0130   16.7300   -4.3820 C   0  0  1  0  0  0  0  0  0  0  0  0
   -1.9160   16.7670   -5.8840 C   0  0  0  0  0  0  0  0  0  0  0  0
    0.8910   13.0030   -4.2240 C   0  0  0  0  0  0  0  0  0  0  0  0
    1.7490   15.4320   -4.3550 C   0  0  0  0  0  0  0  0  0  0  0  0
    1.4310   16.6790   -4.4560 N   0  0  0  0  0  0  0  0  0  0  0  0
   -0.7190   17.3040   -5.5400 C   0  0  0  0  0  0  0  0  0  0  0  0
    0.7690   12.4350   -2.8330 C   0  0  0  0  0  0  0  0  0  0  0  0
    0.2840   11.1750   -2.8030 O   0  0  0  0  0  0  0  0  0  0  0  0
    1.0760   13.0340   -1.8190 O   0  0  0  0  0  0  0  0  0  0  0  0
  1  2  1  0
  2  3  2  0
  2  4  1  0
  3  5  1  0
  4  6  1  0
  5  6  2  0
  5  7  1  0
  6  8  1  0
  7  9  2  0
  8 10  2  0
  9 10  1  0
 10 11  1  0
 11 12  1  0
 12 13  1  0
 12 14  2  0
 14 15  1  0
 13 16  2  0
 13 17  1  0
 14 18  1  0
 16 19  1  0
 16 20  1  0
 17 21  1  0
 20 21  2  0
 17 22  1  6
 18 22  2  0
 19 23  1  0
 23 24  1  0
 23 25  2  0
M  END
