mac-x0321-mac-x0441
     RDKit          3D

 28 30  0  0  0  0  0  0  0  0999 V2000
   -4.3620   15.4840    1.6580 Cl  0  0  0  0  0  0  0  0  0  0  0  0
   -4.3660   15.3340   -0.0410 C   0  0  0  0  0  0  0  0  0  0  0  0
   -3.1650   15.0770   -0.6760 C   0  0  0  0  0  0  0  0  0  0  0  0
   -5.5460   15.4700   -0.7630 C   0  0  0  0  0  0  0  0  0  0  0  0
   -3.1300   14.9580   -2.0640 C   0  0  0  0  0  0  0  0  0  0  0  0
   -5.5260   15.3520   -2.1430 C   0  0  0  0  0  0  0  0  0  0  0  0
   -1.8650   14.6910   -2.7960 C   0  0  0  0  0  0  0  0  0  0  0  0
   -4.3150   15.0960   -2.7980 C   0  0  0  0  0  0  0  0  0  0  0  0
   -0.8040   14.7850   -1.9490 O   0  0  0  0  0  0  0  0  0  0  0  0
   -1.8210   14.4370   -3.9840 O   0  0  0  0  0  0  0  0  0  0  0  0
    0.4590   14.3520   -2.4870 C   0  0  0  0  0  0  0  0  0  0  0  0
    0.6650   12.9070   -2.4370 N   0  0  0  0  0  0  0  0  0  0  0  0
    0.7200   12.2030   -3.5090 C   0  0  0  0  0  0  0  0  0  0  0  0
    0.8970   10.8830   -3.4870 O   0  0  0  0  0  0  0  0  0  0  0  0
    0.5820   12.8170   -4.8870 C   0  0  0  0  0  0  0  0  0  0  0  0
    0.2070   11.9090   -5.9720 N   0  0  0  0  0  0  0  0  0  0  0  0
    1.0020   11.8570   -7.0780 N   0  0  0  0  0  0  0  0  0  0  0  0
   -0.8630   11.0570   -6.0830 C   0  0  0  0  0  0  0  0  0  0  0  0
    0.4190   10.9580   -7.9060 C   0  0  0  0  0  0  0  0  0  0  0  0
   -0.7510   10.4450   -7.3120 C   0  0  0  0  0  0  0  0  0  0  0  0
   -1.9560   10.8070   -5.0950 C   0  0  0  0  0  0  0  0  0  0  0  0
    0.9060   10.5280   -9.2730 C   0  0  0  0  0  0  0  0  0  0  0  0
   -1.7160    9.4390   -7.8210 C   0  0  0  0  0  0  0  0  0  0  0  0
   -3.0350    9.8770   -5.6980 C   0  0  0  0  0  0  0  0  0  0  0  0
    1.5620    9.3360   -9.2190 F   0  0  0  0  0  0  0  0  0  0  0  0
   -0.1370   10.3150  -10.1070 F   0  0  0  0  0  0  0  0  0  0  0  0
    1.7030   11.3700   -9.9530 F   0  0  0  0  0  0  0  0  0  0  0  0
   -2.4640    8.8000   -6.6390 C   0  0  0  0  0  0  0  0  0  0  0  0
  1  2  1  0
  2  3  2  0
  2  4  1  0
  3  5  1  0
  4  6  2  0
  5  7  1  0
  5  8  2  0
  6  8  1  0
  7  9  1  0
  7 10  2  0
  9 11  1  0
 11 12  1  0
 12 13  2  3
 13 14  1  0
 13 15  1  0
 15 16  1  0
 16 17  1  0
 16 18  1  0
 17 19  2  0
 18 20  2  0
 19 20  1  0
 18 21  1  0
 19 22  1  0
 20 23  1  0
 21 24  1  0
 22 25  1  0
 22 26  1  0
 22 27  1  0
 23 28  1  0
 24 28  1  0
M  END
