mac-x0271-mac-x0159
     RDKit          3D

 28 32  0  0  0  0  0  0  0  0999 V2000
   -5.0190   14.5630   -3.8620 O   0  0  0  0  0  0  0  0  0  0  0  0
   -5.2530   14.6730   -2.5290 C   0  0  0  0  0  0  0  0  0  0  0  0
   -4.2780   15.1220   -1.7180 C   0  0  0  0  0  0  0  0  0  0  0  0
   -6.4710   14.3360   -2.0190 C   0  0  0  0  0  0  0  0  0  0  0  0
   -6.6620   14.4610   -0.6490 C   0  0  0  0  0  0  0  0  0  0  0  0
   -4.4170   15.2690   -0.3570 C   0  0  0  0  0  0  0  0  0  0  0  0
   -5.6660   14.9140    0.2390 C   0  0  0  0  0  0  0  0  0  0  0  0
   -7.9440   14.1040   -0.2050 O   0  0  0  0  0  0  0  0  0  0  0  0
   -3.1190   15.8410    0.1340 C   0  0  2  0  0  0  0  0  0  0  0  0
   -6.0690   14.9720    1.6420 C   0  0  0  0  0  0  0  0  0  0  0  0
   -8.4050   14.5940    0.9900 C   0  0  0  0  0  0  0  0  0  0  0  0
   -2.8450   16.3110   -1.2030 N   0  0  0  0  0  0  0  0  0  0  0  0
   -1.7450   15.2950    0.5560 C   0  0  2  0  0  0  0  0  0  0  0  0
   -9.5860   14.8460    1.2000 O   0  0  0  0  0  0  0  0  0  0  0  0
   -7.3590   14.8150    2.0020 C   0  0  0  0  0  0  0  0  0  0  0  0
   -2.5630   15.3050   -2.1920 C   0  0  0  0  0  0  0  0  0  0  0  0
   -0.7630   15.1500   -0.6690 C   0  0  2  0  0  0  0  0  0  0  0  0
   -1.5640   14.0650    1.3010 N   0  0  0  0  0  0  0  0  0  0  0  0
   -1.2990   14.7460   -1.9570 N   0  0  0  0  0  0  0  0  0  0  0  0
    0.1090   14.0720   -0.2200 N   0  0  0  0  0  0  0  0  0  0  0  0
   -0.1280   14.0180    1.2030 C   0  0  0  0  0  0  0  0  0  0  0  0
   -0.4090   14.6310   -3.1090 C   0  0  0  0  0  0  0  0  0  0  0  0
   -0.1880   15.8740   -3.9550 C   0  0  0  0  0  0  0  0  0  0  0  0
    1.0360   16.4720   -4.1560 C   0  0  0  0  0  0  0  0  0  0  0  0
   -1.2440   16.5190   -4.6180 N   0  0  0  0  0  0  0  0  0  0  0  0
   -0.7900   17.5690   -5.2860 C   0  0  0  0  0  0  0  0  0  0  0  0
    0.8890   17.8470   -5.1680 S   0  0  0  0  0  0  0  0  0  0  0  0
   -1.6160   18.4960   -6.1100 C   0  0  0  0  0  0  0  0  0  0  0  0
  1  2  1  0
  2  3  2  0
  2  4  1  0
  4  5  2  0
  3  6  1  0
  5  7  1  0
  6  7  2  0
  5  8  1  0
  9  6  1  6
  7 10  1  0
  8 11  1  0
  9 12  1  0
  9 13  1  0
 11 14  2  0
 10 15  2  0
 11 15  1  0
 12 16  1  0
 13 17  1  0
 13 18  1  6
 16 19  1  0
 17 19  1  0
 17 20  1  1
 18 21  1  0
 20 21  1  0
 19 22  1  0
 22 23  1  0
 23 24  2  0
 23 25  1  0
 25 26  2  0
 24 27  1  0
 26 27  1  0
 26 28  1  0
M  END
