mac-x0305-mac-x0411
     RDKit          3D

 24 25  0  0  0  0  0  0  0  0999 V2000
    0.2150   13.1720   -0.4070 O   0  0  0  0  0  0  0  0  0  0  0  0
   -0.3740   14.0200   -1.2880 C   0  0  0  0  0  0  0  0  0  0  0  0
    0.1470   14.3670   -2.4280 N   0  0  0  0  0  0  0  0  0  0  0  0
   -1.6980   14.5390   -0.8240 C   0  0  0  0  0  0  0  0  0  0  0  0
    1.4770   13.8100   -2.7440 C   0  0  0  0  0  0  0  0  0  0  0  0
   -1.9980   14.7820    0.5340 C   0  0  0  0  0  0  0  0  0  0  0  0
   -2.5830   14.7620   -1.8480 N   0  0  0  0  0  0  0  0  0  0  0  0
   -1.1530   14.5810    1.6030 O   0  0  0  0  0  0  0  0  0  0  0  0
    1.5680   12.3880   -2.7590 O   0  0  0  0  0  0  0  0  0  0  0  0
   -3.2660   15.2740    0.8270 C   0  0  0  0  0  0  0  0  0  0  0  0
   -3.7980   15.2430   -1.5060 C   0  0  0  0  0  0  0  0  0  0  0  0
    0.8410   11.7470   -3.7150 C   0  0  0  0  0  0  0  0  0  0  0  0
   -4.1770   15.5100   -0.2020 C   0  0  0  0  0  0  0  0  0  0  0  0
    0.2190   10.7170   -3.5030 O   0  0  0  0  0  0  0  0  0  0  0  0
    0.9170   12.4360   -5.0780 C   0  0  0  0  0  0  0  0  0  0  0  0
    0.6540   11.5420   -6.1850 O   0  0  0  0  0  0  0  0  0  0  0  0
   -0.5130   10.7920   -6.1310 C   0  0  0  0  0  0  0  0  0  0  0  0
   -1.6540   11.1940   -5.4020 C   0  0  0  0  0  0  0  0  0  0  0  0
   -0.5770    9.5730   -6.8380 C   0  0  0  0  0  0  0  0  0  0  0  0
    0.7370    8.9830   -7.7860 Cl  0  0  0  0  0  0  0  0  0  0  0  0
   -1.7360   12.6620   -4.5020 Cl  0  0  0  0  0  0  0  0  0  0  0  0
   -2.8000   10.3930   -5.3800 C   0  0  0  0  0  0  0  0  0  0  0  0
   -1.7270    8.7820   -6.8070 C   0  0  0  0  0  0  0  0  0  0  0  0
   -2.8380    9.1910   -6.0780 C   0  0  0  0  0  0  0  0  0  0  0  0
  1  2  1  0
  2  3  2  3
  2  4  1  0
  3  5  1  0
  4  6  2  0
  4  7  1  0
  6  8  1  0
  5  9  1  0
  6 10  1  0
  7 11  2  0
  9 12  1  0
 10 13  2  0
 11 13  1  0
 12 14  2  0
 12 15  1  0
 15 16  1  0
 16 17  1  0
 17 18  2  0
 17 19  1  0
 19 20  1  0
 18 21  1  0
 18 22  1  0
 19 23  2  0
 22 24  2  0
 23 24  1  0
M  END
