mac-x0277-mac-x0453
     RDKit          3D

 22 23  0  0  0  0  0  0  0  0999 V2000
   -1.2700   18.4130   -5.2070 Cl  0  0  0  0  0  0  0  0  0  0  0  0
   -0.5540   16.8620   -4.9560 C   0  0  0  0  0  0  0  0  0  0  0  0
   -1.2870   15.6830   -5.1020 C   0  0  0  0  0  0  0  0  0  0  0  0
    0.7920   16.8160   -4.6010 C   0  0  0  0  0  0  0  0  0  0  0  0
   -2.7490   15.6470   -5.4770 C   0  0  0  0  0  0  0  0  0  0  0  0
   -0.6280   14.4550   -4.8880 C   0  0  0  0  0  0  0  0  0  0  0  0
    1.4290   15.5860   -4.3890 C   0  0  0  0  0  0  0  0  0  0  0  0
   -3.6490   15.3000   -4.2930 C   0  0  0  0  0  0  0  0  0  0  0  0
    0.7220   14.3940   -4.5340 C   0  0  0  0  0  0  0  0  0  0  0  0
    1.3830   13.0520   -4.3100 C   0  0  0  0  0  0  0  0  0  0  0  0
   -3.1330   14.1970   -3.3890 C   0  0  0  0  0  0  0  0  0  0  0  0
    0.9690   12.4030   -3.0060 C   0  0  0  0  0  0  0  0  0  0  0  0
   -3.3590   14.4180   -1.9400 C   0  0  0  0  0  0  0  0  0  0  0  0
    0.2610   11.2690   -3.1950 O   0  0  0  0  0  0  0  0  0  0  0  0
    1.2030   12.7880   -1.8700 O   0  0  0  0  0  0  0  0  0  0  0  0
   -2.3580   14.5160   -1.0060 N   0  0  0  0  0  0  0  0  0  0  0  0
   -4.5350   14.5420   -1.3700 N   0  0  0  0  0  0  0  0  0  0  0  0
   -4.2900   14.7170   -0.0380 C   0  0  0  0  0  0  0  0  0  0  0  0
   -2.9420   14.7080    0.2120 C   0  0  0  0  0  0  0  0  0  0  0  0
   -5.4230   14.8770    0.8900 C   0  0  0  0  0  0  0  0  0  0  0  0
   -6.0990   13.5650    1.2870 C   0  0  0  0  0  0  0  0  0  0  0  0
   -6.9700   13.7240    2.4560 N   0  0  0  0  0  0  0  0  0  0  0  0
  1  2  1  0
  2  3  2  0
  2  4  1  0
  3  5  1  0
  3  6  1  0
  4  7  2  0
  5  8  1  0
  6  9  2  0
  7  9  1  0
  9 10  1  0
  8 11  1  0
 10 12  1  0
 11 13  1  0
 12 14  1  0
 12 15  2  0
 13 16  1  0
 13 17  2  0
 17 18  1  0
 16 19  1  0
 18 19  2  0
 18 20  1  0
 20 21  1  0
 21 22  1  0
M  END
