mac-x0284-diamond-x0837_0_A
     RDKit          3D

 18 19  0  0  0  0  0  0  0  0999 V2000
   -2.1540   14.6370    1.5790 C   0  0  0  0  0  0  0  0  0  0  0  0
   -2.1820   14.6930    0.1130 C   0  0  0  0  0  0  0  0  0  0  0  0
   -3.3400   14.9580   -0.4240 C   0  0  0  0  0  0  0  0  0  0  0  0
   -1.1120   14.4980   -0.7130 C   0  0  0  0  0  0  0  0  0  0  0  0
   -1.2650   14.5780   -2.1020 C   0  0  0  0  0  0  0  0  0  0  0  0
   -3.5820   15.0570   -1.7360 C   0  0  0  0  0  0  0  0  0  0  0  0
   -0.0210   14.3570   -2.8450 C   0  0  0  0  0  0  0  0  0  0  0  0
   -2.5440   14.8630   -2.6880 C   0  0  0  0  0  0  0  0  0  0  0  0
   -4.9990   15.3780   -1.5180 C   0  0  2  0  0  0  0  0  0  0  0  0
   -2.7580   14.9580   -4.0450 O   0  0  0  0  0  0  0  0  0  0  0  0
    1.0380   14.1540   -2.2750 O   0  0  0  0  0  0  0  0  0  0  0  0
   -0.1120   14.4020   -4.1730 O   0  0  0  0  0  0  0  0  0  0  0  0
   -4.6530   15.8000   -0.0760 C   0  0  0  0  0  0  0  0  0  0  0  0
   -6.0870   14.3150   -1.5240 C   0  0  0  0  0  0  0  0  0  0  0  0
   -5.1890   15.2960    1.0370 C   0  0  0  0  0  0  0  0  0  0  0  0
   -6.8680   14.2920   -0.2180 C   0  0  0  0  0  0  0  0  0  0  0  0
   -8.0900   14.2350   -0.1690 O   0  0  0  0  0  0  0  0  0  0  0  0
   -6.1380   14.3700    0.9210 N   0  0  0  0  0  0  0  0  0  0  0  0
  1  2  1  0
  2  3  2  0
  2  4  1  0
  4  5  2  0
  3  6  1  0
  5  7  1  0
  5  8  1  0
  6  8  2  0
  9  6  1  1
  8 10  1  0
  7 11  2  0
  7 12  1  0
  9 13  1  0
  9 14  1  0
 13 15  2  0
 14 16  1  0
 16 17  2  0
 15 18  1  0
 16 18  1  0
M  END
