mac-x0584-mac-x0568
     RDKit          3D

 28 32  0  0  0  0  0  0  0  0999 V2000
   -8.4360   14.6690    1.0780 C   0  0  0  0  0  0  0  0  0  0  0  0
   -7.0670   14.4270    0.5070 C   0  0  0  0  0  0  0  0  0  0  0  0
   -6.0740   13.8950    1.3060 C   0  0  0  0  0  0  0  0  0  0  0  0
   -6.8540   14.7460   -0.7830 N   0  0  0  0  0  0  0  0  0  0  0  0
   -5.6020   14.5190   -1.2790 C   0  0  0  0  0  0  0  0  0  0  0  0
   -4.7840   13.6620    0.7870 C   0  0  0  0  0  0  0  0  0  0  0  0
   -4.5220   13.9800   -0.5530 C   0  0  0  0  0  0  0  0  0  0  0  0
   -3.1650   13.7720   -1.2180 C   0  0  0  0  0  0  0  0  0  0  0  0
   -3.1720   14.0780   -2.4200 O   0  0  0  0  0  0  0  0  0  0  0  0
   -1.9140   13.2930   -0.6660 N   0  0  0  0  0  0  0  0  0  0  0  0
   -0.7990   14.1740   -0.5690 N   0  0  0  0  0  0  0  0  0  0  0  0
   -0.5820   14.3150    0.7760 C   0  0  0  0  0  0  0  0  0  0  0  0
   -1.4880   15.0080   -1.3680 C   0  0  0  0  0  0  0  0  0  0  0  0
   -1.2600   15.1710   -2.7510 N   0  0  0  0  0  0  0  0  0  0  0  0
   -1.4440   14.7750    1.5800 N   0  0  0  0  0  0  0  0  0  0  0  0
   -2.4990   15.4120   -0.6190 C   0  0  0  0  0  0  0  0  0  0  0  0
   -0.7780   14.1170   -3.6640 C   0  0  2  0  0  0  0  0  0  0  0  0
   -2.1660   16.0000   -3.5710 C   0  0  0  0  0  0  0  0  0  0  0  0
   -2.5300   15.1920    0.8720 C   0  0  0  0  0  0  0  0  0  0  0  0
   -3.7060   16.0280   -0.8630 C   0  0  0  0  0  0  0  0  0  0  0  0
    0.4400   13.3400   -3.1570 C   0  0  0  0  0  0  0  0  0  0  0  0
   -0.5350   14.9280   -4.9320 C   0  0  0  0  0  0  0  0  0  0  0  0
   -1.8650   15.6540   -5.0310 C   0  0  0  0  0  0  0  0  0  0  0  0
   -3.6620   15.5080    1.3870 N   0  0  0  0  0  0  0  0  0  0  0  0
   -4.3450   15.9980    0.2960 C   0  0  0  0  0  0  0  0  0  0  0  0
    1.3660   12.6320   -4.2000 C   0  0  0  0  0  0  0  0  0  0  0  0
    0.0540   11.8790   -2.7740 C   0  0  0  0  0  0  0  0  0  0  0  0
    0.2340   11.5870   -4.2650 C   0  0  0  0  0  0  0  0  0  0  0  0
  1  2  1  0
  2  3  2  0
  2  4  1  0
  4  5  2  0
  3  6  1  0
  5  7  1  0
  6  7  2  0
  7  8  1  0
  8  9  2  0
  8 10  1  0
 10 11  1  0
 11 12  1  0
 11 13  1  0
 13 14  1  0
 12 15  2  0
 13 16  2  0
 14 17  1  0
 14 18  1  0
 15 19  1  0
 16 19  1  0
 16 20  1  0
 17 21  1  1
 17 22  1  0
 18 23  1  0
 22 23  1  0
 19 24  2  0
 20 25  2  0
 24 25  1  0
 21 26  1  0
 21 27  1  0
 26 28  1  0
 27 28  1  0
M  END
