mac-x0116-mac-x0204
     RDKit          3D

 27 30  0  0  0  0  0  0  0  0999 V2000
   -6.1880   14.6750    1.4570 C   0  0  0  0  0  0  0  0  0  0  0  0
   -4.7940   15.0430    1.6100 N   0  0  0  0  0  0  0  0  0  0  0  0
   -4.0050   14.9900    0.4680 C   0  0  0  0  0  0  0  0  0  0  0  0
   -6.5330   13.2350    1.5630 C   0  0  0  0  0  0  0  0  0  0  0  0
   -6.4640   12.5030    0.4110 O   0  0  0  0  0  0  0  0  0  0  0  0
   -6.9280   12.4350    2.6100 C   0  0  0  0  0  0  0  0  0  0  0  0
   -7.1200   11.1480    2.0780 C   0  0  0  0  0  0  0  0  0  0  0  0
   -6.8240   11.2410    0.7390 C   0  0  0  0  0  0  0  0  0  0  0  0
   -4.5800   15.1150   -0.7530 N   0  0  0  0  0  0  0  0  0  0  0  0
   -2.6090   14.8220    0.5250 C   0  0  0  0  0  0  0  0  0  0  0  0
   -3.8080   15.0740   -1.8500 C   0  0  0  0  0  0  0  0  0  0  0  0
   -1.9490   14.8130   -0.6920 C   0  0  0  0  0  0  0  0  0  0  0  0
   -1.7160   14.6660    1.5740 N   0  0  0  0  0  0  0  0  0  0  0  0
   -2.4730   14.9260   -1.9190 N   0  0  0  0  0  0  0  0  0  0  0  0
   -0.6360   14.6790   -0.3710 N   0  0  0  0  0  0  0  0  0  0  0  0
   -0.5410   14.5870    0.9930 C   0  0  0  0  0  0  0  0  0  0  0  0
    0.4710   14.6630   -1.2900 C   0  0  0  0  0  0  0  0  0  0  0  0
    0.4430   13.9460   -2.6620 C   0  0  0  0  0  0  0  0  0  0  0  0
    0.6970   12.5720   -2.4110 O   0  0  0  0  0  0  0  0  0  0  0  0
    1.5800   14.3800   -3.3630 O   0  0  0  0  0  0  0  0  0  0  0  0
   -0.7470   14.0560   -3.6230 C   0  0  0  0  0  0  0  0  0  0  0  0
   -1.1370   15.2690   -4.2380 C   0  0  0  0  0  0  0  0  0  0  0  0
   -1.5050   12.9260   -3.9590 C   0  0  0  0  0  0  0  0  0  0  0  0
   -2.2190   15.2860   -5.1230 C   0  0  0  0  0  0  0  0  0  0  0  0
   -2.5590   12.9220   -4.8160 N   0  0  0  0  0  0  0  0  0  0  0  0
   -2.6270   16.4330   -5.7430 O   0  0  0  0  0  0  0  0  0  0  0  0
   -2.8930   14.1030   -5.3810 C   0  0  0  0  0  0  0  0  0  0  0  0
  1  2  1  0
  2  3  1  0
  1  4  1  0
  4  5  1  0
  4  6  2  0
  6  7  1  0
  5  8  1  0
  7  8  2  0
  3  9  2  0
  3 10  1  0
  9 11  1  0
 10 12  2  0
 10 13  1  0
 11 14  2  0
 12 14  1  0
 12 15  1  0
 13 16  2  0
 15 16  1  0
 15 17  1  0
 17 18  1  0
 18 19  1  0
 18 20  1  0
 18 21  1  0
 21 22  2  0
 21 23  1  0
 22 24  1  0
 23 25  2  0
 24 26  1  0
 24 27  2  0
 25 27  1  0
M  END
