mac-x0179-diamond-x0290_0_A
     RDKit          3D

 30 32  0  0  0  0  0  0  0  0999 V2000
    1.6110   12.8030   -2.2360 O   0  0  0  0  0  0  0  0  0  0  0  0
    0.9760   12.1180   -3.2040 C   0  0  0  0  0  0  0  0  0  0  0  0
    0.5240   11.0130   -2.9460 O   0  0  0  0  0  0  0  0  0  0  0  0
    0.9260   12.8490   -4.5470 C   0  0  2  0  0  0  0  0  0  0  0  0
    0.4560   14.3160   -4.4980 C   0  0  0  0  0  0  0  0  0  0  0  0
    0.1510   12.0230   -5.4830 N   0  0  0  0  0  0  0  0  0  0  0  0
    0.1760   14.9310   -3.1120 C   0  0  0  0  0  0  0  0  0  0  0  0
    0.7670   11.4720   -6.5540 C   0  0  0  0  0  0  0  0  0  0  0  0
   -0.9680   11.2940   -5.1550 C   0  0  0  0  0  0  0  0  0  0  0  0
    1.8320   11.7630   -7.0030 O   0  0  0  0  0  0  0  0  0  0  0  0
   -1.7060   11.4130   -4.1950 O   0  0  0  0  0  0  0  0  0  0  0  0
   -1.2060   14.5720   -2.5410 C   0  0  0  0  0  0  0  0  0  0  0  0
   -0.0760   10.4040   -7.0690 C   0  0  0  0  0  0  0  0  0  0  0  0
   -1.1470   10.2860   -6.2140 C   0  0  0  0  0  0  0  0  0  0  0  0
    0.0770    9.6040   -8.1850 C   0  0  0  0  0  0  0  0  0  0  0  0
   -2.1440    9.3470   -6.4210 C   0  0  0  0  0  0  0  0  0  0  0  0
   -1.3780   14.5840   -1.0420 C   0  0  0  0  0  0  0  0  0  0  0  0
   -0.9150    8.6470   -8.4200 C   0  0  0  0  0  0  0  0  0  0  0  0
   -2.0170    8.5180   -7.5460 C   0  0  0  0  0  0  0  0  0  0  0  0
   -0.3040   14.5300   -0.1470 C   0  0  0  0  0  0  0  0  0  0  0  0
   -2.6690   14.6480   -0.5160 C   0  0  0  0  0  0  0  0  0  0  0  0
   -0.5860   14.5380    1.2090 C   0  0  0  0  0  0  0  0  0  0  0  0
   -2.8730   14.6530    0.8440 C   0  0  0  0  0  0  0  0  0  0  0  0
   -4.1430   14.7130    1.4050 N   0  0  0  0  0  0  0  0  0  0  0  0
   -1.8380   14.5960    1.7220 N   0  0  0  0  0  0  0  0  0  0  0  0
   -5.3770   14.4950    0.8600 C   0  0  0  0  0  0  0  0  0  0  0  0
   -5.4700   14.5900   -0.3680 O   0  0  0  0  0  0  0  0  0  0  0  0
   -6.5850   14.1290    1.7400 C   0  0  0  0  0  0  0  0  0  0  0  0
   -7.8040   13.8080    0.9680 N   0  0  0  0  0  0  0  0  0  0  0  0
   -8.6210   14.9760    0.6770 C   0  0  0  0  0  0  0  0  0  0  0  0
  1  2  1  0
  2  3  2  0
  2  4  1  0
  4  5  1  1
  4  6  1  0
  5  7  1  0
  6  8  1  0
  6  9  1  0
  8 10  2  0
  9 11  2  0
  7 12  1  0
  8 13  1  0
  9 14  1  0
 13 14  2  0
 13 15  1  0
 14 16  1  0
 12 17  1  0
 15 18  2  0
 16 19  2  0
 18 19  1  0
 17 20  2  0
 17 21  1  0
 20 22  1  0
 21 23  2  0
 23 24  1  0
 22 25  2  0
 23 25  1  0
 24 26  1  0
 26 27  2  0
 26 28  1  0
 28 29  1  0
 29 30  1  0
M  END
