mac-x0567-diamond-x0950_1_A
     RDKit          3D

 18 19  0  0  0  0  0  0  0  0999 V2000
   -0.5130   14.1830   -1.6680 N   0  0  0  0  0  0  0  0  0  0  0  0
   -1.4530   14.4980   -0.7700 C   0  0  0  0  0  0  0  0  0  0  0  0
   -1.1990   14.4870    0.5070 N   0  0  0  0  0  0  0  0  0  0  0  0
   -2.7040   14.8580   -0.8820 C   0  0  0  0  0  0  0  0  0  0  0  0
    0.1250   14.1250    0.7780 C   0  0  0  0  0  0  0  0  0  0  0  0
   -2.2190   14.8240    1.3470 N   0  0  0  0  0  0  0  0  0  0  0  0
   -3.2080   15.0720    0.4480 C   0  0  0  0  0  0  0  0  0  0  0  0
   -3.3210   14.9810   -2.0970 C   0  0  0  0  0  0  0  0  0  0  0  0
    0.7900   13.9460   -0.6560 C   0  0  0  0  0  0  0  0  0  0  0  0
   -4.5370   15.4750    0.5860 C   0  0  0  0  0  0  0  0  0  0  0  0
   -4.6360   15.3800   -1.9270 C   0  0  0  0  0  0  0  0  0  0  0  0
    0.7910   12.5490   -1.1520 O   0  0  0  0  0  0  0  0  0  0  0  0
   -5.2200   15.6170   -0.6500 C   0  0  0  0  0  0  0  0  0  0  0  0
    0.5080   12.1510   -2.4660 C   0  0  0  0  0  0  0  0  0  0  0  0
    1.3910   12.6720   -3.6260 C   0  0  2  0  0  0  0  0  0  0  0  0
   -0.3900   11.3550   -2.7070 O   0  0  0  0  0  0  0  0  0  0  0  0
    1.1960   14.1410   -3.9740 C   0  0  0  0  0  0  0  0  0  0  0  0
    1.0710   11.9430   -4.8230 O   0  0  0  0  0  0  0  0  0  0  0  0
  1  2  1  0
  2  3  1  0
  2  4  2  0
  3  5  1  0
  3  6  1  0
  4  7  1  0
  6  7  2  0
  4  8  1  0
  5  9  1  0
  7 10  1  0
  8 11  2  0
  9 12  1  0
 10 13  2  0
 11 13  1  0
 12 14  1  0
 14 15  1  0
 14 16  2  0
 15 17  1  6
 15 18  1  0
M  END
