mac-x0565-mac-x0159
     RDKit          3D

 22 25  0  0  0  0  0  0  0  0999 V2000
   -5.7220   15.1280    0.9150 O   0  0  0  0  0  0  0  0  0  0  0  0
   -6.1780   15.0760   -0.3510 C   0  0  0  0  0  0  0  0  0  0  0  0
   -7.3550   15.1250   -0.6570 O   0  0  0  0  0  0  0  0  0  0  0  0
   -5.0750   14.9330   -1.3210 C   0  0  0  0  0  0  0  0  0  0  0  0
   -3.7480   14.9570   -0.8750 C   0  0  0  0  0  0  0  0  0  0  0  0
   -5.3810   14.7700   -2.6810 C   0  0  0  0  0  0  0  0  0  0  0  0
   -2.7410   14.8000   -1.8110 C   0  0  0  0  0  0  0  0  0  0  0  0
   -4.3530   14.6100   -3.6150 C   0  0  0  0  0  0  0  0  0  0  0  0
   -3.0500   14.6210   -3.1490 C   0  0  0  0  0  0  0  0  0  0  0  0
   -1.2630   14.7940   -1.6110 C   0  0  1  0  0  0  0  0  0  0  0  0
   -1.9610   14.4540   -3.9470 O   0  0  0  0  0  0  0  0  0  0  0  0
   -0.8280   14.8770   -3.1310 C   0  0  1  0  0  0  0  0  0  0  0  0
   -0.9490   15.8130   -0.5640 C   0  0  0  0  0  0  0  0  0  0  0  0
   -0.7080   13.5930   -0.9120 N   0  0  0  0  0  0  0  0  0  0  0  0
   -0.3610   16.1000   -3.8710 C   0  0  0  0  0  0  0  0  0  0  0  0
   -0.4060   15.3510    0.5020 N   0  0  0  0  0  0  0  0  0  0  0  0
   -0.2770   14.0320    0.2470 C   0  0  0  0  0  0  0  0  0  0  0  0
    0.9220   16.5830   -3.9940 C   0  0  0  0  0  0  0  0  0  0  0  0
   -1.3190   16.8450   -4.5580 N   0  0  0  0  0  0  0  0  0  0  0  0
   -0.7590   17.8570   -5.1750 C   0  0  0  0  0  0  0  0  0  0  0  0
    0.9300   17.9880   -4.9730 S   0  0  0  0  0  0  0  0  0  0  0  0
   -1.4830   18.8520   -6.0110 C   0  0  0  0  0  0  0  0  0  0  0  0
  1  2  1  0
  2  3  2  0
  2  4  1  0
  4  5  2  0
  4  6  1  0
  5  7  1  0
  6  8  2  0
  7  9  2  0
  8  9  1  0
  7 10  1  0
  9 11  1  0
 10 12  1  0
 11 12  1  0
 10 13  1  1
 10 14  1  0
 12 15  1  6
 13 16  2  0
 14 17  2  0
 16 17  1  0
 15 18  2  0
 15 19  1  0
 19 20  2  0
 18 21  1  0
 20 21  1  0
 20 22  1  0
M  END
