mac-x0380-mac-x0148
     RDKit          3D

 28 32  0  0  0  0  0  0  0  0999 V2000
   -2.2000   13.3680   -3.1170 O   0  0  0  0  0  0  0  0  0  0  0  0
   -3.1950   14.2450   -3.1480 C   0  0  0  0  0  0  0  0  0  0  0  0
   -3.7440   14.5490   -4.1940 O   0  0  0  0  0  0  0  0  0  0  0  0
   -3.5760   14.8140   -1.8330 C   0  0  1  0  0  0  0  0  0  0  0  0
   -4.9630   14.3590   -1.4910 C   0  0  0  0  0  0  0  0  0  0  0  0
   -2.5570   14.8070   -0.6710 C   0  0  1  0  0  0  0  0  0  0  0  0
   -5.6170   15.3390   -0.5730 C   0  0  2  0  0  0  0  0  0  0  0  0
   -3.2100   15.4210    0.6440 C   0  0  0  0  0  0  0  0  0  0  0  0
   -2.3410   13.4950    0.0380 C   0  0  0  0  0  0  0  0  0  0  0  0
   -1.0260   14.7650   -1.2590 C   0  0  2  0  0  0  0  0  0  0  0  0
   -4.7700   15.5550    0.7090 C   0  0  2  0  0  0  0  0  0  0  0  0
   -7.4200   14.9740   -0.4990 S   0  0  0  0  0  0  0  0  0  0  0  0
   -0.8050   13.9680   -2.4900 N   0  0  0  0  0  0  0  0  0  0  0  0
   -0.0350   14.3610   -0.2760 N   0  0  0  0  0  0  0  0  0  0  0  0
   -1.6470   13.8620    1.2880 N   0  0  0  0  0  0  0  0  0  0  0  0
   -5.4080   15.0050    1.9260 N   0  0  0  0  0  0  0  0  0  0  0  0
   -7.4440   13.9630    0.9910 C   0  0  0  0  0  0  0  0  0  0  0  0
   -0.6970   14.6750   -3.8290 C   0  0  2  0  0  0  0  0  0  0  0  0
    0.1190   12.8420   -2.4030 C   0  0  0  0  0  0  0  0  0  0  0  0
   -0.4740   14.6560    1.0480 C   0  0  0  0  0  0  0  0  0  0  0  0
   -6.7440   14.6790    2.1040 C   0  0  0  0  0  0  0  0  0  0  0  0
   -1.8570   15.6150   -4.2330 C   0  0  0  0  0  0  0  0  0  0  0  0
   -0.6220   13.7830   -5.0950 C   0  0  2  0  0  0  0  0  0  0  0  0
   -0.2520   11.8400   -3.4890 C   0  0  0  0  0  0  0  0  0  0  0  0
   -7.3490   14.9870    3.1370 O   0  0  0  0  0  0  0  0  0  0  0  0
   -2.0670   13.7140   -5.5550 C   0  0  0  0  0  0  0  0  0  0  0  0
   -2.6030   15.0180   -5.3230 O   0  0  0  0  0  0  0  0  0  0  0  0
    0.0080   12.3970   -4.8880 C   0  0  0  0  0  0  0  0  0  0  0  0
  1  2  1  0
  2  3  2  0
  4  2  1  6
  4  5  1  0
  4  6  1  0
  7  5  1  1
  6  8  1  1
  6  9  1  0
  6 10  1  0
  7 11  1  0
 11  8  1  6
  7 12  1  0
 10 13  1  6
 10 14  1  0
  9 15  1  0
 11 16  1  0
 12 17  1  0
 13 18  1  0
 13 19  1  0
 14 20  1  0
 15 20  1  0
 16 21  1  0
 17 21  1  0
 18 22  1  6
 18 23  1  0
 19 24  1  0
 21 25  2  0
 23 26  1  1
 22 27  1  0
 26 27  1  0
 23 28  1  0
 24 28  1  0
M  END
