mac-x0357-mac-x0510
     RDKit          3D

 23 25  0  0  0  0  0  0  0  0999 V2000
    2.3870   13.1670   -4.5920 C   0  0  0  0  0  0  0  0  0  0  0  0
    1.0540   12.5260   -4.8740 C   0  0  0  0  0  0  0  0  0  0  0  0
    0.8420   11.8520   -6.0780 C   0  0  0  0  0  0  0  0  0  0  0  0
   -0.0170   12.5690   -3.9660 C   0  0  0  0  0  0  0  0  0  0  0  0
    1.8620   11.7950   -6.9610 O   0  0  0  0  0  0  0  0  0  0  0  0
    0.0850   13.2510   -2.6650 C   0  0  0  0  0  0  0  0  0  0  0  0
   -1.2430   11.9550   -4.2660 C   0  0  0  0  0  0  0  0  0  0  0  0
   -0.3690   11.2400   -6.3900 C   0  0  0  0  0  0  0  0  0  0  0  0
   -0.6630   14.2360   -2.3010 N   0  0  0  0  0  0  0  0  0  0  0  0
    1.0550   12.7430   -1.8750 O   0  0  0  0  0  0  0  0  0  0  0  0
   -1.4170   11.2920   -5.4780 C   0  0  0  0  0  0  0  0  0  0  0  0
   -1.6740   14.7180   -3.2400 C   0  0  0  0  0  0  0  0  0  0  0  0
   -2.9970   15.0010   -2.6420 N   0  0  0  0  0  0  0  0  0  0  0  0
   -3.2730   15.0770   -1.3790 C   0  0  0  0  0  0  0  0  0  0  0  0
   -2.3140   14.9040   -0.3410 C   0  0  0  0  0  0  0  0  0  0  0  0
   -4.5210   15.3400   -0.8660 N   0  0  0  0  0  0  0  0  0  0  0  0
   -4.9450   15.0380    0.4110 C   0  0  0  0  0  0  0  0  0  0  0  0
   -2.6690   14.7990    0.9740 C   0  0  0  0  0  0  0  0  0  0  0  0
   -0.9540   14.8160   -0.3330 N   0  0  0  0  0  0  0  0  0  0  0  0
   -6.1370   14.9330    0.6830 O   0  0  0  0  0  0  0  0  0  0  0  0
   -3.9710   14.8520    1.3550 N   0  0  0  0  0  0  0  0  0  0  0  0
   -1.6000   14.6450    1.7870 N   0  0  0  0  0  0  0  0  0  0  0  0
   -0.5700   14.6630    0.9690 C   0  0  0  0  0  0  0  0  0  0  0  0
  1  2  1  0
  2  3  2  0
  2  4  1  0
  3  5  1  0
  4  6  1  0
  4  7  2  0
  3  8  1  0
  6  9  2  3
  6 10  1  0
  7 11  1  0
  8 11  2  0
  9 12  1  0
 12 13  1  0
 13 14  2  3
 14 15  1  0
 14 16  1  0
 16 17  1  0
 15 18  2  0
 15 19  1  0
 17 20  2  0
 17 21  1  0
 18 21  1  0
 18 22  1  0
 19 23  1  0
 22 23  2  0
M  END
