mac-x0132-mac-x1493
     RDKit          3D

 14 15  0  0  0  0  0  0  0  0999 V2000
   -4.3460   14.8010    2.0380 N   0  0  0  0  0  0  0  0  0  0  0  0
   -5.3480   14.7880    1.0770 C   0  0  0  0  0  0  0  0  0  0  0  0
   -6.6210   14.7210    1.5030 N   0  0  0  0  0  0  0  0  0  0  0  0
   -4.9920   14.8420   -0.2610 C   0  0  0  0  0  0  0  0  0  0  0  0
   -6.0620   14.8380   -1.1600 C   0  0  0  0  0  0  0  0  0  0  0  0
   -7.5560   14.7170    0.5520 C   0  0  0  0  0  0  0  0  0  0  0  0
   -3.6620   14.8900   -0.7250 C   0  0  0  0  0  0  0  0  0  0  0  0
   -7.3360   14.7800   -0.7650 N   0  0  0  0  0  0  0  0  0  0  0  0
   -5.7730   14.8970   -2.5140 C   0  0  0  0  0  0  0  0  0  0  0  0
   -3.3980   14.9300   -2.0900 C   0  0  0  0  0  0  0  0  0  0  0  0
   -2.0340   14.9500   -2.6440 C   0  0  0  0  0  0  0  0  0  0  0  0
   -4.4590   14.9420   -2.9840 C   0  0  0  0  0  0  0  0  0  0  0  0
   -1.0870   14.7150   -1.7180 O   0  0  0  0  0  0  0  0  0  0  0  0
   -1.7560   15.1480   -3.8080 O   0  0  0  0  0  0  0  0  0  0  0  0
  1  2  1  0
  2  3  2  0
  2  4  1  0
  4  5  2  0
  3  6  1  0
  4  7  1  0
  5  8  1  0
  6  8  2  0
  5  9  1  0
  7 10  2  0
 10 11  1  0
  9 12  2  0
 10 12  1  0
 11 13  1  0
 11 14  2  0
M  END
