mac-x0159-mac-x0138
     RDKit          3D

 17 19  0  0  0  0  0  0  0  0999 V2000
   -4.4030   15.1060    0.7490 N   0  0  0  0  0  0  0  0  0  0  0  0
   -3.3730   14.6990   -0.1810 C   0  0  2  0  0  0  0  0  0  0  0  0
   -2.0660   15.4560    0.0520 C   0  0  2  0  0  0  0  0  0  0  0  0
   -3.9300   15.0200   -1.4780 N   0  0  0  0  0  0  0  0  0  0  0  0
   -2.9110   15.3900   -2.4640 C   0  0  0  0  0  0  0  0  0  0  0  0
   -1.0590   15.0680   -1.0290 C   0  0  2  0  0  0  0  0  0  0  0  0
   -1.3260   15.3110    1.2980 N   0  0  0  0  0  0  0  0  0  0  0  0
   -1.6380   14.7150   -2.2890 N   0  0  0  0  0  0  0  0  0  0  0  0
   -0.2230   14.0810   -0.3800 N   0  0  0  0  0  0  0  0  0  0  0  0
   -0.0780   14.6570    0.9530 C   0  0  0  0  0  0  0  0  0  0  0  0
   -0.8000   14.6000   -3.4840 C   0  0  0  0  0  0  0  0  0  0  0  0
   -0.4020   15.8830   -4.1720 C   0  0  0  0  0  0  0  0  0  0  0  0
    0.8730   16.4240   -4.1960 C   0  0  0  0  0  0  0  0  0  0  0  0
   -1.3490   16.6400   -4.8670 N   0  0  0  0  0  0  0  0  0  0  0  0
   -0.7850   17.7090   -5.3910 C   0  0  0  0  0  0  0  0  0  0  0  0
    0.8840   17.8840   -5.0900 S   0  0  0  0  0  0  0  0  0  0  0  0
   -1.4960   18.7350   -6.2030 C   0  0  0  0  0  0  0  0  0  0  0  0
  2  1  1  1
  2  3  1  0
  2  4  1  0
  4  5  1  0
  3  6  1  0
  3  7  1  1
  5  8  1  0
  6  8  1  0
  6  9  1  1
  7 10  1  0
  9 10  1  0
  8 11  1  0
 11 12  1  0
 12 13  2  0
 12 14  1  0
 14 15  2  0
 13 16  1  0
 15 16  1  0
 15 17  1  0
M  END
