mac-x0180-mac-x0347
     RDKit          3D

 27 29  0  0  0  0  0  0  0  0999 V2000
   -7.5670   14.5900    1.1600 C   0  0  0  0  0  0  0  0  0  0  0  0
   -6.5630   14.9470    0.0790 C   0  0  0  0  0  0  0  0  0  0  0  0
   -6.8760   14.8420   -1.1000 O   0  0  0  0  0  0  0  0  0  0  0  0
   -5.3480   15.3870    0.6070 N   0  0  0  0  0  0  0  0  0  0  0  0
   -4.1080   15.5430   -0.0520 C   0  0  0  0  0  0  0  0  0  0  0  0
   -2.8760   15.5780    0.6190 C   0  0  0  0  0  0  0  0  0  0  0  0
   -4.1180   15.6610   -1.4440 C   0  0  0  0  0  0  0  0  0  0  0  0
   -1.6630   15.7120   -0.0840 C   0  0  0  0  0  0  0  0  0  0  0  0
   -2.9120   15.7950   -2.1540 C   0  0  0  0  0  0  0  0  0  0  0  0
   -1.6670   15.8130   -1.4790 C   0  0  0  0  0  0  0  0  0  0  0  0
   -0.4200   15.9170   -2.3210 C   0  0  0  0  0  0  0  0  0  0  0  0
    0.1040   16.9760   -2.6200 O   0  0  0  0  0  0  0  0  0  0  0  0
    0.1040   14.5610   -2.8390 C   0  0  0  0  0  0  0  0  0  0  0  0
    0.8840   14.6780   -4.0220 O   0  0  0  0  0  0  0  0  0  0  0  0
    0.8360   13.7710   -1.9240 O   0  0  0  0  0  0  0  0  0  0  0  0
   -1.2630   14.0690   -3.1150 C   0  0  0  0  0  0  0  0  0  0  0  0
   -2.0740   13.8170   -2.0250 C   0  0  0  0  0  0  0  0  0  0  0  0
   -1.7910   13.8830   -4.3830 C   0  0  0  0  0  0  0  0  0  0  0  0
   -3.3760   13.4090   -2.1800 C   0  0  0  0  0  0  0  0  0  0  0  0
   -3.0620   13.4740   -4.5990 N   0  0  0  0  0  0  0  0  0  0  0  0
   -3.8250   13.2520   -3.4870 C   0  0  0  0  0  0  0  0  0  0  0  0
   -4.1580   13.1970   -0.9700 C   0  0  0  0  0  0  0  0  0  0  0  0
   -3.5630   13.4910    0.2610 C   0  0  0  0  0  0  0  0  0  0  0  0
   -5.4660   12.7270   -0.9880 C   0  0  0  0  0  0  0  0  0  0  0  0
   -4.2510   13.3260    1.4460 C   0  0  0  0  0  0  0  0  0  0  0  0
   -6.1650   12.5530    0.2050 C   0  0  0  0  0  0  0  0  0  0  0  0
   -5.5550   12.8550    1.4180 C   0  0  0  0  0  0  0  0  0  0  0  0
  1  2  1  0
  2  3  2  0
  2  4  1  0
  4  5  1  0
  5  6  2  0
  5  7  1  0
  6  8  1  0
  7  9  2  0
  8 10  2  0
  9 10  1  0
 10 11  1  0
 11 12  2  0
 11 13  1  0
 13 14  1  0
 13 15  1  0
 13 16  1  0
 16 17  2  0
 16 18  1  0
 17 19  1  0
 18 20  2  0
 19 21  2  0
 20 21  1  0
 19 22  1  0
 22 23  2  0
 22 24  1  0
 23 25  1  0
 24 26  2  0
 25 27  2  0
 26 27  1  0
M  END
