mac-x0412-mac-x0455
     RDKit          3D

 23 25  0  0  0  0  0  0  0  0999 V2000
   -7.9940   15.0160   -0.6500 O   0  0  0  0  0  0  0  0  0  0  0  0
   -7.0220   14.7830    0.0590 C   0  0  0  0  0  0  0  0  0  0  0  0
   -7.1390   14.8720    1.4410 N   0  0  0  0  0  0  0  0  0  0  0  0
   -5.6490   14.3850   -0.5530 C   0  0  2  0  0  0  0  0  0  0  0  0
   -4.5080   14.6130    0.4130 C   0  0  0  0  0  0  0  0  0  0  0  0
   -6.0730   14.9450    2.1610 C   0  0  0  0  0  0  0  0  0  0  0  0
   -5.3180   14.9770   -1.9160 C   0  0  0  0  0  0  0  0  0  0  0  0
   -4.6800   14.9000    1.6990 C   0  0  0  0  0  0  0  0  0  0  0  0
   -3.2060   14.4470   -0.1590 C   0  0  0  0  0  0  0  0  0  0  0  0
   -4.0350   15.0820   -2.3380 C   0  0  0  0  0  0  0  0  0  0  0  0
   -2.9590   14.6330   -1.4580 C   0  0  0  0  0  0  0  0  0  0  0  0
   -1.5380   14.3110   -1.8770 C   0  0  0  0  0  0  0  0  0  0  0  0
   -0.9390   14.3480   -3.3020 C   0  0  1  0  0  0  0  0  0  0  0  0
   -1.2120   15.5750   -4.0280 O   0  0  0  0  0  0  0  0  0  0  0  0
    0.5470   14.4270   -2.9020 C   0  0  0  0  0  0  0  0  0  0  0  0
   -1.0430   13.1110   -4.2140 C   0  0  0  0  0  0  0  0  0  0  0  0
    1.2880   15.3780   -3.0100 O   0  0  0  0  0  0  0  0  0  0  0  0
    0.9680   13.2470   -2.3640 O   0  0  0  0  0  0  0  0  0  0  0  0
   -2.1230   12.2090   -4.1740 C   0  0  0  0  0  0  0  0  0  0  0  0
   -0.0070   12.8520   -5.1400 C   0  0  0  0  0  0  0  0  0  0  0  0
   -2.1590   11.0950   -5.0270 C   0  0  0  0  0  0  0  0  0  0  0  0
   -0.0450   11.7430   -5.9870 C   0  0  0  0  0  0  0  0  0  0  0  0
   -1.1200   10.8630   -5.9310 C   0  0  0  0  0  0  0  0  0  0  0  0
  1  2  2  0
  2  3  1  0
  2  4  1  0
  4  5  1  0
  3  6  2  0
  4  7  1  6
  5  8  2  0
  6  8  1  0
  5  9  1  0
  7 10  2  0
  9 11  2  0
 10 11  1  0
 11 12  1  0
 12 13  1  0
 13 14  1  6
 13 15  1  0
 13 16  1  0
 15 17  2  0
 15 18  1  0
 16 19  2  0
 16 20  1  0
 19 21  1  0
 20 22  2  0
 21 23  2  0
 22 23  1  0
M  END
