mac-x0180-mac-x0345
     RDKit          3D

 19 20  0  0  0  0  0  0  0  0999 V2000
   -6.5640   14.5140    1.4930 C   0  0  0  0  0  0  0  0  0  0  0  0
   -8.0340   14.6680    1.4500 C   0  0  0  0  0  0  0  0  0  0  0  0
   -8.6270   14.8880    0.3950 O   0  0  0  0  0  0  0  0  0  0  0  0
   -6.1900   14.7570    0.0810 C   0  0  0  0  0  0  0  0  0  0  0  0
   -4.9650   14.9770   -0.4920 C   0  0  0  0  0  0  0  0  0  0  0  0
   -7.2670   14.7420   -0.7590 N   0  0  0  0  0  0  0  0  0  0  0  0
   -3.6140   15.1030   -0.3640 C   0  0  0  0  0  0  0  0  0  0  0  0
   -4.8770   15.1620   -1.8360 C   0  0  0  0  0  0  0  0  0  0  0  0
   -7.0850   14.9290   -2.0740 C   0  0  0  0  0  0  0  0  0  0  0  0
   -8.1550   14.9040   -2.9070 N   0  0  0  0  0  0  0  0  0  0  0  0
   -2.5740   15.2220    0.5350 C   0  0  0  0  0  0  0  0  0  0  0  0
   -3.4250   15.0780   -1.7260 C   0  0  0  0  0  0  0  0  0  0  0  0
   -5.9100   15.1360   -2.6340 C   0  0  0  0  0  0  0  0  0  0  0  0
   -1.2860   15.3140   -0.0780 C   0  0  0  0  0  0  0  0  0  0  0  0
   -2.2500   15.1630   -2.3030 C   0  0  0  0  0  0  0  0  0  0  0  0
   -1.1720   15.2770   -1.5090 C   0  0  0  0  0  0  0  0  0  0  0  0
    0.0610   15.3470   -2.2810 C   0  0  0  0  0  0  0  0  0  0  0  0
    0.0930   15.6180   -3.4730 O   0  0  0  0  0  0  0  0  0  0  0  0
    1.1520   15.0530   -1.5830 O   0  0  0  0  0  0  0  0  0  0  0  0
  1  2  1  0
  2  3  2  0
  1  4  1  0
  4  5  2  0
  4  6  1  0
  5  7  1  0
  5  8  1  0
  6  9  2  0
  9 10  1  0
  7 11  2  0
  7 12  1  0
  8 13  2  0
  9 13  1  0
 11 14  1  0
 12 15  2  0
 14 16  2  0
 15 16  1  0
 16 17  1  0
 17 18  2  0
 17 19  1  0
M  END
