mac-x0179-mac-x0451
     RDKit          3D

 28 31  0  0  0  0  0  0  0  0999 V2000
    1.7150   13.1010   -2.5840 O   0  0  0  0  0  0  0  0  0  0  0  0
    0.8880   12.2500   -3.2350 C   0  0  0  0  0  0  0  0  0  0  0  0
    0.9060   11.0560   -2.9900 O   0  0  0  0  0  0  0  0  0  0  0  0
   -0.0550   12.9020   -4.2600 C   0  0  1  0  0  0  0  0  0  0  0  0
    0.1630   14.3920   -4.5590 C   0  0  0  0  0  0  0  0  0  0  0  0
   -0.3110   11.9730   -5.3500 N   0  0  0  0  0  0  0  0  0  0  0  0
   -1.0790   15.2210   -4.1500 C   0  0  0  0  0  0  0  0  0  0  0  0
    0.5740   11.5820   -6.3390 C   0  0  0  0  0  0  0  0  0  0  0  0
   -1.3080   11.0670   -5.2160 C   0  0  0  0  0  0  0  0  0  0  0  0
    1.6710   12.0330   -6.6090 O   0  0  0  0  0  0  0  0  0  0  0  0
   -2.1410   10.9890   -4.3390 O   0  0  0  0  0  0  0  0  0  0  0  0
   -1.4340   14.9620   -2.7870 O   0  0  0  0  0  0  0  0  0  0  0  0
   -0.0740   10.4530   -7.0360 C   0  0  0  0  0  0  0  0  0  0  0  0
   -1.2240   10.1500   -6.3330 C   0  0  0  0  0  0  0  0  0  0  0  0
    0.2820    9.7440   -8.1650 C   0  0  0  0  0  0  0  0  0  0  0  0
   -2.0830    9.1370   -6.7020 C   0  0  0  0  0  0  0  0  0  0  0  0
   -2.6980   14.9790   -2.2420 C   0  0  0  0  0  0  0  0  0  0  0  0
   -0.5740    8.7070   -8.5650 C   0  0  0  0  0  0  0  0  0  0  0  0
   -1.7480    8.4060   -7.8370 C   0  0  0  0  0  0  0  0  0  0  0  0
   -3.9450   15.0050   -2.8670 C   0  0  0  0  0  0  0  0  0  0  0  0
   -2.6320   14.9700   -0.8530 C   0  0  0  0  0  0  0  0  0  0  0  0
   -3.8020   14.9830   -0.1140 C   0  0  0  0  0  0  0  0  0  0  0  0
   -5.1260   15.0110   -2.1020 C   0  0  0  0  0  0  0  0  0  0  0  0
   -5.0570   14.9940   -0.6980 C   0  0  0  0  0  0  0  0  0  0  0  0
   -3.9680   14.9900    1.5650 S   0  0  0  0  0  0  0  0  0  0  0  0
   -5.6770   14.9690    1.4040 C   0  0  0  0  0  0  0  0  0  0  0  0
   -6.1260   14.9820    0.1780 N   0  0  0  0  0  0  0  0  0  0  0  0
   -6.4890   14.9470    2.4740 N   0  0  0  0  0  0  0  0  0  0  0  0
  1  2  1  0
  2  3  2  0
  2  4  1  0
  4  5  1  6
  4  6  1  0
  5  7  1  0
  6  8  1  0
  6  9  1  0
  8 10  2  0
  9 11  2  0
  7 12  1  0
  8 13  1  0
  9 14  1  0
 13 14  2  0
 13 15  1  0
 14 16  1  0
 12 17  1  0
 15 18  2  0
 16 19  2  0
 18 19  1  0
 17 20  2  0
 17 21  1  0
 21 22  2  0
 20 23  1  0
 22 24  1  0
 23 24  2  0
 22 25  1  0
 25 26  1  0
 24 27  1  0
 26 27  2  0
 26 28  1  0
M  END
