mac-x0132-diamond-x0253_0_A
     RDKit          3D

 28 30  0  0  0  0  0  0  0  0999 V2000
   -4.2280   15.3050    1.9090 N   0  0  0  0  0  0  0  0  0  0  0  0
   -5.2410   15.0380    1.0000 C   0  0  0  0  0  0  0  0  0  0  0  0
   -6.4910   14.8930    1.4740 N   0  0  0  0  0  0  0  0  0  0  0  0
   -4.9150   14.9420   -0.3260 C   0  0  0  0  0  0  0  0  0  0  0  0
   -5.9740   14.7160   -1.1940 C   0  0  0  0  0  0  0  0  0  0  0  0
   -7.4330   14.6680    0.5510 C   0  0  0  0  0  0  0  0  0  0  0  0
   -3.5950   15.0550   -0.7920 C   0  0  0  0  0  0  0  0  0  0  0  0
   -7.2390   14.5820   -0.7710 N   0  0  0  0  0  0  0  0  0  0  0  0
   -5.6780   14.6270   -2.5490 C   0  0  0  0  0  0  0  0  0  0  0  0
   -3.3080   14.9400   -2.1480 C   0  0  0  0  0  0  0  0  0  0  0  0
   -1.8800   15.0360   -2.6070 C   0  0  0  0  0  0  0  0  0  0  0  0
   -4.3630   14.7360   -3.0320 C   0  0  0  0  0  0  0  0  0  0  0  0
   -1.1240   13.7500   -2.8040 C   0  0  0  0  0  0  0  0  0  0  0  0
    0.0020   13.6300   -1.7650 C   0  0  0  0  0  0  0  0  0  0  0  0
    0.1600   12.2100   -1.6890 N   0  0  0  0  0  0  0  0  0  0  0  0
    0.5890   11.6660   -2.7530 C   0  0  0  0  0  0  0  0  0  0  0  0
    0.6380   10.3300   -2.6540 O   0  0  0  0  0  0  0  0  0  0  0  0
    1.0240   12.2950   -4.0910 C   0  0  0  0  0  0  0  0  0  0  0  0
    0.2730   11.8500   -5.2750 N   0  0  0  0  0  0  0  0  0  0  0  0
    0.9910   11.6550   -6.4520 C   0  0  0  0  0  0  0  0  0  0  0  0
    2.0680   12.2190   -6.5700 O   0  0  0  0  0  0  0  0  0  0  0  0
    0.4190   10.7320   -7.4860 C   0  0  0  0  0  0  0  0  0  0  0  0
   -0.5570    9.7990   -7.1360 C   0  0  0  0  0  0  0  0  0  0  0  0
    0.8480   10.7840   -8.8230 C   0  0  0  0  0  0  0  0  0  0  0  0
   -1.0980    8.9360   -8.0910 C   0  0  0  0  0  0  0  0  0  0  0  0
    0.3130    9.9240   -9.7770 C   0  0  0  0  0  0  0  0  0  0  0  0
   -2.1470    7.9410   -7.7000 C   0  0  0  0  0  0  0  0  0  0  0  0
   -0.6570    9.0030   -9.4160 C   0  0  0  0  0  0  0  0  0  0  0  0
  1  2  1  0
  2  3  2  0
  2  4  1  0
  4  5  2  0
  3  6  1  0
  4  7  1  0
  5  8  1  0
  6  8  2  0
  5  9  1  0
  7 10  2  0
 10 11  1  0
  9 12  2  0
 10 12  1  0
 11 13  1  0
 13 14  1  0
 14 15  1  0
 15 16  2  3
 16 17  1  0
 16 18  1  0
 18 19  1  0
 19 20  1  0
 20 21  2  0
 20 22  1  0
 22 23  2  0
 22 24  1  0
 23 25  1  0
 24 26  2  0
 25 27  1  0
 25 28  2  0
 26 28  1  0
M  END
