mac-x0564-mac-x0283
     RDKit          3D

 19 22  0  0  0  0  0  0  0  0999 V2000
    0.7460   14.1930   -1.0830 O   0  0  0  0  0  0  0  0  0  0  0  0
    0.0060   14.3700   -2.0360 C   0  0  0  0  0  0  0  0  0  0  0  0
    0.4560   14.3310   -3.3580 N   0  0  0  0  0  0  0  0  0  0  0  0
   -1.4140   14.6280   -1.9460 C   0  0  0  0  0  0  0  0  0  0  0  0
   -2.2640   14.5370   -3.0170 C   0  0  0  0  0  0  0  0  0  0  0  0
   -0.4140   14.2560   -4.3140 C   0  0  0  0  0  0  0  0  0  0  0  0
   -2.0970   14.9900   -0.8080 O   0  0  0  0  0  0  0  0  0  0  0  0
   -1.7890   14.2010   -4.2280 N   0  0  0  0  0  0  0  0  0  0  0  0
   -3.4040   15.1200   -1.2090 C   0  0  0  0  0  0  0  0  0  0  0  0
   -3.5330   14.8340   -2.5500 C   0  0  0  0  0  0  0  0  0  0  0  0
   -4.8040   14.8840   -3.1490 C   0  0  0  0  0  0  0  0  0  0  0  0
   -4.4920   15.5110   -0.2680 C   0  0  0  0  0  0  0  0  0  0  0  0
   -5.8880   14.9180   -2.3690 C   0  0  0  0  0  0  0  0  0  0  0  0
   -5.8230   14.9400   -0.8450 C   0  0  2  0  0  0  0  0  0  0  0  0
   -7.0290   15.6860   -0.5280 O   0  0  0  0  0  0  0  0  0  0  0  0
   -6.0560   13.6750   -0.0530 C   0  0  0  0  0  0  0  0  0  0  0  0
   -6.6120   14.3620    1.1660 C   0  0  1  0  0  0  0  0  0  0  0  0
   -7.7380   14.9740    0.5480 N   0  0  0  0  0  0  0  0  0  0  0  0
   -7.1000   13.5840    2.2610 N   0  0  0  0  0  0  0  0  0  0  0  0
  1  2  2  0
  2  3  1  0
  2  4  1  0
  4  5  2  0
  3  6  2  0
  4  7  1  0
  5  8  1  0
  6  8  1  0
  7  9  1  0
  5 10  1  0
  9 10  2  0
 10 11  1  0
  9 12  1  0
 11 13  2  0
 14 12  1  6
 13 14  1  0
 14 15  1  0
 14 16  1  0
 16 17  1  0
 15 18  1  0
 17 18  1  0
 17 19  1  1
M  END
