mac-x0360-mac-x0590
     RDKit          3D

 27 30  0  0  0  0  0  0  0  0999 V2000
   -8.1540   11.1740    1.6250 Cl  0  0  0  0  0  0  0  0  0  0  0  0
   -6.8680   11.3850    0.5030 C   0  0  0  0  0  0  0  0  0  0  0  0
   -6.7040   10.5040   -0.5660 C   0  0  0  0  0  0  0  0  0  0  0  0
   -6.0030   12.4310    0.6800 C   0  0  0  0  0  0  0  0  0  0  0  0
   -4.9770   12.5900   -0.2180 C   0  0  0  0  0  0  0  0  0  0  0  0
   -5.6450   10.6920   -1.4590 C   0  0  0  0  0  0  0  0  0  0  0  0
   -5.4140    9.6170   -2.7780 Cl  0  0  0  0  0  0  0  0  0  0  0  0
   -3.9040   13.9330    0.0310 S   0  0  0  0  0  0  0  0  0  0  0  0
   -4.7750   11.7420   -1.2870 C   0  0  0  0  0  0  0  0  0  0  0  0
   -4.8830   14.8440   -1.0120 N   0  0  0  0  0  0  0  0  0  0  0  0
   -3.9460   15.9010   -1.1270 N   0  0  0  0  0  0  0  0  0  0  0  0
   -3.3330   15.9410    0.2120 C   0  0  0  0  0  0  0  0  0  0  0  0
   -3.0060   15.6550   -2.2610 C   0  0  0  0  0  0  0  0  0  0  0  0
   -1.9460   14.6510   -2.0990 N   0  0  0  0  0  0  0  0  0  0  0  0
   -1.8590   15.6110    0.2020 C   0  0  2  0  0  0  0  0  0  0  0  0
   -1.5110   14.5000   -0.7430 C   0  0  2  0  0  0  0  0  0  0  0  0
   -1.3450   14.9930    1.4250 N   0  0  0  0  0  0  0  0  0  0  0  0
   -2.2170   13.4170   -2.8290 C   0  0  0  0  0  0  0  0  0  0  0  0
   -0.0850   14.3980   -0.4910 N   0  0  0  0  0  0  0  0  0  0  0  0
   -0.0310   14.5840    0.9560 C   0  0  0  0  0  0  0  0  0  0  0  0
   -1.9810   13.4790   -4.3500 C   0  0  0  0  0  0  0  0  0  0  0  0
   -0.5150   13.6830   -4.7790 C   0  0  0  0  0  0  0  0  0  0  0  0
    0.3260   12.3980   -4.7930 C   0  0  2  0  0  0  0  0  0  0  0  0
    0.7890   11.9710   -3.4050 C   0  0  0  0  0  0  0  0  0  0  0  0
    1.6220   12.6630   -5.5430 C   0  0  0  0  0  0  0  0  0  0  0  0
    2.6150   12.9770   -4.4440 C   0  0  0  0  0  0  0  0  0  0  0  0
    2.1960   12.2440   -3.2900 O   0  0  0  0  0  0  0  0  0  0  0  0
  1  2  1  0
  2  3  2  0
  2  4  1  0
  4  5  2  0
  3  6  1  0
  6  7  1  0
  5  8  1  0
  5  9  1  0
  6  9  2  0
  8 10  2  3
 10 11  1  0
 11 12  1  0
 11 13  1  0
 13 14  1  0
 15 12  1  1
 14 16  1  0
 15 16  1  0
 15 17  1  0
 14 18  1  0
 16 19  1  6
 17 20  1  0
 19 20  1  0
 18 21  1  0
 21 22  1  0
 23 22  1  1
 23 24  1  0
 23 25  1  0
 25 26  1  0
 24 27  1  0
 26 27  1  0
M  END
