mac-x0433-mac-x0180
     RDKit          3D

 21 22  0  0  0  0  0  0  0  0999 V2000
   -3.4150   16.2190    1.0290 C   0  0  0  0  0  0  0  0  0  0  0  0
   -4.5410   15.7350    0.2110 C   0  0  0  0  0  0  0  0  0  0  0  0
   -5.5100   15.1560    0.9290 C   0  0  0  0  0  0  0  0  0  0  0  0
   -4.6010   15.8300   -1.1430 N   0  0  0  0  0  0  0  0  0  0  0  0
   -5.7090   15.3080   -1.7160 C   0  0  0  0  0  0  0  0  0  0  0  0
   -6.5540   14.6760    0.2370 C   0  0  0  0  0  0  0  0  0  0  0  0
   -7.5760   13.9810    0.9600 C   0  0  0  0  0  0  0  0  0  0  0  0
   -5.8640   15.3070   -3.0680 N   0  0  0  0  0  0  0  0  0  0  0  0
   -6.7020   14.7390   -1.0750 N   0  0  0  0  0  0  0  0  0  0  0  0
   -6.8290   12.6890    0.8060 C   0  0  0  0  0  0  0  0  0  0  0  0
   -7.4250   11.6840    0.4720 O   0  0  0  0  0  0  0  0  0  0  0  0
   -5.4310   12.8530    1.0400 N   0  0  0  0  0  0  0  0  0  0  0  0
   -4.3860   13.3420    0.1630 C   0  0  0  0  0  0  0  0  0  0  0  0
   -3.1380   13.8160    0.6210 C   0  0  0  0  0  0  0  0  0  0  0  0
   -4.5970   13.3580   -1.2360 C   0  0  0  0  0  0  0  0  0  0  0  0
   -2.1440   14.2840   -0.2710 C   0  0  0  0  0  0  0  0  0  0  0  0
   -3.6080   13.8260   -2.1310 C   0  0  0  0  0  0  0  0  0  0  0  0
   -2.3780   14.2890   -1.6540 C   0  0  0  0  0  0  0  0  0  0  0  0
   -1.3190   14.7820   -2.5920 C   0  0  0  0  0  0  0  0  0  0  0  0
   -1.5120   14.9980   -3.7760 O   0  0  0  0  0  0  0  0  0  0  0  0
   -0.1200   14.9660   -2.0000 O   0  0  0  0  0  0  0  0  0  0  0  0
  1  2  1  0
  2  3  2  0
  2  4  1  0
  4  5  2  0
  3  6  1  0
  6  7  1  0
  5  8  1  0
  5  9  1  0
  6  9  2  0
  7 10  1  0
 10 11  2  0
 10 12  1  0
 12 13  1  0
 13 14  2  0
 13 15  1  0
 14 16  1  0
 15 17  2  0
 16 18  2  0
 17 18  1  0
 18 19  1  0
 19 20  2  0
 19 21  1  0
M  END
