mac-x0306-mac-x0587
     RDKit          3D

 21 22  0  0  0  0  0  0  0  0999 V2000
    0.1160   15.9890   -3.8980 C   0  0  0  0  0  0  0  0  0  0  0  0
   -0.6710   14.7370   -3.4850 C   0  0  2  0  0  0  0  0  0  0  0  0
   -0.3190   13.4190   -4.7540 S   0  0  0  0  0  0  0  0  0  0  0  0
   -2.2070   15.0210   -3.5080 C   0  0  0  0  0  0  0  0  0  0  0  0
   -0.6500   11.8690   -3.8600 C   0  0  0  0  0  0  0  0  0  0  0  0
   -2.7010   15.3820   -4.5860 O   0  0  0  0  0  0  0  0  0  0  0  0
   -3.0950   14.8920   -2.3870 N   0  0  0  0  0  0  0  0  0  0  0  0
    0.4520   11.4250   -2.9280 C   0  0  0  0  0  0  0  0  0  0  0  0
   -4.4080   15.1380   -2.7570 C   0  0  0  0  0  0  0  0  0  0  0  0
   -2.8020   14.8330   -1.0040 C   0  0  0  0  0  0  0  0  0  0  0  0
    0.6150   10.2920   -2.4980 O   0  0  0  0  0  0  0  0  0  0  0  0
    1.3020   12.4180   -2.5620 O   0  0  0  0  0  0  0  0  0  0  0  0
   -1.6680   14.8510   -0.5090 O   0  0  0  0  0  0  0  0  0  0  0  0
   -5.4380   15.1400   -1.9180 C   0  0  0  0  0  0  0  0  0  0  0  0
   -3.9950   14.7250   -0.0670 C   0  0  0  0  0  0  0  0  0  0  0  0
   -5.2750   14.8670   -0.5140 C   0  0  0  0  0  0  0  0  0  0  0  0
   -6.4190   14.7370    0.3580 C   0  0  0  0  0  0  0  0  0  0  0  0
   -6.3520   14.5640    1.7330 N   0  0  0  0  0  0  0  0  0  0  0  0
   -7.6990   14.7570   -0.0030 N   0  0  0  0  0  0  0  0  0  0  0  0
   -8.4450   14.6020    1.1280 C   0  0  0  0  0  0  0  0  0  0  0  0
   -7.6320   14.4810    2.2200 C   0  0  0  0  0  0  0  0  0  0  0  0
  2  1  1  6
  2  3  1  0
  2  4  1  0
  3  5  1  0
  4  6  2  0
  4  7  1  0
  5  8  1  0
  7  9  1  0
  7 10  1  0
  8 11  2  0
  8 12  1  0
 10 13  2  0
  9 14  2  0
 10 15  1  0
 14 16  1  0
 15 16  2  0
 16 17  1  0
 17 18  1  0
 17 19  2  0
 19 20  1  0
 18 21  1  0
 20 21  2  0
M  END
