mac-x0433-diamond-x0926_0_A
     RDKit          3D

  9  9  0  0  0  0  0  0  0  0999 V2000
   -3.1040   15.2450    0.5550 C   0  0  0  0  0  0  0  0  0  0  0  0
   -4.4720   15.0930   -0.0320 C   0  0  0  0  0  0  0  0  0  0  0  0
   -5.5340   14.8740    0.8100 C   0  0  0  0  0  0  0  0  0  0  0  0
   -4.6190   15.1690   -1.3720 N   0  0  0  0  0  0  0  0  0  0  0  0
   -5.8640   15.0250   -1.8480 C   0  0  0  0  0  0  0  0  0  0  0  0
   -6.7720   14.7400    0.2180 C   0  0  0  0  0  0  0  0  0  0  0  0
   -7.9870   14.5020    1.0570 C   0  0  0  0  0  0  0  0  0  0  0  0
   -6.0420   15.0860   -3.2120 N   0  0  0  0  0  0  0  0  0  0  0  0
   -6.9490   14.8150   -1.1100 N   0  0  0  0  0  0  0  0  0  0  0  0
  1  2  1  0
  2  3  2  0
  2  4  1  0
  4  5  2  0
  3  6  1  0
  6  7  1  0
  5  8  1  0
  5  9  1  0
  6  9  2  0
M  END
