mac-x0204-mac-x0567
     RDKit          3D

 22 24  0  0  0  0  0  0  0  0999 V2000
    1.3570   12.9810   -3.8390 O   0  0  0  0  0  0  0  0  0  0  0  0
    0.4440   13.8460   -3.2200 C   0  0  0  0  0  0  0  0  0  0  0  0
    1.1160   15.0850   -3.0760 O   0  0  0  0  0  0  0  0  0  0  0  0
    0.2200   13.2620   -1.8570 C   0  0  0  0  0  0  0  0  0  0  0  0
   -0.8110   13.9670   -4.0520 C   0  0  0  0  0  0  0  0  0  0  0  0
    0.7480   14.2310   -0.8470 C   0  0  0  0  0  0  0  0  0  0  0  0
   -1.2770   15.1960   -4.5530 C   0  0  0  0  0  0  0  0  0  0  0  0
   -1.5610   12.8310   -4.3550 C   0  0  0  0  0  0  0  0  0  0  0  0
    0.1060   13.9360    0.3870 N   0  0  0  0  0  0  0  0  0  0  0  0
   -2.4390   15.2250   -5.3150 C   0  0  0  0  0  0  0  0  0  0  0  0
   -2.6940   12.8370   -5.0940 N   0  0  0  0  0  0  0  0  0  0  0  0
   -2.9410   16.3820   -5.8350 O   0  0  0  0  0  0  0  0  0  0  0  0
   -3.1080   14.0370   -5.5570 C   0  0  0  0  0  0  0  0  0  0  0  0
   -1.1710   14.3180    0.6040 C   0  0  0  0  0  0  0  0  0  0  0  0
   -1.7000   14.4010    1.8310 N   0  0  0  0  0  0  0  0  0  0  0  0
   -2.2110   14.6950   -0.2240 C   0  0  0  0  0  0  0  0  0  0  0  0
   -2.9800   14.7990    1.8930 N   0  0  0  0  0  0  0  0  0  0  0  0
   -3.3330   14.9940    0.6280 C   0  0  0  0  0  0  0  0  0  0  0  0
   -2.2060   14.7820   -1.6120 C   0  0  0  0  0  0  0  0  0  0  0  0
   -4.5610   15.4170    0.0980 C   0  0  0  0  0  0  0  0  0  0  0  0
   -3.4540   15.2070   -2.1210 C   0  0  0  0  0  0  0  0  0  0  0  0
   -4.5810   15.5120   -1.3040 C   0  0  0  0  0  0  0  0  0  0  0  0
  2  1  1  0
  2  3  1  0
  2  4  1  0
  2  5  1  0
  4  6  1  0
  5  7  2  0
  5  8  1  0
  6  9  1  0
  7 10  1  0
  8 11  2  0
 10 12  1  0
 10 13  2  0
 11 13  1  0
  9 14  1  0
 14 15  1  0
 14 16  2  0
 15 17  1  0
 16 18  1  0
 17 18  2  0
 16 19  1  0
 18 20  1  0
 19 21  2  0
 20 22  2  0
 21 22  1  0
M  END
