mac-x0373-mac-x0441
     RDKit          3D

 32 35  0  0  0  0  0  0  0  0999 V2000
    0.1990   12.6870   -2.1170 N   0  0  0  0  0  0  0  0  0  0  0  0
    0.0490   14.0510   -2.2440 C   0  0  0  0  0  0  0  0  0  0  0  0
    0.9350   14.8660   -1.9760 O   0  0  0  0  0  0  0  0  0  0  0  0
    0.4910   11.9760   -3.1820 C   0  0  0  0  0  0  0  0  0  0  0  0
   -1.3420   14.4650   -2.7600 C   0  0  0  0  0  0  0  0  0  0  0  0
    0.5860   10.6400   -3.0580 O   0  0  0  0  0  0  0  0  0  0  0  0
    0.7360   12.5510   -4.5820 C   0  0  0  0  0  0  0  0  0  0  0  0
   -1.9330   13.4250   -3.7020 C   0  0  0  0  0  0  0  0  0  0  0  0
   -2.3800   14.8390   -1.6980 C   0  0  0  0  0  0  0  0  0  0  0  0
    0.4140   11.6530   -5.7130 N   0  0  0  0  0  0  0  0  0  0  0  0
   -1.5840   13.3630   -5.0550 C   0  0  0  0  0  0  0  0  0  0  0  0
   -2.8590   12.5030   -3.1880 C   0  0  0  0  0  0  0  0  0  0  0  0
   -3.6100   15.3640   -2.1290 C   0  0  0  0  0  0  0  0  0  0  0  0
   -2.1630   14.6800   -0.3170 C   0  0  0  0  0  0  0  0  0  0  0  0
    1.0970   11.7960   -6.9010 N   0  0  0  0  0  0  0  0  0  0  0  0
   -0.5010   10.6360   -5.7910 C   0  0  0  0  0  0  0  0  0  0  0  0
   -2.1490   12.4000   -5.8820 C   0  0  0  0  0  0  0  0  0  0  0  0
   -3.4260   11.5380   -4.0190 C   0  0  0  0  0  0  0  0  0  0  0  0
   -4.5980   15.7230   -1.2130 C   0  0  0  0  0  0  0  0  0  0  0  0
   -3.1580   15.0440    0.5980 C   0  0  0  0  0  0  0  0  0  0  0  0
    0.5750   10.8370   -7.7260 C   0  0  0  0  0  0  0  0  0  0  0  0
   -0.4190   10.1120   -7.0560 C   0  0  0  0  0  0  0  0  0  0  0  0
   -1.4220   10.1450   -4.7490 C   0  0  0  0  0  0  0  0  0  0  0  0
    0.9390   10.5040   -9.1670 C   0  0  0  0  0  0  0  0  0  0  0  0
   -3.0680   11.4950   -5.3640 C   0  0  0  0  0  0  0  0  0  0  0  0
   -4.3660   15.5610    0.1490 C   0  0  0  0  0  0  0  0  0  0  0  0
   -1.2540    8.9820   -7.5550 C   0  0  0  0  0  0  0  0  0  0  0  0
   -2.5830    9.3620   -5.4050 C   0  0  0  0  0  0  0  0  0  0  0  0
    1.5720    9.3000   -9.2340 F   0  0  0  0  0  0  0  0  0  0  0  0
   -0.1740   10.3600   -9.9260 F   0  0  0  0  0  0  0  0  0  0  0  0
    1.6880   11.3700   -9.8690 F   0  0  0  0  0  0  0  0  0  0  0  0
   -2.0790    8.3360   -6.4300 C   0  0  0  0  0  0  0  0  0  0  0  0
  1  2  1  0
  2  3  2  0
  1  4  2  3
  2  5  1  0
  4  6  1  0
  4  7  1  0
  5  8  1  0
  5  9  1  0
  7 10  1  0
  8 11  2  0
  8 12  1  0
  9 13  2  0
  9 14  1  0
 10 15  1  0
 10 16  1  0
 11 17  1  0
 12 18  2  0
 13 19  1  0
 14 20  2  0
 15 21  2  0
 16 22  2  0
 21 22  1  0
 16 23  1  0
 21 24  1  0
 17 25  2  0
 18 25  1  0
 19 26  2  0
 20 26  1  0
 22 27  1  0
 23 28  1  0
 24 29  1  0
 24 30  1  0
 24 31  1  0
 27 32  1  0
 28 32  1  0
M  END
