mac-x0441-diamond-x0905_0_A
     RDKit          3D

 27 29  0  0  0  0  0  0  0  0999 V2000
    0.4460   10.6820   -3.3430 O   0  0  0  0  0  0  0  0  0  0  0  0
    0.5360   12.0240   -3.3410 C   0  0  0  0  0  0  0  0  0  0  0  0
    0.5800   12.6630   -2.2150 N   0  0  0  0  0  0  0  0  0  0  0  0
    0.5720   12.6930   -4.7050 C   0  0  0  0  0  0  0  0  0  0  0  0
    0.6540   14.1210   -2.0850 C   0  0  0  0  0  0  0  0  0  0  0  0
    0.2610   11.7670   -5.8010 N   0  0  0  0  0  0  0  0  0  0  0  0
   -0.2850   14.5560   -0.9420 C   0  0  0  0  0  0  0  0  0  0  0  0
    1.0390   11.7890   -6.9300 N   0  0  0  0  0  0  0  0  0  0  0  0
   -0.7340   10.8360   -5.8900 C   0  0  0  0  0  0  0  0  0  0  0  0
   -1.7680   14.5410   -1.3580 C   0  0  0  0  0  0  0  0  0  0  0  0
    0.4990   10.8360   -7.7460 C   0  0  0  0  0  0  0  0  0  0  0  0
   -0.6010   10.2290   -7.1160 C   0  0  0  0  0  0  0  0  0  0  0  0
   -1.7810   10.5050   -4.8900 C   0  0  0  0  0  0  0  0  0  0  0  0
    0.9440   10.4200   -9.1360 C   0  0  0  0  0  0  0  0  0  0  0  0
   -1.4910    9.1450   -7.6140 C   0  0  0  0  0  0  0  0  0  0  0  0
   -2.9270    9.7540   -5.5990 C   0  0  0  0  0  0  0  0  0  0  0  0
   -2.7460   14.7500   -0.2110 C   0  0  0  0  0  0  0  0  0  0  0  0
    1.6210    9.2420   -9.1490 F   0  0  0  0  0  0  0  0  0  0  0  0
   -0.1300   10.2220   -9.9370 F   0  0  0  0  0  0  0  0  0  0  0  0
    1.6710   11.3160   -9.8250 F   0  0  0  0  0  0  0  0  0  0  0  0
   -2.4020    8.6170   -6.4920 C   0  0  0  0  0  0  0  0  0  0  0  0
   -3.8370   14.9670    0.7050 C   0  0  0  0  0  0  0  0  0  0  0  0
   -3.5130   14.8370   -1.4350 C   0  0  0  0  0  0  0  0  0  0  0  0
   -5.1760   15.1760    0.5890 N   0  0  0  0  0  0  0  0  0  0  0  0
   -4.8720   15.0510   -1.6620 C   0  0  0  0  0  0  0  0  0  0  0  0
   -5.6590   15.2070   -0.6090 C   0  0  0  0  0  0  0  0  0  0  0  0
   -6.9980   15.4040   -0.7180 O   0  0  0  0  0  0  0  0  0  0  0  0
  1  2  1  0
  2  3  2  3
  2  4  1  0
  3  5  1  0
  4  6  1  0
  5  7  1  0
  6  8  1  0
  6  9  1  0
  7 10  1  0
  8 11  2  0
  9 12  2  0
 11 12  1  0
  9 13  1  0
 11 14  1  0
 12 15  1  0
 13 16  1  0
 10 17  1  0
 14 18  1  0
 14 19  1  0
 14 20  1  0
 15 21  1  0
 16 21  1  0
 17 22  2  0
 17 23  1  0
 22 24  1  0
 23 25  2  0
 24 26  2  0
 25 26  1  0
 26 27  1  0
M  END
