mac-x0546-mac-x0357
     RDKit          3D

 24 26  0  0  0  0  0  0  0  0999 V2000
   -4.2570   15.0940   -6.1520 C   0  0  0  0  0  0  0  0  0  0  0  0
   -3.7360   15.8750   -5.0860 O   0  0  0  0  0  0  0  0  0  0  0  0
   -2.3850   16.0990   -4.9150 C   0  0  0  0  0  0  0  0  0  0  0  0
   -1.6050   15.1780   -4.2650 C   0  0  0  0  0  0  0  0  0  0  0  0
   -1.8840   17.3460   -5.4560 C   0  0  0  0  0  0  0  0  0  0  0  0
   -0.2060   15.4840   -4.1010 C   0  0  2  0  0  0  0  0  0  0  0  0
   -0.5870   17.5580   -5.5260 C   0  0  0  0  0  0  0  0  0  0  0  0
    0.2850   16.4850   -5.0400 C   0  0  0  0  0  0  0  0  0  0  0  0
    0.9290   14.6560   -3.7530 C   0  0  0  0  0  0  0  0  0  0  0  0
    1.2520   13.5390   -2.7630 C   0  0  0  0  0  0  0  0  0  0  0  0
    1.4690   16.2180   -5.2950 N   0  0  0  0  0  0  0  0  0  0  0  0
    1.8840   15.1040   -4.4930 C   0  0  0  0  0  0  0  0  0  0  0  0
    0.2290   12.3420   -2.3720 S   0  0  0  0  0  0  0  0  0  0  0  0
    0.1020   12.8250   -1.0890 O   0  0  0  0  0  0  0  0  0  0  0  0
    0.2150   11.0080   -1.8520 O   0  0  0  0  0  0  0  0  0  0  0  0
   -1.5030   13.2020   -2.3890 O   0  0  0  0  0  0  0  0  0  0  0  0
   -0.0740   11.9320   -3.9590 C   0  0  0  0  0  0  0  0  0  0  0  0
    0.8630   12.0700   -4.9660 C   0  0  0  0  0  0  0  0  0  0  0  0
   -1.2800   11.3980   -4.4080 C   0  0  0  0  0  0  0  0  0  0  0  0
    2.2340   12.6520   -4.7350 C   0  0  0  0  0  0  0  0  0  0  0  0
   -1.5620   11.0220   -5.6760 C   0  0  0  0  0  0  0  0  0  0  0  0
    0.6120   11.6790   -6.2460 C   0  0  0  0  0  0  0  0  0  0  0  0
    1.6340   11.8090   -7.1720 O   0  0  0  0  0  0  0  0  0  0  0  0
   -0.5730   11.1720   -6.5910 C   0  0  0  0  0  0  0  0  0  0  0  0
  1  2  1  0
  2  3  1  0
  3  4  2  0
  3  5  1  0
  6  4  1  6
  5  7  2  0
  6  8  1  0
  7  8  1  0
  6  9  1  0
  9 10  1  0
  8 11  2  0
  9 12  2  0
 11 12  1  0
 10 13  1  0
 13 14  2  0
 13 15  1  0
 13 16  1  0
 13 17  1  0
 17 18  2  0
 17 19  1  0
 18 20  1  0
 19 21  2  0
 18 22  1  0
 22 23  1  0
 21 24  1  0
 22 24  2  0
M  END
