mac-x0338-diamond-x0104_0_A
     RDKit          3D

 25 27  0  0  0  0  0  0  0  0999 V2000
   -3.2690   14.2880    1.9790 N   0  0  0  0  0  0  0  0  0  0  0  0
   -4.0780   15.2130    1.1760 C   0  0  1  0  0  0  0  0  0  0  0  0
   -3.6440   15.2320   -0.2540 C   0  0  0  0  0  0  0  0  0  0  0  0
   -5.4160   14.8110    0.7520 C   0  0  0  0  0  0  0  0  0  0  0  0
   -2.4420   14.7060   -0.5830 N   0  0  0  0  0  0  0  0  0  0  0  0
   -4.5050   15.7590   -1.2160 C   0  0  0  0  0  0  0  0  0  0  0  0
   -5.2410   14.7570   -0.5720 N   0  0  0  0  0  0  0  0  0  0  0  0
   -6.6080   14.5300    1.3670 C   0  0  0  0  0  0  0  0  0  0  0  0
   -2.1630   14.7310   -1.9030 C   0  0  0  0  0  0  0  0  0  0  0  0
   -4.2130   15.7750   -2.5260 N   0  0  0  0  0  0  0  0  0  0  0  0
   -6.2240   14.4390   -1.3700 C   0  0  0  0  0  0  0  0  0  0  0  0
   -7.6660   14.1940    0.4990 C   0  0  0  0  0  0  0  0  0  0  0  0
   -6.8280   14.5570    2.8300 C   0  0  0  0  0  0  0  0  0  0  0  0
   -3.0270   15.2490   -2.8500 C   0  0  0  0  0  0  0  0  0  0  0  0
   -5.9790   14.4000   -2.7270 O   0  0  0  0  0  0  0  0  0  0  0  0
   -7.4740   14.1490   -0.8880 C   0  0  0  0  0  0  0  0  0  0  0  0
   -8.1120   15.1650    3.3070 C   0  0  0  0  0  0  0  0  0  0  0  0
   -4.7820   13.7000   -3.0720 C   0  0  0  0  0  0  0  0  0  0  0  0
   -8.1220   15.1590    4.6740 N   0  0  0  0  0  0  0  0  0  0  0  0
   -8.9650   15.5670    2.5170 O   0  0  0  0  0  0  0  0  0  0  0  0
   -9.2620   15.1080    5.4430 C   0  0  0  0  0  0  0  0  0  0  0  0
   -9.3230   15.1950    6.8140 C   0  0  0  0  0  0  0  0  0  0  0  0
  -10.8000   14.9200    4.7470 S   0  0  0  0  0  0  0  0  0  0  0  0
  -11.5690   14.9560    6.2710 C   0  0  0  0  0  0  0  0  0  0  0  0
  -10.6630   15.1080    7.2990 C   0  0  0  0  0  0  0  0  0  0  0  0
  2  1  1  1
  2  3  1  0
  2  4  1  0
  3  5  2  0
  3  6  1  0
  4  7  2  0
  4  8  1  0
  5  9  1  0
  6 10  2  0
  7 11  1  0
  8 12  2  0
  8 13  1  0
  9 14  2  0
 10 14  1  0
 11 15  1  0
 11 16  2  0
 12 16  1  0
 13 17  1  0
 15 18  1  0
 17 19  1  0
 17 20  2  0
 19 21  1  0
 21 22  2  0
 21 23  1  0
 23 24  1  0
 22 25  1  0
 24 25  2  0
M  END
