mac-x0572-diamond-x0421_0_A
     RDKit          3D

 16 17  0  0  0  0  0  0  0  0999 V2000
   -8.0700   14.7360    3.3700 C   0  0  0  0  0  0  0  0  0  0  0  0
   -7.3180   14.7710    2.0670 C   0  0  0  0  0  0  0  0  0  0  0  0
   -5.9760   15.0560    2.2190 N   0  0  0  0  0  0  0  0  0  0  0  0
   -7.9150   14.5500    0.8850 C   0  0  0  0  0  0  0  0  0  0  0  0
   -9.2590   14.2730    0.7260 O   0  0  0  0  0  0  0  0  0  0  0  0
   -7.0560   14.6050   -0.3210 C   0  0  0  0  0  0  0  0  0  0  0  0
   -5.1540   14.8250    1.2520 C   0  0  0  0  0  0  0  0  0  0  0  0
   -7.5460   14.9090   -1.4080 O   0  0  0  0  0  0  0  0  0  0  0  0
   -5.6170   14.2490   -0.0620 C   0  0  2  0  0  0  0  0  0  0  0  0
   -3.7120   15.1160    1.4490 C   0  0  0  0  0  0  0  0  0  0  0  0
   -2.9080   15.1230    0.3800 C   0  0  0  0  0  0  0  0  0  0  0  0
   -4.6600   14.4710   -1.1800 C   0  0  0  0  0  0  0  0  0  0  0  0
   -3.4050   14.8610   -0.9630 C   0  0  0  0  0  0  0  0  0  0  0  0
   -2.5740   14.9760   -2.1790 C   0  0  0  0  0  0  0  0  0  0  0  0
   -3.2670   15.2140   -3.3220 N   0  0  0  0  0  0  0  0  0  0  0  0
   -1.3620   14.8500   -2.1670 O   0  0  0  0  0  0  0  0  0  0  0  0
  1  2  1  0
  2  3  1  0
  2  4  2  0
  4  5  1  0
  4  6  1  0
  3  7  2  0
  6  8  2  0
  6  9  1  0
  7  9  1  0
  7 10  1  0
 10 11  2  0
  9 12  1  6
 11 13  1  0
 12 13  2  0
 13 14  1  0
 14 15  1  0
 14 16  2  0
M  END
