mac-x0138-diamond-x0926_0_A
     RDKit          3D

 13 14  0  0  0  0  0  0  0  0999 V2000
   -1.2220   14.6470   -3.3980 C   0  0  0  0  0  0  0  0  0  0  0  0
   -2.2400   14.8310   -2.4000 N   0  0  0  0  0  0  0  0  0  0  0  0
   -3.5680   15.1100   -2.5810 C   0  0  0  0  0  0  0  0  0  0  0  0
   -2.0690   14.7580   -1.0230 C   0  0  0  0  0  0  0  0  0  0  0  0
   -4.2100   15.2140   -1.2880 N   0  0  0  0  0  0  0  0  0  0  0  0
   -3.2760   15.0020   -0.3600 C   0  0  0  0  0  0  0  0  0  0  0  0
   -0.9090   14.4930   -0.3780 N   0  0  0  0  0  0  0  0  0  0  0  0
   -5.4500   15.4610   -1.1960 O   0  0  0  0  0  0  0  0  0  0  0  0
   -3.3250   14.9900    0.9960 C   0  0  0  0  0  0  0  0  0  0  0  0
   -1.0610   14.4810    0.9630 C   0  0  0  0  0  0  0  0  0  0  0  0
   -4.4750   15.2480    1.6990 N   0  0  0  0  0  0  0  0  0  0  0  0
    0.0210   14.2010    1.7620 N   0  0  0  0  0  0  0  0  0  0  0  0
   -2.1820   14.7120    1.6580 N   0  0  0  0  0  0  0  0  0  0  0  0
  1  2  1  0
  2  3  1  0
  2  4  1  0
  3  5  2  0
  4  6  2  0
  5  6  1  0
  4  7  1  0
  5  8  1  0
  6  9  1  0
  7 10  2  0
  9 11  1  0
 10 12  1  0
  9 13  2  0
 10 13  1  0
M  CHG  2   5   1   8  -1
M  END
