mac-x0385-diamond-x0438_0_A
     RDKit          3D

 23 25  0  0  0  0  0  0  0  0999 V2000
   -5.3450   15.7900   -0.6490 C   0  0  0  0  0  0  0  0  0  0  0  0
   -4.0050   15.3170   -0.1900 C   0  0  0  0  0  0  0  0  0  0  0  0
   -2.9690   14.9360   -1.0250 C   0  0  0  0  0  0  0  0  0  0  0  0
   -3.4900   15.1680    1.0530 C   0  0  0  0  0  0  0  0  0  0  0  0
   -2.5780   14.7130    0.0860 N   0  0  0  0  0  0  0  0  0  0  0  0
   -2.4380   14.8020    1.7620 N   0  0  0  0  0  0  0  0  0  0  0  0
   -1.7340   14.5160   -0.5310 N   0  0  0  0  0  0  0  0  0  0  0  0
   -1.5210   14.4620    0.8390 C   0  0  0  0  0  0  0  0  0  0  0  0
   -2.8540   13.5560   -0.7370 C   0  0  0  0  0  0  0  0  0  0  0  0
   -0.1960   14.0070    1.3300 C   0  0  0  0  0  0  0  0  0  0  0  0
   -4.1110   12.8860   -0.6010 C   0  0  0  0  0  0  0  0  0  0  0  0
   -1.9740   12.9960   -1.7000 C   0  0  0  0  0  0  0  0  0  0  0  0
   -5.1640   13.1850    0.2450 N   0  0  0  0  0  0  0  0  0  0  0  0
   -4.4240   11.7740   -1.3730 C   0  0  0  0  0  0  0  0  0  0  0  0
   -2.3170   11.8710   -2.4640 C   0  0  0  0  0  0  0  0  0  0  0  0
   -5.6880   11.4170   -0.9690 N   0  0  0  0  0  0  0  0  0  0  0  0
   -6.0990   12.2910    0.0150 C   0  0  0  0  0  0  0  0  0  0  0  0
   -3.5540   11.2330   -2.3190 C   0  0  0  0  0  0  0  0  0  0  0  0
   -7.4220   12.1660    0.6700 C   0  0  0  0  0  0  0  0  0  0  0  0
   -8.1600   13.7390    1.1200 S   0  0  0  0  0  0  0  0  0  0  0  0
   -7.1810   14.4340    2.4360 C   0  0  0  0  0  0  0  0  0  0  0  0
   -9.4490   13.4110    1.7100 O   0  0  0  0  0  0  0  0  0  0  0  0
   -8.1230   14.6480   -0.0090 O   0  0  0  0  0  0  0  0  0  0  0  0
  1  2  1  0
  2  3  2  0
  2  4  1  0
  4  5  1  0
  4  6  2  0
  3  7  1  0
  6  8  1  0
  7  8  2  0
  5  9  1  0
  8 10  1  0
  9 11  1  0
  9 12  2  0
 11 13  1  0
 11 14  2  0
 12 15  1  0
 14 16  1  0
 13 17  2  0
 16 17  1  0
 14 18  1  0
 15 18  2  0
 17 19  1  0
 20 19  1  0
 20 21  1  0
 20 22  2  0
 20 23  2  0
M  END
