mac-x0451-diamond-x0950_1_A
     RDKit          3D

 19 20  0  0  0  0  0  0  0  0999 V2000
   -6.6260   14.7470    2.6080 N   0  0  0  0  0  0  0  0  0  0  0  0
   -5.7920   14.8050    1.5580 C   0  0  0  0  0  0  0  0  0  0  0  0
   -6.2250   14.9520    0.3400 N   0  0  0  0  0  0  0  0  0  0  0  0
   -4.0860   14.6990    1.7290 S   0  0  0  0  0  0  0  0  0  0  0  0
   -5.1630   14.9950   -0.5320 C   0  0  0  0  0  0  0  0  0  0  0  0
   -3.9030   14.8680    0.0430 C   0  0  0  0  0  0  0  0  0  0  0  0
   -5.2590   15.1520   -1.9240 C   0  0  0  0  0  0  0  0  0  0  0  0
   -2.7270   14.8870   -0.7100 C   0  0  0  0  0  0  0  0  0  0  0  0
   -4.0970   15.1790   -2.6930 C   0  0  0  0  0  0  0  0  0  0  0  0
   -2.8540   15.0480   -2.0890 C   0  0  0  0  0  0  0  0  0  0  0  0
   -1.7470   15.0940   -2.8990 O   0  0  0  0  0  0  0  0  0  0  0  0
   -1.5940   13.9390   -3.7370 C   0  0  0  0  0  0  0  0  0  0  0  0
   -0.6810   14.3380   -4.9050 C   0  0  0  0  0  0  0  0  0  0  0  0
    0.8130   14.0020   -4.7390 C   0  0  0  0  0  0  0  0  0  0  0  0
    1.2160   12.5420   -4.5070 C   0  0  2  0  0  0  0  0  0  0  0  0
    0.6380   11.6580   -5.4740 O   0  0  0  0  0  0  0  0  0  0  0  0
    0.9170   12.0190   -3.0950 C   0  0  0  0  0  0  0  0  0  0  0  0
    0.2560   11.0280   -2.8250 O   0  0  0  0  0  0  0  0  0  0  0  0
    1.4910   12.8030   -2.1480 O   0  0  0  0  0  0  0  0  0  0  0  0
  1  2  1  0
  2  3  2  0
  2  4  1  0
  3  5  1  0
  4  6  1  0
  5  6  2  0
  5  7  1  0
  6  8  1  0
  7  9  2  0
  8 10  2  0
  9 10  1  0
 10 11  1  0
 11 12  1  0
 12 13  1  0
 13 14  1  0
 14 15  1  0
 15 16  1  6
 15 17  1  0
 17 18  2  0
 17 19  1  0
M  END
