mac-x0510-diamond-x0910_0_A
     RDKit          3D

 11 12  0  0  0  0  0  0  0  0999 V2000
   -6.1510   14.9020    0.8090 O   0  0  0  0  0  0  0  0  0  0  0  0
   -4.9740   14.9930    0.4800 C   0  0  0  0  0  0  0  0  0  0  0  0
   -4.6340   15.1720   -0.8400 N   0  0  0  0  0  0  0  0  0  0  0  0
   -3.9560   14.9040    1.3940 N   0  0  0  0  0  0  0  0  0  0  0  0
   -2.6720   14.8160    0.9580 C   0  0  0  0  0  0  0  0  0  0  0  0
   -3.3680   15.1140   -1.3680 C   0  0  0  0  0  0  0  0  0  0  0  0
   -3.1380   15.2370   -2.5630 O   0  0  0  0  0  0  0  0  0  0  0  0
   -2.3790   14.9110   -0.3690 C   0  0  0  0  0  0  0  0  0  0  0  0
   -1.5650   14.6350    1.7140 N   0  0  0  0  0  0  0  0  0  0  0  0
   -1.0210   14.7790   -0.4450 N   0  0  0  0  0  0  0  0  0  0  0  0
   -0.5750   14.6180    0.8400 C   0  0  0  0  0  0  0  0  0  0  0  0
  1  2  2  0
  2  3  1  0
  2  4  1  0
  4  5  1  0
  3  6  1  0
  6  7  2  0
  5  8  2  0
  6  8  1  0
  5  9  1  0
  8 10  1  0
  9 11  2  0
 10 11  1  0
M  END
