mac-x0412-mac-x0319
     RDKit          3D

 23 25  0  0  0  0  0  0  0  0999 V2000
   -8.0020   14.8300   -0.1450 O   0  0  0  0  0  0  0  0  0  0  0  0
   -6.8820   14.6520    0.3290 C   0  0  0  0  0  0  0  0  0  0  0  0
   -6.6510   14.7800    1.6710 N   0  0  0  0  0  0  0  0  0  0  0  0
   -5.6770   14.2800   -0.5570 C   0  0  2  0  0  0  0  0  0  0  0  0
   -4.3920   14.9600   -0.1170 C   0  0  0  0  0  0  0  0  0  0  0  0
   -5.4570   15.1150    2.0250 C   0  0  0  0  0  0  0  0  0  0  0  0
   -5.9980   14.5600   -1.9760 C   0  0  0  0  0  0  0  0  0  0  0  0
   -4.2800   15.3660    1.1550 C   0  0  0  0  0  0  0  0  0  0  0  0
   -3.3460   15.1330   -1.1580 C   0  0  0  0  0  0  0  0  0  0  0  0
   -5.0840   14.9470   -2.8370 C   0  0  0  0  0  0  0  0  0  0  0  0
   -3.7080   15.1380   -2.4870 C   0  0  0  0  0  0  0  0  0  0  0  0
   -2.9380   15.3270   -3.8020 C   0  0  0  0  0  0  0  0  0  0  0  0
   -1.4590   15.1180   -3.9670 C   0  0  0  0  0  0  0  0  0  0  0  0
   -0.6870   16.2140   -4.3310 C   0  0  0  0  0  0  0  0  0  0  0  0
   -0.8350   13.8820   -3.7800 C   0  0  0  0  0  0  0  0  0  0  0  0
    0.5530   13.7490   -3.9510 C   0  0  0  0  0  0  0  0  0  0  0  0
    0.6670   16.0990   -4.4980 C   0  0  0  0  0  0  0  0  0  0  0  0
    1.1810   12.3970   -3.7320 C   0  0  0  0  0  0  0  0  0  0  0  0
    1.2950   17.2430   -4.8480 O   0  0  0  0  0  0  0  0  0  0  0  0
    1.3160   14.8750   -4.3130 C   0  0  0  0  0  0  0  0  0  0  0  0
    0.7360   11.7980   -2.4140 C   0  0  0  0  0  0  0  0  0  0  0  0
    0.5060   10.4610   -2.4710 O   0  0  0  0  0  0  0  0  0  0  0  0
    0.5690   12.3860   -1.3600 O   0  0  0  0  0  0  0  0  0  0  0  0
  1  2  2  0
  2  3  1  0
  2  4  1  0
  4  5  1  0
  3  6  2  0
  4  7  1  6
  5  8  2  0
  6  8  1  0
  5  9  1  0
  7 10  2  0
  9 11  2  0
 10 11  1  0
 11 12  1  0
 12 13  1  0
 13 14  2  0
 13 15  1  0
 15 16  2  0
 14 17  1  0
 16 18  1  0
 17 19  1  0
 16 20  1  0
 17 20  2  0
 18 21  1  0
 21 22  1  0
 21 23  2  0
M  END
