mac-x0138-diamond-x0910_0_A
     RDKit          3D

 13 14  0  0  0  0  0  0  0  0999 V2000
   -1.5880   14.6760   -3.5770 C   0  0  0  0  0  0  0  0  0  0  0  0
   -2.4610   15.1720   -2.5110 N   0  0  0  0  0  0  0  0  0  0  0  0
   -3.8840   14.8870   -2.7380 C   0  0  0  0  0  0  0  0  0  0  0  0
   -2.2960   14.5760   -1.1840 C   0  0  2  0  0  0  0  0  0  0  0  0
   -4.5660   14.8090   -1.4290 N   0  0  0  0  0  0  0  0  0  0  0  0
   -3.4900   15.1330   -0.4650 C   0  0  1  0  0  0  0  0  0  0  0  0
   -1.0110   14.7570   -0.5650 N   0  0  0  0  0  0  0  0  0  0  0  0
   -0.2060   13.6320   -1.0330 N   0  0  0  0  0  0  0  0  0  0  0  0
   -3.5170   14.5420    0.9460 C   0  0  2  0  0  0  0  0  0  0  0  0
   -1.0290   14.9080    0.8890 C   0  0  2  0  0  0  0  0  0  0  0  0
   -4.4050   15.3130    1.7890 N   0  0  0  0  0  0  0  0  0  0  0  0
   -0.1060   14.0230    1.5420 N   0  0  0  0  0  0  0  0  0  0  0  0
   -2.2440   14.6310    1.6230 N   0  0  0  0  0  0  0  0  0  0  0  0
  1  2  1  0
  2  3  1  0
  4  2  1  6
  3  5  1  0
  4  6  1  0
  6  5  1  6
  4  7  1  0
  7  8  1  0
  6  9  1  0
  7 10  1  0
  9 11  1  1
 10 12  1  1
  9 13  1  0
 10 13  1  0
M  END
