mac-x0564-diamond-x0766_0_A
     RDKit          3D

 16 18  0  0  0  0  0  0  0  0999 V2000
    0.5790   13.2840   -1.6800 N   0  0  0  0  0  0  0  0  0  0  0  0
    0.2140   12.0830   -2.0010 C   0  0  0  0  0  0  0  0  0  0  0  0
    0.6790   10.9740   -1.4590 O   0  0  0  0  0  0  0  0  0  0  0  0
   -0.2480   13.8820   -2.5480 C   0  0  0  0  0  0  0  0  0  0  0  0
   -1.4920   14.2400   -2.1180 C   0  0  0  0  0  0  0  0  0  0  0  0
    0.1320   14.0520   -3.8190 N   0  0  0  0  0  0  0  0  0  0  0  0
   -2.3680   14.7240   -3.0460 C   0  0  0  0  0  0  0  0  0  0  0  0
   -0.7790   14.5600   -4.6500 C   0  0  0  0  0  0  0  0  0  0  0  0
   -2.0590   14.1810   -0.8670 O   0  0  0  0  0  0  0  0  0  0  0  0
   -2.0430   14.9060   -4.3570 N   0  0  0  0  0  0  0  0  0  0  0  0
   -3.3390   14.6230   -1.0160 C   0  0  0  0  0  0  0  0  0  0  0  0
   -3.5640   14.9380   -2.3430 C   0  0  0  0  0  0  0  0  0  0  0  0
   -4.8110   15.3620   -2.7120 C   0  0  0  0  0  0  0  0  0  0  0  0
   -4.3070   14.7470   -0.0200 C   0  0  0  0  0  0  0  0  0  0  0  0
   -5.8250   15.5040   -1.7650 C   0  0  0  0  0  0  0  0  0  0  0  0
   -5.5670   15.2020   -0.4300 C   0  0  0  0  0  0  0  0  0  0  0  0
  1  2  2  3
  2  3  1  0
  1  4  1  0
  4  5  2  0
  4  6  1  0
  5  7  1  0
  6  8  2  0
  5  9  1  0
  7 10  2  0
  8 10  1  0
  9 11  1  0
  7 12  1  0
 11 12  2  0
 12 13  1  0
 11 14  1  0
 13 15  2  0
 14 16  2  0
 15 16  1  0
M  END
