mac-x0496-diamond-x0685_0_A
     RDKit          3D

 20 22  0  0  0  0  0  0  0  0999 V2000
  -10.0800   17.8530    4.7340 C   0  0  0  0  0  0  0  0  0  0  0  0
   -9.9660   16.8090    3.6960 C   0  0  0  0  0  0  0  0  0  0  0  0
  -10.8750   16.6330    2.7270 N   0  0  0  0  0  0  0  0  0  0  0  0
   -8.9190   15.9350    3.6540 N   0  0  0  0  0  0  0  0  0  0  0  0
  -10.3640   15.5620    1.9880 O   0  0  0  0  0  0  0  0  0  0  0  0
   -9.1940   15.1960    2.6060 C   0  0  0  0  0  0  0  0  0  0  0  0
   -8.4340   14.0550    2.0300 C   0  0  0  0  0  0  0  0  0  0  0  0
   -7.1600   14.4670    1.4520 N   0  0  0  0  0  0  0  0  0  0  0  0
   -6.9580   14.7090    0.1140 C   0  0  0  0  0  0  0  0  0  0  0  0
   -5.9960   14.8310    2.2330 N   0  0  0  0  0  0  0  0  0  0  0  0
   -7.7590   14.8230   -0.7850 O   0  0  0  0  0  0  0  0  0  0  0  0
   -4.9720   14.8650    1.2320 C   0  0  0  0  0  0  0  0  0  0  0  0
   -5.5160   14.8050   -0.0510 C   0  0  0  0  0  0  0  0  0  0  0  0
   -3.5940   14.9490    1.3740 C   0  0  0  0  0  0  0  0  0  0  0  0
   -4.7860   14.8320   -1.2090 C   0  0  0  0  0  0  0  0  0  0  0  0
   -2.8050   14.9760    0.2050 C   0  0  0  0  0  0  0  0  0  0  0  0
   -3.4090   14.9190   -1.0850 C   0  0  0  0  0  0  0  0  0  0  0  0
   -2.5710   14.9480   -2.3110 C   0  0  0  0  0  0  0  0  0  0  0  0
   -1.3800   14.7030   -2.3160 O   0  0  0  0  0  0  0  0  0  0  0  0
   -3.2680   15.2750   -3.4220 O   0  0  0  0  0  0  0  0  0  0  0  0
  1  2  1  0
  2  3  2  0
  2  4  1  0
  3  5  1  0
  4  6  2  0
  5  6  1  0
  6  7  1  0
  7  8  1  0
  8  9  1  0
  8 10  1  0
  9 11  2  0
 10 12  1  0
  9 13  1  0
 12 13  2  0
 12 14  1  0
 13 15  1  0
 14 16  2  0
 15 17  2  0
 16 17  1  0
 17 18  1  0
 18 19  2  0
 18 20  1  0
M  END
