mac-x0396-diamond-x0592_0_A
     RDKit          3D

 11 11  0  0  0  0  0  0  0  0999 V2000
   -2.9030   15.0990    0.9920 N   0  0  0  0  0  0  0  0  0  0  0  0
   -3.6020   15.1000   -0.1870 C   0  0  0  0  0  0  0  0  0  0  0  0
   -3.0190   15.2200   -1.2520 O   0  0  0  0  0  0  0  0  0  0  0  0
   -5.0680   14.9290   -0.1230 C   0  0  0  0  0  0  0  0  0  0  0  0
   -5.8280   15.0040   -1.2840 C   0  0  0  0  0  0  0  0  0  0  0  0
   -5.7390   14.6850    1.0660 C   0  0  0  0  0  0  0  0  0  0  0  0
   -7.1810   14.8460   -1.3090 N   0  0  0  0  0  0  0  0  0  0  0  0
   -7.1270   14.5200    1.0810 C   0  0  0  0  0  0  0  0  0  0  0  0
   -7.7980   14.6100   -0.1290 C   0  0  0  0  0  0  0  0  0  0  0  0
   -7.8440   14.2570    2.3660 C   0  0  0  0  0  0  0  0  0  0  0  0
   -7.2480   15.0390    3.3910 O   0  0  0  0  0  0  0  0  0  0  0  0
  1  2  1  0
  2  3  2  0
  2  4  1  0
  4  5  2  0
  4  6  1  0
  5  7  1  0
  6  8  2  0
  7  9  2  0
  8  9  1  0
  8 10  1  0
 10 11  1  0
M  END
