mac-x0588-mac-x0161
     RDKit          3D

 23 26  0  0  0  0  0  0  0  0999 V2000
   -4.4730   15.3500    1.2420 N   0  0  0  0  0  0  0  0  0  0  0  0
   -3.6010   14.8600    0.1830 C   0  0  2  0  0  0  0  0  0  0  0  0
   -2.1590   15.3550    0.2960 C   0  0  2  0  0  0  0  0  0  0  0  0
   -4.1620   15.4640   -1.0030 N   0  0  0  0  0  0  0  0  0  0  0  0
   -3.4220   15.1150   -2.2170 C   0  0  0  0  0  0  0  0  0  0  0  0
   -1.4090   14.9420   -0.9350 C   0  0  1  0  0  0  0  0  0  0  0  0
   -1.3110   14.7970    1.3620 N   0  0  0  0  0  0  0  0  0  0  0  0
   -1.9880   15.3460   -2.1770 N   0  0  0  0  0  0  0  0  0  0  0  0
   -0.1430   15.5110   -0.5640 N   0  0  0  0  0  0  0  0  0  0  0  0
    0.0130   14.8380    0.7260 C   0  0  0  0  0  0  0  0  0  0  0  0
   -1.3900   15.0100   -3.4780 C   0  0  1  0  0  0  0  0  0  0  0  0
   -0.7670   16.0810   -4.4200 C   0  0  1  0  0  0  0  0  0  0  0  0
   -0.8820   13.5930   -3.6550 C   0  0  0  0  0  0  0  0  0  0  0  0
   -1.4350   17.3680   -4.3580 O   0  0  0  0  0  0  0  0  0  0  0  0
    0.7200   16.3780   -4.4830 C   0  0  0  0  0  0  0  0  0  0  0  0
   -1.1260   12.6860   -4.6590 C   0  0  0  0  0  0  0  0  0  0  0  0
   -0.0550   13.0100   -2.7350 O   0  0  0  0  0  0  0  0  0  0  0  0
    0.7600   17.7470   -5.1360 C   0  0  0  0  0  0  0  0  0  0  0  0
   -0.7000   18.1520   -5.2910 C   0  0  0  0  0  0  0  0  0  0  0  0
    0.2420   11.7090   -3.1280 N   0  0  0  0  0  0  0  0  0  0  0  0
   -0.4150   11.5450   -4.2820 C   0  0  0  0  0  0  0  0  0  0  0  0
   -0.3890   10.3960   -4.9900 O   0  0  0  0  0  0  0  0  0  0  0  0
   -1.5760   10.1520   -5.7410 C   0  0  0  0  0  0  0  0  0  0  0  0
  2  1  1  1
  2  3  1  0
  2  4  1  0
  4  5  1  0
  3  6  1  0
  3  7  1  1
  5  8  1  0
  6  8  1  0
  6  9  1  1
  7 10  1  0
  9 10  1  0
  8 11  1  0
 11 12  1  0
 11 13  1  1
 12 14  1  0
 12 15  1  1
 13 16  2  0
 13 17  1  0
 15 18  1  0
 14 19  1  0
 18 19  1  0
 17 20  1  0
 16 21  1  0
 20 21  2  0
 21 22  1  0
 22 23  1  0
M  END
