mac-x0584-mac-x0588
     RDKit          3D

 24 28  0  0  0  0  0  0  0  0999 V2000
   -3.0090   15.7440   -3.0610 C   0  0  0  0  0  0  0  0  0  0  0  0
   -1.7760   16.3900   -3.9110 C   0  0  1  0  0  0  0  0  0  0  0  0
   -2.0840   17.7200   -4.3430 O   0  0  0  0  0  0  0  0  0  0  0  0
   -3.0800   15.6230   -1.5330 C   0  0  0  0  0  0  0  0  0  0  0  0
   -2.0120   15.1620   -0.8250 C   0  0  0  0  0  0  0  0  0  0  0  0
   -4.0290   15.8540   -0.5690 C   0  0  0  0  0  0  0  0  0  0  0  0
   -0.3120   16.5540   -3.4190 C   0  0  0  0  0  0  0  0  0  0  0  0
   -2.3880   15.1700    0.5900 C   0  0  0  0  0  0  0  0  0  0  0  0
   -0.8760   14.7660   -1.2540 C   0  0  0  0  0  0  0  0  0  0  0  0
   -3.6170   15.5830    0.7520 N   0  0  0  0  0  0  0  0  0  0  0  0
    0.2730   17.5520   -4.4180 C   0  0  0  0  0  0  0  0  0  0  0  0
   -0.9520   18.1230   -5.1140 C   0  0  0  0  0  0  0  0  0  0  0  0
   -0.7150   14.7820   -2.6390 N   0  0  0  0  0  0  0  0  0  0  0  0
    0.0140   14.3740   -0.2870 N   0  0  0  0  0  0  0  0  0  0  0  0
   -1.5110   14.7490    1.5430 N   0  0  0  0  0  0  0  0  0  0  0  0
   -0.3320   13.6480   -3.4350 C   0  0  2  0  0  0  0  0  0  0  0  0
   -1.8890   15.2040   -3.4330 C   0  0  0  0  0  0  0  0  0  0  0  0
   -0.3640   14.3830    1.0470 C   0  0  0  0  0  0  0  0  0  0  0  0
    0.8180   12.8550   -2.9310 C   0  0  0  0  0  0  0  0  0  0  0  0
   -0.2060   14.2540   -4.8400 C   0  0  0  0  0  0  0  0  0  0  0  0
   -1.5260   14.9920   -4.9200 C   0  0  0  0  0  0  0  0  0  0  0  0
    2.2110   12.9160   -3.6000 C   0  0  0  0  0  0  0  0  0  0  0  0
    0.7150   11.3610   -3.2770 C   0  0  0  0  0  0  0  0  0  0  0  0
    1.8930   11.5680   -4.2530 C   0  0  0  0  0  0  0  0  0  0  0  0
  2  1  1  1
  2  3  1  0
  1  4  1  0
  4  5  1  0
  4  6  2  0
  2  7  1  0
  5  8  1  0
  5  9  2  0
  6 10  1  0
  8 10  2  0
  7 11  1  0
  3 12  1  0
 11 12  1  0
  9 13  1  0
  9 14  1  0
  8 15  1  0
 13 16  1  0
 13 17  1  0
 14 18  1  0
 15 18  2  0
 16 19  1  1
 16 20  1  0
 17 21  1  0
 20 21  1  0
 19 22  1  0
 19 23  1  0
 22 24  1  0
 23 24  1  0
M  END
