mac-x0301-diamond-x0524_0_A
     RDKit          3D

 32 35  0  0  0  0  0  0  0  0999 V2000
    0.4860   14.7480   -2.7890 O   0  0  0  0  0  0  0  0  0  0  0  0
   -0.7880   14.4660   -3.1050 C   0  0  0  0  0  0  0  0  0  0  0  0
   -1.1200   14.0130   -4.2480 N   0  0  0  0  0  0  0  0  0  0  0  0
   -1.6850   14.7480   -1.9600 C   0  0  0  0  0  0  0  0  0  0  0  0
   -0.1020   13.7720   -5.2590 C   0  0  0  0  0  0  0  0  0  0  0  0
   -1.2150   14.6430   -0.6590 C   0  0  0  0  0  0  0  0  0  0  0  0
   -3.0290   15.1290   -2.1260 C   0  0  0  0  0  0  0  0  0  0  0  0
   -0.5690   12.7360   -6.2690 C   0  0  0  0  0  0  0  0  0  0  0  0
   -2.0210   14.9010    0.4390 C   0  0  0  0  0  0  0  0  0  0  0  0
   -3.8480   15.3920   -1.0060 C   0  0  0  0  0  0  0  0  0  0  0  0
    0.0350   14.2860   -0.2820 O   0  0  0  0  0  0  0  0  0  0  0  0
   -0.5520   11.3210   -5.7180 C   0  0  0  0  0  0  0  0  0  0  0  0
   -3.3410   15.2770    0.2970 C   0  0  0  0  0  0  0  0  0  0  0  0
   -1.3620   14.7440    1.6290 O   0  0  0  0  0  0  0  0  0  0  0  0
   -0.0440   14.4530    1.1400 C   0  0  0  0  0  0  0  0  0  0  0  0
   -0.1670   10.4690   -6.8400 N   0  0  0  0  0  0  0  0  0  0  0  0
   -0.8360    9.4190   -7.1440 C   0  0  0  0  0  0  0  0  0  0  0  0
   -0.5290    8.5680   -8.1880 N   0  0  0  0  0  0  0  0  0  0  0  0
   -2.0690    9.0160   -6.3400 C   0  0  0  0  0  0  0  0  0  0  0  0
    0.5530    8.5600   -9.0930 C   0  0  0  0  0  0  0  0  0  0  0  0
    1.6800    7.7550   -8.9680 C   0  0  0  0  0  0  0  0  0  0  0  0
    0.5000    9.4130  -10.2090 C   0  0  0  0  0  0  0  0  0  0  0  0
    2.7180    7.7880   -9.9110 C   0  0  0  0  0  0  0  0  0  0  0  0
    1.5350    9.4460  -11.1540 C   0  0  0  0  0  0  0  0  0  0  0  0
    2.6610    8.6320  -11.0210 C   0  0  0  0  0  0  0  0  0  0  0  0
    3.6780    8.6860  -11.9870 N   0  0  0  0  0  0  0  0  0  0  0  0
    3.9410    9.5700  -13.0480 C   0  0  0  0  0  0  0  0  0  0  0  0
    3.2030   10.7340  -13.2930 C   0  0  0  0  0  0  0  0  0  0  0  0
    5.0020    9.2710  -13.9100 C   0  0  0  0  0  0  0  0  0  0  0  0
    3.5180   11.5700  -14.3610 C   0  0  0  0  0  0  0  0  0  0  0  0
    5.3190   10.1060  -14.9800 C   0  0  0  0  0  0  0  0  0  0  0  0
    4.5750   11.2590  -15.2060 C   0  0  0  0  0  0  0  0  0  0  0  0
  1  2  1  0
  2  3  2  3
  2  4  1  0
  3  5  1  0
  4  6  1  0
  4  7  2  0
  5  8  1  0
  6  9  2  0
  7 10  1  0
  6 11  1  0
  8 12  1  0
  9 13  1  0
 10 13  2  0
  9 14  1  0
 11 15  1  0
 14 15  1  0
 12 16  1  0
 16 17  2  3
 17 18  1  0
 17 19  1  0
 18 20  1  0
 20 21  2  0
 20 22  1  0
 21 23  1  0
 22 24  2  0
 23 25  2  0
 24 25  1  0
 25 26  1  0
 26 27  1  0
 27 28  2  0
 27 29  1  0
 28 30  1  0
 29 31  2  0
 30 32  2  0
 31 32  1  0
M  END
