mac-x0132-mac-x0303
     RDKit          3D

 15 16  0  0  0  0  0  0  0  0999 V2000
   -3.8110   15.0040    2.0220 N   0  0  0  0  0  0  0  0  0  0  0  0
   -4.9300   14.9290    1.1940 C   0  0  0  0  0  0  0  0  0  0  0  0
   -6.1110   14.7800    1.7790 N   0  0  0  0  0  0  0  0  0  0  0  0
   -4.7720   15.0060   -0.1820 C   0  0  0  0  0  0  0  0  0  0  0  0
   -5.9430   14.9260   -0.9520 C   0  0  0  0  0  0  0  0  0  0  0  0
   -7.1550   14.7130    0.9500 C   0  0  0  0  0  0  0  0  0  0  0  0
   -3.5140   15.1590   -0.7960 C   0  0  0  0  0  0  0  0  0  0  0  0
   -8.6770   14.5340    1.8860 S   0  0  0  0  0  0  0  0  0  0  0  0
   -7.1640   14.7750   -0.4020 N   0  0  0  0  0  0  0  0  0  0  0  0
   -5.8070   15.0010   -2.3320 C   0  0  0  0  0  0  0  0  0  0  0  0
   -3.4060   15.2280   -2.1740 C   0  0  0  0  0  0  0  0  0  0  0  0
   -8.5330   12.9500    2.5240 N   0  0  0  0  0  0  0  0  0  0  0  0
   -8.6260   15.4350    3.0180 O   0  0  0  0  0  0  0  0  0  0  0  0
   -9.8120   14.4770    0.9950 O   0  0  0  0  0  0  0  0  0  0  0  0
   -4.5540   15.1500   -2.9440 C   0  0  0  0  0  0  0  0  0  0  0  0
  1  2  1  0
  2  3  2  0
  2  4  1  0
  4  5  2  0
  3  6  1  0
  4  7  1  0
  6  8  1  0
  5  9  1  0
  6  9  2  0
  5 10  1  0
  7 11  2  0
  8 12  1  0
  8 13  2  0
  8 14  2  0
 10 15  2  0
 11 15  1  0
M  END
