mac-x0404-mac-x0417
     RDKit          3D

 24 27  0  0  0  0  0  0  0  0999 V2000
    1.5170   12.7170   -2.1970 O   0  0  0  0  0  0  0  0  0  0  0  0
    0.8540   11.8920   -3.0530 C   0  0  0  0  0  0  0  0  0  0  0  0
    0.6930   10.7170   -2.7760 O   0  0  0  0  0  0  0  0  0  0  0  0
    0.3160   12.5640   -4.3270 C   0  0  1  0  0  0  0  0  0  0  0  0
    0.8310   13.8780   -4.5320 O   0  0  0  0  0  0  0  0  0  0  0  0
    0.2950   11.6870   -5.5620 C   0  0  0  0  0  0  0  0  0  0  0  0
   -0.3060   14.5790   -4.8170 C   0  0  0  0  0  0  0  0  0  0  0  0
    1.2780   11.7400   -6.4800 N   0  0  0  0  0  0  0  0  0  0  0  0
   -0.6960   10.7350   -5.9310 C   0  0  0  0  0  0  0  0  0  0  0  0
   -0.3030   15.9540   -5.0840 C   0  0  0  0  0  0  0  0  0  0  0  0
   -1.4930   13.8420   -4.8330 C   0  0  0  0  0  0  0  0  0  0  0  0
    0.9300   10.8090   -7.4600 O   0  0  0  0  0  0  0  0  0  0  0  0
   -0.2450   10.2130   -7.1300 C   0  0  0  0  0  0  0  0  0  0  0  0
   -1.9070   10.2580   -5.4010 C   0  0  0  0  0  0  0  0  0  0  0  0
   -1.5440   16.5740   -5.3730 C   0  0  0  0  0  0  0  0  0  0  0  0
   -2.6960   14.4560   -5.1130 C   0  0  0  0  0  0  0  0  0  0  0  0
    0.8570   16.7330   -5.0830 C   0  0  0  0  0  0  0  0  0  0  0  0
   -0.9160    9.2320   -7.8590 C   0  0  0  0  0  0  0  0  0  0  0  0
   -2.6080    9.2720   -6.1090 C   0  0  0  0  0  0  0  0  0  0  0  0
   -2.7230   15.8160   -5.3820 C   0  0  0  0  0  0  0  0  0  0  0  0
   -1.5820   17.9350   -5.6540 C   0  0  0  0  0  0  0  0  0  0  0  0
    0.8020   18.0940   -5.3650 C   0  0  0  0  0  0  0  0  0  0  0  0
   -2.1210    8.7680   -7.3160 C   0  0  0  0  0  0  0  0  0  0  0  0
   -0.4200   18.6860   -5.6520 C   0  0  0  0  0  0  0  0  0  0  0  0
  1  2  1  0
  2  3  2  0
  2  4  1  0
  4  5  1  6
  4  6  1  0
  5  7  1  0
  6  8  2  0
  6  9  1  0
  7 10  1  0
  7 11  2  0
  8 12  1  0
  9 13  2  0
 12 13  1  0
  9 14  1  0
 10 15  2  0
 11 16  1  0
 10 17  1  0
 13 18  1  0
 14 19  2  0
 15 20  1  0
 16 20  2  0
 15 21  1  0
 17 22  2  0
 18 23  2  0
 19 23  1  0
 21 24  2  0
 22 24  1  0
M  END
