mac-x0306-mac-x0361
     RDKit          3D

 15 16  0  0  0  0  0  0  0  0999 V2000
   -6.1110   12.9310   -0.5050 N   0  0  0  0  0  0  0  0  0  0  0  0
   -6.5670   13.8760   -1.3810 C   0  0  0  0  0  0  0  0  0  0  0  0
   -7.6470   13.7360   -1.9370 O   0  0  0  0  0  0  0  0  0  0  0  0
   -5.6580   15.0640   -1.5350 C   0  0  2  0  0  0  0  0  0  0  0  0
   -4.4850   14.7330   -2.4820 C   0  0  0  0  0  0  0  0  0  0  0  0
   -5.2810   15.3670   -0.0780 C   0  0  1  0  0  0  0  0  0  0  0  0
   -6.5150   14.9270    0.7130 C   0  0  0  0  0  0  0  0  0  0  0  0
   -3.1890   15.0320   -1.8700 N   0  0  0  0  0  0  0  0  0  0  0  0
   -3.9450   14.7960    0.3430 C   0  0  0  0  0  0  0  0  0  0  0  0
   -2.1340   14.9370   -2.7830 O   0  0  0  0  0  0  0  0  0  0  0  0
   -6.5120   14.5400    2.0370 N   0  0  0  0  0  0  0  0  0  0  0  0
   -7.7610   14.8680    0.2480 N   0  0  0  0  0  0  0  0  0  0  0  0
   -2.9790   14.6640   -0.5650 C   0  0  0  0  0  0  0  0  0  0  0  0
   -8.5490   14.4450    1.2800 C   0  0  0  0  0  0  0  0  0  0  0  0
   -7.7920   14.2360    2.3990 C   0  0  0  0  0  0  0  0  0  0  0  0
  1  2  1  0
  2  3  2  0
  4  2  1  1
  4  5  1  0
  4  6  1  0
  6  7  1  1
  5  8  1  0
  6  9  1  0
  8 10  1  0
  7 11  1  0
  7 12  2  0
  8 13  1  0
  9 13  2  0
 12 14  1  0
 11 15  1  0
 14 15  2  0
M  END
