mac-x0587-mac-x0453
     RDKit          3D

 18 18  0  0  0  0  0  0  0  0999 V2000
    0.0310   16.1530   -4.1940 C   0  0  0  0  0  0  0  0  0  0  0  0
   -0.6490   14.8460   -3.7950 C   0  0  2  0  0  0  0  0  0  0  0  0
   -0.3770   13.4600   -4.9820 S   0  0  0  0  0  0  0  0  0  0  0  0
   -2.1420   14.9830   -3.3970 C   0  0  0  0  0  0  0  0  0  0  0  0
   -0.6610   11.9970   -3.9350 C   0  0  0  0  0  0  0  0  0  0  0  0
   -2.9750   15.2490   -4.2800 O   0  0  0  0  0  0  0  0  0  0  0  0
   -2.5600   14.8210   -2.0700 N   0  0  0  0  0  0  0  0  0  0  0  0
    0.5560   11.5840   -3.1510 C   0  0  0  0  0  0  0  0  0  0  0  0
   -3.9510   15.0830   -1.6810 C   0  0  0  0  0  0  0  0  0  0  0  0
   -1.8120   14.6750   -0.8780 C   0  0  0  0  0  0  0  0  0  0  0  0
    0.8840   10.4410   -2.9130 O   0  0  0  0  0  0  0  0  0  0  0  0
    1.3010   12.6080   -2.6900 O   0  0  0  0  0  0  0  0  0  0  0  0
   -0.6100   14.6880   -0.7030 O   0  0  0  0  0  0  0  0  0  0  0  0
   -3.8760   15.3060   -0.1640 C   0  0  2  0  0  0  0  0  0  0  0  0
   -2.7270   14.5190    0.1620 N   0  0  0  0  0  0  0  0  0  0  0  0
   -5.1320   15.0450    0.6790 C   0  0  0  0  0  0  0  0  0  0  0  0
   -5.4130   13.6000    1.0860 C   0  0  0  0  0  0  0  0  0  0  0  0
   -6.5800   13.5870    1.9690 N   0  0  0  0  0  0  0  0  0  0  0  0
  2  1  1  6
  2  3  1  0
  2  4  1  0
  3  5  1  0
  4  6  2  0
  4  7  1  0
  5  8  1  0
  7  9  1  0
  7 10  1  0
  8 11  2  0
  8 12  1  0
 10 13  2  0
  9 14  1  0
 10 15  1  0
 14 15  1  0
 14 16  1  1
 16 17  1  0
 17 18  1  0
M  END
