mac-x0137-diamond-x0471_0_A
     RDKit          3D

 27 30  0  0  0  0  0  0  0  0999 V2000
   -2.8400   12.7650   -4.2480 F   0  0  0  0  0  0  0  0  0  0  0  0
   -1.7620   13.5340   -4.5840 C   0  0  2  0  0  0  0  0  0  0  0  0
   -0.5960   12.5910   -4.9030 C   0  0  0  0  0  0  0  0  0  0  0  0
   -1.4840   14.4760   -3.4030 C   0  0  0  0  0  0  0  0  0  0  0  0
   -0.9760   13.6520   -2.2920 N   0  0  0  0  0  0  0  0  0  0  0  0
    0.1910   12.0840   -3.6750 C   0  0  0  0  0  0  0  0  0  0  0  0
    0.3570   13.1180   -2.5590 C   0  0  0  0  0  0  0  0  0  0  0  0
   -1.1670   14.1600   -0.9930 C   0  0  0  0  0  0  0  0  0  0  0  0
   -0.0920   14.4070   -0.2470 N   0  0  0  0  0  0  0  0  0  0  0  0
   -2.4290   14.3900   -0.4880 C   0  0  0  0  0  0  0  0  0  0  0  0
   -0.3120   14.8690    0.9910 C   0  0  0  0  0  0  0  0  0  0  0  0
   -2.5470   14.8860    0.7890 C   0  0  0  0  0  0  0  0  0  0  0  0
   -3.7740   14.1930   -1.0740 C   0  0  0  0  0  0  0  0  0  0  0  0
   -1.5010   15.1260    1.5660 N   0  0  0  0  0  0  0  0  0  0  0  0
   -3.8980   15.1170    1.1840 N   0  0  0  0  0  0  0  0  0  0  0  0
   -4.7440   14.6450    0.0810 C   0  0  2  0  0  0  0  0  0  0  0  0
   -5.8110   13.6910    0.5130 N   0  0  0  0  0  0  0  0  0  0  0  0
   -5.6470   15.6880   -0.6380 C   0  0  0  0  0  0  0  0  0  0  0  0
   -7.0470   15.2760   -0.4150 N   0  0  0  0  0  0  0  0  0  0  0  0
   -6.9460   14.5570    0.8360 C   0  0  1  0  0  0  0  0  0  0  0  0
   -8.2950   13.9080    1.2640 C   0  0  0  0  0  0  0  0  0  0  0  0
   -8.4590   13.7480    2.7150 N   0  0  0  0  0  0  0  0  0  0  0  0
   -8.7950   14.7820    3.5740 C   0  0  0  0  0  0  0  0  0  0  0  0
   -9.1670   15.8970    3.2010 O   0  0  0  0  0  0  0  0  0  0  0  0
   -8.6690   14.4340    5.0580 C   0  0  0  0  0  0  0  0  0  0  0  0
   -9.9280   13.7240    5.5610 C   0  0  0  0  0  0  0  0  0  0  0  0
   -8.3280   15.6530    5.9060 C   0  0  0  0  0  0  0  0  0  0  0  0
  2  1  1  1
  2  3  1  0
  2  4  1  0
  4  5  1  0
  3  6  1  0
  5  7  1  0
  6  7  1  0
  5  8  1  0
  8  9  2  0
  8 10  1  0
  9 11  1  0
 10 12  2  0
 10 13  1  0
 11 14  2  0
 12 14  1  0
 12 15  1  0
 16 13  1  6
 16 15  1  0
 16 17  1  0
 16 18  1  0
 18 19  1  0
 17 20  1  0
 19 20  1  0
 20 21  1  6
 21 22  1  0
 22 23  1  0
 23 24  2  0
 23 25  1  0
 25 26  1  0
 25 27  1  0
M  END
