mac-x0343-diamond-x0496_0_A
     RDKit          3D

 28 30  0  0  0  0  0  0  0  0999 V2000
    1.9000   42.0710    0.6330 C   0  0  0  0  0  0  0  0  0  0  0  0
    3.3490   42.2090    0.1680 C   0  0  0  0  0  0  0  0  0  0  0  0
    4.2020   43.0390    1.1260 C   0  0  0  0  0  0  0  0  0  0  0  0
    3.9680   40.8600   -0.1030 C   0  0  0  0  0  0  0  0  0  0  0  0
    4.7310   40.7750   -1.1980 N   0  0  0  0  0  0  0  0  0  0  0  0
    3.7340   39.8350    0.7340 N   0  0  0  0  0  0  0  0  0  0  0  0
    5.2850   39.5770   -1.4650 C   0  0  0  0  0  0  0  0  0  0  0  0
    4.3240   38.6400    0.4150 C   0  0  0  0  0  0  0  0  0  0  0  0
    4.0080   37.5610    1.4020 C   0  0  0  0  0  0  0  0  0  0  0  0
    5.1210   38.4550   -0.6940 C   0  0  0  0  0  0  0  0  0  0  0  0
    4.5600   36.4700    1.3960 O   0  0  0  0  0  0  0  0  0  0  0  0
    5.9040   37.0180   -1.1910 Cl  0  0  0  0  0  0  0  0  0  0  0  0
    3.0400   37.9560    2.3060 N   0  0  0  0  0  0  0  0  0  0  0  0
    3.1380   37.7450    3.7430 C   0  0  0  0  0  0  0  0  0  0  0  0
    3.7430   38.8610    4.5850 C   0  0  0  0  0  0  0  0  0  0  0  0
    3.9110   38.5000    6.0880 C   0  0  0  0  0  0  0  0  0  0  0  0
    3.2310   37.1940    6.5900 C   0  0  1  0  0  0  0  0  0  0  0  0
    3.7430   36.7210    7.9710 C   0  0  0  0  0  0  0  0  0  0  0  0
    1.6610   37.1680    6.3890 C   0  0  2  0  0  0  0  0  0  0  0  0
    1.1390   38.3440    5.7010 N   0  0  0  0  0  0  0  0  0  0  0  0
    0.7850   36.6480    7.5330 C   0  0  0  0  0  0  0  0  0  0  0  0
    2.7030   36.3700    8.9360 N   0  0  0  0  0  0  0  0  0  0  0  0
    0.9660   39.5750    6.4610 C   0  0  0  0  0  0  0  0  0  0  0  0
    0.1910   38.1280    4.6250 C   0  0  0  0  0  0  0  0  0  0  0  0
    1.5660   35.6760    8.3660 C   0  0  0  0  0  0  0  0  0  0  0  0
    0.2220   40.6590    5.6870 C   0  0  0  0  0  0  0  0  0  0  0  0
    0.1040   39.2550    3.5990 C   0  0  0  0  0  0  0  0  0  0  0  0
    0.5340   40.5900    4.1950 C   0  0  0  0  0  0  0  0  0  0  0  0
  1  2  1  0
  2  3  1  0
  2  4  1  0
  4  5  2  0
  4  6  1  0
  5  7  1  0
  6  8  2  0
  8  9  1  0
  7 10  2  0
  8 10  1  0
  9 11  2  0
 10 12  1  0
  9 13  1  0
 13 14  1  0
 14 15  1  0
 15 16  1  0
 17 16  1  1
 17 18  1  0
 17 19  1  0
 19 20  1  1
 19 21  1  0
 18 22  1  0
 20 23  1  0
 20 24  1  0
 21 25  1  0
 22 25  1  0
 23 26  1  0
 24 27  1  0
 26 28  1  0
 27 28  1  0
M  END
