mac-x0305-mac-x0347
     RDKit          3D

 23 25  0  0  0  0  0  0  0  0999 V2000
    0.8480   13.7930   -0.3840 O   0  0  0  0  0  0  0  0  0  0  0  0
   -0.3110   14.0780   -1.0740 C   0  0  0  0  0  0  0  0  0  0  0  0
   -0.3810   13.9040   -2.4100 C   0  0  0  0  0  0  0  0  0  0  0  0
   -1.5040   14.5820   -0.3210 C   0  0  0  0  0  0  0  0  0  0  0  0
    0.6860   13.4560   -3.1880 O   0  0  0  0  0  0  0  0  0  0  0  0
   -1.7220   14.6130    1.0670 C   0  0  0  0  0  0  0  0  0  0  0  0
   -2.4620   15.0590   -1.1650 N   0  0  0  0  0  0  0  0  0  0  0  0
   -1.6580   14.1980   -3.0300 C   0  0  0  0  0  0  0  0  0  0  0  0
   -0.8370   14.1800    2.0010 O   0  0  0  0  0  0  0  0  0  0  0  0
   -2.9310   15.1250    1.5440 C   0  0  0  0  0  0  0  0  0  0  0  0
   -3.6150   15.5570   -0.6630 C   0  0  0  0  0  0  0  0  0  0  0  0
   -2.7110   14.0910   -2.1550 C   0  0  0  0  0  0  0  0  0  0  0  0
   -1.9280   14.5630   -4.3360 C   0  0  0  0  0  0  0  0  0  0  0  0
   -3.8880   15.6050    0.6750 C   0  0  0  0  0  0  0  0  0  0  0  0
   -4.0120   14.3440   -2.5130 C   0  0  0  0  0  0  0  0  0  0  0  0
   -3.1970   14.8200   -4.7720 N   0  0  0  0  0  0  0  0  0  0  0  0
   -4.2060   14.7060   -3.8450 C   0  0  0  0  0  0  0  0  0  0  0  0
   -5.0190   14.2150   -1.4410 C   0  0  0  0  0  0  0  0  0  0  0  0
   -4.7180   13.4320   -0.3060 C   0  0  0  0  0  0  0  0  0  0  0  0
   -6.2680   14.8520   -1.4820 C   0  0  0  0  0  0  0  0  0  0  0  0
   -5.6220   13.2930    0.7480 C   0  0  0  0  0  0  0  0  0  0  0  0
   -7.1750   14.7100   -0.4240 C   0  0  0  0  0  0  0  0  0  0  0  0
   -6.8510   13.9350    0.6860 C   0  0  0  0  0  0  0  0  0  0  0  0
  1  2  1  0
  2  3  2  3
  2  4  1  0
  3  5  1  0
  4  6  2  0
  4  7  1  0
  3  8  1  0
  6  9  1  0
  6 10  1  0
  7 11  2  0
  8 12  2  0
  8 13  1  0
 10 14  2  0
 11 14  1  0
 12 15  1  0
 13 16  2  0
 15 17  2  0
 16 17  1  0
 15 18  1  0
 18 19  2  0
 18 20  1  0
 19 21  1  0
 20 22  2  0
 21 23  2  0
 22 23  1  0
M  END
