mac-x0123-mac-x0333
     RDKit          3D

 14 16  0  0  0  0  0  0  0  0999 V2000
   -3.5590   14.6560    1.7410 N   0  0  0  0  0  0  0  0  0  0  0  0
   -4.6400   14.6570    0.8660 C   0  0  0  0  0  0  0  0  0  0  0  0
   -5.9340   14.5320    1.2050 C   0  0  0  0  0  0  0  0  0  0  0  0
   -4.3520   14.7870   -0.5090 N   0  0  0  0  0  0  0  0  0  0  0  0
   -5.3590   14.7880   -1.4900 C   0  0  0  0  0  0  0  0  0  0  0  0
   -6.9350   14.5620    0.0980 C   0  0  0  0  0  0  0  0  0  0  0  0
   -6.6520   14.3560    2.4900 C   0  0  0  0  0  0  0  0  0  0  0  0
   -3.1330   14.9190   -1.0980 N   0  0  0  0  0  0  0  0  0  0  0  0
   -6.6830   14.6740   -1.1660 N   0  0  0  0  0  0  0  0  0  0  0  0
   -8.3270   14.4570    0.6330 C   0  0  0  0  0  0  0  0  0  0  0  0
   -8.1300   14.1790    2.1260 C   0  0  0  0  0  0  0  0  0  0  0  0
   -4.7920   14.9120   -2.6720 N   0  0  0  0  0  0  0  0  0  0  0  0
   -3.4810   14.9890   -2.3680 C   0  0  0  0  0  0  0  0  0  0  0  0
   -2.4650   15.1330   -3.2070 O   0  0  0  0  0  0  0  0  0  0  0  0
  1  2  1  0
  2  3  2  0
  2  4  1  0
  4  5  1  0
  3  6  1  0
  3  7  1  0
  4  8  1  0
  5  9  1  0
  6  9  2  0
  6 10  1  0
  7 11  1  0
 10 11  1  0
  5 12  2  0
  8 13  2  0
 12 13  1  0
 13 14  1  0
M  END
