mac-x0451-diamond-x0104_0_A
     RDKit          3D

 19 21  0  0  0  0  0  0  0  0999 V2000
   -6.4850   14.6470    2.2560 N   0  0  0  0  0  0  0  0  0  0  0  0
   -7.6830   14.9290    2.8900 C   0  0  0  0  0  0  0  0  0  0  0  0
   -7.7140   14.8400    4.3570 N   0  0  0  0  0  0  0  0  0  0  0  0
   -5.2380   14.3660    1.6370 C   0  0  1  0  0  0  0  0  0  0  0  0
   -8.7990   15.2650    2.3770 O   0  0  0  0  0  0  0  0  0  0  0  0
   -5.3330   13.8080    0.2490 N   0  0  0  0  0  0  0  0  0  0  0  0
   -4.2340   15.7490    1.2200 S   0  0  0  0  0  0  0  0  0  0  0  0
   -4.2500   13.1210   -0.3430 O   0  0  0  0  0  0  0  0  0  0  0  0
   -4.7080   15.2590   -0.4010 C   0  0  1  0  0  0  0  0  0  0  0  0
   -8.9590   14.9470    5.0820 C   0  0  0  0  0  0  0  0  0  0  0  0
   -3.1280   13.8670   -0.8610 N   0  0  0  0  0  0  0  0  0  0  0  0
   -5.8530   15.7980   -1.0990 C   0  0  0  0  0  0  0  0  0  0  0  0
   -3.6600   15.0500   -1.4120 C   0  0  1  0  0  0  0  0  0  0  0  0
   -9.1380   15.1240    6.4390 C   0  0  0  0  0  0  0  0  0  0  0  0
  -10.5900   14.8880    4.5170 S   0  0  0  0  0  0  0  0  0  0  0  0
   -5.7410   15.4990   -2.3670 C   0  0  0  0  0  0  0  0  0  0  0  0
   -4.4350   14.7880   -2.6540 C   0  0  0  0  0  0  0  0  0  0  0  0
  -11.4120   15.0820    6.0000 C   0  0  0  0  0  0  0  0  0  0  0  0
  -10.3930   15.1920    6.8990 C   0  0  0  0  0  0  0  0  0  0  0  0
  1  2  1  0
  2  3  1  0
  4  1  1  6
  2  5  2  0
  4  6  1  0
  4  7  1  0
  6  8  1  0
  7  9  1  0
  3 10  1  0
  8 11  1  0
  9 12  1  6
  9 13  1  0
 11 13  1  0
 10 14  2  0
 10 15  1  0
 12 16  2  0
 13 17  1  6
 16 17  1  0
 15 18  1  0
 14 19  1  0
 18 19  2  0
M  END
