mac-x0139-mac-x1494
     RDKit          3D

 21 23  0  0  0  0  0  0  0  0999 V2000
   -1.0140   14.9330   -2.4070 N   0  0  0  0  0  0  0  0  0  0  0  0
   -0.8400   13.7190   -3.1820 C   0  0  0  0  0  0  0  0  0  0  0  0
    0.5570   13.5370   -3.7220 C   0  0  0  0  0  0  0  0  0  0  0  0
   -1.1060   14.8960   -1.0090 C   0  0  0  0  0  0  0  0  0  0  0  0
   -2.3030   14.6970   -0.3560 C   0  0  0  0  0  0  0  0  0  0  0  0
   -0.0010   15.0720   -0.2890 N   0  0  0  0  0  0  0  0  0  0  0  0
    1.2190   12.4770   -2.9120 C   0  0  0  0  0  0  0  0  0  0  0  0
   -2.3010   14.7130    1.0150 C   0  0  0  0  0  0  0  0  0  0  0  0
   -0.1160   15.0430    1.0430 C   0  0  0  0  0  0  0  0  0  0  0  0
   -3.6820   14.4260   -0.8570 C   0  0  2  0  0  0  0  0  0  0  0  0
    2.1530   12.6500   -2.1680 O   0  0  0  0  0  0  0  0  0  0  0  0
    0.6880   11.2470   -3.0480 O   0  0  0  0  0  0  0  0  0  0  0  0
   -1.2300   14.8660    1.7580 N   0  0  0  0  0  0  0  0  0  0  0  0
   -3.6650   14.5460    1.5230 N   0  0  2  0  0  0  0  0  0  0  0  0
   -4.2510   13.7620    0.4120 C   0  0  0  0  0  0  0  0  0  0  0  0
   -3.4510   13.3790   -1.9670 C   0  0  0  0  0  0  0  0  0  0  0  0
   -4.7740   15.4060   -1.1600 C   0  0  0  0  0  0  0  0  0  0  0  0
   -4.2550   15.7660    1.6350 O   0  0  0  0  0  0  0  0  0  0  0  0
   -3.8490   13.8200   -3.3360 C   0  0  0  0  0  0  0  0  0  0  0  0
   -5.2480   15.5350   -2.3870 C   0  0  0  0  0  0  0  0  0  0  0  0
   -4.6960   14.8170   -3.5110 C   0  0  0  0  0  0  0  0  0  0  0  0
  1  2  1  0
  2  3  1  0
  1  4  1  0
  4  5  2  0
  4  6  1  0
  3  7  1  0
  5  8  1  0
  6  9  2  0
  5 10  1  0
  7 11  2  0
  7 12  1  0
  8 13  2  0
  9 13  1  0
  8 14  1  0
 10 15  1  1
 14 15  1  0
 10 16  1  0
 10 17  1  0
 14 18  1  6
 16 19  1  0
 17 20  2  0
 19 21  2  0
 20 21  1  0
M  CHG  2  14   1  18  -1
M  END
