mac-x0398-mac-x0381
     RDKit          3D

 26 28  0  0  0  0  0  0  0  0999 V2000
   -7.2130   14.4010    1.5630 N   0  0  0  0  0  0  0  0  0  0  0  0
   -6.2130   14.6450    0.6260 C   0  0  0  0  0  0  0  0  0  0  0  0
   -4.8870   14.7430    1.0170 C   0  0  0  0  0  0  0  0  0  0  0  0
   -6.5770   14.7870   -0.7090 C   0  0  0  0  0  0  0  0  0  0  0  0
   -4.6510   14.5780    2.5150 C   0  0  0  0  0  0  0  0  0  0  0  0
   -5.6260   15.0200   -1.6790 C   0  0  0  0  0  0  0  0  0  0  0  0
   -3.8890   14.9840    0.0240 C   0  0  0  0  0  0  0  0  0  0  0  0
   -6.0760   15.1350   -2.9770 O   0  0  0  0  0  0  0  0  0  0  0  0
   -5.8760   15.1990    3.2430 C   0  0  0  0  0  0  0  0  0  0  0  0
   -4.2790   15.1180   -1.3400 C   0  0  0  0  0  0  0  0  0  0  0  0
   -3.3570   15.3520   -2.4720 C   0  0  0  0  0  0  0  0  0  0  0  0
   -6.6630   14.3250    4.1000 N   0  0  0  0  0  0  0  0  0  0  0  0
   -3.7240   15.5290   -3.6220 O   0  0  0  0  0  0  0  0  0  0  0  0
   -2.0540   15.3230   -2.1570 O   0  0  0  0  0  0  0  0  0  0  0  0
   -7.9800   14.1760    4.1550 C   0  0  0  0  0  0  0  0  0  0  0  0
   -8.3150   13.2270    5.0710 N   0  0  0  0  0  0  0  0  0  0  0  0
   -9.2040   14.7580    3.4480 C   0  0  0  0  0  0  0  0  0  0  0  0
   -9.1820   15.6400    2.3510 C   0  0  0  0  0  0  0  0  0  0  0  0
  -10.4410   14.3430    3.9510 C   0  0  0  0  0  0  0  0  0  0  0  0
  -10.3960   16.0860    1.7470 C   0  0  0  0  0  0  0  0  0  0  0  0
  -11.6390   14.7740    3.3650 C   0  0  0  0  0  0  0  0  0  0  0  0
  -11.6310   15.6350    2.2570 C   0  0  0  0  0  0  0  0  0  0  0  0
  -10.4080   16.9670    0.6400 C   0  0  0  0  0  0  0  0  0  0  0  0
  -12.8300   16.0510    1.6430 C   0  0  0  0  0  0  0  0  0  0  0  0
  -11.6130   17.3770    0.0530 C   0  0  0  0  0  0  0  0  0  0  0  0
  -12.8230   16.9160    0.5510 C   0  0  0  0  0  0  0  0  0  0  0  0
  1  2  1  0
  2  3  2  0
  2  4  1  0
  3  5  1  0
  4  6  2  0
  3  7  1  0
  6  8  1  0
  5  9  1  0
  6 10  1  0
  7 10  2  0
 10 11  1  0
  9 12  1  0
 11 13  2  0
 11 14  1  0
 12 15  2  3
 15 16  1  0
 15 17  1  0
 17 18  2  0
 17 19  1  0
 18 20  1  0
 19 21  2  0
 20 22  2  0
 21 22  1  0
 20 23  1  0
 22 24  1  0
 23 25  2  0
 24 26  2  0
 25 26  1  0
M  END
