mac-x0224-mac-x0206
     RDKit          3D

 21 22  0  0  0  0  0  0  0  0999 V2000
   -3.3540   14.2950    1.7540 C   0  0  0  0  0  0  0  0  0  0  0  0
   -3.5350   15.4010    0.4330 S   0  0  2  0  0  0  0  0  0  0  0  0
   -5.0240   15.0900   -0.3190 C   0  0  0  0  0  0  0  0  0  0  0  0
   -2.7100   15.0790   -1.0040 C   0  0  0  0  0  0  0  0  0  0  0  0
   -5.0070   15.0310   -1.5470 O   0  0  0  0  0  0  0  0  0  0  0  0
   -1.4160   14.6410   -1.0810 C   0  0  0  0  0  0  0  0  0  0  0  0
   -3.4990   15.3190   -2.1210 C   0  0  0  0  0  0  0  0  0  0  0  0
   -6.2260   14.8750    0.3790 C   0  0  0  0  0  0  0  0  0  0  0  0
   -0.8940   14.4450   -2.3540 C   0  0  0  0  0  0  0  0  0  0  0  0
   -2.9890   15.1200   -3.3730 C   0  0  0  0  0  0  0  0  0  0  0  0
   -7.4360   14.7030   -0.2350 C   0  0  0  0  0  0  0  0  0  0  0  0
   -6.1000   14.8570    1.7660 C   0  0  0  0  0  0  0  0  0  0  0  0
    0.4980   13.9900   -2.4720 C   0  0  0  0  0  0  0  0  0  0  0  0
   -7.5430   14.7220   -1.5930 O   0  0  0  0  0  0  0  0  0  0  0  0
   -1.6810   14.6830   -3.4980 C   0  0  0  0  0  0  0  0  0  0  0  0
   -8.5650   14.5100    0.5430 C   0  0  0  0  0  0  0  0  0  0  0  0
   -7.2170   14.6680    2.5490 C   0  0  0  0  0  0  0  0  0  0  0  0
   -1.1900   14.4980   -4.7550 O   0  0  0  0  0  0  0  0  0  0  0  0
    1.3050   13.8440   -1.5830 O   0  0  0  0  0  0  0  0  0  0  0  0
    0.8170   13.7280   -3.7480 O   0  0  0  0  0  0  0  0  0  0  0  0
   -8.4520   14.4940    1.9380 C   0  0  0  0  0  0  0  0  0  0  0  0
  2  1  1  1
  2  3  1  0
  2  4  1  0
  3  5  2  0
  4  6  2  0
  4  7  1  0
  3  8  1  0
  6  9  1  0
  7 10  2  0
  8 11  2  0
  8 12  1  0
  9 13  1  0
 11 14  1  0
  9 15  2  0
 10 15  1  0
 11 16  1  0
 12 17  2  0
 15 18  1  0
 13 19  2  0
 13 20  1  0
 16 21  2  0
 17 21  1  0
M  END
