mac-x0123-diamond-x0626_0_A
     RDKit          3D

 23 26  0  0  0  0  0  0  0  0999 V2000
   -4.6840   14.7810    0.7670 N   0  0  0  0  0  0  0  0  0  0  0  0
   -5.2060   15.2680    1.9340 C   0  0  0  0  0  0  0  0  0  0  0  0
   -4.6440   16.1020    2.6190 O   0  0  0  0  0  0  0  0  0  0  0  0
   -5.4420   14.0170   -0.0750 C   0  0  0  0  0  0  0  0  0  0  0  0
   -3.3160   14.6220    0.5780 C   0  0  0  0  0  0  0  0  0  0  0  0
   -6.5930   14.7240    2.3560 C   0  0  0  0  0  0  0  0  0  0  0  0
   -5.3570   14.2150   -1.4620 N   0  0  0  0  0  0  0  0  0  0  0  0
   -6.2640   13.0680    0.3840 C   0  0  0  0  0  0  0  0  0  0  0  0
   -2.4040   14.4260    1.5150 N   0  0  0  0  0  0  0  0  0  0  0  0
   -2.7030   14.6690   -1.0230 S   0  0  0  0  0  0  0  0  0  0  0  0
   -7.6980   14.8520    1.3070 C   0  0  0  0  0  0  0  0  0  0  0  0
   -6.1360   13.4580   -2.3480 C   0  0  0  0  0  0  0  0  0  0  0  0
   -7.0620   12.3400   -0.6270 C   0  0  0  0  0  0  0  0  0  0  0  0
   -6.6080   12.5310    1.7330 C   0  0  0  0  0  0  0  0  0  0  0  0
   -4.5830   15.0740   -2.1710 N   0  0  0  0  0  0  0  0  0  0  0  0
   -1.1450   14.3980   -0.4480 C   0  0  0  0  0  0  0  0  0  0  0  0
   -1.1830   14.2910    0.9100 C   0  0  0  0  0  0  0  0  0  0  0  0
   -0.0350   14.0380    1.7350 C   0  0  0  0  0  0  0  0  0  0  0  0
   -7.0160   12.5120   -1.9100 N   0  0  0  0  0  0  0  0  0  0  0  0
   -7.9710   11.3600    0.0410 C   0  0  0  0  0  0  0  0  0  0  0  0
   -7.9040   11.7560    1.5190 C   0  0  0  0  0  0  0  0  0  0  0  0
   -5.8520   13.8240   -3.5790 N   0  0  0  0  0  0  0  0  0  0  0  0
   -4.9160   14.7880   -3.4190 C   0  0  0  0  0  0  0  0  0  0  0  0
  1  2  1  0
  2  3  2  0
  1  4  1  0
  1  5  1  0
  2  6  1  0
  4  7  1  0
  4  8  2  0
  5  9  2  0
  5 10  1  0
  6 11  1  0
  7 12  1  0
  8 13  1  0
  8 14  1  0
  7 15  1  0
 10 16  1  0
  9 17  1  0
 16 17  2  0
 17 18  1  0
 12 19  1  0
 13 19  2  0
 13 20  1  0
 14 21  1  0
 20 21  1  0
 12 22  2  0
 15 23  2  0
 22 23  1  0
M  END
