mac-x0116-diamond-x1018_0_A
     RDKit          3D

 22 25  0  0  0  0  0  0  0  0999 V2000
   -5.7710   14.4980    1.8610 C   0  0  0  0  0  0  0  0  0  0  0  0
   -4.3890   14.5850    1.3520 N   0  0  0  0  0  0  0  0  0  0  0  0
   -3.9050   14.0280    0.0440 C   0  0  1  0  0  0  0  0  0  0  0  0
   -6.3610   13.1120    1.9180 C   0  0  0  0  0  0  0  0  0  0  0  0
   -6.4290   12.4120    0.7500 O   0  0  0  0  0  0  0  0  0  0  0  0
   -6.8930   12.3450    2.9310 C   0  0  0  0  0  0  0  0  0  0  0  0
   -7.3040   11.1280    2.3540 C   0  0  0  0  0  0  0  0  0  0  0  0
   -6.9980   11.2220    1.0230 C   0  0  0  0  0  0  0  0  0  0  0  0
   -2.3240   13.8780    0.0540 C   0  0  1  0  0  0  0  0  0  0  0  0
   -4.7580   12.8320   -0.1400 N   0  0  0  0  0  0  0  0  0  0  0  0
   -4.3630   14.9980   -1.1450 C   0  0  2  0  0  0  0  0  0  0  0  0
   -3.4800   16.0020   -1.7220 N   0  0  0  0  0  0  0  0  0  0  0  0
   -1.5890   14.8880   -0.8340 C   0  0  2  0  0  0  0  0  0  0  0  0
   -1.5960   14.2020    1.3120 N   0  0  0  0  0  0  0  0  0  0  0  0
   -6.0220   13.1980   -0.8190 N   0  0  0  0  0  0  0  0  0  0  0  0
   -5.6380   15.6380   -0.6690 C   0  0  0  0  0  0  0  0  0  0  0  0
   -2.7300   15.4690   -2.8210 C   0  0  0  0  0  0  0  0  0  0  0  0
   -1.6680   14.7060   -2.2640 N   0  0  0  0  0  0  0  0  0  0  0  0
   -0.1880   14.7160   -0.4900 N   0  0  0  0  0  0  0  0  0  0  0  0
   -0.2060   14.2990    0.9010 C   0  0  0  0  0  0  0  0  0  0  0  0
   -6.5850   14.4890   -0.3660 C   0  0  1  0  0  0  0  0  0  0  0  0
   -8.1750   14.7260   -1.1310 Cl  0  0  0  0  0  0  0  0  0  0  0  0
  1  2  1  0
  3  2  1  1
  1  4  1  0
  4  5  1  0
  4  6  2  0
  6  7  1  0
  5  8  1  0
  7  8  2  0
  3  9  1  0
  3 10  1  0
  3 11  1  0
 11 12  1  0
  9 13  1  0
  9 14  1  1
 10 15  1  0
 11 16  1  1
 12 17  1  0
 13 18  1  6
 17 18  1  0
 13 19  1  0
 14 20  1  0
 19 20  1  0
 15 21  1  0
 16 21  1  0
 21 22  1  6
M  END
