mac-x0328-mac-x0116
     RDKit          3D

 21 23  0  0  0  0  0  0  0  0999 V2000
   -2.1440   14.5880   -3.9300 O   0  0  0  0  0  0  0  0  0  0  0  0
   -1.9080   14.4540   -2.6080 C   0  0  0  0  0  0  0  0  0  0  0  0
   -0.7630   14.5620   -2.2030 O   0  0  0  0  0  0  0  0  0  0  0  0
   -3.1580   14.1730   -1.7770 C   0  0  1  0  0  0  0  0  0  0  0  0
   -3.0550   14.8390   -0.3530 C   0  0  2  0  0  0  0  0  0  0  0  0
   -4.3340   14.5660   -2.6580 C   0  0  0  0  0  0  0  0  0  0  0  0
   -4.4300   15.5150    0.1700 C   0  0  2  0  0  0  0  0  0  0  0  0
   -5.4150   15.2040   -2.2290 C   0  0  0  0  0  0  0  0  0  0  0  0
   -1.9310   15.8490   -0.3870 C   0  0  0  0  0  0  0  0  0  0  0  0
   -2.4330   13.9770    0.7480 N   0  0  0  0  0  0  0  0  0  0  0  0
   -4.9080   14.9020    1.4320 N   0  0  0  0  0  0  0  0  0  0  0  0
   -5.6290   15.6400   -0.8320 C   0  0  1  0  0  0  0  0  0  0  0  0
   -0.6930   15.0870   -0.2790 N   0  0  0  0  0  0  0  0  0  0  0  0
   -0.9840   14.2280    0.8240 C   0  0  0  0  0  0  0  0  0  0  0  0
   -6.7660   14.9270   -0.3410 O   0  0  0  0  0  0  0  0  0  0  0  0
   -4.5930   13.4930    1.5150 C   0  0  0  0  0  0  0  0  0  0  0  0
   -5.7580   12.5910    1.6130 C   0  0  0  0  0  0  0  0  0  0  0  0
   -6.1860   12.0770    0.4280 O   0  0  0  0  0  0  0  0  0  0  0  0
   -6.5400   12.1140    2.6430 C   0  0  0  0  0  0  0  0  0  0  0  0
   -7.4880   11.2600    2.0550 C   0  0  0  0  0  0  0  0  0  0  0  0
   -7.2310   11.2700    0.7060 C   0  0  0  0  0  0  0  0  0  0  0  0
  1  2  1  0
  2  3  2  0
  4  2  1  6
  4  5  1  0
  4  6  1  0
  5  7  1  0
  6  8  2  0
  5  9  1  6
  5 10  1  0
  7 11  1  1
  7 12  1  0
  8 12  1  0
  9 13  1  0
 10 14  1  0
 13 14  1  0
 12 15  1  1
 11 16  1  0
 16 17  1  0
 17 18  1  0
 17 19  2  0
 19 20  1  0
 18 21  1  0
 20 21  2  0
M  END
