mac-x0337-diamond-x0967_0_A
     RDKit          3D

 21 23  0  0  0  0  0  0  0  0999 V2000
   -6.2910    8.7370   -2.1330 C   0  0  0  0  0  0  0  0  0  0  0  0
   -5.5260   10.0060   -1.9820 C   0  0  0  0  0  0  0  0  0  0  0  0
   -6.0180   11.0500   -1.1840 C   0  0  0  0  0  0  0  0  0  0  0  0
   -4.2950   10.1380   -2.6500 C   0  0  0  0  0  0  0  0  0  0  0  0
   -3.5570   11.2980   -2.5320 C   0  0  0  0  0  0  0  0  0  0  0  0
   -5.2790   12.2090   -1.0660 C   0  0  0  0  0  0  0  0  0  0  0  0
   -4.0640   12.2990   -1.7530 C   0  0  0  0  0  0  0  0  0  0  0  0
   -3.1980   13.7760   -1.6010 S   0  0  0  0  0  0  0  0  0  0  0  0
   -2.2690   14.0450   -2.6700 O   0  0  0  0  0  0  0  0  0  0  0  0
   -2.8930   13.9980   -0.2040 O   0  0  0  0  0  0  0  0  0  0  0  0
   -4.6300   14.4880   -2.1310 N   0  0  0  0  0  0  0  0  0  0  0  0
   -4.6070   15.7250   -1.4720 N   0  0  0  0  0  0  0  0  0  0  0  0
   -5.6800   15.7100   -0.5070 C   0  0  1  0  0  0  0  0  0  0  0  0
   -3.3190   15.9930   -1.0980 C   0  0  0  0  0  0  0  0  0  0  0  0
   -6.8910   14.9460   -0.9040 N   0  0  0  0  0  0  0  0  0  0  0  0
   -5.1130   15.3030    0.8690 C   0  0  0  0  0  0  0  0  0  0  0  0
   -2.8800   15.8360    0.1520 C   0  0  0  0  0  0  0  0  0  0  0  0
   -6.0680   14.8530    1.8520 C   0  0  0  0  0  0  0  0  0  0  0  0
   -7.5660   14.3880    0.0450 C   0  0  0  0  0  0  0  0  0  0  0  0
   -3.8030   15.3710    1.1550 C   0  0  0  0  0  0  0  0  0  0  0  0
   -7.2690   14.4050    1.4880 C   0  0  0  0  0  0  0  0  0  0  0  0
  1  2  1  0
  2  3  2  0
  2  4  1  0
  4  5  2  0
  3  6  1  0
  5  7  1  0
  6  7  2  0
  7  8  1  0
  8  9  2  0
  8 10  2  0
  8 11  1  0
 11 12  1  0
 12 13  1  0
 12 14  1  0
 13 15  1  6
 13 16  1  0
 14 17  2  0
 16 18  1  0
 15 19  2  0
 16 20  2  0
 17 20  1  0
 18 21  2  0
 19 21  1  0
M  END
