mac-x0379-mac-x0546
     RDKit          3D

 24 26  0  0  0  0  0  0  0  0999 V2000
   -4.9640   14.7230    1.0030 C   0  0  0  0  0  0  0  0  0  0  0  0
   -4.4080   14.7540   -0.3630 C   0  0  0  0  0  0  0  0  0  0  0  0
   -5.1600   14.8870   -1.4150 N   0  0  0  0  0  0  0  0  0  0  0  0
   -2.7140   14.6150   -0.6450 S   0  0  0  0  0  0  0  0  0  0  0  0
   -4.3730   14.8930   -2.5150 C   0  0  0  0  0  0  0  0  0  0  0  0
   -3.0260   14.7650   -2.3190 C   0  0  0  0  0  0  0  0  0  0  0  0
   -2.1800   14.8140   -3.4410 C   0  0  0  0  0  0  0  0  0  0  0  0
   -2.1090   14.3290   -4.6090 N   0  0  0  0  0  0  0  0  0  0  0  0
   -1.1590   15.6610   -3.2230 O   0  0  0  0  0  0  0  0  0  0  0  0
   -1.2130   15.1360   -5.1090 C   0  0  0  0  0  0  0  0  0  0  0  0
   -1.6910   16.3600   -5.4120 C   0  0  0  0  0  0  0  0  0  0  0  0
    0.2160   14.8160   -5.2730 C   0  0  1  0  0  0  0  0  0  0  0  0
   -3.0070   16.7240   -5.3360 O   0  0  0  0  0  0  0  0  0  0  0  0
    0.9170   16.0880   -4.8990 C   0  0  0  0  0  0  0  0  0  0  0  0
   -0.8020   17.4220   -5.8430 C   0  0  0  0  0  0  0  0  0  0  0  0
    0.9370   13.9060   -4.3550 C   0  0  0  0  0  0  0  0  0  0  0  0
   -3.9140   15.7320   -5.8400 C   0  0  0  0  0  0  0  0  0  0  0  0
    0.6660   12.4500   -4.2920 C   0  0  0  0  0  0  0  0  0  0  0  0
    0.5190   17.3350   -5.5950 C   0  0  0  0  0  0  0  0  0  0  0  0
    1.8050   15.9490   -3.9800 N   0  0  0  0  0  0  0  0  0  0  0  0
    1.8170   14.6240   -3.6690 C   0  0  0  0  0  0  0  0  0  0  0  0
    0.5680   11.8910   -2.8780 C   0  0  0  0  0  0  0  0  0  0  0  0
    0.9770   12.4900   -1.8920 O   0  0  0  0  0  0  0  0  0  0  0  0
   -0.0100   10.6750   -2.7810 O   0  0  0  0  0  0  0  0  0  0  0  0
  1  2  1  0
  2  3  2  0
  2  4  1  0
  3  5  1  0
  4  6  1  0
  5  6  2  0
  6  7  1  0
  7  8  2  3
  7  9  1  0
  8 10  1  0
 10 11  2  0
 12 10  1  1
 11 13  1  0
 12 14  1  0
 11 15  1  0
 12 16  1  0
 13 17  1  0
 16 18  1  0
 14 19  1  0
 15 19  2  0
 14 20  2  0
 16 21  2  0
 20 21  1  0
 18 22  1  0
 22 23  2  0
 22 24  1  0
M  END
