mac-x0283-mac-x0348
     RDKit          3D

 28 31  0  0  0  0  0  0  0  0999 V2000
   -6.9060   14.6260    2.4290 N   0  0  0  0  0  0  0  0  0  0  0  0
   -6.6590   14.7340    1.1090 C   0  0  0  0  0  0  0  0  0  0  0  0
   -7.5800   14.6330    0.1490 N   0  0  0  0  0  0  0  0  0  0  0  0
   -5.3680   14.9810    0.5740 C   0  0  0  0  0  0  0  0  0  0  0  0
   -6.8960   14.8120   -1.0450 O   0  0  0  0  0  0  0  0  0  0  0  0
   -5.5730   15.0190   -0.7900 C   0  0  0  0  0  0  0  0  0  0  0  0
   -4.0750   15.1740    1.0740 C   0  0  0  0  0  0  0  0  0  0  0  0
   -4.5550   15.2390   -1.7270 C   0  0  0  0  0  0  0  0  0  0  0  0
   -3.0330   15.3930    0.1720 C   0  0  0  0  0  0  0  0  0  0  0  0
   -3.2510   15.4260   -1.2090 C   0  0  0  0  0  0  0  0  0  0  0  0
   -2.0670   15.6560   -2.1210 C   0  0  0  0  0  0  0  0  0  0  0  0
   -0.7300   15.7750   -1.3570 C   0  0  0  0  0  0  0  0  0  0  0  0
    0.2960   14.7380   -1.8520 C   0  0  0  0  0  0  0  0  0  0  0  0
    0.0200   14.3560   -3.3210 C   0  0  2  0  0  0  0  0  0  0  0  0
    0.9590   13.2920   -3.8610 C   0  0  0  0  0  0  0  0  0  0  0  0
   -0.1130   15.5470   -4.1920 C   0  0  0  0  0  0  0  0  0  0  0  0
    1.0120   12.2240   -2.8380 C   0  0  0  0  0  0  0  0  0  0  0  0
    0.7860   16.5290   -4.5280 C   0  0  0  0  0  0  0  0  0  0  0  0
   -1.3110   15.8280   -4.8340 C   0  0  0  0  0  0  0  0  0  0  0  0
    1.6230   12.3340   -1.8160 O   0  0  0  0  0  0  0  0  0  0  0  0
    0.2980   11.1190   -3.1130 O   0  0  0  0  0  0  0  0  0  0  0  0
    0.1510   17.4040   -5.3640 N   0  0  0  0  0  0  0  0  0  0  0  0
   -1.1440   16.9990   -5.5570 C   0  0  0  0  0  0  0  0  0  0  0  0
   -2.5290   15.1410   -4.8320 C   0  0  0  0  0  0  0  0  0  0  0  0
    0.7570   18.5720   -5.9470 C   0  0  0  0  0  0  0  0  0  0  0  0
   -3.5670   15.6490   -5.5530 C   0  0  0  0  0  0  0  0  0  0  0  0
   -2.1900   17.5260   -6.2880 C   0  0  0  0  0  0  0  0  0  0  0  0
   -3.3800   16.8130   -6.2490 C   0  0  0  0  0  0  0  0  0  0  0  0
  1  2  1  0
  2  3  2  0
  2  4  1  0
  3  5  1  0
  4  6  2  0
  5  6  1  0
  4  7  1  0
  6  8  1  0
  7  9  2  0
  8 10  2  0
  9 10  1  0
 10 11  1  0
 11 12  1  0
 12 13  1  0
 14 13  1  1
 14 15  1  0
 14 16  1  0
 15 17  1  0
 16 18  2  0
 16 19  1  0
 17 20  2  0
 17 21  1  0
 18 22  1  0
 19 23  2  0
 22 23  1  0
 19 24  1  0
 22 25  1  0
 24 26  2  0
 23 27  1  0
 26 28  1  0
 27 28  2  0
M  END
