mac-x0396-mac-x0305
     RDKit          3D

 18 19  0  0  0  0  0  0  0  0999 V2000
   -4.3420   15.7610    2.0130 N   0  0  0  0  0  0  0  0  0  0  0  0
   -4.5720   15.7570    0.5700 C   0  0  2  0  0  0  0  0  0  0  0  0
   -5.8350   15.0870    0.2390 C   0  0  0  0  0  0  0  0  0  0  0  0
   -3.3910   15.2580   -0.0610 C   0  0  0  0  0  0  0  0  0  0  0  0
   -6.3210   15.0520   -1.0590 C   0  0  0  0  0  0  0  0  0  0  0  0
   -6.5670   14.4910    1.2480 C   0  0  0  0  0  0  0  0  0  0  0  0
   -2.3790   14.9140    0.7900 C   0  0  0  0  0  0  0  0  0  0  0  0
   -3.2350   15.1220   -1.4310 C   0  0  0  0  0  0  0  0  0  0  0  0
   -7.4830   14.4600   -1.3820 N   0  0  0  0  0  0  0  0  0  0  0  0
   -7.7580   13.8830    0.9480 C   0  0  0  0  0  0  0  0  0  0  0  0
   -1.2180   14.4440    0.3090 C   0  0  0  0  0  0  0  0  0  0  0  0
   -2.0960   14.6560   -1.9660 N   0  0  0  0  0  0  0  0  0  0  0  0
   -8.1730   13.8950   -0.3700 C   0  0  0  0  0  0  0  0  0  0  0  0
   -0.2990   14.1420    1.2860 O   0  0  0  0  0  0  0  0  0  0  0  0
   -1.1090   14.3290   -1.0730 C   0  0  0  0  0  0  0  0  0  0  0  0
    0.1230   13.8240   -1.6790 C   0  0  0  0  0  0  0  0  0  0  0  0
    0.6960   12.8970   -0.8750 O   0  0  0  0  0  0  0  0  0  0  0  0
    0.6170   14.1320   -2.7450 O   0  0  0  0  0  0  0  0  0  0  0  0
  2  1  1  1
  2  3  1  0
  2  4  1  0
  3  5  2  0
  3  6  1  0
  4  7  2  0
  4  8  1  0
  5  9  1  0
  6 10  2  0
  7 11  1  0
  8 12  2  0
  9 13  2  0
 10 13  1  0
 11 14  1  0
 11 15  2  0
 12 15  1  0
 15 16  1  0
 16 17  1  0
 16 18  2  0
M  END
