mac-x0333-mac-x0344
     RDKit          3D

 25 27  0  0  0  0  0  0  0  0999 V2000
   -2.5080   15.1210   -2.7940 O   0  0  0  0  0  0  0  0  0  0  0  0
   -3.3270   15.0280   -1.7010 C   0  0  0  0  0  0  0  0  0  0  0  0
   -2.8600   14.8140   -0.3700 C   0  0  0  0  0  0  0  0  0  0  0  0
   -4.6890   15.1590   -1.9930 C   0  0  0  0  0  0  0  0  0  0  0  0
   -1.3970   14.6460    0.0370 C   0  0  0  0  0  0  0  0  0  0  0  0
   -5.5780   15.0750   -0.9510 C   0  0  0  0  0  0  0  0  0  0  0  0
   -3.8200   14.7450    0.6610 C   0  0  0  0  0  0  0  0  0  0  0  0
   -0.3950   14.7420   -1.1270 C   0  0  0  0  0  0  0  0  0  0  0  0
   -5.1560   14.8770    0.3370 C   0  0  0  0  0  0  0  0  0  0  0  0
   -6.9350   15.1640   -1.0300 O   0  0  0  0  0  0  0  0  0  0  0  0
    0.2520   13.4060   -1.4980 C   0  0  0  0  0  0  0  0  0  0  0  0
   -6.2040   14.8300    1.2020 O   0  0  0  0  0  0  0  0  0  0  0  0
   -7.2780   14.6440    0.2660 C   0  0  0  0  0  0  0  0  0  0  0  0
    1.2000   13.6200   -2.5980 N   0  0  0  0  0  0  0  0  0  0  0  0
    1.2130   12.8700   -3.6430 C   0  0  0  0  0  0  0  0  0  0  0  0
    2.1080   13.1720   -4.5870 O   0  0  0  0  0  0  0  0  0  0  0  0
    0.3560   11.6560   -4.0060 C   0  0  0  0  0  0  0  0  0  0  0  0
    0.0060   10.9000   -3.1120 O   0  0  0  0  0  0  0  0  0  0  0  0
    0.0840   11.5760   -5.3600 N   0  0  0  0  0  0  0  0  0  0  0  0
   -0.7760   10.6480   -5.9820 C   0  0  0  0  0  0  0  0  0  0  0  0
   -0.3690   10.0960   -7.2030 C   0  0  0  0  0  0  0  0  0  0  0  0
   -1.9990   10.2600   -5.4380 C   0  0  0  0  0  0  0  0  0  0  0  0
   -1.1790    9.1680   -7.8660 C   0  0  0  0  0  0  0  0  0  0  0  0
   -2.8080    9.3330   -6.1000 C   0  0  0  0  0  0  0  0  0  0  0  0
   -2.4030    8.7860   -7.3120 C   0  0  0  0  0  0  0  0  0  0  0  0
  1  2  1  0
  2  3  2  0
  2  4  1  0
  3  5  1  0
  4  6  2  0
  3  7  1  0
  5  8  1  0
  6  9  1  0
  7  9  2  0
  6 10  1  0
  8 11  1  0
  9 12  1  0
 10 13  1  0
 12 13  1  0
 11 14  1  0
 14 15  2  3
 15 16  1  0
 15 17  1  0
 17 18  2  0
 17 19  1  0
 19 20  1  0
 20 21  2  0
 20 22  1  0
 21 23  1  0
 22 24  2  0
 23 25  2  0
 24 25  1  0
M  END
