mac-x0302-mac-x0417
     RDKit          3D

 26 28  0  0  0  0  0  0  0  0999 V2000
    1.4560   15.1250   -2.2460 O   0  0  0  0  0  0  0  0  0  0  0  0
    0.7040   14.1870   -2.7960 C   0  0  0  0  0  0  0  0  0  0  0  0
    1.2790   13.0420   -2.8280 N   0  0  0  0  0  0  0  0  0  0  0  0
   -0.6560   14.7220   -3.2690 C   0  0  0  0  0  0  0  0  0  0  0  0
   -1.7100   14.5760   -2.2780 N   0  0  0  0  0  0  0  0  0  0  0  0
    0.6110   12.0370   -3.4340 C   0  0  0  0  0  0  0  0  0  0  0  0
   -2.9820   15.0870   -2.4530 C   0  0  0  0  0  0  0  0  0  0  0  0
    0.4820   10.8850   -3.0170 O   0  0  0  0  0  0  0  0  0  0  0  0
    0.0350   12.5540   -4.7340 C   0  0  0  0  0  0  0  0  0  0  0  0
   -3.3840   15.5450   -3.5160 O   0  0  0  0  0  0  0  0  0  0  0  0
   -3.8570   15.0540   -1.2540 C   0  0  0  0  0  0  0  0  0  0  0  0
    0.1030   11.5990   -5.8450 C   0  0  0  0  0  0  0  0  0  0  0  0
   -5.2540   14.9980   -1.3460 C   0  0  0  0  0  0  0  0  0  0  0  0
   -3.2410   15.0750    0.0040 C   0  0  0  0  0  0  0  0  0  0  0  0
    1.1350   11.6010   -6.6880 N   0  0  0  0  0  0  0  0  0  0  0  0
   -0.8470   10.6170   -6.1590 C   0  0  0  0  0  0  0  0  0  0  0  0
   -6.0050   14.9570   -0.1740 C   0  0  0  0  0  0  0  0  0  0  0  0
   -4.0050   15.0380    1.1640 C   0  0  0  0  0  0  0  0  0  0  0  0
    0.8580   10.5880   -7.6000 O   0  0  0  0  0  0  0  0  0  0  0  0
   -0.3280   10.0040   -7.2770 C   0  0  0  0  0  0  0  0  0  0  0  0
   -2.0670   10.1850   -5.6330 C   0  0  0  0  0  0  0  0  0  0  0  0
   -7.3620   14.8930   -0.2890 O   0  0  0  0  0  0  0  0  0  0  0  0
   -5.3910   14.9770    1.0760 C   0  0  0  0  0  0  0  0  0  0  0  0
   -0.9540    8.9550   -7.9360 C   0  0  0  0  0  0  0  0  0  0  0  0
   -2.7270    9.1350   -6.2680 C   0  0  0  0  0  0  0  0  0  0  0  0
   -2.1800    8.5300   -7.4020 C   0  0  0  0  0  0  0  0  0  0  0  0
  1  2  1  0
  2  3  2  3
  2  4  1  0
  4  5  1  0
  3  6  1  0
  5  7  1  0
  6  8  2  0
  6  9  1  0
  7 10  2  0
  7 11  1  0
  9 12  1  0
 11 13  2  0
 11 14  1  0
 12 15  2  0
 12 16  1  0
 13 17  1  0
 14 18  2  0
 15 19  1  0
 16 20  2  0
 19 20  1  0
 16 21  1  0
 17 22  1  0
 17 23  2  0
 18 23  1  0
 20 24  1  0
 21 25  2  0
 24 26  2  0
 25 26  1  0
M  END
