mac-x0411-diamond-x0253_0_A
     RDKit          3D

 22 23  0  0  0  0  0  0  0  0999 V2000
    0.0950    8.2000   -6.6300 Cl  0  0  0  0  0  0  0  0  0  0  0  0
   -1.2300    9.1280   -6.0070 C   0  0  0  0  0  0  0  0  0  0  0  0
   -1.1580   10.5030   -5.6090 C   0  0  0  0  0  0  0  0  0  0  0  0
   -2.4270    8.4200   -5.9190 C   0  0  0  0  0  0  0  0  0  0  0  0
    0.0830   11.2290   -5.7030 N   0  0  0  0  0  0  0  0  0  0  0  0
   -2.3480   11.1030   -5.1360 C   0  0  0  0  0  0  0  0  0  0  0  0
   -3.5750    9.0380   -5.4480 C   0  0  0  0  0  0  0  0  0  0  0  0
   -2.4580   12.7540   -4.6220 Cl  0  0  0  0  0  0  0  0  0  0  0  0
    0.2870   12.3640   -4.7770 C   0  0  0  0  0  0  0  0  0  0  0  0
    0.7890   11.2910   -6.8940 C   0  0  0  0  0  0  0  0  0  0  0  0
   -3.5350   10.3710   -5.0590 C   0  0  0  0  0  0  0  0  0  0  0  0
    0.8550   12.0350   -3.3930 C   0  0  0  0  0  0  0  0  0  0  0  0
    1.8720   11.8540   -6.9280 O   0  0  0  0  0  0  0  0  0  0  0  0
    0.2210   10.6480   -8.1110 C   0  0  0  0  0  0  0  0  0  0  0  0
    1.7950   12.8810   -2.9280 O   0  0  0  0  0  0  0  0  0  0  0  0
    0.5000   11.0760   -2.7190 O   0  0  0  0  0  0  0  0  0  0  0  0
   -0.9530    9.9040   -8.0070 C   0  0  0  0  0  0  0  0  0  0  0  0
    0.8420   10.7710   -9.3550 C   0  0  0  0  0  0  0  0  0  0  0  0
   -1.5130    9.2740   -9.1160 C   0  0  0  0  0  0  0  0  0  0  0  0
    0.2910   10.1480  -10.4740 C   0  0  0  0  0  0  0  0  0  0  0  0
   -2.7720    8.4760   -8.9610 C   0  0  0  0  0  0  0  0  0  0  0  0
   -0.8810    9.4020  -10.3550 C   0  0  0  0  0  0  0  0  0  0  0  0
  1  2  1  0
  2  3  2  0
  2  4  1  0
  3  5  1  0
  3  6  1  0
  4  7  2  0
  6  8  1  0
  5  9  1  0
  5 10  1  0
  6 11  2  0
  7 11  1  0
  9 12  1  0
 10 13  2  0
 10 14  1  0
 12 15  1  0
 12 16  2  0
 14 17  2  0
 14 18  1  0
 17 19  1  0
 18 20  2  0
 19 21  1  0
 19 22  2  0
 20 22  1  0
M  END
