mac-x0124-diamond-x0926_0_A
     RDKit          3D

 17 19  0  0  0  0  0  0  0  0999 V2000
    0.4730   14.7140   -3.2200 C   0  0  0  0  0  0  0  0  0  0  0  0
   -0.7460   14.7300   -2.4510 N   0  0  0  0  0  0  0  0  0  0  0  0
   -2.0090   14.7940   -2.9760 C   0  0  0  0  0  0  0  0  0  0  0  0
   -0.8040   14.6870   -1.0770 C   0  0  0  0  0  0  0  0  0  0  0  0
   -2.8850   14.7980   -1.9230 C   0  0  0  0  0  0  0  0  0  0  0  0
   -2.1250   14.7360   -0.7170 C   0  0  0  0  0  0  0  0  0  0  0  0
    0.2360   14.6200   -0.2390 N   0  0  0  0  0  0  0  0  0  0  0  0
   -2.4020   14.7260    0.6510 C   0  0  0  0  0  0  0  0  0  0  0  0
   -0.1650   14.6020    1.0560 C   0  0  0  0  0  0  0  0  0  0  0  0
   -1.4040   14.6440    1.5520 N   0  0  0  0  0  0  0  0  0  0  0  0
   -3.7720   14.8430    1.1450 C   0  0  1  0  0  0  0  0  0  0  0  0
   -4.1620   16.1070    0.4860 C   0  0  0  0  0  0  0  0  0  0  0  0
   -4.8000   13.8150    0.6970 C   0  0  0  0  0  0  0  0  0  0  0  0
   -4.1020   15.9440   -0.9690 N   0  0  0  0  0  0  0  0  0  0  0  0
   -5.7490   14.4210   -0.3220 C   0  0  0  0  0  0  0  0  0  0  0  0
   -6.9710   14.3260   -0.2660 O   0  0  0  0  0  0  0  0  0  0  0  0
   -5.1610   15.1160   -1.3310 N   0  0  0  0  0  0  0  0  0  0  0  0
  1  2  1  0
  2  3  1  0
  2  4  1  0
  3  5  2  0
  4  6  2  0
  5  6  1  0
  4  7  1  0
  6  8  1  0
  7  9  2  0
  8 10  2  0
  9 10  1  0
 11  8  1  6
 11 12  1  0
 11 13  1  0
 12 14  1  0
 13 15  1  0
 15 16  2  0
 14 17  1  0
 15 17  1  0
M  END
