mac-x0365-mac-x0527
     RDKit          3D

 19 20  0  0  0  0  0  0  0  0999 V2000
   -0.8410   15.9000   -1.8420 O   0  0  0  0  0  0  0  0  0  0  0  0
   -1.7780   15.0100   -2.4360 C   0  0  2  0  0  0  0  0  0  0  0  0
   -1.1370   13.7430   -2.6840 O   0  0  0  0  0  0  0  0  0  0  0  0
   -2.1090   15.4900   -3.8410 C   0  0  0  0  0  0  0  0  0  0  0  0
   -3.1010   15.0150   -1.6560 C   0  0  0  0  0  0  0  0  0  0  0  0
   -3.2580   15.6480   -4.2560 O   0  0  0  0  0  0  0  0  0  0  0  0
   -4.3090   15.0300   -2.3720 C   0  0  0  0  0  0  0  0  0  0  0  0
   -3.1680   15.0080   -0.2460 C   0  0  0  0  0  0  0  0  0  0  0  0
   -1.1620   12.9330   -3.8070 C   0  0  0  0  0  0  0  0  0  0  0  0
   -5.5280   15.0340   -1.7140 C   0  0  0  0  0  0  0  0  0  0  0  0
   -4.4070   15.0110    0.4150 C   0  0  0  0  0  0  0  0  0  0  0  0
   -2.1270   11.9630   -4.0710 C   0  0  0  0  0  0  0  0  0  0  0  0
   -0.1110   13.0960   -4.7380 C   0  0  0  0  0  0  0  0  0  0  0  0
   -6.6520   15.0480   -2.4390 F   0  0  0  0  0  0  0  0  0  0  0  0
   -5.5840   15.0210   -0.3330 C   0  0  0  0  0  0  0  0  0  0  0  0
   -2.0520   11.1710   -5.2180 C   0  0  0  0  0  0  0  0  0  0  0  0
   -0.0340   12.3030   -5.8900 C   0  0  0  0  0  0  0  0  0  0  0  0
   -6.8080   15.0170    0.2670 O   0  0  0  0  0  0  0  0  0  0  0  0
   -1.0100   11.3360   -6.1270 C   0  0  0  0  0  0  0  0  0  0  0  0
  2  1  1  1
  2  3  1  0
  2  4  1  0
  2  5  1  0
  4  6  2  0
  5  7  2  0
  5  8  1  0
  3  9  1  0
  7 10  1  0
  8 11  2  0
  9 12  2  0
  9 13  1  0
 10 14  1  0
 10 15  2  0
 11 15  1  0
 12 16  1  0
 13 17  2  0
 15 18  1  0
 16 19  2  0
 17 19  1  0
M  END
