mac-x0306-mac-x0193
     RDKit          3D

 28 30  0  0  0  0  0  0  0  0999 V2000
    0.7590   10.7200   -3.2700 O   0  0  0  0  0  0  0  0  0  0  0  0
    0.7680   12.0440   -3.3470 C   0  0  0  0  0  0  0  0  0  0  0  0
    0.8350   12.7600   -2.2920 N   0  0  0  0  0  0  0  0  0  0  0  0
    0.6850   12.6170   -4.7710 C   0  0  0  0  0  0  0  0  0  0  0  0
    0.2020   11.6660   -5.7820 N   0  0  0  0  0  0  0  0  0  0  0  0
    0.8350   14.2040   -2.2460 C   0  0  0  0  0  0  0  0  0  0  0  0
    1.0170   11.4810   -6.8760 C   0  0  0  0  0  0  0  0  0  0  0  0
   -0.4380   14.6280   -1.5260 C   0  0  0  0  0  0  0  0  0  0  0  0
    2.2040   11.3930   -6.7200 O   0  0  0  0  0  0  0  0  0  0  0  0
    0.3830   11.4610   -8.1150 N   0  0  0  0  0  0  0  0  0  0  0  0
   -1.6840   14.6580   -2.4330 C   0  0  0  0  0  0  0  0  0  0  0  0
   -2.9280   14.9440   -1.6810 N   0  0  0  0  0  0  0  0  0  0  0  0
    0.2350   10.3090   -9.0420 C   0  0  0  0  0  0  0  0  0  0  0  0
   -4.1090   15.3430   -2.3090 C   0  0  0  0  0  0  0  0  0  0  0  0
   -2.9480   14.9690   -0.2890 C   0  0  0  0  0  0  0  0  0  0  0  0
    1.1670    9.1340   -8.7870 C   0  0  0  0  0  0  0  0  0  0  0  0
    0.3380   10.7550  -10.5090 C   0  0  0  0  0  0  0  0  0  0  0  0
   -5.3060   15.1420   -1.7300 C   0  0  0  0  0  0  0  0  0  0  0  0
   -4.0730   14.7480    0.3950 C   0  0  0  0  0  0  0  0  0  0  0  0
    1.9520    8.6640  -10.0120 C   0  0  0  0  0  0  0  0  0  0  0  0
    0.1600    9.5990  -11.5040 C   0  0  0  0  0  0  0  0  0  0  0  0
   -5.3440   14.4460   -0.3730 C   0  0  0  0  0  0  0  0  0  0  0  0
    1.0240    8.3830  -11.1710 C   0  0  0  0  0  0  0  0  0  0  0  0
   -6.6190   14.5930    0.4160 C   0  0  0  0  0  0  0  0  0  0  0  0
   -6.6540   14.5200    1.7990 N   0  0  0  0  0  0  0  0  0  0  0  0
   -7.8350   14.7910   -0.0590 N   0  0  0  0  0  0  0  0  0  0  0  0
   -8.6610   14.8460    1.0350 C   0  0  0  0  0  0  0  0  0  0  0  0
   -7.9460   14.6810    2.1970 C   0  0  0  0  0  0  0  0  0  0  0  0
  1  2  1  0
  2  3  2  3
  2  4  1  0
  4  5  1  0
  3  6  1  0
  5  7  1  0
  6  8  1  0
  7  9  2  0
  7 10  1  0
  8 11  1  0
 11 12  1  0
 10 13  1  0
 12 14  1  0
 12 15  1  0
 13 16  1  0
 13 17  1  0
 14 18  2  0
 15 19  2  0
 16 20  1  0
 17 21  1  0
 18 22  1  0
 19 22  1  0
 20 23  1  0
 21 23  1  0
 22 24  1  0
 24 25  1  0
 24 26  2  0
 26 27  1  0
 25 28  1  0
 27 28  2  0
M  END
