mac-x0148-diamond-x0895_0_A
     RDKit          3D

 19 22  0  0  0  0  0  0  0  0999 V2000
   -3.1660   15.0060    2.5070 O   0  0  0  0  0  0  0  0  0  0  0  0
   -3.1300   14.8390    1.2680 N   0  0  0  0  0  0  0  0  0  0  0  0
   -2.0100   14.8730    0.7280 C   0  0  0  0  0  0  0  0  0  0  0  0
   -4.1600   14.6100    0.2580 C   0  0  0  0  0  0  0  0  0  0  0  0
   -0.8760   15.1170    1.3750 N   0  0  0  0  0  0  0  0  0  0  0  0
   -2.1100   14.6270   -0.7130 C   0  0  0  0  0  0  0  0  0  0  0  0
   -3.5330   14.4900   -0.9370 C   0  0  0  0  0  0  0  0  0  0  0  0
    0.1460   15.1110    0.6440 C   0  0  0  0  0  0  0  0  0  0  0  0
   -0.9530   14.5800   -1.4120 C   0  0  0  0  0  0  0  0  0  0  0  0
   -0.7980   14.3250   -2.7630 N   0  0  0  0  0  0  0  0  0  0  0  0
    0.1860   14.8040   -0.6710 N   0  0  0  0  0  0  0  0  0  0  0  0
   -1.9780   14.2100   -3.6630 C   0  0  1  0  0  0  0  0  0  0  0  0
    0.4340   13.6000   -3.1250 C   0  0  0  0  0  0  0  0  0  0  0  0
   -2.2350   15.4720   -4.4680 C   0  0  0  0  0  0  0  0  0  0  0  0
   -1.9810   13.0950   -4.7270 C   0  0  1  0  0  0  0  0  0  0  0  0
    0.1230   12.2810   -3.7940 C   0  0  0  0  0  0  0  0  0  0  0  0
   -2.7110   13.6980   -5.9110 C   0  0  0  0  0  0  0  0  0  0  0  0
   -2.9200   15.0930   -5.6670 O   0  0  0  0  0  0  0  0  0  0  0  0
   -0.6070   12.5520   -5.0860 C   0  0  0  0  0  0  0  0  0  0  0  0
  1  2  1  0
  2  3  2  0
  2  4  1  0
  3  5  1  0
  3  6  1  0
  4  7  2  0
  6  7  1  0
  5  8  2  0
  6  9  2  0
  9 10  1  0
  8 11  1  0
  9 11  1  0
 10 12  1  0
 10 13  1  0
 12 14  1  6
 12 15  1  0
 13 16  1  0
 15 17  1  6
 14 18  1  0
 17 18  1  0
 15 19  1  0
 16 19  1  0
M  CHG  2   1  -1   2   1
M  END
