mac-x0142-mac-x0302
     RDKit          3D

 25 28  0  0  0  0  0  0  0  0999 V2000
    0.1780   16.7810   -5.1600 O   0  0  0  0  0  0  0  0  0  0  0  0
   -0.1640   16.4530   -3.8990 C   0  0  0  0  0  0  0  0  0  0  0  0
    0.6780   16.0900   -3.0980 O   0  0  0  0  0  0  0  0  0  0  0  0
   -1.6380   16.5760   -3.5120 C   0  0  0  0  0  0  0  0  0  0  0  0
   -2.6520   15.6310   -3.9520 N   0  0  0  0  0  0  0  0  0  0  0  0
   -3.6470   15.1870   -3.1040 C   0  0  0  0  0  0  0  0  0  0  0  0
   -4.7240   14.8440   -3.5680 O   0  0  0  0  0  0  0  0  0  0  0  0
   -3.3470   15.1500   -1.6560 C   0  0  0  0  0  0  0  0  0  0  0  0
   -2.0900   14.9150   -0.9930 C   0  0  0  0  0  0  0  0  0  0  0  0
   -4.2400   15.3310   -0.6540 C   0  0  0  0  0  0  0  0  0  0  0  0
   -5.5720   15.5810   -0.8030 O   0  0  0  0  0  0  0  0  0  0  0  0
   -2.4890   14.9800    0.4520 C   0  0  0  0  0  0  0  0  0  0  0  0
   -0.7900   14.6680   -1.3050 C   0  0  0  0  0  0  0  0  0  0  0  0
   -3.7520   15.2380    0.6290 N   0  0  0  0  0  0  0  0  0  0  0  0
   -0.2440   14.5380   -2.6060 N   0  0  0  0  0  0  0  0  0  0  0  0
    0.0410   14.5330   -0.2010 N   0  0  0  0  0  0  0  0  0  0  0  0
   -1.6150   14.7590    1.4810 N   0  0  0  0  0  0  0  0  0  0  0  0
   -1.0180   14.2080   -3.8400 C   0  0  0  0  0  0  0  0  0  0  0  0
    1.2070   14.7190   -2.8620 C   0  0  0  0  0  0  0  0  0  0  0  0
   -0.4060   14.5520    1.0950 C   0  0  0  0  0  0  0  0  0  0  0  0
    1.6560   13.4990   -3.6000 C   0  0  0  0  0  0  0  0  0  0  0  0
   -0.4390   13.0620   -4.6750 C   0  0  0  0  0  0  0  0  0  0  0  0
    2.9530   12.8260   -3.2420 C   0  0  0  0  0  0  0  0  0  0  0  0
    1.6380   12.2700   -2.7570 C   0  0  0  0  0  0  0  0  0  0  0  0
    1.0260   13.3390   -4.9520 C   0  0  0  0  0  0  0  0  0  0  0  0
  1  2  1  0
  2  3  2  0
  2  4  1  0
  4  5  1  0
  5  6  1  0
  6  7  2  0
  6  8  1  0
  8  9  1  0
  8 10  2  0
 10 11  1  0
  9 12  1  0
  9 13  2  0
 10 14  1  0
 12 14  2  0
 13 15  1  0
 13 16  1  0
 12 17  1  0
 15 18  1  0
 15 19  1  0
 16 20  1  0
 17 20  2  0
 21 19  1  0
 18 22  1  0
 21 23  1  0
 21 24  1  0
 23 24  1  0
 21 25  1  0
 22 25  1  0
M  END
