mac-x0361-diamond-x0910_1_A
     RDKit          3D

 15 16  0  0  0  0  0  0  0  0999 V2000
   -5.7140   12.3520    1.6590 N   0  0  0  0  0  0  0  0  0  0  0  0
   -6.0180   13.3640    0.7990 C   0  0  0  0  0  0  0  0  0  0  0  0
   -7.1820   13.9260    0.8620 N   0  0  0  0  0  0  0  0  0  0  0  0
   -4.9780   13.8230   -0.2120 C   0  0  0  0  0  0  0  0  0  0  0  0
   -3.6890   14.1920    0.1990 C   0  0  0  0  0  0  0  0  0  0  0  0
   -5.3190   13.8920   -1.5840 C   0  0  0  0  0  0  0  0  0  0  0  0
   -6.9260   14.8170   -0.1000 C   0  0  0  0  0  0  0  0  0  0  0  0
   -2.7600   14.6280   -0.7590 C   0  0  0  0  0  0  0  0  0  0  0  0
   -4.3870   14.3310   -2.5300 C   0  0  0  0  0  0  0  0  0  0  0  0
   -7.7440   15.1920   -1.0720 N   0  0  0  0  0  0  0  0  0  0  0  0
   -5.6940   15.3610   -0.0820 N   0  0  0  0  0  0  0  0  0  0  0  0
   -3.1160   14.6960   -2.1080 C   0  0  0  0  0  0  0  0  0  0  0  0
   -6.9280   16.0350   -1.7270 N   0  0  0  0  0  0  0  0  0  0  0  0
   -5.7120   16.1070   -1.1090 C   0  0  0  0  0  0  0  0  0  0  0  0
   -2.1820   15.1290   -3.0050 O   0  0  0  0  0  0  0  0  0  0  0  0
  1  2  1  0
  2  3  2  3
  2  4  1  0
  4  5  2  0
  4  6  1  0
  3  7  1  0
  5  8  1  0
  6  9  2  0
  7 10  2  0
  7 11  1  0
  8 12  2  0
  9 12  1  0
 10 13  1  0
 11 14  2  0
 13 14  1  0
 12 15  1  0
M  END
