mac-x0411-mac-x1494
     RDKit          3D

 23 25  0  0  0  0  0  0  0  0999 V2000
    0.4360    9.3080   -7.5140 Cl  0  0  0  0  0  0  0  0  0  0  0  0
   -0.8190    9.9880   -6.5330 C   0  0  0  0  0  0  0  0  0  0  0  0
   -0.7590   11.2830   -5.9510 C   0  0  0  0  0  0  0  0  0  0  0  0
   -1.9410    9.1880   -6.3290 C   0  0  0  0  0  0  0  0  0  0  0  0
    0.3120   12.1410   -6.1040 O   0  0  0  0  0  0  0  0  0  0  0  0
   -1.8470   11.7880   -5.1600 C   0  0  0  0  0  0  0  0  0  0  0  0
   -3.0050    9.6580   -5.5600 C   0  0  0  0  0  0  0  0  0  0  0  0
   -1.7240   13.2320   -4.5640 C   0  0  0  0  0  0  0  0  0  0  0  0
    1.4570   11.9830   -5.2520 C   0  0  0  0  0  0  0  0  0  0  0  0
   -2.9660   10.9440   -4.9800 C   0  0  0  0  0  0  0  0  0  0  0  0
    1.0980   11.6360   -3.8110 C   0  0  0  0  0  0  0  0  0  0  0  0
   -2.6970   14.0030   -3.5480 C   0  0  2  0  0  0  0  0  0  0  0  0
    1.3810   12.6330   -2.9380 O   0  0  0  0  0  0  0  0  0  0  0  0
    0.6140   10.5970   -3.4050 O   0  0  0  0  0  0  0  0  0  0  0  0
   -2.5670   13.5580   -2.0760 C   0  0  0  0  0  0  0  0  0  0  0  0
   -4.1780   14.1930   -3.8110 C   0  0  0  0  0  0  0  0  0  0  0  0
   -3.0360   14.7010   -1.1590 C   0  0  1  0  0  0  0  0  0  0  0  0
   -4.9510   14.8120   -2.8800 C   0  0  0  0  0  0  0  0  0  0  0  0
   -4.3730   15.3290   -1.5870 C   0  0  1  0  0  0  0  0  0  0  0  0
   -3.3170   14.3210    0.1940 N   0  0  0  0  0  0  0  0  0  0  0  0
   -5.2460   15.1520   -0.4550 O   0  0  0  0  0  0  0  0  0  0  0  0
   -4.3910   15.0570    0.6040 C   0  0  0  0  0  0  0  0  0  0  0  0
   -4.5490   15.5490    1.7070 O   0  0  0  0  0  0  0  0  0  0  0  0
  1  2  1  0
  2  3  2  0
  2  4  1  0
  3  5  1  0
  3  6  1  0
  4  7  2  0
  6  8  1  0
  5  9  1  0
  6 10  2  0
  7 10  1  0
  9 11  1  0
 12  8  1  6
 11 13  1  0
 11 14  2  0
 12 15  1  0
 12 16  1  0
 17 15  1  6
 16 18  2  0
 17 19  1  0
 19 18  1  6
 17 20  1  0
 19 21  1  0
 20 22  1  0
 21 22  1  0
 22 23  2  0
M  END
