mac-x0303-mac-x0568
     RDKit          3D

 16 17  0  0  0  0  0  0  0  0999 V2000
   -7.7050   12.9870    2.7040 N   0  0  0  0  0  0  0  0  0  0  0  0
   -7.8830   14.5370    2.0410 S   0  0  0  0  0  0  0  0  0  0  0  0
   -7.5650   15.4190    3.1260 O   0  0  0  0  0  0  0  0  0  0  0  0
   -9.2080   14.5570    1.4500 O   0  0  0  0  0  0  0  0  0  0  0  0
   -6.7190   14.7190    0.6840 C   0  0  0  0  0  0  0  0  0  0  0  0
   -7.1840   14.6250   -0.5700 N   0  0  0  0  0  0  0  0  0  0  0  0
   -5.3070   14.9680    0.5840 N   0  0  0  0  0  0  0  0  0  0  0  0
   -4.0740   15.2040    1.1660 C   0  0  0  0  0  0  0  0  0  0  0  0
   -6.1040   14.8010   -1.3930 C   0  0  0  0  0  0  0  0  0  0  0  0
   -4.9880   15.0020   -0.6780 C   0  0  0  0  0  0  0  0  0  0  0  0
   -3.6120   16.3160    0.9980 O   0  0  0  0  0  0  0  0  0  0  0  0
   -3.3660   14.1930    1.7100 N   0  0  0  0  0  0  0  0  0  0  0  0
   -5.9610   14.8080   -2.7760 C   0  0  0  0  0  0  0  0  0  0  0  0
   -3.7080   15.2100   -1.1720 C   0  0  0  0  0  0  0  0  0  0  0  0
   -4.6760   15.0130   -3.3250 C   0  0  0  0  0  0  0  0  0  0  0  0
   -3.5660   15.2110   -2.5250 C   0  0  0  0  0  0  0  0  0  0  0  0
  2  1  1  0
  2  3  2  0
  2  4  2  0
  2  5  1  0
  5  6  2  0
  5  7  1  0
  7  8  1  0
  6  9  1  0
  7 10  1  0
  9 10  2  0
  8 11  2  0
  8 12  1  0
  9 13  1  0
 10 14  1  0
 13 15  2  0
 14 16  2  0
 15 16  1  0
M  END
