mac-x0415-diamond-x0895_1_A
     RDKit          3D

 24 26  0  0  0  0  0  0  0  0999 V2000
    0.5350   11.2950   -2.9320 O   0  0  0  0  0  0  0  0  0  0  0  0
    0.7770   12.5900   -3.2300 C   0  0  0  0  0  0  0  0  0  0  0  0
    0.8250   13.5910   -2.4300 N   0  0  0  0  0  0  0  0  0  0  0  0
    1.0060   12.9370   -4.6710 C   0  0  0  0  0  0  0  0  0  0  0  0
    0.6200   13.5140   -1.0150 C   0  0  0  0  0  0  0  0  0  0  0  0
    0.7110   14.3820   -4.5770 C   0  0  0  0  0  0  0  0  0  0  0  0
   -0.6000   14.3100   -0.5690 C   0  0  0  0  0  0  0  0  0  0  0  0
    1.6940   15.4310   -4.3390 C   0  0  0  0  0  0  0  0  0  0  0  0
   -0.3920   15.1120   -4.6670 C   0  0  0  0  0  0  0  0  0  0  0  0
   -0.5070   14.9830    0.8020 C   0  0  0  0  0  0  0  0  0  0  0  0
    1.2850   16.6710   -4.2780 N   0  0  0  0  0  0  0  0  0  0  0  0
   -0.1560   16.5580   -4.3970 C   0  0  1  0  0  0  0  0  0  0  0  0
   -1.7350   14.7250   -4.9470 C   0  0  0  0  0  0  0  0  0  0  0  0
   -1.7300   14.7870    1.5800 N   0  0  0  0  0  0  0  0  0  0  0  0
   -0.8920   17.4550   -5.3260 C   0  0  0  0  0  0  0  0  0  0  0  0
   -2.5350   15.6390   -5.5280 C   0  0  0  0  0  0  0  0  0  0  0  0
   -4.2790   15.1750   -5.9750 Br  0  0  0  0  0  0  0  0  0  0  0  0
   -2.0500   16.9960   -5.8520 C   0  0  0  0  0  0  0  0  0  0  0  0
   -2.8660   14.8890    0.9840 C   0  0  0  0  0  0  0  0  0  0  0  0
   -3.0330   15.2090   -0.4960 C   0  0  0  0  0  0  0  0  0  0  0  0
   -4.0930   14.7400    1.5330 N   0  0  0  0  0  0  0  0  0  0  0  0
   -4.4660   15.2000   -0.5960 N   0  0  0  0  0  0  0  0  0  0  0  0
   -5.0560   14.8670    0.5960 C   0  0  0  0  0  0  0  0  0  0  0  0
   -6.2510   14.7160    0.7670 O   0  0  0  0  0  0  0  0  0  0  0  0
  1  2  1  0
  2  3  2  3
  2  4  1  0
  3  5  1  0
  4  6  1  0
  5  7  1  0
  6  8  1  0
  6  9  2  0
  7 10  1  0
  8 11  2  0
  9 12  1  0
 11 12  1  0
  9 13  1  0
 10 14  1  0
 12 15  1  6
 13 16  2  0
 16 17  1  0
 15 18  2  0
 16 18  1  0
 14 19  2  3
 19 20  1  0
 19 21  1  0
 20 22  1  0
 21 23  1  0
 22 23  1  0
 23 24  2  0
M  END
