mac-x0584-diamond-x0900_0_A
     RDKit          3D

 19 22  0  0  0  0  0  0  0  0999 V2000
   -6.0120   15.1650    0.1060 O   0  0  0  0  0  0  0  0  0  0  0  0
   -4.7830   15.1180    0.1790 C   0  0  0  0  0  0  0  0  0  0  0  0
   -3.9590   15.0560    1.2840 N   0  0  0  0  0  0  0  0  0  0  0  0
   -3.9600   15.0570   -1.0260 C   0  0  0  0  0  0  0  0  0  0  0  0
   -2.7750   14.9100    0.7930 C   0  0  0  0  0  0  0  0  0  0  0  0
   -2.7020   14.9070   -0.6430 C   0  0  0  0  0  0  0  0  0  0  0  0
   -1.6230   14.7770    1.5040 N   0  0  0  0  0  0  0  0  0  0  0  0
   -1.4110   14.7740   -1.2980 C   0  0  0  0  0  0  0  0  0  0  0  0
   -1.2590   14.7670   -2.6650 N   0  0  0  0  0  0  0  0  0  0  0  0
   -0.3570   14.6700   -0.5220 N   0  0  0  0  0  0  0  0  0  0  0  0
   -0.5110   14.6780    0.8440 C   0  0  0  0  0  0  0  0  0  0  0  0
   -0.0460   14.6030   -3.4450 C   0  0  1  0  0  0  0  0  0  0  0  0
   -2.4200   14.9780   -3.5400 C   0  0  0  0  0  0  0  0  0  0  0  0
    0.5730   13.2130   -3.3040 C   0  0  0  0  0  0  0  0  0  0  0  0
   -0.4880   14.8410   -4.9110 C   0  0  0  0  0  0  0  0  0  0  0  0
   -1.8280   15.5450   -4.8140 C   0  0  0  0  0  0  0  0  0  0  0  0
    1.8790   12.8780   -4.0840 C   0  0  0  0  0  0  0  0  0  0  0  0
   -0.0220   11.9590   -4.0180 C   0  0  0  0  0  0  0  0  0  0  0  0
    0.9410   12.3120   -5.1660 C   0  0  0  0  0  0  0  0  0  0  0  0
  1  2  2  0
  2  3  1  0
  2  4  1  0
  3  5  2  0
  4  6  2  0
  5  6  1  0
  5  7  1  0
  6  8  1  0
  8  9  1  0
  8 10  2  0
  7 11  2  0
 10 11  1  0
  9 12  1  0
  9 13  1  0
 12 14  1  6
 12 15  1  0
 13 16  1  0
 15 16  1  0
 14 17  1  0
 14 18  1  0
 17 19  1  0
 18 19  1  0
M  END
