mac-x0328-mac-x0284
     RDKit          3D

 13 13  0  0  0  0  0  0  0  0999 V2000
   -1.9550   14.7080   -4.1760 O   0  0  0  0  0  0  0  0  0  0  0  0
   -1.7970   15.2770   -2.8760 C   0  0  2  0  0  0  0  0  0  0  0  0
   -0.5880   14.6390   -2.1680 C   0  0  0  0  0  0  0  0  0  0  0  0
   -3.1350   15.2420   -2.1530 C   0  0  0  0  0  0  0  0  0  0  0  0
   -0.2760   14.6010   -0.9960 O   0  0  0  0  0  0  0  0  0  0  0  0
    0.2300   14.0520   -3.0890 O   0  0  0  0  0  0  0  0  0  0  0  0
   -3.2180   15.3540   -0.7620 C   0  0  0  0  0  0  0  0  0  0  0  0
   -4.3290   15.1060   -2.8790 C   0  0  0  0  0  0  0  0  0  0  0  0
   -4.4490   15.3340   -0.0940 C   0  0  0  0  0  0  0  0  0  0  0  0
   -5.5660   15.0840   -2.2330 C   0  0  0  0  0  0  0  0  0  0  0  0
   -4.4120   15.4660    1.3880 C   0  0  0  0  0  0  0  0  0  0  0  0
   -5.6270   15.1960   -0.8490 C   0  0  0  0  0  0  0  0  0  0  0  0
   -6.8930   15.1620   -0.3200 O   0  0  0  0  0  0  0  0  0  0  0  0
  2  1  1  6
  2  3  1  0
  2  4  1  0
  3  5  2  0
  3  6  1  0
  4  7  2  0
  4  8  1  0
  7  9  1  0
  8 10  2  0
  9 11  1  0
  9 12  2  0
 10 12  1  0
 12 13  1  0
M  END
