mac-x0116-mac-x0142
     RDKit          3D

 23 27  0  0  0  0  0  0  0  0999 V2000
   -5.5910   14.7270    1.8520 C   0  0  0  0  0  0  0  0  0  0  0  0
   -4.1510   14.9750    1.6830 N   0  0  0  0  0  0  0  0  0  0  0  0
   -3.7130   14.9820    0.3510 C   0  0  0  0  0  0  0  0  0  0  0  0
   -6.1280   13.3250    1.7670 C   0  0  0  0  0  0  0  0  0  0  0  0
   -6.0880   12.7160    0.5360 O   0  0  0  0  0  0  0  0  0  0  0  0
   -6.6950   12.4650    2.6860 C   0  0  0  0  0  0  0  0  0  0  0  0
   -7.0160   11.2820    1.9930 C   0  0  0  0  0  0  0  0  0  0  0  0
   -6.6270   11.4850    0.6900 C   0  0  0  0  0  0  0  0  0  0  0  0
   -4.5780   15.3680   -0.6100 N   0  0  0  0  0  0  0  0  0  0  0  0
   -2.4240   14.5940    0.0000 C   0  0  0  0  0  0  0  0  0  0  0  0
   -4.1600   15.3570   -1.8880 C   0  0  0  0  0  0  0  0  0  0  0  0
   -2.1400   14.6120   -1.3610 C   0  0  0  0  0  0  0  0  0  0  0  0
   -1.3280   14.1730    0.7830 N   0  0  0  0  0  0  0  0  0  0  0  0
   -2.9600   14.9880   -2.3350 N   0  0  0  0  0  0  0  0  0  0  0  0
   -0.7550   14.0910   -1.5960 C   0  0  1  0  0  0  0  0  0  0  0  0
   -0.3790   13.9150   -0.0900 C   0  0  0  0  0  0  0  0  0  0  0  0
   -1.0710   12.7690   -2.3190 C   0  0  0  0  0  0  0  0  0  0  0  0
    0.2310   14.8760   -2.5100 C   0  0  0  0  0  0  0  0  0  0  0  0
    0.7800   13.9360   -3.6150 C   0  0  0  0  0  0  0  0  0  0  0  0
   -1.4100   12.9210   -3.8250 C   0  0  0  0  0  0  0  0  0  0  0  0
    2.2200   14.0030   -4.0560 C   0  0  0  0  0  0  0  0  0  0  0  0
    1.7850   12.8940   -3.1540 C   0  0  0  0  0  0  0  0  0  0  0  0
   -0.2460   13.4870   -4.6170 C   0  0  0  0  0  0  0  0  0  0  0  0
  1  2  1  0
  2  3  1  0
  1  4  1  0
  4  5  1  0
  4  6  2  0
  6  7  1  0
  5  8  1  0
  7  8  2  0
  3  9  2  0
  3 10  1  0
  9 11  1  0
 10 12  2  0
 10 13  1  0
 11 14  2  0
 12 14  1  0
 12 15  1  0
 13 16  2  0
 15 16  1  1
 15 17  1  0
 15 18  1  0
 19 18  1  0
 17 20  1  0
 19 21  1  0
 19 22  1  0
 21 22  1  0
 19 23  1  0
 20 23  1  0
M  END
