mac-x0555-mac-x0357
     RDKit          3D

 24 26  0  0  0  0  0  0  0  0999 V2000
   -7.2370   14.3960    2.9050 N   0  0  0  0  0  0  0  0  0  0  0  0
   -6.8410   14.5690    1.5810 C   0  0  0  0  0  0  0  0  0  0  0  0
   -7.7030   14.4440    0.5060 C   0  0  0  0  0  0  0  0  0  0  0  0
   -5.5130   14.8850    1.2940 C   0  0  0  0  0  0  0  0  0  0  0  0
   -5.0910   15.0580   -0.0240 C   0  0  0  0  0  0  0  0  0  0  0  0
   -7.3380   14.6050   -0.7850 N   0  0  0  0  0  0  0  0  0  0  0  0
   -6.0540   14.9040   -1.0370 C   0  0  0  0  0  0  0  0  0  0  0  0
   -3.7530   15.3730   -0.3450 C   0  0  0  0  0  0  0  0  0  0  0  0
   -5.6560   15.0660   -2.3430 C   0  0  0  0  0  0  0  0  0  0  0  0
   -3.3810   15.5290   -1.6850 C   0  0  0  0  0  0  0  0  0  0  0  0
   -1.9890   15.8630   -2.1270 C   0  0  0  0  0  0  0  0  0  0  0  0
   -4.3410   15.3710   -2.6710 C   0  0  0  0  0  0  0  0  0  0  0  0
   -1.3520   14.7590   -2.9520 C   0  0  0  0  0  0  0  0  0  0  0  0
   -0.3020   14.1660   -2.1590 N   0  0  0  0  0  0  0  0  0  0  0  0
    0.3490   13.1680   -2.5920 C   0  0  0  0  0  0  0  0  0  0  0  0
    1.3360   12.5670   -1.9150 O   0  0  0  0  0  0  0  0  0  0  0  0
    0.1240   12.5180   -3.9020 C   0  0  0  0  0  0  0  0  0  0  0  0
    1.1390   12.4740   -4.8710 C   0  0  0  0  0  0  0  0  0  0  0  0
   -1.1350   11.9430   -4.1550 C   0  0  0  0  0  0  0  0  0  0  0  0
    2.4910   13.0860   -4.6100 C   0  0  0  0  0  0  0  0  0  0  0  0
   -1.3960   11.3180   -5.3720 C   0  0  0  0  0  0  0  0  0  0  0  0
    0.8440   11.8340   -6.0820 C   0  0  0  0  0  0  0  0  0  0  0  0
    1.7390   11.7130   -7.0860 O   0  0  0  0  0  0  0  0  0  0  0  0
   -0.4010   11.2650   -6.3370 C   0  0  0  0  0  0  0  0  0  0  0  0
  1  2  1  0
  2  3  2  0
  2  4  1  0
  4  5  2  0
  3  6  1  0
  5  7  1  0
  6  7  2  0
  5  8  1  0
  7  9  1  0
  8 10  2  0
 10 11  1  0
  9 12  2  0
 10 12  1  0
 11 13  1  0
 13 14  1  0
 14 15  2  3
 15 16  1  0
 15 17  1  0
 17 18  2  0
 17 19  1  0
 18 20  1  0
 19 21  2  0
 18 22  1  0
 22 23  1  0
 21 24  1  0
 22 24  2  0
M  END
