mac-x0381-mac-x1493
     RDKit          3D

 27 30  0  0  0  0  0  0  0  0999 V2000
   -9.1050   12.8180    4.8480 N   0  0  0  0  0  0  0  0  0  0  0  0
   -8.7160   13.9620    4.2360 C   0  0  0  0  0  0  0  0  0  0  0  0
   -7.4690   14.1510    4.2800 N   0  0  0  0  0  0  0  0  0  0  0  0
   -9.8000   14.7830    3.6120 C   0  0  0  0  0  0  0  0  0  0  0  0
   -6.9310   15.2860    3.6350 C   0  0  0  0  0  0  0  0  0  0  0  0
   -9.6450   15.6000    2.4720 C   0  0  0  0  0  0  0  0  0  0  0  0
  -11.0330   14.6840    4.2430 C   0  0  0  0  0  0  0  0  0  0  0  0
  -10.7600   16.3070    1.9590 C   0  0  0  0  0  0  0  0  0  0  0  0
  -12.1260   15.3790    3.7470 C   0  0  0  0  0  0  0  0  0  0  0  0
   -6.5730   15.0180    2.1850 C   0  0  0  0  0  0  0  0  0  0  0  0
  -12.0130   16.1830    2.6120 C   0  0  0  0  0  0  0  0  0  0  0  0
  -10.6780   17.1280    0.8190 C   0  0  0  0  0  0  0  0  0  0  0  0
   -7.5960   14.6300    1.3330 C   0  0  0  0  0  0  0  0  0  0  0  0
   -5.2640   15.1630    1.6540 C   0  0  0  0  0  0  0  0  0  0  0  0
  -13.1330   16.8640    2.1170 C   0  0  0  0  0  0  0  0  0  0  0  0
  -11.8090   17.8030    0.3390 C   0  0  0  0  0  0  0  0  0  0  0  0
   -5.0180   14.9260    0.2880 C   0  0  0  0  0  0  0  0  0  0  0  0
   -7.3500   14.4060   -0.0090 C   0  0  0  0  0  0  0  0  0  0  0  0
  -13.0350   17.6690    0.9870 C   0  0  0  0  0  0  0  0  0  0  0  0
   -3.7420   15.0480   -0.2870 C   0  0  0  0  0  0  0  0  0  0  0  0
   -6.0900   14.5470   -0.5500 C   0  0  0  0  0  0  0  0  0  0  0  0
   -3.5860   14.7940   -1.6530 C   0  0  0  0  0  0  0  0  0  0  0  0
   -5.9370   14.3140   -1.8580 N   0  0  0  0  0  0  0  0  0  0  0  0
   -2.2650   14.8980   -2.2930 C   0  0  0  0  0  0  0  0  0  0  0  0
   -4.7010   14.4420   -2.3800 C   0  0  0  0  0  0  0  0  0  0  0  0
   -1.2500   14.7430   -1.4300 O   0  0  0  0  0  0  0  0  0  0  0  0
   -2.0640   15.1000   -3.4770 O   0  0  0  0  0  0  0  0  0  0  0  0
  1  2  1  0
  2  3  2  3
  2  4  1  0
  3  5  1  0
  4  6  2  0
  4  7  1  0
  6  8  1  0
  7  9  2  0
  5 10  1  0
  8 11  2  0
  9 11  1  0
  8 12  1  0
 10 13  2  0
 10 14  1  0
 11 15  1  0
 12 16  2  0
 14 17  2  0
 13 18  1  0
 15 19  2  0
 16 19  1  0
 17 20  1  0
 17 21  1  0
 18 21  2  0
 20 22  2  0
 21 23  1  0
 22 24  1  0
 22 25  1  0
 23 25  2  0
 24 26  1  0
 24 27  2  0
M  END
