mac-x0305-diamond-x0465_0_A
     RDKit          3D

 22 23  0  0  0  0  0  0  0  0999 V2000
   -0.0900   12.6040   -1.6460 N   0  0  0  0  0  0  0  0  0  0  0  0
   -0.3730   13.9490   -1.7840 C   0  0  0  0  0  0  0  0  0  0  0  0
    0.3530   14.7240   -2.3960 O   0  0  0  0  0  0  0  0  0  0  0  0
    0.3110   11.9030   -2.6940 C   0  0  0  0  0  0  0  0  0  0  0  0
    0.5250   12.4670   -4.1380 C   0  0  1  0  0  0  0  0  0  0  0  0
    0.5530   10.5630   -2.5480 O   0  0  0  0  0  0  0  0  0  0  0  0
   -1.6570   14.4870   -1.1700 C   0  0  0  0  0  0  0  0  0  0  0  0
    1.8910   13.1670   -4.2250 C   0  0  0  0  0  0  0  0  0  0  0  0
    0.5770   11.4900   -5.1990 O   0  0  0  0  0  0  0  0  0  0  0  0
   -1.8280   14.6690    0.2230 C   0  0  0  0  0  0  0  0  0  0  0  0
   -2.6460   14.7920   -2.0710 N   0  0  0  0  0  0  0  0  0  0  0  0
   -0.9010   14.4000    1.2010 O   0  0  0  0  0  0  0  0  0  0  0  0
   -3.0500   15.1740    0.6740 C   0  0  0  0  0  0  0  0  0  0  0  0
   -3.8080   15.2790   -1.5870 C   0  0  0  0  0  0  0  0  0  0  0  0
   -0.5840   10.8140   -5.5000 C   0  0  0  0  0  0  0  0  0  0  0  0
   -4.0580   15.4870   -0.2430 C   0  0  0  0  0  0  0  0  0  0  0  0
   -0.6630    9.8480   -6.5190 C   0  0  0  0  0  0  0  0  0  0  0  0
   -1.7220   11.1050   -4.7570 C   0  0  0  0  0  0  0  0  0  0  0  0
    0.4040    9.5360   -7.2680 F   0  0  0  0  0  0  0  0  0  0  0  0
   -1.8550    9.1850   -6.7830 C   0  0  0  0  0  0  0  0  0  0  0  0
   -2.9220   10.4400   -5.0250 C   0  0  0  0  0  0  0  0  0  0  0  0
   -2.9860    9.4800   -6.0340 C   0  0  0  0  0  0  0  0  0  0  0  0
  1  2  1  0
  2  3  2  0
  1  4  2  3
  4  5  1  0
  4  6  1  0
  2  7  1  0
  5  8  1  1
  5  9  1  0
  7 10  2  0
  7 11  1  0
 10 12  1  0
 10 13  1  0
 11 14  2  0
  9 15  1  0
 13 16  2  0
 14 16  1  0
 15 17  2  0
 15 18  1  0
 17 19  1  0
 17 20  1  0
 18 21  2  0
 20 22  2  0
 21 22  1  0
M  END
