mac-x0321-mac-x0567
     RDKit          3D

 15 16  0  0  0  0  0  0  0  0999 V2000
   -4.3560   15.6850    1.7460 Cl  0  0  0  0  0  0  0  0  0  0  0  0
   -4.4440   14.7400    0.2390 C   0  0  2  0  0  0  0  0  0  0  0  0
   -3.0470   14.7020   -0.4600 C   0  0  1  0  0  0  0  0  0  0  0  0
   -5.5800   15.2860   -0.5900 C   0  0  0  0  0  0  0  0  0  0  0  0
   -3.1490   14.5080   -2.0120 C   0  0  2  0  0  0  0  0  0  0  0  0
   -5.5020   15.5260   -1.8950 C   0  0  0  0  0  0  0  0  0  0  0  0
   -2.2510   15.8920   -0.0160 N   0  0  0  0  0  0  0  0  0  0  0  0
   -2.1930   13.6010    0.1180 C   0  0  0  0  0  0  0  0  0  0  0  0
   -1.8300   14.6310   -2.7540 C   0  0  0  0  0  0  0  0  0  0  0  0
   -4.2700   15.2840   -2.7080 C   0  0  0  0  0  0  0  0  0  0  0  0
   -0.9990   14.1800    0.8550 C   0  0  2  0  0  0  0  0  0  0  0  0
   -1.4210   15.5170    1.1200 N   0  0  0  0  0  0  0  0  0  0  0  0
   -0.7230   14.6500   -2.0020 O   0  0  0  0  0  0  0  0  0  0  0  0
   -1.7280   14.7060   -3.9710 O   0  0  0  0  0  0  0  0  0  0  0  0
    0.1880   14.2840    0.0270 N   0  0  0  0  0  0  0  0  0  0  0  0
  2  1  1  1
  2  3  1  0
  2  4  1  0
  3  5  1  0
  4  6  2  0
  3  7  1  0
  3  8  1  1
  5  9  1  6
  5 10  1  0
  6 10  1  0
  8 11  1  0
  7 12  1  0
 11 12  1  0
  9 13  1  0
  9 14  2  0
 11 15  1  6
M  END
