mac-x0348-mac-x0328
     RDKit          3D

 26 28  0  0  0  0  0  0  0  0999 V2000
    0.1650   18.8660   -6.3120 C   0  0  0  0  0  0  0  0  0  0  0  0
   -0.1580   17.6170   -5.6860 N   0  0  0  0  0  0  0  0  0  0  0  0
    0.7260   16.8960   -4.9700 C   0  0  0  0  0  0  0  0  0  0  0  0
   -1.3660   16.9720   -5.7120 C   0  0  0  0  0  0  0  0  0  0  0  0
    0.1410   15.7530   -4.5180 C   0  0  0  0  0  0  0  0  0  0  0  0
   -1.2050   15.7880   -4.9890 C   0  0  0  0  0  0  0  0  0  0  0  0
   -2.5780   17.3120   -6.3080 C   0  0  0  0  0  0  0  0  0  0  0  0
    0.7940   14.6850   -3.6830 C   0  0  2  0  0  0  0  0  0  0  0  0
   -2.2940   14.9120   -4.8610 C   0  0  0  0  0  0  0  0  0  0  0  0
   -3.6350   16.4080   -6.1550 C   0  0  0  0  0  0  0  0  0  0  0  0
    0.7960   13.2770   -4.2900 C   0  0  0  0  0  0  0  0  0  0  0  0
    0.0470   14.6800   -2.3800 C   0  0  0  0  0  0  0  0  0  0  0  0
   -3.5050   15.2360   -5.4520 C   0  0  0  0  0  0  0  0  0  0  0  0
    0.9430   12.2630   -3.1810 C   0  0  0  0  0  0  0  0  0  0  0  0
   -1.3560   14.6950   -2.6750 O   0  0  0  0  0  0  0  0  0  0  0  0
    1.5060   12.4320   -2.1130 O   0  0  0  0  0  0  0  0  0  0  0  0
    0.3690   11.0810   -3.4710 O   0  0  0  0  0  0  0  0  0  0  0  0
   -1.9080   14.7750   -1.4870 C   0  0  0  0  0  0  0  0  0  0  0  0
   -1.2430   14.7480   -0.4780 O   0  0  0  0  0  0  0  0  0  0  0  0
   -3.3710   14.9030   -1.4330 C   0  0  0  0  0  0  0  0  0  0  0  0
   -3.8540   14.8080   -0.1350 C   0  0  0  0  0  0  0  0  0  0  0  0
   -4.2500   15.1000   -2.5030 C   0  0  0  0  0  0  0  0  0  0  0  0
   -5.2050   14.9040    0.1240 C   0  0  0  0  0  0  0  0  0  0  0  0
   -5.6230   15.1980   -2.2380 C   0  0  0  0  0  0  0  0  0  0  0  0
   -6.0800   15.0980   -0.9260 C   0  0  0  0  0  0  0  0  0  0  0  0
   -7.4170   15.1930   -0.6910 O   0  0  0  0  0  0  0  0  0  0  0  0
  1  2  1  0
  2  3  1  0
  2  4  1  0
  3  5  2  0
  4  6  2  0
  5  6  1  0
  4  7  1  0
  5  8  1  0
  6  9  1  0
  7 10  2  0
  8 11  1  6
  8 12  1  0
  9 13  2  0
 10 13  1  0
 11 14  1  0
 12 15  1  0
 14 16  2  0
 14 17  1  0
 15 18  1  0
 18 19  2  0
 18 20  1  0
 20 21  2  0
 20 22  1  0
 21 23  1  0
 22 24  2  0
 23 25  2  0
 24 25  1  0
 25 26  1  0
M  END
