mac-x0271-diamond-x0962_2_B
     RDKit          3D

 18 20  0  0  0  0  0  0  0  0999 V2000
   -3.8260   15.6730   -3.2600 O   0  0  0  0  0  0  0  0  0  0  0  0
   -4.4360   15.2450   -2.1170 C   0  0  0  0  0  0  0  0  0  0  0  0
   -3.5160   14.9230   -1.0550 C   0  0  0  0  0  0  0  0  0  0  0  0
   -5.7750   15.1190   -1.9670 C   0  0  0  0  0  0  0  0  0  0  0  0
   -6.3640   14.6020   -0.6780 C   0  0  1  0  0  0  0  0  0  0  0  0
   -3.9470   14.6610    0.1730 C   0  0  0  0  0  0  0  0  0  0  0  0
   -5.3560   14.6880    0.4670 C   0  0  0  0  0  0  0  0  0  0  0  0
   -7.6910   15.1580   -0.3980 O   0  0  0  0  0  0  0  0  0  0  0  0
   -5.7820   14.7770    1.6960 C   0  0  0  0  0  0  0  0  0  0  0  0
   -8.0770   15.0160    0.9430 C   0  0  0  0  0  0  0  0  0  0  0  0
   -9.3660   15.1130    1.4090 N   0  0  0  0  0  0  0  0  0  0  0  0
   -7.1720   14.8190    1.9230 C   0  0  0  0  0  0  0  0  0  0  0  0
  -10.2390   16.0850    0.8310 N   0  0  0  0  0  0  0  0  0  0  0  0
   -9.0300   15.2310    2.8430 C   0  0  1  0  0  0  0  0  0  0  0  0
   -9.4730   16.1430    3.8800 N   0  0  0  0  0  0  0  0  0  0  0  0
   -9.0370   13.9150    3.6020 C   0  0  0  0  0  0  0  0  0  0  0  0
   -8.4770   15.7860    4.8910 C   0  0  0  0  0  0  0  0  0  0  0  0
   -8.3380   14.3140    4.8420 N   0  0  0  0  0  0  0  0  0  0  0  0
  1  2  1  0
  2  3  1  0
  2  4  2  0
  5  4  1  6
  3  6  2  0
  5  7  1  0
  6  7  1  0
  5  8  1  0
  7  9  2  0
  8 10  1  0
 10 11  1  0
  9 12  1  0
 10 12  2  0
 11 13  1  0
 14 11  1  6
 14 15  1  0
 14 16  1  0
 15 17  1  0
 16 18  1  0
 17 18  1  0
M  END
