mac-x0193-diamond-x0933_0_A
     RDKit          3D

 24 25  0  0  0  0  0  0  0  0999 V2000
    0.3850   10.4460   -3.1350 O   0  0  0  0  0  0  0  0  0  0  0  0
    0.5720   11.7780   -3.1900 C   0  0  0  0  0  0  0  0  0  0  0  0
    0.5950   12.4630   -2.0990 N   0  0  0  0  0  0  0  0  0  0  0  0
    0.7330   12.3650   -4.5990 C   0  0  0  0  0  0  0  0  0  0  0  0
    0.0960   11.4950   -5.5950 N   0  0  0  0  0  0  0  0  0  0  0  0
    0.7530   13.9120   -2.0420 C   0  0  0  0  0  0  0  0  0  0  0  0
    0.6980   11.2640   -6.8110 C   0  0  0  0  0  0  0  0  0  0  0  0
   -0.3340   14.4530   -1.0950 C   0  0  0  0  0  0  0  0  0  0  0  0
    1.8240   11.6380   -7.0210 O   0  0  0  0  0  0  0  0  0  0  0  0
   -0.1310   10.5790   -7.6820 N   0  0  0  0  0  0  0  0  0  0  0  0
   -1.7670   14.0820   -1.5490 C   0  0  0  0  0  0  0  0  0  0  0  0
    0.2640    9.7400   -8.8370 C   0  0  0  0  0  0  0  0  0  0  0  0
   -2.9210   14.8150   -0.8120 C   0  0  1  0  0  0  0  0  0  0  0  0
    1.3230    8.6940   -8.4960 C   0  0  0  0  0  0  0  0  0  0  0  0
    0.6430   10.5400  -10.0830 C   0  0  0  0  0  0  0  0  0  0  0  0
   -4.2980   14.2110   -1.1570 C   0  0  0  0  0  0  0  0  0  0  0  0
   -2.6560   14.8960    0.7140 C   0  0  0  0  0  0  0  0  0  0  0  0
    2.0310    8.1140   -9.7360 C   0  0  0  0  0  0  0  0  0  0  0  0
    0.8070    9.6590  -11.3300 C   0  0  0  0  0  0  0  0  0  0  0  0
   -5.3580   14.6560   -0.2600 N   0  0  0  0  0  0  0  0  0  0  0  0
   -3.8550   15.2340    1.4490 N   0  0  0  0  0  0  0  0  0  0  0  0
    1.1680    8.2130  -10.9870 C   0  0  0  0  0  0  0  0  0  0  0  0
   -4.9690   14.4330    1.0870 C   0  0  1  0  0  0  0  0  0  0  0  0
   -6.0580   14.8070    1.9130 N   0  0  0  0  0  0  0  0  0  0  0  0
  1  2  1  0
  2  3  2  3
  2  4  1  0
  4  5  1  0
  3  6  1  0
  5  7  1  0
  6  8  1  0
  7  9  2  0
  7 10  1  0
  8 11  1  0
 10 12  1  0
 13 11  1  6
 12 14  1  0
 12 15  1  0
 13 16  1  0
 13 17  1  0
 14 18  1  0
 15 19  1  0
 16 20  1  0
 17 21  1  0
 18 22  1  0
 19 22  1  0
 20 23  1  0
 21 23  1  0
 23 24  1  1
M  END
