mac-x0212-mac-x0415
     RDKit          3D

 29 31  0  0  0  0  0  0  0  0999 V2000
   -6.6620   12.7040    1.4690 C   0  0  0  0  0  0  0  0  0  0  0  0
   -7.0320   14.4260    1.1700 S   0  0  0  0  0  0  0  0  0  0  0  0
   -7.8750   14.8980    2.2410 O   0  0  0  0  0  0  0  0  0  0  0  0
   -7.4350   14.5890   -0.2090 O   0  0  0  0  0  0  0  0  0  0  0  0
   -5.5100   15.1020    1.4340 N   0  0  0  0  0  0  0  0  0  0  0  0
   -4.6200   14.9860    0.3510 C   0  0  0  0  0  0  0  0  0  0  0  0
   -3.3620   14.4280    0.5490 C   0  0  0  0  0  0  0  0  0  0  0  0
   -5.0320   15.4260   -0.9110 C   0  0  0  0  0  0  0  0  0  0  0  0
   -2.5000   14.2910   -0.5250 C   0  0  0  0  0  0  0  0  0  0  0  0
   -4.1740   15.2880   -1.9880 C   0  0  0  0  0  0  0  0  0  0  0  0
   -2.9260   14.7190   -1.7800 C   0  0  0  0  0  0  0  0  0  0  0  0
   -2.0670   14.5740   -2.9140 C   0  0  0  0  0  0  0  0  0  0  0  0
   -1.0290   13.9050   -3.1320 N   0  0  0  0  0  0  0  0  0  0  0  0
   -2.5560   15.3260   -3.8870 O   0  0  0  0  0  0  0  0  0  0  0  0
   -0.4350   13.0390   -2.1380 C   0  0  0  0  0  0  0  0  0  0  0  0
    0.7350   12.2790   -2.7650 C   0  0  0  0  0  0  0  0  0  0  0  0
    0.4300   10.9010   -2.6780 O   0  0  0  0  0  0  0  0  0  0  0  0
    1.8840   12.4970   -2.0030 O   0  0  0  0  0  0  0  0  0  0  0  0
    1.0270   12.6930   -4.2080 C   0  0  0  0  0  0  0  0  0  0  0  0
    0.8690   14.1420   -4.4670 C   0  0  0  0  0  0  0  0  0  0  0  0
    1.8160   15.1830   -4.0610 C   0  0  0  0  0  0  0  0  0  0  0  0
   -0.0920   14.8890   -4.9980 C   0  0  0  0  0  0  0  0  0  0  0  0
    1.5050   16.4180   -4.3130 N   0  0  0  0  0  0  0  0  0  0  0  0
    0.3000   16.3210   -5.0860 C   0  0  2  0  0  0  0  0  0  0  0  0
   -1.3860   14.5270   -5.4910 C   0  0  0  0  0  0  0  0  0  0  0  0
   -0.7870   17.2770   -4.8390 C   0  0  0  0  0  0  0  0  0  0  0  0
   -2.3390   15.5000   -5.5170 C   0  0  0  0  0  0  0  0  0  0  0  0
   -4.0710   15.1470   -6.1240 Br  0  0  0  0  0  0  0  0  0  0  0  0
   -2.0340   16.8640   -5.0630 C   0  0  0  0  0  0  0  0  0  0  0  0
  1  2  1  0
  2  3  2  0
  2  4  2  0
  2  5  1  0
  5  6  1  0
  6  7  2  0
  6  8  1  0
  7  9  1  0
  8 10  2  0
  9 11  2  0
 10 11  1  0
 11 12  1  0
 12 13  2  3
 12 14  1  0
 13 15  1  0
 15 16  1  0
 16 17  1  0
 16 18  1  0
 16 19  1  0
 19 20  1  0
 20 21  1  0
 20 22  2  0
 21 23  2  0
 22 24  1  0
 23 24  1  0
 22 25  1  0
 24 26  1  1
 25 27  2  0
 27 28  1  0
 26 29  2  0
 27 29  1  0
M  END
