mac-x0375-mac-x0365
     RDKit          3D

 24 25  0  0  0  0  0  0  0  0999 V2000
    1.6580   12.8610   -2.6740 O   0  0  0  0  0  0  0  0  0  0  0  0
    0.8700   12.0070   -3.3460 C   0  0  0  0  0  0  0  0  0  0  0  0
    0.7160   10.8730   -2.9220 O   0  0  0  0  0  0  0  0  0  0  0  0
    0.2260   12.5730   -4.6040 C   0  0  2  0  0  0  0  0  0  0  0  0
    0.4740   11.7630   -5.7490 O   0  0  0  0  0  0  0  0  0  0  0  0
    0.6890   14.0190   -4.8150 C   0  0  0  0  0  0  0  0  0  0  0  0
    0.2460   14.9270   -3.6560 C   0  0  0  0  0  0  0  0  0  0  0  0
   -0.4790   10.8250   -6.0280 C   0  0  0  0  0  0  0  0  0  0  0  0
   -1.2100   14.9100   -3.4390 N   0  0  0  0  0  0  0  0  0  0  0  0
   -0.3430    9.6820   -6.8120 C   0  0  0  0  0  0  0  0  0  0  0  0
   -1.7130   11.0960   -5.4280 C   0  0  0  0  0  0  0  0  0  0  0  0
   -1.6610   14.9120   -2.2330 C   0  0  0  0  0  0  0  0  0  0  0  0
   -1.4350    8.8230   -6.9850 C   0  0  0  0  0  0  0  0  0  0  0  0
   -2.7980   10.2420   -5.6000 C   0  0  0  0  0  0  0  0  0  0  0  0
   -0.7370   14.9000   -1.2620 O   0  0  0  0  0  0  0  0  0  0  0  0
   -2.6590    9.1030   -6.3800 C   0  0  0  0  0  0  0  0  0  0  0  0
   -3.0150   14.9550   -1.6480 C   0  0  0  0  0  0  0  0  0  0  0  0
   -4.1270   15.0400   -2.4820 C   0  0  0  0  0  0  0  0  0  0  0  0
   -3.1830   14.9230   -0.2490 C   0  0  0  0  0  0  0  0  0  0  0  0
   -5.3930   15.0890   -1.9140 C   0  0  0  0  0  0  0  0  0  0  0  0
   -4.4650   14.9730    0.3080 C   0  0  0  0  0  0  0  0  0  0  0  0
   -6.4580   15.1680   -2.7180 F   0  0  0  0  0  0  0  0  0  0  0  0
   -5.5720   15.0560   -0.5370 C   0  0  0  0  0  0  0  0  0  0  0  0
   -6.8490   15.1050   -0.0560 O   0  0  0  0  0  0  0  0  0  0  0  0
  1  2  1  0
  2  3  2  0
  2  4  1  0
  4  5  1  0
  4  6  1  6
  6  7  1  0
  5  8  1  0
  7  9  1  0
  8 10  2  0
  8 11  1  0
  9 12  2  3
 10 13  1  0
 11 14  2  0
 12 15  1  0
 13 16  2  0
 14 16  1  0
 12 17  1  0
 17 18  2  0
 17 19  1  0
 18 20  1  0
 19 21  2  0
 20 22  1  0
 20 23  2  0
 21 23  1  0
 23 24  1  0
M  END
