mac-x0576-mac-x0365
     RDKit          3D

 16 17  0  0  0  0  0  0  0  0999 V2000
    0.0740   14.1390    1.9970 N   0  0  0  0  0  0  0  0  0  0  0  0
   -0.9630   14.3580    1.1720 C   0  0  0  0  0  0  0  0  0  0  0  0
   -2.1150   14.5480    1.6750 N   0  0  0  0  0  0  0  0  0  0  0  0
   -0.7010   14.3580   -0.1540 N   0  0  0  0  0  0  0  0  0  0  0  0
   -1.6940   14.6560   -1.0650 C   0  0  0  0  0  0  0  0  0  0  0  0
   -3.1770   14.7410    0.8200 C   0  0  0  0  0  0  0  0  0  0  0  0
   -1.2830   14.7380   -2.4860 C   0  0  0  0  0  0  0  0  0  0  0  0
   -2.9640   14.8620   -0.6770 C   0  0  0  0  0  0  0  0  0  0  0  0
   -4.3350   14.7910    1.3730 N   0  0  0  0  0  0  0  0  0  0  0  0
    0.0610   14.7510   -2.5240 O   0  0  0  0  0  0  0  0  0  0  0  0
   -1.9340   14.7890   -3.5090 O   0  0  0  0  0  0  0  0  0  0  0  0
   -5.4020   14.9430    0.5250 C   0  0  0  0  0  0  0  0  0  0  0  0
   -4.0180   15.1550   -1.5160 N   0  0  0  0  0  0  0  0  0  0  0  0
   -6.5630   14.8660    0.9130 O   0  0  0  0  0  0  0  0  0  0  0  0
   -5.1940   15.1950   -0.9670 C   0  0  0  0  0  0  0  0  0  0  0  0
   -6.2480   15.4550   -1.7650 F   0  0  0  0  0  0  0  0  0  0  0  0
  1  2  1  0
  2  3  2  0
  2  4  1  0
  4  5  1  0
  3  6  1  0
  5  7  1  0
  5  8  2  0
  6  8  1  0
  6  9  2  0
  7 10  1  0
  7 11  2  0
  9 12  1  0
  8 13  1  0
 12 14  2  0
 12 15  1  0
 13 15  2  0
 15 16  1  0
M  END
