mac-x0375-mac-x0228
     RDKit          3D

 25 27  0  0  0  0  0  0  0  0999 V2000
    1.7860   12.8370   -2.9000 O   0  0  0  0  0  0  0  0  0  0  0  0
    0.8620   12.0070   -3.4200 C   0  0  0  0  0  0  0  0  0  0  0  0
    0.6900   10.9230   -2.8930 O   0  0  0  0  0  0  0  0  0  0  0  0
    0.1280   12.5620   -4.6440 C   0  0  2  0  0  0  0  0  0  0  0  0
    0.4630   11.7160   -5.7620 O   0  0  0  0  0  0  0  0  0  0  0  0
    0.4960   14.0060   -4.9880 C   0  0  0  0  0  0  0  0  0  0  0  0
    0.0230   15.0290   -3.9450 C   0  0  0  0  0  0  0  0  0  0  0  0
   -0.5370   10.8180   -6.0080 C   0  0  0  0  0  0  0  0  0  0  0  0
   -1.4400   15.0120   -3.7440 N   0  0  0  0  0  0  0  0  0  0  0  0
   -0.3790    9.6840   -6.7990 C   0  0  0  0  0  0  0  0  0  0  0  0
   -1.7680   11.0880   -5.4130 C   0  0  0  0  0  0  0  0  0  0  0  0
   -1.8930   14.8570   -2.5410 C   0  0  0  0  0  0  0  0  0  0  0  0
   -1.4560    8.8180   -6.9870 C   0  0  0  0  0  0  0  0  0  0  0  0
   -2.8400   10.2240   -5.6040 C   0  0  0  0  0  0  0  0  0  0  0  0
   -1.0900   14.6810   -1.4820 O   0  0  0  0  0  0  0  0  0  0  0  0
   -2.6860    9.0880   -6.3900 C   0  0  0  0  0  0  0  0  0  0  0  0
   -3.3250   14.8780   -2.1060 C   0  0  0  0  0  0  0  0  0  0  0  0
   -3.6000   14.6780   -0.7390 C   0  0  0  0  0  0  0  0  0  0  0  0
   -4.3980   15.0960   -2.9980 C   0  0  0  0  0  0  0  0  0  0  0  0
   -4.9160   14.7050   -0.3050 C   0  0  0  0  0  0  0  0  0  0  0  0
   -5.7250   15.1210   -2.5330 C   0  0  0  0  0  0  0  0  0  0  0  0
   -5.9530   14.9260   -1.1880 C   0  0  0  0  0  0  0  0  0  0  0  0
   -5.4560   14.5170    1.0560 C   0  0  0  0  0  0  0  0  0  0  0  0
   -7.1920   14.9270   -0.5980 O   0  0  0  0  0  0  0  0  0  0  0  0
   -6.9460   14.4000    0.7280 C   0  0  0  0  0  0  0  0  0  0  0  0
  1  2  1  0
  2  3  2  0
  2  4  1  0
  4  5  1  0
  4  6  1  6
  6  7  1  0
  5  8  1  0
  7  9  1  0
  8 10  2  0
  8 11  1  0
  9 12  2  3
 10 13  1  0
 11 14  2  0
 12 15  1  0
 13 16  2  0
 14 16  1  0
 12 17  1  0
 17 18  2  0
 17 19  1  0
 18 20  1  0
 19 21  2  0
 20 22  2  0
 21 22  1  0
 20 23  1  0
 22 24  1  0
 23 25  1  0
 24 25  1  0
M  END
