mac-x0436-diamond-x0855_0_A
     RDKit          3D

 17 18  0  0  0  0  0  0  0  0999 V2000
    0.7110   11.2000   -2.8850 O   0  0  0  0  0  0  0  0  0  0  0  0
    1.1940   12.4530   -2.9490 C   0  0  0  0  0  0  0  0  0  0  0  0
    1.3590   13.0930   -1.9300 O   0  0  0  0  0  0  0  0  0  0  0  0
    1.4890   12.9360   -4.3470 C   0  0  0  0  0  0  0  0  0  0  0  0
    0.2160   13.1900   -5.1470 C   0  0  0  0  0  0  0  0  0  0  0  0
   -0.4250   11.8910   -5.6060 C   0  0  0  0  0  0  0  0  0  0  0  0
   -1.7250   11.4510   -4.9410 C   0  0  0  0  0  0  0  0  0  0  0  0
    0.1570   11.2030   -6.5430 N   0  0  0  0  0  0  0  0  0  0  0  0
   -2.2160   12.1810   -4.0830 O   0  0  0  0  0  0  0  0  0  0  0  0
   -2.2340   10.2280   -5.3860 N   0  0  0  0  0  0  0  0  0  0  0  0
   -0.4290   10.0060   -6.9580 C   0  0  0  0  0  0  0  0  0  0  0  0
   -4.0940    9.9750   -5.4350 Br  0  0  0  0  0  0  0  0  0  0  0  0
   -1.6020    9.5110   -6.3940 C   0  0  0  0  0  0  0  0  0  0  0  0
    0.1870    9.2770   -7.9780 C   0  0  0  0  0  0  0  0  0  0  0  0
   -0.3580    8.0760   -8.4270 C   0  0  0  0  0  0  0  0  0  0  0  0
   -2.1480    8.3050   -6.8430 C   0  0  0  0  0  0  0  0  0  0  0  0
   -1.5280    7.5870   -7.8580 C   0  0  0  0  0  0  0  0  0  0  0  0
  1  2  1  0
  2  3  2  0
  2  4  1  0
  4  5  1  0
  5  6  1  0
  6  7  1  0
  6  8  2  0
  7  9  2  0
  7 10  1  0
  8 11  1  0
 10 12  1  0
 10 13  1  0
 11 13  2  0
 11 14  1  0
 14 15  2  0
 13 16  1  0
 15 17  1  0
 16 17  2  0
M  END
