mac-x0404-diamond-x0104_0_A
     RDKit          3D

 33 36  0  0  0  0  0  0  0  0999 V2000
    0.6890   12.6380   -1.4450 O   0  0  0  0  0  0  0  0  0  0  0  0
    0.9570   12.2970   -2.7300 C   0  0  0  0  0  0  0  0  0  0  0  0
    0.6200   11.2070   -3.1640 O   0  0  0  0  0  0  0  0  0  0  0  0
    1.7010   13.3830   -3.5050 C   0  0  0  0  0  0  0  0  0  0  0  0
    1.1280   13.8680   -4.7130 O   0  0  0  0  0  0  0  0  0  0  0  0
   -0.1180   14.4760   -4.7740 C   0  0  0  0  0  0  0  0  0  0  0  0
   -0.1460   15.8650   -5.0940 C   0  0  0  0  0  0  0  0  0  0  0  0
   -1.3280   13.8170   -4.5490 C   0  0  0  0  0  0  0  0  0  0  0  0
   -1.3850   16.5410   -5.1900 C   0  0  0  0  0  0  0  0  0  0  0  0
   -2.5470   14.5160   -4.6380 C   0  0  0  0  0  0  0  0  0  0  0  0
    1.0020   16.6220   -5.3290 C   0  0  0  0  0  0  0  0  0  0  0  0
   -3.8750   13.8850   -4.3830 C   0  0  0  0  0  0  0  0  0  0  0  0
   -2.5540   15.8540   -4.9620 C   0  0  0  0  0  0  0  0  0  0  0  0
   -1.4430   17.8950   -5.5150 C   0  0  0  0  0  0  0  0  0  0  0  0
    0.9410   17.9800   -5.6490 C   0  0  0  0  0  0  0  0  0  0  0  0
   -4.1660   13.9700   -2.8810 C   0  0  0  0  0  0  0  0  0  0  0  0
   -0.2880   18.6110   -5.7450 C   0  0  0  0  0  0  0  0  0  0  0  0
   -4.7820   15.1760   -2.4550 O   0  0  0  0  0  0  0  0  0  0  0  0
   -5.2380   15.0470   -1.1620 C   0  0  0  0  0  0  0  0  0  0  0  0
   -4.3770   15.1230   -0.1280 N   0  0  0  0  0  0  0  0  0  0  0  0
   -6.5960   14.8350   -1.0140 C   0  0  0  0  0  0  0  0  0  0  0  0
   -4.9050   14.9800    1.1140 C   0  0  0  0  0  0  0  0  0  0  0  0
   -7.1140   14.6890    0.2690 C   0  0  0  0  0  0  0  0  0  0  0  0
   -6.2590   14.7620    1.3700 C   0  0  0  0  0  0  0  0  0  0  0  0
   -6.8180   14.6160    2.6540 N   0  0  0  0  0  0  0  0  0  0  0  0
   -8.0480   15.0710    3.1200 C   0  0  0  0  0  0  0  0  0  0  0  0
   -8.0690   15.0990    4.5110 N   0  0  0  0  0  0  0  0  0  0  0  0
   -8.9720   15.3940    2.3860 O   0  0  0  0  0  0  0  0  0  0  0  0
   -9.2040   15.0840    5.3030 C   0  0  0  0  0  0  0  0  0  0  0  0
   -9.2360   15.1990    6.6790 C   0  0  0  0  0  0  0  0  0  0  0  0
  -10.7630   14.9130    4.6480 S   0  0  0  0  0  0  0  0  0  0  0  0
  -11.5000   14.9920    6.1890 C   0  0  0  0  0  0  0  0  0  0  0  0
  -10.5700   15.1460    7.1920 C   0  0  0  0  0  0  0  0  0  0  0  0
  1  2  1  0
  2  3  2  0
  2  4  1  0
  4  5  1  0
  5  6  1  0
  6  7  2  0
  6  8  1  0
  7  9  1  0
  8 10  2  0
  7 11  1  0
 10 12  1  0
  9 13  2  0
 10 13  1  0
  9 14  1  0
 11 15  2  0
 12 16  1  0
 14 17  2  0
 15 17  1  0
 16 18  1  0
 18 19  1  0
 19 20  2  0
 19 21  1  0
 20 22  1  0
 21 23  2  0
 22 24  2  0
 23 24  1  0
 24 25  1  0
 25 26  1  0
 26 27  1  0
 26 28  2  0
 27 29  1  0
 29 30  2  0
 29 31  1  0
 31 32  1  0
 30 33  1  0
 32 33  2  0
M  END
