mac-x0380-diamond-x0471_0_A
     RDKit          3D

 20 21  0  0  0  0  0  0  0  0999 V2000
   -1.3850   14.6770   -2.6200 O   0  0  0  0  0  0  0  0  0  0  0  0
   -2.6920   14.9540   -2.7930 C   0  0  0  0  0  0  0  0  0  0  0  0
   -3.1430   15.1780   -3.9000 O   0  0  0  0  0  0  0  0  0  0  0  0
   -3.4560   14.9480   -1.5170 C   0  0  0  0  0  0  0  0  0  0  0  0
   -4.8520   15.0200   -1.5820 C   0  0  0  0  0  0  0  0  0  0  0  0
   -2.8280   14.8740   -0.2730 C   0  0  0  0  0  0  0  0  0  0  0  0
   -5.6110   15.0120   -0.4050 C   0  0  0  0  0  0  0  0  0  0  0  0
   -3.5840   14.8700    0.9000 C   0  0  0  0  0  0  0  0  0  0  0  0
   -4.9820   14.9380    0.8430 C   0  0  0  0  0  0  0  0  0  0  0  0
   -7.3860   15.0940   -0.5860 S   0  0  0  0  0  0  0  0  0  0  0  0
   -5.6890   14.9230    2.0560 N   0  0  0  0  0  0  0  0  0  0  0  0
   -8.0220   14.5580    1.0680 C   0  0  1  0  0  0  0  0  0  0  0  0
   -8.6540   13.2040    0.9160 C   0  0  0  0  0  0  0  0  0  0  0  0
   -7.0660   14.8720    2.2490 C   0  0  0  0  0  0  0  0  0  0  0  0
   -7.3840   15.1290    3.4810 N   0  0  0  0  0  0  0  0  0  0  0  0
   -8.6490   15.1630    3.9580 C   0  0  0  0  0  0  0  0  0  0  0  0
   -9.5750   15.7440    3.3990 O   0  0  0  0  0  0  0  0  0  0  0  0
   -8.7740   14.4170    5.2820 C   0  0  0  0  0  0  0  0  0  0  0  0
  -10.1630   13.8150    5.4860 C   0  0  0  0  0  0  0  0  0  0  0  0
   -8.4080   15.3710    6.4160 C   0  0  0  0  0  0  0  0  0  0  0  0
  1  2  1  0
  2  3  2  0
  2  4  1  0
  4  5  2  0
  4  6  1  0
  5  7  1  0
  6  8  2  0
  7  9  2  0
  8  9  1  0
  7 10  1  0
  9 11  1  0
 10 12  1  0
 12 13  1  6
 11 14  1  0
 12 14  1  0
 14 15  2  3
 15 16  1  0
 16 17  2  0
 16 18  1  0
 18 19  1  0
 18 20  1  0
M  END
