mac-x0179-diamond-x0471_0_A
     RDKit          3D

 34 37  0  0  0  0  0  0  0  0999 V2000
    1.5510   12.8930   -2.1170 O   0  0  0  0  0  0  0  0  0  0  0  0
    0.9650   12.1630   -3.0860 C   0  0  0  0  0  0  0  0  0  0  0  0
    0.6740   10.9960   -2.8650 O   0  0  0  0  0  0  0  0  0  0  0  0
    0.7200   12.8850   -4.3970 C   0  0  0  0  0  0  0  0  0  0  0  0
    0.0250   12.0550   -5.3560 N   0  0  0  0  0  0  0  0  0  0  0  0
    0.6960   11.5420   -6.4250 C   0  0  0  0  0  0  0  0  0  0  0  0
   -1.1730   11.4040   -5.1360 C   0  0  0  0  0  0  0  0  0  0  0  0
    1.7750   11.8610   -6.8630 O   0  0  0  0  0  0  0  0  0  0  0  0
   -1.9760   11.7200   -4.1610 N   0  0  0  0  0  0  0  0  0  0  0  0
   -0.1270   10.4700   -6.9710 C   0  0  0  0  0  0  0  0  0  0  0  0
   -1.2740   10.3690   -6.1930 C   0  0  0  0  0  0  0  0  0  0  0  0
   -1.9090   12.7220   -3.0780 C   0  0  0  0  0  0  0  0  0  0  0  0
    0.1320    9.6580   -8.0630 C   0  0  0  0  0  0  0  0  0  0  0  0
   -2.2250    9.4080   -6.5060 C   0  0  0  0  0  0  0  0  0  0  0  0
   -1.8680   14.2080   -3.5020 C   0  0  0  0  0  0  0  0  0  0  0  0
   -0.8220    8.6930   -8.3810 C   0  0  0  0  0  0  0  0  0  0  0  0
   -1.9920    8.5690   -7.6060 C   0  0  0  0  0  0  0  0  0  0  0  0
   -3.1000   15.1020   -3.2130 C   0  0  0  0  0  0  0  0  0  0  0  0
   -3.8120   15.0190   -1.8630 C   0  0  0  0  0  0  0  0  0  0  0  0
   -5.2030   14.9200   -1.9260 C   0  0  0  0  0  0  0  0  0  0  0  0
   -3.1710   15.0310   -0.5980 C   0  0  0  0  0  0  0  0  0  0  0  0
   -5.9090   14.8200   -0.7430 C   0  0  0  0  0  0  0  0  0  0  0  0
   -3.9180   14.9340    0.6000 C   0  0  0  0  0  0  0  0  0  0  0  0
   -7.2480   14.7010   -0.5070 N   0  0  0  0  0  0  0  0  0  0  0  0
   -5.3210   14.8220    0.5090 C   0  0  0  0  0  0  0  0  0  0  0  0
   -7.4400   14.6300    0.8450 C   0  0  0  0  0  0  0  0  0  0  0  0
   -6.2850   14.7040    1.4860 N   0  0  0  0  0  0  0  0  0  0  0  0
   -8.8080   14.4920    1.4060 C   0  0  0  0  0  0  0  0  0  0  0  0
   -8.7260   14.0870    2.7810 N   0  0  0  0  0  0  0  0  0  0  0  0
   -8.9400   14.9980    3.7850 C   0  0  0  0  0  0  0  0  0  0  0  0
   -9.3170   16.1440    3.5590 O   0  0  0  0  0  0  0  0  0  0  0  0
   -8.6760   14.4430    5.1820 C   0  0  0  0  0  0  0  0  0  0  0  0
   -9.9000   13.6750    5.6920 C   0  0  0  0  0  0  0  0  0  0  0  0
   -8.3060   15.5600    6.1480 C   0  0  0  0  0  0  0  0  0  0  0  0
  1  2  1  0
  2  3  2  0
  2  4  1  0
  4  5  1  0
  5  6  1  0
  5  7  1  0
  6  8  2  0
  7  9  2  3
  6 10  1  0
  7 11  1  0
 10 11  2  0
  9 12  1  0
 10 13  1  0
 11 14  1  0
 12 15  1  0
 13 16  2  0
 14 17  2  0
 16 17  1  0
 15 18  1  0
 18 19  1  0
 19 20  2  0
 19 21  1  0
 20 22  1  0
 21 23  2  0
 22 24  1  0
 22 25  2  0
 23 25  1  0
 24 26  1  0
 25 27  1  0
 26 27  2  0
 26 28  1  0
 28 29  1  0
 29 30  1  0
 30 31  2  0
 30 32  1  0
 32 33  1  0
 32 34  1  0
M  END
