mac-x0433-diamond-x0290_0_A
     RDKit          3D

 19 20  0  0  0  0  0  0  0  0999 V2000
   -7.9720   14.8320    1.0980 C   0  0  0  0  0  0  0  0  0  0  0  0
   -8.0810   13.4420    1.4930 N   0  0  0  0  0  0  0  0  0  0  0  0
   -6.8040   13.1060    2.0970 C   0  0  0  0  0  0  0  0  0  0  0  0
   -6.7200   14.9150    0.2530 C   0  0  0  0  0  0  0  0  0  0  0  0
   -6.9530   15.0150   -1.0630 N   0  0  0  0  0  0  0  0  0  0  0  0
   -5.4340   14.8680    0.8190 C   0  0  0  0  0  0  0  0  0  0  0  0
   -5.6330   13.0220    1.1170 C   0  0  0  0  0  0  0  0  0  0  0  0
   -4.3830   14.9100   -0.0850 C   0  0  0  0  0  0  0  0  0  0  0  0
   -5.8930   15.0610   -1.8400 C   0  0  0  0  0  0  0  0  0  0  0  0
   -6.1090   15.1410   -3.1950 N   0  0  0  0  0  0  0  0  0  0  0  0
   -5.6960   13.0670   -0.1180 O   0  0  0  0  0  0  0  0  0  0  0  0
   -4.6390   15.0160   -1.4170 N   0  0  0  0  0  0  0  0  0  0  0  0
   -2.9140   14.8190    0.1560 C   0  0  0  0  0  0  0  0  0  0  0  0
   -2.2460   14.7890    1.3780 N   0  0  0  0  0  0  0  0  0  0  0  0
   -2.2270   14.7440   -1.0370 C   0  0  0  0  0  0  0  0  0  0  0  0
   -0.8880   14.6720    1.2870 C   0  0  0  0  0  0  0  0  0  0  0  0
   -0.8660   14.6370   -1.0870 C   0  0  0  0  0  0  0  0  0  0  0  0
   -0.1900   14.5650   -2.4150 C   0  0  0  0  0  0  0  0  0  0  0  0
   -0.1730   14.6000    0.1060 C   0  0  0  0  0  0  0  0  0  0  0  0
  1  2  1  0
  2  3  1  0
  1  4  1  0
  4  5  2  0
  4  6  1  0
  3  7  1  0
  6  8  2  0
  5  9  1  0
  9 10  1  0
  7 11  2  0
  8 12  1  0
  9 12  2  0
  8 13  1  0
 13 14  2  0
 13 15  1  0
 14 16  1  0
 15 17  2  0
 17 18  1  0
 16 19  2  0
 17 19  1  0
M  END
