mac-x0354-mac-x0228
     RDKit          3D

 29 32  0  0  0  0  0  0  0  0999 V2000
    0.6620   11.0320   -8.2730 C   0  0  0  0  0  0  0  0  0  0  0  0
    0.9310   11.5330   -6.9390 N   0  0  0  0  0  0  0  0  0  0  0  0
    1.9170   12.4050   -6.7240 N   0  0  0  0  0  0  0  0  0  0  0  0
    0.2590   11.2020   -5.8080 C   0  0  0  0  0  0  0  0  0  0  0  0
    1.8870   12.6460   -5.4350 C   0  0  0  0  0  0  0  0  0  0  0  0
    0.8730   11.9280   -4.7740 C   0  0  0  0  0  0  0  0  0  0  0  0
   -0.8390   10.2540   -5.8850 C   0  0  0  0  0  0  0  0  0  0  0  0
    0.6260   12.0040   -3.3530 C   0  0  0  0  0  0  0  0  0  0  0  0
   -0.6040    8.9440   -6.3250 C   0  0  0  0  0  0  0  0  0  0  0  0
   -2.1260   10.6360   -5.5310 C   0  0  0  0  0  0  0  0  0  0  0  0
    0.7780   13.1620   -2.7900 N   0  0  0  0  0  0  0  0  0  0  0  0
    0.2760   10.8540   -2.7140 O   0  0  0  0  0  0  0  0  0  0  0  0
   -1.6490    8.0300   -6.4040 C   0  0  0  0  0  0  0  0  0  0  0  0
   -3.1720    9.7200   -5.6120 C   0  0  0  0  0  0  0  0  0  0  0  0
    0.5950   13.3620   -1.3520 C   0  0  0  0  0  0  0  0  0  0  0  0
   -2.9330    8.4200   -6.0470 C   0  0  0  0  0  0  0  0  0  0  0  0
   -0.4510   14.4130   -0.9400 C   0  0  0  0  0  0  0  0  0  0  0  0
   -0.9320   15.1420   -2.0730 O   0  0  0  0  0  0  0  0  0  0  0  0
   -1.9920   14.6670   -2.7870 C   0  0  0  0  0  0  0  0  0  0  0  0
   -1.8980   14.2150   -3.9120 O   0  0  0  0  0  0  0  0  0  0  0  0
   -3.3230   14.7690   -2.1000 C   0  0  0  0  0  0  0  0  0  0  0  0
   -3.5560   14.5640   -0.7290 C   0  0  0  0  0  0  0  0  0  0  0  0
   -4.4150   15.0930   -2.9400 C   0  0  0  0  0  0  0  0  0  0  0  0
   -4.8580   14.6830   -0.2580 C   0  0  0  0  0  0  0  0  0  0  0  0
   -5.7130   15.2110   -2.4380 C   0  0  0  0  0  0  0  0  0  0  0  0
   -5.9100   15.0020   -1.1010 C   0  0  0  0  0  0  0  0  0  0  0  0
   -5.3830   14.5100    1.1060 C   0  0  0  0  0  0  0  0  0  0  0  0
   -7.1270   15.0790   -0.4710 O   0  0  0  0  0  0  0  0  0  0  0  0
   -6.8810   14.4390    0.8010 C   0  0  0  0  0  0  0  0  0  0  0  0
  1  2  1  0
  2  3  1  0
  2  4  1  0
  3  5  2  0
  4  6  2  0
  5  6  1  0
  4  7  1  0
  6  8  1  0
  7  9  2  0
  7 10  1  0
  8 11  2  3
  8 12  1  0
  9 13  1  0
 10 14  2  0
 11 15  1  0
 13 16  2  0
 14 16  1  0
 15 17  1  0
 17 18  1  0
 18 19  1  0
 19 20  2  0
 19 21  1  0
 21 22  2  0
 21 23  1  0
 22 24  1  0
 23 25  2  0
 24 26  2  0
 25 26  1  0
 24 27  1  0
 26 28  1  0
 27 29  1  0
 28 29  1  0
M  END
