mac-x0527-mac-x0565
     RDKit          3D

 27 30  0  0  0  0  0  0  0  0999 V2000
   -4.7440   15.5700   -2.9710 O   0  0  0  0  0  0  0  0  0  0  0  0
   -4.2660   15.6880   -1.8450 C   0  0  0  0  0  0  0  0  0  0  0  0
   -5.1000   15.8890   -0.5950 C   0  0  1  0  0  0  0  0  0  0  0  0
   -6.3210   14.9380   -0.5890 C   0  0  0  0  0  0  0  0  0  0  0  0
   -4.2410   15.7530    0.6100 N   0  0  0  0  0  0  0  0  0  0  0  0
   -5.9410   13.5880   -0.1320 N   0  0  0  0  0  0  0  0  0  0  0  0
   -4.3750   14.6130    1.3810 C   0  0  0  0  0  0  0  0  0  0  0  0
   -5.1750   13.5900    1.0420 C   0  0  0  0  0  0  0  0  0  0  0  0
   -5.5580   12.7310   -1.2260 C   0  0  0  0  0  0  0  0  0  0  0  0
   -5.4970   11.4300   -0.7260 O   0  0  0  0  0  0  0  0  0  0  0  0
   -6.5420   12.7370   -2.2370 O   0  0  0  0  0  0  0  0  0  0  0  0
   -4.2360   13.2290   -1.7940 C   0  0  0  0  0  0  0  0  0  0  0  0
   -3.0870   13.2650   -0.9870 C   0  0  0  0  0  0  0  0  0  0  0  0
   -4.1330   13.6760   -3.1400 C   0  0  0  0  0  0  0  0  0  0  0  0
   -1.9130   13.7360   -1.5340 C   0  0  0  0  0  0  0  0  0  0  0  0
   -2.9200   14.1540   -3.6640 C   0  0  0  0  0  0  0  0  0  0  0  0
   -1.8050   14.1810   -2.8430 C   0  0  0  0  0  0  0  0  0  0  0  0
   -0.7210   13.8190   -0.8530 O   0  0  0  0  0  0  0  0  0  0  0  0
   -0.5180   14.5990   -3.1070 N   0  0  0  0  0  0  0  0  0  0  0  0
    0.1410   14.5000   -1.8050 C   0  0  0  0  0  0  0  0  0  0  0  0
    0.1850   14.4200   -4.3560 C   0  0  0  0  0  0  0  0  0  0  0  0
   -0.0300   13.0710   -5.0070 C   0  0  0  0  0  0  0  0  0  0  0  0
   -1.0450   12.1960   -4.5750 C   0  0  0  0  0  0  0  0  0  0  0  0
    0.7870   12.6680   -6.0630 C   0  0  0  0  0  0  0  0  0  0  0  0
   -1.2290   10.9570   -5.1920 C   0  0  0  0  0  0  0  0  0  0  0  0
    0.6050   11.4340   -6.6820 C   0  0  0  0  0  0  0  0  0  0  0  0
   -0.4030   10.5790   -6.2460 C   0  0  0  0  0  0  0  0  0  0  0  0
  1  2  2  0
  3  2  1  6
  3  4  1  0
  3  5  1  0
  4  6  1  0
  5  7  1  0
  6  8  1  0
  7  8  2  0
  6  9  1  0
  9 10  1  0
  9 11  1  0
  9 12  1  0
 12 13  2  0
 12 14  1  0
 13 15  1  0
 14 16  2  0
 15 17  2  0
 16 17  1  0
 15 18  1  0
 17 19  1  0
 18 20  1  0
 19 20  1  0
 19 21  1  0
 21 22  1  0
 22 23  2  0
 22 24  1  0
 23 25  1  0
 24 26  2  0
 25 27  2  0
 26 27  1  0
M  END
