mac-x0284-diamond-x0587_0_A
     RDKit          3D

 23 24  0  0  0  0  0  0  0  0999 V2000
   -3.9510   15.1360   -0.2610 C   0  0  0  0  0  0  0  0  0  0  0  0
   -5.1870   14.5420   -0.8900 C   0  0  0  0  0  0  0  0  0  0  0  0
   -4.9070   13.3010   -1.3920 F   0  0  0  0  0  0  0  0  0  0  0  0
   -3.1060   15.0570   -1.4130 C   0  0  0  0  0  0  0  0  0  0  0  0
   -5.4980   15.2950   -1.9960 F   0  0  0  0  0  0  0  0  0  0  0  0
   -1.7710   14.7440   -1.3570 C   0  0  0  0  0  0  0  0  0  0  0  0
   -3.7550   15.3070   -2.6120 C   0  0  0  0  0  0  0  0  0  0  0  0
   -6.2030   14.6100    0.1390 C   0  0  0  0  0  0  0  0  0  0  0  0
   -1.0820   14.6800   -2.5520 C   0  0  0  0  0  0  0  0  0  0  0  0
   -3.0790   15.2420   -3.7940 C   0  0  0  0  0  0  0  0  0  0  0  0
   -7.4880   14.4760   -0.2140 N   0  0  0  0  0  0  0  0  0  0  0  0
   -5.7180   14.8200    1.3650 N   0  0  0  0  0  0  0  0  0  0  0  0
    0.3320   14.3440   -2.4580 C   0  0  0  0  0  0  0  0  0  0  0  0
   -1.7370   14.9250   -3.7650 C   0  0  0  0  0  0  0  0  0  0  0  0
   -8.3490   14.5830    0.8030 C   0  0  0  0  0  0  0  0  0  0  0  0
   -6.6250   14.9150    2.3250 C   0  0  0  0  0  0  0  0  0  0  0  0
   -1.0740   14.8570   -4.9490 O   0  0  0  0  0  0  0  0  0  0  0  0
    1.0270   14.4860   -1.4750 O   0  0  0  0  0  0  0  0  0  0  0  0
    0.7980   13.8480   -3.6080 O   0  0  0  0  0  0  0  0  0  0  0  0
   -7.9560   14.8090    2.0990 C   0  0  0  0  0  0  0  0  0  0  0  0
   -8.9250   14.9340    3.1610 C   0  0  0  0  0  0  0  0  0  0  0  0
   -8.4670   14.9520    4.4470 N   0  0  0  0  0  0  0  0  0  0  0  0
  -10.1100   15.0360    2.9050 O   0  0  0  0  0  0  0  0  0  0  0  0
  1  2  1  0
  2  3  1  0
  1  4  1  0
  2  5  1  0
  4  6  2  0
  4  7  1  0
  2  8  1  0
  6  9  1  0
  7 10  2  0
  8 11  2  0
  8 12  1  0
  9 13  1  0
  9 14  2  0
 10 14  1  0
 11 15  1  0
 12 16  2  0
 14 17  1  0
 13 18  2  0
 13 19  1  0
 15 20  2  0
 16 20  1  0
 20 21  1  0
 21 22  1  0
 21 23  2  0
M  END
