mac-x0271-mac-x0584
     RDKit          3D

 26 30  0  0  0  0  0  0  0  0999 V2000
   -3.8420   15.3350   -3.1110 O   0  0  0  0  0  0  0  0  0  0  0  0
   -4.3220   15.4230   -1.7820 C   0  0  2  0  0  0  0  0  0  0  0  0
   -3.3080   14.8740   -0.6970 C   0  0  2  0  0  0  0  0  0  0  0  0
   -5.7360   14.8400   -1.8590 C   0  0  0  0  0  0  0  0  0  0  0  0
   -6.3610   14.8550   -0.5380 C   0  0  0  0  0  0  0  0  0  0  0  0
   -4.1770   14.0910    0.3770 C   0  0  0  0  0  0  0  0  0  0  0  0
   -2.6560   15.9470    0.1590 C   0  0  0  0  0  0  0  0  0  0  0  0
   -1.9960   14.1860   -1.3280 C   0  0  1  0  0  0  0  0  0  0  0  0
   -5.6390   14.5250    0.5130 C   0  0  0  0  0  0  0  0  0  0  0  0
   -7.7250   15.2290   -0.4620 O   0  0  0  0  0  0  0  0  0  0  0  0
   -1.3990   14.8420   -2.5400 N   0  0  0  0  0  0  0  0  0  0  0  0
   -0.8600   13.9200   -0.4360 N   0  0  0  0  0  0  0  0  0  0  0  0
   -1.7440   15.4070    1.1600 N   0  0  0  0  0  0  0  0  0  0  0  0
   -6.2910   14.5800    1.7890 C   0  0  0  0  0  0  0  0  0  0  0  0
   -8.4360   14.9480    0.6720 C   0  0  0  0  0  0  0  0  0  0  0  0
   -0.7240   14.0310   -3.5820 C   0  0  2  0  0  0  0  0  0  0  0  0
   -2.3890   15.5540   -3.3760 C   0  0  0  0  0  0  0  0  0  0  0  0
   -0.5470   14.8180    0.6430 C   0  0  0  0  0  0  0  0  0  0  0  0
   -9.6590   14.8520    0.7020 O   0  0  0  0  0  0  0  0  0  0  0  0
   -7.6200   14.7710    1.8860 C   0  0  0  0  0  0  0  0  0  0  0  0
    0.4850   13.2070   -3.1560 C   0  0  0  0  0  0  0  0  0  0  0  0
   -0.3820   15.1140   -4.6050 C   0  0  0  0  0  0  0  0  0  0  0  0
   -1.6700   15.9040   -4.6720 C   0  0  0  0  0  0  0  0  0  0  0  0
    1.3600   12.5760   -4.2920 C   0  0  0  0  0  0  0  0  0  0  0  0
    0.1400   11.7190   -2.8540 C   0  0  0  0  0  0  0  0  0  0  0  0
    0.2190   11.5440   -4.3690 C   0  0  0  0  0  0  0  0  0  0  0  0
  2  1  1  6
  2  3  1  0
  2  4  1  0
  4  5  1  0
  3  6  1  1
  3  7  1  0
  3  8  1  0
  5  9  2  0
  6  9  1  0
  5 10  1  0
  8 11  1  6
  8 12  1  0
  7 13  1  0
  9 14  1  0
 10 15  1  0
 11 16  1  0
 11 17  1  0
 12 18  1  0
 13 18  1  0
 15 19  2  0
 14 20  2  0
 15 20  1  0
 16 21  1  1
 16 22  1  0
 17 23  1  0
 22 23  1  0
 21 24  1  0
 21 25  1  0
 24 26  1  0
 25 26  1  0
M  END
