mac-x0213-mac-x0306
     RDKit          3D

 25 28  0  0  0  0  0  0  0  0999 V2000
   -0.1080   11.6000   -2.8310 O   0  0  0  0  0  0  0  0  0  0  0  0
    0.1370   12.9840   -2.5940 C   0  0  0  0  0  0  0  0  0  0  0  0
    1.4140   13.0350   -2.0090 O   0  0  0  0  0  0  0  0  0  0  0  0
   -0.8890   13.4690   -1.5460 C   0  0  0  0  0  0  0  0  0  0  0  0
    0.0760   13.7470   -3.9400 C   0  0  0  0  0  0  0  0  0  0  0  0
   -2.3620   13.4700   -1.9650 C   0  0  0  0  0  0  0  0  0  0  0  0
   -1.3460   14.1930   -4.3510 C   0  0  0  0  0  0  0  0  0  0  0  0
    0.9890   15.0170   -3.9810 C   0  0  0  0  0  0  0  0  0  0  0  0
   -1.1950   15.6120   -4.7680 C   0  0  0  0  0  0  0  0  0  0  0  0
    0.1060   16.0750   -4.5690 C   0  0  0  0  0  0  0  0  0  0  0  0
   -2.9810   14.7560   -1.5740 N   0  0  0  0  0  0  0  0  0  0  0  0
   -2.1810   16.4280   -5.2980 C   0  0  0  0  0  0  0  0  0  0  0  0
    0.4440   17.3760   -4.9060 C   0  0  0  0  0  0  0  0  0  0  0  0
   -4.1130   15.2210   -2.2510 C   0  0  0  0  0  0  0  0  0  0  0  0
   -3.0080   15.0200   -0.2090 C   0  0  0  0  0  0  0  0  0  0  0  0
   -1.8450   17.7350   -5.6410 C   0  0  0  0  0  0  0  0  0  0  0  0
   -0.5410   18.2030   -5.4460 C   0  0  0  0  0  0  0  0  0  0  0  0
   -5.3240   15.1320   -1.6770 C   0  0  0  0  0  0  0  0  0  0  0  0
   -4.1460   14.9180    0.4740 C   0  0  0  0  0  0  0  0  0  0  0  0
   -5.3790   14.5000   -0.2920 C   0  0  0  0  0  0  0  0  0  0  0  0
   -6.6710   14.6250    0.4670 C   0  0  0  0  0  0  0  0  0  0  0  0
   -6.7140   14.5520    1.8470 N   0  0  0  0  0  0  0  0  0  0  0  0
   -7.8780   14.8010   -0.0260 N   0  0  0  0  0  0  0  0  0  0  0  0
   -8.7170   14.8430    1.0560 C   0  0  0  0  0  0  0  0  0  0  0  0
   -8.0180   14.6920    2.2250 C   0  0  0  0  0  0  0  0  0  0  0  0
  2  1  1  0
  2  3  1  0
  2  4  1  0
  2  5  1  0
  4  6  1  0
  5  7  1  0
  5  8  1  0
  7  9  1  0
  8 10  1  0
  9 10  2  0
  6 11  1  0
  9 12  1  0
 10 13  1  0
 11 14  1  0
 11 15  1  0
 12 16  2  0
 13 17  2  0
 16 17  1  0
 14 18  2  0
 15 19  2  0
 18 20  1  0
 19 20  1  0
 20 21  1  0
 21 22  1  0
 21 23  2  0
 23 24  1  0
 22 25  1  0
 24 25  2  0
M  END
