mac-x0301-mac-x0590
     RDKit          3D

 19 21  0  0  0  0  0  0  0  0999 V2000
    0.3150   14.8640   -2.9710 O   0  0  0  0  0  0  0  0  0  0  0  0
   -0.9310   14.3720   -3.1040 C   0  0  0  0  0  0  0  0  0  0  0  0
   -1.3120   13.7150   -4.1370 N   0  0  0  0  0  0  0  0  0  0  0  0
   -1.7770   14.6890   -1.9200 C   0  0  0  0  0  0  0  0  0  0  0  0
   -0.4210   13.4470   -5.2570 C   0  0  0  0  0  0  0  0  0  0  0  0
   -1.2840   14.5610   -0.6220 C   0  0  0  0  0  0  0  0  0  0  0  0
   -3.1080   15.1360   -2.0500 C   0  0  0  0  0  0  0  0  0  0  0  0
   -2.0650   14.8630    0.4930 C   0  0  0  0  0  0  0  0  0  0  0  0
   -3.8940   15.4360   -0.9130 C   0  0  0  0  0  0  0  0  0  0  0  0
   -0.0420   14.1480   -0.2550 O   0  0  0  0  0  0  0  0  0  0  0  0
    0.4640   12.2190   -5.0210 C   0  0  2  0  0  0  0  0  0  0  0  0
   -3.3800   15.3020    0.3860 C   0  0  0  0  0  0  0  0  0  0  0  0
   -1.3830   14.6790    1.6710 O   0  0  0  0  0  0  0  0  0  0  0  0
   -0.0740   14.3910    1.1610 C   0  0  0  0  0  0  0  0  0  0  0  0
    0.7480   11.8420   -3.5670 C   0  0  0  0  0  0  0  0  0  0  0  0
    1.8420   12.3440   -5.6500 C   0  0  0  0  0  0  0  0  0  0  0  0
   -4.1770   15.6070    1.5090 N   0  0  0  0  0  0  0  0  0  0  0  0
    2.7510   12.6360   -4.4800 C   0  0  0  0  0  0  0  0  0  0  0  0
    2.1420   12.0950   -3.3060 O   0  0  0  0  0  0  0  0  0  0  0  0
  1  2  1  0
  2  3  2  3
  2  4  1  0
  3  5  1  0
  4  6  1  0
  4  7  2  0
  6  8  2  0
  7  9  1  0
  6 10  1  0
 11  5  1  1
  8 12  1  0
  9 12  2  0
  8 13  1  0
 10 14  1  0
 13 14  1  0
 11 15  1  0
 11 16  1  0
 12 17  1  0
 16 18  1  0
 15 19  1  0
 18 19  1  0
M  END
