mac-x0301-mac-x0328
     RDKit          3D

 20 22  0  0  0  0  0  0  0  0999 V2000
   -0.7370   15.7020   -3.3500 O   0  0  0  0  0  0  0  0  0  0  0  0
   -1.5640   14.5810   -3.1520 S   0  0  0  0  0  0  0  0  0  0  0  0
   -1.6460   14.1130   -4.3870 O   0  0  0  0  0  0  0  0  0  0  0  0
   -0.8810   13.0420   -2.7040 O   0  0  0  0  0  0  0  0  0  0  0  0
   -1.9510   14.8550   -1.5420 C   0  0  0  0  0  0  0  0  0  0  0  0
   -3.3220   14.5900   -2.6920 C   0  0  0  0  0  0  0  0  0  0  0  0
   -1.3810   14.6220   -0.3410 C   0  0  0  0  0  0  0  0  0  0  0  0
   -3.2220   15.4580   -1.4420 C   0  0  0  0  0  0  0  0  0  0  0  0
   -3.6060   14.2650   -1.3890 C   0  0  0  0  0  0  0  0  0  0  0  0
   -4.3970   14.9200   -3.4980 C   0  0  0  0  0  0  0  0  0  0  0  0
   -2.0080   14.9520    0.8250 C   0  0  0  0  0  0  0  0  0  0  0  0
   -3.8690   15.7950   -0.3040 C   0  0  0  0  0  0  0  0  0  0  0  0
   -0.1630   14.0430    0.0330 O   0  0  0  0  0  0  0  0  0  0  0  0
   -4.8520   14.2520   -0.8020 C   0  0  0  0  0  0  0  0  0  0  0  0
   -5.6760   14.9210   -2.9340 C   0  0  0  0  0  0  0  0  0  0  0  0
   -3.2390   15.5300    0.8430 C   0  0  0  0  0  0  0  0  0  0  0  0
   -1.2360   14.6190    1.9230 O   0  0  0  0  0  0  0  0  0  0  0  0
    0.0330   14.2850    1.4130 C   0  0  0  0  0  0  0  0  0  0  0  0
   -5.9030   14.6040   -1.6150 C   0  0  0  0  0  0  0  0  0  0  0  0
   -7.1680   14.6150   -1.0260 O   0  0  0  0  0  0  0  0  0  0  0  0
  1  2  1  0
  2  3  2  0
  2  4  1  0
  2  5  1  0
  2  6  1  0
  5  7  1  0
  5  8  2  0
  6  9  2  0
  6 10  1  0
  7 11  2  0
  8 12  1  0
  7 13  1  0
  9 14  1  0
 10 15  2  0
 11 16  1  0
 12 16  2  0
 11 17  1  0
 13 18  1  0
 17 18  1  0
 14 19  2  0
 15 19  1  0
 19 20  1  0
M  END
