mac-x0180-diamond-x0962_0_A
     RDKit          3D

 19 20  0  0  0  0  0  0  0  0999 V2000
   -6.9460   14.3000    1.5450 C   0  0  0  0  0  0  0  0  0  0  0  0
   -7.3720   14.3350    0.0970 C   0  0  0  0  0  0  0  0  0  0  0  0
   -8.3420   14.9940   -0.2450 O   0  0  0  0  0  0  0  0  0  0  0  0
   -6.5620   13.5690   -0.7240 N   0  0  0  0  0  0  0  0  0  0  0  0
   -5.2570   13.8970   -1.1260 C   0  0  0  0  0  0  0  0  0  0  0  0
   -4.1180   13.3580   -0.5350 C   0  0  0  0  0  0  0  0  0  0  0  0
   -5.1080   14.8180   -2.1710 C   0  0  0  0  0  0  0  0  0  0  0  0
   -2.8510   13.7450   -0.9750 C   0  0  0  0  0  0  0  0  0  0  0  0
   -3.8370   15.2070   -2.6120 C   0  0  0  0  0  0  0  0  0  0  0  0
   -2.6880   14.6780   -2.0090 C   0  0  0  0  0  0  0  0  0  0  0  0
   -1.3000   15.1100   -2.4250 C   0  0  0  0  0  0  0  0  0  0  0  0
   -1.3650   16.0840   -3.4680 O   0  0  0  0  0  0  0  0  0  0  0  0
   -0.4810   14.0420   -2.8790 O   0  0  0  0  0  0  0  0  0  0  0  0
   -0.8350   15.6930   -1.0760 C   0  0  0  0  0  0  0  0  0  0  0  0
   -1.9790   15.5830   -0.0990 C   0  0  0  0  0  0  0  0  0  0  0  0
   -1.8260   15.0600    1.1490 N   0  0  0  0  0  0  0  0  0  0  0  0
   -3.3190   15.9140   -0.1710 C   0  0  0  0  0  0  0  0  0  0  0  0
   -3.0410   15.1010    1.7530 C   0  0  0  0  0  0  0  0  0  0  0  0
   -3.9650   15.6130    0.9890 N   0  0  0  0  0  0  0  0  0  0  0  0
  1  2  1  0
  2  3  2  0
  2  4  1  0
  4  5  1  0
  5  6  2  0
  5  7  1  0
  6  8  1  0
  7  9  2  0
  8 10  2  0
  9 10  1  0
 10 11  1  0
 11 12  1  0
 11 13  1  0
 11 14  1  0
 14 15  1  0
 15 16  1  0
 15 17  2  0
 16 18  1  0
 17 19  1  0
 18 19  2  0
M  END
