mac-x0509-mac-x0394
     RDKit          3D

 24 26  0  0  0  0  0  0  0  0999 V2000
   -2.3060    8.0000   -5.7910 O   0  0  0  0  0  0  0  0  0  0  0  0
   -1.5470    8.7030   -6.4420 C   0  0  0  0  0  0  0  0  0  0  0  0
   -1.8990    9.7130   -7.5290 C   0  0  0  0  0  0  0  0  0  0  0  0
   -0.1620    8.7760   -6.3740 N   0  0  0  0  0  0  0  0  0  0  0  0
    0.4540    9.5900   -5.3160 C   0  0  0  0  0  0  0  0  0  0  0  0
   -0.7370    9.4800   -8.4440 C   0  0  0  0  0  0  0  0  0  0  0  0
    0.2890    8.8850   -7.7100 C   0  0  0  0  0  0  0  0  0  0  0  0
   -0.3860   10.6790   -4.6240 C   0  0  0  0  0  0  0  0  0  0  0  0
   -0.5930    9.7570   -9.7940 C   0  0  0  0  0  0  0  0  0  0  0  0
    1.4840    8.5290   -8.3130 C   0  0  0  0  0  0  0  0  0  0  0  0
    0.2450   11.0340   -3.3530 O   0  0  0  0  0  0  0  0  0  0  0  0
    0.6110    9.4150  -10.4060 C   0  0  0  0  0  0  0  0  0  0  0  0
    1.6390    8.8010   -9.6760 C   0  0  0  0  0  0  0  0  0  0  0  0
    0.7020   12.3190   -3.1050 C   0  0  0  0  0  0  0  0  0  0  0  0
    0.7420   12.8180   -1.9860 O   0  0  0  0  0  0  0  0  0  0  0  0
    1.1570   13.0370   -4.3690 C   0  0  0  0  0  0  0  0  0  0  0  0
    0.3880   14.3180   -4.6280 C   0  0  0  0  0  0  0  0  0  0  0  0
   -0.9960   14.2650   -4.8360 C   0  0  0  0  0  0  0  0  0  0  0  0
    1.0190   15.5690   -4.6660 C   0  0  0  0  0  0  0  0  0  0  0  0
   -1.7270   15.4270   -5.0750 C   0  0  0  0  0  0  0  0  0  0  0  0
    0.2620   16.7200   -4.9100 C   0  0  0  0  0  0  0  0  0  0  0  0
    0.9980   18.2530   -4.9710 Cl  0  0  0  0  0  0  0  0  0  0  0  0
   -3.4230   15.3340   -5.3300 Cl  0  0  0  0  0  0  0  0  0  0  0  0
   -1.1040   16.6580   -5.1120 C   0  0  0  0  0  0  0  0  0  0  0  0
  1  2  2  0
  2  3  1  0
  2  4  1  0
  4  5  1  0
  3  6  1  0
  4  7  1  0
  6  7  2  0
  5  8  1  0
  6  9  1  0
  7 10  1  0
  8 11  1  0
  9 12  2  0
 10 13  2  0
 12 13  1  0
 11 14  1  0
 14 15  2  0
 14 16  1  0
 16 17  1  0
 17 18  2  0
 17 19  1  0
 18 20  1  0
 19 21  2  0
 21 22  1  0
 20 23  1  0
 20 24  2  0
 21 24  1  0
M  END
