mac-x0381-diamond-x1018_0_A
     RDKit          3D

 24 27  0  0  0  0  0  0  0  0999 V2000
   -8.3370   13.5080    4.8150 N   0  0  0  0  0  0  0  0  0  0  0  0
   -8.3130   14.4370    3.7320 C   0  0  0  0  0  0  0  0  0  0  0  0
   -7.3800   15.4200    4.2040 N   0  0  0  0  0  0  0  0  0  0  0  0
   -7.7960   13.6500    2.5040 C   0  0  0  0  0  0  0  0  0  0  0  0
   -9.6420   15.0750    3.3500 C   0  0  0  0  0  0  0  0  0  0  0  0
   -7.8360   14.3550    1.1410 C   0  0  0  0  0  0  0  0  0  0  0  0
   -9.7880   15.7620    2.1340 C   0  0  0  0  0  0  0  0  0  0  0  0
  -10.7610   14.9870    4.1890 C   0  0  0  0  0  0  0  0  0  0  0  0
  -11.0010   16.3320    1.7420 C   0  0  0  0  0  0  0  0  0  0  0  0
  -11.9830   15.5550    3.8180 C   0  0  0  0  0  0  0  0  0  0  0  0
   -6.4590   14.5500    0.5600 C   0  0  0  0  0  0  0  0  0  0  0  0
  -12.1150   16.2240    2.5940 C   0  0  0  0  0  0  0  0  0  0  0  0
  -11.1200   16.9990    0.5150 C   0  0  0  0  0  0  0  0  0  0  0  0
   -6.3150   14.6220   -0.7260 N   0  0  0  0  0  0  0  0  0  0  0  0
   -5.3540   14.6350    1.5660 C   0  0  0  0  0  0  0  0  0  0  0  0
  -13.3360   16.7870    2.1960 C   0  0  0  0  0  0  0  0  0  0  0  0
  -12.3420   17.5480    0.1290 C   0  0  0  0  0  0  0  0  0  0  0  0
   -5.0190   14.7590   -1.0790 N   0  0  0  0  0  0  0  0  0  0  0  0
   -4.1090   14.7730    1.1230 C   0  0  0  0  0  0  0  0  0  0  0  0
  -13.4490   17.4390    0.9730 C   0  0  0  0  0  0  0  0  0  0  0  0
   -4.6260   14.8390   -2.3570 N   0  0  0  0  0  0  0  0  0  0  0  0
   -3.9070   14.8340   -0.2630 C   0  0  0  0  0  0  0  0  0  0  0  0
   -2.8440   14.9520   -1.0150 N   0  0  0  0  0  0  0  0  0  0  0  0
   -3.3060   14.9550   -2.3100 N   0  0  0  0  0  0  0  0  0  0  0  0
  2  1  1  0
  2  3  1  0
  2  4  1  0
  2  5  1  0
  4  6  1  0
  5  7  2  0
  5  8  1  0
  7  9  1  0
  8 10  2  0
  6 11  1  0
  9 12  2  0
 10 12  1  0
  9 13  1  0
 11 14  2  0
 11 15  1  0
 12 16  1  0
 13 17  2  0
 14 18  1  0
 15 19  2  0
 16 20  2  0
 17 20  1  0
 18 21  1  0
 18 22  1  0
 19 22  1  0
 22 23  2  0
 21 24  2  0
 23 24  1  0
M  END
