mac-x0404-diamond-x0926_0_A
     RDKit          3D

 24 26  0  0  0  0  0  0  0  0999 V2000
    1.2310   13.0920   -2.1710 O   0  0  0  0  0  0  0  0  0  0  0  0
    1.2090   12.2320   -3.2140 C   0  0  0  0  0  0  0  0  0  0  0  0
    0.5980   11.1740   -3.1420 O   0  0  0  0  0  0  0  0  0  0  0  0
    2.0030   12.6800   -4.4530 C   0  0  0  0  0  0  0  0  0  0  0  0
    1.6680   14.0040   -4.8690 O   0  0  0  0  0  0  0  0  0  0  0  0
    0.3550   14.3430   -4.7970 C   0  0  0  0  0  0  0  0  0  0  0  0
    0.0250   15.7030   -5.0070 C   0  0  0  0  0  0  0  0  0  0  0  0
   -0.6220   13.4060   -4.5260 C   0  0  0  0  0  0  0  0  0  0  0  0
   -1.3060   16.1260   -4.9230 C   0  0  0  0  0  0  0  0  0  0  0  0
   -1.9170   13.8040   -4.4330 C   0  0  0  0  0  0  0  0  0  0  0  0
    1.0070   16.6460   -5.2960 C   0  0  0  0  0  0  0  0  0  0  0  0
   -2.2640   15.1290   -4.6100 C   0  0  0  0  0  0  0  0  0  0  0  0
   -1.5860   17.4980   -5.1470 C   0  0  0  0  0  0  0  0  0  0  0  0
    0.7290   17.9910   -5.5090 C   0  0  0  0  0  0  0  0  0  0  0  0
   -3.6920   15.3670   -4.4130 C   0  0  0  0  0  0  0  0  0  0  0  0
   -0.5810   18.4210   -5.4370 C   0  0  0  0  0  0  0  0  0  0  0  0
   -4.1960   14.5390   -3.2080 C   0  0  0  0  0  0  0  0  0  0  0  0
   -4.0450   15.2340   -1.9100 N   0  0  0  0  0  0  0  0  0  0  0  0
   -3.0450   15.0270   -0.9730 C   0  0  0  0  0  0  0  0  0  0  0  0
   -5.2820   15.6620   -1.4390 N   0  0  0  0  0  0  0  0  0  0  0  0
   -3.2660   14.9950    0.3540 C   0  0  0  0  0  0  0  0  0  0  0  0
   -5.6960   15.2400   -0.2220 C   0  0  0  0  0  0  0  0  0  0  0  0
   -6.8710   14.9160   -0.0520 O   0  0  0  0  0  0  0  0  0  0  0  0
   -4.6490   15.1790    0.8830 C   0  0  0  0  0  0  0  0  0  0  0  0
  1  2  1  0
  2  3  2  0
  2  4  1  0
  4  5  1  0
  5  6  1  0
  6  7  2  0
  6  8  1  0
  7  9  1  0
  8 10  2  0
  7 11  1  0
  9 12  2  0
 10 12  1  0
  9 13  1  0
 11 14  2  0
 12 15  1  0
 13 16  2  0
 14 16  1  0
 15 17  1  0
 17 18  1  0
 18 19  1  0
 18 20  1  0
 19 21  2  0
 20 22  1  0
 22 23  2  0
 21 24  1  0
 22 24  1  0
M  END
