mac-x0358-mac-x0437
     RDKit          3D

 21 23  0  0  0  0  0  0  0  0999 V2000
    0.9750   13.4620   -1.9580 O   0  0  0  0  0  0  0  0  0  0  0  0
    0.5870   12.7220   -3.0130 C   0  0  0  0  0  0  0  0  0  0  0  0
    0.3670   11.5260   -2.8640 O   0  0  0  0  0  0  0  0  0  0  0  0
    0.4610   13.4360   -4.3630 C   0  0  1  0  0  0  0  0  0  0  0  0
    0.9650   12.5010   -5.4420 C   0  0  0  0  0  0  0  0  0  0  0  0
   -0.8710   14.0520   -4.7740 C   0  0  0  0  0  0  0  0  0  0  0  0
   -1.9990   13.3280   -5.2060 C   0  0  0  0  0  0  0  0  0  0  0  0
   -0.9910   15.4520   -4.7340 C   0  0  0  0  0  0  0  0  0  0  0  0
    0.0720   11.3700   -5.6250 N   0  0  0  0  0  0  0  0  0  0  0  0
   -1.9570   11.9690   -5.2720 O   0  0  0  0  0  0  0  0  0  0  0  0
   -3.1820   13.9530   -5.5810 C   0  0  0  0  0  0  0  0  0  0  0  0
   -2.1800   16.0850   -5.1090 C   0  0  0  0  0  0  0  0  0  0  0  0
   -0.8730   10.9240   -4.7290 C   0  0  0  0  0  0  0  0  0  0  0  0
    0.0270   10.5650   -6.7150 C   0  0  0  0  0  0  0  0  0  0  0  0
   -3.2730   15.3340   -5.5330 C   0  0  0  0  0  0  0  0  0  0  0  0
   -1.5190    9.8720   -5.1870 N   0  0  0  0  0  0  0  0  0  0  0  0
   -0.9700    9.6370   -6.4160 C   0  0  0  0  0  0  0  0  0  0  0  0
    0.7440   10.5530   -7.9040 C   0  0  0  0  0  0  0  0  0  0  0  0
   -1.2690    8.6390   -7.3490 C   0  0  0  0  0  0  0  0  0  0  0  0
    0.4350    9.5500   -8.8190 C   0  0  0  0  0  0  0  0  0  0  0  0
   -0.5550    8.6070   -8.5500 C   0  0  0  0  0  0  0  0  0  0  0  0
  1  2  1  0
  2  3  2  0
  2  4  1  0
  4  5  1  6
  4  6  1  0
  6  7  2  0
  6  8  1  0
  5  9  1  0
  7 10  1  0
  7 11  1  0
  8 12  2  0
  9 13  1  0
  9 14  1  0
 11 15  2  0
 12 15  1  0
 13 16  2  0
 14 17  2  0
 16 17  1  0
 14 18  1  0
 17 19  1  0
 18 20  2  0
 19 21  2  0
 20 21  1  0
M  END
