mac-x0231-mac-x0338
     RDKit          3D

 25 27  0  0  0  0  0  0  0  0999 V2000
    0.8960   10.7080   -3.1910 O   0  0  0  0  0  0  0  0  0  0  0  0
    1.4430   11.9350   -3.1490 C   0  0  0  0  0  0  0  0  0  0  0  0
    1.5560   12.5310   -2.0930 O   0  0  0  0  0  0  0  0  0  0  0  0
    1.8680   12.4970   -4.4790 C   0  0  0  0  0  0  0  0  0  0  0  0
    1.3450   13.9020   -4.5400 C   0  0  0  0  0  0  0  0  0  0  0  0
   -0.0950   14.1000   -4.6160 C   0  0  0  0  0  0  0  0  0  0  0  0
    2.1820   14.8730   -4.4340 N   0  0  0  0  0  0  0  0  0  0  0  0
   -0.5620   15.4060   -4.6150 C   0  0  0  0  0  0  0  0  0  0  0  0
    1.7010   16.1420   -4.4300 N   0  0  0  0  0  0  0  0  0  0  0  0
   -0.9730   13.0220   -4.6580 C   0  0  0  0  0  0  0  0  0  0  0  0
    0.3980   16.5120   -4.5910 C   0  0  0  0  0  0  0  0  0  0  0  0
   -1.9280   15.6460   -4.6160 C   0  0  0  0  0  0  0  0  0  0  0  0
   -2.3310   13.2540   -4.6600 C   0  0  0  0  0  0  0  0  0  0  0  0
    0.0510   17.6840   -4.7070 O   0  0  0  0  0  0  0  0  0  0  0  0
   -2.7990   14.5580   -4.6190 C   0  0  0  0  0  0  0  0  0  0  0  0
   -4.2460   14.7890   -4.5370 C   0  0  0  0  0  0  0  0  0  0  0  0
   -4.5000   14.9000   -3.0310 C   0  0  0  0  0  0  0  0  0  0  0  0
   -3.4190   14.8660   -2.1230 C   0  0  0  0  0  0  0  0  0  0  0  0
   -5.7640   15.0180   -2.5710 N   0  0  0  0  0  0  0  0  0  0  0  0
   -3.5540   14.9340   -0.7690 N   0  0  0  0  0  0  0  0  0  0  0  0
   -5.9120   15.0880   -1.2210 C   0  0  0  0  0  0  0  0  0  0  0  0
   -4.8400   15.0410   -0.3450 C   0  0  0  0  0  0  0  0  0  0  0  0
   -5.0970   15.1030    1.1180 C   0  0  0  0  0  0  0  0  0  0  0  0
   -4.0210   15.3550    1.9180 N   0  0  0  0  0  0  0  0  0  0  0  0
   -6.2190   14.9280    1.5740 O   0  0  0  0  0  0  0  0  0  0  0  0
  1  2  1  0
  2  3  2  0
  2  4  1  0
  4  5  1  0
  5  6  1  0
  5  7  2  0
  6  8  2  0
  7  9  1  0
  6 10  1  0
  8 11  1  0
  9 11  1  0
  8 12  1  0
 10 13  2  0
 11 14  2  0
 12 15  2  0
 13 15  1  0
 15 16  1  0
 16 17  1  0
 17 18  2  0
 17 19  1  0
 18 20  1  0
 19 21  2  0
 20 22  2  0
 21 22  1  0
 22 23  1  0
 23 24  1  0
 23 25  2  0
M  END
