mac-x0163-diamond-x0950_1_A
     RDKit          3D

 23 25  0  0  0  0  0  0  0  0999 V2000
   -4.0090   15.3810   -1.4050 Cl  0  0  0  0  0  0  0  0  0  0  0  0
   -2.5940   15.0390   -0.4740 C   0  0  0  0  0  0  0  0  0  0  0  0
   -2.6680   15.0600    0.9180 C   0  0  0  0  0  0  0  0  0  0  0  0
   -1.3560   14.7350   -1.0420 C   0  0  0  0  0  0  0  0  0  0  0  0
   -3.8620   15.3640    1.5870 N   0  0  0  0  0  0  0  0  0  0  0  0
   -0.2870   14.4790   -0.2570 N   0  0  0  0  0  0  0  0  0  0  0  0
   -1.6180   14.7940    1.7050 N   0  0  0  0  0  0  0  0  0  0  0  0
   -1.0990   14.6580   -2.4150 N   0  0  0  0  0  0  0  0  0  0  0  0
   -0.4730   14.5220    1.0720 C   0  0  0  0  0  0  0  0  0  0  0  0
   -1.6570   13.4360   -3.0230 C   0  0  0  0  0  0  0  0  0  0  0  0
   -1.2050   15.9330   -3.1510 C   0  0  0  0  0  0  0  0  0  0  0  0
   -1.5710   13.4960   -4.5620 C   0  0  0  0  0  0  0  0  0  0  0  0
   -0.8060   15.7920   -4.6340 C   0  0  0  0  0  0  0  0  0  0  0  0
   -1.7270   12.1130   -5.2880 C   0  0  0  0  0  0  0  0  0  0  0  0
   -2.9350   13.8810   -5.2290 C   0  0  0  0  0  0  0  0  0  0  0  0
   -0.3840   14.3700   -5.0240 C   0  0  1  0  0  0  0  0  0  0  0  0
    1.0090   13.9610   -4.4840 C   0  0  0  0  0  0  0  0  0  0  0  0
   -2.7040   12.7780   -6.2770 C   0  0  0  0  0  0  0  0  0  0  0  0
    1.3600   12.4830   -4.4270 C   0  0  2  0  0  0  0  0  0  0  0  0
    0.7940   11.7760   -5.5260 O   0  0  0  0  0  0  0  0  0  0  0  0
    1.0070   11.8830   -3.0690 C   0  0  0  0  0  0  0  0  0  0  0  0
    0.3400   10.8910   -2.8340 O   0  0  0  0  0  0  0  0  0  0  0  0
    1.5500   12.6120   -2.0710 O   0  0  0  0  0  0  0  0  0  0  0  0
  1  2  1  0
  2  3  2  0
  2  4  1  0
  3  5  1  0
  4  6  2  0
  3  7  1  0
  4  8  1  0
  6  9  1  0
  7  9  2  0
  8 10  1  0
  8 11  1  0
 12 10  1  0
 11 13  1  0
 12 14  1  0
 12 15  1  0
 12 16  1  0
 13 16  1  0
 16 17  1  1
 14 18  1  0
 15 18  1  0
 17 19  1  0
 19 20  1  6
 19 21  1  0
 21 22  2  0
 21 23  1  0
M  END
