mac-x0572-diamond-x0128_0_A
     RDKit          3D

 21 23  0  0  0  0  0  0  0  0999 V2000
   -8.2050   14.9140    3.0140 C   0  0  0  0  0  0  0  0  0  0  0  0
   -7.7010   15.2660    4.2500 N   0  0  0  0  0  0  0  0  0  0  0  0
   -8.4190   15.9840    5.2440 C   0  0  0  0  0  0  0  0  0  0  0  0
   -9.3950   14.7300    2.7980 O   0  0  0  0  0  0  0  0  0  0  0  0
   -7.2580   14.8030    1.8080 C   0  0  0  0  0  0  0  0  0  0  0  0
   -7.7790   14.7050    0.5710 C   0  0  0  0  0  0  0  0  0  0  0  0
   -5.8930   14.8400    2.0450 N   0  0  0  0  0  0  0  0  0  0  0  0
   -9.1280   14.6620    0.2600 O   0  0  0  0  0  0  0  0  0  0  0  0
   -6.8330   14.6660   -0.5710 C   0  0  0  0  0  0  0  0  0  0  0  0
   -5.0610   15.0930    1.0760 C   0  0  0  0  0  0  0  0  0  0  0  0
   -9.0990   17.1520    4.8590 C   0  0  0  0  0  0  0  0  0  0  0  0
   -8.5250   15.6370    6.5900 C   0  0  0  0  0  0  0  0  0  0  0  0
   -7.1890   14.0930   -1.5990 O   0  0  0  0  0  0  0  0  0  0  0  0
   -5.5150   15.3690   -0.3480 C   0  0  1  0  0  0  0  0  0  0  0  0
   -3.6150   15.1100    1.3780 C   0  0  0  0  0  0  0  0  0  0  0  0
   -9.8320   17.9420    5.6770 N   0  0  0  0  0  0  0  0  0  0  0  0
   -9.2750   16.4320    7.4630 C   0  0  0  0  0  0  0  0  0  0  0  0
   -2.7460   15.0620    0.3680 C   0  0  0  0  0  0  0  0  0  0  0  0
   -4.4450   15.1240   -1.3660 C   0  0  0  0  0  0  0  0  0  0  0  0
   -9.9050   17.5650    6.9650 C   0  0  0  0  0  0  0  0  0  0  0  0
   -3.1610   14.9880   -1.0160 C   0  0  0  0  0  0  0  0  0  0  0  0
  1  2  1  0
  2  3  1  0
  1  4  2  0
  1  5  1  0
  5  6  2  0
  5  7  1  0
  6  8  1  0
  6  9  1  0
  7 10  2  0
  3 11  2  0
  3 12  1  0
  9 13  2  0
  9 14  1  0
 10 14  1  0
 10 15  1  0
 11 16  1  0
 12 17  2  0
 15 18  2  0
 14 19  1  6
 16 20  2  0
 17 20  1  0
 18 21  1  0
 19 21  2  0
M  END
