mac-x0451-mac-x0116
     RDKit          3D

 23 27  0  0  0  0  0  0  0  0999 V2000
   -6.4460   14.5220    1.1860 C   0  0  2  0  0  0  0  0  0  0  0  0
   -6.2760   14.7690   -0.2780 N   0  0  0  0  0  0  0  0  0  0  0  0
   -5.0730   15.5030   -0.7660 C   0  0  1  0  0  0  0  0  0  0  0  0
   -5.1920   14.6640    1.9970 C   0  0  0  0  0  0  0  0  0  0  0  0
   -6.7430   13.1000    1.4090 C   0  0  0  0  0  0  0  0  0  0  0  0
   -4.0740   14.4320    1.1300 N   0  0  0  0  0  0  0  0  0  0  0  0
   -6.7310   12.3000    0.3140 O   0  0  0  0  0  0  0  0  0  0  0  0
   -7.0350   12.3760    2.5440 C   0  0  0  0  0  0  0  0  0  0  0  0
   -3.9650   15.6000    0.3280 C   0  0  1  0  0  0  0  0  0  0  0  0
   -4.5870   14.8710   -2.0960 C   0  0  0  0  0  0  0  0  0  0  0  0
   -7.2180   11.0530    2.1240 C   0  0  0  0  0  0  0  0  0  0  0  0
   -7.0220   11.0530    0.7590 C   0  0  0  0  0  0  0  0  0  0  0  0
   -3.0710   13.8230    1.7560 C   0  0  0  0  0  0  0  0  0  0  0  0
   -2.5590   15.9090   -0.1230 C   0  0  2  0  0  0  0  0  0  0  0  0
   -1.4380   14.3410    1.7780 S   0  0  0  0  0  0  0  0  0  0  0  0
   -3.1160   15.1610   -2.4220 C   0  0  2  0  0  0  0  0  0  0  0  0
   -2.6780   14.3730   -3.4450 F   0  0  0  0  0  0  0  0  0  0  0  0
   -2.1420   15.0440   -1.2550 C   0  0  2  0  0  0  0  0  0  0  0  0
   -1.3970   15.6790    0.7430 C   0  0  0  0  0  0  0  0  0  0  0  0
   -1.8350   13.6340   -0.7660 N   0  0  0  0  0  0  0  0  0  0  0  0
   -0.7140   15.4280   -1.5560 C   0  0  0  0  0  0  0  0  0  0  0  0
   -0.0660   15.0210   -0.3170 N   0  0  0  0  0  0  0  0  0  0  0  0
   -0.4430   13.6520   -0.2560 C   0  0  0  0  0  0  0  0  0  0  0  0
  1  2  1  0
  2  3  1  0
  1  4  1  0
  1  5  1  6
  4  6  1  0
  5  7  1  0
  5  8  2  0
  3  9  1  0
  9  6  1  6
  3 10  1  6
  8 11  1  0
  7 12  1  0
 11 12  2  0
  6 13  1  0
  9 14  1  0
 13 15  2  0
 10 16  1  0
 16 17  1  6
 14 18  1  0
 16 18  1  0
 14 19  1  1
 15 19  2  0
 18 20  1  0
 18 21  1  6
 21 22  1  0
 20 23  1  0
 22 23  1  0
M  END
