mac-x0546-mac-x0138
     RDKit          3D

 27 30  0  0  0  0  0  0  0  0999 V2000
   -4.1330   15.4050   -5.4500 C   0  0  0  0  0  0  0  0  0  0  0  0
   -3.3860   16.3380   -4.6370 O   0  0  0  0  0  0  0  0  0  0  0  0
   -2.0860   16.1570   -4.9370 C   0  0  0  0  0  0  0  0  0  0  0  0
   -1.4160   15.0710   -4.5170 C   0  0  0  0  0  0  0  0  0  0  0  0
   -1.4510   17.2060   -5.7150 C   0  0  0  0  0  0  0  0  0  0  0  0
   -1.9130   14.0100   -3.5830 C   0  0  0  0  0  0  0  0  0  0  0  0
   -0.0190   14.8870   -5.0170 C   0  0  1  0  0  0  0  0  0  0  0  0
   -0.1100   17.3160   -5.7080 C   0  0  0  0  0  0  0  0  0  0  0  0
    0.5520   16.2600   -4.9140 C   0  0  0  0  0  0  0  0  0  0  0  0
    1.0040   14.1610   -4.2220 C   0  0  0  0  0  0  0  0  0  0  0  0
   -2.6120   14.4610   -2.3620 N   0  0  0  0  0  0  0  0  0  0  0  0
    1.0850   12.6680   -4.0290 C   0  0  0  0  0  0  0  0  0  0  0  0
    1.5520   16.3650   -4.1360 N   0  0  0  0  0  0  0  0  0  0  0  0
    1.8360   15.0780   -3.7390 C   0  0  0  0  0  0  0  0  0  0  0  0
   -3.8810   14.9650   -2.4020 C   0  0  0  0  0  0  0  0  0  0  0  0
   -2.2100   14.4820   -1.0140 C   0  0  0  0  0  0  0  0  0  0  0  0
    0.5560   12.0760   -2.7200 C   0  0  0  0  0  0  0  0  0  0  0  0
   -4.3410   15.2930   -1.2260 N   0  0  0  0  0  0  0  0  0  0  0  0
   -3.3230   14.9940   -0.3530 C   0  0  0  0  0  0  0  0  0  0  0  0
   -1.0450   14.1070   -0.4080 N   0  0  0  0  0  0  0  0  0  0  0  0
    0.6930   12.5330   -1.5910 O   0  0  0  0  0  0  0  0  0  0  0  0
   -0.1130   10.9150   -2.9210 O   0  0  0  0  0  0  0  0  0  0  0  0
   -3.2410   15.1110    1.0390 C   0  0  0  0  0  0  0  0  0  0  0  0
   -1.0880   14.2760    0.9460 C   0  0  0  0  0  0  0  0  0  0  0  0
   -4.2870   15.5980    1.8140 N   0  0  0  0  0  0  0  0  0  0  0  0
    0.0060   13.9560    1.7350 N   0  0  0  0  0  0  0  0  0  0  0  0
   -2.1080   14.7390    1.6610 N   0  0  0  0  0  0  0  0  0  0  0  0
  1  2  1  0
  2  3  1  0
  3  4  2  0
  3  5  1  0
  4  6  1  0
  7  4  1  1
  5  8  2  0
  7  9  1  0
  8  9  1  0
  7 10  1  0
  6 11  1  0
 10 12  1  0
  9 13  2  0
 10 14  2  0
 13 14  1  0
 11 15  1  0
 11 16  1  0
 12 17  1  0
 15 18  2  0
 16 19  2  0
 18 19  1  0
 16 20  1  0
 17 21  2  0
 17 22  1  0
 19 23  1  0
 20 24  2  0
 23 25  1  0
 24 26  1  0
 23 27  2  0
 24 27  1  0
M  END
