mac-x0228-mac-x0163
     RDKit          3D

 28 32  0  0  0  0  0  0  0  0999 V2000
   -2.9130   11.8590   -2.0580 O   0  0  0  0  0  0  0  0  0  0  0  0
   -2.9700   12.8420   -3.0670 C   0  0  1  0  0  0  0  0  0  0  0  0
   -4.0460   13.6250   -2.4760 C   0  0  0  0  0  0  0  0  0  0  0  0
   -1.1080   13.2160   -2.9980 S   0  0  0  0  0  0  0  0  0  0  0  0
   -4.2710   13.4540   -1.1030 C   0  0  0  0  0  0  0  0  0  0  0  0
   -4.8910   14.4940   -3.1410 C   0  0  0  0  0  0  0  0  0  0  0  0
   -0.1950   11.5870   -2.3430 C   0  0  0  0  0  0  0  0  0  0  0  0
   -0.0180   12.1130   -3.9240 C   0  0  0  0  0  0  0  0  0  0  0  0
   -0.4370   14.7820   -2.2070 N   0  0  0  0  0  0  0  0  0  0  0  0
   -0.9270   14.5470   -3.8250 C   0  0  0  0  0  0  0  0  0  0  0  0
   -5.3080   14.1000   -0.4370 C   0  0  0  0  0  0  0  0  0  0  0  0
   -5.9090   15.1240   -2.4780 C   0  0  0  0  0  0  0  0  0  0  0  0
   -0.8870   14.7600   -0.9230 C   0  0  0  0  0  0  0  0  0  0  0  0
    0.8730   15.3180   -2.6780 C   0  0  0  0  0  0  0  0  0  0  0  0
   -0.0900   15.1710   -4.7790 C   0  0  0  0  0  0  0  0  0  0  0  0
   -0.7420   10.9230   -3.6070 C   0  0  0  0  0  0  0  0  0  0  0  0
   -6.1340   14.9330   -1.1550 C   0  0  0  0  0  0  0  0  0  0  0  0
   -5.8190   14.1300    0.9540 C   0  0  0  0  0  0  0  0  0  0  0  0
   -2.0920   14.9530   -0.4860 C   0  0  0  0  0  0  0  0  0  0  0  0
    0.0510   14.4950    0.0230 N   0  0  0  0  0  0  0  0  0  0  0  0
    1.1620   14.7490   -4.0710 C   0  0  0  0  0  0  0  0  0  0  0  0
   -7.1200   15.4380   -0.2930 O   0  0  0  0  0  0  0  0  0  0  0  0
   -7.2660   14.5080    0.7680 C   0  0  0  0  0  0  0  0  0  0  0  0
   -3.3960   15.3050   -1.5180 Cl  0  0  0  0  0  0  0  0  0  0  0  0
   -2.3940   14.8950    0.8870 C   0  0  0  0  0  0  0  0  0  0  0  0
   -0.2110   14.4250    1.3290 C   0  0  0  0  0  0  0  0  0  0  0  0
   -3.6820   15.1190    1.3800 N   0  0  0  0  0  0  0  0  0  0  0  0
   -1.4380   14.6250    1.7690 N   0  0  0  0  0  0  0  0  0  0  0  0
  2  1  1  1
  2  3  1  0
  2  4  1  0
  3  5  2  0
  3  6  1  0
  4  7  1  0
  4  8  1  0
  4  9  1  0
  4 10  1  0
  5 11  1  0
  6 12  2  0
  9 13  1  0
  9 14  1  0
 10 15  1  0
  7 16  1  0
  8 16  1  0
 11 17  2  0
 12 17  1  0
 11 18  1  0
 13 19  2  0
 13 20  1  0
 14 21  1  0
 15 21  1  0
 17 22  1  0
 18 23  1  0
 22 23  1  0
 19 24  1  0
 19 25  1  0
 20 26  2  0
 25 27  1  0
 25 28  2  0
 26 28  1  0
M  END
