mac-x0263-mac-x0333
     RDKit          3D

 15 16  0  0  0  0  0  0  0  0999 V2000
  -11.4910   14.2760    2.1960 O   0  0  0  0  0  0  0  0  0  0  0  0
  -10.8360   15.3150    2.7380 C   0  0  0  0  0  0  0  0  0  0  0  0
  -11.3690   15.9700    3.6130 O   0  0  0  0  0  0  0  0  0  0  0  0
   -9.4750   15.5390    2.1350 C   0  0  0  0  0  0  0  0  0  0  0  0
   -8.9310   14.2930    1.4540 C   0  0  0  0  0  0  0  0  0  0  0  0
   -7.5860   14.5380    0.8560 C   0  0  0  0  0  0  0  0  0  0  0  0
   -7.3960   14.8040   -0.4790 N   0  0  0  0  0  0  0  0  0  0  0  0
   -6.4460   14.5390    1.4980 N   0  0  0  0  0  0  0  0  0  0  0  0
   -6.0510   14.9770   -0.6930 C   0  0  0  0  0  0  0  0  0  0  0  0
   -5.4820   14.8070    0.5600 C   0  0  0  0  0  0  0  0  0  0  0  0
   -5.3050   15.2580   -1.8430 C   0  0  0  0  0  0  0  0  0  0  0  0
   -4.0950   14.9170    0.7130 C   0  0  0  0  0  0  0  0  0  0  0  0
   -3.9200   15.3530   -1.6660 C   0  0  0  0  0  0  0  0  0  0  0  0
   -3.3230   15.1880   -0.4180 C   0  0  0  0  0  0  0  0  0  0  0  0
   -3.0870   15.6060   -2.7280 O   0  0  0  0  0  0  0  0  0  0  0  0
  1  2  1  0
  2  3  2  0
  2  4  1  0
  4  5  1  0
  5  6  1  0
  6  7  1  0
  6  8  2  0
  7  9  1  0
  8 10  1  0
  9 10  2  0
  9 11  1  0
 10 12  1  0
 11 13  2  0
 12 14  2  0
 13 14  1  0
 13 15  1  0
M  END
