mac-x0338-mac-x0178
     RDKit          3D

 24 25  0  0  0  0  0  0  0  0999 V2000
   -4.6110   15.6050    2.2220 N   0  0  0  0  0  0  0  0  0  0  0  0
   -5.3770   15.0870    1.2250 C   0  0  0  0  0  0  0  0  0  0  0  0
   -6.5310   14.7330    1.4170 O   0  0  0  0  0  0  0  0  0  0  0  0
   -4.7050   15.0130   -0.0670 C   0  0  0  0  0  0  0  0  0  0  0  0
   -3.3650   14.8910   -0.0040 N   0  0  0  0  0  0  0  0  0  0  0  0
   -5.4180   15.0730   -1.2480 C   0  0  0  0  0  0  0  0  0  0  0  0
   -2.7550   14.8480   -1.1840 C   0  0  0  0  0  0  0  0  0  0  0  0
   -4.7970   15.0160   -2.4430 N   0  0  0  0  0  0  0  0  0  0  0  0
   -3.4380   14.9130   -2.3700 C   0  0  0  0  0  0  0  0  0  0  0  0
   -2.6530   14.8880   -3.6220 C   0  0  0  0  0  0  0  0  0  0  0  0
   -3.2250   16.0410   -4.3960 C   0  0  0  0  0  0  0  0  0  0  0  0
   -2.4080   17.2950   -4.5540 N   0  0  0  0  0  0  0  0  0  0  0  0
   -1.6190   17.1910   -5.7610 S   0  0  2  0  0  0  0  0  0  0  0  0
   -0.6400   18.5360   -5.8340 N   0  0  0  0  0  0  0  0  0  0  0  0
   -2.3340   17.1250   -6.9930 O   0  0  0  0  0  0  0  0  0  0  0  0
   -0.8510   15.7930   -5.0210 C   0  0  0  0  0  0  0  0  0  0  0  0
    0.2170   16.0350   -4.1520 C   0  0  0  0  0  0  0  0  0  0  0  0
   -1.3250   14.4980   -5.2500 C   0  0  0  0  0  0  0  0  0  0  0  0
    0.8040   14.9680   -3.4800 C   0  0  0  0  0  0  0  0  0  0  0  0
   -0.7340   13.4280   -4.5760 C   0  0  0  0  0  0  0  0  0  0  0  0
    0.3210   13.6710   -3.6840 C   0  0  0  0  0  0  0  0  0  0  0  0
    0.9460   12.5710   -2.9230 C   0  0  0  0  0  0  0  0  0  0  0  0
    1.8870   12.7410   -2.1780 O   0  0  0  0  0  0  0  0  0  0  0  0
    0.3450   11.3820   -3.1230 O   0  0  0  0  0  0  0  0  0  0  0  0
  1  2  1  0
  2  3  2  0
  2  4  1  0
  4  5  2  0
  4  6  1  0
  5  7  1  0
  6  8  2  0
  7  9  2  0
  8  9  1  0
  9 10  1  0
 10 11  1  0
 11 12  1  0
 12 13  2  0
 13 14  1  6
 13 15  2  0
 13 16  1  0
 16 17  2  0
 16 18  1  0
 17 19  1  0
 18 20  2  0
 19 21  2  0
 20 21  1  0
 21 22  1  0
 22 23  2  0
 22 24  1  0
M  END
