mac-x0142-mac-x0139
     RDKit          3D

 24 27  0  0  0  0  0  0  0  0999 V2000
   -0.1040   16.4020   -2.5830 C   0  0  0  0  0  0  0  0  0  0  0  0
    0.4130   15.5660   -1.4820 N   0  0  0  0  0  0  0  0  0  0  0  0
    1.3390   14.5190   -1.8830 C   0  0  0  0  0  0  0  0  0  0  0  0
   -0.6460   14.9400   -0.8190 N   0  0  0  0  0  0  0  0  0  0  0  0
    0.6180   13.1710   -1.8600 C   0  0  0  0  0  0  0  0  0  0  0  0
   -0.7260   15.0610    0.5730 C   0  0  0  0  0  0  0  0  0  0  0  0
   -1.7980   14.8640   -1.6100 C   0  0  0  0  0  0  0  0  0  0  0  0
    1.3660   12.1120   -2.5880 C   0  0  0  0  0  0  0  0  0  0  0  0
   -1.8070   14.6210   -3.0220 N   0  0  0  0  0  0  0  0  0  0  0  0
   -1.7890   15.2290    1.2880 N   0  0  0  0  0  0  0  0  0  0  0  0
   -2.9340   15.0630   -0.9310 C   0  0  0  0  0  0  0  0  0  0  0  0
    2.5470   12.1890   -2.8750 O   0  0  0  0  0  0  0  0  0  0  0  0
    0.5970   11.0390   -2.8960 O   0  0  0  0  0  0  0  0  0  0  0  0
   -2.9260   13.9370   -3.6740 C   0  0  0  0  0  0  0  0  0  0  0  0
   -0.6510   14.9280   -3.9000 C   0  0  0  0  0  0  0  0  0  0  0  0
   -2.9300   15.2790    0.5350 C   0  0  0  0  0  0  0  0  0  0  0  0
   -4.3110   15.1320   -1.2760 C   0  0  0  0  0  0  0  0  0  0  0  0
   -0.0840   13.6710   -4.5580 C   0  0  0  0  0  0  0  0  0  0  0  0
   -2.4730   13.1490   -4.9120 C   0  0  0  0  0  0  0  0  0  0  0  0
   -4.1230   15.4870    1.0000 N   0  0  0  0  0  0  0  0  0  0  0  0
   -4.9400   15.3920   -0.1220 C   0  0  0  0  0  0  0  0  0  0  0  0
    0.8440   13.9240   -5.7200 C   0  0  0  0  0  0  0  0  0  0  0  0
    1.4030   13.3260   -4.4880 C   0  0  0  0  0  0  0  0  0  0  0  0
   -1.0860   12.5530   -4.7210 C   0  0  0  0  0  0  0  0  0  0  0  0
  1  2  1  0
  2  3  1  0
  2  4  1  0
  3  5  1  0
  4  6  1  0
  4  7  1  0
  5  8  1  0
  7  9  1  0
  6 10  2  0
  7 11  2  0
  8 12  2  0
  8 13  1  0
  9 14  1  0
  9 15  1  0
 10 16  1  0
 11 16  1  0
 11 17  1  0
 18 15  1  0
 14 19  1  0
 16 20  2  0
 17 21  2  0
 20 21  1  0
 18 22  1  0
 18 23  1  0
 22 23  1  0
 18 24  1  0
 19 24  1  0
M  END
