mac-x0231-mac-x0123
     RDKit          3D

 29 33  0  0  0  0  0  0  0  0999 V2000
    0.5570   10.8780   -3.2630 O   0  0  0  0  0  0  0  0  0  0  0  0
    1.3350   11.9630   -3.1100 C   0  0  0  0  0  0  0  0  0  0  0  0
    1.5340   12.4010   -1.9920 O   0  0  0  0  0  0  0  0  0  0  0  0
    1.8960   12.5760   -4.3600 C   0  0  0  0  0  0  0  0  0  0  0  0
    1.4080   13.9760   -4.4300 C   0  0  0  0  0  0  0  0  0  0  0  0
   -0.0260   14.1630   -4.5120 C   0  0  0  0  0  0  0  0  0  0  0  0
    2.2430   14.9450   -4.3420 N   0  0  0  0  0  0  0  0  0  0  0  0
   -0.4920   15.4640   -4.5530 C   0  0  0  0  0  0  0  0  0  0  0  0
    1.7490   16.2090   -4.3550 N   0  0  0  0  0  0  0  0  0  0  0  0
   -0.8900   13.0760   -4.5230 C   0  0  0  0  0  0  0  0  0  0  0  0
    0.4560   16.5720   -4.5590 C   0  0  0  0  0  0  0  0  0  0  0  0
   -1.8420   15.6990   -4.5730 C   0  0  0  0  0  0  0  0  0  0  0  0
   -2.2410   13.3080   -4.5420 C   0  0  0  0  0  0  0  0  0  0  0  0
    0.1050   17.7350   -4.7370 O   0  0  0  0  0  0  0  0  0  0  0  0
   -2.6990   14.6140   -4.5500 C   0  0  0  0  0  0  0  0  0  0  0  0
   -4.1230   14.8520   -4.5180 C   0  0  0  0  0  0  0  0  0  0  0  0
   -4.5060   14.8190   -3.0520 C   0  0  0  0  0  0  0  0  0  0  0  0
   -5.8090   14.6480   -2.8570 N   0  0  0  0  0  0  0  0  0  0  0  0
   -3.7600   14.9250   -1.8920 N   0  0  0  0  0  0  0  0  0  0  0  0
   -4.7490   14.7930   -0.9130 N   0  0  0  0  0  0  0  0  0  0  0  0
   -5.9770   14.6320   -1.5840 C   0  0  0  0  0  0  0  0  0  0  0  0
   -4.7330   14.7840    0.5450 C   0  0  0  0  0  0  0  0  0  0  0  0
   -7.1700   14.4770   -0.9770 N   0  0  0  0  0  0  0  0  0  0  0  0
   -3.5520   14.9310    1.2840 N   0  0  0  0  0  0  0  0  0  0  0  0
   -7.1360   14.4660    0.2890 C   0  0  0  0  0  0  0  0  0  0  0  0
   -5.9350   14.6060    1.1460 C   0  0  0  0  0  0  0  0  0  0  0  0
   -6.3880   14.5040    2.5530 C   0  0  0  0  0  0  0  0  0  0  0  0
   -8.3840   14.3000    1.0830 C   0  0  0  0  0  0  0  0  0  0  0  0
   -7.9180   14.5660    2.5130 C   0  0  0  0  0  0  0  0  0  0  0  0
  1  2  1  0
  2  3  2  0
  2  4  1  0
  4  5  1  0
  5  6  1  0
  5  7  2  0
  6  8  2  0
  7  9  1  0
  6 10  1  0
  8 11  1  0
  9 11  1  0
  8 12  1  0
 10 13  2  0
 11 14  2  0
 12 15  2  0
 13 15  1  0
 15 16  1  0
 16 17  1  0
 17 18  1  0
 17 19  2  0
 19 20  1  0
 18 21  2  0
 20 21  1  0
 20 22  1  0
 21 23  1  0
 22 24  1  0
 23 25  2  0
 22 26  2  0
 25 26  1  0
 26 27  1  0
 25 28  1  0
 27 29  1  0
 28 29  1  0
M  END
