mac-x0396-mac-x0360
     RDKit          3D

 18 19  0  0  0  0  0  0  0  0999 V2000
   -3.6250   14.2220    1.0830 N   0  0  0  0  0  0  0  0  0  0  0  0
   -4.1680   14.5110   -0.3130 S   0  0  0  0  0  0  0  0  0  0  0  0
   -2.7550   15.2410   -0.6630 O   0  0  0  0  0  0  0  0  0  0  0  0
   -4.3470   14.7830   -1.7530 O   0  0  0  0  0  0  0  0  0  0  0  0
   -5.7170   14.8990   -0.0700 C   0  0  0  0  0  0  0  0  0  0  0  0
   -4.7300   12.9150   -0.6340 C   0  0  0  0  0  0  0  0  0  0  0  0
   -6.5200   15.4470   -1.0460 C   0  0  0  0  0  0  0  0  0  0  0  0
   -6.3460   14.6130    1.1310 C   0  0  0  0  0  0  0  0  0  0  0  0
   -4.3520   12.0730   -1.6020 C   0  0  0  0  0  0  0  0  0  0  0  0
   -5.7000   12.6140    0.2310 C   0  0  0  0  0  0  0  0  0  0  0  0
   -7.8270   15.6850   -0.8880 N   0  0  0  0  0  0  0  0  0  0  0  0
   -7.6850   14.8640    1.2620 C   0  0  0  0  0  0  0  0  0  0  0  0
   -5.0190   10.8530   -1.7140 C   0  0  0  0  0  0  0  0  0  0  0  0
   -6.3650   11.4280    0.1360 C   0  0  0  0  0  0  0  0  0  0  0  0
   -7.6420   11.0820    1.2980 Cl  0  0  0  0  0  0  0  0  0  0  0  0
   -4.5930    9.7080   -2.9580 Cl  0  0  0  0  0  0  0  0  0  0  0  0
   -8.4510   15.3970    0.2610 C   0  0  0  0  0  0  0  0  0  0  0  0
   -6.0430   10.5300   -0.8400 C   0  0  0  0  0  0  0  0  0  0  0  0
  1  2  1  0
  2  3  2  0
  2  4  1  0
  2  5  1  0
  2  6  1  0
  5  7  2  0
  5  8  1  0
  6  9  2  0
  6 10  1  0
  7 11  1  0
  8 12  2  0
  9 13  1  0
 10 14  2  0
 14 15  1  0
 13 16  1  0
 11 17  2  0
 12 17  1  0
 13 18  2  0
 14 18  1  0
M  END
