mac-x0455-mac-x0357
     RDKit          3D

 14 14  0  0  0  0  0  0  0  0999 V2000
   -2.2000   14.1280   -2.4780 C   0  0  0  0  0  0  0  0  0  0  0  0
   -0.9040   14.1470   -3.2990 C   0  0  1  0  0  0  0  0  0  0  0  0
   -0.8680   15.4050   -4.0000 O   0  0  0  0  0  0  0  0  0  0  0  0
    0.2920   14.2120   -2.3250 C   0  0  0  0  0  0  0  0  0  0  0  0
   -0.8230   13.0200   -4.3510 C   0  0  0  0  0  0  0  0  0  0  0  0
    1.0800   15.1350   -2.2200 O   0  0  0  0  0  0  0  0  0  0  0  0
    0.4700   13.1450   -1.5220 O   0  0  0  0  0  0  0  0  0  0  0  0
   -1.9340   12.1620   -4.5440 C   0  0  0  0  0  0  0  0  0  0  0  0
    0.3320   12.7890   -5.1610 C   0  0  0  0  0  0  0  0  0  0  0  0
    1.6130   13.5870   -5.0870 C   0  0  0  0  0  0  0  0  0  0  0  0
   -1.9190   11.1310   -5.4870 C   0  0  0  0  0  0  0  0  0  0  0  0
    0.3170   11.7500   -6.1110 C   0  0  0  0  0  0  0  0  0  0  0  0
    1.4440   11.5640   -6.8900 O   0  0  0  0  0  0  0  0  0  0  0  0
   -0.7940   10.9220   -6.2760 C   0  0  0  0  0  0  0  0  0  0  0  0
  2  1  1  1
  2  3  1  0
  2  4  1  0
  2  5  1  0
  4  6  2  0
  4  7  1  0
  5  8  2  0
  5  9  1  0
  9 10  1  0
  8 11  1  0
  9 12  2  0
 12 13  1  0
 11 14  2  0
 12 14  1  0
M  END
