mac-x0337-mac-x0358
     RDKit          3D

 23 24  0  0  0  0  0  0  0  0999 V2000
   -5.7570    9.2810   -2.0490 C   0  0  0  0  0  0  0  0  0  0  0  0
   -5.2350   10.6720   -1.8260 C   0  0  0  0  0  0  0  0  0  0  0  0
   -5.9270   11.5650   -0.9970 C   0  0  0  0  0  0  0  0  0  0  0  0
   -4.0510   11.0900   -2.4470 C   0  0  0  0  0  0  0  0  0  0  0  0
   -3.5660   12.3850   -2.2540 C   0  0  0  0  0  0  0  0  0  0  0  0
   -5.4470   12.8610   -0.7990 C   0  0  0  0  0  0  0  0  0  0  0  0
   -4.2680   13.2670   -1.4350 C   0  0  0  0  0  0  0  0  0  0  0  0
   -3.6770   14.9160   -1.2000 S   0  0  2  0  0  0  0  0  0  0  0  0
   -3.8190   15.7110   -2.5110 N   0  0  0  0  0  0  0  0  0  0  0  0
   -2.5900   14.9220   -0.2470 O   0  0  0  0  0  0  0  0  0  0  0  0
   -4.8600   15.7260   -0.3260 N   0  0  0  0  0  0  0  0  0  0  0  0
   -2.7220   16.0060   -3.4750 C   0  0  0  0  0  0  0  0  0  0  0  0
   -2.2680   14.8090   -4.2490 C   0  0  0  0  0  0  0  0  0  0  0  0
   -3.1220   14.1100   -5.1160 C   0  0  0  0  0  0  0  0  0  0  0  0
   -0.9560   14.3780   -4.0770 C   0  0  0  0  0  0  0  0  0  0  0  0
   -0.4830   13.2500   -4.7330 C   0  0  0  0  0  0  0  0  0  0  0  0
   -2.6560   12.9770   -5.7810 C   0  0  0  0  0  0  0  0  0  0  0  0
    0.9320   12.8190   -4.4910 C   0  0  0  0  0  0  0  0  0  0  0  0
   -1.3460   12.5550   -5.5760 C   0  0  0  0  0  0  0  0  0  0  0  0
    1.0270   12.1540   -3.1420 C   0  0  0  0  0  0  0  0  0  0  0  0
   -0.8730   11.4360   -6.1980 O   0  0  0  0  0  0  0  0  0  0  0  0
    1.7540   12.8770   -2.2580 O   0  0  0  0  0  0  0  0  0  0  0  0
    0.5280   11.0960   -2.7980 O   0  0  0  0  0  0  0  0  0  0  0  0
  1  2  1  0
  2  3  2  0
  2  4  1  0
  4  5  2  0
  3  6  1  0
  5  7  1  0
  6  7  2  0
  7  8  1  0
  8  9  2  0
  8 10  2  0
  8 11  1  1
  9 12  1  0
 12 13  1  0
 13 14  2  0
 13 15  1  0
 15 16  2  0
 14 17  1  0
 16 18  1  0
 16 19  1  0
 17 19  2  0
 18 20  1  0
 19 21  1  0
 20 22  1  0
 20 23  2  0
M  END
