mac-x0361-diamond-x0852_0_B
     RDKit          3D

 22 23  0  0  0  0  0  0  0  0999 V2000
   -6.3910   14.8190    1.6170 N   0  0  0  0  0  0  0  0  0  0  0  0
   -6.4980   14.8160    0.2370 C   0  0  0  0  0  0  0  0  0  0  0  0
   -7.6770   14.7620   -0.2960 N   0  0  0  0  0  0  0  0  0  0  0  0
   -5.2930   14.9020   -0.6130 C   0  0  0  0  0  0  0  0  0  0  0  0
   -8.9510   14.7200    0.4190 C   0  0  0  0  0  0  0  0  0  0  0  0
   -4.0020   14.7840   -0.1000 C   0  0  0  0  0  0  0  0  0  0  0  0
   -5.5130   15.1080   -1.9770 C   0  0  0  0  0  0  0  0  0  0  0  0
   -9.6860   16.0630    0.2420 C   0  0  0  0  0  0  0  0  0  0  0  0
   -2.9220   14.8760   -0.9840 C   0  0  0  0  0  0  0  0  0  0  0  0
   -4.4330   15.1970   -2.8480 C   0  0  0  0  0  0  0  0  0  0  0  0
  -10.2660   16.5800    1.4500 O   0  0  0  0  0  0  0  0  0  0  0  0
   -3.1500   15.0800   -2.3450 C   0  0  0  0  0  0  0  0  0  0  0  0
   -2.0730   15.1680   -3.1760 O   0  0  0  0  0  0  0  0  0  0  0  0
   -9.6640   16.3300    2.6590 C   0  0  0  0  0  0  0  0  0  0  0  0
   -8.7290   15.2910    2.6340 C   0  0  0  0  0  0  0  0  0  0  0  0
   -9.8890   16.9900    3.8700 C   0  0  0  0  0  0  0  0  0  0  0  0
   -8.0240   14.9100    3.7730 C   0  0  0  0  0  0  0  0  0  0  0  0
   -9.1830   16.6090    5.0270 C   0  0  0  0  0  0  0  0  0  0  0  0
   -9.4430   17.2990    6.2530 C   0  0  0  0  0  0  0  0  0  0  0  0
   -8.2500   15.5670    4.9740 C   0  0  0  0  0  0  0  0  0  0  0  0
   -9.6770   17.8150    7.2680 N   0  0  0  0  0  0  0  0  0  0  0  0
   -7.5170   15.1280    6.0480 O   0  0  0  0  0  0  0  0  0  0  0  0
  1  2  1  0
  2  3  2  3
  2  4  1  0
  3  5  1  0
  4  6  2  0
  4  7  1  0
  5  8  1  0
  6  9  1  0
  7 10  2  0
  8 11  1  0
  9 12  2  0
 10 12  1  0
 12 13  1  0
 11 14  1  0
 14 15  2  0
 14 16  1  0
 15 17  1  0
 16 18  2  0
 18 19  1  0
 17 20  2  0
 18 20  1  0
 19 21  3  0
 20 22  1  0
M  END
