mac-x0387-diamond-x0128_0_A
     RDKit          3D

 26 29  0  0  0  0  0  0  0  0999 V2000
   -3.6350   15.1750    1.9760 N   0  0  0  0  0  0  0  0  0  0  0  0
   -2.5460   14.9580    1.1700 C   0  0  0  0  0  0  0  0  0  0  0  0
   -1.3870   15.0370    1.8040 N   0  0  0  0  0  0  0  0  0  0  0  0
   -2.6670   14.6960   -0.1650 C   0  0  0  0  0  0  0  0  0  0  0  0
   -1.4530   14.5480   -0.8880 C   0  0  0  0  0  0  0  0  0  0  0  0
   -0.2580   14.8750    1.1080 C   0  0  0  0  0  0  0  0  0  0  0  0
   -4.0500   14.5550   -0.8340 C   0  0  2  0  0  0  0  0  0  0  0  0
   -0.2270   14.6380   -0.2350 C   0  0  0  0  0  0  0  0  0  0  0  0
   -1.4510   14.3070   -2.3230 C   0  0  0  0  0  0  0  0  0  0  0  0
   -3.8620   13.7160   -2.1510 C   0  0  0  0  0  0  0  0  0  0  0  0
   -4.9270   15.7480   -1.2860 C   0  0  0  0  0  0  0  0  0  0  0  0
   -4.8830   13.8500    0.3470 C   0  0  0  0  0  0  0  0  0  0  0  0
   -2.5800   13.9290   -2.9190 C   0  0  0  0  0  0  0  0  0  0  0  0
   -6.4170   15.4870   -1.2670 C   0  0  0  0  0  0  0  0  0  0  0  0
   -5.9660   14.7880    0.9500 C   0  0  2  0  0  0  0  0  0  0  0  0
   -6.6530   14.4310    2.2100 N   0  0  0  0  0  0  0  0  0  0  0  0
   -6.9360   15.0150   -0.1440 C   0  0  0  0  0  0  0  0  0  0  0  0
   -7.7240   15.0480    2.8610 C   0  0  0  0  0  0  0  0  0  0  0  0
   -8.6400   15.4760    2.1590 O   0  0  0  0  0  0  0  0  0  0  0  0
   -7.6760   15.1230    4.2440 N   0  0  0  0  0  0  0  0  0  0  0  0
   -8.4410   15.9310    5.1460 C   0  0  0  0  0  0  0  0  0  0  0  0
   -9.0800   17.0970    4.7000 C   0  0  0  0  0  0  0  0  0  0  0  0
   -8.6080   15.6300    6.4980 C   0  0  0  0  0  0  0  0  0  0  0  0
   -9.8270   17.9240    5.4750 N   0  0  0  0  0  0  0  0  0  0  0  0
   -9.3720   16.4630    7.3230 C   0  0  0  0  0  0  0  0  0  0  0  0
   -9.9560   17.5890    6.7710 C   0  0  0  0  0  0  0  0  0  0  0  0
  1  2  1  0
  2  3  2  0
  2  4  1  0
  4  5  2  0
  3  6  1  0
  4  7  1  0
  5  8  1  0
  6  8  2  0
  5  9  1  0
  7 10  1  6
  7 11  1  0
  7 12  1  0
  9 13  2  0
 10 13  1  0
 11 14  1  0
 12 15  1  0
 15 16  1  1
 14 17  2  0
 15 17  1  0
 16 18  1  0
 18 19  2  0
 18 20  1  0
 20 21  1  0
 21 22  2  0
 21 23  1  0
 22 24  1  0
 23 25  2  0
 24 26  2  0
 25 26  1  0
M  END
