mac-x0132-mac-x0338
     RDKit          3D

 13 15  0  0  0  0  0  0  0  0999 V2000
   -4.9290   14.8420    1.9670 N   0  0  0  0  0  0  0  0  0  0  0  0
   -3.7600   14.9630    1.2980 C   0  0  0  0  0  0  0  0  0  0  0  0
   -2.6710   14.9660    1.7790 O   0  0  0  0  0  0  0  0  0  0  0  0
   -5.9500   14.7820    1.0690 C   0  0  0  0  0  0  0  0  0  0  0  0
   -5.4440   14.9190   -0.1720 C   0  0  0  0  0  0  0  0  0  0  0  0
   -7.2270   14.6250    1.3480 N   0  0  0  0  0  0  0  0  0  0  0  0
   -4.0940   15.0480   -0.1420 C   0  0  0  0  0  0  0  0  0  0  0  0
   -6.2560   14.9160   -1.2620 C   0  0  0  0  0  0  0  0  0  0  0  0
   -7.9920   14.6250    0.2440 C   0  0  0  0  0  0  0  0  0  0  0  0
   -3.3980   15.2020   -1.3230 C   0  0  0  0  0  0  0  0  0  0  0  0
   -7.5780   14.7640   -1.0470 N   0  0  0  0  0  0  0  0  0  0  0  0
   -5.5700   15.0760   -2.4680 C   0  0  0  0  0  0  0  0  0  0  0  0
   -4.1550   15.2180   -2.5060 C   0  0  0  0  0  0  0  0  0  0  0  0
  1  2  1  0
  2  3  2  0
  1  4  1  0
  4  5  1  0
  4  6  2  0
  2  7  1  0
  5  7  2  0
  5  8  1  0
  6  9  1  0
  7 10  1  0
  8 11  1  0
  9 11  2  0
  8 12  2  0
 10 13  2  0
 12 13  1  0
M  END
