mac-x0394-mac-x0564
     RDKit          3D

 25 28  0  0  0  0  0  0  0  0999 V2000
    1.0760   18.3140   -4.4470 Cl  0  0  0  0  0  0  0  0  0  0  0  0
    0.3830   16.8120   -4.6910 C   0  0  0  0  0  0  0  0  0  0  0  0
   -0.9460   16.7750   -5.0400 C   0  0  0  0  0  0  0  0  0  0  0  0
    1.1610   15.6760   -4.5370 C   0  0  0  0  0  0  0  0  0  0  0  0
    0.6010   14.4310   -4.7440 C   0  0  0  0  0  0  0  0  0  0  0  0
   -1.5310   15.5580   -5.2510 C   0  0  0  0  0  0  0  0  0  0  0  0
   -3.2000   15.5220   -5.6960 Cl  0  0  0  0  0  0  0  0  0  0  0  0
    1.4580   13.1810   -4.5720 C   0  0  0  0  0  0  0  0  0  0  0  0
   -0.7670   14.3820   -5.1120 C   0  0  0  0  0  0  0  0  0  0  0  0
    1.5880   12.7540   -3.1170 C   0  0  0  0  0  0  0  0  0  0  0  0
    2.8350   12.4400   -2.7810 O   0  0  0  0  0  0  0  0  0  0  0  0
    0.5770   12.7100   -2.3290 N   0  0  0  0  0  0  0  0  0  0  0  0
   -0.6150   13.0340   -2.9070 C   0  0  0  0  0  0  0  0  0  0  0  0
   -1.6440   13.6900   -2.2730 C   0  0  0  0  0  0  0  0  0  0  0  0
   -0.7670   12.6690   -4.1870 N   0  0  0  0  0  0  0  0  0  0  0  0
   -2.7940   13.9550   -2.9970 C   0  0  0  0  0  0  0  0  0  0  0  0
   -1.9170   12.9740   -4.8000 C   0  0  0  0  0  0  0  0  0  0  0  0
   -1.7580   14.1490   -1.0010 O   0  0  0  0  0  0  0  0  0  0  0  0
   -2.9680   13.6090   -4.2860 N   0  0  0  0  0  0  0  0  0  0  0  0
   -2.9970   14.6970   -0.9270 C   0  0  0  0  0  0  0  0  0  0  0  0
   -3.6740   14.6120   -2.1390 C   0  0  0  0  0  0  0  0  0  0  0  0
   -4.9660   15.1360   -2.2520 C   0  0  0  0  0  0  0  0  0  0  0  0
   -3.5310   15.2650    0.1970 C   0  0  0  0  0  0  0  0  0  0  0  0
   -5.5300   15.7160   -1.1220 C   0  0  0  0  0  0  0  0  0  0  0  0
   -4.8050   15.7630    0.0740 C   0  0  0  0  0  0  0  0  0  0  0  0
  1  2  1  0
  2  3  2  0
  2  4  1  0
  4  5  2  0
  3  6  1  0
  6  7  1  0
  5  8  1  0
  5  9  1  0
  6  9  2  0
  8 10  1  0
 10 11  1  0
 10 12  2  3
 12 13  1  0
 13 14  1  0
 13 15  2  0
 14 16  2  0
 15 17  1  0
 14 18  1  0
 16 19  1  0
 17 19  2  0
 18 20  1  0
 16 21  1  0
 20 21  2  0
 21 22  1  0
 20 23  1  0
 22 24  2  0
 23 25  2  0
 24 25  1  0
M  END
