mac-x0509-diamond-x0465_0_A
     RDKit          3D

 23 25  0  0  0  0  0  0  0  0999 V2000
   -2.4220    7.1040   -6.8280 O   0  0  0  0  0  0  0  0  0  0  0  0
   -1.6130    7.9250   -7.2410 C   0  0  0  0  0  0  0  0  0  0  0  0
   -1.9070    9.2140   -8.0260 C   0  0  0  0  0  0  0  0  0  0  0  0
   -0.2470    7.9440   -7.1110 N   0  0  0  0  0  0  0  0  0  0  0  0
    0.1770    8.6390   -6.0110 O   0  0  0  0  0  0  0  0  0  0  0  0
   -0.6640    9.2620   -8.8580 C   0  0  0  0  0  0  0  0  0  0  0  0
    0.3050    8.4510   -8.2660 C   0  0  0  0  0  0  0  0  0  0  0  0
   -0.3970    9.9400  -10.0240 C   0  0  0  0  0  0  0  0  0  0  0  0
    1.5490    8.2620   -8.8000 C   0  0  0  0  0  0  0  0  0  0  0  0
   -0.8580    9.4720   -5.7000 C   0  0  0  0  0  0  0  0  0  0  0  0
    0.8690    9.7720  -10.5870 C   0  0  0  0  0  0  0  0  0  0  0  0
    1.8310    8.9380   -9.9860 C   0  0  0  0  0  0  0  0  0  0  0  0
   -0.6440   10.8400   -5.4860 C   0  0  0  0  0  0  0  0  0  0  0  0
   -2.1420    8.9460   -5.6020 C   0  0  0  0  0  0  0  0  0  0  0  0
    0.5880   11.4490   -5.5550 O   0  0  0  0  0  0  0  0  0  0  0  0
   -3.2200    9.7540   -5.3030 C   0  0  0  0  0  0  0  0  0  0  0  0
   -1.7380   11.6530   -5.1800 C   0  0  0  0  0  0  0  0  0  0  0  0
    0.7760   12.5150   -4.6160 C   0  0  2  0  0  0  0  0  0  0  0  0
   -3.0200   11.1090   -5.0910 C   0  0  0  0  0  0  0  0  0  0  0  0
    2.1440   13.1280   -4.9080 C   0  0  0  0  0  0  0  0  0  0  0  0
    0.7710   12.1260   -3.1250 C   0  0  0  0  0  0  0  0  0  0  0  0
    1.0510   12.8940   -2.2170 O   0  0  0  0  0  0  0  0  0  0  0  0
    0.4330   10.8420   -2.8710 O   0  0  0  0  0  0  0  0  0  0  0  0
  1  2  2  0
  2  3  1  0
  2  4  1  0
  4  5  1  0
  3  6  1  0
  4  7  1  0
  6  7  2  0
  6  8  1  0
  7  9  1  0
  5 10  1  0
  8 11  2  0
  9 12  2  0
 11 12  1  0
 10 13  2  0
 10 14  1  0
 13 15  1  0
 14 16  2  0
 13 17  1  0
 15 18  1  0
 16 19  1  0
 17 19  2  0
 18 20  1  6
 18 21  1  0
 21 22  2  0
 21 23  1  0
M  END
