mac-x0387-mac-x0564
     RDKit          3D

 20 23  0  0  0  0  0  0  0  0999 V2000
   -3.9220   15.1710    1.6810 N   0  0  0  0  0  0  0  0  0  0  0  0
   -2.5780   15.1320    1.1520 C   0  0  1  0  0  0  0  0  0  0  0  0
   -1.6610   14.2600    1.7930 N   0  0  0  0  0  0  0  0  0  0  0  0
   -2.4530   14.8030   -0.3450 C   0  0  2  0  0  0  0  0  0  0  0  0
   -1.0240   15.2400   -0.7270 C   0  0  1  0  0  0  0  0  0  0  0  0
   -0.3510   14.2580    1.4280 C   0  0  0  0  0  0  0  0  0  0  0  0
   -3.3740   15.6790   -1.1590 C   0  0  1  0  0  0  0  0  0  0  0  0
    0.0150   14.7170    0.2260 C   0  0  0  0  0  0  0  0  0  0  0  0
   -0.7020   15.1130   -2.2310 C   0  0  2  0  0  0  0  0  0  0  0  0
   -3.3000   15.4600   -2.6880 C   0  0  1  0  0  0  0  0  0  0  0  0
   -4.7830   15.8180   -0.6240 C   0  0  0  0  0  0  0  0  0  0  0  0
   -1.8720   15.1530   -3.2640 C   0  0  2  0  0  0  0  0  0  0  0  0
    0.2580   13.9780   -2.5170 C   0  0  0  0  0  0  0  0  0  0  0  0
   -4.5130   14.7370   -3.2390 C   0  0  0  0  0  0  0  0  0  0  0  0
   -5.8440   15.3770   -1.2970 C   0  0  0  0  0  0  0  0  0  0  0  0
    0.8730   13.3920   -1.6310 O   0  0  0  0  0  0  0  0  0  0  0  0
   -1.8240   14.0040   -4.1590 N   0  0  0  0  0  0  0  0  0  0  0  0
    0.4300   13.6190   -3.8140 N   0  0  0  0  0  0  0  0  0  0  0  0
   -5.6870   14.7250   -2.5720 C   0  0  0  0  0  0  0  0  0  0  0  0
   -0.5380   13.9470   -4.8060 C   0  0  0  0  0  0  0  0  0  0  0  0
  2  1  1  1
  2  3  1  0
  4  2  1  1
  4  5  1  0
  3  6  1  0
  4  7  1  0
  5  8  1  1
  6  8  2  0
  5  9  1  0
  7 10  1  0
  7 11  1  1
  9 12  1  0
 10 12  1  0
  9 13  1  1
 10 14  1  1
 11 15  2  0
 13 16  2  0
 12 17  1  1
 13 18  1  0
 14 19  2  0
 15 19  1  0
 17 20  1  0
 18 20  1  0
M  END
