mac-x0564-mac-x0380
     RDKit          3D

 23 26  0  0  0  0  0  0  0  0999 V2000
    1.3280   14.2020   -0.9960 O   0  0  0  0  0  0  0  0  0  0  0  0
    0.5240   14.2380   -1.9030 C   0  0  0  0  0  0  0  0  0  0  0  0
    0.8780   14.1750   -3.2540 N   0  0  0  0  0  0  0  0  0  0  0  0
   -0.8910   14.3440   -1.7510 C   0  0  0  0  0  0  0  0  0  0  0  0
   -1.6630   14.9080   -2.6910 C   0  0  0  0  0  0  0  0  0  0  0  0
    0.0700   14.7370   -4.1010 C   0  0  0  0  0  0  0  0  0  0  0  0
   -1.6570   13.9050   -0.7050 O   0  0  0  0  0  0  0  0  0  0  0  0
   -1.1040   15.3890   -3.8140 N   0  0  0  0  0  0  0  0  0  0  0  0
   -2.9310   14.2000   -1.0720 C   0  0  0  0  0  0  0  0  0  0  0  0
   -2.9540   14.8460   -2.2510 C   0  0  0  0  0  0  0  0  0  0  0  0
   -4.1130   15.3200   -2.9010 C   0  0  1  0  0  0  0  0  0  0  0  0
   -4.0840   13.8020   -0.2470 C   0  0  0  0  0  0  0  0  0  0  0  0
   -3.9830   14.6180   -4.1950 C   0  0  0  0  0  0  0  0  0  0  0  0
   -5.4060   15.2310   -2.0410 C   0  0  0  0  0  0  0  0  0  0  0  0
   -5.3120   14.6390   -0.5810 C   0  0  1  0  0  0  0  0  0  0  0  0
   -2.7810   13.9990   -4.2560 O   0  0  0  0  0  0  0  0  0  0  0  0
   -4.7480   14.5650   -5.1130 O   0  0  0  0  0  0  0  0  0  0  0  0
   -6.8860   13.6740   -0.4310 S   0  0  0  0  0  0  0  0  0  0  0  0
   -5.0910   15.5190    0.6370 C   0  0  0  0  0  0  0  0  0  0  0  0
   -5.7750   15.1260    1.9050 N   0  0  0  0  0  0  0  0  0  0  0  0
   -7.7000   13.8910    1.1160 C   0  0  0  0  0  0  0  0  0  0  0  0
   -7.0950   14.7640    2.1220 C   0  0  0  0  0  0  0  0  0  0  0  0
   -7.7740   15.1050    3.0800 O   0  0  0  0  0  0  0  0  0  0  0  0
  1  2  2  0
  2  3  1  0
  2  4  1  0
  4  5  2  0
  3  6  2  0
  4  7  1  0
  5  8  1  0
  6  8  1  0
  7  9  1  0
  5 10  1  0
  9 10  2  0
 10 11  1  0
  9 12  1  0
 11 13  1  6
 11 14  1  0
 15 12  1  6
 14 15  1  0
 13 16  1  0
 13 17  2  0
 15 18  1  0
 15 19  1  0
 19 20  1  0
 18 21  2  0
 20 22  1  0
 21 22  1  0
 22 23  2  0
M  END
