mac-x0116-mac-x0206
     RDKit          3D

 26 29  0  0  0  0  0  0  0  0999 V2000
   -4.7810   13.9480    2.0260 C   0  0  0  0  0  0  0  0  0  0  0  0
   -4.3980   14.8680    0.9870 N   0  0  0  0  0  0  0  0  0  0  0  0
   -3.2910   14.7650    0.1800 C   0  0  0  0  0  0  0  0  0  0  0  0
   -5.7510   12.8450    1.7440 C   0  0  0  0  0  0  0  0  0  0  0  0
   -5.8990   12.4130    0.4550 O   0  0  0  0  0  0  0  0  0  0  0  0
   -6.5720   12.1300    2.5850 C   0  0  0  0  0  0  0  0  0  0  0  0
   -7.2650   11.2060    1.7790 C   0  0  0  0  0  0  0  0  0  0  0  0
   -6.8220   11.4170    0.4930 C   0  0  0  0  0  0  0  0  0  0  0  0
   -3.4830   14.8830   -1.1590 N   0  0  0  0  0  0  0  0  0  0  0  0
   -2.0490   14.5920    0.5490 C   0  0  0  0  0  0  0  0  0  0  0  0
   -4.3190   15.8800   -1.4380 N   0  0  0  0  0  0  0  0  0  0  0  0
   -2.5140   14.7050   -2.0870 C   0  0  0  0  0  0  0  0  0  0  0  0
   -1.0300   14.5060   -0.4950 C   0  0  0  0  0  0  0  0  0  0  0  0
   -1.4440   14.4750    1.7520 N   0  0  0  0  0  0  0  0  0  0  0  0
   -5.5050   15.3250   -1.5770 C   0  0  0  0  0  0  0  0  0  0  0  0
   -1.2830   14.5240   -1.8300 N   0  0  0  0  0  0  0  0  0  0  0  0
    0.1230   14.4020    0.0450 N   0  0  0  0  0  0  0  0  0  0  0  0
   -0.2050   14.3820    1.4040 C   0  0  0  0  0  0  0  0  0  0  0  0
   -5.8790   15.0040   -2.6890 O   0  0  0  0  0  0  0  0  0  0  0  0
   -6.3310   15.0510   -0.3910 C   0  0  0  0  0  0  0  0  0  0  0  0
   -7.6590   14.8250   -0.6370 C   0  0  0  0  0  0  0  0  0  0  0  0
   -5.8520   15.0140    0.9300 C   0  0  0  0  0  0  0  0  0  0  0  0
   -8.1510   14.8520   -1.9070 O   0  0  0  0  0  0  0  0  0  0  0  0
   -8.5460   14.5600    0.4020 C   0  0  0  0  0  0  0  0  0  0  0  0
   -6.7450   14.7480    1.9870 C   0  0  0  0  0  0  0  0  0  0  0  0
   -8.0870   14.5230    1.7170 C   0  0  0  0  0  0  0  0  0  0  0  0
  1  2  1  0
  2  3  1  0
  1  4  1  0
  4  5  1  0
  4  6  2  0
  6  7  1  0
  5  8  1  0
  7  8  2  0
  3  9  1  0
  3 10  2  0
  9 11  1  0
  9 12  1  0
 10 13  1  0
 10 14  1  0
 11 15  1  0
 12 16  2  0
 13 16  1  0
 13 17  2  0
 14 18  2  0
 17 18  1  0
 15 19  2  0
 15 20  1  0
 20 21  2  0
 20 22  1  0
 21 23  1  0
 21 24  1  0
 22 25  2  0
 24 26  2  0
 25 26  1  0
M  END
