mac-x0204-mac-x0417
     RDKit          3D

 22 24  0  0  0  0  0  0  0  0999 V2000
    0.4460   12.9940   -2.4120 O   0  0  0  0  0  0  0  0  0  0  0  0
    0.1370   14.2590   -2.7730 C   0  0  0  0  0  0  0  0  0  0  0  0
    0.6830   15.2930   -2.4300 O   0  0  0  0  0  0  0  0  0  0  0  0
    0.5490   12.0220   -3.3690 C   0  0  0  0  0  0  0  0  0  0  0  0
    0.5260   10.8150   -3.1750 O   0  0  0  0  0  0  0  0  0  0  0  0
    0.6980   12.6350   -4.7540 C   0  0  0  0  0  0  0  0  0  0  0  0
   -1.0200   14.2690   -3.7080 C   0  0  0  0  0  0  0  0  0  0  0  0
   -1.3950   15.3910   -4.4560 C   0  0  0  0  0  0  0  0  0  0  0  0
   -1.7840   13.1100   -3.8620 C   0  0  0  0  0  0  0  0  0  0  0  0
    0.4520   11.6580   -5.8560 C   0  0  0  0  0  0  0  0  0  0  0  0
   -2.4890   15.3080   -5.3060 C   0  0  0  0  0  0  0  0  0  0  0  0
   -2.8580   13.0100   -4.6900 N   0  0  0  0  0  0  0  0  0  0  0  0
    1.3570   11.5520   -6.8300 N   0  0  0  0  0  0  0  0  0  0  0  0
   -0.6340   10.7590   -6.0650 C   0  0  0  0  0  0  0  0  0  0  0  0
   -2.8390   16.4120   -6.0250 O   0  0  0  0  0  0  0  0  0  0  0  0
   -3.1860   14.1140   -5.3950 C   0  0  0  0  0  0  0  0  0  0  0  0
    0.8800   10.5880   -7.7040 O   0  0  0  0  0  0  0  0  0  0  0  0
   -0.3030   10.1130   -7.2470 C   0  0  0  0  0  0  0  0  0  0  0  0
   -1.8330   10.4090   -5.4220 C   0  0  0  0  0  0  0  0  0  0  0  0
   -1.0810    9.1280   -7.8540 C   0  0  0  0  0  0  0  0  0  0  0  0
   -2.6400    9.4190   -6.0060 C   0  0  0  0  0  0  0  0  0  0  0  0
   -2.2700    8.7900   -7.2000 C   0  0  0  0  0  0  0  0  0  0  0  0
  1  2  1  0
  2  3  2  0
  1  4  1  0
  4  5  2  0
  4  6  1  0
  2  7  1  0
  7  8  2  0
  7  9  1  0
  6 10  1  0
  8 11  1  0
  9 12  2  0
 10 13  2  0
 10 14  1  0
 11 15  1  0
 11 16  2  0
 12 16  1  0
 13 17  1  0
 14 18  2  0
 17 18  1  0
 14 19  1  0
 18 20  1  0
 19 21  2  0
 20 22  2  0
 21 22  1  0
M  END
