mac-x0344-mac-x0116
     RDKit          3D

 30 33  0  0  0  0  0  0  0  0999 V2000
    2.4510   12.9580   -4.9280 O   0  0  0  0  0  0  0  0  0  0  0  0
    1.5400   12.7800   -3.9830 C   0  0  0  0  0  0  0  0  0  0  0  0
    1.6450   13.4860   -2.9390 N   0  0  0  0  0  0  0  0  0  0  0  0
    0.5030   11.7350   -4.3230 C   0  0  0  0  0  0  0  0  0  0  0  0
    0.1780   10.9280   -3.4510 O   0  0  0  0  0  0  0  0  0  0  0  0
   -0.0530   11.6760   -5.5700 N   0  0  0  0  0  0  0  0  0  0  0  0
    0.6360   13.3110   -1.9220 C   0  0  0  0  0  0  0  0  0  0  0  0
    0.5840   14.5740   -1.0820 C   0  0  0  0  0  0  0  0  0  0  0  0
   -0.7710   10.6620   -6.2180 C   0  0  0  0  0  0  0  0  0  0  0  0
   -0.3580    9.9560   -7.3430 C   0  0  0  0  0  0  0  0  0  0  0  0
   -2.0130   10.3530   -5.6580 C   0  0  0  0  0  0  0  0  0  0  0  0
   -0.5470   14.6440   -0.2010 N   0  0  0  0  0  0  0  0  0  0  0  0
   -1.1750    8.9610   -7.8920 C   0  0  0  0  0  0  0  0  0  0  0  0
   -2.8310    9.3620   -6.1980 C   0  0  0  0  0  0  0  0  0  0  0  0
   -1.8570   14.8050   -0.5600 C   0  0  0  0  0  0  0  0  0  0  0  0
   -0.4950   14.5690    1.1610 C   0  0  0  0  0  0  0  0  0  0  0  0
   -2.4110    8.6640   -7.3190 C   0  0  0  0  0  0  0  0  0  0  0  0
   -2.3760   14.9190   -1.7970 N   0  0  0  0  0  0  0  0  0  0  0  0
   -2.5390   14.8340    0.6410 C   0  0  0  0  0  0  0  0  0  0  0  0
   -1.6780   14.6740    1.7080 N   0  0  0  0  0  0  0  0  0  0  0  0
   -3.7100   15.0840   -1.7380 C   0  0  0  0  0  0  0  0  0  0  0  0
   -3.9280   15.0160    0.5840 C   0  0  0  0  0  0  0  0  0  0  0  0
   -4.7160   15.0820    1.7410 N   0  0  0  0  0  0  0  0  0  0  0  0
   -4.4960   15.1400   -0.6460 N   0  0  0  0  0  0  0  0  0  0  0  0
   -6.0740   14.5670    1.6500 C   0  0  0  0  0  0  0  0  0  0  0  0
   -6.2660   13.0870    1.6570 C   0  0  0  0  0  0  0  0  0  0  0  0
   -6.1800   12.4580    0.4460 O   0  0  0  0  0  0  0  0  0  0  0  0
   -6.5260   12.1640    2.6480 C   0  0  0  0  0  0  0  0  0  0  0  0
   -6.6020   10.9060    2.0120 C   0  0  0  0  0  0  0  0  0  0  0  0
   -6.3860   11.1390    0.6750 C   0  0  0  0  0  0  0  0  0  0  0  0
  1  2  1  0
  2  3  2  3
  2  4  1  0
  4  5  2  0
  4  6  1  0
  3  7  1  0
  7  8  1  0
  6  9  1  0
  9 10  2  0
  9 11  1  0
  8 12  1  0
 10 13  1  0
 11 14  2  0
 12 15  1  0
 12 16  1  0
 13 17  2  0
 14 17  1  0
 15 18  2  0
 15 19  1  0
 16 20  2  0
 19 20  1  0
 18 21  1  0
 19 22  2  0
 22 23  1  0
 21 24  2  0
 22 24  1  0
 23 25  1  0
 25 26  1  0
 26 27  1  0
 26 28  2  0
 28 29  1  0
 27 30  1  0
 29 30  2  0
M  END
