mac-x0396-diamond-x0104_0_A
     RDKit          3D

 19 21  0  0  0  0  0  0  0  0999 V2000
   -2.3970   14.9700    0.7320 N   0  0  0  0  0  0  0  0  0  0  0  0
   -3.4020   14.9490   -0.2660 C   0  0  0  0  0  0  0  0  0  0  0  0
   -3.3610   15.0300   -1.6070 N   0  0  0  0  0  0  0  0  0  0  0  0
   -4.7120   14.8190    0.0750 C   0  0  0  0  0  0  0  0  0  0  0  0
   -4.5950   14.9660   -2.0810 O   0  0  0  0  0  0  0  0  0  0  0  0
   -5.4430   14.8310   -1.0570 C   0  0  0  0  0  0  0  0  0  0  0  0
   -5.3470   14.6870    1.2730 C   0  0  0  0  0  0  0  0  0  0  0  0
   -6.7850   14.7170   -1.0470 N   0  0  0  0  0  0  0  0  0  0  0  0
   -6.6940   14.5670    1.3380 C   0  0  0  0  0  0  0  0  0  0  0  0
   -7.2870   14.4420    2.6180 N   0  0  0  0  0  0  0  0  0  0  0  0
   -7.4310   14.5810    0.1690 C   0  0  0  0  0  0  0  0  0  0  0  0
   -8.4410   15.2180    2.8960 C   0  0  0  0  0  0  0  0  0  0  0  0
   -9.0070   15.1520    4.2260 N   0  0  0  0  0  0  0  0  0  0  0  0
   -8.9020   15.8510    1.9940 O   0  0  0  0  0  0  0  0  0  0  0  0
   -9.7070   15.0850    5.2430 C   0  0  0  0  0  0  0  0  0  0  0  0
   -9.3490   15.1380    6.6370 C   0  0  0  0  0  0  0  0  0  0  0  0
  -11.4190   14.9060    5.3860 S   0  0  0  0  0  0  0  0  0  0  0  0
  -11.6170   14.9030    7.0530 C   0  0  0  0  0  0  0  0  0  0  0  0
  -10.3300   15.0440    7.4900 C   0  0  0  0  0  0  0  0  0  0  0  0
  1  2  1  0
  2  3  2  0
  2  4  1  0
  3  5  1  0
  4  6  2  0
  5  6  1  0
  4  7  1  0
  6  8  1  0
  7  9  2  0
  9 10  1  0
  8 11  2  0
  9 11  1  0
 10 12  1  0
 12 13  1  0
 12 14  2  0
 13 15  1  0
 15 16  2  0
 15 17  1  0
 17 18  1  0
 16 19  1  0
 18 19  2  0
M  END
