mac-x0179-diamond-x0685_1_A
     RDKit          3D

 17 19  0  0  0  0  0  0  0  0999 V2000
    0.9560   13.1180   -1.9290 O   0  0  0  0  0  0  0  0  0  0  0  0
    1.1840   12.3790   -3.0920 C   0  0  0  0  0  0  0  0  0  0  0  0
    0.6870   11.0860   -2.8660 O   0  0  0  0  0  0  0  0  0  0  0  0
    0.6130   12.9880   -4.4020 C   0  0  0  0  0  0  0  0  0  0  0  0
    2.5770   12.3240   -3.2210 O   0  0  0  0  0  0  0  0  0  0  0  0
    0.1360   12.0170   -5.3490 N   0  0  0  0  0  0  0  0  0  0  0  0
    0.8880   11.5880   -6.4860 C   0  0  0  0  0  0  0  0  0  0  0  0
   -0.9690   11.2120   -5.2420 C   0  0  0  0  0  0  0  0  0  0  0  0
    1.9470   12.0430   -6.8170 O   0  0  0  0  0  0  0  0  0  0  0  0
   -2.0350   10.9880   -4.5040 N   0  0  0  0  0  0  0  0  0  0  0  0
    0.1420   10.4590   -7.1510 C   0  0  0  0  0  0  0  0  0  0  0  0
   -0.9080   10.3570   -6.2970 C   0  0  0  0  0  0  0  0  0  0  0  0
   -2.6270    9.9310   -5.1910 N   0  0  0  0  0  0  0  0  0  0  0  0
    0.1560    9.5820   -8.2080 C   0  0  0  0  0  0  0  0  0  0  0  0
   -1.9530    9.5100   -6.3220 C   0  0  0  0  0  0  0  0  0  0  0  0
   -0.9220    8.6500   -8.3080 C   0  0  0  0  0  0  0  0  0  0  0  0
   -2.0110    8.5820   -7.3680 C   0  0  0  0  0  0  0  0  0  0  0  0
  2  1  1  0
  2  3  1  0
  2  4  1  0
  2  5  1  0
  4  6  1  0
  6  7  1  0
  6  8  1  0
  7  9  2  0
  8 10  2  0
  7 11  1  0
  8 12  1  0
 11 12  2  0
 10 13  1  0
 11 14  1  0
 12 15  1  0
 13 15  1  0
 14 16  2  0
 15 17  2  0
 16 17  1  0
M  END
