mac-x0284-mac-x0527
     RDKit          3D

 25 27  0  0  0  0  0  0  0  0999 V2000
   -4.1290   13.3920    0.9390 C   0  0  0  0  0  0  0  0  0  0  0  0
   -3.6740   13.5870   -0.4720 C   0  0  0  0  0  0  0  0  0  0  0  0
   -4.4740   13.2110   -1.5620 C   0  0  0  0  0  0  0  0  0  0  0  0
   -2.4390   14.1610   -0.7130 C   0  0  0  0  0  0  0  0  0  0  0  0
   -2.0240   14.3620   -2.0190 C   0  0  0  0  0  0  0  0  0  0  0  0
   -4.0370   13.4040   -2.8760 C   0  0  0  0  0  0  0  0  0  0  0  0
   -0.7890   15.0570   -2.3440 C   0  0  0  0  0  0  0  0  0  0  0  0
   -2.7980   13.9830   -3.0940 C   0  0  0  0  0  0  0  0  0  0  0  0
   -2.2650   14.2220   -4.3510 O   0  0  0  0  0  0  0  0  0  0  0  0
    0.0940   15.1390   -1.2320 O   0  0  0  0  0  0  0  0  0  0  0  0
   -0.1150   14.6110   -3.5130 O   0  0  0  0  0  0  0  0  0  0  0  0
   -1.9860   16.0710   -2.5260 C   0  0  0  0  0  0  0  0  0  0  0  0
   -2.1620   16.8810   -3.4500 O   0  0  0  0  0  0  0  0  0  0  0  0
   -3.0500   15.8880   -1.4240 C   0  0  0  0  0  0  0  0  0  0  0  0
   -1.6060   13.1360   -4.8770 C   0  0  0  0  0  0  0  0  0  0  0  0
   -4.4160   15.6700   -1.7070 C   0  0  0  0  0  0  0  0  0  0  0  0
   -2.6370   15.9240   -0.1130 N   0  0  0  0  0  0  0  0  0  0  0  0
   -2.2230   11.9220   -4.6010 C   0  0  0  0  0  0  0  0  0  0  0  0
   -0.4230   13.1770   -5.6300 C   0  0  0  0  0  0  0  0  0  0  0  0
   -5.3700   15.4880   -0.7360 N   0  0  0  0  0  0  0  0  0  0  0  0
   -3.5970   15.7360    0.8380 C   0  0  0  0  0  0  0  0  0  0  0  0
   -1.6770   10.7370   -5.0700 C   0  0  0  0  0  0  0  0  0  0  0  0
    0.1230   11.9810   -6.1040 C   0  0  0  0  0  0  0  0  0  0  0  0
   -4.9220   15.5240    0.5350 C   0  0  0  0  0  0  0  0  0  0  0  0
   -0.5080   10.7660   -5.8240 C   0  0  0  0  0  0  0  0  0  0  0  0
  1  2  1  0
  2  3  2  0
  2  4  1  0
  4  5  2  0
  3  6  1  0
  5  7  1  0
  5  8  1  0
  6  8  2  0
  8  9  1  0
  7 10  1  0
  7 11  1  0
  7 12  1  0
 12 13  2  0
 12 14  1  0
  9 15  1  0
 14 16  2  0
 14 17  1  0
 15 18  2  0
 15 19  1  0
 16 20  1  0
 17 21  2  0
 18 22  1  0
 19 23  2  0
 20 24  2  0
 21 24  1  0
 22 25  2  0
 23 25  1  0
M  END
