mac-x0124-mac-x0381
     RDKit          3D

 27 30  0  0  0  0  0  0  0  0999 V2000
   -0.2100   15.0520   -3.1970 C   0  0  0  0  0  0  0  0  0  0  0  0
   -1.3760   15.0250   -2.3450 N   0  0  0  0  0  0  0  0  0  0  0  0
   -2.6920   15.1210   -2.7460 C   0  0  0  0  0  0  0  0  0  0  0  0
   -1.3140   14.9030   -0.9780 C   0  0  0  0  0  0  0  0  0  0  0  0
   -3.4840   15.0490   -1.6160 C   0  0  0  0  0  0  0  0  0  0  0  0
   -2.6210   14.9060   -0.4870 C   0  0  0  0  0  0  0  0  0  0  0  0
   -0.1830   14.8010   -0.2630 N   0  0  0  0  0  0  0  0  0  0  0  0
   -2.7810   14.7750    0.9120 C   0  0  0  0  0  0  0  0  0  0  0  0
   -0.4500   14.6960    1.0530 C   0  0  0  0  0  0  0  0  0  0  0  0
   -4.0510   14.7420    1.5120 N   0  0  0  0  0  0  0  0  0  0  0  0
   -1.6530   14.6750    1.6660 N   0  0  0  0  0  0  0  0  0  0  0  0
   -4.1640   15.5290    2.7140 C   0  0  0  0  0  0  0  0  0  0  0  0
   -5.2570   15.1810    3.6960 C   0  0  0  0  0  0  0  0  0  0  0  0
   -6.1010   14.0140    3.3150 C   0  0  0  0  0  0  0  0  0  0  0  0
   -7.3640   14.6300    3.0290 N   0  0  0  0  0  0  0  0  0  0  0  0
   -8.4200   14.3600    3.6550 C   0  0  0  0  0  0  0  0  0  0  0  0
   -8.3550   13.4160    4.6440 N   0  0  0  0  0  0  0  0  0  0  0  0
   -9.7000   14.9980    3.3380 C   0  0  0  0  0  0  0  0  0  0  0  0
   -9.7300   15.8010    2.1960 C   0  0  0  0  0  0  0  0  0  0  0  0
  -10.8240   14.8070    4.1270 C   0  0  0  0  0  0  0  0  0  0  0  0
  -10.9190   16.4290    1.8190 C   0  0  0  0  0  0  0  0  0  0  0  0
  -12.0150   15.4280    3.7590 C   0  0  0  0  0  0  0  0  0  0  0  0
  -12.0780   16.2370    2.6080 C   0  0  0  0  0  0  0  0  0  0  0  0
  -10.9840   17.2400    0.6760 C   0  0  0  0  0  0  0  0  0  0  0  0
  -13.2730   16.8550    2.2260 C   0  0  0  0  0  0  0  0  0  0  0  0
  -12.1830   17.8510    0.3130 C   0  0  0  0  0  0  0  0  0  0  0  0
  -13.3250   17.6570    1.0860 C   0  0  0  0  0  0  0  0  0  0  0  0
  1  2  1  0
  2  3  1  0
  2  4  1  0
  3  5  2  0
  4  6  2  0
  5  6  1  0
  4  7  1  0
  6  8  1  0
  7  9  2  0
  8 10  1  0
  8 11  2  0
  9 11  1  0
 10 12  1  0
 12 13  1  0
 13 14  1  0
 14 15  1  0
 15 16  2  3
 16 17  1  0
 16 18  1  0
 18 19  2  0
 18 20  1  0
 19 21  1  0
 20 22  2  0
 21 23  2  0
 22 23  1  0
 21 24  1  0
 23 25  1  0
 24 26  2  0
 25 27  2  0
 26 27  1  0
M  END
