mac-x0284-diamond-x0805_0_A
     RDKit          3D

 19 21  0  0  0  0  0  0  0  0999 V2000
   -2.7720   15.1130    0.9540 C   0  0  0  0  0  0  0  0  0  0  0  0
   -2.3910   14.3400    2.0420 O   0  0  0  0  0  0  0  0  0  0  0  0
   -2.0160   14.7540   -0.2750 C   0  0  0  0  0  0  0  0  0  0  0  0
   -0.5540   14.6730   -0.3140 C   0  0  0  0  0  0  0  0  0  0  0  0
   -2.6780   14.4840   -1.4100 C   0  0  0  0  0  0  0  0  0  0  0  0
    0.1050   14.3420   -1.3840 C   0  0  0  0  0  0  0  0  0  0  0  0
   -1.9970   14.0860   -2.7240 C   0  0  0  0  0  0  0  0  0  0  0  0
    1.5400   14.1760   -1.6550 C   0  0  0  0  0  0  0  0  0  0  0  0
   -0.4350   13.9290   -2.9730 S   0  0  0  0  0  0  0  0  0  0  0  0
   -1.6450   13.7140   -3.9970 O   0  0  0  0  0  0  0  0  0  0  0  0
    1.1730   13.5060   -2.6880 N   0  0  0  0  0  0  0  0  0  0  0  0
    2.6860   14.6090   -1.1190 O   0  0  0  0  0  0  0  0  0  0  0  0
    0.4620   13.4070   -4.4920 C   0  0  2  0  0  0  0  0  0  0  0  0
    1.0180   13.7000   -3.5080 C   0  0  0  0  0  0  0  0  0  0  0  0
    1.6300   12.8400   -3.8920 C   0  0  1  0  0  0  0  0  0  0  0  0
    0.0180   14.2020   -5.5550 C   0  0  0  0  0  0  0  0  0  0  0  0
    1.3980   15.1090   -4.1330 C   0  0  0  0  0  0  0  0  0  0  0  0
    2.9500   13.2230   -4.1150 O   0  0  0  0  0  0  0  0  0  0  0  0
    0.7650   15.3280   -5.2620 O   0  0  0  0  0  0  0  0  0  0  0  0
  1  2  1  0
  1  3  1  0
  3  4  2  0
  3  5  1  0
  4  6  1  0
  5  7  2  0
  6  8  1  0
  6  9  2  0
  7  9  1  0
  9 10  1  0
  8 11  2  0
  8 12  1  0
  9 13  1  0
  9 14  1  0
 11 15  1  0
 13 15  1  0
 13 16  1  6
 14 17  1  0
 15 18  1  6
 16 19  1  0
 17 19  1  0
M  END
