mac-x0411-diamond-x1015_0_A
     RDKit          3D

 19 21  0  0  0  0  0  0  0  0999 V2000
    0.6550    9.5240   -7.7830 Cl  0  0  0  0  0  0  0  0  0  0  0  0
   -0.5750   10.0540   -6.6110 C   0  0  0  0  0  0  0  0  0  0  0  0
   -0.2540   11.1290   -5.6200 C   0  0  0  0  0  0  0  0  0  0  0  0
   -1.7360    9.4070   -6.7430 C   0  0  0  0  0  0  0  0  0  0  0  0
    1.1380   11.3930   -6.0560 O   0  0  0  0  0  0  0  0  0  0  0  0
   -1.9210    8.1850   -7.9900 Cl  0  0  0  0  0  0  0  0  0  0  0  0
   -1.5160   11.5330   -4.5540 S   0  0  0  0  0  0  0  0  0  0  0  0
   -2.8500    9.7360   -5.8450 C   0  0  0  0  0  0  0  0  0  0  0  0
   -2.8150   12.1330   -3.2600 Cl  0  0  0  0  0  0  0  0  0  0  0  0
    2.0810   12.4520   -5.8620 C   0  0  0  0  0  0  0  0  0  0  0  0
   -2.7600   10.6570   -4.8980 C   0  0  0  0  0  0  0  0  0  0  0  0
   -1.6870   12.7060   -3.2810 C   0  0  0  0  0  0  0  0  0  0  0  0
   -0.4840   12.5470   -3.9530 C   0  0  2  0  0  0  0  0  0  0  0  0
    1.7530   12.6990   -4.5860 C   0  0  0  0  0  0  0  0  0  0  0  0
    0.6320   12.5450   -4.6410 N   0  0  0  0  0  0  0  0  0  0  0  0
    0.2680   12.0190   -2.7950 N   0  0  0  0  0  0  0  0  0  0  0  0
   -0.4950   12.9920   -2.3500 C   0  0  0  0  0  0  0  0  0  0  0  0
    2.5750   13.0170   -3.5070 O   0  0  0  0  0  0  0  0  0  0  0  0
   -0.2300   13.8560   -1.4690 O   0  0  0  0  0  0  0  0  0  0  0  0
  1  2  1  0
  2  3  2  0
  2  4  1  0
  3  5  1  0
  4  6  1  0
  3  7  1  0
  4  8  2  0
  7  9  1  0
  5 10  1  0
  7 11  2  0
  8 11  1  0
  7 12  1  0
  7 13  1  0
 10 14  1  0
 13 15  1  6
 14 15  2  0
 13 16  1  0
 12 17  1  0
 16 17  1  0
 14 18  1  0
 17 19  2  0
M  END
