mac-x0282-mac-x0348
     RDKit          3D

 25 28  0  0  0  0  0  0  0  0999 V2000
    0.2040   18.7850   -6.2240 C   0  0  0  0  0  0  0  0  0  0  0  0
   -0.1530   17.5540   -5.5750 N   0  0  0  0  0  0  0  0  0  0  0  0
    0.7140   16.8420   -4.8240 C   0  0  0  0  0  0  0  0  0  0  0  0
   -1.3660   16.9180   -5.6060 C   0  0  0  0  0  0  0  0  0  0  0  0
    0.1000   15.7210   -4.3610 C   0  0  0  0  0  0  0  0  0  0  0  0
   -1.2300   15.7520   -4.8440 C   0  0  0  0  0  0  0  0  0  0  0  0
   -2.5710   17.2390   -6.2280 C   0  0  0  0  0  0  0  0  0  0  0  0
    0.7420   14.6890   -3.5150 C   0  0  0  0  0  0  0  0  0  0  0  0
   -2.3220   14.8870   -4.6970 C   0  0  0  0  0  0  0  0  0  0  0  0
   -3.6320   16.3430   -6.0580 C   0  0  0  0  0  0  0  0  0  0  0  0
    0.4380   13.2470   -3.9190 C   0  0  0  0  0  0  0  0  0  0  0  0
   -3.5190   15.1950   -5.3120 C   0  0  0  0  0  0  0  0  0  0  0  0
    0.6390   12.3560   -2.7330 C   0  0  0  0  0  0  0  0  0  0  0  0
    0.8740   12.6600   -1.5290 N   0  0  0  0  0  0  0  0  0  0  0  0
    0.5470   11.0440   -2.9900 O   0  0  0  0  0  0  0  0  0  0  0  0
    0.9620   14.0650   -1.1520 C   0  0  0  0  0  0  0  0  0  0  0  0
   -0.2870   14.3780   -0.4070 C   0  0  0  0  0  0  0  0  0  0  0  0
   -1.3980   14.6720   -1.1820 C   0  0  0  0  0  0  0  0  0  0  0  0
   -0.4200   14.3770    0.9860 C   0  0  0  0  0  0  0  0  0  0  0  0
   -2.5920   14.9440   -0.5380 C   0  0  0  0  0  0  0  0  0  0  0  0
   -1.5600   14.6310    1.6710 N   0  0  0  0  0  0  0  0  0  0  0  0
   -3.8950   15.2720   -0.9560 C   0  0  0  0  0  0  0  0  0  0  0  0
   -2.5880   14.9030    0.8510 C   0  0  0  0  0  0  0  0  0  0  0  0
   -4.6560   15.4200    0.1730 C   0  0  0  0  0  0  0  0  0  0  0  0
   -3.8510   15.1930    1.2600 N   0  0  0  0  0  0  0  0  0  0  0  0
  1  2  1  0
  2  3  1  0
  2  4  1  0
  3  5  2  0
  4  6  2  0
  5  6  1  0
  4  7  1  0
  5  8  1  0
  6  9  1  0
  7 10  2  0
  8 11  1  0
  9 12  2  0
 10 12  1  0
 11 13  1  0
 13 14  2  3
 13 15  1  0
 14 16  1  0
 16 17  1  0
 17 18  2  0
 17 19  1  0
 18 20  1  0
 19 21  2  0
 20 22  1  0
 20 23  2  0
 21 23  1  0
 22 24  2  0
 23 25  1  0
 24 25  1  0
M  END
