mac-x0509-mac-x0360
     RDKit          3D

 25 27  0  0  0  0  0  0  0  0999 V2000
   -2.2930    7.6990   -5.3470 O   0  0  0  0  0  0  0  0  0  0  0  0
   -1.6100    8.1850   -6.2060 C   0  0  0  0  0  0  0  0  0  0  0  0
   -1.9680    9.4580   -6.9600 C   0  0  1  0  0  0  0  0  0  0  0  0
   -0.3930    7.7000   -6.6830 N   0  0  0  0  0  0  0  0  0  0  0  0
   -2.4290   10.6280   -6.0170 C   0  0  0  0  0  0  0  0  0  0  0  0
   -0.8120    9.5350   -7.9700 C   0  0  0  0  0  0  0  0  0  0  0  0
    0.0630    8.4590   -7.7430 C   0  0  0  0  0  0  0  0  0  0  0  0
   -2.2450   10.6420   -4.4400 C   0  0  0  0  0  0  0  0  0  0  0  0
   -0.5330   10.4290   -8.9980 C   0  0  0  0  0  0  0  0  0  0  0  0
    1.1980    8.2350   -8.4980 C   0  0  0  0  0  0  0  0  0  0  0  0
   -3.1830    9.8370   -3.4560 C   0  0  0  0  0  0  0  0  0  0  0  0
    0.6190   10.2190   -9.7780 C   0  0  0  0  0  0  0  0  0  0  0  0
    1.4750    9.1290   -9.5290 C   0  0  0  0  0  0  0  0  0  0  0  0
   -4.6500   10.3050   -3.1640 C   0  0  0  0  0  0  0  0  0  0  0  0
   -4.9640   11.1930   -1.9330 C   0  0  0  0  0  0  0  0  0  0  0  0
   -4.2610   12.3900   -1.7320 C   0  0  0  0  0  0  0  0  0  0  0  0
   -5.9670   10.8570   -0.9770 C   0  0  0  0  0  0  0  0  0  0  0  0
   -4.5440   13.2170   -0.6320 C   0  0  0  0  0  0  0  0  0  0  0  0
   -6.2360   11.6970    0.1270 C   0  0  0  0  0  0  0  0  0  0  0  0
   -7.4570   11.2830    1.2790 Cl  0  0  0  0  0  0  0  0  0  0  0  0
   -3.6470   14.7350   -0.4210 S   0  0  0  0  0  0  0  0  0  0  0  0
   -5.5260   12.8760    0.3030 C   0  0  0  0  0  0  0  0  0  0  0  0
   -2.6120   14.6830   -1.7530 N   0  0  0  0  0  0  0  0  0  0  0  0
   -4.5540   15.8300   -0.6880 O   0  0  0  0  0  0  0  0  0  0  0  0
   -2.8520   14.6650    0.7800 O   0  0  0  0  0  0  0  0  0  0  0  0
  1  2  2  0
  2  3  1  0
  2  4  1  0
  3  5  1  1
  3  6  1  0
  4  7  1  0
  6  7  2  0
  5  8  1  0
  6  9  1  0
  7 10  1  0
  8 11  1  0
  9 12  2  0
 10 13  2  0
 12 13  1  0
 11 14  1  0
 14 15  1  0
 15 16  2  0
 15 17  1  0
 16 18  1  0
 17 19  2  0
 19 20  1  0
 18 21  1  0
 18 22  2  0
 19 22  1  0
 21 23  1  0
 21 24  2  0
 21 25  2  0
M  END
