mac-x0380-diamond-x0727_0_A
     RDKit          3D

 29 31  0  0  0  0  0  0  0  0999 V2000
   -1.2730   15.2500   -2.7410 O   0  0  0  0  0  0  0  0  0  0  0  0
   -2.6280   15.1650   -3.1350 C   0  0  0  0  0  0  0  0  0  0  0  0
   -2.9150   16.3500   -3.8230 O   0  0  0  0  0  0  0  0  0  0  0  0
   -2.6280   14.0990   -4.2290 C   0  0  0  0  0  0  0  0  0  0  0  0
   -3.4830   15.0640   -1.8370 C   0  0  0  0  0  0  0  0  0  0  0  0
   -1.3420   13.2510   -4.3280 C   0  0  0  0  0  0  0  0  0  0  0  0
   -4.8900   15.1230   -1.8660 C   0  0  0  0  0  0  0  0  0  0  0  0
   -2.8830   14.9280   -0.5620 C   0  0  0  0  0  0  0  0  0  0  0  0
   -0.0260   13.7280   -4.9340 C   0  0  0  0  0  0  0  0  0  0  0  0
   -5.6610   15.0530   -0.6870 C   0  0  0  0  0  0  0  0  0  0  0  0
   -3.6460   14.8600    0.6190 C   0  0  0  0  0  0  0  0  0  0  0  0
    0.9970   12.6080   -4.7550 C   0  0  2  0  0  0  0  0  0  0  0  0
   -5.0400   14.9240    0.5590 C   0  0  0  0  0  0  0  0  0  0  0  0
   -7.4340   15.1320   -0.8240 S   0  0  0  0  0  0  0  0  0  0  0  0
    0.4530   11.4280   -5.3960 N   0  0  0  0  0  0  0  0  0  0  0  0
    1.0350   12.1260   -3.3000 C   0  0  0  0  0  0  0  0  0  0  0  0
   -5.7760   14.8540    1.7680 N   0  0  0  0  0  0  0  0  0  0  0  0
   -7.8440   14.1460    0.6280 C   0  0  0  0  0  0  0  0  0  0  0  0
    0.5030   11.1030   -2.8870 O   0  0  0  0  0  0  0  0  0  0  0  0
    0.5500   11.1310   -6.7210 C   0  0  0  0  0  0  0  0  0  0  0  0
    1.7080   12.9170   -2.4550 O   0  0  0  0  0  0  0  0  0  0  0  0
   -7.1210   14.5990    1.8650 C   0  0  0  0  0  0  0  0  0  0  0  0
   -7.7170   14.7480    2.9390 O   0  0  0  0  0  0  0  0  0  0  0  0
    1.4170   11.5390   -7.4550 O   0  0  0  0  0  0  0  0  0  0  0  0
   -0.5880   10.2030   -7.0780 C   0  0  0  0  0  0  0  0  0  0  0  0
   -0.9790   10.0610   -8.5270 C   0  0  0  0  0  0  0  0  0  0  0  0
   -0.3130    8.7570   -6.7030 C   0  0  0  0  0  0  0  0  0  0  0  0
   -1.9820    8.9050   -8.4430 C   0  0  0  0  0  0  0  0  0  0  0  0
   -1.5900    8.1020   -7.1930 C   0  0  0  0  0  0  0  0  0  0  0  0
  2  1  1  0
  2  3  1  0
  2  4  1  0
  2  5  1  0
  4  6  1  0
  5  7  2  0
  5  8  1  0
  6  9  1  0
  7 10  1  0
  8 11  2  0
 12  9  1  1
 10 13  2  0
 11 13  1  0
 10 14  1  0
 12 15  1  0
 12 16  1  0
 13 17  1  0
 14 18  1  0
 16 19  2  0
 15 20  1  0
 16 21  1  0
 17 22  1  0
 18 22  1  0
 22 23  2  0
 20 24  2  0
 20 25  1  0
 25 26  1  0
 25 27  1  0
 26 28  1  0
 27 29  1  0
 28 29  1  0
M  END
