mac-x0326-mac-x0555
     RDKit          3D

 21 23  0  0  0  0  0  0  0  0999 V2000
   -6.4710   15.7320   -1.7410 Cl  0  0  0  0  0  0  0  0  0  0  0  0
   -4.9920   14.7060   -1.7360 C   0  0  1  0  0  0  0  0  0  0  0  0
   -3.9780   15.1660   -2.7990 C   0  0  0  0  0  0  0  0  0  0  0  0
   -4.5560   14.4080   -0.2510 C   0  0  1  0  0  0  0  0  0  0  0  0
   -2.5650   14.9410   -2.4580 C   0  0  0  0  0  0  0  0  0  0  0  0
   -2.9920   14.5990    0.0510 C   0  0  0  0  0  0  0  0  0  0  0  0
   -5.4020   15.1810    0.8040 C   0  0  0  0  0  0  0  0  0  0  0  0
   -5.2040   13.0320   -0.0570 C   0  0  0  0  0  0  0  0  0  0  0  0
   -1.6150   14.9700   -3.4540 N   0  0  0  0  0  0  0  0  0  0  0  0
   -2.1190   14.7000   -1.1860 C   0  0  0  0  0  0  0  0  0  0  0  0
   -6.8480   14.6190    1.1700 C   0  0  2  0  0  0  0  0  0  0  0  0
   -6.5160   13.0200   -0.7200 N   0  0  0  0  0  0  0  0  0  0  0  0
   -6.9620   13.9480    2.4650 N   0  0  0  0  0  0  0  0  0  0  0  0
   -0.4280   14.7570   -2.9440 C   0  0  0  0  0  0  0  0  0  0  0  0
   -0.4100   14.5270   -1.2270 S   0  0  0  0  0  0  0  0  0  0  0  0
   -7.4730   13.8020    0.0360 C   0  0  0  0  0  0  0  0  0  0  0  0
    0.8270   14.7100   -3.7750 C   0  0  0  0  0  0  0  0  0  0  0  0
    1.0360   13.3300   -4.3930 C   0  0  0  0  0  0  0  0  0  0  0  0
    1.1020   12.2870   -3.3140 C   0  0  0  0  0  0  0  0  0  0  0  0
    0.3930   11.1710   -3.6030 O   0  0  0  0  0  0  0  0  0  0  0  0
    1.7140   12.3900   -2.2670 O   0  0  0  0  0  0  0  0  0  0  0  0
  2  1  1  1
  2  3  1  0
  2  4  1  0
  3  5  1  0
  4  6  1  6
  4  7  1  0
  4  8  1  0
  5  9  1  0
  5 10  2  0
  6 10  1  0
  7 11  1  0
  8 12  1  0
 11 13  1  1
  9 14  2  0
 10 15  1  0
 14 15  1  0
 11 16  1  0
 12 16  1  0
 14 17  1  0
 17 18  1  0
 18 19  1  0
 19 20  1  0
 19 21  2  0
M  END
