mac-x0223-mac-x0344
     RDKit          3D

 21 22  0  0  0  0  0  0  0  0999 V2000
    1.2390   18.4940   -5.7790 C   0  0  0  0  0  0  0  0  0  0  0  0
    0.1350   18.3790   -4.9120 O   0  0  0  0  0  0  0  0  0  0  0  0
   -0.2770   17.1070   -4.7170 C   0  0  0  0  0  0  0  0  0  0  0  0
   -1.6430   16.9430   -4.7870 C   0  0  0  0  0  0  0  0  0  0  0  0
    0.5280   16.0170   -4.4630 C   0  0  0  0  0  0  0  0  0  0  0  0
   -2.3910   18.0510   -5.0130 O   0  0  0  0  0  0  0  0  0  0  0  0
   -2.2500   15.7100   -4.6220 C   0  0  0  0  0  0  0  0  0  0  0  0
   -0.0420   14.7570   -4.2760 C   0  0  0  0  0  0  0  0  0  0  0  0
    0.9050   13.6250   -3.9780 C   0  0  1  0  0  0  0  0  0  0  0  0
   -1.4400   14.6040   -4.3630 C   0  0  0  0  0  0  0  0  0  0  0  0
    0.2760   12.2030   -3.8530 C   0  0  0  0  0  0  0  0  0  0  0  0
    2.0280   13.6430   -4.8620 O   0  0  0  0  0  0  0  0  0  0  0  0
   -1.0200   12.1950   -3.3400 O   0  0  0  0  0  0  0  0  0  0  0  0
    1.0050   11.5510   -2.8390 O   0  0  0  0  0  0  0  0  0  0  0  0
    0.3140   11.4330   -5.0870 N   0  0  0  0  0  0  0  0  0  0  0  0
   -0.6440   10.6220   -5.7200 C   0  0  0  0  0  0  0  0  0  0  0  0
   -0.3270   10.1140   -7.0010 C   0  0  0  0  0  0  0  0  0  0  0  0
   -1.8890   10.2670   -5.1970 C   0  0  0  0  0  0  0  0  0  0  0  0
   -1.2090    9.2940   -7.7140 C   0  0  0  0  0  0  0  0  0  0  0  0
   -2.7790    9.4450   -5.9070 C   0  0  0  0  0  0  0  0  0  0  0  0
   -2.4400    8.9580   -7.1670 C   0  0  0  0  0  0  0  0  0  0  0  0
  1  2  1  0
  2  3  1  0
  3  4  2  0
  3  5  1  0
  4  6  1  0
  4  7  1  0
  5  8  2  0
  8  9  1  0
  7 10  2  0
  8 10  1  0
  9 11  1  0
  9 12  1  6
 11 13  1  0
 11 14  1  0
 11 15  1  0
 15 16  1  0
 16 17  2  0
 16 18  1  0
 17 19  1  0
 18 20  2  0
 19 21  2  0
 20 21  1  0
M  END
