mac-x0148-mac-x0417
     RDKit          3D

 30 35  0  0  0  0  0  0  0  0999 V2000
    2.0980   13.0660   -1.8610 O   0  0  0  0  0  0  0  0  0  0  0  0
    1.0570   12.3350   -2.2920 C   0  0  0  0  0  0  0  0  0  0  0  0
    0.8930   11.1440   -2.0790 O   0  0  0  0  0  0  0  0  0  0  0  0
    0.1130   13.1160   -3.1430 C   0  0  1  0  0  0  0  0  0  0  0  0
   -0.8830   12.1060   -3.5540 C   0  0  0  0  0  0  0  0  0  0  0  0
   -0.6170   14.3560   -2.6720 N   0  0  0  0  0  0  0  0  0  0  0  0
   -1.3700   14.8840   -3.8720 C   0  0  2  0  0  0  0  0  0  0  0  0
   -1.2400   12.4510   -4.9410 C   0  0  1  0  0  0  0  0  0  0  0  0
   -1.0310   14.5060   -1.2850 C   0  0  0  0  0  0  0  0  0  0  0  0
   -2.8600   15.1650   -3.7450 C   0  0  0  0  0  0  0  0  0  0  0  0
   -1.3350   13.9670   -5.1390 C   0  0  1  0  0  0  0  0  0  0  0  0
   -0.0840   14.3720   -0.2730 N   0  0  0  0  0  0  0  0  0  0  0  0
   -2.2830   14.7890   -0.7910 C   0  0  0  0  0  0  0  0  0  0  0  0
   -0.5340   11.6350   -5.9650 C   0  0  0  0  0  0  0  0  0  0  0  0
   -2.7210   14.1830   -5.7570 C   0  0  0  0  0  0  0  0  0  0  0  0
   -3.2760   15.3090   -5.1030 O   0  0  0  0  0  0  0  0  0  0  0  0
   -0.3870   14.4190    1.0670 C   0  0  0  0  0  0  0  0  0  0  0  0
   -2.4980   14.8940    0.6890 C   0  0  0  0  0  0  0  0  0  0  0  0
   -3.6080   15.0590   -1.2790 C   0  0  0  0  0  0  0  0  0  0  0  0
    0.6480   11.8370   -6.5680 N   0  0  0  0  0  0  0  0  0  0  0  0
   -1.1530   10.4860   -6.3820 C   0  0  0  0  0  0  0  0  0  0  0  0
   -1.5230   14.6530    1.5940 N   0  0  0  0  0  0  0  0  0  0  0  0
   -3.7080   15.2290    1.0120 N   0  0  0  0  0  0  0  0  0  0  0  0
   -4.3590   15.3180   -0.1980 C   0  0  0  0  0  0  0  0  0  0  0  0
    0.7790   10.7510   -7.4380 O   0  0  0  0  0  0  0  0  0  0  0  0
   -0.3170    9.9450   -7.3120 C   0  0  0  0  0  0  0  0  0  0  0  0
   -2.3560    9.8740   -6.0400 C   0  0  0  0  0  0  0  0  0  0  0  0
   -0.6060    8.7640   -7.9750 C   0  0  0  0  0  0  0  0  0  0  0  0
   -2.6840    8.6920   -6.6760 C   0  0  0  0  0  0  0  0  0  0  0  0
   -1.8230    8.1460   -7.6310 C   0  0  0  0  0  0  0  0  0  0  0  0
  1  2  1  0
  2  3  2  0
  4  2  1  1
  4  5  1  0
  4  6  1  0
  6  7  1  0
  5  8  1  0
  6  9  1  0
  7 10  1  1
  7 11  1  0
  8 11  1  0
  9 12  1  0
  9 13  2  0
  8 14  1  6
 11 15  1  1
 10 16  1  0
 15 16  1  0
 12 17  1  0
 13 18  1  0
 13 19  1  0
 14 20  2  0
 14 21  1  0
 17 22  2  0
 18 22  1  0
 18 23  2  0
 19 24  2  0
 23 24  1  0
 20 25  1  0
 21 26  2  0
 25 26  1  0
 21 27  1  0
 26 28  1  0
 27 29  2  0
 28 30  2  0
 29 30  1  0
M  END
