mac-x0555-mac-x0527
     RDKit          3D

 21 23  0  0  0  0  0  0  0  0999 V2000
   -7.6680   14.4050    2.9440 N   0  0  0  0  0  0  0  0  0  0  0  0
   -7.0910   14.5540    1.6850 C   0  0  0  0  0  0  0  0  0  0  0  0
   -7.7940   14.5730    0.4810 C   0  0  0  0  0  0  0  0  0  0  0  0
   -5.7250   14.6950    1.6020 C   0  0  0  0  0  0  0  0  0  0  0  0
   -5.0950   14.8390    0.3800 C   0  0  0  0  0  0  0  0  0  0  0  0
   -7.2200   14.7170   -0.7430 N   0  0  0  0  0  0  0  0  0  0  0  0
   -5.8810   14.8440   -0.7910 C   0  0  0  0  0  0  0  0  0  0  0  0
   -3.7100   14.9680    0.3350 C   0  0  0  0  0  0  0  0  0  0  0  0
   -5.2260   14.9800   -2.0070 C   0  0  0  0  0  0  0  0  0  0  0  0
   -3.0840   15.0920   -0.8780 C   0  0  0  0  0  0  0  0  0  0  0  0
   -3.8280   15.0960   -2.0380 C   0  0  0  0  0  0  0  0  0  0  0  0
   -3.0920   15.2150   -3.2960 C   0  0  0  0  0  0  0  0  0  0  0  0
   -3.6550   15.5000   -4.3350 O   0  0  0  0  0  0  0  0  0  0  0  0
   -1.7460   14.9580   -3.1560 N   0  0  0  0  0  0  0  0  0  0  0  0
   -0.8770   14.8190   -4.2930 C   0  0  0  0  0  0  0  0  0  0  0  0
   -0.8600   13.3970   -4.7880 C   0  0  0  0  0  0  0  0  0  0  0  0
   -1.8240   12.4670   -4.3570 C   0  0  0  0  0  0  0  0  0  0  0  0
    0.1260   12.9850   -5.6920 C   0  0  0  0  0  0  0  0  0  0  0  0
   -1.7950   11.1540   -4.8270 C   0  0  0  0  0  0  0  0  0  0  0  0
    0.1530   11.6770   -6.1600 C   0  0  0  0  0  0  0  0  0  0  0  0
   -0.8050   10.7560   -5.7310 C   0  0  0  0  0  0  0  0  0  0  0  0
  1  2  1  0
  2  3  2  0
  2  4  1  0
  4  5  2  0
  3  6  1  0
  5  7  1  0
  6  7  2  0
  5  8  1  0
  7  9  1  0
  8 10  2  0
  9 11  2  0
 10 11  1  0
 11 12  1  0
 12 13  2  0
 12 14  1  0
 14 15  1  0
 15 16  1  0
 16 17  2  0
 16 18  1  0
 17 19  1  0
 18 20  2  0
 19 21  2  0
 20 21  1  0
M  END
