mac-x0142-diamond-x0900_1_A
     RDKit          3D

 25 29  0  0  0  0  0  0  0  0999 V2000
   -0.9970    9.8120   -9.7810 O   0  0  0  0  0  0  0  0  0  0  0  0
   -0.7840    9.5430   -8.6130 C   0  0  0  0  0  0  0  0  0  0  0  0
    0.1810    8.6890   -8.1520 N   0  0  0  0  0  0  0  0  0  0  0  0
   -1.5110   10.0720   -7.3920 C   0  0  2  0  0  0  0  0  0  0  0  0
   -1.1270   11.5430   -7.0970 C   0  0  0  0  0  0  0  0  0  0  0  0
   -1.2470    8.9920   -6.3210 C   0  0  0  0  0  0  0  0  0  0  0  0
   -0.2170    8.0550   -6.9340 C   0  0  0  0  0  0  0  0  0  0  0  0
   -0.0740   11.8240   -6.0020 C   0  0  0  0  0  0  0  0  0  0  0  0
   -0.2430   13.2020   -5.2900 C   0  0  2  0  0  0  0  0  0  0  0  0
    0.7960   13.5640   -4.2190 C   0  0  0  0  0  0  0  0  0  0  0  0
   -1.6490   13.2290   -4.6340 C   0  0  0  0  0  0  0  0  0  0  0  0
    2.2470   13.1630   -4.4300 C   0  0  0  0  0  0  0  0  0  0  0  0
    1.4110   12.4260   -3.4240 C   0  0  0  0  0  0  0  0  0  0  0  0
   -1.9080   14.5030   -3.8250 C   0  0  0  0  0  0  0  0  0  0  0  0
    0.4650   14.8160   -3.4090 C   0  0  0  0  0  0  0  0  0  0  0  0
   -0.8800   14.6570   -2.7960 N   0  0  0  0  0  0  0  0  0  0  0  0
   -1.1410   14.7130   -1.4050 C   0  0  0  0  0  0  0  0  0  0  0  0
   -0.1380   14.5560   -0.4560 N   0  0  0  0  0  0  0  0  0  0  0  0
   -2.3630   14.9360   -0.8580 C   0  0  0  0  0  0  0  0  0  0  0  0
   -0.3790   14.5730    0.8990 C   0  0  0  0  0  0  0  0  0  0  0  0
   -2.5270   14.9870    0.6240 C   0  0  0  0  0  0  0  0  0  0  0  0
   -3.6970   15.1910   -1.3160 C   0  0  0  0  0  0  0  0  0  0  0  0
   -1.5040   14.7620    1.4900 N   0  0  0  0  0  0  0  0  0  0  0  0
   -3.7460   15.2760    0.9810 N   0  0  0  0  0  0  0  0  0  0  0  0
   -4.4310   15.3890   -0.2140 C   0  0  0  0  0  0  0  0  0  0  0  0
  1  2  2  0
  2  3  1  0
  2  4  1  0
  4  5  1  1
  4  6  1  0
  3  7  1  0
  6  7  1  0
  5  8  1  0
  9  8  1  1
  9 10  1  0
  9 11  1  0
 10 12  1  0
 10 13  1  0
 12 13  1  0
 11 14  1  0
 10 15  1  0
 14 16  1  0
 15 16  1  0
 16 17  1  0
 17 18  1  0
 17 19  2  0
 18 20  1  0
 19 21  1  0
 19 22  1  0
 20 23  2  0
 21 23  1  0
 21 24  2  0
 22 25  2  0
 24 25  1  0
M  END
