mac-x0358-diamond-x0962_0_A
     RDKit          3D

 19 20  0  0  0  0  0  0  0  0999 V2000
    1.3460   12.7820   -2.0400 O   0  0  0  0  0  0  0  0  0  0  0  0
    0.6700   12.0690   -2.9590 C   0  0  0  0  0  0  0  0  0  0  0  0
    0.0840   11.0380   -2.6590 O   0  0  0  0  0  0  0  0  0  0  0  0
    0.7240   12.6750   -4.3300 C   0  0  0  0  0  0  0  0  0  0  0  0
   -0.6130   13.1750   -4.8580 C   0  0  0  0  0  0  0  0  0  0  0  0
   -1.2480   12.4800   -5.8760 C   0  0  0  0  0  0  0  0  0  0  0  0
   -1.2660   14.3150   -4.3720 C   0  0  0  0  0  0  0  0  0  0  0  0
   -0.6900   11.3420   -6.3790 O   0  0  0  0  0  0  0  0  0  0  0  0
   -0.7390   15.1150   -3.2420 C   0  0  0  0  0  0  0  0  0  0  0  0
   -2.4600   12.8920   -6.4220 C   0  0  0  0  0  0  0  0  0  0  0  0
   -2.4860   14.7460   -4.9230 C   0  0  0  0  0  0  0  0  0  0  0  0
   -1.7800   14.9630   -2.1900 C   0  0  0  0  0  0  0  0  0  0  0  0
   -3.0810   14.0370   -5.9510 C   0  0  0  0  0  0  0  0  0  0  0  0
   -2.6760   14.9290   -1.3770 C   0  0  0  0  0  0  0  0  0  0  0  0
   -3.6740   15.0130   -0.3720 C   0  0  0  0  0  0  0  0  0  0  0  0
   -3.4240   15.3740    0.9170 N   0  0  0  0  0  0  0  0  0  0  0  0
   -5.0290   14.7800   -0.4250 C   0  0  0  0  0  0  0  0  0  0  0  0
   -4.6130   15.3470    1.5860 C   0  0  0  0  0  0  0  0  0  0  0  0
   -5.6020   14.9890    0.8020 N   0  0  0  0  0  0  0  0  0  0  0  0
  1  2  1  0
  2  3  2  0
  2  4  1  0
  4  5  1  0
  5  6  2  0
  5  7  1  0
  6  8  1  0
  7  9  1  0
  6 10  1  0
  7 11  2  0
  9 12  1  0
 10 13  2  0
 11 13  1  0
 12 14  3  0
 14 15  1  0
 15 16  1  0
 15 17  2  0
 16 18  1  0
 17 19  1  0
 18 19  2  0
M  END
