mac-x0360-mac-x0576
     RDKit          3D

 24 26  0  0  0  0  0  0  0  0999 V2000
   -8.3970   10.9790    0.0550 Cl  0  0  0  0  0  0  0  0  0  0  0  0
   -7.0690   10.8050   -1.0280 C   0  0  0  0  0  0  0  0  0  0  0  0
   -6.6520    9.5330   -1.3940 C   0  0  0  0  0  0  0  0  0  0  0  0
   -6.4240   11.9330   -1.5290 C   0  0  0  0  0  0  0  0  0  0  0  0
   -5.3430   11.7770   -2.4080 C   0  0  0  0  0  0  0  0  0  0  0  0
   -5.5770    9.3900   -2.2670 C   0  0  0  0  0  0  0  0  0  0  0  0
   -5.0590    7.8130   -2.7170 Cl  0  0  0  0  0  0  0  0  0  0  0  0
   -4.5120   13.2160   -3.0610 S   0  0  0  0  0  0  0  0  0  0  0  0
   -4.9130   10.5000   -2.7800 C   0  0  0  0  0  0  0  0  0  0  0  0
   -3.1180   13.3260   -2.2300 N   0  0  0  0  0  0  0  0  0  0  0  0
   -5.3430   14.3730   -2.8100 O   0  0  0  0  0  0  0  0  0  0  0  0
   -4.1890   12.8830   -4.4320 O   0  0  0  0  0  0  0  0  0  0  0  0
   -2.8520   14.1810   -1.2690 C   0  0  0  0  0  0  0  0  0  0  0  0
   -1.5890   14.0890   -0.7500 N   0  0  0  0  0  0  0  0  0  0  0  0
   -3.7660   15.2750   -0.6710 C   0  0  2  0  0  0  0  0  0  0  0  0
   -1.3330   14.3120    0.6200 C   0  0  1  0  0  0  0  0  0  0  0  0
   -3.5410   15.4130    0.8950 C   0  0  2  0  0  0  0  0  0  0  0  0
   -5.1630   15.0410   -1.1000 N   0  0  0  0  0  0  0  0  0  0  0  0
   -0.3180   15.2960    0.8900 N   0  0  0  0  0  0  0  0  0  0  0  0
   -2.4200   14.6760    1.4870 N   0  0  0  0  0  0  0  0  0  0  0  0
   -4.6800   15.0310    1.7240 N   0  0  0  0  0  0  0  0  0  0  0  0
   -5.8690   14.1410   -0.1920 C   0  0  0  0  0  0  0  0  0  0  0  0
   -5.8880   14.6830    1.2110 C   0  0  0  0  0  0  0  0  0  0  0  0
   -6.9290   14.8190    1.8640 O   0  0  0  0  0  0  0  0  0  0  0  0
  1  2  1  0
  2  3  2  0
  2  4  1  0
  4  5  2  0
  3  6  1  0
  6  7  1  0
  5  8  1  0
  5  9  1  0
  6  9  2  0
  8 10  1  0
  8 11  2  0
  8 12  2  0
 10 13  2  3
 13 14  1  0
 13 15  1  0
 14 16  1  0
 15 17  1  0
 15 18  1  1
 16 19  1  6
 16 20  1  0
 17 20  1  1
 17 21  1  0
 18 22  1  0
 21 23  1  0
 22 23  1  0
 23 24  2  0
M  END
