mac-x0124-diamond-x0962_0_A
     RDKit          3D

 17 19  0  0  0  0  0  0  0  0999 V2000
    0.4250   14.7180   -3.0510 C   0  0  0  0  0  0  0  0  0  0  0  0
   -0.7950   14.7610   -2.2740 N   0  0  0  0  0  0  0  0  0  0  0  0
   -2.0520   14.8800   -2.7910 C   0  0  0  0  0  0  0  0  0  0  0  0
   -0.8550   14.6900   -0.9040 C   0  0  0  0  0  0  0  0  0  0  0  0
   -2.9490   14.8940   -1.7380 C   0  0  0  0  0  0  0  0  0  0  0  0
   -2.1850   14.7670   -0.5230 C   0  0  0  0  0  0  0  0  0  0  0  0
    0.1960   14.5730   -0.0910 N   0  0  0  0  0  0  0  0  0  0  0  0
   -2.4240   14.7110    0.8700 C   0  0  0  0  0  0  0  0  0  0  0  0
   -0.1880   14.5310    1.2030 C   0  0  0  0  0  0  0  0  0  0  0  0
   -4.4170   15.0250   -1.8940 C   0  0  0  0  0  0  0  0  0  0  0  0
   -3.6760   14.7800    1.4640 N   0  0  0  0  0  0  0  0  0  0  0  0
   -1.4120   14.5880    1.7160 N   0  0  0  0  0  0  0  0  0  0  0  0
   -5.1130   14.9040   -0.6050 C   0  0  0  0  0  0  0  0  0  0  0  0
   -4.6380   15.4300    0.5630 N   0  0  0  0  0  0  0  0  0  0  0  0
   -6.2920   14.2990   -0.2600 C   0  0  0  0  0  0  0  0  0  0  0  0
   -5.5270   15.1160    1.5450 C   0  0  0  0  0  0  0  0  0  0  0  0
   -6.5430   14.4350    1.0750 N   0  0  0  0  0  0  0  0  0  0  0  0
  1  2  1  0
  2  3  1  0
  2  4  1  0
  3  5  2  0
  4  6  2  0
  5  6  1  0
  4  7  1  0
  6  8  1  0
  7  9  2  0
  5 10  1  0
  8 11  1  0
  8 12  2  0
  9 12  1  0
 10 13  1  0
 13 14  1  0
 13 15  2  0
 14 16  1  0
 15 17  1  0
 16 17  2  0
M  END
