mac-x0326-mac-x0358
     RDKit          3D

 22 24  0  0  0  0  0  0  0  0999 V2000
   -6.2470   15.4410   -1.5130 Cl  0  0  0  0  0  0  0  0  0  0  0  0
   -4.5550   15.2010   -1.3170 C   0  0  0  0  0  0  0  0  0  0  0  0
   -3.7250   15.1780   -2.4350 C   0  0  0  0  0  0  0  0  0  0  0  0
   -4.0400   15.0300   -0.0350 C   0  0  0  0  0  0  0  0  0  0  0  0
   -2.3460   14.9790   -2.2440 C   0  0  0  0  0  0  0  0  0  0  0  0
   -2.6740   14.8310    0.1680 C   0  0  0  0  0  0  0  0  0  0  0  0
   -1.4020   14.9360   -3.2360 N   0  0  0  0  0  0  0  0  0  0  0  0
   -1.8390   14.8100   -0.9560 C   0  0  0  0  0  0  0  0  0  0  0  0
   -0.2030   14.7420   -2.7360 C   0  0  0  0  0  0  0  0  0  0  0  0
   -0.1290   14.5990   -1.0290 S   0  0  0  0  0  0  0  0  0  0  0  0
    1.0230   14.6300   -3.5950 C   0  0  0  0  0  0  0  0  0  0  0  0
    0.7960   13.3780   -4.4240 C   0  0  1  0  0  0  0  0  0  0  0  0
    1.0810   12.1950   -3.5250 C   0  0  0  0  0  0  0  0  0  0  0  0
   -0.6220   13.5790   -4.9450 C   0  0  0  0  0  0  0  0  0  0  0  0
    0.3660   11.0920   -3.8220 O   0  0  0  0  0  0  0  0  0  0  0  0
    1.8580   12.1630   -2.5920 O   0  0  0  0  0  0  0  0  0  0  0  0
   -1.5060   12.5410   -5.2910 C   0  0  0  0  0  0  0  0  0  0  0  0
   -1.0910   14.9020   -5.0800 C   0  0  0  0  0  0  0  0  0  0  0  0
   -1.1080   11.2330   -5.1780 O   0  0  0  0  0  0  0  0  0  0  0  0
   -2.7970   12.8250   -5.7480 C   0  0  0  0  0  0  0  0  0  0  0  0
   -2.3780   15.1850   -5.5290 C   0  0  0  0  0  0  0  0  0  0  0  0
   -3.2320   14.1480   -5.8650 C   0  0  0  0  0  0  0  0  0  0  0  0
  1  2  1  0
  2  3  2  0
  2  4  1  0
  3  5  1  0
  4  6  2  0
  5  7  1  0
  5  8  2  0
  6  8  1  0
  7  9  2  0
  8 10  1  0
  9 10  1  0
  9 11  1  0
 12 11  1  1
 12 13  1  0
 12 14  1  0
 13 15  1  0
 13 16  2  0
 14 17  2  0
 14 18  1  0
 17 19  1  0
 17 20  1  0
 18 21  2  0
 20 22  2  0
 21 22  1  0
M  END
