mac-x0228-diamond-x0844_0_A
     RDKit          3D

 12 13  0  0  0  0  0  0  0  0999 V2000
   -1.0770   14.5570   -1.7570 O   0  0  0  0  0  0  0  0  0  0  0  0
   -2.0470   14.6740   -2.6770 C   0  0  0  0  0  0  0  0  0  0  0  0
   -1.7880   14.6940   -3.8680 O   0  0  0  0  0  0  0  0  0  0  0  0
   -3.4060   14.7680   -2.0820 C   0  0  0  0  0  0  0  0  0  0  0  0
   -3.6420   14.5630   -0.7140 C   0  0  0  0  0  0  0  0  0  0  0  0
   -4.4720   15.0710   -2.9420 C   0  0  0  0  0  0  0  0  0  0  0  0
   -4.9470   14.6670   -0.2590 C   0  0  0  0  0  0  0  0  0  0  0  0
   -5.7820   15.1750   -2.4580 C   0  0  0  0  0  0  0  0  0  0  0  0
   -5.9890   14.9680   -1.1160 C   0  0  0  0  0  0  0  0  0  0  0  0
   -5.4810   14.4940    1.1040 C   0  0  0  0  0  0  0  0  0  0  0  0
   -7.2150   15.0320   -0.5000 O   0  0  0  0  0  0  0  0  0  0  0  0
   -6.9730   14.4110    0.7820 C   0  0  0  0  0  0  0  0  0  0  0  0
  1  2  1  0
  2  3  2  0
  2  4  1  0
  4  5  2  0
  4  6  1  0
  5  7  1  0
  6  8  2  0
  7  9  2  0
  8  9  1  0
  7 10  1  0
  9 11  1  0
 10 12  1  0
 11 12  1  0
M  END
