mac-x0347-diamond-x0805_0_A
     RDKit          3D

 24 27  0  0  0  0  0  0  0  0999 V2000
    1.3210   14.9080   -2.1000 O   0  0  0  0  0  0  0  0  0  0  0  0
    0.5160   13.8320   -1.6800 C   0  0  2  0  0  0  0  0  0  0  0  0
    1.1030   12.6090   -2.1550 N   0  0  0  0  0  0  0  0  0  0  0  0
   -0.9160   13.8380   -2.2480 C   0  0  1  0  0  0  0  0  0  0  0  0
    0.1230   11.9850   -3.0300 C   0  0  2  0  0  0  0  0  0  0  0  0
   -1.9890   14.5030   -1.4140 C   0  0  2  0  0  0  0  0  0  0  0  0
   -0.9080   14.2010   -3.7520 C   0  0  2  0  0  0  0  0  0  0  0  0
   -1.9290   14.1790   -0.0070 O   0  0  0  0  0  0  0  0  0  0  0  0
    0.4250   10.6550   -3.3360 O   0  0  0  0  0  0  0  0  0  0  0  0
   -3.3120   14.0440   -1.9550 C   0  0  2  0  0  0  0  0  0  0  0  0
   -2.3190   14.3650   -4.2700 N   0  0  0  0  0  0  0  0  0  0  0  0
   -0.1860   12.8870   -4.2520 C   0  0  1  0  0  0  0  0  0  0  0  0
   -0.0490   15.4790   -4.0980 C   0  0  0  0  0  0  0  0  0  0  0  0
   -2.4610   15.1910    0.8480 C   0  0  0  0  0  0  0  0  0  0  0  0
   -3.4670   14.6260   -3.3590 C   0  0  0  0  0  0  0  0  0  0  0  0
   -4.4260   14.2500   -0.9440 C   0  0  0  0  0  0  0  0  0  0  0  0
    1.0340   13.1310   -5.1330 C   0  0  0  0  0  0  0  0  0  0  0  0
    1.4450   15.3190   -4.4310 C   0  0  0  0  0  0  0  0  0  0  0  0
   -4.2470   13.8240    0.3790 C   0  0  0  0  0  0  0  0  0  0  0  0
   -5.6320   14.8480   -1.2990 C   0  0  0  0  0  0  0  0  0  0  0  0
    1.9240   13.9840   -4.4320 O   0  0  0  0  0  0  0  0  0  0  0  0
   -5.2440   13.9970    1.3160 C   0  0  0  0  0  0  0  0  0  0  0  0
   -6.6350   15.0150   -0.3490 C   0  0  0  0  0  0  0  0  0  0  0  0
   -6.4390   14.5890    0.9620 C   0  0  0  0  0  0  0  0  0  0  0  0
  2  1  1  6
  2  3  1  0
  4  2  1  1
  3  5  1  0
  4  6  1  0
  4  7  1  0
  6  8  1  1
  5  9  1  6
  6 10  1  0
  7 11  1  0
  5 12  1  0
  7 12  1  0
  7 13  1  1
  8 14  1  0
 10 15  1  0
 11 15  1  0
 10 16  1  1
 12 17  1  1
 13 18  1  0
 16 19  2  0
 16 20  1  0
 17 21  1  0
 18 21  1  0
 19 22  1  0
 20 23  2  0
 22 24  2  0
 23 24  1  0
M  END
