mac-x0333-diamond-x0805_0_A
     RDKit          3D

 26 29  0  0  0  0  0  0  0  0999 V2000
   -4.4760   14.9900   -3.4090 O   0  0  0  0  0  0  0  0  0  0  0  0
   -5.0010   15.0100   -2.1340 C   0  0  0  0  0  0  0  0  0  0  0  0
   -4.1660   14.5980   -1.1340 C   0  0  0  0  0  0  0  0  0  0  0  0
   -6.2620   15.3940   -1.9040 C   0  0  0  0  0  0  0  0  0  0  0  0
   -6.6150   15.3220   -0.6050 C   0  0  0  0  0  0  0  0  0  0  0  0
   -4.4590   14.5790    0.2090 C   0  0  0  0  0  0  0  0  0  0  0  0
   -3.1070   14.1930   -1.8600 C   0  0  0  0  0  0  0  0  0  0  0  0
   -5.7630   14.9460    0.4290 C   0  0  0  0  0  0  0  0  0  0  0  0
   -7.8500   15.5960   -0.1520 O   0  0  0  0  0  0  0  0  0  0  0  0
   -3.6740   13.1070   -2.5220 C   0  0  0  0  0  0  0  0  0  0  0  0
   -1.8400   14.5750   -2.0580 C   0  0  0  0  0  0  0  0  0  0  0  0
   -3.5170   14.1660    1.2780 C   0  0  0  0  0  0  0  0  0  0  0  0
   -6.4240   14.9840    1.6080 O   0  0  0  0  0  0  0  0  0  0  0  0
   -7.7450   14.8240    1.0640 C   0  0  0  0  0  0  0  0  0  0  0  0
   -3.0070   12.3670   -3.4160 C   0  0  0  0  0  0  0  0  0  0  0  0
   -1.1540   13.8230   -2.9830 C   0  0  0  0  0  0  0  0  0  0  0  0
   -1.7280   12.7330   -3.6550 C   0  0  0  0  0  0  0  0  0  0  0  0
    0.2150   14.1070   -3.3340 C   0  0  1  0  0  0  0  0  0  0  0  0
    0.8490   12.8460   -3.8520 C   0  0  2  0  0  0  0  0  0  0  0  0
    0.3160   15.2760   -4.2530 C   0  0  0  0  0  0  0  0  0  0  0  0
    0.7240   11.9400   -2.6340 C   0  0  0  0  0  0  0  0  0  0  0  0
    2.2340   13.1560   -4.3700 C   0  0  0  0  0  0  0  0  0  0  0  0
    1.7460   15.5920   -4.4300 C   0  0  0  0  0  0  0  0  0  0  0  0
    0.4990   10.6350   -2.9240 O   0  0  0  0  0  0  0  0  0  0  0  0
    0.7850   12.3390   -1.4780 O   0  0  0  0  0  0  0  0  0  0  0  0
    2.6140   14.4980   -4.0390 O   0  0  0  0  0  0  0  0  0  0  0  0
  1  2  1  0
  2  3  2  0
  2  4  1  0
  4  5  2  0
  3  6  1  0
  3  7  1  0
  5  8  1  0
  6  8  2  0
  5  9  1  0
  7 10  2  0
  7 11  1  0
  6 12  1  0
  8 13  1  0
  9 14  1  0
 13 14  1  0
 10 15  1  0
 11 16  2  0
 15 17  2  0
 16 17  1  0
 18 16  1  6
 18 19  1  0
 18 20  1  0
 19 21  1  1
 19 22  1  0
 20 23  1  0
 21 24  1  0
 21 25  2  0
 22 26  1  0
 23 26  1  0
M  END
