mac-x0302-mac-x0193
     RDKit          3D

 27 28  0  0  0  0  0  0  0  0999 V2000
    1.2840   14.0290   -3.6560 O   0  0  0  0  0  0  0  0  0  0  0  0
    0.0740   13.9500   -3.0610 C   0  0  0  0  0  0  0  0  0  0  0  0
   -0.5070   12.8370   -2.9110 N   0  0  0  0  0  0  0  0  0  0  0  0
   -0.5220   15.2160   -2.6270 C   0  0  0  0  0  0  0  0  0  0  0  0
   -1.7170   14.8340   -1.9120 N   0  0  0  0  0  0  0  0  0  0  0  0
    0.0650   11.6570   -3.4250 C   0  0  2  0  0  0  0  0  0  0  0  0
   -2.9930   15.2050   -2.2800 C   0  0  0  0  0  0  0  0  0  0  0  0
    1.0200   11.1490   -2.5480 O   0  0  0  0  0  0  0  0  0  0  0  0
    0.6700   12.0520   -4.7790 C   0  0  0  0  0  0  0  0  0  0  0  0
   -3.3280   15.5580   -3.4080 O   0  0  0  0  0  0  0  0  0  0  0  0
    0.0660   11.2840   -5.8440 N   0  0  0  0  0  0  0  0  0  0  0  0
   -3.9450   15.1340   -1.1510 C   0  0  0  0  0  0  0  0  0  0  0  0
    0.7050   11.2100   -6.9980 C   0  0  0  0  0  0  0  0  0  0  0  0
   -5.3310   15.0140   -1.2990 C   0  0  0  0  0  0  0  0  0  0  0  0
   -3.3750   15.1870    0.1270 C   0  0  0  0  0  0  0  0  0  0  0  0
    1.8200   11.6540   -7.1220 O   0  0  0  0  0  0  0  0  0  0  0  0
    0.0580   10.6350   -8.0280 N   0  0  0  0  0  0  0  0  0  0  0  0
   -6.1180   14.9410   -0.1520 C   0  0  0  0  0  0  0  0  0  0  0  0
   -4.1680   15.1180    1.2580 C   0  0  0  0  0  0  0  0  0  0  0  0
   -7.4690   14.8180   -0.3070 O   0  0  0  0  0  0  0  0  0  0  0  0
   -5.5460   14.9890    1.1220 C   0  0  0  0  0  0  0  0  0  0  0  0
    0.4140    9.6810   -9.0750 C   0  0  0  0  0  0  0  0  0  0  0  0
    1.4080    8.5830   -8.7410 C   0  0  0  0  0  0  0  0  0  0  0  0
    0.6520   10.3470  -10.4240 C   0  0  0  0  0  0  0  0  0  0  0  0
    2.1970    8.0490   -9.9350 C   0  0  0  0  0  0  0  0  0  0  0  0
    0.7900    9.3820  -11.5980 C   0  0  0  0  0  0  0  0  0  0  0  0
    1.3790    8.0240  -11.2150 C   0  0  0  0  0  0  0  0  0  0  0  0
  1  2  1  0
  2  3  2  3
  2  4  1  0
  4  5  1  0
  3  6  1  0
  5  7  1  0
  6  8  1  1
  6  9  1  0
  7 10  2  0
  9 11  1  0
  7 12  1  0
 11 13  1  0
 12 14  2  0
 12 15  1  0
 13 16  2  0
 13 17  1  0
 14 18  1  0
 15 19  2  0
 18 20  1  0
 18 21  2  0
 19 21  1  0
 17 22  1  0
 22 23  1  0
 22 24  1  0
 23 25  1  0
 24 26  1  0
 25 27  1  0
 26 27  1  0
M  END
