mac-x0328-mac-x0587
     RDKit          3D

 17 17  0  0  0  0  0  0  0  0999 V2000
   -0.7840   15.4900   -3.5480 N   0  0  0  0  0  0  0  0  0  0  0  0
   -1.7910   14.5660   -3.2490 S   0  0  0  0  0  0  0  0  0  0  0  0
   -1.2040   14.2970   -1.9440 O   0  0  0  0  0  0  0  0  0  0  0  0
   -0.3490   16.3630   -4.1230 O   0  0  0  0  0  0  0  0  0  0  0  0
   -2.5130   15.3820   -4.4800 C   0  0  0  0  0  0  0  0  0  0  0  0
   -1.6720   12.8490   -3.7120 S   0  0  0  0  0  0  0  0  0  0  0  0
   -3.3680   14.7830   -2.2980 C   0  0  0  0  0  0  0  0  0  0  0  0
   -0.3040   12.0350   -3.9880 C   0  0  0  0  0  0  0  0  0  0  0  0
   -3.3490   14.8000   -0.9370 C   0  0  0  0  0  0  0  0  0  0  0  0
   -4.5150   14.9180   -2.9760 C   0  0  0  0  0  0  0  0  0  0  0  0
    0.6040   11.5870   -2.8890 C   0  0  0  0  0  0  0  0  0  0  0  0
   -4.5780   14.9600   -0.2880 C   0  0  0  0  0  0  0  0  0  0  0  0
   -5.7300   15.0760   -2.3110 C   0  0  0  0  0  0  0  0  0  0  0  0
    0.4980   10.4130   -2.4770 O   0  0  0  0  0  0  0  0  0  0  0  0
    1.5500   12.4050   -2.3000 O   0  0  0  0  0  0  0  0  0  0  0  0
   -5.7730   15.0960   -0.9450 C   0  0  0  0  0  0  0  0  0  0  0  0
   -6.9890   15.2460   -0.2780 O   0  0  0  0  0  0  0  0  0  0  0  0
  1  2  1  0
  2  3  2  0
  1  4  2  0
  2  5  1  0
  2  6  1  0
  2  7  1  0
  6  8  1  0
  7  9  2  0
  7 10  1  0
  8 11  1  0
  9 12  1  0
 10 13  2  0
 11 14  2  0
 11 15  1  0
 12 16  2  0
 13 16  1  0
 16 17  1  0
M  END
