mac-x0576-mac-x0348
     RDKit          3D

 29 32  0  0  0  0  0  0  0  0999 V2000
   -0.0490   13.4450    1.5710 N   0  0  0  0  0  0  0  0  0  0  0  0
   -0.8530   14.5520    1.2080 C   0  0  2  0  0  0  0  0  0  0  0  0
   -2.1710   14.3170    1.7320 N   0  0  0  0  0  0  0  0  0  0  0  0
   -0.7350   15.0030   -0.1000 N   0  0  0  0  0  0  0  0  0  0  0  0
   -1.6920   14.6780   -1.0050 C   0  0  0  0  0  0  0  0  0  0  0  0
   -3.1150   15.0340    0.8950 C   0  0  1  0  0  0  0  0  0  0  0  0
   -1.4200   14.4420   -2.1760 N   0  0  0  0  0  0  0  0  0  0  0  0
   -3.1400   14.6020   -0.5580 C   0  0  1  0  0  0  0  0  0  0  0  0
   -4.4210   14.9020    1.4530 N   0  0  0  0  0  0  0  0  0  0  0  0
   -0.0090   14.5370   -2.3960 C   0  0  0  0  0  0  0  0  0  0  0  0
   -5.5270   14.9980    0.6570 C   0  0  0  0  0  0  0  0  0  0  0  0
   -4.0020   15.4860   -1.3660 N   0  0  0  0  0  0  0  0  0  0  0  0
   -6.6340   14.7240    1.1240 O   0  0  0  0  0  0  0  0  0  0  0  0
    0.1950   14.2210   -3.8410 C   0  0  2  0  0  0  0  0  0  0  0  0
   -5.3750   15.4660   -0.8130 C   0  0  0  0  0  0  0  0  0  0  0  0
    1.2850   13.2420   -4.1760 C   0  0  0  0  0  0  0  0  0  0  0  0
   -0.0210   15.4760   -4.5800 C   0  0  0  0  0  0  0  0  0  0  0  0
    1.3040   12.2450   -3.0720 C   0  0  0  0  0  0  0  0  0  0  0  0
    0.8340   16.4910   -4.8700 C   0  0  0  0  0  0  0  0  0  0  0  0
   -1.2600   15.7890   -5.1000 C   0  0  0  0  0  0  0  0  0  0  0  0
    1.9250   12.3570   -2.0490 O   0  0  0  0  0  0  0  0  0  0  0  0
    0.5030   11.1760   -3.2760 O   0  0  0  0  0  0  0  0  0  0  0  0
    0.1430   17.4350   -5.5740 N   0  0  0  0  0  0  0  0  0  0  0  0
   -1.1610   17.0250   -5.7220 C   0  0  0  0  0  0  0  0  0  0  0  0
   -2.4590   15.0730   -5.0690 C   0  0  0  0  0  0  0  0  0  0  0  0
    0.7110   18.6560   -6.0710 C   0  0  0  0  0  0  0  0  0  0  0  0
   -3.5560   15.6050   -5.6700 C   0  0  0  0  0  0  0  0  0  0  0  0
   -2.2690   17.5800   -6.3310 C   0  0  0  0  0  0  0  0  0  0  0  0
   -3.4390   16.8270   -6.2750 C   0  0  0  0  0  0  0  0  0  0  0  0
  2  1  1  6
  2  3  1  0
  2  4  1  0
  4  5  1  0
  6  3  1  1
  5  7  2  3
  5  8  1  0
  6  8  1  0
  6  9  1  0
  7 10  1  0
  9 11  1  0
  8 12  1  6
 11 13  2  0
 14 10  1  1
 11 15  1  0
 12 15  1  0
 14 16  1  0
 14 17  1  0
 16 18  1  0
 17 19  2  0
 17 20  1  0
 18 21  2  0
 18 22  1  0
 19 23  1  0
 20 24  2  0
 23 24  1  0
 20 25  1  0
 23 26  1  0
 25 27  2  0
 24 28  1  0
 27 29  1  0
 28 29  2  0
M  END
