mac-x0284-diamond-x0592_0_A
     RDKit          3D

 21 22  0  0  0  0  0  0  0  0999 V2000
   -3.7520   14.8500    0.3810 C   0  0  2  0  0  0  0  0  0  0  0  0
   -3.0690   15.7910    1.2070 N   0  0  0  0  0  0  0  0  0  0  0  0
   -3.3700   13.6240    0.9240 O   0  0  0  0  0  0  0  0  0  0  0  0
   -3.2000   14.8940   -1.0100 C   0  0  0  0  0  0  0  0  0  0  0  0
   -5.2640   15.0540    0.3800 C   0  0  1  0  0  0  0  0  0  0  0  0
   -1.8490   14.6350   -1.1750 C   0  0  0  0  0  0  0  0  0  0  0  0
   -3.9950   15.1740   -2.1340 C   0  0  0  0  0  0  0  0  0  0  0  0
   -5.8300   15.5000   -0.9650 C   0  0  0  0  0  0  0  0  0  0  0  0
   -6.0160   13.7640    0.6060 C   0  0  0  0  0  0  0  0  0  0  0  0
   -1.2790   14.6450   -2.4310 C   0  0  0  0  0  0  0  0  0  0  0  0
   -3.4330   15.1820   -3.4010 C   0  0  0  0  0  0  0  0  0  0  0  0
   -7.2060   14.9960   -1.0200 N   0  0  0  0  0  0  0  0  0  0  0  0
   -7.3560   14.0530    0.0670 N   0  0  0  0  0  0  0  0  0  0  0  0
    0.1600   14.3680   -2.5810 C   0  0  0  0  0  0  0  0  0  0  0  0
   -8.3370   14.4780    1.0900 C   0  0  0  0  0  0  0  0  0  0  0  0
   -2.0790   14.9160   -3.5520 C   0  0  0  0  0  0  0  0  0  0  0  0
   -1.6000   14.9330   -4.8290 O   0  0  0  0  0  0  0  0  0  0  0  0
    0.9220   14.4790   -1.6330 O   0  0  0  0  0  0  0  0  0  0  0  0
    0.5550   13.9890   -3.8030 O   0  0  0  0  0  0  0  0  0  0  0  0
   -7.9260   14.0710    2.5110 C   0  0  0  0  0  0  0  0  0  0  0  0
   -7.1610   15.1020    3.1290 O   0  0  0  0  0  0  0  0  0  0  0  0
  1  2  1  1
  1  3  1  0
  1  4  1  0
  1  5  1  0
  4  6  2  0
  4  7  1  0
  5  8  1  6
  5  9  1  0
  6 10  1  0
  7 11  2  0
  8 12  1  0
  9 13  1  0
 12 13  1  0
 10 14  1  0
 13 15  1  0
 10 16  2  0
 11 16  1  0
 16 17  1  0
 14 18  2  0
 14 19  1  0
 15 20  1  0
 20 21  1  0
M  END
