mac-x0301-mac-x0321
     RDKit          3D

 19 21  0  0  0  0  0  0  0  0999 V2000
   -1.0490   13.2800   -3.1680 O   0  0  0  0  0  0  0  0  0  0  0  0
   -1.7880   14.4670   -2.9480 C   0  0  0  0  0  0  0  0  0  0  0  0
   -1.3540   15.4800   -3.8420 O   0  0  0  0  0  0  0  0  0  0  0  0
   -2.0190   14.7950   -1.5320 C   0  0  0  0  0  0  0  0  0  0  0  0
   -3.2990   14.5260   -2.6700 C   0  0  0  0  0  0  0  0  0  0  0  0
   -1.3380   14.5770   -0.3590 C   0  0  0  0  0  0  0  0  0  0  0  0
   -3.2710   15.4520   -1.4290 C   0  0  0  0  0  0  0  0  0  0  0  0
   -3.6100   14.3160   -1.2920 C   0  0  0  0  0  0  0  0  0  0  0  0
   -4.3740   14.7890   -3.5280 C   0  0  0  0  0  0  0  0  0  0  0  0
   -1.9110   14.9920    0.8410 C   0  0  0  0  0  0  0  0  0  0  0  0
   -3.8210   15.8610   -0.2230 C   0  0  0  0  0  0  0  0  0  0  0  0
   -0.1460   13.9780   -0.1680 O   0  0  0  0  0  0  0  0  0  0  0  0
   -4.9020   14.3810   -0.7800 C   0  0  0  0  0  0  0  0  0  0  0  0
   -5.6860   14.8470   -3.0000 C   0  0  0  0  0  0  0  0  0  0  0  0
   -5.2010   14.1370    0.9030 Cl  0  0  0  0  0  0  0  0  0  0  0  0
   -3.1310   15.6250    0.9390 C   0  0  0  0  0  0  0  0  0  0  0  0
   -1.1530   14.7060    1.9020 O   0  0  0  0  0  0  0  0  0  0  0  0
    0.0310   14.3240    1.2200 C   0  0  0  0  0  0  0  0  0  0  0  0
   -5.9470   14.6510   -1.6390 C   0  0  0  0  0  0  0  0  0  0  0  0
  2  1  1  0
  2  3  1  0
  2  4  1  0
  2  5  1  0
  4  6  1  0
  4  7  2  0
  5  8  2  0
  5  9  1  0
  6 10  2  0
  7 11  1  0
  6 12  1  0
  8 13  1  0
  9 14  2  0
 13 15  1  0
 10 16  1  0
 11 16  2  0
 10 17  1  0
 12 18  1  0
 17 18  1  0
 13 19  2  0
 14 19  1  0
M  END
