mac-x0137-diamond-x0587_0_A
     RDKit          3D

 28 31  0  0  0  0  0  0  0  0999 V2000
   -2.8770   12.6320   -4.2160 F   0  0  0  0  0  0  0  0  0  0  0  0
   -1.8330   13.4110   -4.6030 C   0  0  2  0  0  0  0  0  0  0  0  0
   -0.6300   12.5000   -4.8790 C   0  0  0  0  0  0  0  0  0  0  0  0
   -1.5530   14.4220   -3.4970 C   0  0  0  0  0  0  0  0  0  0  0  0
   -1.0120   13.7340   -2.3080 N   0  0  0  0  0  0  0  0  0  0  0  0
    0.0670   11.9750   -3.6160 C   0  0  0  0  0  0  0  0  0  0  0  0
    0.2790   13.0690   -2.5820 C   0  0  0  0  0  0  0  0  0  0  0  0
   -1.2210   14.2260   -1.0250 C   0  0  0  0  0  0  0  0  0  0  0  0
   -0.1280   14.2860   -0.1890 N   0  0  0  0  0  0  0  0  0  0  0  0
   -2.3860   14.6780   -0.4780 C   0  0  0  0  0  0  0  0  0  0  0  0
   -0.2710   14.5560    1.1380 C   0  0  0  0  0  0  0  0  0  0  0  0
   -2.3240   15.1970    0.9090 C   0  0  0  0  0  0  0  0  0  0  0  0
   -3.7800   14.9070   -0.7410 C   0  0  0  0  0  0  0  0  0  0  0  0
   -1.2910   15.0010    1.7070 N   0  0  0  0  0  0  0  0  0  0  0  0
   -3.3490   15.8730    1.2720 N   0  0  0  0  0  0  0  0  0  0  0  0
   -4.2140   15.6560    0.2680 C   0  0  0  0  0  0  0  0  0  0  0  0
   -4.7970   14.5080   -1.7010 C   0  0  0  0  0  0  0  0  0  0  0  0
   -4.5410   13.2840   -2.2630 F   0  0  0  0  0  0  0  0  0  0  0  0
   -4.9510   15.4170   -2.7130 F   0  0  0  0  0  0  0  0  0  0  0  0
   -5.9360   14.5490   -0.6500 C   0  0  0  0  0  0  0  0  0  0  0  0
   -7.2610   14.4900   -0.9170 N   0  0  0  0  0  0  0  0  0  0  0  0
   -5.4580   14.6700    0.6190 N   0  0  0  0  0  0  0  0  0  0  0  0
   -8.0950   14.5790    0.1690 C   0  0  0  0  0  0  0  0  0  0  0  0
   -6.3230   14.7570    1.6350 C   0  0  0  0  0  0  0  0  0  0  0  0
   -7.6620   14.7220    1.4810 C   0  0  0  0  0  0  0  0  0  0  0  0
   -8.5890   14.8390    2.6180 C   0  0  0  0  0  0  0  0  0  0  0  0
   -8.0670   14.8720    3.8840 N   0  0  0  0  0  0  0  0  0  0  0  0
   -9.7910   14.9240    2.4400 O   0  0  0  0  0  0  0  0  0  0  0  0
  2  1  1  1
  2  3  1  0
  2  4  1  0
  4  5  1  0
  3  6  1  0
  5  7  1  0
  6  7  1  0
  5  8  1  0
  8  9  1  0
  8 10  2  0
  9 11  1  0
 10 12  1  0
 10 13  1  0
 11 14  2  0
 12 14  1  0
 12 15  2  0
 13 16  2  0
 15 16  1  0
 13 17  1  0
 17 18  1  0
 17 19  1  0
 17 20  1  0
 20 21  2  0
 20 22  1  0
 21 23  1  0
 22 24  2  0
 23 25  2  0
 24 25  1  0
 25 26  1  0
 26 27  1  0
 26 28  2  0
M  END
