mac-x0396-mac-x0132
     RDKit          3D

 13 14  0  0  0  0  0  0  0  0999 V2000
   -3.0020   14.1520    1.5570 N   0  0  0  0  0  0  0  0  0  0  0  0
   -3.3850   14.2390    0.2540 C   0  0  0  0  0  0  0  0  0  0  0  0
   -2.5300   14.1320   -0.6170 O   0  0  0  0  0  0  0  0  0  0  0  0
   -4.8450   14.6050   -0.0930 C   0  0  1  0  0  0  0  0  0  0  0  0
   -5.6430   13.6250   -1.0120 C   0  0  1  0  0  0  0  0  0  0  0  0
   -5.5860   14.8930    1.1880 C   0  0  0  0  0  0  0  0  0  0  0  0
   -4.1990   15.7120   -0.8210 C   0  0  0  0  0  0  0  0  0  0  0  0
   -7.1080   13.8430   -1.0000 N   0  0  0  0  0  0  0  0  0  0  0  0
   -6.9160   14.7570    1.2840 C   0  0  0  0  0  0  0  0  0  0  0  0
   -5.2430   13.6710   -2.4640 C   0  0  0  0  0  0  0  0  0  0  0  0
   -4.0140   15.6800   -2.1480 C   0  0  0  0  0  0  0  0  0  0  0  0
   -7.6260   14.3510    0.0610 C   0  0  0  0  0  0  0  0  0  0  0  0
   -4.4820   14.6240   -2.9680 C   0  0  0  0  0  0  0  0  0  0  0  0
  1  2  1  0
  2  3  2  0
  4  2  1  1
  4  5  1  0
  4  6  1  0
  4  7  1  0
  5  8  1  0
  6  9  2  0
  5 10  1  6
  7 11  2  0
  8 12  2  0
  9 12  1  0
 10 13  2  0
 11 13  1  0
M  END
