mac-x0306-mac-x0346
     RDKit          3D

 15 16  0  0  0  0  0  0  0  0999 V2000
   -8.1830   13.6150   -0.5810 O   0  0  0  0  0  0  0  0  0  0  0  0
   -7.9850   14.7630   -1.3910 N   0  0  0  0  0  0  0  0  0  0  0  0
   -6.8220   14.7860   -2.1260 C   0  0  0  0  0  0  0  0  0  0  0  0
   -6.8260   14.7100   -3.3410 O   0  0  0  0  0  0  0  0  0  0  0  0
   -5.5550   14.8710   -1.4000 C   0  0  0  0  0  0  0  0  0  0  0  0
   -4.3890   14.9660   -2.1540 C   0  0  0  0  0  0  0  0  0  0  0  0
   -5.4610   14.8540   -0.0090 C   0  0  0  0  0  0  0  0  0  0  0  0
   -6.6480   14.7580    0.8510 C   0  0  0  0  0  0  0  0  0  0  0  0
   -3.1510   15.0390   -1.6190 N   0  0  0  0  0  0  0  0  0  0  0  0
   -4.1860   14.9340    0.5650 C   0  0  0  0  0  0  0  0  0  0  0  0
   -6.6470   14.5370    2.2080 N   0  0  0  0  0  0  0  0  0  0  0  0
   -7.8980   14.8800    0.4400 N   0  0  0  0  0  0  0  0  0  0  0  0
   -3.0810   15.0210   -0.2650 C   0  0  0  0  0  0  0  0  0  0  0  0
   -8.6990   14.7350    1.5360 C   0  0  0  0  0  0  0  0  0  0  0  0
   -7.9370   14.5210    2.6510 C   0  0  0  0  0  0  0  0  0  0  0  0
  1  2  1  0
  2  3  1  0
  3  4  2  0
  3  5  1  0
  5  6  2  0
  5  7  1  0
  7  8  1  0
  6  9  1  0
  7 10  2  0
  8 11  1  0
  8 12  2  0
  9 13  2  0
 10 13  1  0
 12 14  1  0
 11 15  1  0
 14 15  2  0
M  END
