mac-x0131-diamond-x0438_0_A
     RDKit          3D

 31 35  0  0  0  0  0  0  0  0999 V2000
   -4.3270   14.7120   -4.0200 C   0  0  0  0  0  0  0  0  0  0  0  0
   -3.3120   14.6930   -2.9310 C   0  0  0  0  0  0  0  0  0  0  0  0
   -3.4130   14.7420   -1.5520 C   0  0  0  0  0  0  0  0  0  0  0  0
   -1.9290   14.6140   -3.1720 N   0  0  0  0  0  0  0  0  0  0  0  0
   -1.2290   14.5300   -4.4420 C   0  0  0  0  0  0  0  0  0  0  0  0
   -2.1190   14.6910   -0.9740 C   0  0  0  0  0  0  0  0  0  0  0  0
   -1.2280   14.6220   -1.9850 C   0  0  0  0  0  0  0  0  0  0  0  0
   -4.3790   14.8340   -0.5420 C   0  0  0  0  0  0  0  0  0  0  0  0
   -1.6070   14.6990    0.3560 C   0  0  0  0  0  0  0  0  0  0  0  0
    0.1050   14.5700   -1.8360 N   0  0  0  0  0  0  0  0  0  0  0  0
   -0.2050   13.4560   -4.3400 C   0  0  0  0  0  0  0  0  0  0  0  0
   -5.7620   14.6290   -0.2860 C   0  0  0  0  0  0  0  0  0  0  0  0
   -3.5970   15.2640    0.4950 C   0  0  0  0  0  0  0  0  0  0  0  0
   -2.3450   14.7540    1.5400 N   0  0  0  0  0  0  0  0  0  0  0  0
   -0.2950   14.6560    0.5450 N   0  0  0  0  0  0  0  0  0  0  0  0
    0.4770   14.5960   -0.5480 C   0  0  0  0  0  0  0  0  0  0  0  0
    0.6350   12.3100   -4.2020 C   0  0  0  0  0  0  0  0  0  0  0  0
   -1.3880   12.7530   -4.0680 O   0  0  0  0  0  0  0  0  0  0  0  0
   -6.9730   14.2410   -0.8760 N   0  0  0  0  0  0  0  0  0  0  0  0
   -6.1650   14.8770    1.0140 C   0  0  0  0  0  0  0  0  0  0  0  0
   -4.0560   15.4840    1.7230 C   0  0  0  0  0  0  0  0  0  0  0  0
   -1.2990   11.4450   -3.8130 C   0  0  0  0  0  0  0  0  0  0  0  0
   -0.0310   11.1090   -3.8830 C   0  0  0  0  0  0  0  0  0  0  0  0
   -7.9420   14.3130    0.1470 C   0  0  0  0  0  0  0  0  0  0  0  0
   -7.4350   14.6790    1.2330 N   0  0  0  0  0  0  0  0  0  0  0  0
   -5.3340   15.2950    1.9880 C   0  0  0  0  0  0  0  0  0  0  0  0
   -9.3790   14.0530    0.1610 C   0  0  0  0  0  0  0  0  0  0  0  0
  -10.0010   14.9860    1.5960 S   0  0  0  0  0  0  0  0  0  0  0  0
   -8.8540   14.8500    2.9660 C   0  0  0  0  0  0  0  0  0  0  0  0
  -11.2520   14.4240    2.0660 O   0  0  0  0  0  0  0  0  0  0  0  0
   -9.9590   16.3910    1.2180 O   0  0  0  0  0  0  0  0  0  0  0  0
  1  2  1  0
  2  3  2  0
  2  4  1  0
  4  5  1  0
  3  6  1  0
  4  7  1  0
  6  7  2  0
  3  8  1  0
  6  9  1  0
  7 10  1  0
  5 11  1  0
  8 12  1  0
  8 13  2  0
  9 14  1  0
  9 15  2  0
 10 16  2  0
 15 16  1  0
 11 17  2  0
 11 18  1  0
 12 19  1  0
 12 20  2  0
 13 21  1  0
 18 22  1  0
 17 23  1  0
 22 23  2  0
 19 24  1  0
 20 25  1  0
 24 25  2  0
 20 26  1  0
 21 26  2  0
 24 27  1  0
 28 27  1  0
 28 29  1  0
 28 30  2  0
 28 31  2  0
M  END
