mac-x0319-mac-x0345
     RDKit          3D

 23 24  0  0  0  0  0  0  0  0999 V2000
    0.4050   10.5120   -2.5240 O   0  0  0  0  0  0  0  0  0  0  0  0
    0.7110   11.8370   -2.4850 C   0  0  0  0  0  0  0  0  0  0  0  0
    0.6240   12.4250   -1.4170 O   0  0  0  0  0  0  0  0  0  0  0  0
    1.1210   12.4060   -3.8380 C   0  0  0  0  0  0  0  0  0  0  0  0
    0.4880   13.7530   -4.1260 C   0  0  0  0  0  0  0  0  0  0  0  0
    1.2230   14.9460   -4.0030 C   0  0  0  0  0  0  0  0  0  0  0  0
   -0.8600   13.8250   -4.5190 C   0  0  0  0  0  0  0  0  0  0  0  0
    0.6010   16.1680   -4.2680 C   0  0  0  0  0  0  0  0  0  0  0  0
   -1.4750   15.0640   -4.7880 C   0  0  0  0  0  0  0  0  0  0  0  0
    1.3160   17.3140   -4.1370 O   0  0  0  0  0  0  0  0  0  0  0  0
   -0.7260   16.2300   -4.6560 C   0  0  0  0  0  0  0  0  0  0  0  0
   -2.9210   15.1420   -5.2120 C   0  0  0  0  0  0  0  0  0  0  0  0
   -3.8640   14.2510   -4.3970 C   0  0  0  0  0  0  0  0  0  0  0  0
   -5.3210   14.3880   -4.8520 C   0  0  0  0  0  0  0  0  0  0  0  0
   -6.2280   14.7800   -3.7600 N   0  0  0  0  0  0  0  0  0  0  0  0
   -5.7290   14.9760   -2.4720 C   0  0  0  0  0  0  0  0  0  0  0  0
   -4.4390   15.3850   -2.2010 C   0  0  0  0  0  0  0  0  0  0  0  0
   -6.6260   14.7280   -1.4930 N   0  0  0  0  0  0  0  0  0  0  0  0
   -6.2450   14.8920   -0.2050 C   0  0  0  0  0  0  0  0  0  0  0  0
   -4.0600   15.5450   -0.8950 C   0  0  0  0  0  0  0  0  0  0  0  0
   -7.3020   14.5940    0.8260 C   0  0  0  0  0  0  0  0  0  0  0  0
   -4.9530   15.3070    0.1080 C   0  0  0  0  0  0  0  0  0  0  0  0
   -4.2590   15.5970    1.8120 Br  0  0  0  0  0  0  0  0  0  0  0  0
  1  2  1  0
  2  3  2  0
  2  4  1  0
  4  5  1  0
  5  6  2  0
  5  7  1  0
  6  8  1  0
  7  9  2  0
  8 10  1  0
  8 11  2  0
  9 11  1  0
  9 12  1  0
 12 13  1  0
 13 14  1  0
 14 15  1  0
 15 16  1  0
 16 17  2  0
 16 18  1  0
 18 19  2  0
 17 20  1  0
 19 21  1  0
 19 22  1  0
 20 22  2  0
 22 23  1  0
M  END
