mac-x0188-diamond-x0933_0_A
     RDKit          3D

 16 17  0  0  0  0  0  0  0  0999 V2000
    1.2780   13.2840   -5.1600 C   0  0  0  0  0  0  0  0  0  0  0  0
   -0.0200   13.6530   -4.5470 C   0  0  0  0  0  0  0  0  0  0  0  0
   -1.0860   13.7890   -5.3780 O   0  0  0  0  0  0  0  0  0  0  0  0
   -0.4190   13.9050   -3.2460 C   0  0  0  0  0  0  0  0  0  0  0  0
    0.4660   13.8440   -2.1060 C   0  0  0  0  0  0  0  0  0  0  0  0
   -2.2050   14.1310   -4.6440 N   0  0  0  0  0  0  0  0  0  0  0  0
   -1.8140   14.2030   -3.3580 C   0  0  0  0  0  0  0  0  0  0  0  0
    1.1560   14.7910   -1.7580 O   0  0  0  0  0  0  0  0  0  0  0  0
    0.5270   12.6470   -1.4460 O   0  0  0  0  0  0  0  0  0  0  0  0
   -2.7510   14.5350   -2.2810 C   0  0  0  0  0  0  0  0  0  0  0  0
   -4.0140   15.1150   -2.5010 C   0  0  0  0  0  0  0  0  0  0  0  0
   -2.3670   14.2540   -0.9660 C   0  0  0  0  0  0  0  0  0  0  0  0
   -4.8670   15.3910   -1.4080 C   0  0  0  0  0  0  0  0  0  0  0  0
   -3.2120   14.5270    0.1040 C   0  0  0  0  0  0  0  0  0  0  0  0
   -4.4620   15.0870   -0.0930 C   0  0  0  0  0  0  0  0  0  0  0  0
   -5.2680   15.3090    1.0390 N   0  0  0  0  0  0  0  0  0  0  0  0
  1  2  1  0
  2  3  1  0
  2  4  2  0
  4  5  1  0
  3  6  1  0
  4  7  1  0
  6  7  2  0
  5  8  2  0
  5  9  1  0
  7 10  1  0
 10 11  2  0
 10 12  1  0
 11 13  1  0
 12 14  2  0
 13 15  2  0
 14 15  1  0
 15 16  1  0
M  END
