mac-x0138-diamond-x0895_0_A
     RDKit          3D

 13 14  0  0  0  0  0  0  0  0999 V2000
   -1.6050   14.6160   -3.4420 C   0  0  0  0  0  0  0  0  0  0  0  0
   -2.5290   14.8810   -2.3710 N   0  0  0  0  0  0  0  0  0  0  0  0
   -3.8180   15.3080   -2.4820 C   0  0  0  0  0  0  0  0  0  0  0  0
   -2.2930   14.7610   -1.0440 C   0  0  0  0  0  0  0  0  0  0  0  0
   -4.3840   15.4650   -1.2980 N   0  0  0  0  0  0  0  0  0  0  0  0
   -3.4160   15.1220   -0.3770 C   0  0  0  0  0  0  0  0  0  0  0  0
   -1.1100   14.3440   -0.3560 N   0  0  0  0  0  0  0  0  0  0  0  0
   -0.1640   14.0350   -1.0810 O   0  0  0  0  0  0  0  0  0  0  0  0
   -3.3860   15.0850    1.0330 C   0  0  0  0  0  0  0  0  0  0  0  0
   -1.1120   14.3190    1.0540 C   0  0  0  0  0  0  0  0  0  0  0  0
   -4.4870   15.4460    1.7830 N   0  0  0  0  0  0  0  0  0  0  0  0
   -0.0120   13.9380    1.8520 N   0  0  0  0  0  0  0  0  0  0  0  0
   -2.2470   14.6870    1.7010 N   0  0  0  0  0  0  0  0  0  0  0  0
  1  2  1  0
  2  3  1  0
  2  4  1  0
  3  5  2  0
  4  6  2  0
  5  6  1  0
  4  7  1  0
  7  8  1  0
  6  9  1  0
  7 10  2  0
  9 11  1  0
 10 12  1  0
  9 13  2  0
 10 13  1  0
M  CHG  2   7   1   8  -1
M  END
