mac-x0142-mac-x0326
     RDKit          3D

 22 25  0  0  0  0  0  0  0  0999 V2000
   -6.1750   15.3490   -0.7890 Cl  0  0  0  0  0  0  0  0  0  0  0  0
   -4.5080   15.1590   -0.4850 C   0  0  0  0  0  0  0  0  0  0  0  0
   -3.9560   15.0610    0.7920 N   0  0  0  0  0  0  0  0  0  0  0  0
   -3.6610   15.0840   -1.4940 C   0  0  0  0  0  0  0  0  0  0  0  0
   -2.6740   14.9020    0.5580 C   0  0  0  0  0  0  0  0  0  0  0  0
   -2.3930   14.9230   -0.8950 C   0  0  0  0  0  0  0  0  0  0  0  0
   -1.6710   14.7360    1.4850 N   0  0  0  0  0  0  0  0  0  0  0  0
   -1.1580   14.8150   -1.3550 C   0  0  0  0  0  0  0  0  0  0  0  0
   -0.8830   14.8530   -2.7120 N   0  0  0  0  0  0  0  0  0  0  0  0
   -0.1790   14.6860   -0.3830 N   0  0  0  0  0  0  0  0  0  0  0  0
   -0.4860   14.6500    0.9580 C   0  0  0  0  0  0  0  0  0  0  0  0
   -1.8910   14.5830   -3.7650 C   0  0  0  0  0  0  0  0  0  0  0  0
    0.3660   15.3960   -3.1900 C   0  0  0  0  0  0  0  0  0  0  0  0
    0.9230   14.3220   -4.0270 C   0  0  1  0  0  0  0  0  0  0  0  0
   -1.3270   13.6990   -4.8900 C   0  0  0  0  0  0  0  0  0  0  0  0
    2.3900   14.0160   -3.9630 C   0  0  0  0  0  0  0  0  0  0  0  0
    1.4280   13.1390   -3.2150 C   0  0  2  0  0  0  0  0  0  0  0  0
    0.1010   14.1120   -5.2730 C   0  0  0  0  0  0  0  0  0  0  0  0
    1.2030   11.7650   -3.6350 C   0  0  0  0  0  0  0  0  0  0  0  0
    0.3680   11.0500   -2.7580 O   0  0  0  0  0  0  0  0  0  0  0  0
    2.4650   11.1740   -3.5740 O   0  0  0  0  0  0  0  0  0  0  0  0
    0.7230   11.7390   -5.0730 C   0  0  0  0  0  0  0  0  0  0  0  0
  1  2  1  0
  2  3  1  0
  2  4  2  0
  3  5  2  0
  4  6  1  0
  5  6  1  0
  5  7  1  0
  6  8  2  0
  8  9  1  0
  8 10  1  0
  7 11  2  0
 10 11  1  0
  9 12  1  0
  9 13  1  0
 14 13  1  1
 12 15  1  0
 14 16  1  0
 14 17  1  0
 16 17  1  0
 14 18  1  0
 15 18  1  0
 17 19  1  6
 19 20  1  0
 19 21  1  0
 19 22  1  0
M  END
