mac-x0415-mac-x0223
     RDKit          3D

 17 18  0  0  0  0  0  0  0  0999 V2000
   -0.0720   10.9460   -2.4710 O   0  0  0  0  0  0  0  0  0  0  0  0
    0.5830   12.1030   -2.6740 C   0  0  0  0  0  0  0  0  0  0  0  0
    0.9680   12.7810   -1.7420 O   0  0  0  0  0  0  0  0  0  0  0  0
    0.7390   12.3840   -4.1360 C   0  0  0  0  0  0  0  0  0  0  0  0
    0.7670   13.8190   -4.3930 C   0  0  0  0  0  0  0  0  0  0  0  0
    1.8900   14.6840   -4.0520 C   0  0  0  0  0  0  0  0  0  0  0  0
   -0.0990   14.6880   -4.8850 C   0  0  0  0  0  0  0  0  0  0  0  0
    1.7780   15.9310   -4.3130 N   0  0  0  0  0  0  0  0  0  0  0  0
    0.5180   16.0200   -5.0190 C   0  0  2  0  0  0  0  0  0  0  0  0
   -1.4500   14.5260   -5.3170 C   0  0  0  0  0  0  0  0  0  0  0  0
   -0.4010   17.1500   -4.8420 C   0  0  0  0  0  0  0  0  0  0  0  0
   -2.2380   15.6210   -5.3810 C   0  0  0  0  0  0  0  0  0  0  0  0
   -3.9970   15.3680   -5.9600 Br  0  0  0  0  0  0  0  0  0  0  0  0
    0.1640   18.3490   -4.5340 O   0  0  0  0  0  0  0  0  0  0  0  0
   -1.6980   16.9630   -5.0180 C   0  0  0  0  0  0  0  0  0  0  0  0
    1.2180   18.5390   -5.4700 C   0  0  0  0  0  0  0  0  0  0  0  0
   -2.4840   18.0610   -4.8640 O   0  0  0  0  0  0  0  0  0  0  0  0
  1  2  1  0
  2  3  2  0
  2  4  1  0
  4  5  1  0
  5  6  1  0
  5  7  2  0
  6  8  2  0
  7  9  1  0
  9  8  1  1
  7 10  1  0
  9 11  1  0
 10 12  2  0
 12 13  1  0
 11 14  1  0
 11 15  2  0
 12 15  1  0
 14 16  1  0
 15 17  1  0
M  END
