mac-x0123-mac-x0387
     RDKit          3D

 17 20  0  0  0  0  0  0  0  0999 V2000
   -3.8320   14.9920    1.2180 N   0  0  0  0  0  0  0  0  0  0  0  0
   -4.9760   14.3050    0.6200 C   0  0  1  0  0  0  0  0  0  0  0  0
   -6.3050   14.5610    1.3370 C   0  0  1  0  0  0  0  0  0  0  0  0
   -2.6060   14.5130    0.6310 C   0  0  1  0  0  0  0  0  0  0  0  0
   -5.3780   14.7170   -0.8370 C   0  0  2  0  0  0  0  0  0  0  0  0
   -2.2870   14.6180   -0.8050 N   0  0  0  0  0  0  0  0  0  0  0  0
   -1.5870   14.9930    1.5350 N   0  0  0  0  0  0  0  0  0  0  0  0
   -6.6850   14.1040   -0.9870 N   0  0  0  0  0  0  0  0  0  0  0  0
   -7.3460   14.6710    0.1890 C   0  0  1  0  0  0  0  0  0  0  0  0
   -6.8960   13.5510    2.2510 C   0  0  0  0  0  0  0  0  0  0  0  0
   -4.5710   14.3170   -1.9420 N   0  0  0  0  0  0  0  0  0  0  0  0
   -3.3050   15.0080   -1.7870 C   0  0  0  0  0  0  0  0  0  0  0  0
   -0.9500   14.5490   -1.1500 C   0  0  0  0  0  0  0  0  0  0  0  0
   -0.3000   14.3920    1.2250 C   0  0  0  0  0  0  0  0  0  0  0  0
   -8.6050   13.9610    0.6840 C   0  0  0  0  0  0  0  0  0  0  0  0
   -8.1450   13.2340    1.9030 C   0  0  0  0  0  0  0  0  0  0  0  0
    0.0230   14.4420   -0.2330 C   0  0  0  0  0  0  0  0  0  0  0  0
  2  1  1  1
  2  3  1  0
  4  1  1  6
  2  5  1  0
  4  6  1  0
  4  7  1  0
  5  8  1  6
  3  9  1  0
  8  9  1  0
  3 10  1  1
  5 11  1  0
  6 12  1  0
 11 12  1  0
  6 13  1  0
  7 14  1  0
  9 15  1  1
 10 16  2  0
 15 16  1  0
 13 17  2  0
 14 17  1  0
M  END
