mac-x0231-mac-x0453
     RDKit          3D

 24 26  0  0  0  0  0  0  0  0999 V2000
    0.6170   10.9340   -3.3850 O   0  0  0  0  0  0  0  0  0  0  0  0
    1.3640   12.0440   -3.2220 C   0  0  0  0  0  0  0  0  0  0  0  0
    1.5700   12.4780   -2.1040 O   0  0  0  0  0  0  0  0  0  0  0  0
    1.8480   12.6430   -4.5180 C   0  0  0  0  0  0  0  0  0  0  0  0
    1.3150   14.0310   -4.5630 C   0  0  0  0  0  0  0  0  0  0  0  0
   -0.1220   14.1750   -4.4990 C   0  0  0  0  0  0  0  0  0  0  0  0
    2.1190   15.0240   -4.5520 N   0  0  0  0  0  0  0  0  0  0  0  0
   -0.6410   15.4590   -4.4750 C   0  0  0  0  0  0  0  0  0  0  0  0
    1.6030   16.2760   -4.5290 N   0  0  0  0  0  0  0  0  0  0  0  0
   -0.9330   13.0540   -4.4220 C   0  0  0  0  0  0  0  0  0  0  0  0
    0.2790   16.5990   -4.5870 C   0  0  0  0  0  0  0  0  0  0  0  0
   -2.0100   15.6290   -4.3170 C   0  0  0  0  0  0  0  0  0  0  0  0
   -2.2840   13.2160   -4.2630 C   0  0  0  0  0  0  0  0  0  0  0  0
   -0.1160   17.7520   -4.7210 O   0  0  0  0  0  0  0  0  0  0  0  0
   -2.8120   14.4900   -4.1830 C   0  0  0  0  0  0  0  0  0  0  0  0
   -4.2470   14.6030   -3.8890 C   0  0  0  0  0  0  0  0  0  0  0  0
   -4.2040   14.6940   -2.3700 C   0  0  0  0  0  0  0  0  0  0  0  0
   -2.9960   14.7290   -1.6930 N   0  0  0  0  0  0  0  0  0  0  0  0
   -5.1920   14.7390   -1.4980 N   0  0  0  0  0  0  0  0  0  0  0  0
   -4.6030   14.7970   -0.2450 C   0  0  0  0  0  0  0  0  0  0  0  0
   -3.2380   14.7950   -0.3510 C   0  0  0  0  0  0  0  0  0  0  0  0
   -5.4360   14.8490    0.9830 C   0  0  0  0  0  0  0  0  0  0  0  0
   -5.6620   13.4690    1.6110 C   0  0  0  0  0  0  0  0  0  0  0  0
   -6.7890   13.4790    2.5530 N   0  0  0  0  0  0  0  0  0  0  0  0
  1  2  1  0
  2  3  2  0
  2  4  1  0
  4  5  1  0
  5  6  1  0
  5  7  2  0
  6  8  2  0
  7  9  1  0
  6 10  1  0
  8 11  1  0
  9 11  1  0
  8 12  1  0
 10 13  2  0
 11 14  2  0
 12 15  2  0
 13 15  1  0
 15 16  1  0
 16 17  1  0
 17 18  1  0
 17 19  2  0
 19 20  1  0
 18 21  1  0
 20 21  2  0
 20 22  1  0
 22 23  1  0
 23 24  1  0
M  END
