mac-x0375-mac-x0284
     RDKit          3D

 23 24  0  0  0  0  0  0  0  0999 V2000
    1.4280   12.5550   -2.3340 O   0  0  0  0  0  0  0  0  0  0  0  0
    0.9620   11.8310   -3.3860 C   0  0  0  0  0  0  0  0  0  0  0  0
    0.4200   10.7500   -3.2310 O   0  0  0  0  0  0  0  0  0  0  0  0
    1.2090   12.5470   -4.7070 C   0  0  1  0  0  0  0  0  0  0  0  0
    0.6920   11.9050   -5.9070 O   0  0  0  0  0  0  0  0  0  0  0  0
    1.0730   14.0700   -4.5550 C   0  0  0  0  0  0  0  0  0  0  0  0
   -0.1540   14.4310   -3.9020 O   0  0  0  0  0  0  0  0  0  0  0  0
   -0.4120   11.0820   -5.9280 C   0  0  0  0  0  0  0  0  0  0  0  0
   -0.2630   14.4740   -2.5430 C   0  0  0  0  0  0  0  0  0  0  0  0
   -0.3230    9.9660   -6.7730 C   0  0  0  0  0  0  0  0  0  0  0  0
   -1.5800   11.2780   -5.1900 C   0  0  0  0  0  0  0  0  0  0  0  0
    0.6120   14.3410   -1.6960 O   0  0  0  0  0  0  0  0  0  0  0  0
   -1.3800    9.0610   -6.8810 C   0  0  0  0  0  0  0  0  0  0  0  0
   -2.6410   10.3700   -5.3010 C   0  0  0  0  0  0  0  0  0  0  0  0
   -1.6870   14.7400   -2.2510 C   0  0  0  0  0  0  0  0  0  0  0  0
   -2.5440    9.2650   -6.1410 C   0  0  0  0  0  0  0  0  0  0  0  0
   -2.1190   14.8780   -0.9210 C   0  0  0  0  0  0  0  0  0  0  0  0
   -2.6100   14.8690   -3.2910 C   0  0  0  0  0  0  0  0  0  0  0  0
   -2.2100   14.7400   -4.5870 O   0  0  0  0  0  0  0  0  0  0  0  0
   -3.4680   15.1580   -0.6380 C   0  0  0  0  0  0  0  0  0  0  0  0
   -3.9440   15.1350   -3.0160 C   0  0  0  0  0  0  0  0  0  0  0  0
   -3.9380   15.3300    0.7750 C   0  0  0  0  0  0  0  0  0  0  0  0
   -4.3730   15.2830   -1.7000 C   0  0  0  0  0  0  0  0  0  0  0  0
  1  2  1  0
  2  3  2  0
  2  4  1  0
  4  5  1  0
  4  6  1  1
  6  7  1  0
  5  8  1  0
  7  9  1  0
  8 10  2  0
  8 11  1  0
  9 12  2  0
 10 13  1  0
 11 14  2  0
  9 15  1  0
 13 16  2  0
 14 16  1  0
 15 17  2  0
 15 18  1  0
 18 19  1  0
 17 20  1  0
 18 21  2  0
 20 22  1  0
 20 23  2  0
 21 23  1  0
M  END
