mac-x0568-mac-x0124
     RDKit          3D

 21 23  0  0  0  0  0  0  0  0999 V2000
   -8.7960   14.3410    1.8970 C   0  0  0  0  0  0  0  0  0  0  0  0
   -7.6580   14.4750    0.9430 C   0  0  0  0  0  0  0  0  0  0  0  0
   -6.3890   14.0500    1.3010 C   0  0  0  0  0  0  0  0  0  0  0  0
   -7.9410   15.0220   -0.2550 N   0  0  0  0  0  0  0  0  0  0  0  0
   -6.9280   15.1570   -1.1200 C   0  0  0  0  0  0  0  0  0  0  0  0
   -5.3570   14.1960    0.3860 C   0  0  0  0  0  0  0  0  0  0  0  0
   -5.6500   14.7680   -0.8500 C   0  0  0  0  0  0  0  0  0  0  0  0
   -4.6310   14.9640   -1.8490 C   0  0  0  0  0  0  0  0  0  0  0  0
   -4.5640   14.2660   -2.8430 O   0  0  0  0  0  0  0  0  0  0  0  0
   -3.8280   15.9630   -1.5430 N   0  0  0  0  0  0  0  0  0  0  0  0
   -2.5760   15.6640   -1.5470 C   0  0  0  0  0  0  0  0  0  0  0  0
   -1.7270   15.6390   -2.6050 C   0  0  0  0  0  0  0  0  0  0  0  0
   -1.9370   15.2950   -0.3830 C   0  0  0  0  0  0  0  0  0  0  0  0
   -0.5320   15.2510   -2.1180 N   0  0  0  0  0  0  0  0  0  0  0  0
   -0.6440   15.0360   -0.7560 C   0  0  0  0  0  0  0  0  0  0  0  0
   -2.3080   15.1440    0.9620 C   0  0  0  0  0  0  0  0  0  0  0  0
    0.6620   15.0850   -2.9060 C   0  0  0  0  0  0  0  0  0  0  0  0
   -3.5930   15.3880    1.4830 N   0  0  0  0  0  0  0  0  0  0  0  0
   -1.3830   14.7430    1.8120 N   0  0  0  0  0  0  0  0  0  0  0  0
    0.3140   14.6460    0.0620 N   0  0  0  0  0  0  0  0  0  0  0  0
   -0.1540   14.5220    1.3280 C   0  0  0  0  0  0  0  0  0  0  0  0
  1  2  1  0
  2  3  2  0
  2  4  1  0
  4  5  2  0
  3  6  1  0
  5  7  1  0
  6  7  2  0
  7  8  1  0
  8  9  2  0
  8 10  1  0
 10 11  1  0
 11 12  2  0
 11 13  1  0
 12 14  1  0
 13 15  2  0
 14 15  1  0
 13 16  1  0
 14 17  1  0
 16 18  1  0
 16 19  2  0
 15 20  1  0
 19 21  1  0
 20 21  2  0
M  END
