mac-x0402-mac-x0373
     RDKit          3D

 20 22  0  0  0  0  0  0  0  0999 V2000
   -1.5720   14.4250   -2.8870 N   0  0  0  0  0  0  0  0  0  0  0  0
   -0.3010   14.4700   -2.2570 C   0  0  0  0  0  0  0  0  0  0  0  0
    0.1620   13.2600   -1.8410 O   0  0  0  0  0  0  0  0  0  0  0  0
   -2.7630   14.6450   -2.1060 C   0  0  0  0  0  0  0  0  0  0  0  0
   -1.7490   13.2400   -3.6840 C   0  0  0  0  0  0  0  0  0  0  0  0
    0.4020   15.4470   -2.0650 O   0  0  0  0  0  0  0  0  0  0  0  0
   -4.0000   14.9720   -2.6950 C   0  0  0  0  0  0  0  0  0  0  0  0
   -2.6810   14.5090   -0.7190 C   0  0  0  0  0  0  0  0  0  0  0  0
   -1.0690   12.9990   -4.8880 C   0  0  0  0  0  0  0  0  0  0  0  0
   -2.6540   12.2600   -3.2330 C   0  0  0  0  0  0  0  0  0  0  0  0
   -3.8370   14.6830    0.0390 C   0  0  0  0  0  0  0  0  0  0  0  0
   -5.1540   15.1450   -1.9130 C   0  0  0  0  0  0  0  0  0  0  0  0
   -1.2870   11.8190   -5.6140 C   0  0  0  0  0  0  0  0  0  0  0  0
   -2.8710   11.0850   -3.9520 C   0  0  0  0  0  0  0  0  0  0  0  0
   -5.0670   14.9880   -0.5210 C   0  0  0  0  0  0  0  0  0  0  0  0
   -4.0020   14.5630    1.7270 S   0  0  0  0  0  0  0  0  0  0  0  0
   -2.1870   10.8630   -5.1430 C   0  0  0  0  0  0  0  0  0  0  0  0
   -5.6750   14.9020    1.5920 C   0  0  0  0  0  0  0  0  0  0  0  0
   -6.1050   15.1030    0.3730 N   0  0  0  0  0  0  0  0  0  0  0  0
   -6.4840   14.9570    2.6620 N   0  0  0  0  0  0  0  0  0  0  0  0
  1  2  1  0
  2  3  1  0
  1  4  1  0
  1  5  1  0
  2  6  2  0
  4  7  2  0
  4  8  1  0
  5  9  2  0
  5 10  1  0
  8 11  2  0
  7 12  1  0
  9 13  1  0
 10 14  2  0
 11 15  1  0
 12 15  2  0
 11 16  1  0
 13 17  2  0
 14 17  1  0
 16 18  1  0
 15 19  1  0
 18 19  2  0
 18 20  1  0
M  END
