mac-x0415-mac-x0190
     RDKit          3D

 27 30  0  0  0  0  0  0  0  0999 V2000
   -0.0290   11.1220   -3.1200 O   0  0  0  0  0  0  0  0  0  0  0  0
    0.7720   12.2040   -3.1770 C   0  0  0  0  0  0  0  0  0  0  0  0
    1.2530   12.6670   -2.1570 O   0  0  0  0  0  0  0  0  0  0  0  0
    0.9730   12.7290   -4.5810 C   0  0  0  0  0  0  0  0  0  0  0  0
    0.7500   14.1850   -4.5370 C   0  0  0  0  0  0  0  0  0  0  0  0
    1.7990   15.1780   -4.3980 C   0  0  0  0  0  0  0  0  0  0  0  0
   -0.3090   14.9780   -4.6060 C   0  0  0  0  0  0  0  0  0  0  0  0
    1.4720   16.4320   -4.3800 N   0  0  0  0  0  0  0  0  0  0  0  0
    0.0430   16.4070   -4.4290 C   0  0  1  0  0  0  0  0  0  0  0  0
   -1.6870   14.7050   -4.7690 C   0  0  0  0  0  0  0  0  0  0  0  0
   -0.7050   17.3460   -5.3100 C   0  0  0  0  0  0  0  0  0  0  0  0
   -2.4800   15.6690   -5.2860 C   0  0  0  0  0  0  0  0  0  0  0  0
   -3.8170   15.5080   -5.4420 O   0  0  0  0  0  0  0  0  0  0  0  0
   -1.9370   16.9710   -5.7030 C   0  0  0  0  0  0  0  0  0  0  0  0
   -4.3160   14.8120   -4.2960 C   0  0  0  0  0  0  0  0  0  0  0  0
   -3.4930   15.3260   -3.0950 C   0  0  0  0  0  0  0  0  0  0  0  0
   -4.2030   15.1650   -1.7790 C   0  0  0  0  0  0  0  0  0  0  0  0
   -5.5780   14.9890   -1.8230 C   0  0  0  0  0  0  0  0  0  0  0  0
   -3.5190   15.1780   -0.5440 C   0  0  0  0  0  0  0  0  0  0  0  0
   -6.2340   14.8140   -0.6270 C   0  0  0  0  0  0  0  0  0  0  0  0
   -4.2110   15.0070    0.6640 C   0  0  0  0  0  0  0  0  0  0  0  0
   -7.5510   14.6080   -0.3560 N   0  0  0  0  0  0  0  0  0  0  0  0
   -5.6030   14.8150    0.6070 C   0  0  0  0  0  0  0  0  0  0  0  0
   -7.6910   14.4840    0.9960 C   0  0  0  0  0  0  0  0  0  0  0  0
   -6.5270   14.6120    1.6040 N   0  0  0  0  0  0  0  0  0  0  0  0
   -9.0100   14.2350    1.6170 C   0  0  0  0  0  0  0  0  0  0  0  0
   -9.2630   15.3010    2.5150 O   0  0  0  0  0  0  0  0  0  0  0  0
  1  2  1  0
  2  3  2  0
  2  4  1  0
  4  5  1  0
  5  6  1  0
  5  7  2  0
  6  8  2  0
  7  9  1  0
  8  9  1  0
  7 10  1  0
  9 11  1  6
 10 12  2  0
 12 13  1  0
 11 14  2  0
 12 14  1  0
 13 15  1  0
 15 16  1  0
 16 17  1  0
 17 18  2  0
 17 19  1  0
 18 20  1  0
 19 21  2  0
 20 22  1  0
 20 23  2  0
 21 23  1  0
 22 24  1  0
 23 25  1  0
 24 25  2  0
 24 26  1  0
 26 27  1  0
M  END
