mac-x0417-mac-x0284
     RDKit          3D

 25 27  0  0  0  0  0  0  0  0999 V2000
    1.6360   12.5540   -2.5030 O   0  0  0  0  0  0  0  0  0  0  0  0
    0.9930   11.8580   -3.4630 C   0  0  0  0  0  0  0  0  0  0  0  0
    0.5220   10.7580   -3.2090 O   0  0  0  0  0  0  0  0  0  0  0  0
    0.8770   12.5070   -4.8290 C   0  0  2  0  0  0  0  0  0  0  0  0
   -0.0700   13.6350   -4.5330 C   0  0  0  0  0  0  0  0  0  0  0  0
    0.5320   11.5840   -5.9680 C   0  0  0  0  0  0  0  0  0  0  0  0
   -0.3310   13.4630   -3.1320 O   0  0  0  0  0  0  0  0  0  0  0  0
    1.3870   11.4990   -6.9830 N   0  0  0  0  0  0  0  0  0  0  0  0
   -0.5840   10.7170   -6.1800 C   0  0  0  0  0  0  0  0  0  0  0  0
   -0.4150   14.4890   -2.2900 C   0  0  0  0  0  0  0  0  0  0  0  0
    0.8550   10.5920   -7.8810 O   0  0  0  0  0  0  0  0  0  0  0  0
   -0.3160   10.1200   -7.4020 C   0  0  0  0  0  0  0  0  0  0  0  0
   -1.7600   10.3500   -5.5270 C   0  0  0  0  0  0  0  0  0  0  0  0
    0.5080   15.0950   -1.7610 O   0  0  0  0  0  0  0  0  0  0  0  0
   -1.1350    9.1810   -8.0220 C   0  0  0  0  0  0  0  0  0  0  0  0
   -2.6150    9.4100   -6.1110 C   0  0  0  0  0  0  0  0  0  0  0  0
   -1.8320   14.7760   -2.0590 C   0  0  0  0  0  0  0  0  0  0  0  0
   -2.3060    8.8320   -7.3420 C   0  0  0  0  0  0  0  0  0  0  0  0
   -2.3360   14.9320   -0.7670 C   0  0  0  0  0  0  0  0  0  0  0  0
   -2.6900   14.8940   -3.1560 C   0  0  0  0  0  0  0  0  0  0  0  0
   -2.2980   14.7590   -4.4620 O   0  0  0  0  0  0  0  0  0  0  0  0
   -3.6850   15.2170   -0.5630 C   0  0  0  0  0  0  0  0  0  0  0  0
   -4.0330   15.1670   -2.9600 C   0  0  0  0  0  0  0  0  0  0  0  0
   -4.2060   15.4000    0.8290 C   0  0  0  0  0  0  0  0  0  0  0  0
   -4.5330   15.3320   -1.6700 C   0  0  0  0  0  0  0  0  0  0  0  0
  1  2  1  0
  2  3  2  0
  2  4  1  0
  4  5  1  1
  4  6  1  0
  5  7  1  0
  6  8  2  0
  6  9  1  0
  7 10  1  0
  8 11  1  0
  9 12  2  0
 11 12  1  0
  9 13  1  0
 10 14  2  0
 12 15  1  0
 13 16  2  0
 10 17  1  0
 15 18  2  0
 16 18  1  0
 17 19  2  0
 17 20  1  0
 20 21  1  0
 19 22  1  0
 20 23  2  0
 22 24  1  0
 22 25  2  0
 23 25  1  0
M  END
