mac-x0455-mac-x0303
     RDKit          3D

 27 29  0  0  0  0  0  0  0  0999 V2000
   -1.8680   13.8240   -2.2990 C   0  0  0  0  0  0  0  0  0  0  0  0
   -0.7530   13.9890   -3.3500 C   0  0  1  0  0  0  0  0  0  0  0  0
   -0.9240   15.2680   -4.0150 O   0  0  0  0  0  0  0  0  0  0  0  0
    0.4990   14.0510   -2.4400 C   0  0  0  0  0  0  0  0  0  0  0  0
   -0.8350   12.8410   -4.3490 C   0  0  0  0  0  0  0  0  0  0  0  0
    1.1330   15.0430   -2.1360 O   0  0  0  0  0  0  0  0  0  0  0  0
    0.8500   12.8220   -1.9750 O   0  0  0  0  0  0  0  0  0  0  0  0
   -1.8520   16.1610   -3.4000 C   0  0  0  0  0  0  0  0  0  0  0  0
   -1.9120   11.9420   -4.3740 C   0  0  0  0  0  0  0  0  0  0  0  0
    0.1980   12.6570   -5.2900 C   0  0  0  0  0  0  0  0  0  0  0  0
   -3.2460   15.5500   -3.5080 C   0  0  0  0  0  0  0  0  0  0  0  0
   -1.9560   10.8990   -5.2990 C   0  0  0  0  0  0  0  0  0  0  0  0
    0.1550   11.6150   -6.2150 C   0  0  0  0  0  0  0  0  0  0  0  0
   -0.9250   10.7350   -6.2180 C   0  0  0  0  0  0  0  0  0  0  0  0
   -3.9430   15.3960   -2.1620 C   0  0  0  0  0  0  0  0  0  0  0  0
   -5.3310   15.1640   -2.0930 C   0  0  0  0  0  0  0  0  0  0  0  0
   -3.1780   15.4800   -0.9870 C   0  0  0  0  0  0  0  0  0  0  0  0
   -5.8840   15.0130   -0.8160 C   0  0  0  0  0  0  0  0  0  0  0  0
   -3.7560   15.3270    0.2720 C   0  0  0  0  0  0  0  0  0  0  0  0
   -7.1610   14.7790   -0.3700 N   0  0  0  0  0  0  0  0  0  0  0  0
   -5.1260   15.0870    0.3420 C   0  0  0  0  0  0  0  0  0  0  0  0
   -7.1290   14.7160    1.0060 C   0  0  0  0  0  0  0  0  0  0  0  0
   -5.9020   14.9000    1.4470 N   0  0  0  0  0  0  0  0  0  0  0  0
   -8.5600   14.4440    1.9970 S   0  0  0  0  0  0  0  0  0  0  0  0
   -8.4070   12.8780    2.6240 N   0  0  0  0  0  0  0  0  0  0  0  0
   -8.4700   15.3250    3.1340 O   0  0  0  0  0  0  0  0  0  0  0  0
   -9.7040   14.4070    1.1230 O   0  0  0  0  0  0  0  0  0  0  0  0
  2  1  1  1
  2  3  1  0
  2  4  1  0
  2  5  1  0
  4  6  2  0
  4  7  1  0
  3  8  1  0
  5  9  2  0
  5 10  1  0
  8 11  1  0
  9 12  1  0
 10 13  2  0
 12 14  2  0
 13 14  1  0
 11 15  1  0
 15 16  2  0
 15 17  1  0
 16 18  1  0
 17 19  2  0
 18 20  1  0
 18 21  2  0
 19 21  1  0
 20 22  1  0
 21 23  1  0
 22 23  2  0
 22 24  1  0
 24 25  1  0
 24 26  2  0
 24 27  2  0
M  END
