mac-x0115-mac-x0212
     RDKit          3D

 24 26  0  0  0  0  0  0  0  0999 V2000
   -1.4840   18.4160   -5.3340 C   0  0  0  0  0  0  0  0  0  0  0  0
   -0.3130   17.4510   -5.4700 C   0  0  0  0  0  0  0  0  0  0  0  0
    0.8760   17.9450   -4.6650 C   0  0  0  0  0  0  0  0  0  0  0  0
   -0.7820   16.1730   -4.9980 O   0  0  0  0  0  0  0  0  0  0  0  0
    0.1970   15.3300   -4.3650 C   0  0  0  0  0  0  0  0  0  0  0  0
   -0.4730   14.0900   -3.6880 C   0  0  2  0  0  0  0  0  0  0  0  0
   -2.0400   14.0060   -3.7790 C   0  0  2  0  0  0  0  0  0  0  0  0
   -0.3490   14.0100   -2.2190 N   0  0  0  0  0  0  0  0  0  0  0  0
   -2.6140   14.3370   -5.0170 O   0  0  0  0  0  0  0  0  0  0  0  0
    0.7530   14.1460   -1.4060 C   0  0  0  0  0  0  0  0  0  0  0  0
   -1.4370   14.7460   -1.6640 C   0  0  1  0  0  0  0  0  0  0  0  0
   -2.5560   14.9170   -2.6570 C   0  0  2  0  0  0  0  0  0  0  0  0
    2.3590   14.0530   -1.8720 S   0  0  0  0  0  0  0  0  0  0  0  0
    0.4230   14.4010   -0.0590 N   0  0  0  0  0  0  0  0  0  0  0  0
   -2.0240   14.1920   -0.4090 C   0  0  1  0  0  0  0  0  0  0  0  0
   -3.8240   14.7320   -1.7730 C   0  0  0  0  0  0  0  0  0  0  0  0
   -0.8670   14.4910    0.5390 C   0  0  0  0  0  0  0  0  0  0  0  0
   -3.3410   14.9420   -0.3710 N   0  0  0  0  0  0  0  0  0  0  0  0
   -1.0060   14.7820    1.7320 O   0  0  0  0  0  0  0  0  0  0  0  0
   -4.2650   14.7550    0.7520 N   0  0  0  0  0  0  0  0  0  0  0  0
   -5.9690   14.3740    0.5770 S   0  0  0  0  0  0  0  0  0  0  0  0
   -5.9440   12.6140    0.8490 C   0  0  0  0  0  0  0  0  0  0  0  0
   -6.7720   14.9350    1.6520 O   0  0  0  0  0  0  0  0  0  0  0  0
   -6.3760   14.6290   -0.7870 O   0  0  0  0  0  0  0  0  0  0  0  0
  1  2  1  0
  2  3  1  0
  2  4  1  0
  4  5  1  0
  6  5  1  1
  6  7  1  0
  6  8  1  0
  7  9  1  6
  8 10  1  0
 11  8  1  6
  7 12  1  0
 11 12  1  0
 10 13  2  0
 10 14  1  0
 11 15  1  0
 12 16  1  1
 14 17  1  0
 15 17  1  1
 15 18  1  0
 16 18  1  0
 17 19  2  0
 18 20  1  0
 21 20  1  0
 21 22  1  0
 21 23  2  0
 21 24  2  0
M  END
