mac-x0326-diamond-x0685_1_A
     RDKit          3D

 24 26  0  0  0  0  0  0  0  0999 V2000
   -6.5190   15.6270   -1.4150 Cl  0  0  0  0  0  0  0  0  0  0  0  0
   -4.8300   15.3610   -1.2750 C   0  0  0  0  0  0  0  0  0  0  0  0
   -4.0740   15.2010   -2.4260 C   0  0  0  0  0  0  0  0  0  0  0  0
   -4.2500   15.3060   -0.0100 C   0  0  0  0  0  0  0  0  0  0  0  0
   -2.7030   14.9740   -2.3040 C   0  0  0  0  0  0  0  0  0  0  0  0
   -2.8850   15.0820    0.1350 C   0  0  0  0  0  0  0  0  0  0  0  0
   -1.8450   14.7890   -3.3480 N   0  0  0  0  0  0  0  0  0  0  0  0
   -2.1250   14.9180   -1.0290 C   0  0  0  0  0  0  0  0  0  0  0  0
   -0.6480   14.5820   -2.8770 C   0  0  0  0  0  0  0  0  0  0  0  0
   -0.4380   14.6350   -1.1780 S   0  0  0  0  0  0  0  0  0  0  0  0
    0.4680   14.2530   -3.7620 C   0  0  0  0  0  0  0  0  0  0  0  0
    0.1440   12.7560   -3.8100 C   0  0  2  0  0  0  0  0  0  0  0  0
    0.8020   12.0150   -2.6440 C   0  0  0  0  0  0  0  0  0  0  0  0
    0.1370   12.0860   -5.1730 C   0  0  0  0  0  0  0  0  0  0  0  0
    0.5880   10.6200   -2.6570 O   0  0  0  0  0  0  0  0  0  0  0  0
    2.1570   12.3100   -2.5550 O   0  0  0  0  0  0  0  0  0  0  0  0
   -0.7390   10.9360   -5.2390 N   0  0  0  0  0  0  0  0  0  0  0  0
    0.2410   12.4610   -1.4310 O   0  0  0  0  0  0  0  0  0  0  0  0
   -0.6520   10.2790   -6.5300 C   0  0  0  0  0  0  0  0  0  0  0  0
   -0.6060    8.7610   -6.6010 C   0  0  0  0  0  0  0  0  0  0  0  0
   -1.5830   10.8500   -7.5990 C   0  0  0  0  0  0  0  0  0  0  0  0
   -0.1020    8.3110   -7.9660 C   0  0  0  0  0  0  0  0  0  0  0  0
   -1.1580   10.4250   -8.9980 C   0  0  0  0  0  0  0  0  0  0  0  0
   -0.9430    8.9110   -9.1010 C   0  0  0  0  0  0  0  0  0  0  0  0
  1  2  1  0
  2  3  2  0
  2  4  1  0
  3  5  1  0
  4  6  2  0
  5  7  1  0
  5  8  2  0
  6  8  1  0
  7  9  2  0
  8 10  1  0
  9 10  1  0
  9 11  1  0
 12 11  1  6
 12 13  1  0
 12 14  1  0
 13 15  1  0
 13 16  1  0
 14 17  1  0
 13 18  1  0
 17 19  1  0
 19 20  1  0
 19 21  1  0
 20 22  1  0
 21 23  1  0
 22 24  1  0
 23 24  1  0
M  END
