mac-x0180-mac-x0213
     RDKit          3D

 25 27  0  0  0  0  0  0  0  0999 V2000
   -8.2160   14.5740    1.8660 C   0  0  0  0  0  0  0  0  0  0  0  0
   -7.1970   14.6560    0.7670 C   0  0  0  0  0  0  0  0  0  0  0  0
   -7.5310   14.5430   -0.4100 O   0  0  0  0  0  0  0  0  0  0  0  0
   -5.9110   14.8730    1.2320 N   0  0  0  0  0  0  0  0  0  0  0  0
   -4.8510   14.9180    0.3460 C   0  0  0  0  0  0  0  0  0  0  0  0
   -3.5530   14.7810    0.8640 C   0  0  0  0  0  0  0  0  0  0  0  0
   -5.0780   15.0850   -1.0130 C   0  0  0  0  0  0  0  0  0  0  0  0
   -2.4850   14.7990   -0.0030 C   0  0  0  0  0  0  0  0  0  0  0  0
   -4.0240   15.1010   -1.8710 C   0  0  0  0  0  0  0  0  0  0  0  0
   -2.7690   14.9510   -1.3430 C   0  0  0  0  0  0  0  0  0  0  0  0
   -1.7670   14.9510   -2.2780 C   0  0  0  0  0  0  0  0  0  0  0  0
   -1.6590   14.3220   -3.3380 N   0  0  0  0  0  0  0  0  0  0  0  0
   -0.7770   15.7890   -1.9120 O   0  0  0  0  0  0  0  0  0  0  0  0
   -0.4790   14.8870   -3.6840 C   0  0  1  0  0  0  0  0  0  0  0  0
    0.5750   14.0570   -4.3020 C   0  0  2  0  0  0  0  0  0  0  0  0
   -0.6410   16.0390   -4.5470 C   0  0  0  0  0  0  0  0  0  0  0  0
    0.8220   12.8970   -3.3510 C   0  0  0  0  0  0  0  0  0  0  0  0
    0.6360   16.3200   -4.9350 C   0  0  0  0  0  0  0  0  0  0  0  0
    1.5470   15.2600   -4.2910 C   0  0  0  0  0  0  0  0  0  0  0  0
   -1.7630   16.7560   -4.9260 C   0  0  0  0  0  0  0  0  0  0  0  0
    0.3250   11.7170   -3.7980 O   0  0  0  0  0  0  0  0  0  0  0  0
    1.3840   12.9790   -2.2690 O   0  0  0  0  0  0  0  0  0  0  0  0
   -1.5580   17.8490   -5.7570 C   0  0  0  0  0  0  0  0  0  0  0  0
    0.8560   17.4080   -5.7600 C   0  0  0  0  0  0  0  0  0  0  0  0
   -0.2520   18.1730   -6.1670 C   0  0  0  0  0  0  0  0  0  0  0  0
  1  2  1  0
  2  3  2  0
  2  4  1  0
  4  5  1  0
  5  6  2  0
  5  7  1  0
  6  8  1  0
  7  9  2  0
  8 10  2  0
  9 10  1  0
 10 11  1  0
 11 12  2  3
 11 13  1  0
 14 12  1  6
 14 15  1  0
 14 16  1  0
 15 17  1  1
 16 18  2  0
 15 19  1  0
 18 19  1  0
 16 20  1  0
 17 21  1  0
 17 22  2  0
 20 23  2  0
 18 24  1  0
 23 25  1  0
 24 25  2  0
M  END
