mac-x0567-mac-x0188
     RDKit          3D

 18 20  0  0  0  0  0  0  0  0999 V2000
    0.2360   14.2710    0.3680 N   0  0  0  0  0  0  0  0  0  0  0  0
   -1.0480   14.6120    0.3520 C   0  0  0  0  0  0  0  0  0  0  0  0
   -1.6780   15.0190    1.4940 N   0  0  0  0  0  0  0  0  0  0  0  0
   -1.9880   14.6430   -0.6710 C   0  0  0  0  0  0  0  0  0  0  0  0
   -2.9670   15.3280    1.3250 N   0  0  0  0  0  0  0  0  0  0  0  0
   -3.1600   15.1070    0.0220 C   0  0  0  0  0  0  0  0  0  0  0  0
   -1.9810   14.2910   -2.1870 C   0  0  1  0  0  0  0  0  0  0  0  0
   -4.3650   15.2770   -0.6960 C   0  0  0  0  0  0  0  0  0  0  0  0
   -3.4100   13.6490   -2.3440 C   0  0  0  0  0  0  0  0  0  0  0  0
   -2.0040   15.2900   -3.2910 N   0  0  0  0  0  0  0  0  0  0  0  0
   -0.7270   13.4710   -2.6650 C   0  0  2  0  0  0  0  0  0  0  0  0
    0.5140   13.7470   -1.8750 C   0  0  0  0  0  0  0  0  0  0  0  0
   -4.5210   14.5920   -1.8440 C   0  0  0  0  0  0  0  0  0  0  0  0
   -0.3700   13.9910   -4.0570 C   0  0  2  0  0  0  0  0  0  0  0  0
   -1.6140   14.5110   -4.4880 O   0  0  0  0  0  0  0  0  0  0  0  0
    0.2290   12.9630   -5.0170 C   0  0  0  0  0  0  0  0  0  0  0  0
    1.2940   14.6780   -1.9880 O   0  0  0  0  0  0  0  0  0  0  0  0
    0.7420   12.8190   -0.9340 O   0  0  0  0  0  0  0  0  0  0  0  0
  1  2  1  0
  2  3  1  0
  2  4  2  0
  3  5  1  0
  4  6  1  0
  5  6  2  0
  4  7  1  0
  6  8  1  0
  7  9  1  1
  7 10  1  0
  7 11  1  0
 11 12  1  1
  8 13  2  0
  9 13  1  0
 11 14  1  0
 10 15  1  0
 14 15  1  0
 14 16  1  6
 12 17  2  0
 12 18  1  0
M  END
