mac-x1493-mac-x0193
     RDKit          3D

 29 31  0  0  0  0  0  0  0  0999 V2000
   -1.0450   15.2970   -1.5020 O   0  0  0  0  0  0  0  0  0  0  0  0
   -1.9240   14.8460   -2.4930 C   0  0  0  0  0  0  0  0  0  0  0  0
   -2.0410   15.7840   -3.5550 O   0  0  0  0  0  0  0  0  0  0  0  0
   -1.0440   13.8190   -3.1770 C   0  0  0  0  0  0  0  0  0  0  0  0
   -3.3230   14.7060   -1.8640 C   0  0  0  0  0  0  0  0  0  0  0  0
    0.3860   13.7390   -2.5970 C   0  0  0  0  0  0  0  0  0  0  0  0
   -3.5020   14.9150   -0.4800 C   0  0  0  0  0  0  0  0  0  0  0  0
   -4.4840   14.4010   -2.5740 C   0  0  0  0  0  0  0  0  0  0  0  0
    0.4980   12.3650   -2.2760 N   0  0  0  0  0  0  0  0  0  0  0  0
   -4.7700   14.8140    0.1150 C   0  0  0  0  0  0  0  0  0  0  0  0
   -5.7280   14.2950   -2.0230 N   0  0  0  0  0  0  0  0  0  0  0  0
    0.4700   11.5640   -3.2470 C   0  0  0  0  0  0  0  0  0  0  0  0
   -5.8680   14.4970   -0.7020 C   0  0  0  0  0  0  0  0  0  0  0  0
   -4.9680   15.0180    1.4850 C   0  0  0  0  0  0  0  0  0  0  0  0
    0.4660   10.2360   -3.1100 O   0  0  0  0  0  0  0  0  0  0  0  0
    0.4240   12.1270   -4.6740 C   0  0  0  0  0  0  0  0  0  0  0  0
   -7.1300   14.3900   -0.1200 C   0  0  0  0  0  0  0  0  0  0  0  0
   -6.2460   14.9010    2.0460 C   0  0  0  0  0  0  0  0  0  0  0  0
    0.0720   11.1400   -5.6650 N   0  0  0  0  0  0  0  0  0  0  0  0
   -7.3300   14.5860    1.2460 C   0  0  0  0  0  0  0  0  0  0  0  0
    0.7240   11.2130   -6.8650 C   0  0  0  0  0  0  0  0  0  0  0  0
    1.7680   11.8080   -6.9870 O   0  0  0  0  0  0  0  0  0  0  0  0
    0.0670   10.5370   -7.8650 N   0  0  0  0  0  0  0  0  0  0  0  0
    0.7860   10.0760   -9.0490 C   0  0  0  0  0  0  0  0  0  0  0  0
    1.3550    8.6870   -8.7870 C   0  0  0  0  0  0  0  0  0  0  0  0
   -0.1040   10.0490  -10.2950 C   0  0  0  0  0  0  0  0  0  0  0  0
    2.1310    8.1330   -9.9850 C   0  0  0  0  0  0  0  0  0  0  0  0
    0.6580    9.5090  -11.5080 C   0  0  0  0  0  0  0  0  0  0  0  0
    1.2700    8.1370  -11.2400 C   0  0  0  0  0  0  0  0  0  0  0  0
  2  1  1  0
  2  3  1  0
  2  4  1  0
  2  5  1  0
  4  6  1  0
  5  7  2  0
  5  8  1  0
  6  9  1  0
  7 10  1  0
  8 11  2  0
  9 12  2  3
 10 13  2  0
 11 13  1  0
 10 14  1  0
 12 15  1  0
 12 16  1  0
 13 17  1  0
 14 18  2  0
 16 19  1  0
 17 20  2  0
 18 20  1  0
 19 21  1  0
 21 22  2  0
 21 23  1  0
 23 24  1  0
 24 25  1  0
 24 26  1  0
 25 27  1  0
 26 28  1  0
 27 29  1  0
 28 29  1  0
M  END
