mac-x0178-diamond-x0574_0_A
     RDKit          3D

 27 29  0  0  0  0  0  0  0  0999 V2000
   -0.3600   18.1290   -6.4920 N   0  0  0  0  0  0  0  0  0  0  0  0
   -1.7200   17.5660   -5.6850 S   0  0  0  0  0  0  0  0  0  0  0  0
   -2.6490   17.1450   -6.7070 O   0  0  0  0  0  0  0  0  0  0  0  0
   -2.0380   18.5610   -4.6960 O   0  0  0  0  0  0  0  0  0  0  0  0
   -1.0680   16.1410   -4.8500 C   0  0  0  0  0  0  0  0  0  0  0  0
    0.1230   16.2660   -4.1350 C   0  0  0  0  0  0  0  0  0  0  0  0
   -1.7510   14.9160   -4.9140 C   0  0  0  0  0  0  0  0  0  0  0  0
    0.6340   15.1630   -3.4690 C   0  0  0  0  0  0  0  0  0  0  0  0
   -1.2300   13.8100   -4.2440 C   0  0  0  0  0  0  0  0  0  0  0  0
   -0.0460   13.9420   -3.5220 C   0  0  0  0  0  0  0  0  0  0  0  0
    0.5090   12.8090   -2.7960 C   0  0  0  0  0  0  0  0  0  0  0  0
    1.3450   12.7880   -1.8540 N   0  0  0  0  0  0  0  0  0  0  0  0
    0.0290   11.6380   -3.2310 O   0  0  0  0  0  0  0  0  0  0  0  0
    1.9210   14.0460   -1.3630 C   0  0  0  0  0  0  0  0  0  0  0  0
    1.0060   14.8750   -0.4170 C   0  0  0  0  0  0  0  0  0  0  0  0
    0.2490   14.2470    0.6780 N   0  0  0  0  0  0  0  0  0  0  0  0
   -1.0280   14.4170    0.5350 C   0  0  0  0  0  0  0  0  0  0  0  0
   -1.9450   14.3990    1.4810 N   0  0  0  0  0  0  0  0  0  0  0  0
   -1.5040   14.6940   -1.0660 S   0  0  0  0  0  0  0  0  0  0  0  0
   -3.1690   14.6130    0.8350 C   0  0  0  0  0  0  0  0  0  0  0  0
   -3.0920   14.8000   -0.5500 C   0  0  0  0  0  0  0  0  0  0  0  0
   -4.4550   14.6630    1.3980 C   0  0  0  0  0  0  0  0  0  0  0  0
   -4.1810   15.0340   -1.3690 C   0  0  0  0  0  0  0  0  0  0  0  0
   -5.5780   14.8880    0.5760 C   0  0  0  0  0  0  0  0  0  0  0  0
   -5.4250   15.0750   -0.7850 C   0  0  0  0  0  0  0  0  0  0  0  0
   -6.8030   14.9110    1.1840 O   0  0  0  0  0  0  0  0  0  0  0  0
   -6.8940   14.7060    2.5810 C   0  0  0  0  0  0  0  0  0  0  0  0
  2  1  1  0
  2  3  2  0
  2  4  2  0
  2  5  1  0
  5  6  2  0
  5  7  1  0
  6  8  1  0
  7  9  2  0
  8 10  2  0
  9 10  1  0
 10 11  1  0
 11 12  2  3
 11 13  1  0
 12 14  1  0
 14 15  1  0
 15 16  1  0
 16 17  1  0
 17 18  2  0
 17 19  1  0
 18 20  1  0
 19 21  1  0
 20 21  2  0
 20 22  1  0
 21 23  1  0
 22 24  2  0
 23 25  2  0
 24 25  1  0
 24 26  1  0
 26 27  1  0
M  END
