mac-x0303-mac-x0365
     RDKit          3D

 18 19  0  0  0  0  0  0  0  0999 V2000
   -8.1360   13.0780    3.2890 N   0  0  0  0  0  0  0  0  0  0  0  0
   -8.3680   14.5420    2.5110 S   0  0  0  0  0  0  0  0  0  0  0  0
   -8.1860   15.6220    3.4440 O   0  0  0  0  0  0  0  0  0  0  0  0
   -9.5620   14.4290    1.7040 O   0  0  0  0  0  0  0  0  0  0  0  0
   -7.0430   14.6770    1.3670 C   0  0  0  0  0  0  0  0  0  0  0  0
   -7.3230   14.8420    0.0650 N   0  0  0  0  0  0  0  0  0  0  0  0
   -5.7220   14.6420    1.5810 N   0  0  0  0  0  0  0  0  0  0  0  0
   -6.1550   14.9040   -0.6020 C   0  0  0  0  0  0  0  0  0  0  0  0
   -5.1500   14.7750    0.3390 C   0  0  0  0  0  0  0  0  0  0  0  0
   -5.9360   15.0520   -1.9110 C   0  0  0  0  0  0  0  0  0  0  0  0
   -3.7960   14.7900   -0.0960 C   0  0  0  0  0  0  0  0  0  0  0  0
   -7.0090   15.1650   -2.7370 O   0  0  0  0  0  0  0  0  0  0  0  0
   -4.6280   15.0620   -2.3620 C   0  0  0  0  0  0  0  0  0  0  0  0
   -3.5390   14.9280   -1.4920 C   0  0  0  0  0  0  0  0  0  0  0  0
   -2.1340   14.9100   -2.0200 C   0  0  0  0  0  0  0  0  0  0  0  0
   -4.4690   15.1910   -3.6710 F   0  0  0  0  0  0  0  0  0  0  0  0
   -1.1250   14.8400   -1.1330 O   0  0  0  0  0  0  0  0  0  0  0  0
   -1.9100   14.9530   -3.2260 O   0  0  0  0  0  0  0  0  0  0  0  0
  2  1  1  0
  2  3  2  0
  2  4  2  0
  2  5  1  0
  5  6  1  0
  5  7  2  0
  6  8  1  0
  7  9  1  0
  8  9  2  0
  8 10  1  0
  9 11  1  0
 10 12  1  0
 10 13  2  0
 11 14  2  0
 13 14  1  0
 14 15  1  0
 13 16  1  0
 15 17  1  0
 15 18  2  0
M  END
