mac-x0138-mac-x0223
     RDKit          3D

 27 29  0  0  0  0  0  0  0  0999 V2000
   -1.9970   14.6300   -3.3900 C   0  0  0  0  0  0  0  0  0  0  0  0
   -2.8690   14.9030   -2.3080 N   0  0  0  0  0  0  0  0  0  0  0  0
   -4.1830   15.2400   -2.3300 C   0  0  0  0  0  0  0  0  0  0  0  0
   -2.4770   14.8640   -1.0420 C   0  0  0  0  0  0  0  0  0  0  0  0
   -4.6470   15.4160   -1.1060 N   0  0  0  0  0  0  0  0  0  0  0  0
   -3.5580   15.1800   -0.2880 C   0  0  0  0  0  0  0  0  0  0  0  0
   -1.2890   14.5820   -0.6390 N   0  0  0  0  0  0  0  0  0  0  0  0
   -3.3350   15.1970    1.0960 C   0  0  0  0  0  0  0  0  0  0  0  0
   -1.1450   14.6110    0.6580 C   0  0  0  0  0  0  0  0  0  0  0  0
   -4.3460   15.5230    1.9730 N   0  0  0  0  0  0  0  0  0  0  0  0
    0.1550   14.3130    0.8550 N   0  0  0  0  0  0  0  0  0  0  0  0
   -2.0830   14.8890    1.5750 N   0  0  0  0  0  0  0  0  0  0  0  0
    0.7320   14.4870   -0.5050 C   0  0  0  0  0  0  0  0  0  0  0  0
    0.2800   13.3870   -1.4760 C   0  0  0  0  0  0  0  0  0  0  0  0
    1.2320   13.1090   -2.5110 O   0  0  0  0  0  0  0  0  0  0  0  0
    0.6840   12.4370   -3.5620 C   0  0  0  0  0  0  0  0  0  0  0  0
    0.8250   13.2700   -4.8310 C   0  0  0  0  0  0  0  0  0  0  0  0
    0.1600   11.3380   -3.4570 O   0  0  0  0  0  0  0  0  0  0  0  0
   -0.0240   14.5300   -4.8760 C   0  0  0  0  0  0  0  0  0  0  0  0
   -1.4190   14.4640   -5.0580 C   0  0  0  0  0  0  0  0  0  0  0  0
    0.5750   15.7910   -4.7340 C   0  0  0  0  0  0  0  0  0  0  0  0
   -0.2030   16.9530   -4.7650 C   0  0  0  0  0  0  0  0  0  0  0  0
   -2.2010   15.6400   -5.0860 C   0  0  0  0  0  0  0  0  0  0  0  0
    0.2830   18.2060   -4.6450 O   0  0  0  0  0  0  0  0  0  0  0  0
   -1.5770   16.8750   -4.9350 C   0  0  0  0  0  0  0  0  0  0  0  0
    1.2240   18.5240   -5.6420 C   0  0  0  0  0  0  0  0  0  0  0  0
   -2.2850   18.0540   -4.9440 O   0  0  0  0  0  0  0  0  0  0  0  0
  1  2  1  0
  2  3  1  0
  2  4  1  0
  3  5  2  0
  4  6  2  0
  5  6  1  0
  4  7  1  0
  6  8  1  0
  7  9  2  0
  8 10  1  0
  9 11  1  0
  8 12  2  0
  9 12  1  0
 11 13  1  0
 13 14  1  0
 14 15  1  0
 15 16  1  0
 16 17  1  0
 16 18  2  0
 17 19  1  0
 19 20  2  0
 19 21  1  0
 21 22  2  0
 20 23  1  0
 22 24  1  0
 22 25  1  0
 23 25  2  0
 24 26  1  0
 25 27  1  0
M  END
