mac-x0496-mac-x0404
     RDKit          3D

 34 37  0  0  0  0  0  0  0  0999 V2000
   -9.6260   17.6510    4.6660 C   0  0  0  0  0  0  0  0  0  0  0  0
   -9.6460   16.7180    3.5180 C   0  0  0  0  0  0  0  0  0  0  0  0
  -10.3500   16.9200    2.3930 N   0  0  0  0  0  0  0  0  0  0  0  0
   -8.9340   15.5610    3.5200 N   0  0  0  0  0  0  0  0  0  0  0  0
  -10.0820   15.8140    1.6090 O   0  0  0  0  0  0  0  0  0  0  0  0
   -9.2280   15.0550    2.3420 C   0  0  0  0  0  0  0  0  0  0  0  0
   -8.7660   13.8080    1.7120 C   0  0  0  0  0  0  0  0  0  0  0  0
   -7.3490   13.9330    1.4500 N   0  0  0  0  0  0  0  0  0  0  0  0
   -6.8960   14.5240    0.2910 C   0  0  0  0  0  0  0  0  0  0  0  0
   -7.6370   14.9510   -0.5870 O   0  0  0  0  0  0  0  0  0  0  0  0
   -5.4230   14.6060    0.1490 C   0  0  0  0  0  0  0  0  0  0  0  0
   -4.6860   14.8520    1.3020 C   0  0  0  0  0  0  0  0  0  0  0  0
   -4.7730   14.4470   -1.0660 C   0  0  0  0  0  0  0  0  0  0  0  0
   -3.2990   14.9240    1.2680 C   0  0  0  0  0  0  0  0  0  0  0  0
   -3.3870   14.5290   -1.1040 C   0  0  0  0  0  0  0  0  0  0  0  0
   -2.6670   14.4030   -2.3640 C   0  0  0  0  0  0  0  0  0  0  0  0
   -2.6450   14.7630    0.0610 C   0  0  0  0  0  0  0  0  0  0  0  0
   -1.9910   13.5910   -3.1320 N   0  0  0  0  0  0  0  0  0  0  0  0
   -2.7790   15.6170   -2.9120 O   0  0  0  0  0  0  0  0  0  0  0  0
   -1.7010   14.5950   -3.9980 C   0  0  0  0  0  0  0  0  0  0  0  0
   -0.4180   15.1190   -4.1820 C   0  0  0  0  0  0  0  0  0  0  0  0
   -2.8050   15.1290   -4.6400 C   0  0  0  0  0  0  0  0  0  0  0  0
    0.7160   14.5790   -3.5750 O   0  0  0  0  0  0  0  0  0  0  0  0
   -0.2810   16.2600   -4.9750 C   0  0  0  0  0  0  0  0  0  0  0  0
   -2.6690   16.2330   -5.4410 C   0  0  0  0  0  0  0  0  0  0  0  0
    1.1040   13.3110   -4.1390 C   0  0  0  0  0  0  0  0  0  0  0  0
   -1.4220   16.8200   -5.5940 C   0  0  0  0  0  0  0  0  0  0  0  0
    0.9440   16.8720   -5.1570 C   0  0  0  0  0  0  0  0  0  0  0  0
    0.8820   12.2190   -3.1090 C   0  0  0  0  0  0  0  0  0  0  0  0
   -1.2930   17.9760   -6.3640 C   0  0  0  0  0  0  0  0  0  0  0  0
    1.0640   18.0280   -5.9210 C   0  0  0  0  0  0  0  0  0  0  0  0
    1.1900   12.5950   -1.8540 O   0  0  0  0  0  0  0  0  0  0  0  0
    0.4570   11.0930   -3.3270 O   0  0  0  0  0  0  0  0  0  0  0  0
   -0.0540   18.5800   -6.5220 C   0  0  0  0  0  0  0  0  0  0  0  0
  1  2  1  0
  2  3  2  0
  2  4  1  0
  3  5  1  0
  4  6  2  0
  5  6  1  0
  6  7  1  0
  7  8  1  0
  8  9  1  0
  9 10  2  0
  9 11  1  0
 11 12  2  0
 11 13  1  0
 12 14  1  0
 13 15  2  0
 15 16  1  0
 14 17  2  0
 15 17  1  0
 16 18  2  3
 16 19  1  0
 18 20  1  0
 20 21  2  0
 20 22  1  0
 21 23  1  0
 21 24  1  0
 22 25  2  0
 23 26  1  0
 24 27  2  0
 25 27  1  0
 24 28  1  0
 26 29  1  0
 27 30  1  0
 28 31  2  0
 29 32  1  0
 29 33  2  0
 30 34  2  0
 31 34  1  0
M  END
