mac-x0333-mac-x0223
     RDKit          3D

 25 27  0  0  0  0  0  0  0  0999 V2000
   -1.5570   14.8210   -1.6690 O   0  0  0  0  0  0  0  0  0  0  0  0
   -2.7680   14.8450   -1.0530 C   0  0  0  0  0  0  0  0  0  0  0  0
   -2.7750   15.1150    0.3130 C   0  0  0  0  0  0  0  0  0  0  0  0
   -3.9010   14.6100   -1.7800 C   0  0  0  0  0  0  0  0  0  0  0  0
   -3.6950   14.3300   -3.2470 C   0  0  0  0  0  0  0  0  0  0  0  0
   -5.1200   14.6650   -1.0560 C   0  0  0  0  0  0  0  0  0  0  0  0
   -3.9710   15.1610    1.0090 C   0  0  0  0  0  0  0  0  0  0  0  0
   -3.9760   15.6070   -3.9830 C   0  0  0  0  0  0  0  0  0  0  0  0
   -5.1260   14.9320    0.3030 C   0  0  0  0  0  0  0  0  0  0  0  0
   -6.3990   14.4780   -1.5130 O   0  0  0  0  0  0  0  0  0  0  0  0
   -2.9230   16.5140   -4.5020 O   0  0  0  0  0  0  0  0  0  0  0  0
   -6.3740   14.9390    0.8470 O   0  0  0  0  0  0  0  0  0  0  0  0
   -7.1740   14.6260   -0.3020 C   0  0  0  0  0  0  0  0  0  0  0  0
   -1.7620   15.8760   -4.5550 C   0  0  0  0  0  0  0  0  0  0  0  0
   -0.4750   16.4900   -4.6780 C   0  0  0  0  0  0  0  0  0  0  0  0
   -1.8930   14.5290   -4.4670 C   0  0  0  0  0  0  0  0  0  0  0  0
   -0.3530   17.8540   -4.7880 O   0  0  0  0  0  0  0  0  0  0  0  0
   -0.8170   13.7260   -4.4640 C   0  0  0  0  0  0  0  0  0  0  0  0
    0.6360   15.6380   -4.6710 C   0  0  0  0  0  0  0  0  0  0  0  0
    0.9140   18.2640   -5.3020 C   0  0  0  0  0  0  0  0  0  0  0  0
    0.4450   14.2510   -4.5520 C   0  0  0  0  0  0  0  0  0  0  0  0
    1.5210   13.2360   -4.4900 C   0  0  0  0  0  0  0  0  0  0  0  0
    1.1490   12.3440   -3.3220 C   0  0  0  0  0  0  0  0  0  0  0  0
    0.4920   11.3160   -3.3180 O   0  0  0  0  0  0  0  0  0  0  0  0
    1.6180   12.8310   -2.1530 O   0  0  0  0  0  0  0  0  0  0  0  0
  1  2  1  0
  2  3  2  0
  2  4  1  0
  4  5  1  0
  4  6  2  0
  3  7  1  0
  5  8  1  0
  6  9  1  0
  7  9  2  0
  6 10  1  0
  8 11  1  0
  9 12  1  0
 10 13  1  0
 12 13  1  0
 11 14  1  0
 14 15  2  0
 14 16  1  0
 15 17  1  0
 16 18  2  0
 15 19  1  0
 17 20  1  0
 18 21  1  0
 19 21  2  0
 21 22  1  0
 22 23  1  0
 23 24  2  0
 23 25  1  0
M  END
