mac-x0226-mac-x0398
     RDKit          3D

 28 30  0  0  0  0  0  0  0  0999 V2000
    1.3390   12.4510   -2.0290 O   0  0  0  0  0  0  0  0  0  0  0  0
    0.3180   11.7260   -2.6850 C   0  0  0  0  0  0  0  0  0  0  0  0
    0.4060   10.3900   -2.2190 O   0  0  0  0  0  0  0  0  0  0  0  0
   -1.0280   12.3130   -2.2280 C   0  0  0  0  0  0  0  0  0  0  0  0
    0.5220   11.7620   -4.1680 C   0  0  0  0  0  0  0  0  0  0  0  0
   -0.9120   13.2450   -1.0090 C   0  0  0  0  0  0  0  0  0  0  0  0
    1.3730   12.5900   -4.9390 C   0  0  0  0  0  0  0  0  0  0  0  0
   -0.0890   10.9660   -5.1100 C   0  0  0  0  0  0  0  0  0  0  0  0
   -1.2630   14.6790   -1.3670 C   0  0  0  0  0  0  0  0  0  0  0  0
    1.3010   12.3260   -6.2460 N   0  0  0  0  0  0  0  0  0  0  0  0
    0.3930   11.3150   -6.3480 N   0  0  0  0  0  0  0  0  0  0  0  0
   -2.0280   14.6490   -2.5830 O   0  0  0  0  0  0  0  0  0  0  0  0
    0.0340   10.7310   -7.5960 C   0  0  0  0  0  0  0  0  0  0  0  0
   -3.2790   15.1880   -2.6230 C   0  0  0  0  0  0  0  0  0  0  0  0
   -1.1120    9.9370   -7.6780 C   0  0  0  0  0  0  0  0  0  0  0  0
    0.7900   10.9240   -8.7420 C   0  0  0  0  0  0  0  0  0  0  0  0
   -3.7330   15.7070   -3.6280 O   0  0  0  0  0  0  0  0  0  0  0  0
   -1.4760    9.3570   -8.8980 C   0  0  0  0  0  0  0  0  0  0  0  0
    0.4370   10.3530   -9.9560 C   0  0  0  0  0  0  0  0  0  0  0  0
   -4.0780   15.0760   -1.3590 C   0  0  0  0  0  0  0  0  0  0  0  0
   -0.7010    9.5660  -10.0350 C   0  0  0  0  0  0  0  0  0  0  0  0
   -5.4760   15.0910   -1.3680 C   0  0  0  0  0  0  0  0  0  0  0  0
   -3.4310   14.9490   -0.1100 C   0  0  0  0  0  0  0  0  0  0  0  0
   -6.2240   15.2090   -2.5090 O   0  0  0  0  0  0  0  0  0  0  0  0
   -6.2060   14.9800   -0.1890 C   0  0  0  0  0  0  0  0  0  0  0  0
   -4.1700   14.8390    1.0750 C   0  0  0  0  0  0  0  0  0  0  0  0
   -5.5660   14.8520    1.0470 C   0  0  0  0  0  0  0  0  0  0  0  0
   -6.3320   14.7430    2.2180 N   0  0  0  0  0  0  0  0  0  0  0  0
  2  1  1  0
  2  3  1  0
  2  4  1  0
  2  5  1  0
  4  6  1  0
  5  7  1  0
  5  8  2  0
  6  9  1  0
  7 10  2  0
  8 11  1  0
 10 11  1  0
  9 12  1  0
 11 13  1  0
 12 14  1  0
 13 15  2  0
 13 16  1  0
 14 17  2  0
 15 18  1  0
 16 19  2  0
 14 20  1  0
 18 21  2  0
 19 21  1  0
 20 22  2  0
 20 23  1  0
 22 24  1  0
 22 25  1  0
 23 26  2  0
 25 27  2  0
 26 27  1  0
 27 28  1  0
M  END
