mac-x0277-mac-x0472
     RDKit          3D

 26 28  0  0  0  0  0  0  0  0999 V2000
   -1.8570   17.7590   -5.1360 Cl  0  0  0  0  0  0  0  0  0  0  0  0
   -0.8740   16.3370   -4.7650 C   0  0  0  0  0  0  0  0  0  0  0  0
   -1.4410   15.1160   -4.3230 C   0  0  0  0  0  0  0  0  0  0  0  0
    0.4950   16.4790   -4.9290 C   0  0  0  0  0  0  0  0  0  0  0  0
   -2.8340   14.8130   -4.0680 N   0  0  0  0  0  0  0  0  0  0  0  0
   -0.5360   14.0980   -4.1030 C   0  0  0  0  0  0  0  0  0  0  0  0
    1.3420   15.4410   -4.6800 C   0  0  0  0  0  0  0  0  0  0  0  0
   -3.6220   14.6350   -2.6320 S   0  0  0  0  0  0  0  0  0  0  0  0
    0.8020   14.2370   -4.2720 C   0  0  0  0  0  0  0  0  0  0  0  0
    1.6820   13.0860   -4.0080 C   0  0  0  0  0  0  0  0  0  0  0  0
   -4.6350   15.7070   -2.9670 O   0  0  0  0  0  0  0  0  0  0  0  0
   -2.2440   14.8270   -1.7250 N   0  0  0  0  0  0  0  0  0  0  0  0
   -4.1600   12.9390   -2.5150 C   0  0  0  0  0  0  0  0  0  0  0  0
    1.1210   12.3230   -2.8860 C   0  0  0  0  0  0  0  0  0  0  0  0
   -2.6310   14.9440   -0.3500 C   0  0  0  0  0  0  0  0  0  0  0  0
   -3.3130   11.9630   -2.9400 C   0  0  0  0  0  0  0  0  0  0  0  0
   -5.3740   12.6830   -1.9910 C   0  0  0  0  0  0  0  0  0  0  0  0
    0.4440   11.1410   -2.9960 O   0  0  0  0  0  0  0  0  0  0  0  0
    1.2670   12.8150   -1.7160 O   0  0  0  0  0  0  0  0  0  0  0  0
   -2.0060   14.6070    0.7770 N   0  0  0  0  0  0  0  0  0  0  0  0
   -4.1030   15.5910    0.2510 S   0  0  0  0  0  0  0  0  0  0  0  0
   -3.7400   10.6460   -2.8180 C   0  0  0  0  0  0  0  0  0  0  0  0
   -5.8100   11.3840   -1.8650 C   0  0  0  0  0  0  0  0  0  0  0  0
   -3.7960   15.3850    1.8980 C   0  0  0  0  0  0  0  0  0  0  0  0
   -2.5760   14.8240    1.8710 N   0  0  0  0  0  0  0  0  0  0  0  0
   -4.9870   10.3530   -2.2830 C   0  0  0  0  0  0  0  0  0  0  0  0
  1  2  1  0
  2  3  2  0
  2  4  1  0
  3  5  1  0
  3  6  1  0
  4  7  2  0
  5  8  1  0
  6  9  2  0
  7  9  1  0
  9 10  1  0
  8 11  2  0
  8 12  1  0
  8 13  1  0
 10 14  1  0
 12 15  1  0
 13 16  2  0
 13 17  1  0
 14 18  1  0
 14 19  2  0
 15 20  2  0
 15 21  1  0
 16 22  1  0
 17 23  2  0
 21 24  1  0
 20 25  1  0
 24 25  2  0
 22 26  2  0
 23 26  1  0
M  END
