mac-x0415-diamond-x0591_0_A
     RDKit          3D

 27 29  0  0  0  0  0  0  0  0999 V2000
    0.1130   11.0680   -2.8320 O   0  0  0  0  0  0  0  0  0  0  0  0
    0.7680   12.2470   -2.8360 C   0  0  0  0  0  0  0  0  0  0  0  0
    1.1390   12.7780   -1.8080 O   0  0  0  0  0  0  0  0  0  0  0  0
    0.9390   12.7450   -4.2490 C   0  0  0  0  0  0  0  0  0  0  0  0
    0.9130   14.2170   -4.3800 C   0  0  0  0  0  0  0  0  0  0  0  0
    1.9080   15.1250   -3.8450 C   0  0  0  0  0  0  0  0  0  0  0  0
    0.0610   15.1080   -4.8690 C   0  0  0  0  0  0  0  0  0  0  0  0
    1.7030   16.3920   -3.9960 N   0  0  0  0  0  0  0  0  0  0  0  0
    0.5630   16.4890   -4.8480 C   0  0  2  0  0  0  0  0  0  0  0  0
   -1.2140   14.9130   -5.4000 C   0  0  0  0  0  0  0  0  0  0  0  0
   -0.4400   17.5730   -4.6900 C   0  0  0  0  0  0  0  0  0  0  0  0
   -2.0710   15.9660   -5.4480 C   0  0  0  0  0  0  0  0  0  0  0  0
   -3.3330   15.5200   -5.9250 N   0  0  0  0  0  0  0  0  0  0  0  0
   -1.7130   17.3040   -5.0030 C   0  0  0  0  0  0  0  0  0  0  0  0
   -3.2710   14.2240   -5.1610 S   0  0  2  0  0  0  0  0  0  0  0  0
   -1.6960   14.4640   -4.6330 N   0  0  0  0  0  0  0  0  0  0  0  0
   -3.1470   12.8590   -5.5890 O   0  0  0  0  0  0  0  0  0  0  0  0
   -4.1150   14.3910   -3.6600 C   0  0  0  0  0  0  0  0  0  0  0  0
   -3.4590   14.2020   -2.4430 C   0  0  0  0  0  0  0  0  0  0  0  0
   -5.4430   14.7160   -3.7330 C   0  0  0  0  0  0  0  0  0  0  0  0
   -4.1850   14.3430   -1.2620 C   0  0  0  0  0  0  0  0  0  0  0  0
   -6.1570   14.8600   -2.5690 C   0  0  0  0  0  0  0  0  0  0  0  0
   -5.5480   14.6720   -1.3310 C   0  0  0  0  0  0  0  0  0  0  0  0
   -6.4420   14.8390   -0.1640 C   0  0  0  0  0  0  0  0  0  0  0  0
   -5.9410   14.6550    1.0940 N   0  0  0  0  0  0  0  0  0  0  0  0
   -7.6230   15.1220   -0.3620 O   0  0  0  0  0  0  0  0  0  0  0  0
   -6.8550   14.5510    2.2000 C   0  0  0  0  0  0  0  0  0  0  0  0
  1  2  1  0
  2  3  2  0
  2  4  1  0
  4  5  1  0
  5  6  1  0
  5  7  2  0
  6  8  2  0
  7  9  1  0
  8  9  1  0
  7 10  1  0
  9 11  1  1
 10 12  2  0
 12 13  1  0
 11 14  2  0
 12 14  1  0
 13 15  2  0
 15 16  1  1
 15 17  2  0
 15 18  1  0
 18 19  2  0
 18 20  1  0
 19 21  1  0
 20 22  2  0
 21 23  2  0
 22 23  1  0
 23 24  1  0
 24 25  1  0
 24 26  2  0
 25 27  1  0
M  END
