mac-x0178-diamond-x1018_0_A
     RDKit          3D

 24 26  0  0  0  0  0  0  0  0999 V2000
   -0.2960   18.1210   -6.4390 N   0  0  0  0  0  0  0  0  0  0  0  0
   -1.6630   17.5570   -5.6590 S   0  0  0  0  0  0  0  0  0  0  0  0
   -2.5860   17.1160   -6.6840 O   0  0  0  0  0  0  0  0  0  0  0  0
   -1.9990   18.5980   -4.7240 O   0  0  0  0  0  0  0  0  0  0  0  0
   -1.0440   16.1780   -4.7340 C   0  0  0  0  0  0  0  0  0  0  0  0
    0.3200   16.0160   -4.4670 C   0  0  0  0  0  0  0  0  0  0  0  0
   -1.9690   15.2550   -4.2590 C   0  0  0  0  0  0  0  0  0  0  0  0
    0.7450   14.9120   -3.7120 C   0  0  0  0  0  0  0  0  0  0  0  0
   -1.5680   14.1490   -3.4960 C   0  0  0  0  0  0  0  0  0  0  0  0
   -2.6690   13.2180   -3.0080 C   0  0  0  0  0  0  0  0  0  0  0  0
   -0.1930   13.9730   -3.2180 C   0  0  0  0  0  0  0  0  0  0  0  0
    0.2970   12.8210   -2.4070 C   0  0  0  0  0  0  0  0  0  0  0  0
   -3.6000   13.7440   -1.9550 N   0  0  0  0  0  0  0  0  0  0  0  0
    0.5640   12.8360   -1.2190 O   0  0  0  0  0  0  0  0  0  0  0  0
    0.4190   11.6930   -3.1270 O   0  0  0  0  0  0  0  0  0  0  0  0
   -2.9700   14.4090   -0.8150 N   0  0  0  0  0  0  0  0  0  0  0  0
   -4.6600   14.5870   -2.4170 N   0  0  0  0  0  0  0  0  0  0  0  0
   -5.1220   15.1750   -1.2460 N   0  0  0  0  0  0  0  0  0  0  0  0
   -4.0480   15.2310   -0.2490 C   0  0  1  0  0  0  0  0  0  0  0  0
   -6.4520   14.9760   -0.9680 N   0  0  0  0  0  0  0  0  0  0  0  0
   -4.5150   14.8280    1.1050 C   0  0  0  0  0  0  0  0  0  0  0  0
   -6.7620   14.7020    0.2580 C   0  0  0  0  0  0  0  0  0  0  0  0
   -5.8050   14.5770    1.3690 C   0  0  0  0  0  0  0  0  0  0  0  0
   -8.4400   14.4770    0.6040 Cl  0  0  0  0  0  0  0  0  0  0  0  0
  2  1  1  0
  2  3  2  0
  2  4  2  0
  2  5  1  0
  5  6  2  0
  5  7  1  0
  6  8  1  0
  7  9  2  0
  9 10  1  0
  8 11  2  0
  9 11  1  0
 11 12  1  0
 10 13  1  0
 12 14  2  0
 12 15  1  0
 13 16  1  0
 13 17  1  0
 17 18  1  0
 16 19  1  0
 18 19  1  0
 18 20  1  0
 19 21  1  1
 20 22  2  0
 21 23  2  0
 22 23  1  0
 22 24  1  0
M  END
