mac-x0182-diamond-x0766_0_A
     RDKit          3D

 24 27  0  0  0  0  0  0  0  0999 V2000
    1.6820   11.6380   -7.0180 O   0  0  0  0  0  0  0  0  0  0  0  0
    0.6020   11.4430   -6.5080 C   0  0  0  0  0  0  0  0  0  0  0  0
    0.0120   12.2000   -5.5520 N   0  0  0  0  0  0  0  0  0  0  0  0
   -0.2710   10.3010   -6.8270 C   0  0  0  0  0  0  0  0  0  0  0  0
   -0.9640   11.2430   -4.5750 S   0  0  2  0  0  0  0  0  0  0  0  0
   -1.1970   10.0630   -5.8150 C   0  0  0  0  0  0  0  0  0  0  0  0
   -0.2470    9.5100   -7.9560 C   0  0  0  0  0  0  0  0  0  0  0  0
   -2.1800   11.9950   -4.4340 O   0  0  0  0  0  0  0  0  0  0  0  0
   -0.0060   10.8860   -3.4680 N   0  0  0  0  0  0  0  0  0  0  0  0
   -2.1240    9.0510   -5.8630 C   0  0  0  0  0  0  0  0  0  0  0  0
   -1.1820    8.4720   -8.0390 C   0  0  0  0  0  0  0  0  0  0  0  0
    0.5010   12.0620   -2.8930 C   0  0  0  0  0  0  0  0  0  0  0  0
   -2.1120    8.2440   -6.9990 C   0  0  0  0  0  0  0  0  0  0  0  0
    1.0790   12.0740   -1.8190 O   0  0  0  0  0  0  0  0  0  0  0  0
    0.2890   13.3550   -3.6870 C   0  0  2  0  0  0  0  0  0  0  0  0
    1.5160   13.7540   -4.5380 C   0  0  0  0  0  0  0  0  0  0  0  0
    0.0680   14.5600   -2.7780 C   0  0  1  0  0  0  0  0  0  0  0  0
    1.6510   15.2680   -4.3850 C   0  0  0  0  0  0  0  0  0  0  0  0
    0.3750   15.7190   -3.7100 C   0  0  0  0  0  0  0  0  0  0  0  0
   -1.2780   14.6450   -2.0860 C   0  0  0  0  0  0  0  0  0  0  0  0
   -2.5200   14.7640   -2.6980 C   0  0  0  0  0  0  0  0  0  0  0  0
   -1.4270   14.6170   -0.6600 C   0  0  0  0  0  0  0  0  0  0  0  0
   -2.7350   14.7180   -0.2520 C   0  0  0  0  0  0  0  0  0  0  0  0
   -3.8070   14.8470   -1.5720 S   0  0  0  0  0  0  0  0  0  0  0  0
  1  2  2  0
  2  3  1  0
  2  4  1  0
  5  3  1  6
  4  6  2  0
  5  6  1  0
  4  7  1  0
  5  8  2  0
  5  9  2  0
  6 10  1  0
  7 11  2  0
  9 12  1  0
 10 13  2  0
 11 13  1  0
 12 14  2  0
 15 12  1  1
 15 16  1  0
 15 17  1  0
 16 18  1  0
 17 19  1  0
 18 19  1  0
 17 20  1  6
 20 21  2  0
 20 22  1  0
 22 23  2  0
 21 24  1  0
 23 24  1  0
M  END
