mac-x0510-mac-x0231
     RDKit          3D

 27 30  0  0  0  0  0  0  0  0999 V2000
   -6.1190   14.9210    0.7350 O   0  0  0  0  0  0  0  0  0  0  0  0
   -4.9570   15.0410    0.3550 C   0  0  0  0  0  0  0  0  0  0  0  0
   -4.6660   15.2610   -0.9730 N   0  0  0  0  0  0  0  0  0  0  0  0
   -3.9090   14.9560    1.2230 N   0  0  0  0  0  0  0  0  0  0  0  0
   -2.6380   15.0670    0.7500 C   0  0  0  0  0  0  0  0  0  0  0  0
   -3.4450   15.5500   -1.5460 C   0  0  0  0  0  0  0  0  0  0  0  0
   -3.5890   15.9220   -2.8040 N   0  0  0  0  0  0  0  0  0  0  0  0
   -2.3700   15.3550   -0.5850 C   0  0  0  0  0  0  0  0  0  0  0  0
   -1.5260   14.9110    1.5140 N   0  0  0  0  0  0  0  0  0  0  0  0
   -2.6890   16.3520   -3.9140 C   0  0  0  0  0  0  0  0  0  0  0  0
   -1.0040   15.3720   -0.6130 N   0  0  0  0  0  0  0  0  0  0  0  0
   -0.5410   15.1040    0.6600 C   0  0  0  0  0  0  0  0  0  0  0  0
   -1.9450   15.1910   -4.3500 C   0  0  0  0  0  0  0  0  0  0  0  0
   -0.5620   15.1070   -4.3790 C   0  0  0  0  0  0  0  0  0  0  0  0
   -2.7500   14.1040   -4.7280 C   0  0  0  0  0  0  0  0  0  0  0  0
   -0.0140   13.8860   -4.7130 C   0  0  0  0  0  0  0  0  0  0  0  0
    0.3720   16.2290   -4.0690 C   0  0  0  0  0  0  0  0  0  0  0  0
   -2.1910   12.9110   -5.1130 C   0  0  0  0  0  0  0  0  0  0  0  0
    0.0220   17.3440   -3.6800 O   0  0  0  0  0  0  0  0  0  0  0  0
    1.4410   13.7660   -4.6110 C   0  0  0  0  0  0  0  0  0  0  0  0
    1.6950   15.9800   -4.3150 N   0  0  0  0  0  0  0  0  0  0  0  0
   -0.8110   12.7930   -5.0920 C   0  0  0  0  0  0  0  0  0  0  0  0
    2.0030   12.3820   -4.5850 C   0  0  0  0  0  0  0  0  0  0  0  0
    2.2390   14.7560   -4.4100 N   0  0  0  0  0  0  0  0  0  0  0  0
    1.5400   11.8750   -3.2440 C   0  0  0  0  0  0  0  0  0  0  0  0
    0.9630   10.6660   -3.2530 O   0  0  0  0  0  0  0  0  0  0  0  0
    1.6330   12.4710   -2.1880 O   0  0  0  0  0  0  0  0  0  0  0  0
  1  2  2  0
  2  3  1  0
  2  4  1  0
  4  5  1  0
  3  6  1  0
  6  7  2  3
  5  8  2  0
  6  8  1  0
  5  9  1  0
  7 10  1  0
  8 11  1  0
  9 12  2  0
 11 12  1  0
 10 13  1  0
 13 14  1  0
 13 15  2  0
 14 16  2  0
 14 17  1  0
 15 18  1  0
 17 19  2  0
 16 20  1  0
 17 21  1  0
 16 22  1  0
 18 22  2  0
 20 23  1  0
 20 24  2  0
 21 24  1  0
 23 25  1  0
 25 26  1  0
 25 27  2  0
M  END
