mac-x0321-diamond-x0950_0_A
     RDKit          3D

 17 17  0  0  0  0  0  0  0  0999 V2000
   -4.3270   15.4600    1.6470 Cl  0  0  0  0  0  0  0  0  0  0  0  0
   -4.3500   15.3040   -0.0530 C   0  0  0  0  0  0  0  0  0  0  0  0
   -3.1630   15.0430   -0.7130 C   0  0  0  0  0  0  0  0  0  0  0  0
   -5.5440   15.4420   -0.7560 C   0  0  0  0  0  0  0  0  0  0  0  0
   -3.1570   14.9210   -2.1000 C   0  0  0  0  0  0  0  0  0  0  0  0
   -5.5450   15.3200   -2.1360 C   0  0  0  0  0  0  0  0  0  0  0  0
   -1.8540   14.6460   -2.7610 C   0  0  0  0  0  0  0  0  0  0  0  0
   -4.3540   15.0600   -2.8120 C   0  0  0  0  0  0  0  0  0  0  0  0
   -0.8800   14.4990   -1.8330 O   0  0  0  0  0  0  0  0  0  0  0  0
   -1.7280   14.5690   -3.9730 O   0  0  0  0  0  0  0  0  0  0  0  0
    0.4430   14.2660   -2.3220 C   0  0  0  0  0  0  0  0  0  0  0  0
    0.9140   12.9450   -2.0070 O   0  0  0  0  0  0  0  0  0  0  0  0
    0.9380   12.0670   -3.0420 C   0  0  0  0  0  0  0  0  0  0  0  0
    1.5710   12.6840   -4.2940 C   0  0  1  0  0  0  0  0  0  0  0  0
    0.5200   10.9150   -3.0030 O   0  0  0  0  0  0  0  0  0  0  0  0
    3.0560   12.3850   -4.3450 C   0  0  0  0  0  0  0  0  0  0  0  0
    0.9550   12.1800   -5.4800 O   0  0  0  0  0  0  0  0  0  0  0  0
  1  2  1  0
  2  3  2  0
  2  4  1  0
  3  5  1  0
  4  6  2  0
  5  7  1  0
  5  8  2  0
  6  8  1  0
  7  9  1  0
  7 10  2  0
  9 11  1  0
 11 12  1  0
 12 13  1  0
 13 14  1  0
 13 15  2  0
 14 16  1  6
 14 17  1  0
M  END
