mac-x0348-mac-x0365
     RDKit          3D

 27 29  0  0  0  0  0  0  0  0999 V2000
    0.2930   18.7540   -6.1180 C   0  0  0  0  0  0  0  0  0  0  0  0
   -0.0890   17.5260   -5.4800 N   0  0  0  0  0  0  0  0  0  0  0  0
    0.7440   16.7980   -4.6950 C   0  0  0  0  0  0  0  0  0  0  0  0
   -1.3090   16.9130   -5.5590 C   0  0  0  0  0  0  0  0  0  0  0  0
    0.1020   15.6760   -4.2550 C   0  0  0  0  0  0  0  0  0  0  0  0
   -1.2180   15.7360   -4.8080 C   0  0  0  0  0  0  0  0  0  0  0  0
   -2.4890   17.2670   -6.2190 C   0  0  0  0  0  0  0  0  0  0  0  0
    0.6940   14.6030   -3.3610 C   0  0  2  0  0  0  0  0  0  0  0  0
   -2.3410   14.8880   -4.7310 C   0  0  0  0  0  0  0  0  0  0  0  0
   -3.5700   16.3900   -6.0960 C   0  0  0  0  0  0  0  0  0  0  0  0
    0.2370   13.2070   -3.7870 C   0  0  0  0  0  0  0  0  0  0  0  0
    0.4720   14.8790   -1.8430 C   0  0  0  0  0  0  0  0  0  0  0  0
   -3.5070   15.2300   -5.3800 C   0  0  0  0  0  0  0  0  0  0  0  0
    0.7720   12.2040   -2.8120 C   0  0  0  0  0  0  0  0  0  0  0  0
   -0.8330   14.4460   -1.4030 O   0  0  0  0  0  0  0  0  0  0  0  0
    1.6100   12.4740   -1.9780 O   0  0  0  0  0  0  0  0  0  0  0  0
    0.2420   10.9700   -2.9340 O   0  0  0  0  0  0  0  0  0  0  0  0
   -1.8490   14.8290   -2.1950 C   0  0  0  0  0  0  0  0  0  0  0  0
   -1.7590   15.0900   -3.3590 O   0  0  0  0  0  0  0  0  0  0  0  0
   -3.1440   14.9020   -1.4930 C   0  0  0  0  0  0  0  0  0  0  0  0
   -4.2710   15.0120   -2.3050 C   0  0  0  0  0  0  0  0  0  0  0  0
   -3.2810   14.8670   -0.0980 C   0  0  0  0  0  0  0  0  0  0  0  0
   -5.5250   15.0750   -1.7320 C   0  0  0  0  0  0  0  0  0  0  0  0
   -4.5540   14.9320    0.4750 C   0  0  0  0  0  0  0  0  0  0  0  0
   -6.5960   15.1740   -2.5240 F   0  0  0  0  0  0  0  0  0  0  0  0
   -5.6720   15.0320   -0.3540 C   0  0  0  0  0  0  0  0  0  0  0  0
   -6.9320   15.0850    0.1640 O   0  0  0  0  0  0  0  0  0  0  0  0
  1  2  1  0
  2  3  1  0
  2  4  1  0
  3  5  2  0
  4  6  2  0
  5  6  1  0
  4  7  1  0
  5  8  1  0
  6  9  1  0
  7 10  2  0
  8 11  1  6
  8 12  1  0
  9 13  2  0
 10 13  1  0
 11 14  1  0
 12 15  1  0
 14 16  2  0
 14 17  1  0
 15 18  1  0
 18 19  2  0
 18 20  1  0
 20 21  2  0
 20 22  1  0
 21 23  1  0
 22 24  2  0
 23 25  1  0
 23 26  2  0
 24 26  1  0
 26 27  1  0
M  END
