mac-x0496-mac-x0587
     RDKit          3D

 27 28  0  0  0  0  0  0  0  0999 V2000
  -10.0110   17.8090    4.7460 C   0  0  0  0  0  0  0  0  0  0  0  0
   -9.9640   16.7740    3.6890 C   0  0  0  0  0  0  0  0  0  0  0  0
  -10.9290   16.6100    2.7780 N   0  0  0  0  0  0  0  0  0  0  0  0
   -8.9180   15.8990    3.5740 N   0  0  0  0  0  0  0  0  0  0  0  0
  -10.4650   15.5480    1.9970 O   0  0  0  0  0  0  0  0  0  0  0  0
   -9.2630   15.1730    2.5340 C   0  0  0  0  0  0  0  0  0  0  0  0
   -8.5420   14.0350    1.8950 C   0  0  0  0  0  0  0  0  0  0  0  0
   -7.1560   14.3800    1.5970 N   0  0  0  0  0  0  0  0  0  0  0  0
   -6.7980   14.6050    0.2900 C   0  0  0  0  0  0  0  0  0  0  0  0
   -7.5840   14.4200   -0.6330 O   0  0  0  0  0  0  0  0  0  0  0  0
   -5.3800   15.1180   -0.0100 C   0  0  1  0  0  0  0  0  0  0  0  0
   -4.5010   15.0650    1.2010 C   0  0  0  0  0  0  0  0  0  0  0  0
   -4.7150   14.6040   -1.2840 C   0  0  0  0  0  0  0  0  0  0  0  0
   -3.1640   14.9410    1.1630 C   0  0  0  0  0  0  0  0  0  0  0  0
   -3.3030   15.1420   -1.3790 C   0  0  2  0  0  0  0  0  0  0  0  0
   -2.4660   14.9790   -2.6280 C   0  0  0  0  0  0  0  0  0  0  0  0
   -2.4810   14.8640   -0.1470 C   0  0  0  0  0  0  0  0  0  0  0  0
   -1.1800   14.8100   -2.5430 N   0  0  0  0  0  0  0  0  0  0  0  0
   -3.1520   15.0640   -3.7880 O   0  0  0  0  0  0  0  0  0  0  0  0
   -1.2760   14.6040   -0.2380 O   0  0  0  0  0  0  0  0  0  0  0  0
   -0.2820   14.7070   -3.7260 C   0  0  2  0  0  0  0  0  0  0  0  0
   -0.1690   16.0800   -4.3960 C   0  0  0  0  0  0  0  0  0  0  0  0
   -0.5780   13.4190   -5.0070 S   0  0  0  0  0  0  0  0  0  0  0  0
   -0.7910   11.9260   -3.9680 C   0  0  0  0  0  0  0  0  0  0  0  0
    0.4090   11.5680   -3.1070 C   0  0  0  0  0  0  0  0  0  0  0  0
    0.5830   10.4290   -2.7100 O   0  0  0  0  0  0  0  0  0  0  0  0
    1.2660   12.5680   -2.7940 O   0  0  0  0  0  0  0  0  0  0  0  0
  1  2  1  0
  2  3  2  0
  2  4  1  0
  3  5  1  0
  4  6  2  0
  5  6  1  0
  6  7  1  0
  7  8  1  0
  8  9  1  0
  9 10  2  0
 11  9  1  1
 11 12  1  0
 11 13  1  0
 12 14  2  0
 13 15  1  0
 15 16  1  6
 14 17  1  0
 15 17  1  0
 16 18  2  3
 16 19  1  0
 17 20  2  0
 18 21  1  0
 21 22  1  6
 21 23  1  0
 23 24  1  0
 24 25  1  0
 25 26  2  0
 25 27  1  0
M  END
