mac-x0564-mac-x0572
     RDKit          3D

 22 25  0  0  0  0  0  0  0  0999 V2000
    0.9630   13.6870   -1.2490 O   0  0  0  0  0  0  0  0  0  0  0  0
    0.1640   13.9020   -2.1460 C   0  0  0  0  0  0  0  0  0  0  0  0
    0.5300   14.0240   -3.4840 N   0  0  0  0  0  0  0  0  0  0  0  0
   -1.2510   14.0620   -1.9670 C   0  0  0  0  0  0  0  0  0  0  0  0
   -2.0240   14.7670   -2.8450 C   0  0  0  0  0  0  0  0  0  0  0  0
   -0.2620   14.6960   -4.2620 C   0  0  0  0  0  0  0  0  0  0  0  0
   -2.0030   13.5540   -0.9420 O   0  0  0  0  0  0  0  0  0  0  0  0
   -1.4500   15.3180   -3.9260 N   0  0  0  0  0  0  0  0  0  0  0  0
   -3.2740   13.9660   -1.2110 C   0  0  0  0  0  0  0  0  0  0  0  0
   -3.3080   14.7280   -2.3450 C   0  0  0  0  0  0  0  0  0  0  0  0
   -4.5100   15.2720   -2.7520 C   0  0  0  0  0  0  0  0  0  0  0  0
   -4.4260   13.5980   -0.3570 C   0  0  0  0  0  0  0  0  0  0  0  0
   -5.5490   15.3150   -1.9010 C   0  0  0  0  0  0  0  0  0  0  0  0
   -5.5070   14.7000   -0.4680 C   0  0  1  0  0  0  0  0  0  0  0  0
   -6.9630   14.2220   -0.3860 C   0  0  0  0  0  0  0  0  0  0  0  0
   -5.0750   15.4700    0.7790 C   0  0  0  0  0  0  0  0  0  0  0  0
   -7.6570   14.1700   -1.4040 O   0  0  0  0  0  0  0  0  0  0  0  0
   -7.6060   13.8160    0.9270 C   0  0  2  0  0  0  0  0  0  0  0  0
   -5.8150   15.2130    2.0560 N   0  0  0  0  0  0  0  0  0  0  0  0
   -9.0270   13.8380    0.7580 O   0  0  0  0  0  0  0  0  0  0  0  0
   -7.2440   14.7810    2.0390 C   0  0  2  0  0  0  0  0  0  0  0  0
   -7.6200   14.2240    3.4120 C   0  0  0  0  0  0  0  0  0  0  0  0
  1  2  2  0
  2  3  1  0
  2  4  1  0
  4  5  2  0
  3  6  2  0
  4  7  1  0
  5  8  1  0
  6  8  1  0
  7  9  1  0
  5 10  1  0
  9 10  2  0
 10 11  1  0
  9 12  1  0
 11 13  2  0
 14 12  1  6
 14 13  1  0
 14 15  1  0
 14 16  1  0
 15 17  2  0
 15 18  1  0
 16 19  1  0
 18 20  1  6
 18 21  1  0
 19 21  1  0
 21 22  1  1
M  END
