mac-x0433-mac-x0348
     RDKit          3D

 25 27  0  0  0  0  0  0  0  0999 V2000
   -3.0320   15.2050    0.4310 C   0  0  0  0  0  0  0  0  0  0  0  0
   -4.3700   15.0560   -0.2250 C   0  0  0  0  0  0  0  0  0  0  0  0
   -5.4700   14.8940    0.5790 C   0  0  0  0  0  0  0  0  0  0  0  0
   -4.4530   15.0800   -1.5830 N   0  0  0  0  0  0  0  0  0  0  0  0
   -5.6730   14.9400   -2.1400 C   0  0  0  0  0  0  0  0  0  0  0  0
   -6.6790   14.7590   -0.0600 C   0  0  0  0  0  0  0  0  0  0  0  0
   -7.9310   14.5800    0.7440 C   0  0  0  0  0  0  0  0  0  0  0  0
   -5.7760   14.9600   -3.5480 N   0  0  0  0  0  0  0  0  0  0  0  0
   -6.7910   14.7820   -1.4040 N   0  0  0  0  0  0  0  0  0  0  0  0
   -4.8360   14.3700   -4.5400 C   0  0  0  0  0  0  0  0  0  0  0  0
   -3.6330   15.2530   -4.9220 C   0  0  0  0  0  0  0  0  0  0  0  0
   -2.4190   15.0210   -4.2840 C   0  0  0  0  0  0  0  0  0  0  0  0
   -3.6850   16.2800   -5.8740 C   0  0  0  0  0  0  0  0  0  0  0  0
   -1.2910   15.8070   -4.5730 C   0  0  0  0  0  0  0  0  0  0  0  0
   -2.5790   17.0990   -6.1800 C   0  0  0  0  0  0  0  0  0  0  0  0
    0.0380   15.7780   -4.0770 C   0  0  0  0  0  0  0  0  0  0  0  0
   -1.3800   16.8410   -5.5040 C   0  0  0  0  0  0  0  0  0  0  0  0
    0.6130   14.8310   -3.0720 C   0  0  0  0  0  0  0  0  0  0  0  0
   -0.1350   17.4360   -5.5550 N   0  0  0  0  0  0  0  0  0  0  0  0
    0.7040   16.7960   -4.7000 C   0  0  0  0  0  0  0  0  0  0  0  0
    0.2730   18.5610   -6.3680 C   0  0  0  0  0  0  0  0  0  0  0  0
    0.7110   13.4020   -3.6220 C   0  0  0  0  0  0  0  0  0  0  0  0
    0.5420   12.3840   -2.5180 C   0  0  0  0  0  0  0  0  0  0  0  0
    0.6400   12.6220   -1.3240 O   0  0  0  0  0  0  0  0  0  0  0  0
    0.2540   11.1480   -2.9900 O   0  0  0  0  0  0  0  0  0  0  0  0
  1  2  1  0
  2  3  2  0
  2  4  1  0
  4  5  2  0
  3  6  1  0
  6  7  1  0
  5  8  1  0
  5  9  1  0
  6  9  2  0
  8 10  1  0
 10 11  1  0
 11 12  2  0
 11 13  1  0
 12 14  1  0
 13 15  2  0
 14 16  1  0
 14 17  2  0
 15 17  1  0
 16 18  1  0
 17 19  1  0
 16 20  2  0
 19 20  1  0
 19 21  1  0
 18 22  1  0
 22 23  1  0
 23 24  2  0
 23 25  1  0
M  END
