mac-x0380-mac-x0124
     RDKit          3D

 23 26  0  0  0  0  0  0  0  0999 V2000
   -3.7230   14.7160   -3.3240 C   0  0  0  0  0  0  0  0  0  0  0  0
   -4.4320   14.7710   -2.0230 C   0  0  0  0  0  0  0  0  0  0  0  0
   -3.6520   14.6800   -0.8930 C   0  0  0  0  0  0  0  0  0  0  0  0
   -4.0350   15.3770   -4.3030 O   0  0  0  0  0  0  0  0  0  0  0  0
   -5.8040   14.9010   -1.8960 C   0  0  0  0  0  0  0  0  0  0  0  0
   -6.3730   14.9290   -0.6140 C   0  0  0  0  0  0  0  0  0  0  0  0
   -4.1670   14.7080    0.3920 C   0  0  0  0  0  0  0  0  0  0  0  0
   -5.5620   14.8310    0.5400 C   0  0  0  0  0  0  0  0  0  0  0  0
   -8.1350   15.0830   -0.5030 S   0  0  0  0  0  0  0  0  0  0  0  0
   -3.2550   14.6180    1.4160 N   0  0  0  0  0  0  0  0  0  0  0  0
   -6.1200   14.8510    1.8440 N   0  0  0  0  0  0  0  0  0  0  0  0
   -8.3240   14.1440    1.0230 C   0  0  0  0  0  0  0  0  0  0  0  0
   -1.9460   14.9840    0.8970 C   0  0  2  0  0  0  0  0  0  0  0  0
   -7.4480   14.6840    2.1190 C   0  0  0  0  0  0  0  0  0  0  0  0
   -1.9000   14.6130   -0.6080 C   0  0  1  0  0  0  0  0  0  0  0  0
   -0.7160   14.6370    1.5100 N   0  0  0  0  0  0  0  0  0  0  0  0
   -7.9080   14.9830    3.2240 O   0  0  0  0  0  0  0  0  0  0  0  0
   -2.3050   15.7330   -1.5410 C   0  0  0  0  0  0  0  0  0  0  0  0
   -0.4570   14.2800   -1.1340 C   0  0  1  0  0  0  0  0  0  0  0  0
    0.2510   15.4270    0.8210 C   0  0  0  0  0  0  0  0  0  0  0  0
   -0.5560   14.7370   -2.5200 N   0  0  0  0  0  0  0  0  0  0  0  0
   -1.4980   15.7340   -2.6020 C   0  0  0  0  0  0  0  0  0  0  0  0
    0.6730   14.7910   -0.3810 N   0  0  0  0  0  0  0  0  0  0  0  0
  1  2  1  0
  2  3  2  0
  1  4  2  0
  2  5  1  0
  5  6  2  0
  3  7  1  0
  6  8  1  0
  7  8  2  0
  6  9  1  0
  7 10  1  0
  8 11  1  0
  9 12  1  0
 13 10  1  1
 11 14  1  0
 12 14  1  0
 13 15  1  0
 13 16  1  0
 14 17  2  0
 15 18  1  6
 15 19  1  0
 16 20  1  0
 19 21  1  6
 18 22  2  0
 21 22  1  0
 19 23  1  0
 20 23  1  0
M  END
