mac-x0387-diamond-x0967_0_A
     RDKit          3D

 19 22  0  0  0  0  0  0  0  0999 V2000
   -3.5920   15.0550    1.7730 N   0  0  0  0  0  0  0  0  0  0  0  0
   -2.4010   14.9280    1.0510 C   0  0  0  0  0  0  0  0  0  0  0  0
   -1.2910   15.0130    1.7590 N   0  0  0  0  0  0  0  0  0  0  0  0
   -2.3850   14.7290   -0.3250 C   0  0  0  0  0  0  0  0  0  0  0  0
   -1.1360   14.6610   -0.9650 C   0  0  0  0  0  0  0  0  0  0  0  0
   -0.1200   14.9310    1.1300 C   0  0  0  0  0  0  0  0  0  0  0  0
   -3.6680   14.5520   -1.0910 C   0  0  2  0  0  0  0  0  0  0  0  0
    0.0240   14.7650   -0.2170 C   0  0  0  0  0  0  0  0  0  0  0  0
   -1.0310   14.4810   -2.4070 C   0  0  0  0  0  0  0  0  0  0  0  0
   -3.4590   13.9510   -2.5140 C   0  0  0  0  0  0  0  0  0  0  0  0
   -4.7410   15.5630   -1.2600 N   0  0  0  0  0  0  0  0  0  0  0  0
   -4.1810   13.5320   -0.0130 C   0  0  0  0  0  0  0  0  0  0  0  0
   -2.1050   14.1600   -3.1280 C   0  0  0  0  0  0  0  0  0  0  0  0
   -5.8620   15.0490   -0.5390 C   0  0  0  0  0  0  0  0  0  0  0  0
   -5.5620   13.9410    0.2150 C   0  0  0  0  0  0  0  0  0  0  0  0
   -7.0750   15.5790   -0.5670 N   0  0  0  0  0  0  0  0  0  0  0  0
   -6.4980   13.3560    1.0340 C   0  0  0  0  0  0  0  0  0  0  0  0
   -7.7630   13.9080    1.0450 C   0  0  0  0  0  0  0  0  0  0  0  0
   -8.0060   14.9960    0.2300 C   0  0  0  0  0  0  0  0  0  0  0  0
  1  2  1  0
  2  3  2  0
  2  4  1  0
  4  5  2  0
  3  6  1  0
  4  7  1  0
  5  8  1  0
  6  8  2  0
  5  9  1  0
  7 10  1  6
  7 11  1  0
  7 12  1  0
  9 13  2  0
 10 13  1  0
 11 14  1  0
 12 15  1  0
 14 15  2  0
 14 16  1  0
 15 17  1  0
 17 18  2  0
 16 19  2  0
 18 19  1  0
M  END
