mac-x0576-mac-x0333
     RDKit          3D

 16 18  0  0  0  0  0  0  0  0999 V2000
    0.1120   14.0200    1.9030 N   0  0  0  0  0  0  0  0  0  0  0  0
   -0.9080   14.3150    1.0910 C   0  0  0  0  0  0  0  0  0  0  0  0
   -2.0090   14.5250    1.6620 N   0  0  0  0  0  0  0  0  0  0  0  0
   -0.7240   14.3750   -0.2640 N   0  0  0  0  0  0  0  0  0  0  0  0
   -1.7510   14.7060   -1.1100 C   0  0  0  0  0  0  0  0  0  0  0  0
   -3.0850   14.8180    0.8990 C   0  0  0  0  0  0  0  0  0  0  0  0
   -1.5950   14.8180   -2.3260 O   0  0  0  0  0  0  0  0  0  0  0  0
   -3.0790   14.9340   -0.4520 C   0  0  0  0  0  0  0  0  0  0  0  0
   -4.2500   15.0010    1.5730 N   0  0  0  0  0  0  0  0  0  0  0  0
   -5.4850   14.8700    0.9110 C   0  0  1  0  0  0  0  0  0  0  0  0
   -4.2250   15.2500   -1.2260 N   0  0  0  0  0  0  0  0  0  0  0  0
   -6.4140   15.2200    1.8850 O   0  0  0  0  0  0  0  0  0  0  0  0
   -5.4910   15.5160   -0.5180 C   0  0  1  0  0  0  0  0  0  0  0  0
   -5.8030   13.5570    0.6240 O   0  0  0  0  0  0  0  0  0  0  0  0
   -6.5900   14.8450   -1.1530 O   0  0  0  0  0  0  0  0  0  0  0  0
   -6.9020   13.7930   -0.2390 C   0  0  0  0  0  0  0  0  0  0  0  0
  1  2  1  0
  2  3  2  0
  2  4  1  0
  4  5  1  0
  3  6  1  0
  5  7  2  0
  5  8  1  0
  6  8  2  0
  6  9  1  0
  9 10  1  0
  8 11  1  0
 10 12  1  1
 10 13  1  0
 13 11  1  6
 10 14  1  0
 13 15  1  0
 14 16  1  0
 15 16  1  0
M  END
