mac-x0379-mac-x0223
     RDKit          3D

 21 22  0  0  0  0  0  0  0  0999 V2000
   -5.4840   15.0760    0.4830 C   0  0  0  0  0  0  0  0  0  0  0  0
   -4.5570   14.9080   -0.6480 C   0  0  0  0  0  0  0  0  0  0  0  0
   -4.9010   15.0000   -1.9120 N   0  0  0  0  0  0  0  0  0  0  0  0
   -2.9200   14.5590   -0.3150 S   0  0  0  0  0  0  0  0  0  0  0  0
   -3.7970   14.7660   -2.6920 C   0  0  0  0  0  0  0  0  0  0  0  0
   -2.6360   14.5000   -2.0000 C   0  0  0  0  0  0  0  0  0  0  0  0
   -1.3070   14.2030   -2.5630 C   0  0  1  0  0  0  0  0  0  0  0  0
   -1.2680   12.9290   -3.1400 O   0  0  0  0  0  0  0  0  0  0  0  0
   -0.8940   15.1670   -3.5810 C   0  0  0  0  0  0  0  0  0  0  0  0
   -1.6970   16.2890   -3.7470 C   0  0  0  0  0  0  0  0  0  0  0  0
    0.2710   14.9750   -4.3440 C   0  0  0  0  0  0  0  0  0  0  0  0
    1.1930   13.7560   -4.2330 C   0  0  0  0  0  0  0  0  0  0  0  0
   -1.3530   17.2400   -4.6410 C   0  0  0  0  0  0  0  0  0  0  0  0
    0.5980   15.9810   -5.2540 C   0  0  0  0  0  0  0  0  0  0  0  0
    0.8490   12.7480   -3.1390 C   0  0  0  0  0  0  0  0  0  0  0  0
   -2.1610   18.3320   -4.7660 O   0  0  0  0  0  0  0  0  0  0  0  0
   -0.2130   17.1060   -5.3890 C   0  0  0  0  0  0  0  0  0  0  0  0
    0.0160   18.1330   -6.2100 O   0  0  0  0  0  0  0  0  0  0  0  0
    0.3360   11.6500   -3.3010 O   0  0  0  0  0  0  0  0  0  0  0  0
    1.1690   13.1970   -1.9020 O   0  0  0  0  0  0  0  0  0  0  0  0
    1.2930   18.6530   -5.9690 C   0  0  0  0  0  0  0  0  0  0  0  0
  1  2  1  0
  2  3  2  0
  2  4  1  0
  3  5  1  0
  4  6  1  0
  5  6  2  0
  6  7  1  0
  7  8  1  6
  7  9  1  0
  9 10  2  0
  9 11  1  0
 11 12  1  0
 10 13  1  0
 11 14  2  0
 12 15  1  0
 13 16  1  0
 13 17  2  0
 14 17  1  0
 17 18  1  0
 15 19  2  0
 15 20  1  0
 18 21  1  0
M  END
