mac-x0375-mac-x0455
     RDKit          3D

 22 23  0  0  0  0  0  0  0  0999 V2000
    0.4580   12.9320   -2.2340 O   0  0  0  0  0  0  0  0  0  0  0  0
    0.6800   11.8760   -3.0610 C   0  0  0  0  0  0  0  0  0  0  0  0
    0.5290   10.6900   -2.7910 O   0  0  0  0  0  0  0  0  0  0  0  0
    0.3190   14.1920   -2.7270 C   0  0  0  0  0  0  0  0  0  0  0  0
    1.1680   12.3520   -4.4310 C   0  0  0  0  0  0  0  0  0  0  0  0
   -1.0710   14.4260   -3.3950 C   0  0  1  0  0  0  0  0  0  0  0  0
    1.1440   15.1010   -2.6720 O   0  0  0  0  0  0  0  0  0  0  0  0
    0.8960   11.5550   -5.5890 O   0  0  0  0  0  0  0  0  0  0  0  0
   -2.1240   14.4440   -2.2810 C   0  0  0  0  0  0  0  0  0  0  0  0
   -1.1030   15.7540   -3.9500 O   0  0  0  0  0  0  0  0  0  0  0  0
   -1.3750   13.4750   -4.5600 C   0  0  0  0  0  0  0  0  0  0  0  0
   -0.1560   10.6650   -5.7030 C   0  0  0  0  0  0  0  0  0  0  0  0
   -2.5820   12.7480   -4.5670 C   0  0  0  0  0  0  0  0  0  0  0  0
   -0.4950   13.2920   -5.6430 C   0  0  0  0  0  0  0  0  0  0  0  0
   -0.3250    9.7910   -6.7820 C   0  0  0  0  0  0  0  0  0  0  0  0
   -1.1020   10.6460   -4.6700 C   0  0  0  0  0  0  0  0  0  0  0  0
   -2.8970   11.8750   -5.6120 C   0  0  0  0  0  0  0  0  0  0  0  0
   -0.8120   12.4130   -6.6840 C   0  0  0  0  0  0  0  0  0  0  0  0
   -1.4140    8.9220   -6.8280 C   0  0  0  0  0  0  0  0  0  0  0  0
   -2.1930    9.7740   -4.7190 C   0  0  0  0  0  0  0  0  0  0  0  0
   -2.0100   11.7080   -6.6700 C   0  0  0  0  0  0  0  0  0  0  0  0
   -2.3510    8.9110   -5.7990 C   0  0  0  0  0  0  0  0  0  0  0  0
  1  2  1  0
  2  3  2  0
  1  4  1  0
  2  5  1  0
  4  6  1  0
  4  7  2  0
  5  8  1  0
  6  9  1  1
  6 10  1  0
  6 11  1  0
  8 12  1  0
 11 13  2  0
 11 14  1  0
 12 15  2  0
 12 16  1  0
 13 17  1  0
 14 18  2  0
 15 19  1  0
 16 20  2  0
 17 21  2  0
 18 21  1  0
 19 22  2  0
 20 22  1  0
M  END
