mac-x0396-mac-x0188
     RDKit          3D

 23 25  0  0  0  0  0  0  0  0999 V2000
   -3.2170   15.3620    1.7380 N   0  0  0  0  0  0  0  0  0  0  0  0
   -3.8440   14.3890    0.8700 C   0  0  1  0  0  0  0  0  0  0  0  0
   -5.3480   14.4420    0.7970 C   0  0  0  0  0  0  0  0  0  0  0  0
   -3.6450   14.6080   -0.5550 C   0  0  0  0  0  0  0  0  0  0  0  0
   -5.9630   14.2480   -0.4540 C   0  0  0  0  0  0  0  0  0  0  0  0
   -6.1870   14.6750    1.8650 C   0  0  0  0  0  0  0  0  0  0  0  0
   -4.7310   15.2690   -1.0790 C   0  0  0  0  0  0  0  0  0  0  0  0
   -2.5840   14.2230   -1.3590 C   0  0  0  0  0  0  0  0  0  0  0  0
   -7.2920   14.2730   -0.6850 N   0  0  0  0  0  0  0  0  0  0  0  0
   -7.5650   14.7010    1.6650 C   0  0  0  0  0  0  0  0  0  0  0  0
   -4.8090   15.5460   -2.3940 C   0  0  0  0  0  0  0  0  0  0  0  0
   -2.6600   14.5140   -2.7220 C   0  0  0  0  0  0  0  0  0  0  0  0
   -8.0620   14.4990    0.3890 C   0  0  0  0  0  0  0  0  0  0  0  0
   -1.6080   14.1280   -3.6240 C   0  0  0  0  0  0  0  0  0  0  0  0
   -3.7770   15.1750   -3.2340 C   0  0  0  0  0  0  0  0  0  0  0  0
   -1.8960   13.9750   -4.9240 N   0  0  0  0  0  0  0  0  0  0  0  0
   -0.2390   13.8580   -3.3600 C   0  0  0  0  0  0  0  0  0  0  0  0
    0.4800   13.8990   -2.1110 C   0  0  0  0  0  0  0  0  0  0  0  0
    0.2650   13.5370   -4.6030 C   0  0  0  0  0  0  0  0  0  0  0  0
   -0.7240   13.6070   -5.5320 O   0  0  0  0  0  0  0  0  0  0  0  0
    1.5940   13.1490   -5.1030 C   0  0  0  0  0  0  0  0  0  0  0  0
    1.1320   14.8440   -1.6930 O   0  0  0  0  0  0  0  0  0  0  0  0
    0.3980   12.7610   -1.3670 O   0  0  0  0  0  0  0  0  0  0  0  0
  2  1  1  1
  2  3  1  0
  2  4  1  0
  3  5  2  0
  3  6  1  0
  4  7  2  0
  4  8  1  0
  5  9  1  0
  6 10  2  0
  7 11  1  0
  8 12  2  0
  9 13  2  0
 10 13  1  0
 12 14  1  0
 11 15  2  0
 12 15  1  0
 14 16  2  0
 14 17  1  0
 17 18  1  0
 17 19  2  0
 16 20  1  0
 19 20  1  0
 19 21  1  0
 18 22  2  0
 18 23  1  0
M  END
