mac-x0142-diamond-x0895_0_A
     RDKit          3D

 18 21  0  0  0  0  0  0  0  0999 V2000
   -2.7510   14.8020    2.3560 O   0  0  0  0  0  0  0  0  0  0  0  0
   -2.8160   14.7940    1.1000 N   0  0  0  0  0  0  0  0  0  0  0  0
   -1.7450   14.8700    0.4420 C   0  0  0  0  0  0  0  0  0  0  0  0
   -3.9590   14.7270    0.1790 C   0  0  0  0  0  0  0  0  0  0  0  0
   -0.4950   15.0020    0.9450 N   0  0  0  0  0  0  0  0  0  0  0  0
   -2.0360   14.8290   -1.0050 C   0  0  0  0  0  0  0  0  0  0  0  0
   -3.4700   14.7590   -1.0850 C   0  0  0  0  0  0  0  0  0  0  0  0
    0.4000   15.0720    0.0600 C   0  0  0  0  0  0  0  0  0  0  0  0
   -0.9860   14.8740   -1.8550 C   0  0  0  0  0  0  0  0  0  0  0  0
   -1.0150   14.8700   -3.2420 N   0  0  0  0  0  0  0  0  0  0  0  0
    0.2370   14.9510   -1.2600 N   0  0  0  0  0  0  0  0  0  0  0  0
   -2.0710   14.1900   -4.0080 C   0  0  0  0  0  0  0  0  0  0  0  0
    0.2930   14.9840   -3.9330 C   0  0  0  0  0  0  0  0  0  0  0  0
    0.7430   13.6010   -4.3420 C   0  0  0  0  0  0  0  0  0  0  0  0
   -1.6010   12.8440   -4.5710 C   0  0  0  0  0  0  0  0  0  0  0  0
    2.2140   13.3380   -4.5700 C   0  0  0  0  0  0  0  0  0  0  0  0
    1.5380   12.7520   -3.3630 C   0  0  0  0  0  0  0  0  0  0  0  0
   -0.2420   12.9420   -5.2580 C   0  0  0  0  0  0  0  0  0  0  0  0
  1  2  1  0
  2  3  2  0
  2  4  1  0
  3  5  1  0
  3  6  1  0
  4  7  2  0
  6  7  1  0
  5  8  2  0
  6  9  2  0
  9 10  1  0
  8 11  1  0
  9 11  1  0
 10 12  1  0
 10 13  1  0
 14 13  1  0
 12 15  1  0
 14 16  1  0
 14 17  1  0
 16 17  1  0
 14 18  1  0
 15 18  1  0
M  CHG  2   1  -1   2   1
M  END
