mac-x0555-diamond-x0592_0_A
     RDKit          3D

 15 16  0  0  0  0  0  0  0  0999 V2000
   -6.9330   14.2640    2.5660 N   0  0  0  0  0  0  0  0  0  0  0  0
   -7.6720   15.2450    3.2210 O   0  0  0  0  0  0  0  0  0  0  0  0
   -6.5260   14.4750    1.2280 C   0  0  0  0  0  0  0  0  0  0  0  0
   -5.1940   14.6020    0.6920 C   0  0  0  0  0  0  0  0  0  0  0  0
   -7.5150   14.5820    0.2560 C   0  0  0  0  0  0  0  0  0  0  0  0
   -3.8670   14.5380    1.3070 C   0  0  0  0  0  0  0  0  0  0  0  0
   -4.9520   14.8140   -0.6200 C   0  0  0  0  0  0  0  0  0  0  0  0
   -7.2920   14.7800   -1.0660 N   0  0  0  0  0  0  0  0  0  0  0  0
   -3.5930   15.2840    2.3510 N   0  0  0  0  0  0  0  0  0  0  0  0
   -2.9910   13.8400    0.7830 O   0  0  0  0  0  0  0  0  0  0  0  0
   -6.0230   14.8910   -1.4750 C   0  0  0  0  0  0  0  0  0  0  0  0
   -3.6270   14.9460   -1.0820 C   0  0  0  0  0  0  0  0  0  0  0  0
   -5.7340   15.0890   -2.8040 C   0  0  0  0  0  0  0  0  0  0  0  0
   -3.3580   15.1460   -2.4030 C   0  0  0  0  0  0  0  0  0  0  0  0
   -4.4150   15.2130   -3.2720 C   0  0  0  0  0  0  0  0  0  0  0  0
  1  2  1  0
  1  3  1  0
  3  4  2  0
  3  5  1  0
  4  6  1  0
  4  7  1  0
  5  8  2  0
  6  9  1  0
  6 10  2  0
  7 11  2  0
  8 11  1  0
  7 12  1  0
 11 13  1  0
 12 14  2  0
 13 15  2  0
 14 15  1  0
M  END
