mac-x0142-diamond-x0766_0_A
     RDKit          3D

 20 23  0  0  0  0  0  0  0  0999 V2000
    0.0020   11.7930   -2.7390 C   0  0  0  0  0  0  0  0  0  0  0  0
   -0.6050   10.5930   -2.8380 O   0  0  0  0  0  0  0  0  0  0  0  0
    0.4670   12.1930   -1.6670 O   0  0  0  0  0  0  0  0  0  0  0  0
    0.0500   12.5770   -4.0550 C   0  0  2  0  0  0  0  0  0  0  0  0
    1.0320   13.6860   -3.7990 C   0  0  0  0  0  0  0  0  0  0  0  0
   -1.3250   13.1040   -4.5450 C   0  0  0  0  0  0  0  0  0  0  0  0
    2.3730   13.7210   -4.4650 C   0  0  0  0  0  0  0  0  0  0  0  0
    2.2800   13.2070   -3.0710 C   0  0  0  0  0  0  0  0  0  0  0  0
   -1.8940   14.2550   -3.7090 C   0  0  0  0  0  0  0  0  0  0  0  0
    0.4090   14.9880   -3.3370 C   0  0  0  0  0  0  0  0  0  0  0  0
   -0.9020   14.7070   -2.7360 N   0  0  0  0  0  0  0  0  0  0  0  0
   -1.1510   14.7410   -1.3520 C   0  0  0  0  0  0  0  0  0  0  0  0
   -0.1440   14.5940   -0.4070 N   0  0  0  0  0  0  0  0  0  0  0  0
   -2.3730   14.9450   -0.8210 C   0  0  0  0  0  0  0  0  0  0  0  0
   -0.4010   14.5800    0.9480 C   0  0  0  0  0  0  0  0  0  0  0  0
   -2.5590   14.9800    0.6530 C   0  0  0  0  0  0  0  0  0  0  0  0
   -3.6920   15.1870   -1.3140 C   0  0  0  0  0  0  0  0  0  0  0  0
   -1.5390   14.7450    1.5240 N   0  0  0  0  0  0  0  0  0  0  0  0
   -3.7850   15.2590    0.9860 N   0  0  0  0  0  0  0  0  0  0  0  0
   -4.4490   15.3750   -0.2220 C   0  0  0  0  0  0  0  0  0  0  0  0
  1  2  1  0
  1  3  2  0
  4  1  1  1
  4  5  1  0
  4  6  1  0
  5  7  1  0
  5  8  1  0
  7  8  1  0
  6  9  1  0
  5 10  1  0
  9 11  1  0
 10 11  1  0
 11 12  1  0
 12 13  1  0
 12 14  2  0
 13 15  1  0
 14 16  1  0
 14 17  1  0
 15 18  2  0
 16 18  1  0
 16 19  2  0
 17 20  2  0
 19 20  1  0
M  END
