mac-x0263-mac-x0302
     RDKit          3D

 22 23  0  0  0  0  0  0  0  0999 V2000
  -11.6380   14.4490    2.5740 O   0  0  0  0  0  0  0  0  0  0  0  0
  -10.9270   15.5540    2.8650 C   0  0  0  0  0  0  0  0  0  0  0  0
  -11.3130   16.3470    3.7020 O   0  0  0  0  0  0  0  0  0  0  0  0
   -9.6650   15.6860    2.0710 C   0  0  0  0  0  0  0  0  0  0  0  0
   -8.9740   14.3600    1.8410 C   0  0  0  0  0  0  0  0  0  0  0  0
   -7.6560   14.5660    1.2010 C   0  0  0  0  0  0  0  0  0  0  0  0
   -7.4980   14.6900   -0.1460 N   0  0  0  0  0  0  0  0  0  0  0  0
   -6.5020   14.6590    1.8160 N   0  0  0  0  0  0  0  0  0  0  0  0
   -6.1700   14.8640   -0.4000 C   0  0  0  0  0  0  0  0  0  0  0  0
   -5.5660   14.8430    0.8420 C   0  0  0  0  0  0  0  0  0  0  0  0
   -5.4730   15.0260   -1.5720 C   0  0  0  0  0  0  0  0  0  0  0  0
   -4.1800   14.9980    0.9430 C   0  0  0  0  0  0  0  0  0  0  0  0
   -6.1890   15.0250   -2.7230 O   0  0  0  0  0  0  0  0  0  0  0  0
   -4.0640   15.1630   -1.4920 C   0  0  0  0  0  0  0  0  0  0  0  0
   -3.4480   15.1530   -0.2310 C   0  0  0  0  0  0  0  0  0  0  0  0
   -3.1150   15.3050   -2.6410 C   0  0  0  0  0  0  0  0  0  0  0  0
   -1.8500   14.8040   -2.4220 N   0  0  0  0  0  0  0  0  0  0  0  0
   -3.4420   15.8170   -3.7020 O   0  0  0  0  0  0  0  0  0  0  0  0
   -0.8530   14.6740   -3.4690 C   0  0  0  0  0  0  0  0  0  0  0  0
    0.4310   14.1070   -2.8920 C   0  0  0  0  0  0  0  0  0  0  0  0
    1.4920   14.2670   -3.7060 O   0  0  0  0  0  0  0  0  0  0  0  0
    0.5670   13.5550   -1.8120 O   0  0  0  0  0  0  0  0  0  0  0  0
  1  2  1  0
  2  3  2  0
  2  4  1  0
  4  5  1  0
  5  6  1  0
  6  7  1  0
  6  8  2  0
  7  9  1  0
  8 10  1  0
  9 10  2  0
  9 11  1  0
 10 12  1  0
 11 13  1  0
 11 14  2  0
 12 15  2  0
 14 15  1  0
 14 16  1  0
 16 17  1  0
 16 18  2  0
 17 19  1  0
 19 20  1  0
 20 21  1  0
 20 22  2  0
M  END
