mac-x0433-mac-x0163
     RDKit          3D

 24 27  0  0  0  0  0  0  0  0999 V2000
   -7.7660   14.6430    1.4960 C   0  0  0  0  0  0  0  0  0  0  0  0
   -6.6360   14.7880    0.5190 C   0  0  0  0  0  0  0  0  0  0  0  0
   -6.9870   14.9680   -0.7710 N   0  0  0  0  0  0  0  0  0  0  0  0
   -5.3120   14.7300    0.9550 C   0  0  0  0  0  0  0  0  0  0  0  0
   -4.3420   14.8550   -0.0130 C   0  0  0  0  0  0  0  0  0  0  0  0
   -5.9890   15.0890   -1.6330 C   0  0  0  0  0  0  0  0  0  0  0  0
   -6.2740   15.2560   -2.9720 N   0  0  0  0  0  0  0  0  0  0  0  0
   -4.7120   15.0420   -1.2980 N   0  0  0  0  0  0  0  0  0  0  0  0
   -2.8520   14.7880    0.1030 C   0  0  0  0  0  0  0  0  0  0  0  0
   -2.2700   14.7460   -1.1340 C   0  0  0  0  0  0  0  0  0  0  0  0
   -2.1010   14.7520    1.2770 N   0  0  0  0  0  0  0  0  0  0  0  0
   -3.2880   14.8000   -2.5310 Cl  0  0  0  0  0  0  0  0  0  0  0  0
   -0.8960   14.6630   -1.2420 C   0  0  0  0  0  0  0  0  0  0  0  0
   -0.7600   14.6650    1.0630 C   0  0  0  0  0  0  0  0  0  0  0  0
   -0.1280   14.6200   -0.1320 N   0  0  0  0  0  0  0  0  0  0  0  0
   -0.3070   14.6310   -2.5460 N   0  0  0  0  0  0  0  0  0  0  0  0
    0.7940   13.8210   -3.0200 C   0  0  0  0  0  0  0  0  0  0  0  0
   -1.3130   14.8530   -3.5890 C   0  0  0  0  0  0  0  0  0  0  0  0
    1.5350   14.5680   -4.1250 C   0  0  0  0  0  0  0  0  0  0  0  0
    1.6640   13.1080   -1.9670 C   0  0  0  0  0  0  0  0  0  0  0  0
    0.3140   12.3810   -3.4000 C   0  0  0  0  0  0  0  0  0  0  0  0
   -0.7040   15.5730   -4.7810 C   0  0  0  0  0  0  0  0  0  0  0  0
    0.5750   14.8980   -5.2680 C   0  0  0  0  0  0  0  0  0  0  0  0
    0.5370   12.0450   -1.9260 C   0  0  0  0  0  0  0  0  0  0  0  0
  1  2  1  0
  2  3  2  0
  2  4  1  0
  4  5  2  0
  3  6  1  0
  6  7  1  0
  5  8  1  0
  6  8  2  0
  5  9  1  0
  9 10  2  0
  9 11  1  0
 10 12  1  0
 10 13  1  0
 11 14  2  0
 13 15  2  0
 14 15  1  0
 13 16  1  0
 17 16  1  0
 16 18  1  0
 17 19  1  0
 17 20  1  0
 17 21  1  0
 18 22  1  0
 19 23  1  0
 22 23  1  0
 20 24  1  0
 21 24  1  0
M  END
