mac-x0496-mac-x0417
     RDKit          3D

 34 37  0  0  0  0  0  0  0  0999 V2000
   -9.9720   17.8140    4.7420 C   0  0  0  0  0  0  0  0  0  0  0  0
   -9.9900   16.7940    3.6740 C   0  0  0  0  0  0  0  0  0  0  0  0
  -11.0040   16.6370    2.8100 N   0  0  0  0  0  0  0  0  0  0  0  0
   -8.9530   15.9210    3.4950 N   0  0  0  0  0  0  0  0  0  0  0  0
  -10.5790   15.5820    1.9980 O   0  0  0  0  0  0  0  0  0  0  0  0
   -9.3490   15.2050    2.4710 C   0  0  0  0  0  0  0  0  0  0  0  0
   -8.6690   14.0790    1.7840 C   0  0  0  0  0  0  0  0  0  0  0  0
   -7.2500   14.3480    1.6400 N   0  0  0  0  0  0  0  0  0  0  0  0
   -6.7420   14.6680    0.3930 C   0  0  0  0  0  0  0  0  0  0  0  0
   -7.4390   14.8450   -0.5980 O   0  0  0  0  0  0  0  0  0  0  0  0
   -5.2700   14.7900    0.3020 C   0  0  0  0  0  0  0  0  0  0  0  0
   -4.4980   14.8760    1.4560 C   0  0  0  0  0  0  0  0  0  0  0  0
   -4.6560   14.8150   -0.9560 C   0  0  0  0  0  0  0  0  0  0  0  0
   -3.1210   14.9740    1.3760 C   0  0  0  0  0  0  0  0  0  0  0  0
   -3.2650   14.9180   -1.0300 C   0  0  0  0  0  0  0  0  0  0  0  0
   -2.6030   14.9460   -2.3420 C   0  0  0  0  0  0  0  0  0  0  0  0
   -2.4970   14.9920    0.1370 C   0  0  0  0  0  0  0  0  0  0  0  0
   -1.4040   14.6900   -2.7060 N   0  0  0  0  0  0  0  0  0  0  0  0
   -3.4650   15.3260   -3.3010 O   0  0  0  0  0  0  0  0  0  0  0  0
   -0.3770   14.2720   -1.7310 C   0  0  0  0  0  0  0  0  0  0  0  0
    1.0050   14.1460   -2.3930 C   0  0  0  0  0  0  0  0  0  0  0  0
    1.4060   12.7640   -2.4360 O   0  0  0  0  0  0  0  0  0  0  0  0
    0.7030   11.9480   -3.2960 C   0  0  0  0  0  0  0  0  0  0  0  0
    0.3990   10.7940   -3.0140 O   0  0  0  0  0  0  0  0  0  0  0  0
    0.3800   12.6610   -4.5980 C   0  0  0  0  0  0  0  0  0  0  0  0
    0.2850   11.7190   -5.7410 C   0  0  0  0  0  0  0  0  0  0  0  0
    1.2500   11.7140   -6.6630 N   0  0  0  0  0  0  0  0  0  0  0  0
   -0.7230   10.7650   -6.0260 C   0  0  0  0  0  0  0  0  0  0  0  0
    0.8800   10.7390   -7.5840 O   0  0  0  0  0  0  0  0  0  0  0  0
   -0.2970   10.1730   -7.2000 C   0  0  0  0  0  0  0  0  0  0  0  0
   -1.9270   10.3310   -5.4470 C   0  0  0  0  0  0  0  0  0  0  0  0
   -0.9870    9.1560   -7.8660 C   0  0  0  0  0  0  0  0  0  0  0  0
   -2.6480    9.3080   -6.0910 C   0  0  0  0  0  0  0  0  0  0  0  0
   -2.1880    8.7320   -7.2770 C   0  0  0  0  0  0  0  0  0  0  0  0
  1  2  1  0
  2  3  2  0
  2  4  1  0
  3  5  1  0
  4  6  2  0
  5  6  1  0
  6  7  1  0
  7  8  1  0
  8  9  1  0
  9 10  2  0
  9 11  1  0
 11 12  2  0
 11 13  1  0
 12 14  1  0
 13 15  2  0
 15 16  1  0
 14 17  2  0
 15 17  1  0
 16 18  2  3
 16 19  1  0
 18 20  1  0
 20 21  1  0
 21 22  1  0
 22 23  1  0
 23 24  2  0
 23 25  1  0
 25 26  1  0
 26 27  2  0
 26 28  1  0
 27 29  1  0
 28 30  2  0
 29 30  1  0
 28 31  1  0
 30 32  1  0
 31 33  2  0
 32 34  2  0
 33 34  1  0
M  END
