mac-x0360-diamond-x0962_1_A
     RDKit          3D

 17 18  0  0  0  0  0  0  0  0999 V2000
   -7.5020   11.3600    1.6410 Cl  0  0  0  0  0  0  0  0  0  0  0  0
   -6.3070   11.6430    0.4300 C   0  0  0  0  0  0  0  0  0  0  0  0
   -6.1910   10.7650   -0.6370 C   0  0  0  0  0  0  0  0  0  0  0  0
   -5.4640   12.7450    0.5180 C   0  0  0  0  0  0  0  0  0  0  0  0
   -4.4980   12.9730   -0.4830 C   0  0  0  0  0  0  0  0  0  0  0  0
   -5.2230   10.9870   -1.6130 C   0  0  0  0  0  0  0  0  0  0  0  0
   -5.0860    9.8750   -2.9150 Cl  0  0  0  0  0  0  0  0  0  0  0  0
   -3.4700   14.4110   -0.3760 S   0  0  1  0  0  0  0  0  0  0  0  0
   -4.3710   12.0890   -1.5500 C   0  0  0  0  0  0  0  0  0  0  0  0
   -2.7460   14.7160   -1.8610 N   0  0  0  0  0  0  0  0  0  0  0  0
   -4.5390   15.4510   -0.2800 N   0  0  0  0  0  0  0  0  0  0  0  0
   -2.3740   14.2230    0.5360 O   0  0  0  0  0  0  0  0  0  0  0  0
   -5.6660   14.7550    0.2910 C   0  0  1  0  0  0  0  0  0  0  0  0
   -5.8830   15.1250    1.6750 N   0  0  0  0  0  0  0  0  0  0  0  0
   -7.0100   15.0320   -0.3870 C   0  0  0  0  0  0  0  0  0  0  0  0
   -7.2310   14.6510    1.9270 C   0  0  0  0  0  0  0  0  0  0  0  0
   -8.0100   14.8510    0.7000 N   0  0  0  0  0  0  0  0  0  0  0  0
  1  2  1  0
  2  3  2  0
  2  4  1  0
  4  5  2  0
  3  6  1  0
  6  7  1  0
  5  8  1  0
  5  9  1  0
  6  9  2  0
  8 10  1  6
  8 11  2  0
  8 12  2  0
 13 11  1  6
 13 14  1  0
 13 15  1  0
 14 16  1  0
 15 17  1  0
 16 17  1  0
M  END
