mac-x0437-diamond-x0950_1_A
     RDKit          3D

 15 16  0  0  0  0  0  0  0  0999 V2000
    1.5400   12.9380   -2.2510 O   0  0  0  0  0  0  0  0  0  0  0  0
    1.0650   12.2380   -3.3070 C   0  0  0  0  0  0  0  0  0  0  0  0
    0.5260   11.1500   -3.1780 O   0  0  0  0  0  0  0  0  0  0  0  0
    1.2770   12.9880   -4.6330 C   0  0  2  0  0  0  0  0  0  0  0  0
   -0.0390   13.2790   -5.3190 C   0  0  0  0  0  0  0  0  0  0  0  0
    2.0370   12.1720   -5.5090 O   0  0  0  0  0  0  0  0  0  0  0  0
   -0.7400   12.0390   -5.5960 N   0  0  0  0  0  0  0  0  0  0  0  0
   -1.8790   11.6400   -4.9610 C   0  0  0  0  0  0  0  0  0  0  0  0
   -0.3990   11.0660   -6.5170 C   0  0  0  0  0  0  0  0  0  0  0  0
   -2.3020   10.4820   -5.4010 N   0  0  0  0  0  0  0  0  0  0  0  0
   -1.4000   10.1060   -6.3640 C   0  0  0  0  0  0  0  0  0  0  0  0
    0.6450   10.9180   -7.4440 C   0  0  0  0  0  0  0  0  0  0  0  0
   -1.3760    8.9490   -7.1520 C   0  0  0  0  0  0  0  0  0  0  0  0
    0.6460    9.7520   -8.2230 C   0  0  0  0  0  0  0  0  0  0  0  0
   -0.3460    8.7820   -8.0810 C   0  0  0  0  0  0  0  0  0  0  0  0
  1  2  1  0
  2  3  2  0
  2  4  1  0
  4  5  1  0
  4  6  1  6
  5  7  1  0
  7  8  1  0
  7  9  1  0
  8 10  2  0
  9 11  2  0
 10 11  1  0
  9 12  1  0
 11 13  1  0
 12 14  2  0
 13 15  2  0
 14 15  1  0
M  END
