mac-x0255-diamond-x1015_0_A
     RDKit          3D

 26 29  0  0  0  0  0  0  0  0999 V2000
    3.0490   12.3540   -2.6640 O   0  0  0  0  0  0  0  0  0  0  0  0
    1.8420   12.8680   -3.1530 C   0  0  1  0  0  0  0  0  0  0  0  0
    1.8730   13.1480   -4.6230 C   0  0  0  0  0  0  0  0  0  0  0  0
    0.5980   12.1680   -2.6980 C   0  0  2  0  0  0  0  0  0  0  0  0
    0.9740   14.3130   -4.8560 C   0  0  0  0  0  0  0  0  0  0  0  0
   -0.5060   12.3320   -3.6870 N   0  0  0  0  0  0  0  0  0  0  0  0
    0.0920   12.6920   -1.5000 N   0  0  0  0  0  0  0  0  0  0  0  0
    1.3520   15.6040   -4.7970 C   0  0  0  0  0  0  0  0  0  0  0  0
   -0.6780   14.1850   -5.2260 S   0  0  0  0  0  0  0  0  0  0  0  0
   -1.5360   13.1760   -2.9760 C   0  0  1  0  0  0  0  0  0  0  0  0
   -0.5820   13.7910   -1.9540 C   0  0  0  0  0  0  0  0  0  0  0  0
   -0.8270   11.4730   -4.7730 C   0  0  0  0  0  0  0  0  0  0  0  0
    0.3160   16.5360   -5.0700 C   0  0  0  0  0  0  0  0  0  0  0  0
   -0.8830   15.8890   -5.3160 C   0  0  0  0  0  0  0  0  0  0  0  0
   -2.2420   14.2500   -3.7960 C   0  0  0  0  0  0  0  0  0  0  0  0
   -0.3960   14.9480   -1.6200 O   0  0  0  0  0  0  0  0  0  0  0  0
   -0.1990   11.7150   -6.0210 C   0  0  0  0  0  0  0  0  0  0  0  0
   -1.7180   10.3990   -4.7000 C   0  0  0  0  0  0  0  0  0  0  0  0
    0.3530   17.9370   -5.1230 C   0  0  0  0  0  0  0  0  0  0  0  0
   -2.0640   16.6050   -5.6090 C   0  0  0  0  0  0  0  0  0  0  0  0
   -0.4560   10.9170   -7.1390 C   0  0  0  0  0  0  0  0  0  0  0  0
   -1.9790    9.5970   -5.8180 C   0  0  0  0  0  0  0  0  0  0  0  0
   -0.8090   18.6400   -5.4310 C   0  0  0  0  0  0  0  0  0  0  0  0
   -1.9880   17.9890   -5.6670 C   0  0  0  0  0  0  0  0  0  0  0  0
   -1.3480    9.8600   -7.0310 C   0  0  0  0  0  0  0  0  0  0  0  0
   -1.6790    8.8670   -8.3990 Cl  0  0  0  0  0  0  0  0  0  0  0  0
  2  1  1  6
  2  3  1  0
  2  4  1  0
  3  5  1  0
  4  6  1  0
  4  7  1  1
  5  8  2  0
  5  9  1  0
  6 10  1  0
  7 11  1  0
 10 11  1  0
  6 12  1  0
  8 13  1  0
  9 14  1  0
 13 14  2  0
 10 15  1  6
 11 16  2  0
 12 17  2  0
 12 18  1  0
 13 19  1  0
 14 20  1  0
 17 21  1  0
 18 22  2  0
 19 23  2  0
 20 24  2  0
 23 24  1  0
 21 25  2  0
 22 25  1  0
 25 26  1  0
M  END
