mac-x0333-diamond-x0471_0_A
     RDKit          3D

 17 18  0  0  0  0  0  0  0  0999 V2000
   -2.6990   15.0630   -2.7360 O   0  0  0  0  0  0  0  0  0  0  0  0
   -3.6270   15.0040   -1.7300 C   0  0  0  0  0  0  0  0  0  0  0  0
   -3.1650   15.1570   -0.4180 C   0  0  0  0  0  0  0  0  0  0  0  0
   -4.9850   14.7960   -2.0000 C   0  0  0  0  0  0  0  0  0  0  0  0
   -5.8440   14.7510   -0.9120 C   0  0  0  0  0  0  0  0  0  0  0  0
   -4.0520   15.1200    0.6570 C   0  0  0  0  0  0  0  0  0  0  0  0
   -5.3870   14.9180    0.3720 C   0  0  0  0  0  0  0  0  0  0  0  0
   -7.2020   14.5370   -0.9480 O   0  0  0  0  0  0  0  0  0  0  0  0
   -6.3960   14.8580    1.2840 O   0  0  0  0  0  0  0  0  0  0  0  0
   -7.5680   14.8020    0.4320 C   0  0  2  0  0  0  0  0  0  0  0  0
   -8.5940   13.8550    1.1010 C   0  0  0  0  0  0  0  0  0  0  0  0
   -8.4780   13.7750    2.5750 N   0  0  0  0  0  0  0  0  0  0  0  0
   -8.8360   14.7930    3.4600 C   0  0  0  0  0  0  0  0  0  0  0  0
   -9.2420   15.9020    3.1130 O   0  0  0  0  0  0  0  0  0  0  0  0
   -8.6710   14.3920    4.9360 C   0  0  0  0  0  0  0  0  0  0  0  0
   -9.9390   13.7150    5.4630 C   0  0  0  0  0  0  0  0  0  0  0  0
   -8.3070   15.5850    5.8150 C   0  0  0  0  0  0  0  0  0  0  0  0
  1  2  1  0
  2  3  2  0
  2  4  1  0
  4  5  2  0
  3  6  1  0
  5  7  1  0
  6  7  2  0
  5  8  1  0
  7  9  1  0
  8 10  1  0
  9 10  1  0
 10 11  1  1
 11 12  1  0
 12 13  1  0
 13 14  2  0
 13 15  1  0
 15 16  1  0
 15 17  1  0
M  END
