mac-x0303-mac-x0138
     RDKit          3D

 21 23  0  0  0  0  0  0  0  0999 V2000
   -8.4910   12.7330    2.5470 N   0  0  0  0  0  0  0  0  0  0  0  0
   -8.5380   14.2650    1.8280 S   0  0  0  0  0  0  0  0  0  0  0  0
   -8.4630   15.2170    2.9190 O   0  0  0  0  0  0  0  0  0  0  0  0
   -9.6340   14.3070    0.8900 O   0  0  0  0  0  0  0  0  0  0  0  0
   -7.0350   14.4290    0.9240 C   0  0  0  0  0  0  0  0  0  0  0  0
   -7.0360   15.1480   -0.2500 N   0  0  0  0  0  0  0  0  0  0  0  0
   -5.8780   13.9280    1.2890 N   0  0  0  0  0  0  0  0  0  0  0  0
   -5.7590   15.0450   -0.7550 C   0  0  0  0  0  0  0  0  0  0  0  0
   -4.9920   14.4860    0.3710 C   0  0  0  0  0  0  0  0  0  0  0  0
   -5.3080   15.3760   -1.9890 C   0  0  0  0  0  0  0  0  0  0  0  0
   -3.6670   14.5450    0.5440 C   0  0  0  0  0  0  0  0  0  0  0  0
   -3.9270   15.2660   -2.4830 C   0  0  0  0  0  0  0  0  0  0  0  0
   -2.7330   15.2210   -0.2610 C   0  0  2  0  0  0  0  0  0  0  0  0
   -2.9770   13.9840    1.6520 C   0  0  0  0  0  0  0  0  0  0  0  0
   -3.6360   15.2110   -3.9610 C   0  0  0  0  0  0  0  0  0  0  0  0
   -3.1670   16.4440    0.2770 N   0  0  0  0  0  0  0  0  0  0  0  0
   -2.8670   15.2070   -1.7190 C   0  0  0  0  0  0  0  0  0  0  0  0
   -1.3330   15.2440    0.0310 N   0  0  0  0  0  0  0  0  0  0  0  0
   -1.7050   14.0780    1.8800 N   0  0  0  0  0  0  0  0  0  0  0  0
   -0.9170   14.6990    1.0460 C   0  0  0  0  0  0  0  0  0  0  0  0
    0.3760   14.7190    1.3580 N   0  0  0  0  0  0  0  0  0  0  0  0
  2  1  1  0
  2  3  2  0
  2  4  2  0
  2  5  1  0
  5  6  1  0
  5  7  2  0
  6  8  1  0
  7  9  1  0
  8  9  1  0
  8 10  2  0
  9 11  2  0
 10 12  1  0
 11 13  1  0
 11 14  1  0
 12 15  1  0
 13 16  1  1
 12 17  2  0
 13 17  1  0
 13 18  1  0
 14 19  2  0
 18 20  2  0
 19 20  1  0
 20 21  1  0
M  END
