mac-x0226-diamond-x0371_0_A
     RDKit          3D

 35 39  0  0  0  0  0  0  0  0999 V2000
    1.4460   12.3580   -2.1300 O   0  0  0  0  0  0  0  0  0  0  0  0
    0.3570   11.7250   -2.7750 C   0  0  0  0  0  0  0  0  0  0  0  0
    0.3290   10.3850   -2.3000 O   0  0  0  0  0  0  0  0  0  0  0  0
   -0.9010   12.4660   -2.3200 C   0  0  0  0  0  0  0  0  0  0  0  0
    0.5580   11.7590   -4.2470 C   0  0  0  0  0  0  0  0  0  0  0  0
   -0.6080   13.4690   -1.2110 C   0  0  0  0  0  0  0  0  0  0  0  0
    1.4250   12.5760   -5.0150 C   0  0  0  0  0  0  0  0  0  0  0  0
   -0.0680   10.9740   -5.1850 C   0  0  0  0  0  0  0  0  0  0  0  0
   -1.4480   14.7440   -1.2400 C   0  0  0  0  0  0  0  0  0  0  0  0
    1.3480   12.3150   -6.3180 N   0  0  0  0  0  0  0  0  0  0  0  0
    0.4250   11.3200   -6.4180 N   0  0  0  0  0  0  0  0  0  0  0  0
    0.0520   10.7370   -7.6590 C   0  0  0  0  0  0  0  0  0  0  0  0
   -2.4930   14.6710   -0.1570 C   0  0  0  0  0  0  0  0  0  0  0  0
   -1.0970    9.9480   -7.7210 C   0  0  0  0  0  0  0  0  0  0  0  0
    0.7980   10.9210   -8.8200 C   0  0  0  0  0  0  0  0  0  0  0  0
   -3.5790   14.6150    0.7740 C   0  0  0  0  0  0  0  0  0  0  0  0
   -3.2530   14.8520   -1.3990 C   0  0  0  0  0  0  0  0  0  0  0  0
   -1.4780    9.3630   -8.9320 C   0  0  0  0  0  0  0  0  0  0  0  0
    0.4240   10.3430  -10.0250 C   0  0  0  0  0  0  0  0  0  0  0  0
   -4.9370   14.6700    0.5500 C   0  0  0  0  0  0  0  0  0  0  0  0
   -4.6410   14.9350   -1.6730 C   0  0  0  0  0  0  0  0  0  0  0  0
   -0.7170    9.5620  -10.0830 C   0  0  0  0  0  0  0  0  0  0  0  0
   -5.9610   14.5740    1.4360 N   0  0  0  0  0  0  0  0  0  0  0  0
   -5.5220   14.8250   -0.6410 C   0  0  0  0  0  0  0  0  0  0  0  0
   -7.1390   14.6650    0.7410 C   0  0  0  0  0  0  0  0  0  0  0  0
   -6.8960   14.8330   -0.5510 N   0  0  0  0  0  0  0  0  0  0  0  0
   -8.4580   14.5730    1.4150 C   0  0  0  0  0  0  0  0  0  0  0  0
   -8.2440   14.6470    2.8420 N   0  0  0  0  0  0  0  0  0  0  0  0
   -8.8930   15.6040    3.5860 C   0  0  0  0  0  0  0  0  0  0  0  0
   -9.6030   16.4410    3.0330 O   0  0  0  0  0  0  0  0  0  0  0  0
   -8.6930   15.5560    5.0180 C   0  0  0  0  0  0  0  0  0  0  0  0
   -8.0860   14.4480    5.5470 O   0  0  0  0  0  0  0  0  0  0  0  0
   -8.9960   16.4300    6.0460 C   0  0  0  0  0  0  0  0  0  0  0  0
   -8.5510   15.8220    7.2470 C   0  0  0  0  0  0  0  0  0  0  0  0
   -8.0020   14.6170    6.8870 C   0  0  0  0  0  0  0  0  0  0  0  0
  2  1  1  0
  2  3  1  0
  2  4  1  0
  2  5  1  0
  4  6  1  0
  5  7  1  0
  5  8  2  0
  6  9  1  0
  7 10  2  0
  8 11  1  0
 10 11  1  0
 11 12  1  0
  9 13  1  0
 12 14  2  0
 12 15  1  0
 13 16  2  0
 13 17  1  0
 14 18  1  0
 15 19  2  0
 16 20  1  0
 17 21  2  0
 18 22  2  0
 19 22  1  0
 20 23  1  0
 20 24  2  0
 21 24  1  0
 23 25  1  0
 24 26  1  0
 25 26  2  0
 25 27  1  0
 27 28  1  0
 28 29  1  0
 29 30  2  0
 29 31  1  0
 31 32  1  0
 31 33  2  0
 33 34  1  0
 32 35  1  0
 34 35  2  0
M  END
