mac-x0326-diamond-x0438_0_A
     RDKit          3D

 24 26  0  0  0  0  0  0  0  0999 V2000
   -6.5660   15.6650   -1.6870 Cl  0  0  0  0  0  0  0  0  0  0  0  0
   -5.0580   14.7010   -1.6300 C   0  0  1  0  0  0  0  0  0  0  0  0
   -4.0670   15.1770   -2.7090 C   0  0  0  0  0  0  0  0  0  0  0  0
   -4.6000   14.5090   -0.1430 C   0  0  1  0  0  0  0  0  0  0  0  0
   -2.6490   14.9460   -2.4000 C   0  0  0  0  0  0  0  0  0  0  0  0
   -3.0550   14.8240    0.1270 C   0  0  0  0  0  0  0  0  0  0  0  0
   -5.5560   15.1410    0.8740 N   0  0  0  0  0  0  0  0  0  0  0  0
   -4.9530   13.0790    0.2110 C   0  0  0  0  0  0  0  0  0  0  0  0
   -1.7120   14.8910   -3.4110 N   0  0  0  0  0  0  0  0  0  0  0  0
   -2.1850   14.7870   -1.1210 C   0  0  0  0  0  0  0  0  0  0  0  0
   -6.4130   13.1570    0.1540 N   0  0  0  0  0  0  0  0  0  0  0  0
   -6.7010   14.2120    1.0790 C   0  0  2  0  0  0  0  0  0  0  0  0
   -8.1620   14.7080    0.9830 C   0  0  0  0  0  0  0  0  0  0  0  0
   -0.5150   14.6910   -2.9040 C   0  0  0  0  0  0  0  0  0  0  0  0
   -0.4860   14.5550   -1.1710 S   0  0  0  0  0  0  0  0  0  0  0  0
    0.7300   14.5910   -3.7550 C   0  0  0  0  0  0  0  0  0  0  0  0
   -9.0850   15.2620    2.4220 S   0  0  0  0  0  0  0  0  0  0  0  0
    0.9090   13.1880   -4.3210 C   0  0  0  0  0  0  0  0  0  0  0  0
   -7.8870   15.3280    3.7340 C   0  0  0  0  0  0  0  0  0  0  0  0
  -10.0600   14.2660    2.8290 O   0  0  0  0  0  0  0  0  0  0  0  0
   -9.5300   16.6160    2.1930 O   0  0  0  0  0  0  0  0  0  0  0  0
    1.0520   12.1890   -3.2190 C   0  0  0  0  0  0  0  0  0  0  0  0
    0.3430   11.0590   -3.3950 O   0  0  0  0  0  0  0  0  0  0  0  0
    1.7330   12.3400   -2.2260 O   0  0  0  0  0  0  0  0  0  0  0  0
  2  1  1  1
  2  3  1  0
  2  4  1  0
  3  5  1  0
  4  6  1  6
  4  7  1  0
  4  8  1  0
  5  9  1  0
  5 10  2  0
  6 10  1  0
  8 11  1  0
  7 12  1  0
 11 12  1  0
 12 13  1  6
  9 14  2  0
 10 15  1  0
 14 15  1  0
 14 16  1  0
 17 13  1  0
 16 18  1  0
 17 19  1  0
 17 20  2  0
 17 21  2  0
 18 22  1  0
 22 23  1  0
 22 24  2  0
M  END
