mac-x0115-mac-x0354
     RDKit          3D

 33 36  0  0  0  0  0  0  0  0999 V2000
   -1.3820   18.7030   -5.1400 C   0  0  0  0  0  0  0  0  0  0  0  0
   -0.3860   17.9760   -6.0160 C   0  0  0  0  0  0  0  0  0  0  0  0
    1.0540   18.2940   -5.6610 C   0  0  0  0  0  0  0  0  0  0  0  0
   -0.6450   16.6080   -5.7800 O   0  0  0  0  0  0  0  0  0  0  0  0
    0.3140   15.9090   -4.9980 C   0  0  0  0  0  0  0  0  0  0  0  0
   -0.4740   14.9800   -4.0970 C   0  0  0  0  0  0  0  0  0  0  0  0
   -0.3280   15.3280   -2.6830 N   0  0  0  0  0  0  0  0  0  0  0  0
    0.6830   14.6190   -2.1550 C   0  0  0  0  0  0  0  0  0  0  0  0
   -1.4930   15.3780   -1.9810 C   0  0  0  0  0  0  0  0  0  0  0  0
    2.0860   14.4030   -3.2870 S   0  0  0  0  0  0  0  0  0  0  0  0
    0.5490   14.1160   -0.8280 N   0  0  0  0  0  0  0  0  0  0  0  0
   -1.4190   15.5610   -0.5190 C   0  0  2  0  0  0  0  0  0  0  0  0
   -2.7440   15.2860   -2.4210 C   0  0  0  0  0  0  0  0  0  0  0  0
    2.1970   13.4730   -1.8270 C   0  0  0  0  0  0  0  0  0  0  0  0
   -0.4730   14.5360    0.0680 C   0  0  0  0  0  0  0  0  0  0  0  0
   -2.8370   15.5330   -0.0720 N   0  0  0  0  0  0  0  0  0  0  0  0
   -3.4980   15.3910   -1.1820 C   0  0  0  0  0  0  0  0  0  0  0  0
   -0.5560   14.1130    1.2180 O   0  0  0  0  0  0  0  0  0  0  0  0
    1.2460   12.3420   -1.9500 N   0  0  0  0  0  0  0  0  0  0  0  0
    0.7640   11.6710   -2.9860 C   0  0  0  0  0  0  0  0  0  0  0  0
   -0.0600   10.6190   -2.6930 O   0  0  0  0  0  0  0  0  0  0  0  0
    1.0160   11.8590   -4.4490 C   0  0  0  0  0  0  0  0  0  0  0  0
    1.9860   12.6500   -5.1320 C   0  0  0  0  0  0  0  0  0  0  0  0
    0.3330   11.2390   -5.5400 C   0  0  0  0  0  0  0  0  0  0  0  0
    0.9260   11.6770   -6.6820 N   0  0  0  0  0  0  0  0  0  0  0  0
    1.9240   12.5340   -6.4600 N   0  0  0  0  0  0  0  0  0  0  0  0
   -0.7710   10.2880   -5.6640 C   0  0  0  0  0  0  0  0  0  0  0  0
    0.5540   11.2740   -8.0300 C   0  0  0  0  0  0  0  0  0  0  0  0
   -0.5660    9.0710   -6.3430 C   0  0  0  0  0  0  0  0  0  0  0  0
   -2.0280   10.5620   -5.1310 C   0  0  0  0  0  0  0  0  0  0  0  0
   -1.6010    8.1540   -6.4790 C   0  0  0  0  0  0  0  0  0  0  0  0
   -3.0660    9.6400   -5.2700 C   0  0  0  0  0  0  0  0  0  0  0  0
   -2.8500    8.4370   -5.9430 C   0  0  0  0  0  0  0  0  0  0  0  0
  1  2  1  0
  2  3  1  0
  2  4  1  0
  4  5  1  0
  5  6  1  0
  6  7  1  0
  7  8  1  0
  7  9  1  0
  8 10  2  3
  8 11  1  0
  9 12  1  0
  9 13  2  0
 10 14  1  0
 11 15  1  0
 12 15  1  0
 12 16  1  1
 13 17  1  0
 16 17  2  0
 15 18  2  0
 14 19  1  0
 19 20  2  3
 20 21  1  0
 20 22  1  0
 22 23  1  0
 22 24  2  0
 24 25  1  0
 23 26  2  0
 25 26  1  0
 24 27  1  0
 25 28  1  0
 27 29  2  0
 27 30  1  0
 29 31  1  0
 30 32  2  0
 31 33  2  0
 32 33  1  0
M  END
