mac-x0453-diamond-x0128_0_A
     RDKit          3D

 23 25  0  0  0  0  0  0  0  0999 V2000
   -6.7150   14.4500    2.0700 N   0  0  0  0  0  0  0  0  0  0  0  0
   -6.0290   13.1730    2.1580 C   0  0  0  0  0  0  0  0  0  0  0  0
   -4.5310   13.4010    1.7790 C   0  0  0  0  0  0  0  0  0  0  0  0
   -7.8200   14.9830    2.8440 C   0  0  0  0  0  0  0  0  0  0  0  0
   -6.2760   14.8980    0.8170 C   0  0  0  0  0  0  0  0  0  0  0  0
   -8.9170   15.2150    2.3350 O   0  0  0  0  0  0  0  0  0  0  0  0
   -7.5700   15.2540    4.1960 N   0  0  0  0  0  0  0  0  0  0  0  0
   -7.0620   14.8070   -0.3290 C   0  0  0  0  0  0  0  0  0  0  0  0
   -4.9830   15.4320    0.7050 C   0  0  0  0  0  0  0  0  0  0  0  0
   -4.0180   13.7060    0.3720 C   0  0  0  0  0  0  0  0  0  0  0  0
   -8.3680   15.9800    5.1400 C   0  0  0  0  0  0  0  0  0  0  0  0
   -6.5710   15.2240   -1.5580 C   0  0  0  0  0  0  0  0  0  0  0  0
   -4.4970   15.8440   -0.5170 C   0  0  0  0  0  0  0  0  0  0  0  0
   -2.7210   14.1220    0.0870 C   0  0  0  0  0  0  0  0  0  0  0  0
   -4.7290   13.6220   -0.8160 N   0  0  0  0  0  0  0  0  0  0  0  0
   -9.0570   17.1310    4.7380 C   0  0  0  0  0  0  0  0  0  0  0  0
   -8.5210   15.6230    6.4840 C   0  0  0  0  0  0  0  0  0  0  0  0
   -5.2850   15.7340   -1.6470 C   0  0  0  0  0  0  0  0  0  0  0  0
   -2.6500   14.2840   -1.2690 N   0  0  0  0  0  0  0  0  0  0  0  0
   -3.8790   13.9770   -1.7750 C   0  0  0  0  0  0  0  0  0  0  0  0
   -9.8420   17.9020    5.5360 N   0  0  0  0  0  0  0  0  0  0  0  0
   -9.3220   16.3960    7.3340 C   0  0  0  0  0  0  0  0  0  0  0  0
   -9.9560   17.5150    6.8210 C   0  0  0  0  0  0  0  0  0  0  0  0
  1  2  1  0
  2  3  1  0
  1  4  1  0
  1  5  1  0
  4  6  2  0
  4  7  1  0
  5  8  2  0
  5  9  1  0
  3 10  1  0
  7 11  1  0
  8 12  1  0
  9 13  2  0
 10 14  2  0
 10 15  1  0
 11 16  2  0
 11 17  1  0
 12 18  2  0
 13 18  1  0
 14 19  1  0
 15 20  2  0
 19 20  1  0
 16 21  1  0
 17 22  2  0
 21 23  2  0
 22 23  1  0
M  END
