mac-x0333-mac-x0271
     RDKit          3D

 11 12  0  0  0  0  0  0  0  0999 V2000
   -2.5660   15.1950   -2.7100 O   0  0  0  0  0  0  0  0  0  0  0  0
   -3.5220   15.1040   -1.7380 C   0  0  0  0  0  0  0  0  0  0  0  0
   -3.0950   15.0330   -0.4040 C   0  0  0  0  0  0  0  0  0  0  0  0
   -4.8750   15.0810   -2.0620 C   0  0  0  0  0  0  0  0  0  0  0  0
   -5.7720   14.9810   -1.0170 C   0  0  0  0  0  0  0  0  0  0  0  0
   -4.0330   14.9370    0.6310 C   0  0  0  0  0  0  0  0  0  0  0  0
   -5.3720   14.9120    0.2800 C   0  0  0  0  0  0  0  0  0  0  0  0
   -7.1250   14.9360   -1.1220 O   0  0  0  0  0  0  0  0  0  0  0  0
   -6.4410   14.8170    1.1230 O   0  0  0  0  0  0  0  0  0  0  0  0
   -7.5040   14.8400    0.2170 C   0  0  0  0  0  0  0  0  0  0  0  0
   -8.6920   14.7970    0.5680 O   0  0  0  0  0  0  0  0  0  0  0  0
  1  2  1  0
  2  3  2  0
  2  4  1  0
  4  5  2  0
  3  6  1  0
  5  7  1  0
  6  7  2  0
  5  8  1  0
  7  9  1  0
  8 10  1  0
  9 10  1  0
 10 11  2  0
M  END
