mac-x0404-mac-x0387
     RDKit          3D

 25 28  0  0  0  0  0  0  0  0999 V2000
    1.3760   12.5610   -1.9090 O   0  0  0  0  0  0  0  0  0  0  0  0
    1.0080   11.9530   -3.0480 C   0  0  0  0  0  0  0  0  0  0  0  0
    0.4020   10.8970   -2.9980 O   0  0  0  0  0  0  0  0  0  0  0  0
    1.4260   12.6950   -4.2980 C   0  0  0  0  0  0  0  0  0  0  0  0
    1.0810   14.0600   -4.2060 O   0  0  0  0  0  0  0  0  0  0  0  0
   -0.0800   14.3920   -4.9550 C   0  0  2  0  0  0  0  0  0  0  0  0
   -0.1550   15.9120   -5.1900 C   0  0  0  0  0  0  0  0  0  0  0  0
   -1.3440   13.7900   -4.2540 C   0  0  0  0  0  0  0  0  0  0  0  0
   -1.3550   16.6230   -5.1060 C   0  0  0  0  0  0  0  0  0  0  0  0
   -2.1460   14.9280   -3.5760 C   0  0  2  0  0  0  0  0  0  0  0  0
    0.9860   16.6390   -5.5090 C   0  0  0  0  0  0  0  0  0  0  0  0
   -2.5360   15.8690   -4.7330 C   0  0  0  0  0  0  0  0  0  0  0  0
   -1.4320   17.9780   -5.3550 C   0  0  0  0  0  0  0  0  0  0  0  0
    0.9220   18.0070   -5.7550 C   0  0  0  0  0  0  0  0  0  0  0  0
   -1.0560   15.4930   -2.5920 C   0  0  0  0  0  0  0  0  0  0  0  0
   -3.4760   14.7780   -2.8150 C   0  0  0  0  0  0  0  0  0  0  0  0
   -0.2930   18.6720   -5.6850 C   0  0  0  0  0  0  0  0  0  0  0  0
   -1.2210   15.1900   -1.1050 C   0  0  0  0  0  0  0  0  0  0  0  0
   -3.6210   14.7970   -1.4700 C   0  0  0  0  0  0  0  0  0  0  0  0
   -2.4700   14.8910   -0.5720 C   0  0  0  0  0  0  0  0  0  0  0  0
   -0.1260   15.2040   -0.2370 C   0  0  0  0  0  0  0  0  0  0  0  0
   -2.5820   14.6700    0.8060 C   0  0  0  0  0  0  0  0  0  0  0  0
   -0.3360   14.9450    1.1050 C   0  0  0  0  0  0  0  0  0  0  0  0
   -3.8330   14.4100    1.3480 N   0  0  0  0  0  0  0  0  0  0  0  0
   -1.5400   14.6910    1.6610 N   0  0  0  0  0  0  0  0  0  0  0  0
  1  2  1  0
  2  3  2  0
  2  4  1  0
  4  5  1  0
  6  5  1  1
  6  7  1  0
  6  8  1  0
  7  9  2  0
 10  8  1  6
  7 11  1  0
  9 12  1  0
 10 12  1  0
  9 13  1  0
 11 14  2  0
 10 15  1  0
 10 16  1  0
 13 17  2  0
 14 17  1  0
 15 18  1  0
 16 19  2  0
 18 20  2  0
 19 20  1  0
 18 21  1  0
 20 22  1  0
 21 23  2  0
 22 24  1  0
 22 25  2  0
 23 25  1  0
M  END
