mac-x0302-mac-x0510
     RDKit          3D

 18 19  0  0  0  0  0  0  0  0999 V2000
    1.6600   14.3500   -3.8050 O   0  0  0  0  0  0  0  0  0  0  0  0
    0.6250   14.0590   -2.9890 C   0  0  0  0  0  0  0  0  0  0  0  0
    0.8130   13.4050   -1.9780 O   0  0  0  0  0  0  0  0  0  0  0  0
   -0.6960   14.6220   -3.4790 C   0  0  0  0  0  0  0  0  0  0  0  0
   -1.7250   14.4350   -2.4730 N   0  0  0  0  0  0  0  0  0  0  0  0
   -2.9460   15.0410   -2.6170 C   0  0  0  0  0  0  0  0  0  0  0  0
   -3.3730   15.3530   -3.7250 O   0  0  0  0  0  0  0  0  0  0  0  0
   -3.7370   15.3090   -1.3280 C   0  0  1  0  0  0  0  0  0  0  0  0
   -5.0570   14.5170   -1.3350 C   0  0  0  0  0  0  0  0  0  0  0  0
   -3.0070   15.1630    0.0450 C   0  0  2  0  0  0  0  0  0  0  0  0
   -5.9830   15.1420   -0.3100 C   0  0  1  0  0  0  0  0  0  0  0  0
   -3.9850   15.2960    1.1990 C   0  0  0  0  0  0  0  0  0  0  0  0
   -1.7980   16.0200    0.1300 N   0  0  0  0  0  0  0  0  0  0  0  0
   -2.3840   13.7980    0.3260 C   0  0  0  0  0  0  0  0  0  0  0  0
   -7.1930   14.4060   -0.1760 O   0  0  0  0  0  0  0  0  0  0  0  0
   -5.3170   15.2650    1.0310 C   0  0  0  0  0  0  0  0  0  0  0  0
   -1.3280   14.1650    1.2780 N   0  0  0  0  0  0  0  0  0  0  0  0
   -0.6740   15.1870    0.5090 C   0  0  0  0  0  0  0  0  0  0  0  0
  1  2  1  0
  2  3  2  0
  2  4  1  0
  4  5  1  0
  5  6  1  0
  6  7  2  0
  8  6  1  6
  8  9  1  0
  8 10  1  0
  9 11  1  0
 10 12  1  1
 10 13  1  0
 10 14  1  0
 11 15  1  1
 11 16  1  0
 12 16  2  0
 14 17  1  0
 13 18  1  0
 17 18  1  0
M  END
