mac-x0415-mac-x0138
     RDKit          3D

 26 29  0  0  0  0  0  0  0  0999 V2000
    0.2380   11.2160   -3.0200 O   0  0  0  0  0  0  0  0  0  0  0  0
    0.9110   12.3860   -3.0160 C   0  0  0  0  0  0  0  0  0  0  0  0
    1.3110   12.8550   -1.9700 O   0  0  0  0  0  0  0  0  0  0  0  0
    1.0880   12.9880   -4.3850 C   0  0  0  0  0  0  0  0  0  0  0  0
    0.7850   14.4490   -4.3820 C   0  0  0  0  0  0  0  0  0  0  0  0
    1.8110   15.4490   -4.3910 C   0  0  0  0  0  0  0  0  0  0  0  0
   -0.2800   15.2530   -4.3960 C   0  0  0  0  0  0  0  0  0  0  0  0
    1.4590   16.6930   -4.4490 N   0  0  0  0  0  0  0  0  0  0  0  0
    0.0500   16.6870   -4.4340 C   0  0  1  0  0  0  0  0  0  0  0  0
   -1.6440   14.9380   -4.4240 C   0  0  0  0  0  0  0  0  0  0  0  0
   -2.0600   13.8340   -3.5440 C   0  0  0  0  0  0  0  0  0  0  0  0
   -0.6660   17.3620   -5.5530 C   0  0  0  0  0  0  0  0  0  0  0  0
   -2.4150   15.6670   -5.2510 C   0  0  0  0  0  0  0  0  0  0  0  0
   -4.1970   15.2390   -5.5890 Br  0  0  0  0  0  0  0  0  0  0  0  0
   -1.8640   16.8490   -5.9330 C   0  0  0  0  0  0  0  0  0  0  0  0
   -2.6870   14.3380   -2.3060 N   0  0  0  0  0  0  0  0  0  0  0  0
   -3.9540   14.8580   -2.3520 C   0  0  0  0  0  0  0  0  0  0  0  0
   -2.2670   14.4200   -0.9810 C   0  0  0  0  0  0  0  0  0  0  0  0
   -4.3850   15.2490   -1.1820 N   0  0  0  0  0  0  0  0  0  0  0  0
   -3.3560   14.9810   -0.3190 C   0  0  0  0  0  0  0  0  0  0  0  0
   -1.1060   14.0600   -0.3920 N   0  0  0  0  0  0  0  0  0  0  0  0
   -3.2270   15.1650    1.0650 C   0  0  0  0  0  0  0  0  0  0  0  0
   -1.0990   14.2870    0.9370 C   0  0  0  0  0  0  0  0  0  0  0  0
   -4.2350   15.6950    1.8570 N   0  0  0  0  0  0  0  0  0  0  0  0
    0.0090   13.9530    1.6760 N   0  0  0  0  0  0  0  0  0  0  0  0
   -2.0820   14.8080    1.6670 N   0  0  0  0  0  0  0  0  0  0  0  0
  1  2  1  0
  2  3  2  0
  2  4  1  0
  4  5  1  0
  5  6  1  0
  5  7  2  0
  6  8  2  0
  7  9  1  0
  8  9  1  0
  7 10  1  0
 10 11  1  0
  9 12  1  6
 10 13  2  0
 13 14  1  0
 12 15  2  0
 13 15  1  0
 11 16  1  0
 16 17  1  0
 16 18  1  0
 17 19  2  0
 18 20  2  0
 19 20  1  0
 18 21  1  0
 20 22  1  0
 21 23  2  0
 22 24  1  0
 23 25  1  0
 22 26  2  0
 23 26  1  0
M  END
