mac-x0412-diamond-x0950_0_A
     RDKit          3D

 20 21  0  0  0  0  0  0  0  0999 V2000
   -7.8080   14.4360   -0.6580 O   0  0  0  0  0  0  0  0  0  0  0  0
   -6.8900   14.8410    0.0470 C   0  0  0  0  0  0  0  0  0  0  0  0
   -7.0020   14.8230    1.4310 N   0  0  0  0  0  0  0  0  0  0  0  0
   -5.5680   15.4210   -0.5440 C   0  0  1  0  0  0  0  0  0  0  0  0
   -4.3930   14.9580    0.2980 C   0  0  0  0  0  0  0  0  0  0  0  0
   -5.9190   14.7480    2.1190 C   0  0  0  0  0  0  0  0  0  0  0  0
   -5.3670   15.1590   -2.0090 C   0  0  0  0  0  0  0  0  0  0  0  0
   -4.5490   14.6400    1.5840 C   0  0  0  0  0  0  0  0  0  0  0  0
   -3.0970   14.8470   -0.3360 C   0  0  0  0  0  0  0  0  0  0  0  0
   -4.1610   14.8710   -2.5230 C   0  0  0  0  0  0  0  0  0  0  0  0
   -2.9790   14.7900   -1.6730 C   0  0  0  0  0  0  0  0  0  0  0  0
   -1.6360   14.6200   -2.3490 C   0  0  0  0  0  0  0  0  0  0  0  0
   -0.9630   13.3100   -1.9430 C   0  0  0  0  0  0  0  0  0  0  0  0
    0.4250   13.5700   -1.3550 C   0  0  0  0  0  0  0  0  0  0  0  0
    1.3890   12.6830   -1.9350 O   0  0  0  0  0  0  0  0  0  0  0  0
    0.9910   11.9820   -3.0380 C   0  0  0  0  0  0  0  0  0  0  0  0
    1.5120   12.6620   -4.3100 C   0  0  1  0  0  0  0  0  0  0  0  0
    0.3240   10.9560   -3.0090 O   0  0  0  0  0  0  0  0  0  0  0  0
    3.0130   12.4390   -4.3970 C   0  0  0  0  0  0  0  0  0  0  0  0
    0.9000   12.1910   -5.5080 O   0  0  0  0  0  0  0  0  0  0  0  0
  1  2  2  0
  2  3  1  0
  2  4  1  0
  4  5  1  0
  3  6  2  0
  4  7  1  6
  5  8  2  0
  6  8  1  0
  5  9  1  0
  7 10  2  0
  9 11  2  0
 10 11  1  0
 11 12  1  0
 12 13  1  0
 13 14  1  0
 14 15  1  0
 15 16  1  0
 16 17  1  0
 16 18  2  0
 17 19  1  6
 17 20  1  0
M  END
