mac-x0139-mac-x0371
     RDKit          3D

 24 27  0  0  0  0  0  0  0  0999 V2000
   -1.9740   14.9240   -3.4760 C   0  0  0  0  0  0  0  0  0  0  0  0
   -1.9690   14.1260   -2.3070 N   0  0  0  0  0  0  0  0  0  0  0  0
   -2.3780   12.7980   -2.5730 C   0  0  0  0  0  0  0  0  0  0  0  0
   -0.5370   14.9470   -3.7900 C   0  0  0  0  0  0  0  0  0  0  0  0
   -1.7660   14.5520   -0.9970 C   0  0  0  0  0  0  0  0  0  0  0  0
    0.3850   13.8760   -3.4710 C   0  0  0  0  0  0  0  0  0  0  0  0
   -0.1400   16.1200   -4.4140 C   0  0  0  0  0  0  0  0  0  0  0  0
   -1.2510   11.8910   -2.9130 C   0  0  0  0  0  0  0  0  0  0  0  0
    0.1020   12.5350   -2.7640 C   0  0  2  0  0  0  0  0  0  0  0  0
   -2.8420   14.8440   -0.2920 C   0  0  0  0  0  0  0  0  0  0  0  0
   -0.4730   14.6370   -0.4340 N   0  0  0  0  0  0  0  0  0  0  0  0
    1.1580   16.2910   -4.7330 C   0  0  0  0  0  0  0  0  0  0  0  0
    1.6910   14.1040   -3.8360 C   0  0  0  0  0  0  0  0  0  0  0  0
    0.3250   12.7370   -1.3450 O   0  0  0  0  0  0  0  0  0  0  0  0
    0.8940   11.4140   -3.3470 N   0  0  0  0  0  0  0  0  0  0  0  0
    2.9790   12.9670   -3.5820 Cl  0  0  0  0  0  0  0  0  0  0  0  0
   -2.6830   15.2070    1.1140 C   0  0  0  0  0  0  0  0  0  0  0  0
   -0.3860   14.9380    0.8190 C   0  0  0  0  0  0  0  0  0  0  0  0
   -4.2400   14.9050   -0.5060 C   0  0  0  0  0  0  0  0  0  0  0  0
    2.0380   15.2760   -4.4290 C   0  0  0  0  0  0  0  0  0  0  0  0
    0.3890   10.3300   -2.9980 O   0  0  0  0  0  0  0  0  0  0  0  0
   -1.4470   15.1710    1.6300 N   0  0  0  0  0  0  0  0  0  0  0  0
   -3.8220   15.4960    1.6630 N   0  0  0  0  0  0  0  0  0  0  0  0
   -4.7430   15.2920    0.6600 C   0  0  0  0  0  0  0  0  0  0  0  0
  1  2  1  0
  2  3  1  0
  1  4  1  0
  2  5  1  0
  4  6  2  0
  4  7  1  0
  3  8  1  0
  6  9  1  0
  8  9  1  0
  5 10  2  0
  5 11  1  0
  7 12  2  0
  6 13  1  0
  9 14  1  1
  9 15  1  0
 13 16  1  0
 10 17  1  0
 11 18  2  0
 10 19  1  0
 12 20  1  0
 13 20  2  0
 15 21  2  0
 17 22  1  0
 18 22  1  0
 17 23  2  0
 19 24  2  0
 23 24  1  0
M  END
