mac-x0496-mac-x0411
     RDKit          3D

 33 35  0  0  0  0  0  0  0  0999 V2000
  -10.0220   17.8560    4.7530 C   0  0  0  0  0  0  0  0  0  0  0  0
   -9.9970   16.8100    3.7120 C   0  0  0  0  0  0  0  0  0  0  0  0
  -10.9660   16.6590    2.7990 N   0  0  0  0  0  0  0  0  0  0  0  0
   -8.9780   15.9080    3.6100 N   0  0  0  0  0  0  0  0  0  0  0  0
  -10.5300   15.5760    2.0310 O   0  0  0  0  0  0  0  0  0  0  0  0
   -9.3420   15.1800    2.5800 C   0  0  0  0  0  0  0  0  0  0  0  0
   -8.6440   14.0220    1.9720 C   0  0  0  0  0  0  0  0  0  0  0  0
   -7.2390   14.3430    1.7980 N   0  0  0  0  0  0  0  0  0  0  0  0
   -6.7990   14.6860    0.5470 C   0  0  0  0  0  0  0  0  0  0  0  0
   -7.5640   14.8990   -0.3850 O   0  0  0  0  0  0  0  0  0  0  0  0
   -5.3380   14.7860    0.3220 C   0  0  0  0  0  0  0  0  0  0  0  0
   -4.4500   14.8940    1.3990 C   0  0  0  0  0  0  0  0  0  0  0  0
   -4.8540   14.7650   -0.9700 C   0  0  0  0  0  0  0  0  0  0  0  0
   -3.0740   14.9700    1.1670 C   0  0  0  0  0  0  0  0  0  0  0  0
   -3.4950   14.8400   -1.2010 C   0  0  0  0  0  0  0  0  0  0  0  0
   -3.0850   14.7900   -2.6070 C   0  0  0  0  0  0  0  0  0  0  0  0
   -2.5890   14.9410   -0.1410 C   0  0  0  0  0  0  0  0  0  0  0  0
   -2.4880   13.7760   -3.0710 N   0  0  0  0  0  0  0  0  0  0  0  0
   -3.4360   15.8420   -3.3610 O   0  0  0  0  0  0  0  0  0  0  0  0
   -2.2150   13.7680   -4.5100 C   0  0  0  0  0  0  0  0  0  0  0  0
   -1.0750   12.7920   -4.7490 C   0  0  0  0  0  0  0  0  0  0  0  0
   -1.3610   11.4570   -5.4310 C   0  0  0  0  0  0  0  0  0  0  0  0
   -0.3470   10.8280   -6.1850 C   0  0  0  0  0  0  0  0  0  0  0  0
   -2.6150   10.8190   -5.3310 C   0  0  0  0  0  0  0  0  0  0  0  0
    0.8910   11.4350   -6.2940 O   0  0  0  0  0  0  0  0  0  0  0  0
   -2.8530    9.5910   -5.9630 C   0  0  0  0  0  0  0  0  0  0  0  0
   -0.5970    9.5950   -6.8200 C   0  0  0  0  0  0  0  0  0  0  0  0
    0.5980    8.7750   -7.7670 Cl  0  0  0  0  0  0  0  0  0  0  0  0
    1.2550   12.4240   -5.3060 C   0  0  0  0  0  0  0  0  0  0  0  0
   -1.8420    8.9820   -6.7060 C   0  0  0  0  0  0  0  0  0  0  0  0
    1.0030   11.9560   -3.8720 C   0  0  0  0  0  0  0  0  0  0  0  0
    1.4790   12.8250   -2.9520 O   0  0  0  0  0  0  0  0  0  0  0  0
    0.4610   10.9300   -3.4920 O   0  0  0  0  0  0  0  0  0  0  0  0
  1  2  1  0
  2  3  2  0
  2  4  1  0
  3  5  1  0
  4  6  2  0
  5  6  1  0
  6  7  1  0
  7  8  1  0
  8  9  1  0
  9 10  2  0
  9 11  1  0
 11 12  2  0
 11 13  1  0
 12 14  1  0
 13 15  2  0
 15 16  1  0
 14 17  2  0
 15 17  1  0
 16 18  2  3
 16 19  1  0
 18 20  1  0
 20 21  1  0
 21 22  1  0
 22 23  2  0
 22 24  1  0
 23 25  1  0
 24 26  2  0
 23 27  1  0
 27 28  1  0
 25 29  1  0
 26 30  1  0
 27 30  2  0
 29 31  1  0
 31 32  1  0
 31 33  2  0
M  END
