mac-x0282-mac-x0417
     RDKit          3D

 23 26  0  0  0  0  0  0  0  0999 V2000
    0.6420   12.3860   -1.7690 O   0  0  0  0  0  0  0  0  0  0  0  0
    0.7430   11.8260   -3.0490 C   0  0  0  0  0  0  0  0  0  0  0  0
    1.1430   10.6940   -3.1900 O   0  0  0  0  0  0  0  0  0  0  0  0
    0.8720   13.7860   -1.5020 C   0  0  0  0  0  0  0  0  0  0  0  0
    0.2990   12.7070   -4.2150 C   0  0  0  0  0  0  0  0  0  0  0  0
   -0.3200   14.1920   -0.6790 C   0  0  0  0  0  0  0  0  0  0  0  0
   -1.4710   14.5560   -1.3590 C   0  0  0  0  0  0  0  0  0  0  0  0
   -0.3560   14.2120    0.7320 C   0  0  0  0  0  0  0  0  0  0  0  0
    0.1390   11.9310   -5.5080 C   0  0  0  0  0  0  0  0  0  0  0  0
   -2.5880   14.9040   -0.6120 C   0  0  0  0  0  0  0  0  0  0  0  0
   -1.4110   14.5470    1.5190 N   0  0  0  0  0  0  0  0  0  0  0  0
    1.0650   12.0410   -6.4770 N   0  0  0  0  0  0  0  0  0  0  0  0
   -0.8940   11.0300   -5.9140 C   0  0  0  0  0  0  0  0  0  0  0  0
   -3.9000   15.3100   -0.9330 C   0  0  0  0  0  0  0  0  0  0  0  0
   -2.4860   14.8750    0.7760 C   0  0  0  0  0  0  0  0  0  0  0  0
    0.6440   11.2270   -7.5230 O   0  0  0  0  0  0  0  0  0  0  0  0
   -0.5220   10.6220   -7.1930 C   0  0  0  0  0  0  0  0  0  0  0  0
   -2.0830   10.5040   -5.3770 C   0  0  0  0  0  0  0  0  0  0  0  0
   -4.5600   15.5070    0.2460 C   0  0  0  0  0  0  0  0  0  0  0  0
   -3.6970   15.2420    1.2780 N   0  0  0  0  0  0  0  0  0  0  0  0
   -1.2400    9.7260   -7.9830 C   0  0  0  0  0  0  0  0  0  0  0  0
   -2.8280    9.5970   -6.1430 C   0  0  0  0  0  0  0  0  0  0  0  0
   -2.4160    9.2120   -7.4240 C   0  0  0  0  0  0  0  0  0  0  0  0
  1  2  1  0
  2  3  2  0
  1  4  1  0
  2  5  1  0
  4  6  1  0
  6  7  2  0
  6  8  1  0
  5  9  1  0
  7 10  1  0
  8 11  2  0
  9 12  2  0
  9 13  1  0
 10 14  1  0
 10 15  2  0
 11 15  1  0
 12 16  1  0
 13 17  2  0
 16 17  1  0
 13 18  1  0
 14 19  2  0
 15 20  1  0
 19 20  1  0
 17 21  1  0
 18 22  2  0
 21 23  2  0
 22 23  1  0
M  END
