mac-x0306-mac-x0451
     RDKit          3D

 16 18  0  0  0  0  0  0  0  0999 V2000
   -2.0000   14.3380   -2.8700 F   0  0  0  0  0  0  0  0  0  0  0  0
   -2.9060   14.8470   -1.8920 N   0  0  0  0  0  0  0  0  0  0  0  0
   -4.0670   15.3720   -2.4390 C   0  0  0  0  0  0  0  0  0  0  0  0
   -2.8910   14.1450   -0.6930 C   0  0  0  0  0  0  0  0  0  0  0  0
   -5.2160   15.4280   -1.7380 C   0  0  0  0  0  0  0  0  0  0  0  0
   -3.9870   14.1520    0.0760 C   0  0  0  0  0  0  0  0  0  0  0  0
   -5.2300   14.8810   -0.3160 C   0  0  2  0  0  0  0  0  0  0  0  0
   -4.3140   13.4860    1.6110 S   0  0  0  0  0  0  0  0  0  0  0  0
   -6.6090   14.4720    0.2180 C   0  0  0  0  0  0  0  0  0  0  0  0
   -4.7560   15.1860    1.7950 C   0  0  0  0  0  0  0  0  0  0  0  0
   -5.1210   15.8430    0.7350 N   0  0  0  0  0  0  0  0  0  0  0  0
   -4.6960   15.7320    3.0110 N   0  0  0  0  0  0  0  0  0  0  0  0
   -6.8120   14.3970    1.5840 N   0  0  0  0  0  0  0  0  0  0  0  0
   -7.7320   14.1810   -0.4100 N   0  0  0  0  0  0  0  0  0  0  0  0
   -8.6550   13.9240    0.5710 C   0  0  0  0  0  0  0  0  0  0  0  0
   -8.1010   14.0530    1.8160 C   0  0  0  0  0  0  0  0  0  0  0  0
  1  2  1  0
  2  3  1  0
  2  4  1  0
  3  5  2  0
  4  6  2  0
  5  7  1  0
  6  7  1  0
  6  8  1  0
  7  9  1  1
  8 10  1  0
  7 11  1  0
 10 11  2  0
 10 12  1  0
  9 13  1  0
  9 14  2  0
 14 15  1  0
 13 16  1  0
 15 16  2  0
M  END
