mac-x0213-mac-x0139
     RDKit          3D

 25 28  0  0  0  0  0  0  0  0999 V2000
   -0.1760   11.6190   -2.9050 O   0  0  0  0  0  0  0  0  0  0  0  0
    0.5790   12.7870   -3.1820 C   0  0  0  0  0  0  0  0  0  0  0  0
    1.9260   12.3840   -3.1780 O   0  0  0  0  0  0  0  0  0  0  0  0
    0.4270   13.8300   -2.1110 C   0  0  0  0  0  0  0  0  0  0  0  0
    0.2290   13.4150   -4.5410 C   0  0  0  0  0  0  0  0  0  0  0  0
    0.1110   15.1880   -2.7350 C   0  0  0  0  0  0  0  0  0  0  0  0
   -1.2460   13.8640   -4.7540 C   0  0  0  0  0  0  0  0  0  0  0  0
    1.1360   14.6100   -4.8980 C   0  0  0  0  0  0  0  0  0  0  0  0
   -1.0960   15.6900   -2.1350 N   0  0  0  0  0  0  0  0  0  0  0  0
   -1.1380   15.3530   -5.0370 C   0  0  0  0  0  0  0  0  0  0  0  0
    0.1970   15.7610   -5.1060 C   0  0  0  0  0  0  0  0  0  0  0  0
   -2.2730   15.5620   -3.0170 C   0  0  0  0  0  0  0  0  0  0  0  0
   -2.1700   16.2770   -5.2230 C   0  0  0  0  0  0  0  0  0  0  0  0
    0.5170   17.0860   -5.3490 C   0  0  0  0  0  0  0  0  0  0  0  0
   -1.3540   15.4060   -0.8210 C   0  0  0  0  0  0  0  0  0  0  0  0
   -1.8370   17.6120   -5.4740 C   0  0  0  0  0  0  0  0  0  0  0  0
   -0.5010   18.0080   -5.5330 C   0  0  0  0  0  0  0  0  0  0  0  0
   -2.5810   15.3670   -0.3130 C   0  0  0  0  0  0  0  0  0  0  0  0
   -0.2220   15.1400   -0.0450 N   0  0  0  0  0  0  0  0  0  0  0  0
   -2.6990   15.0350    1.1130 C   0  0  0  0  0  0  0  0  0  0  0  0
   -0.3860   14.8340    1.1870 C   0  0  0  0  0  0  0  0  0  0  0  0
   -3.9330   15.5520   -0.7240 C   0  0  0  0  0  0  0  0  0  0  0  0
   -1.5790   14.7630    1.8060 N   0  0  0  0  0  0  0  0  0  0  0  0
   -3.9310   15.0550    1.5030 N   0  0  0  0  0  0  0  0  0  0  0  0
   -4.6560   15.3610    0.3710 C   0  0  0  0  0  0  0  0  0  0  0  0
  2  1  1  0
  2  3  1  0
  2  4  1  0
  2  5  1  0
  4  6  1  0
  5  7  1  0
  5  8  1  0
  6  9  1  0
  7 10  1  0
  8 11  1  0
 10 11  2  0
  9 12  1  0
 10 13  1  0
 11 14  1  0
  9 15  1  0
 13 16  2  0
 14 17  2  0
 16 17  1  0
 15 18  2  0
 15 19  1  0
 18 20  1  0
 19 21  2  0
 18 22  1  0
 20 23  1  0
 21 23  1  0
 20 24  2  0
 22 25  2  0
 24 25  1  0
M  END
