mac-x0321-mac-x0379
     RDKit          3D

 10 10  0  0  0  0  0  0  0  0999 V2000
   -4.3150   15.4880    1.6260 Cl  0  0  0  0  0  0  0  0  0  0  0  0
   -4.3270   15.3040   -0.0740 C   0  0  0  0  0  0  0  0  0  0  0  0
   -3.1390   15.0120   -0.7180 C   0  0  0  0  0  0  0  0  0  0  0  0
   -5.5130   15.4500   -0.7810 C   0  0  0  0  0  0  0  0  0  0  0  0
   -3.1290   14.8680   -2.1020 C   0  0  0  0  0  0  0  0  0  0  0  0
   -5.5120   15.3070   -2.1630 C   0  0  0  0  0  0  0  0  0  0  0  0
   -1.8850   14.5620   -2.8460 C   0  0  0  0  0  0  0  0  0  0  0  0
   -4.3180   15.0160   -2.8240 C   0  0  0  0  0  0  0  0  0  0  0  0
   -0.7960   14.5300   -2.0590 O   0  0  0  0  0  0  0  0  0  0  0  0
   -1.8050   14.3500   -4.0400 O   0  0  0  0  0  0  0  0  0  0  0  0
  1  2  1  0
  2  3  2  0
  2  4  1  0
  3  5  1  0
  4  6  2  0
  5  7  1  0
  5  8  2  0
  6  8  1  0
  7  9  1  0
  7 10  2  0
M  END
