mac-x0379-diamond-x0855_0_A
     RDKit          3D

 20 21  0  0  0  0  0  0  0  0999 V2000
   -5.1830   14.9760    0.2960 C   0  0  0  0  0  0  0  0  0  0  0  0
   -4.2920   14.9980   -0.8950 C   0  0  0  0  0  0  0  0  0  0  0  0
   -4.7090   15.1910   -2.1230 N   0  0  0  0  0  0  0  0  0  0  0  0
   -2.6000   14.7610   -0.7220 S   0  0  0  0  0  0  0  0  0  0  0  0
   -3.6360   15.1630   -2.9930 C   0  0  0  0  0  0  0  0  0  0  0  0
   -2.4000   14.9460   -2.4190 C   0  0  0  0  0  0  0  0  0  0  0  0
   -1.1340   14.8940   -3.1330 C   0  0  0  0  0  0  0  0  0  0  0  0
   -1.0370   14.9080   -4.3540 O   0  0  0  0  0  0  0  0  0  0  0  0
   -0.0660   14.8430   -2.2860 O   0  0  0  0  0  0  0  0  0  0  0  0
    1.1570   14.4500   -2.9180 C   0  0  0  0  0  0  0  0  0  0  0  0
    1.5080   13.1020   -2.5490 O   0  0  0  0  0  0  0  0  0  0  0  0
    0.9190   12.1030   -3.2630 C   0  0  0  0  0  0  0  0  0  0  0  0
    0.6380   11.0060   -2.7870 O   0  0  0  0  0  0  0  0  0  0  0  0
    0.6350   12.4520   -4.7020 C   0  0  0  0  0  0  0  0  0  0  0  0
   -0.4200   11.6020   -5.2080 N   0  0  0  0  0  0  0  0  0  0  0  0
   -0.3280   10.6740   -6.2040 C   0  0  0  0  0  0  0  0  0  0  0  0
   -1.6570   11.6890   -4.6670 N   0  0  0  0  0  0  0  0  0  0  0  0
   -1.5790   10.1260   -6.3000 C   0  0  0  0  0  0  0  0  0  0  0  0
   -2.3620   10.7790   -5.3420 C   0  0  0  0  0  0  0  0  0  0  0  0
   -2.1640    8.7870   -7.4480 Br  0  0  0  0  0  0  0  0  0  0  0  0
  1  2  1  0
  2  3  2  0
  2  4  1  0
  3  5  1  0
  4  6  1  0
  5  6  2  0
  6  7  1  0
  7  8  2  0
  7  9  1  0
  9 10  1  0
 10 11  1  0
 11 12  1  0
 12 13  2  0
 12 14  1  0
 14 15  1  0
 15 16  1  0
 15 17  1  0
 16 18  2  0
 17 19  2  0
 18 19  1  0
 18 20  1  0
M  END
