mac-x0402-mac-x0303
     RDKit          3D

 14 15  0  0  0  0  0  0  0  0999 V2000
   -1.6560   14.8150   -3.3250 Cl  0  0  0  0  0  0  0  0  0  0  0  0
   -2.9990   14.8880   -2.2500 C   0  0  0  0  0  0  0  0  0  0  0  0
   -4.2620   15.0820   -2.7860 C   0  0  0  0  0  0  0  0  0  0  0  0
   -2.8000   14.7500   -0.8710 C   0  0  0  0  0  0  0  0  0  0  0  0
   -3.9310   14.8090   -0.0480 C   0  0  0  0  0  0  0  0  0  0  0  0
   -5.3760   15.1380   -1.9550 C   0  0  0  0  0  0  0  0  0  0  0  0
   -5.2110   14.9950   -0.5740 C   0  0  0  0  0  0  0  0  0  0  0  0
   -4.0590   14.6770    1.6660 S   0  0  0  0  0  0  0  0  0  0  0  0
   -5.7530   14.8660    1.5240 C   0  0  0  0  0  0  0  0  0  0  0  0
   -6.2300   15.0210    0.3310 N   0  0  0  0  0  0  0  0  0  0  0  0
   -6.7220   14.8720    2.5990 N   0  0  0  0  0  0  0  0  0  0  0  0
   -8.0600   14.3080    2.1140 S   0  0  0  0  0  0  0  0  0  0  0  0
   -8.1970   13.0440    3.2110 N   0  0  0  0  0  0  0  0  0  0  0  0
   -9.3750   14.9140    2.1190 O   0  0  0  0  0  0  0  0  0  0  0  0
  1  2  1  0
  2  3  2  0
  2  4  1  0
  4  5  2  0
  3  6  1  0
  5  7  1  0
  6  7  2  0
  5  8  1  0
  8  9  1  0
  7 10  1  0
  9 10  2  0
  9 11  1  0
 11 12  2  0
 12 13  1  0
 12 14  2  0
M  END
