mac-x0212-mac-x0348
     RDKit          3D

 28 30  0  0  0  0  0  0  0  0999 V2000
   -6.3340   12.8010    1.3570 C   0  0  0  0  0  0  0  0  0  0  0  0
   -6.8820   14.4550    0.9600 S   0  0  0  0  0  0  0  0  0  0  0  0
   -7.6870   14.9250    2.0680 O   0  0  0  0  0  0  0  0  0  0  0  0
   -7.4130   14.4670   -0.3840 O   0  0  0  0  0  0  0  0  0  0  0  0
   -5.4360   15.3350    1.0160 N   0  0  0  0  0  0  0  0  0  0  0  0
   -4.4640   15.0790    0.0300 C   0  0  0  0  0  0  0  0  0  0  0  0
   -3.3530   14.3740    0.4150 C   0  0  0  0  0  0  0  0  0  0  0  0
   -4.6160   15.5100   -1.3040 C   0  0  0  0  0  0  0  0  0  0  0  0
   -2.3860   14.0650   -0.5100 C   0  0  0  0  0  0  0  0  0  0  0  0
   -3.6210   15.1940   -2.2590 C   0  0  0  0  0  0  0  0  0  0  0  0
   -2.5000   14.4490   -1.8440 C   0  0  0  0  0  0  0  0  0  0  0  0
   -1.3760   13.9480   -2.6490 C   0  0  0  0  0  0  0  0  0  0  0  0
   -0.4010   14.3650   -3.4700 C   0  0  0  0  0  0  0  0  0  0  0  0
   -1.3530   12.5960   -2.4910 O   0  0  0  0  0  0  0  0  0  0  0  0
    0.4890   13.2450   -3.9750 C   0  0  0  0  0  0  0  0  0  0  0  0
   -0.0380   15.7250   -4.0240 C   0  0  2  0  0  0  0  0  0  0  0  0
    0.9370   12.3490   -2.8400 C   0  0  0  0  0  0  0  0  0  0  0  0
   -0.4480   17.0940   -3.5550 C   0  0  0  0  0  0  0  0  0  0  0  0
   -0.7180   15.6910   -5.3510 C   0  0  2  0  0  0  0  0  0  0  0  0
    1.6520   12.7230   -1.9320 O   0  0  0  0  0  0  0  0  0  0  0  0
    0.4650   11.0860   -2.9140 O   0  0  0  0  0  0  0  0  0  0  0  0
   -0.3830   17.9860   -4.7370 N   0  0  0  0  0  0  0  0  0  0  0  0
   -0.9310   17.1650   -5.7990 C   0  0  2  0  0  0  0  0  0  0  0  0
   -1.9600   14.8240   -5.3320 C   0  0  0  0  0  0  0  0  0  0  0  0
    0.9830   18.2810   -5.1450 C   0  0  0  0  0  0  0  0  0  0  0  0
   -3.1580   15.2640   -5.6870 C   0  0  0  0  0  0  0  0  0  0  0  0
   -2.3460   17.5050   -6.1690 C   0  0  0  0  0  0  0  0  0  0  0  0
   -3.3420   16.6030   -6.1140 C   0  0  0  0  0  0  0  0  0  0  0  0
  1  2  1  0
  2  3  2  0
  2  4  2  0
  2  5  1  0
  5  6  1  0
  6  7  2  0
  6  8  1  0
  7  9  1  0
  8 10  2  0
  9 11  2  0
 10 11  1  0
 11 12  1  0
 12 13  2  3
 12 14  1  0
 13 15  1  0
 16 13  1  1
 15 17  1  0
 16 18  1  0
 16 19  1  0
 17 20  2  0
 17 21  1  0
 18 22  1  0
 19 23  1  0
 22 23  1  0
 19 24  1  1
 22 25  1  0
 24 26  2  0
 23 27  1  1
 26 28  1  0
 27 28  2  0
M  END
