mac-x0392-mac-x0213
     RDKit          3D

 21 23  0  0  0  0  0  0  0  0999 V2000
    0.2930   13.7920   -0.2760 N   0  0  0  0  0  0  0  0  0  0  0  0
   -0.9720   14.2900    0.1070 C   0  0  0  0  0  0  0  0  0  0  0  0
   -1.2310   14.5810    1.4230 C   0  0  0  0  0  0  0  0  0  0  0  0
   -2.0450   14.5250   -0.7620 C   0  0  0  0  0  0  0  0  0  0  0  0
   -2.0000   14.2720   -2.1900 C   0  0  0  0  0  0  0  0  0  0  0  0
   -3.2660   15.0230   -0.3120 C   0  0  0  0  0  0  0  0  0  0  0  0
   -2.3990   15.0610    1.8970 N   0  0  0  0  0  0  0  0  0  0  0  0
   -3.0210   13.9140   -2.7470 O   0  0  0  0  0  0  0  0  0  0  0  0
   -0.9180   14.4330   -2.9170 N   0  0  0  0  0  0  0  0  0  0  0  0
   -3.3990   15.2770    1.0210 C   0  0  0  0  0  0  0  0  0  0  0  0
   -0.1040   13.5010   -3.1490 C   0  0  0  0  0  0  0  0  0  0  0  0
   -0.1960   12.2680   -2.6050 O   0  0  0  0  0  0  0  0  0  0  0  0
    0.8660   13.7750   -4.1760 C   0  0  0  0  0  0  0  0  0  0  0  0
   -0.2140   13.9470   -5.2510 C   0  0  0  0  0  0  0  0  0  0  0  0
    1.5660   15.1470   -4.0720 C   0  0  0  0  0  0  0  0  0  0  0  0
   -0.5740   15.4020   -5.1030 C   0  0  0  0  0  0  0  0  0  0  0  0
    0.4610   16.0900   -4.4790 C   0  0  0  0  0  0  0  0  0  0  0  0
   -1.7330   16.0640   -5.5140 C   0  0  0  0  0  0  0  0  0  0  0  0
    0.3840   17.4580   -4.2990 C   0  0  0  0  0  0  0  0  0  0  0  0
   -1.8160   17.4320   -5.3350 C   0  0  0  0  0  0  0  0  0  0  0  0
   -0.7660   18.1220   -4.7420 C   0  0  0  0  0  0  0  0  0  0  0  0
  1  2  1  0
  2  3  2  0
  2  4  1  0
  4  5  1  0
  4  6  2  0
  3  7  1  0
  5  8  2  0
  5  9  1  0
  6 10  1  0
  7 10  2  0
  9 11  2  3
 11 12  1  0
 11 13  1  0
 13 14  1  0
 13 15  1  0
 14 16  1  0
 15 17  1  0
 16 17  2  0
 16 18  1  0
 17 19  1  0
 18 20  2  0
 19 21  2  0
 20 21  1  0
M  END
