mac-x0228-diamond-x0662_0_A
     RDKit          3D

 32 35  0  0  0  0  0  0  0  0999 V2000
   -1.2100   14.5650   -1.7760 O   0  0  0  0  0  0  0  0  0  0  0  0
   -2.1860   14.5080   -2.7010 C   0  0  0  0  0  0  0  0  0  0  0  0
   -1.8130   14.2760   -3.9010 N   0  0  0  0  0  0  0  0  0  0  0  0
   -3.5070   14.7100   -2.0950 C   0  0  0  0  0  0  0  0  0  0  0  0
   -0.4020   14.0410   -4.2220 C   0  0  0  0  0  0  0  0  0  0  0  0
   -3.7140   14.5120   -0.7260 C   0  0  0  0  0  0  0  0  0  0  0  0
   -4.5750   15.0910   -2.9270 C   0  0  0  0  0  0  0  0  0  0  0  0
   -0.0870   12.5640   -3.9140 C   0  0  0  0  0  0  0  0  0  0  0  0
   -4.9980   14.6940   -0.2320 C   0  0  0  0  0  0  0  0  0  0  0  0
   -5.8610   15.2740   -2.4050 C   0  0  0  0  0  0  0  0  0  0  0  0
   -0.5000   11.6640   -5.0160 N   0  0  0  0  0  0  0  0  0  0  0  0
   -6.0450   15.0680   -1.0620 C   0  0  0  0  0  0  0  0  0  0  0  0
   -5.5120   14.5410    1.1410 C   0  0  0  0  0  0  0  0  0  0  0  0
    0.3920   11.5610   -5.9450 C   0  0  0  0  0  0  0  0  0  0  0  0
   -7.2450   15.1970   -0.4090 O   0  0  0  0  0  0  0  0  0  0  0  0
   -7.0050   14.4840    0.8270 C   0  0  0  0  0  0  0  0  0  0  0  0
    1.5120   12.0990   -6.0230 O   0  0  0  0  0  0  0  0  0  0  0  0
    0.1410   10.6740   -7.1750 C   0  0  0  0  0  0  0  0  0  0  0  0
   -0.8200    9.6530   -7.1290 C   0  0  0  0  0  0  0  0  0  0  0  0
    0.8450   10.8360   -8.3740 C   0  0  0  0  0  0  0  0  0  0  0  0
   -1.0550    8.8390   -8.2450 C   0  0  0  0  0  0  0  0  0  0  0  0
    0.6330   10.0470   -9.4970 C   0  0  0  0  0  0  0  0  0  0  0  0
    1.3300   10.2030  -10.7220 N   0  0  0  0  0  0  0  0  0  0  0  0
   -0.3290    9.0380   -9.4230 C   0  0  0  0  0  0  0  0  0  0  0  0
    2.2210    9.3240  -11.3260 C   0  0  0  0  0  0  0  0  0  0  0  0
    2.4550    8.1820  -10.9530 O   0  0  0  0  0  0  0  0  0  0  0  0
    2.9160    9.8950  -12.5170 C   0  0  0  0  0  0  0  0  0  0  0  0
    2.7280   11.1640  -13.1580 C   0  0  0  0  0  0  0  0  0  0  0  0
    3.8810    9.2030  -13.1520 N   0  0  0  0  0  0  0  0  0  0  0  0
    4.2860   10.0010  -14.1460 N   0  0  0  0  0  0  0  0  0  0  0  0
    3.6270   11.1950  -14.2000 C   0  0  0  0  0  0  0  0  0  0  0  0
    5.3360    9.5360  -15.0200 C   0  0  0  0  0  0  0  0  0  0  0  0
  1  2  1  0
  2  3  2  3
  2  4  1  0
  3  5  1  0
  4  6  2  0
  4  7  1  0
  5  8  1  0
  6  9  1  0
  7 10  2  0
  8 11  1  0
  9 12  2  0
 10 12  1  0
  9 13  1  0
 11 14  2  3
 12 15  1  0
 13 16  1  0
 15 16  1  0
 14 17  1  0
 14 18  1  0
 18 19  2  0
 18 20  1  0
 19 21  1  0
 20 22  2  0
 22 23  1  0
 21 24  2  0
 22 24  1  0
 23 25  1  0
 25 26  2  0
 25 27  1  0
 27 28  1  0
 27 29  2  0
 29 30  1  0
 28 31  2  0
 30 31  1  0
 30 32  1  0
M  CHG  1  17  -1
M  END
