mac-x0116-mac-x0344
     RDKit          3D

 30 33  0  0  0  0  0  0  0  0999 V2000
   -6.1720   14.7040    1.4140 C   0  0  0  0  0  0  0  0  0  0  0  0
   -4.7890   15.0860    1.5760 N   0  0  0  0  0  0  0  0  0  0  0  0
   -3.9620   15.0030    0.4630 C   0  0  0  0  0  0  0  0  0  0  0  0
   -6.5070   13.2620    1.5330 C   0  0  0  0  0  0  0  0  0  0  0  0
   -6.4540   12.5180    0.3880 O   0  0  0  0  0  0  0  0  0  0  0  0
   -6.8860   12.4760    2.5990 C   0  0  0  0  0  0  0  0  0  0  0  0
   -7.0820   11.1840    2.0850 C   0  0  0  0  0  0  0  0  0  0  0  0
   -6.8050   11.2600    0.7380 C   0  0  0  0  0  0  0  0  0  0  0  0
   -4.4860   15.1210   -0.7880 N   0  0  0  0  0  0  0  0  0  0  0  0
   -2.5700   14.8010    0.5770 C   0  0  0  0  0  0  0  0  0  0  0  0
   -3.6640   15.0410   -1.8510 C   0  0  0  0  0  0  0  0  0  0  0  0
   -1.8540   14.7470   -0.6070 C   0  0  0  0  0  0  0  0  0  0  0  0
   -1.7290   14.6410    1.6690 N   0  0  0  0  0  0  0  0  0  0  0  0
   -2.3330   14.8550   -1.8610 N   0  0  0  0  0  0  0  0  0  0  0  0
   -0.5640   14.5700   -0.2180 N   0  0  0  0  0  0  0  0  0  0  0  0
   -0.5370   14.5090    1.1500 C   0  0  0  0  0  0  0  0  0  0  0  0
    0.5780   14.4720   -1.0770 C   0  0  0  0  0  0  0  0  0  0  0  0
    0.6140   13.2290   -1.9490 C   0  0  0  0  0  0  0  0  0  0  0  0
    1.5940   13.4560   -2.9990 N   0  0  0  0  0  0  0  0  0  0  0  0
    1.5020   12.7680   -4.0590 C   0  0  0  0  0  0  0  0  0  0  0  0
    2.3160   12.9010   -5.1020 O   0  0  0  0  0  0  0  0  0  0  0  0
    0.4330   11.7000   -4.2670 C   0  0  0  0  0  0  0  0  0  0  0  0
    0.0750   11.0490   -3.2890 O   0  0  0  0  0  0  0  0  0  0  0  0
    0.0270   11.6250   -5.5740 N   0  0  0  0  0  0  0  0  0  0  0  0
   -0.8220   10.6510   -6.1130 C   0  0  0  0  0  0  0  0  0  0  0  0
   -0.4370   10.0360   -7.3100 C   0  0  0  0  0  0  0  0  0  0  0  0
   -2.0230   10.2800   -5.5010 C   0  0  0  0  0  0  0  0  0  0  0  0
   -1.2450    9.0590   -7.8930 C   0  0  0  0  0  0  0  0  0  0  0  0
   -2.8300    9.3010   -6.0860 C   0  0  0  0  0  0  0  0  0  0  0  0
   -2.4430    8.6900   -7.2810 C   0  0  0  0  0  0  0  0  0  0  0  0
  1  2  1  0
  2  3  1  0
  1  4  1  0
  4  5  1  0
  4  6  2  0
  6  7  1  0
  5  8  1  0
  7  8  2  0
  3  9  2  0
  3 10  1  0
  9 11  1  0
 10 12  2  0
 10 13  1  0
 11 14  2  0
 12 14  1  0
 12 15  1  0
 13 16  2  0
 15 16  1  0
 15 17  1  0
 17 18  1  0
 18 19  1  0
 19 20  2  3
 20 21  1  0
 20 22  1  0
 22 23  2  0
 22 24  1  0
 24 25  1  0
 25 26  2  0
 25 27  1  0
 26 28  1  0
 27 29  2  0
 28 30  2  0
 29 30  1  0
M  END
