mac-x0142-mac-x0337
     RDKit          3D

 28 32  0  0  0  0  0  0  0  0999 V2000
   -5.2630    9.0200   -2.2640 C   0  0  0  0  0  0  0  0  0  0  0  0
   -5.1970   10.4400   -1.7850 C   0  0  0  0  0  0  0  0  0  0  0  0
   -6.2200   10.9260   -0.9680 C   0  0  0  0  0  0  0  0  0  0  0  0
   -4.1380   11.2880   -2.1390 C   0  0  0  0  0  0  0  0  0  0  0  0
   -4.1170   12.6130   -1.6840 C   0  0  0  0  0  0  0  0  0  0  0  0
   -6.2060   12.2330   -0.5140 C   0  0  0  0  0  0  0  0  0  0  0  0
   -5.1740   13.0770   -0.8680 C   0  0  0  0  0  0  0  0  0  0  0  0
   -5.3090   14.7350   -0.2360 S   0  0  2  0  0  0  0  0  0  0  0  0
   -5.2610   15.6090   -1.3970 O   0  0  0  0  0  0  0  0  0  0  0  0
   -4.4680   14.8940    1.0130 N   0  0  0  0  0  0  0  0  0  0  0  0
   -6.8510   14.9390    0.3310 N   0  0  0  0  0  0  0  0  0  0  0  0
   -3.4330   14.9170    0.1500 N   0  0  0  0  0  0  0  0  0  0  0  0
   -2.1130   14.8240    0.2260 C   0  0  0  0  0  0  0  0  0  0  0  0
   -3.9230   15.0640   -1.0930 C   0  0  0  0  0  0  0  0  0  0  0  0
   -1.3190   14.6870    1.2850 N   0  0  0  0  0  0  0  0  0  0  0  0
   -1.7580   14.9050   -1.1120 C   0  0  0  0  0  0  0  0  0  0  0  0
   -2.9000   15.0580   -1.9150 C   0  0  0  0  0  0  0  0  0  0  0  0
   -0.0640   14.6450    0.8420 C   0  0  0  0  0  0  0  0  0  0  0  0
   -0.4600   14.8400   -1.4630 C   0  0  0  0  0  0  0  0  0  0  0  0
   -0.2380   14.9380   -2.8600 N   0  0  0  0  0  0  0  0  0  0  0  0
    0.4290   14.7030   -0.4480 N   0  0  0  0  0  0  0  0  0  0  0  0
   -1.4030   14.6610   -3.7540 C   0  0  0  0  0  0  0  0  0  0  0  0
    1.1190   14.8900   -3.3980 C   0  0  0  0  0  0  0  0  0  0  0  0
    1.2140   13.6160   -4.1960 C   0  0  0  0  0  0  0  0  0  0  0  0
   -1.1980   13.4100   -4.6070 C   0  0  0  0  0  0  0  0  0  0  0  0
    2.5510   12.9600   -4.4210 C   0  0  0  0  0  0  0  0  0  0  0  0
    1.5770   12.3700   -3.4390 C   0  0  0  0  0  0  0  0  0  0  0  0
    0.1660   13.4740   -5.2700 C   0  0  0  0  0  0  0  0  0  0  0  0
  1  2  1  0
  2  3  2  0
  2  4  1  0
  4  5  2  0
  3  6  1  0
  5  7  1  0
  6  7  2  0
  7  8  1  0
  8  9  2  0
  8 10  2  0
  8 11  1  1
 10 12  1  0
 12 13  1  0
 12 14  1  0
 13 15  2  0
 13 16  1  0
 14 17  2  0
 16 17  1  0
 15 18  1  0
 16 19  2  0
 19 20  1  0
 18 21  2  0
 19 21  1  0
 20 22  1  0
 20 23  1  0
 24 23  1  0
 22 25  1  0
 24 26  1  0
 24 27  1  0
 26 27  1  0
 24 28  1  0
 25 28  1  0
M  END
