mac-x0338-diamond-x0681_0_A
     RDKit          3D

 20 22  0  0  0  0  0  0  0  0999 V2000
   -4.7170   15.7050    2.1620 N   0  0  0  0  0  0  0  0  0  0  0  0
   -5.7210   15.1890    1.3600 C   0  0  0  0  0  0  0  0  0  0  0  0
   -6.7790   14.7820    1.8220 O   0  0  0  0  0  0  0  0  0  0  0  0
   -5.4620   15.2040   -0.1060 C   0  0  0  0  0  0  0  0  0  0  0  0
   -4.2310   14.8780   -0.4460 N   0  0  0  0  0  0  0  0  0  0  0  0
   -6.4170   15.5180   -1.0650 C   0  0  0  0  0  0  0  0  0  0  0  0
   -3.9590   14.8500   -1.7390 C   0  0  0  0  0  0  0  0  0  0  0  0
   -6.1340   15.4980   -2.4000 N   0  0  0  0  0  0  0  0  0  0  0  0
   -4.8560   15.1500   -2.7270 C   0  0  0  0  0  0  0  0  0  0  0  0
   -2.6100   14.4170   -1.9160 C   0  0  0  0  0  0  0  0  0  0  0  0
   -1.8150   14.8170   -2.7680 O   0  0  0  0  0  0  0  0  0  0  0  0
   -2.4000   13.3800   -0.8540 C   0  0  2  0  0  0  0  0  0  0  0  0
   -3.7380   12.6800   -0.7500 C   0  0  0  0  0  0  0  0  0  0  0  0
   -1.9290   14.0640    0.4490 C   0  0  0  0  0  0  0  0  0  0  0  0
   -4.5080   12.7070    0.3850 N   0  0  0  0  0  0  0  0  0  0  0  0
   -3.0200   14.4050    1.4780 C   0  0  0  0  0  0  0  0  0  0  0  0
   -4.3590   11.9860   -1.6870 N   0  0  0  0  0  0  0  0  0  0  0  0
   -4.1510   13.3710    1.6090 C   0  0  0  0  0  0  0  0  0  0  0  0
   -5.6600   12.0110    0.1610 C   0  0  0  0  0  0  0  0  0  0  0  0
   -5.5480   11.5690   -1.1320 C   0  0  0  0  0  0  0  0  0  0  0  0
  1  2  1  0
  2  3  2  0
  2  4  1  0
  4  5  2  0
  4  6  1  0
  5  7  1  0
  6  8  2  0
  7  9  2  0
  8  9  1  0
  7 10  1  0
 10 11  2  0
 12 10  1  6
 12 13  1  0
 12 14  1  0
 13 15  1  0
 14 16  1  0
 13 17  2  0
 15 18  1  0
 16 18  1  0
 15 19  1  0
 17 20  1  0
 19 20  2  0
M  END
