mac-x0437-mac-x0439
     RDKit          3D

 26 29  0  0  0  0  0  0  0  0999 V2000
    1.9100   12.8630   -2.4540 N   0  0  0  0  0  0  0  0  0  0  0  0
    1.2200   12.1770   -3.3850 C   0  0  0  0  0  0  0  0  0  0  0  0
    0.4960   11.2080   -3.1560 O   0  0  0  0  0  0  0  0  0  0  0  0
    1.9080   14.1460   -2.4590 C   0  0  0  0  0  0  0  0  0  0  0  0
    1.4770   12.7600   -4.7710 C   0  0  0  0  0  0  0  0  0  0  0  0
    2.6580   14.8400   -1.5840 O   0  0  0  0  0  0  0  0  0  0  0  0
    1.1420   15.0100   -3.4400 C   0  0  0  0  0  0  0  0  0  0  0  0
    0.2060   13.0630   -5.5310 C   0  0  0  0  0  0  0  0  0  0  0  0
   -0.0730   14.7430   -3.9520 C   0  0  0  0  0  0  0  0  0  0  0  0
    1.6380   16.2020   -3.9160 N   0  0  0  0  0  0  0  0  0  0  0  0
   -0.5900   11.8830   -5.7140 N   0  0  0  0  0  0  0  0  0  0  0  0
   -0.4080   15.7760   -4.9750 C   0  0  2  0  0  0  0  0  0  0  0  0
    0.7620   16.6790   -4.7360 C   0  0  0  0  0  0  0  0  0  0  0  0
   -1.7180   11.5630   -5.0190 C   0  0  0  0  0  0  0  0  0  0  0  0
   -0.3320   10.8980   -6.6130 C   0  0  0  0  0  0  0  0  0  0  0  0
   -1.6650   16.5560   -5.1330 C   0  0  0  0  0  0  0  0  0  0  0  0
    0.8280   17.9680   -5.4600 C   0  0  0  0  0  0  0  0  0  0  0  0
   -3.1420   15.7420   -4.8130 Cl  0  0  0  0  0  0  0  0  0  0  0  0
   -2.2120   10.4140   -5.4170 N   0  0  0  0  0  0  0  0  0  0  0  0
   -1.3600    9.9870   -6.4080 C   0  0  0  0  0  0  0  0  0  0  0  0
    0.6770   10.7180   -7.5620 C   0  0  0  0  0  0  0  0  0  0  0  0
   -1.6250   17.8370   -5.5440 C   0  0  0  0  0  0  0  0  0  0  0  0
   -0.3560   18.4870   -5.8310 C   0  0  0  0  0  0  0  0  0  0  0  0
   -1.3990    8.8240   -7.1830 C   0  0  0  0  0  0  0  0  0  0  0  0
    0.6220    9.5540   -8.3260 C   0  0  0  0  0  0  0  0  0  0  0  0
   -0.3990    8.6180   -8.1420 C   0  0  0  0  0  0  0  0  0  0  0  0
  1  2  1  0
  2  3  2  0
  1  4  2  3
  2  5  1  0
  4  6  1  0
  4  7  1  0
  5  8  1  0
  7  9  2  0
  7 10  1  0
  8 11  1  0
 12  9  1  1
 10 13  2  0
 12 13  1  0
 11 14  1  0
 11 15  1  0
 12 16  1  0
 13 17  1  0
 16 18  1  0
 14 19  2  0
 15 20  2  0
 19 20  1  0
 15 21  1  0
 16 22  2  0
 17 23  2  0
 22 23  1  0
 20 24  1  0
 21 25  2  0
 24 26  2  0
 25 26  1  0
M  END
