mac-x0373-diamond-x0962_3_A
     RDKit          3D

 25 27  0  0  0  0  0  0  0  0999 V2000
    0.3920   13.2260   -0.7910 O   0  0  0  0  0  0  0  0  0  0  0  0
    0.1750   14.1850   -1.7440 C   0  0  0  0  0  0  0  0  0  0  0  0
    1.1100   14.9010   -2.0770 O   0  0  0  0  0  0  0  0  0  0  0  0
   -1.2280   14.3410   -2.3790 C   0  0  1  0  0  0  0  0  0  0  0  0
   -1.6800   13.1870   -3.2460 C   0  0  0  0  0  0  0  0  0  0  0  0
   -2.3500   14.7790   -1.4530 C   0  0  0  0  0  0  0  0  0  0  0  0
   -1.4080   13.1630   -4.6040 C   0  0  0  0  0  0  0  0  0  0  0  0
   -2.3960   12.1190   -2.6770 C   0  0  0  0  0  0  0  0  0  0  0  0
   -3.5320   15.3010   -2.0210 C   0  0  0  0  0  0  0  0  0  0  0  0
   -2.2500   14.6810   -0.0630 C   0  0  0  0  0  0  0  0  0  0  0  0
   -1.8400   12.1080   -5.3860 C   0  0  0  0  0  0  0  0  0  0  0  0
   -2.8290   11.0520   -3.4620 C   0  0  0  0  0  0  0  0  0  0  0  0
   -4.5800   15.7100   -1.2030 C   0  0  0  0  0  0  0  0  0  0  0  0
   -3.3020   15.0920    0.7490 C   0  0  0  0  0  0  0  0  0  0  0  0
   -1.5290   12.1550   -6.8300 C   0  0  0  0  0  0  0  0  0  0  0  0
   -2.5500   11.0460   -4.8210 C   0  0  0  0  0  0  0  0  0  0  0  0
   -4.4610   15.6030    0.1730 C   0  0  0  0  0  0  0  0  0  0  0  0
   -0.0600   11.8580   -7.0620 C   0  0  0  0  0  0  0  0  0  0  0  0
    0.0970   11.0290   -8.3230 C   0  0  1  0  0  0  0  0  0  0  0  0
    1.3380   11.0740   -9.0080 N   0  0  0  0  0  0  0  0  0  0  0  0
   -0.3340    9.6730   -8.0200 C   0  0  0  0  0  0  0  0  0  0  0  0
    0.1750    8.5090   -8.5180 N   0  0  0  0  0  0  0  0  0  0  0  0
   -1.3400    9.2980   -7.1760 C   0  0  0  0  0  0  0  0  0  0  0  0
   -0.5440    7.4960   -7.9580 C   0  0  0  0  0  0  0  0  0  0  0  0
   -1.4670    7.9480   -7.1440 N   0  0  0  0  0  0  0  0  0  0  0  0
  1  2  1  0
  2  3  2  0
  4  2  1  1
  4  5  1  0
  4  6  1  0
  5  7  2  0
  5  8  1  0
  6  9  2  0
  6 10  1  0
  7 11  1  0
  8 12  2  0
  9 13  1  0
 10 14  2  0
 11 15  1  0
 11 16  2  0
 12 16  1  0
 13 17  2  0
 14 17  1  0
 15 18  1  0
 18 19  1  0
 19 20  1  1
 19 21  1  0
 21 22  1  0
 21 23  2  0
 22 24  1  0
 23 25  1  0
 24 25  2  0
M  END
