mac-x0188-diamond-x0900_1_A
     RDKit          3D

 23 25  0  0  0  0  0  0  0  0999 V2000
    1.5290   13.0960   -4.8600 C   0  0  0  0  0  0  0  0  0  0  0  0
    0.1960   13.7080   -4.4560 C   0  0  1  0  0  0  0  0  0  0  0  0
   -0.9800   13.3110   -5.3440 C   0  0  1  0  0  0  0  0  0  0  0  0
   -0.3510   13.3600   -3.0600 C   0  0  1  0  0  0  0  0  0  0  0  0
    0.3610   13.9860   -1.8720 C   0  0  0  0  0  0  0  0  0  0  0  0
   -1.1930   11.7970   -5.5530 C   0  0  0  0  0  0  0  0  0  0  0  0
   -2.0940   13.9430   -4.6540 N   0  0  0  0  0  0  0  0  0  0  0  0
   -1.8870   13.5700   -3.2450 C   0  0  2  0  0  0  0  0  0  0  0  0
    0.7460   15.1450   -1.8330 O   0  0  0  0  0  0  0  0  0  0  0  0
    0.5810   13.1530   -0.8180 O   0  0  0  0  0  0  0  0  0  0  0  0
   -0.7020   11.2390   -6.8950 C   0  0  0  0  0  0  0  0  0  0  0  0
   -2.7580   14.3130   -2.2450 C   0  0  0  0  0  0  0  0  0  0  0  0
   -3.9700   14.9160   -2.6400 C   0  0  0  0  0  0  0  0  0  0  0  0
   -2.3910   14.4070   -0.8910 C   0  0  0  0  0  0  0  0  0  0  0  0
   -1.4390    9.9960   -7.4140 C   0  0  1  0  0  0  0  0  0  0  0  0
   -4.7780   15.5770   -1.7190 C   0  0  0  0  0  0  0  0  0  0  0  0
   -3.2050   15.0740    0.0290 C   0  0  0  0  0  0  0  0  0  0  0  0
   -0.7930    9.4610   -8.6620 C   0  0  0  0  0  0  0  0  0  0  0  0
   -1.4630    8.7510   -6.5120 C   0  0  0  0  0  0  0  0  0  0  0  0
   -1.0110    9.7860   -9.8140 O   0  0  0  0  0  0  0  0  0  0  0  0
   -4.3970   15.6580   -0.3860 C   0  0  0  0  0  0  0  0  0  0  0  0
    0.1150    8.5180   -8.2360 N   0  0  0  0  0  0  0  0  0  0  0  0
   -0.2640    7.9390   -6.9800 C   0  0  0  0  0  0  0  0  0  0  0  0
  2  1  1  6
  2  3  1  0
  2  4  1  0
  4  5  1  1
  3  6  1  1
  3  7  1  0
  4  8  1  0
  7  8  1  0
  5  9  2  0
  5 10  1  0
  6 11  1  0
  8 12  1  1
 12 13  2  0
 12 14  1  0
 15 11  1  1
 13 16  1  0
 14 17  2  0
 15 18  1  0
 15 19  1  0
 18 20  2  0
 16 21  2  0
 17 21  1  0
 18 22  1  0
 19 23  1  0
 22 23  1  0
M  END
