mac-x0309-diamond-x0796_0_B
     RDKit          3D

 29 33  0  0  0  0  0  0  0  0999 V2000
    3.6210   13.8870   19.4530 O   0  0  0  0  0  0  0  0  0  0  0  0
    4.7900   13.6040   19.5880 C   0  0  0  0  0  0  0  0  0  0  0  0
    5.8290   13.7670   18.6940 N   0  0  0  0  0  0  0  0  0  0  0  0
    5.4370   12.9680   20.8440 C   0  0  0  0  0  0  0  0  0  0  0  0
    4.8720   12.5140   21.8110 O   0  0  0  0  0  0  0  0  0  0  0  0
    7.0560   13.5460   19.3150 C   0  0  0  0  0  0  0  0  0  0  0  0
    6.8810   13.0550   20.6080 C   0  0  0  0  0  0  0  0  0  0  0  0
    8.3210   13.7570   18.7990 C   0  0  0  0  0  0  0  0  0  0  0  0
    7.9350   12.7420   21.4380 C   0  0  0  0  0  0  0  0  0  0  0  0
    9.4240   13.4580   19.6260 C   0  0  0  0  0  0  0  0  0  0  0  0
    9.2200   12.9490   20.9340 C   0  0  0  0  0  0  0  0  0  0  0  0
   10.8380   13.6870   19.1340 C   0  0  0  0  0  0  0  0  0  0  0  0
   11.3570   12.5620   18.2570 C   0  0  0  0  0  0  0  0  0  0  0  0
   12.0670   13.0280   16.9810 C   0  0  0  0  0  0  0  0  0  0  0  0
   11.6020   12.3680   15.6890 C   0  0  1  0  0  0  0  0  0  0  0  0
   11.9710   13.0530   14.4270 N   0  0  0  0  0  0  0  0  0  0  0  0
   12.0550   10.9330   15.5390 C   0  0  0  0  0  0  0  0  0  0  0  0
   12.7620   12.1030   13.5970 C   0  0  2  0  0  0  0  0  0  0  0  0
   13.2410   11.0610   14.6080 C   0  0  0  0  0  0  0  0  0  0  0  0
   13.9330   12.7950   12.8970 C   0  0  0  0  0  0  0  0  0  0  0  0
   11.9330   11.3620   12.5200 C   0  0  0  0  0  0  0  0  0  0  0  0
   10.6980   11.3070   12.5230 O   0  0  0  0  0  0  0  0  0  0  0  0
   12.6900   10.7380   11.5490 N   0  0  0  0  0  0  0  0  0  0  0  0
   14.7610   11.6850   12.3310 C   0  0  0  0  0  0  0  0  0  0  0  0
   14.0860   10.6700   11.6600 C   0  0  0  0  0  0  0  0  0  0  0  0
   16.1470   11.6350   12.4650 C   0  0  0  0  0  0  0  0  0  0  0  0
   16.8490   10.5610   11.9270 C   0  0  0  0  0  0  0  0  0  0  0  0
   14.7780    9.5980   11.1180 C   0  0  0  0  0  0  0  0  0  0  0  0
   16.1670    9.5430   11.2560 C   0  0  0  0  0  0  0  0  0  0  0  0
  1  2  2  0
  2  3  1  0
  2  4  1  0
  4  5  2  0
  3  6  1  0
  4  7  1  0
  6  7  2  0
  6  8  1  0
  7  9  1  0
  8 10  2  0
  9 11  2  0
 10 11  1  0
 10 12  1  0
 12 13  1  0
 13 14  1  0
 15 14  1  1
 15 16  1  0
 15 17  1  0
 16 18  1  0
 17 19  1  0
 18 19  1  1
 18 20  1  0
 18 21  1  0
 21 22  2  0
 21 23  1  0
 20 24  1  0
 23 25  1  0
 24 25  2  0
 24 26  1  0
 26 27  2  0
 25 28  1  0
 27 29  1  0
 28 29  2  0
M  END
