mac-x0302-mac-x0354
     RDKit          3D

 28 30  0  0  0  0  0  0  0  0999 V2000
    1.5090   14.2520   -3.6600 O   0  0  0  0  0  0  0  0  0  0  0  0
    0.3120   13.9740   -3.1020 C   0  0  0  0  0  0  0  0  0  0  0  0
   -0.1220   12.8180   -2.8130 N   0  0  0  0  0  0  0  0  0  0  0  0
   -0.5600   15.1420   -2.8210 C   0  0  0  0  0  0  0  0  0  0  0  0
   -1.7530   14.6320   -2.1720 N   0  0  0  0  0  0  0  0  0  0  0  0
    0.7300   11.7170   -3.1600 C   0  0  1  0  0  0  0  0  0  0  0  0
   -3.0100   15.1410   -2.3860 C   0  0  0  0  0  0  0  0  0  0  0  0
    0.2220   10.4230   -2.7630 O   0  0  0  0  0  0  0  0  0  0  0  0
    0.9300   11.8010   -4.6600 C   0  0  0  0  0  0  0  0  0  0  0  0
   -3.3740   15.5820   -3.4740 O   0  0  0  0  0  0  0  0  0  0  0  0
   -3.8890   15.1070   -1.1990 C   0  0  0  0  0  0  0  0  0  0  0  0
    1.9030   12.5980   -5.3070 C   0  0  0  0  0  0  0  0  0  0  0  0
    0.2770   11.1600   -5.7310 C   0  0  0  0  0  0  0  0  0  0  0  0
   -5.2740   15.0470   -1.3740 C   0  0  0  0  0  0  0  0  0  0  0  0
   -3.3370   15.1270    0.0880 C   0  0  0  0  0  0  0  0  0  0  0  0
    0.8920   11.5970   -6.8610 N   0  0  0  0  0  0  0  0  0  0  0  0
    1.8780   12.4710   -6.6240 N   0  0  0  0  0  0  0  0  0  0  0  0
   -0.8090   10.2050   -5.8150 C   0  0  0  0  0  0  0  0  0  0  0  0
    0.5600   11.1880   -8.2140 C   0  0  0  0  0  0  0  0  0  0  0  0
   -6.0880   15.0000   -0.2500 C   0  0  0  0  0  0  0  0  0  0  0  0
   -4.1610   15.0830    1.2010 C   0  0  0  0  0  0  0  0  0  0  0  0
   -0.5910    8.9650   -6.4320 C   0  0  0  0  0  0  0  0  0  0  0  0
   -2.0660   10.5060   -5.2970 C   0  0  0  0  0  0  0  0  0  0  0  0
   -7.4450   14.9390   -0.3620 O   0  0  0  0  0  0  0  0  0  0  0  0
   -5.5390   15.0150    1.0330 C   0  0  0  0  0  0  0  0  0  0  0  0
   -1.6220    8.0380   -6.5270 C   0  0  0  0  0  0  0  0  0  0  0  0
   -3.0980    9.5750   -5.3930 C   0  0  0  0  0  0  0  0  0  0  0  0
   -2.8770    8.3430   -6.0070 C   0  0  0  0  0  0  0  0  0  0  0  0
  1  2  1  0
  2  3  2  3
  2  4  1  0
  4  5  1  0
  3  6  1  0
  5  7  1  0
  6  8  1  6
  6  9  1  0
  7 10  2  0
  7 11  1  0
  9 12  1  0
  9 13  2  0
 11 14  2  0
 11 15  1  0
 13 16  1  0
 12 17  2  0
 16 17  1  0
 13 18  1  0
 16 19  1  0
 14 20  1  0
 15 21  2  0
 18 22  2  0
 18 23  1  0
 20 24  1  0
 20 25  2  0
 21 25  1  0
 22 26  1  0
 23 27  2  0
 26 28  2  0
 27 28  1  0
M  END
