mac-x0433-mac-x0346
     RDKit          3D

 11 11  0  0  0  0  0  0  0  0999 V2000
   -2.9280   14.9680    0.5610 C   0  0  0  0  0  0  0  0  0  0  0  0
   -4.3020   15.4620    0.1130 C   0  0  2  0  0  0  0  0  0  0  0  0
   -5.4320   14.6820    0.8160 C   0  0  0  0  0  0  0  0  0  0  0  0
   -4.3660   15.4620   -1.3630 N   0  0  0  0  0  0  0  0  0  0  0  0
   -5.5240   14.7730   -1.8640 C   0  0  2  0  0  0  0  0  0  0  0  0
   -6.7880   14.7480    0.0810 C   0  0  2  0  0  0  0  0  0  0  0  0
   -7.6020   13.4630    0.1770 C   0  0  0  0  0  0  0  0  0  0  0  0
   -5.5940   15.0260   -3.2650 N   0  0  0  0  0  0  0  0  0  0  0  0
   -6.6690   15.3880   -1.2560 N   0  0  0  0  0  0  0  0  0  0  0  0
   -9.0200   13.7710    0.0360 N   0  0  0  0  0  0  0  0  0  0  0  0
   -7.8180   15.0400   -2.1040 O   0  0  0  0  0  0  0  0  0  0  0  0
  2  1  1  6
  2  3  1  0
  2  4  1  0
  4  5  1  0
  3  6  1  0
  6  7  1  6
  5  8  1  6
  5  9  1  0
  6  9  1  0
  7 10  1  0
  9 11  1  0
M  END
