mac-x0357-diamond-x0933_0_A
     RDKit          3D

 20 21  0  0  0  0  0  0  0  0999 V2000
    2.4890   13.0700   -4.6230 C   0  0  0  0  0  0  0  0  0  0  0  0
    1.1230   12.4860   -4.8710 C   0  0  0  0  0  0  0  0  0  0  0  0
    0.8190   11.8510   -6.0770 C   0  0  0  0  0  0  0  0  0  0  0  0
    0.1160   12.5510   -3.9020 C   0  0  0  0  0  0  0  0  0  0  0  0
    1.7810   11.7640   -7.0230 O   0  0  0  0  0  0  0  0  0  0  0  0
    0.3800   13.1990   -2.6040 C   0  0  0  0  0  0  0  0  0  0  0  0
   -1.1560   12.0030   -4.1370 C   0  0  0  0  0  0  0  0  0  0  0  0
   -0.4380   11.3020   -6.3270 C   0  0  0  0  0  0  0  0  0  0  0  0
   -0.2080   14.2370   -2.1470 N   0  0  0  0  0  0  0  0  0  0  0  0
    1.3450   12.5770   -1.9110 O   0  0  0  0  0  0  0  0  0  0  0  0
   -1.4280   11.3790   -5.3540 C   0  0  0  0  0  0  0  0  0  0  0  0
   -1.2520   14.9100   -2.8950 C   0  0  0  0  0  0  0  0  0  0  0  0
   -2.0950   15.7050   -1.9040 C   0  0  0  0  0  0  0  0  0  0  0  0
   -3.0450   14.9290   -0.9750 C   0  0  2  0  0  0  0  0  0  0  0  0
   -4.5210   15.0780   -1.3870 C   0  0  0  0  0  0  0  0  0  0  0  0
   -2.8210   15.2130    0.5310 C   0  0  0  0  0  0  0  0  0  0  0  0
   -5.4710   14.6330   -0.3800 N   0  0  0  0  0  0  0  0  0  0  0  0
   -3.8570   14.5570    1.3100 N   0  0  0  0  0  0  0  0  0  0  0  0
   -5.0870   15.1100    0.8980 C   0  0  2  0  0  0  0  0  0  0  0  0
   -6.0860   14.6170    1.7780 N   0  0  0  0  0  0  0  0  0  0  0  0
  1  2  1  0
  2  3  2  0
  2  4  1  0
  3  5  1  0
  4  6  1  0
  4  7  2  0
  3  8  1  0
  6  9  2  3
  6 10  1  0
  7 11  1  0
  8 11  2  0
  9 12  1  0
 12 13  1  0
 14 13  1  6
 14 15  1  0
 14 16  1  0
 15 17  1  0
 16 18  1  0
 17 19  1  0
 18 19  1  0
 19 20  1  1
M  END
