mac-x0347-mac-x0328
     RDKit          3D

 24 26  0  0  0  0  0  0  0  0999 V2000
   -0.2040   14.2610   -4.0180 O   0  0  0  0  0  0  0  0  0  0  0  0
   -0.9070   15.1200   -3.1010 C   0  0  0  0  0  0  0  0  0  0  0  0
   -1.0170   14.3110   -1.9350 O   0  0  0  0  0  0  0  0  0  0  0  0
   -2.3110   15.7200   -3.6630 C   0  0  2  0  0  0  0  0  0  0  0  0
    0.0330   16.2720   -2.7960 C   0  0  0  0  0  0  0  0  0  0  0  0
   -2.1670   17.1240   -4.0350 O   0  0  0  0  0  0  0  0  0  0  0  0
   -0.6070   15.9770   -1.6390 C   0  0  0  0  0  0  0  0  0  0  0  0
    0.1200   15.9060   -4.0780 C   0  0  0  0  0  0  0  0  0  0  0  0
   -3.5310   15.5310   -2.7350 C   0  0  0  0  0  0  0  0  0  0  0  0
   -1.4880   14.9150   -1.8660 C   0  0  0  0  0  0  0  0  0  0  0  0
   -0.7170   14.8770   -4.3510 N   0  0  0  0  0  0  0  0  0  0  0  0
   -3.5330   15.9240   -1.3840 C   0  0  0  0  0  0  0  0  0  0  0  0
   -4.7070   14.9390   -3.2350 C   0  0  0  0  0  0  0  0  0  0  0  0
   -1.4900   14.4150   -3.2410 C   0  0  0  0  0  0  0  0  0  0  0  0
   -2.3460   14.3650   -0.7860 C   0  0  0  0  0  0  0  0  0  0  0  0
   -4.6520   15.7400   -0.5660 C   0  0  0  0  0  0  0  0  0  0  0  0
   -5.8290   14.7560   -2.4180 C   0  0  0  0  0  0  0  0  0  0  0  0
   -2.2700   14.8760    0.5220 C   0  0  0  0  0  0  0  0  0  0  0  0
   -3.2660   13.3280   -1.0370 C   0  0  0  0  0  0  0  0  0  0  0  0
   -5.7930   15.1580   -1.0900 C   0  0  0  0  0  0  0  0  0  0  0  0
   -6.9030   14.9610   -0.3240 O   0  0  0  0  0  0  0  0  0  0  0  0
   -3.0860   14.3740    1.5350 C   0  0  0  0  0  0  0  0  0  0  0  0
   -4.0810   12.8290   -0.0200 C   0  0  0  0  0  0  0  0  0  0  0  0
   -3.9900   13.3520    1.2630 C   0  0  0  0  0  0  0  0  0  0  0  0
  2  1  1  0
  2  3  1  0
  2  4  1  0
  2  5  1  0
  4  6  1  1
  5  7  2  0
  5  8  1  0
  4  9  1  0
  7 10  1  0
  8 11  2  0
  9 12  2  0
  9 13  1  0
 10 14  2  0
 11 14  1  0
 10 15  1  0
 12 16  1  0
 13 17  2  0
 15 18  2  0
 15 19  1  0
 16 20  2  0
 17 20  1  0
 20 21  1  0
 18 22  1  0
 19 23  2  0
 22 24  2  0
 23 24  1  0
M  END
