mac-x0179-mac-x0371
     RDKit          3D

 24 26  0  0  0  0  0  0  0  0999 V2000
    0.6530   13.2720   -2.7330 O   0  0  0  0  0  0  0  0  0  0  0  0
    0.9590   11.8950   -2.9260 C   0  0  1  0  0  0  0  0  0  0  0  0
    0.6370   11.1110   -1.7860 N   0  0  0  0  0  0  0  0  0  0  0  0
    0.1010   11.2770   -4.0150 C   0  0  0  0  0  0  0  0  0  0  0  0
    0.1280   10.0650   -2.1200 O   0  0  0  0  0  0  0  0  0  0  0  0
   -0.1400   12.1310   -5.2360 C   0  0  0  0  0  0  0  0  0  0  0  0
    0.6480   11.5660   -6.4390 C   0  0  0  0  0  0  0  0  0  0  0  0
   -1.5250   11.5560   -5.4910 C   0  0  0  0  0  0  0  0  0  0  0  0
    0.1530   13.6130   -4.9030 C   0  0  0  0  0  0  0  0  0  0  0  0
    1.7310   11.8900   -6.8640 O   0  0  0  0  0  0  0  0  0  0  0  0
   -2.5700   11.8850   -4.9760 O   0  0  0  0  0  0  0  0  0  0  0  0
   -0.1350   10.4740   -7.0240 C   0  0  0  0  0  0  0  0  0  0  0  0
   -1.4030   10.4610   -6.4660 C   0  0  0  0  0  0  0  0  0  0  0  0
   -0.8170   14.6500   -4.8100 C   0  0  0  0  0  0  0  0  0  0  0  0
    1.4740   14.0260   -4.6330 C   0  0  0  0  0  0  0  0  0  0  0  0
    2.8600   12.9940   -4.6410 Cl  0  0  0  0  0  0  0  0  0  0  0  0
   -2.5190   14.4520   -5.0500 Cl  0  0  0  0  0  0  0  0  0  0  0  0
    0.2450    9.5480   -7.9840 C   0  0  0  0  0  0  0  0  0  0  0  0
   -2.3520    9.5200   -6.8290 C   0  0  0  0  0  0  0  0  0  0  0  0
   -0.4620   15.9800   -4.4940 C   0  0  0  0  0  0  0  0  0  0  0  0
    1.8020   15.3370   -4.3140 C   0  0  0  0  0  0  0  0  0  0  0  0
   -0.7010    8.5890   -8.3690 C   0  0  0  0  0  0  0  0  0  0  0  0
   -1.9850    8.5750   -7.7950 C   0  0  0  0  0  0  0  0  0  0  0  0
    0.8490   16.3250   -4.2480 C   0  0  0  0  0  0  0  0  0  0  0  0
  2  1  1  1
  2  3  1  0
  2  4  1  0
  3  5  2  0
  6  4  1  0
  6  7  1  0
  6  8  1  0
  6  9  1  0
  7 10  2  0
  8 11  2  0
  7 12  1  0
  8 13  1  0
 12 13  2  0
  9 14  2  0
  9 15  1  0
 15 16  1  0
 14 17  1  0
 12 18  1  0
 13 19  1  0
 14 20  1  0
 15 21  2  0
 18 22  2  0
 19 23  2  0
 22 23  1  0
 20 24  2  0
 21 24  1  0
M  END
