mac-x1493-mac-x0361
     RDKit          3D

 16 17  0  0  0  0  0  0  0  0999 V2000
   -1.3310   14.5420   -1.5910 O   0  0  0  0  0  0  0  0  0  0  0  0
   -2.3510   14.7690   -2.4410 C   0  0  0  0  0  0  0  0  0  0  0  0
   -2.1530   14.7310   -3.6430 O   0  0  0  0  0  0  0  0  0  0  0  0
   -3.6620   15.0770   -1.7500 C   0  0  2  0  0  0  0  0  0  0  0  0
   -3.6470   14.9900   -0.2260 C   0  0  0  0  0  0  0  0  0  0  0  0
   -4.8040   14.2150   -2.2890 C   0  0  0  0  0  0  0  0  0  0  0  0
   -4.8960   15.6720    0.3250 C   0  0  1  0  0  0  0  0  0  0  0  0
   -5.9720   14.3090   -1.3990 N   0  0  0  0  0  0  0  0  0  0  0  0
   -6.4580   13.4100   -0.5030 C   0  0  0  0  0  0  0  0  0  0  0  0
   -6.1100   15.4980   -0.6520 C   0  0  1  0  0  0  0  0  0  0  0  0
   -5.1720   15.3090    1.7590 C   0  0  0  0  0  0  0  0  0  0  0  0
   -5.7240   13.2450    0.6280 N   0  0  0  0  0  0  0  0  0  0  0  0
   -7.5180   12.8240   -0.6230 O   0  0  0  0  0  0  0  0  0  0  0  0
   -7.4220   15.0990    0.0100 C   0  0  0  0  0  0  0  0  0  0  0  0
   -6.4010   14.9170    2.1950 C   0  0  0  0  0  0  0  0  0  0  0  0
   -7.5350   14.8240    1.3200 C   0  0  0  0  0  0  0  0  0  0  0  0
  1  2  1  0
  2  3  2  0
  4  2  1  6
  4  5  1  0
  4  6  1  0
  7  5  1  6
  6  8  1  0
  8  9  1  0
  7 10  1  0
  8 10  1  0
  7 11  1  0
  9 12  1  0
  9 13  2  0
 10 14  1  1
 11 15  2  0
 14 16  2  0
 15 16  1  0
M  END
