mac-x0565-mac-x0455
     RDKit          3D

 24 26  0  0  0  0  0  0  0  0999 V2000
   -5.5630   15.0490    0.9230 O   0  0  0  0  0  0  0  0  0  0  0  0
   -6.2930   14.9430   -0.2090 C   0  0  0  0  0  0  0  0  0  0  0  0
   -7.5070   14.8830   -0.2410 O   0  0  0  0  0  0  0  0  0  0  0  0
   -5.4520   14.9090   -1.4150 C   0  0  0  0  0  0  0  0  0  0  0  0
   -4.0800   15.0630   -1.2570 C   0  0  0  0  0  0  0  0  0  0  0  0
   -6.0190   14.7240   -2.6910 C   0  0  0  0  0  0  0  0  0  0  0  0
   -3.3130   15.0220   -2.3900 C   0  0  0  0  0  0  0  0  0  0  0  0
   -5.2150   14.6860   -3.8230 C   0  0  0  0  0  0  0  0  0  0  0  0
   -3.8780   14.8380   -3.6330 C   0  0  0  0  0  0  0  0  0  0  0  0
   -1.9840   15.1360   -2.5400 N   0  0  0  0  0  0  0  0  0  0  0  0
   -1.1370   14.1140   -2.0970 C   0  0  0  0  0  0  0  0  0  0  0  0
   -2.9510   14.8310   -4.6300 O   0  0  0  0  0  0  0  0  0  0  0  0
   -1.8940   15.5010   -3.9490 C   0  0  0  0  0  0  0  0  0  0  0  0
   -0.0710   13.9670   -3.1770 C   0  0  1  0  0  0  0  0  0  0  0  0
    0.0470   15.2260   -3.9030 O   0  0  0  0  0  0  0  0  0  0  0  0
    1.2500   13.9650   -2.3970 C   0  0  0  0  0  0  0  0  0  0  0  0
   -0.3480   12.8580   -4.1980 C   0  0  0  0  0  0  0  0  0  0  0  0
    2.1820   14.7430   -2.5660 O   0  0  0  0  0  0  0  0  0  0  0  0
    1.2550   13.0040   -1.4410 O   0  0  0  0  0  0  0  0  0  0  0  0
   -1.5160   12.0660   -4.1010 C   0  0  0  0  0  0  0  0  0  0  0  0
    0.5320   12.5950   -5.2640 C   0  0  0  0  0  0  0  0  0  0  0  0
   -1.7830   11.0520   -5.0290 C   0  0  0  0  0  0  0  0  0  0  0  0
    0.2600   11.5830   -6.1870 C   0  0  0  0  0  0  0  0  0  0  0  0
   -0.8930   10.8120   -6.0700 C   0  0  0  0  0  0  0  0  0  0  0  0
  1  2  1  0
  2  3  2  0
  2  4  1  0
  4  5  2  0
  4  6  1  0
  5  7  1  0
  6  8  2  0
  7  9  2  0
  8  9  1  0
  7 10  1  0
 10 11  1  0
  9 12  1  0
 10 13  1  0
 12 13  1  0
 11 14  1  0
 14 15  1  6
 14 16  1  0
 14 17  1  0
 16 18  2  0
 16 19  1  0
 17 20  2  0
 17 21  1  0
 20 22  1  0
 21 23  2  0
 22 24  2  0
 23 24  1  0
M  END
