mac-x0387-mac-x0453
     RDKit          3D

 13 14  0  0  0  0  0  0  0  0999 V2000
   -4.0940   15.2790    1.4770 N   0  0  0  0  0  0  0  0  0  0  0  0
   -5.1030   14.2630    1.7570 C   0  0  0  0  0  0  0  0  0  0  0  0
   -6.2120   14.0880    0.8420 N   0  0  0  0  0  0  0  0  0  0  0  0
   -2.7890   14.9170    1.0150 C   0  0  0  0  0  0  0  0  0  0  0  0
   -2.5740   14.8870   -0.3770 C   0  0  0  0  0  0  0  0  0  0  0  0
   -1.7900   14.6260    1.8880 N   0  0  0  0  0  0  0  0  0  0  0  0
   -1.2810   14.5570   -0.8530 C   0  0  0  0  0  0  0  0  0  0  0  0
   -0.5670   14.3200    1.4060 C   0  0  0  0  0  0  0  0  0  0  0  0
   -3.5840   15.1750   -1.3210 C   0  0  0  0  0  0  0  0  0  0  0  0
   -0.2630   14.2740    0.0610 C   0  0  0  0  0  0  0  0  0  0  0  0
   -1.0450   14.5240   -2.2390 C   0  0  0  0  0  0  0  0  0  0  0  0
   -3.3350   15.1370   -2.6870 C   0  0  0  0  0  0  0  0  0  0  0  0
   -2.0630   14.8110   -3.1500 C   0  0  0  0  0  0  0  0  0  0  0  0
  1  2  1  0
  2  3  1  0
  1  4  1  0
  4  5  2  0
  4  6  1  0
  5  7  1  0
  6  8  2  0
  5  9  1  0
  7 10  2  0
  8 10  1  0
  7 11  1  0
  9 12  2  0
 11 13  2  0
 12 13  1  0
M  END
