mac-x0451-diamond-x0855_0_A
     RDKit          3D

 23 25  0  0  0  0  0  0  0  0999 V2000
   -6.6230   14.7640    2.5820 N   0  0  0  0  0  0  0  0  0  0  0  0
   -5.7640   14.8050    1.5520 C   0  0  0  0  0  0  0  0  0  0  0  0
   -6.1470   14.9840    0.3180 N   0  0  0  0  0  0  0  0  0  0  0  0
   -4.0730   14.6310    1.7770 S   0  0  0  0  0  0  0  0  0  0  0  0
   -5.0500   14.9870   -0.5160 C   0  0  0  0  0  0  0  0  0  0  0  0
   -3.8200   14.8000    0.1080 C   0  0  0  0  0  0  0  0  0  0  0  0
   -5.0660   15.1570   -1.9070 C   0  0  0  0  0  0  0  0  0  0  0  0
   -2.6070   14.7650   -0.5780 C   0  0  0  0  0  0  0  0  0  0  0  0
   -3.8570   15.1250   -2.6130 C   0  0  0  0  0  0  0  0  0  0  0  0
   -2.6340   14.9280   -1.9550 C   0  0  0  0  0  0  0  0  0  0  0  0
   -1.5260   14.9150   -2.7630 O   0  0  0  0  0  0  0  0  0  0  0  0
   -0.1930   14.9080   -2.2020 C   0  0  0  0  0  0  0  0  0  0  0  0
    0.2280   13.5710   -1.5940 C   0  0  0  0  0  0  0  0  0  0  0  0
    1.2650   13.0090   -2.4140 O   0  0  0  0  0  0  0  0  0  0  0  0
    0.8260   12.0050   -3.2070 C   0  0  0  0  0  0  0  0  0  0  0  0
    0.6080   10.8710   -2.7990 O   0  0  0  0  0  0  0  0  0  0  0  0
    0.6210   12.4550   -4.6270 C   0  0  0  0  0  0  0  0  0  0  0  0
   -0.4300   11.6370   -5.1750 N   0  0  0  0  0  0  0  0  0  0  0  0
   -0.3270   10.6960   -6.1600 C   0  0  0  0  0  0  0  0  0  0  0  0
   -1.6830   11.7650   -4.6870 N   0  0  0  0  0  0  0  0  0  0  0  0
   -1.5860   10.1840   -6.3010 C   0  0  0  0  0  0  0  0  0  0  0  0
   -2.3870   10.8700   -5.3810 C   0  0  0  0  0  0  0  0  0  0  0  0
   -2.1610    8.8470   -7.4600 Br  0  0  0  0  0  0  0  0  0  0  0  0
  1  2  1  0
  2  3  2  0
  2  4  1  0
  3  5  1  0
  4  6  1  0
  5  6  2  0
  5  7  1  0
  6  8  1  0
  7  9  2  0
  8 10  2  0
  9 10  1  0
 10 11  1  0
 11 12  1  0
 12 13  1  0
 13 14  1  0
 14 15  1  0
 15 16  2  0
 15 17  1  0
 17 18  1  0
 18 19  1  0
 18 20  1  0
 19 21  2  0
 20 22  2  0
 21 22  1  0
 21 23  1  0
M  END
