mac-x0137-mac-x0116
     RDKit          3D

 23 26  0  0  0  0  0  0  0  0999 V2000
   -2.8640   12.8400   -3.7870 F   0  0  0  0  0  0  0  0  0  0  0  0
   -1.8070   13.4280   -4.4090 C   0  0  2  0  0  0  0  0  0  0  0  0
   -0.6970   12.3940   -4.5530 C   0  0  0  0  0  0  0  0  0  0  0  0
   -1.4050   14.7090   -3.6350 C   0  0  0  0  0  0  0  0  0  0  0  0
   -0.4330   14.4960   -2.5280 N   0  0  0  0  0  0  0  0  0  0  0  0
    0.1100   12.2310   -3.2680 C   0  0  0  0  0  0  0  0  0  0  0  0
    0.6740   13.5650   -2.7750 C   0  0  0  0  0  0  0  0  0  0  0  0
   -0.8830   14.5520   -1.1900 C   0  0  0  0  0  0  0  0  0  0  0  0
    0.0240   14.3430   -0.2040 N   0  0  0  0  0  0  0  0  0  0  0  0
   -2.2120   14.8170   -0.7830 C   0  0  0  0  0  0  0  0  0  0  0  0
   -0.3620   14.3750    1.0910 C   0  0  0  0  0  0  0  0  0  0  0  0
   -2.4670   14.8110    0.5870 C   0  0  0  0  0  0  0  0  0  0  0  0
   -3.4580   15.1030   -1.4250 C   0  0  0  0  0  0  0  0  0  0  0  0
   -1.5820   14.5930    1.5830 N   0  0  0  0  0  0  0  0  0  0  0  0
   -3.8040   15.0700    0.7490 N   0  0  0  0  0  0  0  0  0  0  0  0
   -4.4100   15.2570   -0.4520 C   0  0  0  0  0  0  0  0  0  0  0  0
   -4.4930   15.1310    1.9790 N   0  0  0  0  0  0  0  0  0  0  0  0
   -5.9140   14.7860    1.8240 C   0  0  0  0  0  0  0  0  0  0  0  0
   -6.2620   13.3400    1.7740 C   0  0  0  0  0  0  0  0  0  0  0  0
   -6.1540   12.7020    0.5680 O   0  0  0  0  0  0  0  0  0  0  0  0
   -6.7060   12.4540    2.7300 C   0  0  0  0  0  0  0  0  0  0  0  0
   -6.8820   11.2200    2.0850 C   0  0  0  0  0  0  0  0  0  0  0  0
   -6.5310   11.4170    0.7710 C   0  0  0  0  0  0  0  0  0  0  0  0
  2  1  1  1
  2  3  1  0
  2  4  1  0
  4  5  1  0
  3  6  1  0
  5  7  1  0
  6  7  1  0
  5  8  1  0
  8  9  2  0
  8 10  1  0
  9 11  1  0
 10 12  2  0
 10 13  1  0
 11 14  2  0
 12 14  1  0
 12 15  1  0
 13 16  2  0
 15 16  1  0
 15 17  1  0
 17 18  1  0
 18 19  1  0
 19 20  1  0
 19 21  2  0
 21 22  1  0
 20 23  1  0
 22 23  2  0
M  END
