mac-x0116-mac-x0510
     RDKit          3D

 16 18  0  0  0  0  0  0  0  0999 V2000
   -6.0150   14.6950    1.8080 C   0  0  0  0  0  0  0  0  0  0  0  0
   -4.6110   15.0340    1.7250 N   0  0  0  0  0  0  0  0  0  0  0  0
   -3.8330   14.9690    0.5820 C   0  0  0  0  0  0  0  0  0  0  0  0
   -6.3830   13.2560    1.7620 C   0  0  0  0  0  0  0  0  0  0  0  0
   -6.2900   12.6210    0.5540 O   0  0  0  0  0  0  0  0  0  0  0  0
   -6.8270   12.3860    2.7250 C   0  0  0  0  0  0  0  0  0  0  0  0
   -7.0250   11.1550    2.0840 C   0  0  0  0  0  0  0  0  0  0  0  0
   -6.6860   11.3420    0.7660 C   0  0  0  0  0  0  0  0  0  0  0  0
   -4.3630   15.1280   -0.6850 N   0  0  0  0  0  0  0  0  0  0  0  0
   -2.5140   14.7510    0.6330 C   0  0  0  0  0  0  0  0  0  0  0  0
   -3.5990   15.0210   -1.8130 C   0  0  0  0  0  0  0  0  0  0  0  0
   -1.7470   14.6820   -0.6120 C   0  0  0  0  0  0  0  0  0  0  0  0
   -1.6510   14.5660    1.6710 N   0  0  0  0  0  0  0  0  0  0  0  0
   -2.3220   14.8030   -1.8480 N   0  0  0  0  0  0  0  0  0  0  0  0
   -0.4930   14.5050   -0.3340 N   0  0  0  0  0  0  0  0  0  0  0  0
   -0.5130   14.4440    1.0580 C   0  0  0  0  0  0  0  0  0  0  0  0
  1  2  1  0
  2  3  1  0
  1  4  1  0
  4  5  1  0
  4  6  2  0
  6  7  1  0
  5  8  1  0
  7  8  2  0
  3  9  1  0
  3 10  2  0
  9 11  1  0
 10 12  1  0
 10 13  1  0
 11 14  2  0
 12 14  1  0
 12 15  2  0
 13 16  2  0
 15 16  1  0
M  END
