mac-x0305-mac-x0284
     RDKit          3D

 12 12  0  0  0  0  0  0  0  0999 V2000
    0.4010   13.0520   -0.3560 O   0  0  0  0  0  0  0  0  0  0  0  0
   -0.2450   13.8130   -1.2720 C   0  0  0  0  0  0  0  0  0  0  0  0
    0.4710   14.1040   -2.3230 N   0  0  0  0  0  0  0  0  0  0  0  0
   -1.6830   14.1490   -0.8660 C   0  0  1  0  0  0  0  0  0  0  0  0
   -0.1820   14.8730   -3.2790 O   0  0  0  0  0  0  0  0  0  0  0  0
   -1.7720   15.1150    0.3760 C   0  0  2  0  0  0  0  0  0  0  0  0
   -2.6030   14.4200   -2.0460 N   0  0  0  0  0  0  0  0  0  0  0  0
   -1.3720   14.4640    1.5990 O   0  0  0  0  0  0  0  0  0  0  0  0
   -1.8910   14.6750   -3.3100 O   0  0  0  0  0  0  0  0  0  0  0  0
   -3.1990   15.5060    0.6330 C   0  0  0  0  0  0  0  0  0  0  0  0
   -3.5380   15.5300   -1.8180 C   0  0  0  0  0  0  0  0  0  0  0  0
   -4.0170   15.6980   -0.3990 C   0  0  0  0  0  0  0  0  0  0  0  0
  1  2  1  0
  2  3  2  3
  4  2  1  6
  3  5  1  0
  4  6  1  0
  4  7  1  0
  6  8  1  1
  7  9  1  0
  6 10  1  0
  7 11  1  0
 10 12  2  0
 11 12  1  0
M  END
