mac-x0139-mac-x0190
     RDKit          3D

 22 24  0  0  0  0  0  0  0  0999 V2000
   -2.2490   14.9790   -3.2600 C   0  0  0  0  0  0  0  0  0  0  0  0
   -1.0720   14.5520   -2.5000 N   0  0  0  0  0  0  0  0  0  0  0  0
    0.2420   14.8540   -3.0720 C   0  0  0  0  0  0  0  0  0  0  0  0
   -1.2660   14.6640   -1.1250 C   0  0  0  0  0  0  0  0  0  0  0  0
    0.7130   13.6800   -3.9300 C   0  0  0  0  0  0  0  0  0  0  0  0
   -2.4830   14.6130   -0.4950 C   0  0  0  0  0  0  0  0  0  0  0  0
   -0.1530   14.8380   -0.3950 N   0  0  0  0  0  0  0  0  0  0  0  0
    0.9840   12.4950   -3.0510 C   0  0  0  0  0  0  0  0  0  0  0  0
   -2.4990   14.7640    0.8800 C   0  0  0  0  0  0  0  0  0  0  0  0
   -0.2850   14.9610    0.9340 C   0  0  0  0  0  0  0  0  0  0  0  0
   -3.8730   14.4200   -1.0000 C   0  0  0  0  0  0  0  0  0  0  0  0
    1.6880   12.4900   -2.0660 O   0  0  0  0  0  0  0  0  0  0  0  0
    0.3640   11.3670   -3.4410 O   0  0  0  0  0  0  0  0  0  0  0  0
   -1.4260   14.9350    1.6320 N   0  0  0  0  0  0  0  0  0  0  0  0
   -3.8070   14.7270    1.4120 N   0  0  0  0  0  0  0  0  0  0  0  0
   -4.6970   14.3590    0.3130 C   0  0  1  0  0  0  0  0  0  0  0  0
   -5.7620   15.3880    0.2220 C   0  0  0  0  0  0  0  0  0  0  0  0
   -5.6090   13.2040    0.5550 N   0  0  0  0  0  0  0  0  0  0  0  0
   -7.0240   13.6130    0.3200 C   0  0  2  0  0  0  0  0  0  0  0  0
   -6.9010   14.8000   -0.4680 N   0  0  0  0  0  0  0  0  0  0  0  0
   -7.8300   13.7770    1.6500 C   0  0  0  0  0  0  0  0  0  0  0  0
   -8.7300   14.8930    1.6460 O   0  0  0  0  0  0  0  0  0  0  0  0
  1  2  1  0
  2  3  1  0
  2  4  1  0
  3  5  1  0
  4  6  2  0
  4  7  1  0
  5  8  1  0
  6  9  1  0
  7 10  2  0
  6 11  1  0
  8 12  2  0
  8 13  1  0
  9 14  2  0
 10 14  1  0
  9 15  1  0
 16 11  1  6
 16 15  1  0
 16 17  1  0
 16 18  1  0
 18 19  1  0
 17 20  1  0
 19 20  1  0
 19 21  1  1
 21 22  1  0
M  END
