mac-x0338-mac-x0354
     RDKit          3D

 27 29  0  0  0  0  0  0  0  0999 V2000
   -3.8820   15.2580    1.9140 N   0  0  0  0  0  0  0  0  0  0  0  0
   -4.9030   15.0990    1.0450 C   0  0  0  0  0  0  0  0  0  0  0  0
   -6.0720   15.0150    1.4130 O   0  0  0  0  0  0  0  0  0  0  0  0
   -4.5320   15.0320   -0.3860 C   0  0  0  0  0  0  0  0  0  0  0  0
   -3.2070   14.8810   -0.7440 N   0  0  0  0  0  0  0  0  0  0  0  0
   -5.5610   15.1250   -1.2930 C   0  0  0  0  0  0  0  0  0  0  0  0
   -2.9940   14.8270   -2.0990 C   0  0  0  0  0  0  0  0  0  0  0  0
   -5.3490   15.0700   -2.6190 N   0  0  0  0  0  0  0  0  0  0  0  0
   -1.6040   14.6590   -2.7150 C   0  0  0  0  0  0  0  0  0  0  0  0
   -4.0610   14.9220   -2.9860 C   0  0  0  0  0  0  0  0  0  0  0  0
   -0.3440   14.6450   -1.8260 C   0  0  0  0  0  0  0  0  0  0  0  0
    0.8360   13.8760   -2.4470 C   0  0  0  0  0  0  0  0  0  0  0  0
    0.6120   12.4670   -2.2280 N   0  0  0  0  0  0  0  0  0  0  0  0
    0.5980   11.5560   -3.1270 C   0  0  0  0  0  0  0  0  0  0  0  0
    0.3480   10.2680   -2.7510 O   0  0  0  0  0  0  0  0  0  0  0  0
    0.8530   11.7640   -4.5570 C   0  0  0  0  0  0  0  0  0  0  0  0
    1.8240   12.6120   -5.1610 C   0  0  0  0  0  0  0  0  0  0  0  0
    0.2310   11.1640   -5.6680 C   0  0  0  0  0  0  0  0  0  0  0  0
    0.8520   11.6500   -6.7730 N   0  0  0  0  0  0  0  0  0  0  0  0
    1.8220   12.5390   -6.4910 N   0  0  0  0  0  0  0  0  0  0  0  0
   -0.8420   10.1960   -5.8360 C   0  0  0  0  0  0  0  0  0  0  0  0
    0.5300   11.2640   -8.1370 C   0  0  0  0  0  0  0  0  0  0  0  0
   -0.6020    8.8820   -6.2610 C   0  0  0  0  0  0  0  0  0  0  0  0
   -2.1480   10.5940   -5.5770 C   0  0  0  0  0  0  0  0  0  0  0  0
   -1.6530    7.9870   -6.4170 C   0  0  0  0  0  0  0  0  0  0  0  0
   -3.2000    9.6990   -5.7350 C   0  0  0  0  0  0  0  0  0  0  0  0
   -2.9560    8.3970   -6.1530 C   0  0  0  0  0  0  0  0  0  0  0  0
  1  2  1  0
  2  3  2  0
  2  4  1  0
  4  5  2  0
  4  6  1  0
  5  7  1  0
  6  8  2  0
  7  9  1  0
  7 10  2  0
  8 10  1  0
  9 11  1  0
 11 12  1  0
 12 13  1  0
 13 14  2  3
 14 15  1  0
 14 16  1  0
 16 17  1  0
 16 18  2  0
 18 19  1  0
 17 20  2  0
 19 20  1  0
 18 21  1  0
 19 22  1  0
 21 23  2  0
 21 24  1  0
 23 25  1  0
 24 26  2  0
 25 27  2  0
 26 27  1  0
M  END
