mac-x0148-diamond-x0253_0_A
     RDKit          3D

 32 36  0  0  0  0  0  0  0  0999 V2000
    0.9580   12.4600   -5.8270 N   0  0  0  0  0  0  0  0  0  0  0  0
    1.3850   11.7090   -6.8690 C   0  0  0  0  0  0  0  0  0  0  0  0
    2.5030   11.8380   -7.1750 O   0  0  0  0  0  0  0  0  0  0  0  0
    0.3850   11.8600   -4.6680 C   0  0  1  0  0  0  0  0  0  0  0  0
    1.2060   11.8630   -3.3780 C   0  0  0  0  0  0  0  0  0  0  0  0
   -0.7110   12.6970   -4.1970 C   0  0  1  0  0  0  0  0  0  0  0  0
    0.5670   10.7640   -7.6590 C   0  0  0  0  0  0  0  0  0  0  0  0
    2.1460   12.5790   -3.0860 O   0  0  0  0  0  0  0  0  0  0  0  0
    0.6920   10.9340   -2.5350 O   0  0  0  0  0  0  0  0  0  0  0  0
   -1.1930   13.9510   -4.9130 C   0  0  1  0  0  0  0  0  0  0  0  0
   -1.8310   11.9010   -3.6400 C   0  0  0  0  0  0  0  0  0  0  0  0
   -0.4450    9.9430   -7.1500 C   0  0  0  0  0  0  0  0  0  0  0  0
    0.8800   10.7210   -9.0230 C   0  0  0  0  0  0  0  0  0  0  0  0
   -2.5070   13.8280   -5.6740 C   0  0  0  0  0  0  0  0  0  0  0  0
   -1.5370   14.8880   -3.7420 C   0  0  1  0  0  0  0  0  0  0  0  0
   -2.2840   12.8060   -2.5460 C   0  0  0  0  0  0  0  0  0  0  0  0
   -1.1390    9.0800   -8.0160 C   0  0  0  0  0  0  0  0  0  0  0  0
    0.1950    9.8700   -9.8800 C   0  0  0  0  0  0  0  0  0  0  0  0
   -2.2250    8.1900   -7.4910 C   0  0  0  0  0  0  0  0  0  0  0  0
   -3.1760   15.0680   -5.4680 O   0  0  0  0  0  0  0  0  0  0  0  0
   -2.9170   15.4390   -4.1030 C   0  0  0  0  0  0  0  0  0  0  0  0
   -1.4950   14.0560   -2.4880 N   0  0  0  0  0  0  0  0  0  0  0  0
   -0.8120    9.0520   -9.3780 C   0  0  0  0  0  0  0  0  0  0  0  0
   -1.4660   14.4760   -1.1780 C   0  0  0  0  0  0  0  0  0  0  0  0
   -0.3230   14.5220   -0.3980 N   0  0  0  0  0  0  0  0  0  0  0  0
   -2.5910   14.8120   -0.5680 C   0  0  0  0  0  0  0  0  0  0  0  0
   -0.3970   14.7960    0.9400 C   0  0  0  0  0  0  0  0  0  0  0  0
   -2.5890   15.1660    0.8590 C   0  0  0  0  0  0  0  0  0  0  0  0
   -3.9560   14.9300   -0.9410 C   0  0  0  0  0  0  0  0  0  0  0  0
   -1.4570   15.1060    1.6000 N   0  0  0  0  0  0  0  0  0  0  0  0
   -3.7720   15.5080    1.2720 N   0  0  0  0  0  0  0  0  0  0  0  0
   -4.5780   15.3490    0.1610 C   0  0  0  0  0  0  0  0  0  0  0  0
  1  2  1  0
  2  3  2  0
  4  1  1  6
  4  5  1  0
  4  6  1  0
  2  7  1  0
  5  8  2  0
  5  9  1  0
  6 10  1  0
  6 11  1  6
  7 12  2  0
  7 13  1  0
 10 14  1  1
 10 15  1  0
 11 16  1  0
 12 17  1  0
 13 18  2  0
 17 19  1  0
 14 20  1  0
 15 21  1  6
 20 21  1  0
 15 22  1  0
 16 22  1  0
 17 23  2  0
 18 23  1  0
 22 24  1  0
 24 25  1  0
 24 26  2  0
 25 27  1  0
 26 28  1  0
 26 29  1  0
 27 30  2  0
 28 30  1  0
 28 31  2  0
 29 32  2  0
 31 32  1  0
M  END
