mac-x0190-diamond-x0574_0_A
     RDKit          3D

 18 20  0  0  0  0  0  0  0  0999 V2000
   -9.2970   14.7580    2.1070 O   0  0  0  0  0  0  0  0  0  0  0  0
   -9.2160   13.8020    1.0530 C   0  0  0  0  0  0  0  0  0  0  0  0
   -7.9330   14.0480    0.3460 C   0  0  0  0  0  0  0  0  0  0  0  0
   -7.5640   13.3880   -0.8030 N   0  0  0  0  0  0  0  0  0  0  0  0
   -7.0060   14.9030    0.7150 N   0  0  0  0  0  0  0  0  0  0  0  0
   -6.3390   13.8760   -1.1510 C   0  0  0  0  0  0  0  0  0  0  0  0
   -6.0070   14.8150   -0.2180 C   0  0  0  0  0  0  0  0  0  0  0  0
   -5.5660   13.4880   -2.2460 C   0  0  0  0  0  0  0  0  0  0  0  0
   -4.6910   15.5560   -0.3280 C   0  0  1  0  0  0  0  0  0  0  0  0
   -4.2750   16.1740    0.8900 O   0  0  0  0  0  0  0  0  0  0  0  0
   -4.2550   13.7360   -2.0770 C   0  0  0  0  0  0  0  0  0  0  0  0
   -3.7100   14.4110   -0.7950 C   0  0  1  0  0  0  0  0  0  0  0  0
   -4.7090   15.4630    2.0440 C   0  0  0  0  0  0  0  0  0  0  0  0
   -1.9350   14.7850   -1.1410 S   0  0  0  0  0  0  0  0  0  0  0  0
   -3.5480   13.4550    0.3940 C   0  0  0  0  0  0  0  0  0  0  0  0
   -2.4510   13.9850    1.2550 N   0  0  0  0  0  0  0  0  0  0  0  0
   -1.3210   14.0830    0.3810 C   0  0  2  0  0  0  0  0  0  0  0  0
   -0.3460   14.9090    1.0230 N   0  0  0  0  0  0  0  0  0  0  0  0
  1  2  1  0
  2  3  1  0
  3  4  1  0
  3  5  2  0
  4  6  1  0
  5  7  1  0
  6  7  2  0
  6  8  1  0
  7  9  1  0
  9 10  1  1
  8 11  2  0
  9 12  1  0
 12 11  1  6
 10 13  1  0
 12 14  1  0
 12 15  1  0
 15 16  1  0
 14 17  1  0
 16 17  1  0
 17 18  1  1
M  END
