mac-x0255-diamond-x0900_1_A
     RDKit          3D

 21 23  0  0  0  0  0  0  0  0999 V2000
    0.6380   12.3810   -1.5920 O   0  0  0  0  0  0  0  0  0  0  0  0
    0.5200   12.1020   -2.9220 C   0  0  0  0  0  0  0  0  0  0  0  0
   -0.2800   11.2290   -3.4220 N   0  0  0  0  0  0  0  0  0  0  0  0
    1.4250   12.9270   -3.8090 C   0  0  0  0  0  0  0  0  0  0  0  0
   -0.3920   10.9440   -4.8710 C   0  0  0  0  0  0  0  0  0  0  0  0
    0.7000   14.1670   -4.2610 C   0  0  0  0  0  0  0  0  0  0  0  0
   -0.6260    9.4340   -5.0330 C   0  0  0  0  0  0  0  0  0  0  0  0
    1.2430   15.4030   -4.5180 C   0  0  0  0  0  0  0  0  0  0  0  0
   -0.9910   14.1760   -4.5200 S   0  0  0  0  0  0  0  0  0  0  0  0
    0.2800   16.3790   -4.9340 C   0  0  0  0  0  0  0  0  0  0  0  0
   -1.0060   15.8350   -4.9780 C   0  0  0  0  0  0  0  0  0  0  0  0
   -0.4550    8.7380   -6.4100 C   0  0  2  0  0  0  0  0  0  0  0  0
    0.4480   17.7350   -5.2850 C   0  0  0  0  0  0  0  0  0  0  0  0
   -2.1220   16.6090   -5.3630 C   0  0  0  0  0  0  0  0  0  0  0  0
   -0.0240    9.5600   -7.5190 N   0  0  0  0  0  0  0  0  0  0  0  0
   -1.7960    8.1910   -6.8870 C   0  0  0  0  0  0  0  0  0  0  0  0
   -0.6530   18.5030   -5.6690 C   0  0  0  0  0  0  0  0  0  0  0  0
   -1.9190   17.9460   -5.7080 C   0  0  0  0  0  0  0  0  0  0  0  0
   -0.9740    9.6430   -8.5160 C   0  0  0  0  0  0  0  0  0  0  0  0
   -2.2740    9.2250   -7.8990 C   0  0  0  0  0  0  0  0  0  0  0  0
   -0.7900    9.9870   -9.6710 O   0  0  0  0  0  0  0  0  0  0  0  0
  1  2  1  0
  2  3  2  3
  2  4  1  0
  3  5  1  0
  4  6  1  0
  5  7  1  0
  6  8  2  0
  6  9  1  0
  8 10  1  0
  9 11  1  0
 10 11  2  0
 12  7  1  1
 10 13  1  0
 11 14  1  0
 12 15  1  0
 12 16  1  0
 13 17  2  0
 14 18  2  0
 17 18  1  0
 15 19  1  0
 16 20  1  0
 19 20  1  0
 19 21  2  0
M  END
