mac-x0188-diamond-x0628_0_A
     RDKit          3D

 25 28  0  0  0  0  0  0  0  0999 V2000
    0.6550   12.6470   -4.3970 C   0  0  1  0  0  0  0  0  0  0  0  0
    0.9170   12.7040   -5.8620 C   0  0  0  0  0  0  0  0  0  0  0  0
   -0.0050   11.6470   -6.2720 N   0  0  0  0  0  0  0  0  0  0  0  0
    1.6630   12.6340   -3.2660 C   0  0  0  0  0  0  0  0  0  0  0  0
   -0.5070   13.3450   -4.0230 C   0  0  0  0  0  0  0  0  0  0  0  0
    1.2730   13.0110   -2.0210 O   0  0  0  0  0  0  0  0  0  0  0  0
    2.7900   12.2380   -3.4310 O   0  0  0  0  0  0  0  0  0  0  0  0
   -1.5260   13.4630   -4.8760 O   0  0  0  0  0  0  0  0  0  0  0  0
   -0.7530   13.9020   -2.8490 C   0  0  0  0  0  0  0  0  0  0  0  0
    0.2720   13.9090   -1.8530 C   0  0  0  0  0  0  0  0  0  0  0  0
   -2.5530   14.0770   -4.2190 N   0  0  0  0  0  0  0  0  0  0  0  0
   -2.0880   14.2990   -2.9870 C   0  0  0  0  0  0  0  0  0  0  0  0
    0.4780   10.6140   -6.9550 N   0  0  0  0  0  0  0  0  0  0  0  0
   -1.3690   11.4840   -6.0630 C   0  0  0  0  0  0  0  0  0  0  0  0
    0.3040   14.7060   -0.9320 O   0  0  0  0  0  0  0  0  0  0  0  0
   -2.2840   12.3900   -5.3720 C   0  0  0  0  0  0  0  0  0  0  0  0
   -2.9580   14.8330   -2.0110 C   0  0  0  0  0  0  0  0  0  0  0  0
   -1.7510   10.3540   -6.5890 N   0  0  0  0  0  0  0  0  0  0  0  0
   -0.6070    9.8560   -7.1170 C   0  0  0  0  0  0  0  0  0  0  0  0
   -0.5740    8.5670   -7.8120 C   0  0  0  0  0  0  0  0  0  0  0  0
   -4.2040   15.3300   -2.3690 C   0  0  0  0  0  0  0  0  0  0  0  0
   -2.5510   14.8060   -0.6870 C   0  0  0  0  0  0  0  0  0  0  0  0
   -5.0490   15.7970   -1.3750 C   0  0  0  0  0  0  0  0  0  0  0  0
   -3.3910   15.2730    0.3010 C   0  0  0  0  0  0  0  0  0  0  0  0
   -4.6310   15.7610   -0.0520 C   0  0  0  0  0  0  0  0  0  0  0  0
  1  2  1  6
  2  3  1  0
  1  4  1  0
  1  5  1  0
  4  6  1  0
  4  7  2  0
  5  8  1  0
  5  9  2  0
  6 10  1  0
  9 10  1  0
  8 11  1  0
  9 12  1  0
 11 12  2  0
  3 13  1  0
  3 14  1  0
 10 15  2  0
 14 16  1  0
 12 17  1  0
 14 18  2  0
 13 19  2  0
 18 19  1  0
 19 20  1  0
 17 21  2  0
 17 22  1  0
 21 23  1  0
 22 24  2  0
 23 25  2  0
 24 25  1  0
M  END
