mac-x0212-mac-x0404
     RDKit          3D

 29 31  0  0  0  0  0  0  0  0999 V2000
   -6.6440   12.7950    1.5920 C   0  0  0  0  0  0  0  0  0  0  0  0
   -7.0370   14.5070    1.2750 S   0  0  0  0  0  0  0  0  0  0  0  0
   -7.8280   15.0040    2.3750 O   0  0  0  0  0  0  0  0  0  0  0  0
   -7.5080   14.6270   -0.0910 O   0  0  0  0  0  0  0  0  0  0  0  0
   -5.5080   15.2060    1.4170 N   0  0  0  0  0  0  0  0  0  0  0  0
   -4.7260   14.8870    0.3000 C   0  0  0  0  0  0  0  0  0  0  0  0
   -3.6090   14.1170    0.5460 C   0  0  0  0  0  0  0  0  0  0  0  0
   -5.0620   15.2930   -0.9980 C   0  0  0  0  0  0  0  0  0  0  0  0
   -2.8250   13.7070   -0.5050 C   0  0  0  0  0  0  0  0  0  0  0  0
   -4.2700   14.8780   -2.0630 C   0  0  0  0  0  0  0  0  0  0  0  0
   -3.1640   14.0690   -1.8010 C   0  0  0  0  0  0  0  0  0  0  0  0
   -2.3540   13.5760   -2.9000 C   0  0  0  0  0  0  0  0  0  0  0  0
   -1.2620   13.0660   -2.7010 O   0  0  0  0  0  0  0  0  0  0  0  0
   -2.9670   13.7930   -4.1140 O   0  0  0  0  0  0  0  0  0  0  0  0
   -2.0310   14.6150   -4.5480 C   0  0  0  0  0  0  0  0  0  0  0  0
   -2.3490   15.8890   -4.9330 C   0  0  0  0  0  0  0  0  0  0  0  0
   -0.7760   14.0810   -4.5180 C   0  0  0  0  0  0  0  0  0  0  0  0
    0.2630   14.8520   -4.8700 C   0  0  0  0  0  0  0  0  0  0  0  0
   -1.3020   16.7050   -5.3010 C   0  0  0  0  0  0  0  0  0  0  0  0
    1.5390   14.3240   -4.8150 O   0  0  0  0  0  0  0  0  0  0  0  0
    0.0120   16.1800   -5.2650 C   0  0  0  0  0  0  0  0  0  0  0  0
   -1.5210   18.0250   -5.6950 C   0  0  0  0  0  0  0  0  0  0  0  0
    1.5690   12.8870   -4.7480 C   0  0  0  0  0  0  0  0  0  0  0  0
   -0.4490   18.8290   -6.0470 C   0  0  0  0  0  0  0  0  0  0  0  0
    1.0380   17.0020   -5.6260 C   0  0  0  0  0  0  0  0  0  0  0  0
    1.2210   12.2930   -3.3670 C   0  0  0  0  0  0  0  0  0  0  0  0
    0.8350   18.3150   -6.0100 C   0  0  0  0  0  0  0  0  0  0  0  0
    1.7170   13.0070   -2.3220 O   0  0  0  0  0  0  0  0  0  0  0  0
    0.5640   11.2760   -3.1700 O   0  0  0  0  0  0  0  0  0  0  0  0
  1  2  1  0
  2  3  2  0
  2  4  2  0
  2  5  1  0
  5  6  1  0
  6  7  2  0
  6  8  1  0
  7  9  1  0
  8 10  2  0
  9 11  2  0
 10 11  1  0
 11 12  1  0
 12 13  2  0
 12 14  1  0
 14 15  1  0
 15 16  2  0
 15 17  1  0
 17 18  2  0
 16 19  1  0
 18 20  1  0
 18 21  1  0
 19 21  2  0
 19 22  1  0
 20 23  1  0
 22 24  2  0
 21 25  1  0
 23 26  1  0
 24 27  1  0
 25 27  2  0
 26 28  1  0
 26 29  2  0
M  END
