mac-x0223-diamond-x0282_0_A
     RDKit          3D

 28 30  0  0  0  0  0  0  0  0999 V2000
    1.2390   18.4340   -5.7430 C   0  0  0  0  0  0  0  0  0  0  0  0
    0.2070   18.1900   -4.8170 O   0  0  0  0  0  0  0  0  0  0  0  0
   -0.2510   16.9100   -4.8150 C   0  0  0  0  0  0  0  0  0  0  0  0
   -1.6330   16.8190   -4.8400 C   0  0  0  0  0  0  0  0  0  0  0  0
    0.5100   15.7450   -4.7920 C   0  0  0  0  0  0  0  0  0  0  0  0
   -2.3560   17.9730   -4.8590 O   0  0  0  0  0  0  0  0  0  0  0  0
   -2.2890   15.6020   -4.8420 C   0  0  0  0  0  0  0  0  0  0  0  0
   -0.1250   14.4890   -4.7920 C   0  0  0  0  0  0  0  0  0  0  0  0
    0.6860   13.2170   -4.7590 C   0  0  0  0  0  0  0  0  0  0  0  0
   -1.5330   14.4300   -4.8180 C   0  0  0  0  0  0  0  0  0  0  0  0
    0.5830   12.5220   -3.4170 C   0  0  0  0  0  0  0  0  0  0  0  0
    0.1760   11.3780   -3.2390 O   0  0  0  0  0  0  0  0  0  0  0  0
    1.0000   13.3550   -2.4370 O   0  0  0  0  0  0  0  0  0  0  0  0
    0.2230   14.5590   -2.3700 C   0  0  0  0  0  0  0  0  0  0  0  0
   -0.3870   14.5700   -1.0160 C   0  0  0  0  0  0  0  0  0  0  0  0
   -1.7040   14.4690   -0.8990 N   0  0  0  0  0  0  0  0  0  0  0  0
    0.4280   14.6760    0.0380 C   0  0  0  0  0  0  0  0  0  0  0  0
   -0.1650   14.6580    1.2730 C   0  0  0  0  0  0  0  0  0  0  0  0
   -2.2260   14.4700    0.3250 C   0  0  0  0  0  0  0  0  0  0  0  0
   -3.5740   14.3720    0.3930 N   0  0  0  0  0  0  0  0  0  0  0  0
   -1.4850   14.5590    1.4560 N   0  0  0  0  0  0  0  0  0  0  0  0
   -4.1720   14.0260    1.6480 C   0  0  0  0  0  0  0  0  0  0  0  0
   -4.3360   14.3450   -0.8510 C   0  0  0  0  0  0  0  0  0  0  0  0
   -5.4270   14.8650    1.7970 C   0  0  0  0  0  0  0  0  0  0  0  0
   -5.6820   15.0530   -0.7110 C   0  0  0  0  0  0  0  0  0  0  0  0
   -6.3850   14.6920    0.6040 C   0  0  0  0  0  0  0  0  0  0  0  0
   -7.0930   13.3520    0.5610 C   0  0  0  0  0  0  0  0  0  0  0  0
   -8.4350   13.6000    0.1410 O   0  0  0  0  0  0  0  0  0  0  0  0
  1  2  1  0
  2  3  1  0
  3  4  2  0
  3  5  1  0
  4  6  1  0
  4  7  1  0
  5  8  2  0
  8  9  1  0
  7 10  2  0
  8 10  1  0
  9 11  1  0
 11 12  2  0
 11 13  1  0
 13 14  1  0
 14 15  1  0
 15 16  2  0
 15 17  1  0
 17 18  2  0
 16 19  1  0
 19 20  1  0
 18 21  1  0
 19 21  2  0
 20 22  1  0
 20 23  1  0
 22 24  1  0
 23 25  1  0
 24 26  1  0
 25 26  1  0
 26 27  1  0
 27 28  1  0
M  END
