mac-x0321-mac-x0568
     RDKit          3D

 19 20  0  0  0  0  0  0  0  0999 V2000
   -4.2580   16.0770    1.3600 Cl  0  0  0  0  0  0  0  0  0  0  0  0
   -4.5550   15.7120   -0.2900 C   0  0  0  0  0  0  0  0  0  0  0  0
   -3.5030   15.1520   -0.9000 C   0  0  0  0  0  0  0  0  0  0  0  0
   -5.7300   15.9150   -1.0190 C   0  0  0  0  0  0  0  0  0  0  0  0
   -3.5410   14.7580   -2.2170 C   0  0  0  0  0  0  0  0  0  0  0  0
   -5.7870   15.5380   -2.3580 C   0  0  0  0  0  0  0  0  0  0  0  0
   -2.2720   14.1110   -2.5800 C   0  0  0  0  0  0  0  0  0  0  0  0
   -4.6850   14.9550   -2.9750 C   0  0  0  0  0  0  0  0  0  0  0  0
   -2.3040   13.3280   -3.7550 O   0  0  0  0  0  0  0  0  0  0  0  0
   -1.1670   14.9870   -2.7140 O   0  0  0  0  0  0  0  0  0  0  0  0
   -2.2980   13.2320   -1.2460 C   0  0  1  0  0  0  0  0  0  0  0  0
   -1.2140   13.5250   -0.2880 N   0  0  0  0  0  0  0  0  0  0  0  0
   -3.7170   13.3720   -0.5810 C   0  0  0  0  0  0  0  0  0  0  0  0
   -4.9280   13.2500   -1.2980 C   0  0  0  0  0  0  0  0  0  0  0  0
   -3.8840   13.6480    0.7920 C   0  0  0  0  0  0  0  0  0  0  0  0
   -6.1860   13.3870   -0.7820 N   0  0  0  0  0  0  0  0  0  0  0  0
   -5.1700   13.7930    1.3350 C   0  0  0  0  0  0  0  0  0  0  0  0
   -6.2900   13.6630    0.5310 C   0  0  0  0  0  0  0  0  0  0  0  0
   -7.6650   13.8290    1.1180 C   0  0  0  0  0  0  0  0  0  0  0  0
  1  2  1  0
  2  3  2  0
  2  4  1  0
  3  5  1  0
  4  6  2  0
  5  7  1  0
  5  8  2  0
  6  8  1  0
  7  9  1  0
  7 10  1  0
  7 11  1  0
 11 12  1  1
 11 13  1  0
 13 14  2  0
 13 15  1  0
 14 16  1  0
 15 17  2  0
 16 18  2  0
 17 18  1  0
 18 19  1  0
M  END
