mac-x0163-diamond-x0722_0_A
     RDKit          3D

 21 23  0  0  0  0  0  0  0  0999 V2000
   -4.2180   15.1110   -1.4870 C   0  0  0  0  0  0  0  0  0  0  0  0
   -5.4990   14.7870   -0.6940 C   0  0  0  0  0  0  0  0  0  0  0  0
   -6.5470   15.4270   -0.7500 O   0  0  0  0  0  0  0  0  0  0  0  0
   -2.9070   15.4300   -0.6860 C   0  0  1  0  0  0  0  0  0  0  0  0
   -5.4330   13.6770    0.1010 N   0  0  0  0  0  0  0  0  0  0  0  0
   -2.8900   14.8150    0.7360 C   0  0  2  0  0  0  0  0  0  0  0  0
   -1.6690   14.9760   -1.5250 C   0  0  2  0  0  0  0  0  0  0  0  0
   -3.8430   15.4670    1.6010 N   0  0  0  0  0  0  0  0  0  0  0  0
   -0.5940   14.5930   -0.6480 N   0  0  0  0  0  0  0  0  0  0  0  0
   -1.6310   14.9200    1.4430 N   0  0  0  0  0  0  0  0  0  0  0  0
   -1.0470   15.8060   -2.5660 N   0  0  0  0  0  0  0  0  0  0  0  0
   -0.7620   13.2180   -0.3940 C   0  0  0  0  0  0  0  0  0  0  0  0
   -0.5230   15.3000    0.6020 C   0  0  0  0  0  0  0  0  0  0  0  0
    0.3870   15.6120   -2.8050 C   0  0  0  0  0  0  0  0  0  0  0  0
   -1.8330   15.8380   -3.8000 C   0  0  0  0  0  0  0  0  0  0  0  0
    0.7460   14.2860   -3.5020 C   0  0  0  0  0  0  0  0  0  0  0  0
   -1.1350   15.1480   -4.9700 C   0  0  0  0  0  0  0  0  0  0  0  0
    2.1900   14.2730   -4.0900 C   0  0  0  0  0  0  0  0  0  0  0  0
    1.2470   13.1060   -2.5810 C   0  0  0  0  0  0  0  0  0  0  0  0
   -0.3000   13.9280   -4.5680 C   0  0  0  0  0  0  0  0  0  0  0  0
    2.6920   13.5620   -2.8220 C   0  0  0  0  0  0  0  0  0  0  0  0
  1  2  1  0
  2  3  2  0
  4  1  1  6
  2  5  1  0
  4  6  1  0
  4  7  1  0
  6  8  1  1
  7  9  1  0
  6 10  1  0
  7 11  1  6
  9 12  1  0
  9 13  1  0
 10 13  1  0
 11 14  1  0
 11 15  1  0
 16 14  1  0
 15 17  1  0
 16 18  1  0
 16 19  1  0
 16 20  1  0
 17 20  1  0
 18 21  1  0
 19 21  1  0
M  END
