mac-x0282-mac-x0116
     RDKit          3D

 16 18  0  0  0  0  0  0  0  0999 V2000
   -6.0390   14.7670    1.8270 C   0  0  0  0  0  0  0  0  0  0  0  0
   -4.6450   15.1830    2.0090 N   0  0  0  0  0  0  0  0  0  0  0  0
   -3.8620   15.0890    0.8320 N   0  0  0  0  0  0  0  0  0  0  0  0
   -6.3550   13.3190    1.7740 C   0  0  0  0  0  0  0  0  0  0  0  0
   -6.2060   12.6900    0.5690 O   0  0  0  0  0  0  0  0  0  0  0  0
   -6.8040   12.4340    2.7230 C   0  0  0  0  0  0  0  0  0  0  0  0
   -4.4350   15.2610   -0.3900 C   0  0  0  0  0  0  0  0  0  0  0  0
   -2.5100   14.8360    0.6990 C   0  0  0  0  0  0  0  0  0  0  0  0
   -6.9470   11.1990    2.0700 C   0  0  0  0  0  0  0  0  0  0  0  0
   -6.5700   11.4010    0.7650 C   0  0  0  0  0  0  0  0  0  0  0  0
   -3.4630   15.1210   -1.3430 C   0  0  0  0  0  0  0  0  0  0  0  0
   -2.2430   14.8530   -0.6690 C   0  0  0  0  0  0  0  0  0  0  0  0
   -1.6110   14.6140    1.6900 N   0  0  0  0  0  0  0  0  0  0  0  0
   -0.9230   14.6260   -1.0830 C   0  0  0  0  0  0  0  0  0  0  0  0
   -0.3600   14.4080    1.2330 C   0  0  0  0  0  0  0  0  0  0  0  0
    0.0340   14.4030   -0.0990 C   0  0  0  0  0  0  0  0  0  0  0  0
  1  2  1  0
  2  3  1  0
  1  4  1  0
  4  5  1  0
  4  6  2  0
  3  7  1  0
  3  8  1  0
  6  9  1  0
  5 10  1  0
  9 10  2  0
  7 11  2  0
  8 12  2  0
 11 12  1  0
  8 13  1  0
 12 14  1  0
 13 15  2  0
 14 16  2  0
 15 16  1  0
M  END
