mac-x0115-mac-x0404
     RDKit          3D

 31 34  0  0  0  0  0  0  0  0999 V2000
    0.7600   17.9350   -3.6710 C   0  0  0  0  0  0  0  0  0  0  0  0
    1.0770   17.3000   -4.9420 C   0  0  1  0  0  0  0  0  0  0  0  0
    1.1240   18.3660   -5.9420 C   0  0  0  0  0  0  0  0  0  0  0  0
    1.9790   16.2360   -4.8900 O   0  0  0  0  0  0  0  0  0  0  0  0
    1.2520   15.0470   -5.1320 C   0  0  0  0  0  0  0  0  0  0  0  0
   -0.2070   17.8830   -5.9440 C   0  0  0  0  0  0  0  0  0  0  0  0
   -1.1790   18.1880   -6.7870 C   0  0  0  0  0  0  0  0  0  0  0  0
   -0.3760   16.9470   -4.8740 C   0  0  0  0  0  0  0  0  0  0  0  0
   -1.5470   16.2260   -4.6550 C   0  0  0  0  0  0  0  0  0  0  0  0
   -2.3330   17.4950   -6.6000 C   0  0  0  0  0  0  0  0  0  0  0  0
   -1.9000   15.2550   -3.6180 C   0  0  0  0  0  0  0  0  0  0  0  0
   -2.5280   16.5240   -5.6150 C   0  0  0  0  0  0  0  0  0  0  0  0
   -1.3030   14.7300   -2.3880 N   0  0  0  0  0  0  0  0  0  0  0  0
   -3.7430   15.8630   -5.6220 C   0  0  0  0  0  0  0  0  0  0  0  0
   -3.1420   14.6280   -3.7040 C   0  0  0  0  0  0  0  0  0  0  0  0
   -0.0140   14.5070   -1.8700 C   0  0  0  0  0  0  0  0  0  0  0  0
   -2.2830   14.8040   -1.4350 C   0  0  0  0  0  0  0  0  0  0  0  0
   -4.0420   14.9120   -4.6870 C   0  0  0  0  0  0  0  0  0  0  0  0
    1.3370   14.1070   -2.9080 S   0  0  0  0  0  0  0  0  0  0  0  0
    0.1810   14.5510   -0.4650 N   0  0  0  0  0  0  0  0  0  0  0  0
   -2.1490   14.1430   -0.1250 C   0  0  1  0  0  0  0  0  0  0  0  0
   -3.4440   15.4550   -1.5510 C   0  0  0  0  0  0  0  0  0  0  0  0
   -0.8330   14.5110    0.4990 C   0  0  0  0  0  0  0  0  0  0  0  0
   -3.3720   14.5290    0.6140 N   0  0  0  0  0  0  0  0  0  0  0  0
   -4.0350   15.2350   -0.2490 C   0  0  0  0  0  0  0  0  0  0  0  0
    2.8940   13.6700   -2.2280 C   0  0  0  0  0  0  0  0  0  0  0  0
   -0.6320   14.7400    1.6960 O   0  0  0  0  0  0  0  0  0  0  0  0
    2.8560   12.3570   -2.7360 O   0  0  0  0  0  0  0  0  0  0  0  0
    1.5960   12.0380   -3.2170 C   0  0  0  0  0  0  0  0  0  0  0  0
    0.7330   11.4500   -2.5730 O   0  0  0  0  0  0  0  0  0  0  0  0
    1.4200   12.4660   -4.6530 C   0  0  0  0  0  0  0  0  0  0  0  0
  2  1  1  1
  2  3  1  0
  2  4  1  0
  4  5  1  0
  3  6  1  0
  6  7  2  0
  6  8  1  0
  8  9  2  0
  7 10  1  0
  9 11  1  0
  9 12  1  0
 10 12  2  0
 11 13  1  0
 12 14  1  0
 11 15  2  0
 13 16  1  0
 13 17  1  0
 14 18  2  0
 15 18  1  0
 16 19  2  3
 16 20  1  0
 17 21  1  0
 17 22  2  0
 20 23  1  0
 21 23  1  0
 21 24  1  1
 22 25  1  0
 24 25  2  0
 19 26  1  0
 23 27  2  0
 26 28  1  0
 28 29  1  0
 29 30  2  0
 29 31  1  0
M  END
