mac-x0159-diamond-x0282_0_A
     RDKit          3D

 24 27  0  0  0  0  0  0  0  0999 V2000
   -4.7980   16.1030   -0.2430 N   0  0  0  0  0  0  0  0  0  0  0  0
   -3.5940   15.8080   -0.9550 C   0  0  1  0  0  0  0  0  0  0  0  0
   -2.4500   15.3060   -0.1820 C   0  0  2  0  0  0  0  0  0  0  0  0
   -3.9090   15.0110   -2.0930 N   0  0  0  0  0  0  0  0  0  0  0  0
   -2.8570   15.1960   -3.0690 C   0  0  0  0  0  0  0  0  0  0  0  0
   -1.5850   14.5800   -1.1580 C   0  0  1  0  0  0  0  0  0  0  0  0
   -2.5880   14.2090    0.7740 C   0  0  1  0  0  0  0  0  0  0  0  0
   -1.5490   15.2210   -2.4290 N   0  0  0  0  0  0  0  0  0  0  0  0
   -0.3820   14.4910   -0.3810 N   0  0  0  0  0  0  0  0  0  0  0  0
   -0.9860   14.0450    0.9050 C   0  0  0  0  0  0  0  0  0  0  0  0
   -3.3560   14.5680    2.0360 C   0  0  0  0  0  0  0  0  0  0  0  0
   -3.5430   13.1960    0.0460 C   0  0  0  0  0  0  0  0  0  0  0  0
   -0.4750   14.8350   -3.3170 C   0  0  0  0  0  0  0  0  0  0  0  0
   -4.7750   15.1300    1.8450 C   0  0  0  0  0  0  0  0  0  0  0  0
   -5.0220   13.6780   -0.1330 C   0  0  0  0  0  0  0  0  0  0  0  0
   -0.1760   16.0320   -4.1630 C   0  0  0  0  0  0  0  0  0  0  0  0
   -5.6520   14.0430    1.2200 C   0  0  2  0  0  0  0  0  0  0  0  0
   -7.1820   14.2800    1.2610 C   0  0  0  0  0  0  0  0  0  0  0  0
    1.0610   16.5850   -4.3440 C   0  0  0  0  0  0  0  0  0  0  0  0
   -1.2110   16.6760   -4.8360 N   0  0  0  0  0  0  0  0  0  0  0  0
   -7.7940   14.4710   -0.0100 O   0  0  0  0  0  0  0  0  0  0  0  0
   -0.7320   17.7020   -5.5080 C   0  0  0  0  0  0  0  0  0  0  0  0
    0.9540   17.9470   -5.3740 S   0  0  0  0  0  0  0  0  0  0  0  0
   -1.5350   18.6270   -6.3470 C   0  0  0  0  0  0  0  0  0  0  0  0
  2  1  1  1
  3  2  1  6
  2  4  1  0
  4  5  1  0
  3  6  1  0
  3  7  1  0
  5  8  1  0
  6  8  1  0
  6  9  1  1
  7 10  1  1
  9 10  1  0
  7 11  1  0
  7 12  1  0
  8 13  1  0
 11 14  1  0
 12 15  1  0
 13 16  1  0
 14 17  1  0
 15 17  1  0
 17 18  1  6
 16 19  2  0
 16 20  1  0
 18 21  1  0
 20 22  2  0
 19 23  1  0
 22 23  1  0
 22 24  1  0
M  END
