mac-x0436-mac-x0584
     RDKit          3D

 34 39  0  0  0  0  0  0  0  0999 V2000
    3.1860   12.6210   -2.9750 O   0  0  0  0  0  0  0  0  0  0  0  0
    2.0540   12.2480   -3.6670 C   0  0  0  0  0  0  0  0  0  0  0  0
    2.1340   10.8900   -3.7420 O   0  0  0  0  0  0  0  0  0  0  0  0
    1.8730   12.8600   -5.0580 C   0  0  0  0  0  0  0  0  0  0  0  0
    0.9000   12.5560   -2.8160 C   0  0  2  0  0  0  0  0  0  0  0  0
    0.4180   13.1680   -5.4720 C   0  0  0  0  0  0  0  0  0  0  0  0
   -0.1180   11.3980   -2.7200 C   0  0  0  0  0  0  0  0  0  0  0  0
   -0.2540   13.3850   -3.4270 C   0  0  1  0  0  0  0  0  0  0  0  0
   -0.4190   11.9810   -5.9130 C   0  0  0  0  0  0  0  0  0  0  0  0
   -1.1450   12.5080   -2.4970 C   0  0  0  0  0  0  0  0  0  0  0  0
   -0.2630   14.9090   -3.3560 C   0  0  1  0  0  0  0  0  0  0  0  0
   -1.7460   11.7210   -5.1740 C   0  0  0  0  0  0  0  0  0  0  0  0
   -0.0200   11.2280   -6.8820 N   0  0  0  0  0  0  0  0  0  0  0  0
   -0.5500   15.5330   -4.7360 C   0  0  0  0  0  0  0  0  0  0  0  0
   -1.3750   15.4380   -2.5930 N   0  0  0  0  0  0  0  0  0  0  0  0
   -2.2180   12.5310   -4.4020 O   0  0  0  0  0  0  0  0  0  0  0  0
   -2.3690   10.5390   -5.4540 N   0  0  0  0  0  0  0  0  0  0  0  0
   -0.8020   10.1230   -7.2280 C   0  0  0  0  0  0  0  0  0  0  0  0
   -2.5660   15.3260   -3.4540 C   0  0  0  0  0  0  0  0  0  0  0  0
   -2.0480   15.3460   -4.8910 C   0  0  0  0  0  0  0  0  0  0  0  0
   -1.5030   15.2810   -1.2380 C   0  0  0  0  0  0  0  0  0  0  0  0
   -1.9650    9.7600   -6.5260 C   0  0  0  0  0  0  0  0  0  0  0  0
   -0.3910    9.3400   -8.2970 C   0  0  0  0  0  0  0  0  0  0  0  0
   -0.3710   15.0450   -0.4950 N   0  0  0  0  0  0  0  0  0  0  0  0
   -2.6390   15.3290   -0.5520 C   0  0  0  0  0  0  0  0  0  0  0  0
   -1.1210    8.2090   -8.6630 C   0  0  0  0  0  0  0  0  0  0  0  0
   -2.6990    8.6330   -6.8860 C   0  0  0  0  0  0  0  0  0  0  0  0
   -0.4140   14.8990    0.8600 C   0  0  0  0  0  0  0  0  0  0  0  0
   -2.6130   15.1420    0.9160 C   0  0  0  0  0  0  0  0  0  0  0  0
   -4.0160   15.5260   -0.8370 C   0  0  0  0  0  0  0  0  0  0  0  0
   -2.2710    7.8580   -7.9570 C   0  0  0  0  0  0  0  0  0  0  0  0
   -1.4610   14.9230    1.6040 N   0  0  0  0  0  0  0  0  0  0  0  0
   -3.7950   15.2230    1.4350 N   0  0  0  0  0  0  0  0  0  0  0  0
   -4.6230   15.4480    0.3490 C   0  0  0  0  0  0  0  0  0  0  0  0
  2  1  1  0
  2  3  1  0
  2  4  1  0
  5  2  1  6
  4  6  1  0
  5  7  1  0
  5  8  1  0
  6  9  1  0
  7 10  1  0
  8 10  1  1
  8 11  1  0
  9 12  1  0
  9 13  2  0
 11 14  1  6
 11 15  1  0
 12 16  2  0
 12 17  1  0
 13 18  1  0
 15 19  1  0
 14 20  1  0
 19 20  1  0
 15 21  1  0
 17 22  1  0
 18 22  2  0
 18 23  1  0
 21 24  1  0
 21 25  2  0
 23 26  2  0
 22 27  1  0
 24 28  1  0
 25 29  1  0
 25 30  1  0
 26 31  1  0
 27 31  2  0
 28 32  2  0
 29 32  1  0
 29 33  2  0
 30 34  2  0
 33 34  1  0
M  END
