mac-x0510-diamond-x0895_0_A
     RDKit          3D

 12 13  0  0  0  0  0  0  0  0999 V2000
   -5.9300   14.9410    0.9960 O   0  0  0  0  0  0  0  0  0  0  0  0
   -4.7960   15.0190    0.5440 C   0  0  0  0  0  0  0  0  0  0  0  0
   -4.5620   15.4200   -0.7620 N   0  0  0  0  0  0  0  0  0  0  0  0
   -3.6780   14.6540    1.4790 N   0  0  1  0  0  0  0  0  0  0  0  0
   -3.5520   13.3140    1.5920 O   0  0  0  0  0  0  0  0  0  0  0  0
   -2.3870   14.9780    0.9190 C   0  0  0  0  0  0  0  0  0  0  0  0
   -3.3070   15.4920   -1.3200 C   0  0  0  0  0  0  0  0  0  0  0  0
   -3.1370   15.6480   -2.5230 O   0  0  0  0  0  0  0  0  0  0  0  0
   -2.2460   15.3580   -0.3850 C   0  0  0  0  0  0  0  0  0  0  0  0
   -1.2090   14.9240    1.5750 N   0  0  0  0  0  0  0  0  0  0  0  0
   -0.9050   15.5510   -0.5470 N   0  0  0  0  0  0  0  0  0  0  0  0
   -0.3200   15.2780    0.6670 C   0  0  0  0  0  0  0  0  0  0  0  0
  1  2  2  0
  2  3  1  0
  2  4  1  0
  4  5  1  6
  4  6  1  0
  3  7  1  0
  7  8  2  0
  6  9  2  0
  7  9  1  0
  6 10  1  0
  9 11  1  0
 10 12  2  0
 11 12  1  0
M  CHG  2   4   1   5  -1
M  END
