mac-x0116-mac-x0159
     RDKit          3D

 23 26  0  0  0  0  0  0  0  0999 V2000
   -5.9140   14.6940    1.6270 C   0  0  0  0  0  0  0  0  0  0  0  0
   -4.4950   14.9840    1.5610 N   0  0  0  0  0  0  0  0  0  0  0  0
   -3.7040   14.9450    0.4050 C   0  0  0  0  0  0  0  0  0  0  0  0
   -6.3230   13.2640    1.6550 C   0  0  0  0  0  0  0  0  0  0  0  0
   -6.2580   12.5740    0.4780 O   0  0  0  0  0  0  0  0  0  0  0  0
   -6.7850   12.4470    2.6600 C   0  0  0  0  0  0  0  0  0  0  0  0
   -7.0210   11.1910    2.0720 C   0  0  0  0  0  0  0  0  0  0  0  0
   -6.6840   11.3180    0.7470 C   0  0  0  0  0  0  0  0  0  0  0  0
   -4.2620   15.1070   -0.8700 N   0  0  0  0  0  0  0  0  0  0  0  0
   -2.3830   14.7460    0.5450 C   0  0  0  0  0  0  0  0  0  0  0  0
   -3.4700   15.0540   -1.9160 C   0  0  0  0  0  0  0  0  0  0  0  0
   -1.5300   14.6920   -0.6570 C   0  0  0  0  0  0  0  0  0  0  0  0
   -1.6080   14.5700    1.6470 N   0  0  0  0  0  0  0  0  0  0  0  0
   -2.0960   14.8490   -1.9050 N   0  0  0  0  0  0  0  0  0  0  0  0
   -0.3120   14.4950   -0.2560 N   0  0  0  0  0  0  0  0  0  0  0  0
   -0.4330   14.4330    1.1310 C   0  0  0  0  0  0  0  0  0  0  0  0
   -1.2990   14.5920   -3.1370 C   0  0  0  0  0  0  0  0  0  0  0  0
   -0.6880   15.7550   -3.9250 C   0  0  0  0  0  0  0  0  0  0  0  0
    0.6430   16.1660   -3.9340 C   0  0  0  0  0  0  0  0  0  0  0  0
   -1.5100   16.5320   -4.7460 N   0  0  0  0  0  0  0  0  0  0  0  0
   -0.8200   17.4870   -5.3390 C   0  0  0  0  0  0  0  0  0  0  0  0
    0.8470   17.5260   -4.9640 S   0  0  0  0  0  0  0  0  0  0  0  0
   -1.3880   18.4940   -6.2810 C   0  0  0  0  0  0  0  0  0  0  0  0
  1  2  1  0
  2  3  1  0
  1  4  1  0
  4  5  1  0
  4  6  2  0
  6  7  1  0
  5  8  1  0
  7  8  2  0
  3  9  1  0
  3 10  2  0
  9 11  2  0
 10 12  1  0
 10 13  1  0
 11 14  1  0
 12 14  1  0
 12 15  2  0
 13 16  2  0
 15 16  1  0
 14 17  1  0
 17 18  1  0
 18 19  2  0
 18 20  1  0
 20 21  2  0
 19 22  1  0
 21 22  1  0
 21 23  1  0
M  END
