mac-x0358-mac-x0131
     RDKit          3D

 28 31  0  0  0  0  0  0  0  0999 V2000
    2.6020   12.4090   -3.2990 O   0  0  0  0  0  0  0  0  0  0  0  0
    2.0180   11.2650   -3.7000 C   0  0  0  0  0  0  0  0  0  0  0  0
    0.7590   11.0880   -3.8330 N   0  0  0  0  0  0  0  0  0  0  0  0
    0.4260   12.2810   -3.4870 C   0  0  0  0  0  0  0  0  0  0  0  0
   -0.4550   13.2160   -3.9720 C   0  0  0  0  0  0  0  0  0  0  0  0
    1.0420   12.7970   -2.4400 C   0  0  0  0  0  0  0  0  0  0  0  0
   -1.4150   13.3540   -4.9720 C   0  0  0  0  0  0  0  0  0  0  0  0
   -0.2730   14.2680   -3.1850 C   0  0  0  0  0  0  0  0  0  0  0  0
    0.6230   14.0280   -2.2380 O   0  0  0  0  0  0  0  0  0  0  0  0
   -0.8590   15.5760   -3.1580 C   0  0  0  0  0  0  0  0  0  0  0  0
   -1.9440   12.3120   -5.6920 C   0  0  0  0  0  0  0  0  0  0  0  0
   -1.8490   14.6620   -5.1810 C   0  0  0  0  0  0  0  0  0  0  0  0
   -1.5070   11.0300   -5.4750 O   0  0  0  0  0  0  0  0  0  0  0  0
   -2.9340   12.5840   -6.6300 C   0  0  0  0  0  0  0  0  0  0  0  0
   -2.8320   14.9410   -6.1030 C   0  0  0  0  0  0  0  0  0  0  0  0
   -1.9270   15.4200   -2.2480 N   0  0  0  0  0  0  0  0  0  0  0  0
   -3.3770   13.8990   -6.8310 C   0  0  0  0  0  0  0  0  0  0  0  0
   -3.2570   15.3610   -2.5210 C   0  0  0  0  0  0  0  0  0  0  0  0
   -1.6900   15.2860   -0.9350 C   0  0  0  0  0  0  0  0  0  0  0  0
   -3.7820   15.4240   -3.8930 C   0  0  0  0  0  0  0  0  0  0  0  0
   -3.9150   15.2330   -1.3180 C   0  0  0  0  0  0  0  0  0  0  0  0
   -2.8990   15.1690   -0.3030 C   0  0  0  0  0  0  0  0  0  0  0  0
   -0.4670   15.2710   -0.3910 N   0  0  0  0  0  0  0  0  0  0  0  0
   -5.3860   15.1590   -1.1210 C   0  0  0  0  0  0  0  0  0  0  0  0
   -2.8380   15.0240    1.0790 C   0  0  0  0  0  0  0  0  0  0  0  0
   -0.5250   15.1060    0.9220 C   0  0  0  0  0  0  0  0  0  0  0  0
   -3.9800   14.9120    1.8540 N   0  0  0  0  0  0  0  0  0  0  0  0
   -1.6300   14.9800    1.6830 N   0  0  0  0  0  0  0  0  0  0  0  0
  1  2  1  0
  2  3  2  3
  3  4  1  0
  4  5  1  0
  4  6  2  0
  5  7  1  0
  5  8  2  0
  6  9  1  0
  8  9  1  0
  8 10  1  0
  7 11  2  0
  7 12  1  0
 11 13  1  0
 11 14  1  0
 12 15  2  0
 10 16  1  0
 14 17  2  0
 15 17  1  0
 16 18  1  0
 16 19  1  0
 18 20  1  0
 18 21  2  0
 19 22  2  0
 21 22  1  0
 19 23  1  0
 21 24  1  0
 22 25  1  0
 23 26  2  0
 25 27  1  0
 25 28  2  0
 26 28  1  0
M  END
