mac-x0301-mac-x0588
     RDKit          3D

 18 20  0  0  0  0  0  0  0  0999 V2000
    0.2760   14.2900   -2.9610 O   0  0  0  0  0  0  0  0  0  0  0  0
   -0.8930   15.0690   -3.2230 C   0  0  0  0  0  0  0  0  0  0  0  0
   -1.5430   14.3980   -4.2970 O   0  0  0  0  0  0  0  0  0  0  0  0
   -1.7000   15.1630   -1.9340 C   0  0  0  0  0  0  0  0  0  0  0  0
   -0.4520   16.4810   -3.7470 C   0  0  2  0  0  0  0  0  0  0  0  0
   -1.2080   14.9090   -0.6540 C   0  0  0  0  0  0  0  0  0  0  0  0
   -3.0530   15.5440   -1.9920 C   0  0  0  0  0  0  0  0  0  0  0  0
   -1.5290   17.2820   -4.3310 O   0  0  0  0  0  0  0  0  0  0  0  0
    0.6650   16.4500   -4.7760 C   0  0  0  0  0  0  0  0  0  0  0  0
   -1.9900   15.0330    0.4900 C   0  0  0  0  0  0  0  0  0  0  0  0
   -3.8450   15.6640   -0.8360 C   0  0  0  0  0  0  0  0  0  0  0  0
    0.0590   14.5180   -0.3540 O   0  0  0  0  0  0  0  0  0  0  0  0
    0.5560   17.8130   -5.4000 C   0  0  0  0  0  0  0  0  0  0  0  0
   -0.9450   18.0780   -5.3770 C   0  0  0  0  0  0  0  0  0  0  0  0
   -3.3250   15.4130    0.4340 C   0  0  0  0  0  0  0  0  0  0  0  0
   -1.2920   14.7470    1.6380 O   0  0  0  0  0  0  0  0  0  0  0  0
    0.0080   14.5020    1.0870 C   0  0  0  0  0  0  0  0  0  0  0  0
   -4.1380   15.5540    1.5710 N   0  0  0  0  0  0  0  0  0  0  0  0
  2  1  1  0
  2  3  1  0
  2  4  1  0
  5  2  1  6
  4  6  1  0
  4  7  2  0
  5  8  1  0
  5  9  1  0
  6 10  2  0
  7 11  1  0
  6 12  1  0
  9 13  1  0
  8 14  1  0
 13 14  1  0
 10 15  1  0
 11 15  2  0
 10 16  1  0
 12 17  1  0
 16 17  1  0
 15 18  1  0
M  END
