mac-x0345-mac-x0379
     RDKit          3D

 18 19  0  0  0  0  0  0  0  0999 V2000
   -8.7450   14.3370    0.5230 C   0  0  0  0  0  0  0  0  0  0  0  0
   -7.4460   14.6250   -0.1430 C   0  0  0  0  0  0  0  0  0  0  0  0
   -7.4820   14.7050   -1.4990 N   0  0  0  0  0  0  0  0  0  0  0  0
   -6.2960   14.7910    0.5910 C   0  0  0  0  0  0  0  0  0  0  0  0
   -6.3260   14.6380    2.4630 Br  0  0  0  0  0  0  0  0  0  0  0  0
   -5.1570   15.0630   -0.0830 C   0  0  0  0  0  0  0  0  0  0  0  0
   -6.3430   14.9600   -2.1380 C   0  0  0  0  0  0  0  0  0  0  0  0
   -6.3730   15.0140   -3.5160 N   0  0  0  0  0  0  0  0  0  0  0  0
   -3.8520   15.2660    0.4870 C   0  0  0  0  0  0  0  0  0  0  0  0
   -5.1810   15.1520   -1.4720 C   0  0  0  0  0  0  0  0  0  0  0  0
   -3.1420   15.1130   -0.7810 C   0  0  0  0  0  0  0  0  0  0  0  0
   -3.7740   15.3240   -1.9200 N   0  0  0  0  0  0  0  0  0  0  0  0
   -1.5100   14.6590   -0.8840 S   0  0  0  0  0  0  0  0  0  0  0  0
   -2.9250   15.1450   -2.9570 C   0  0  0  0  0  0  0  0  0  0  0  0
   -1.6550   14.7920   -2.5900 C   0  0  0  0  0  0  0  0  0  0  0  0
   -0.5800   14.5660   -3.4700 C   0  0  0  0  0  0  0  0  0  0  0  0
   -0.6480   14.3840   -4.6720 O   0  0  0  0  0  0  0  0  0  0  0  0
    0.6090   14.5890   -2.8390 O   0  0  0  0  0  0  0  0  0  0  0  0
  1  2  1  0
  2  3  2  0
  2  4  1  0
  4  5  1  0
  4  6  2  0
  3  7  1  0
  7  8  1  0
  6  9  1  0
  6 10  1  0
  7 10  2  0
  9 11  1  0
 11 12  2  0
 11 13  1  0
 12 14  1  0
 13 15  1  0
 14 15  2  0
 15 16  1  0
 16 17  2  0
 16 18  1  0
M  END
