mac-x0277-diamond-x0905_0_A
     RDKit          3D

 21 22  0  0  0  0  0  0  0  0999 V2000
   -1.2840   18.3820   -5.2140 Cl  0  0  0  0  0  0  0  0  0  0  0  0
   -0.5640   16.8390   -4.9480 C   0  0  0  0  0  0  0  0  0  0  0  0
   -1.3160   15.6590   -4.9990 C   0  0  0  0  0  0  0  0  0  0  0  0
    0.8020   16.7850   -4.6740 C   0  0  0  0  0  0  0  0  0  0  0  0
   -2.7900   15.6190   -5.2710 C   0  0  0  0  0  0  0  0  0  0  0  0
   -0.6680   14.4330   -4.7770 C   0  0  0  0  0  0  0  0  0  0  0  0
    1.4290   15.5520   -4.4520 C   0  0  0  0  0  0  0  0  0  0  0  0
   -3.4630   15.0320   -4.0300 C   0  0  0  0  0  0  0  0  0  0  0  0
    0.6980   14.3660   -4.5040 C   0  0  0  0  0  0  0  0  0  0  0  0
    1.3560   13.0250   -4.2660 C   0  0  0  0  0  0  0  0  0  0  0  0
   -2.7660   15.4890   -2.7330 C   0  0  0  0  0  0  0  0  0  0  0  0
    0.9610   12.4180   -2.9390 C   0  0  0  0  0  0  0  0  0  0  0  0
   -3.6430   15.3660   -1.5130 C   0  0  0  0  0  0  0  0  0  0  0  0
    0.2230   11.2940   -3.0760 O   0  0  0  0  0  0  0  0  0  0  0  0
    1.2260   12.8240   -1.8250 O   0  0  0  0  0  0  0  0  0  0  0  0
   -3.1150   15.3450   -0.2150 C   0  0  0  0  0  0  0  0  0  0  0  0
   -5.0240   15.2660   -1.6700 C   0  0  0  0  0  0  0  0  0  0  0  0
   -3.9950   15.2180    0.8520 C   0  0  0  0  0  0  0  0  0  0  0  0
   -5.8090   15.1440   -0.5450 C   0  0  0  0  0  0  0  0  0  0  0  0
   -7.1650   15.0430   -0.6560 O   0  0  0  0  0  0  0  0  0  0  0  0
   -5.3330   15.1140    0.7080 N   0  0  0  0  0  0  0  0  0  0  0  0
  1  2  1  0
  2  3  2  0
  2  4  1  0
  3  5  1  0
  3  6  1  0
  4  7  2  0
  5  8  1  0
  6  9  2  0
  7  9  1  0
  9 10  1  0
  8 11  1  0
 10 12  1  0
 11 13  1  0
 12 14  1  0
 12 15  2  0
 13 16  2  0
 13 17  1  0
 16 18  1  0
 17 19  2  0
 19 20  1  0
 18 21  2  0
 19 21  1  0
M  END
