mac-x0338-diamond-x0471_0_A
     RDKit          3D

 20 21  0  0  0  0  0  0  0  0999 V2000
   -3.4900   14.8610    1.8650 N   0  0  0  0  0  0  0  0  0  0  0  0
   -4.6730   15.2490    1.3300 C   0  0  0  0  0  0  0  0  0  0  0  0
   -5.6650   15.3570    2.0310 O   0  0  0  0  0  0  0  0  0  0  0  0
   -4.6860   15.4970   -0.1550 C   0  0  1  0  0  0  0  0  0  0  0  0
   -3.3460   15.1250   -0.6970 N   0  0  0  0  0  0  0  0  0  0  0  0
   -5.8420   14.6960   -0.8460 C   0  0  2  0  0  0  0  0  0  0  0  0
   -3.2400   15.0230   -2.0610 C   0  0  0  0  0  0  0  0  0  0  0  0
   -5.5960   14.7060   -2.3160 N   0  0  0  0  0  0  0  0  0  0  0  0
   -7.2280   14.9910   -0.4530 N   0  0  0  0  0  0  0  0  0  0  0  0
   -5.7880   13.2670   -0.2720 C   0  0  0  0  0  0  0  0  0  0  0  0
   -4.3100   14.8260   -2.8340 C   0  0  0  0  0  0  0  0  0  0  0  0
   -7.4140   14.5090    0.9160 C   0  0  2  0  0  0  0  0  0  0  0  0
   -6.5680   13.3220    1.0010 N   0  0  0  0  0  0  0  0  0  0  0  0
   -8.8740   14.2200    1.3630 C   0  0  0  0  0  0  0  0  0  0  0  0
   -9.0080   14.0290    2.8120 N   0  0  0  0  0  0  0  0  0  0  0  0
   -9.2250   15.1230    3.6360 C   0  0  0  0  0  0  0  0  0  0  0  0
   -9.3840   16.2510    3.1880 O   0  0  0  0  0  0  0  0  0  0  0  0
   -9.2940   14.8210    5.1410 C   0  0  0  0  0  0  0  0  0  0  0  0
   -9.6120   13.3570    5.4240 C   0  0  0  0  0  0  0  0  0  0  0  0
   -8.0260   15.2740    5.8620 C   0  0  0  0  0  0  0  0  0  0  0  0
  1  2  1  0
  2  3  2  0
  4  2  1  1
  4  5  1  0
  4  6  1  0
  5  7  1  0
  6  8  1  0
  6  9  1  0
  6 10  1  1
  7 11  2  0
  8 11  1  0
  9 12  1  0
 10 13  1  0
 12 13  1  0
 12 14  1  6
 14 15  1  0
 15 16  1  0
 16 17  2  0
 16 18  1  0
 18 19  1  0
 18 20  1  0
M  END
