mac-x0139-diamond-x0910_1_A
     RDKit          3D

 21 23  0  0  0  0  0  0  0  0999 V2000
   -2.0310   15.4810   -3.2200 C   0  0  0  0  0  0  0  0  0  0  0  0
   -1.0200   14.6530   -2.5380 N   0  0  0  0  0  0  0  0  0  0  0  0
    0.3410   14.8670   -3.0760 C   0  0  0  0  0  0  0  0  0  0  0  0
   -1.1400   14.8080   -1.1360 C   0  0  0  0  0  0  0  0  0  0  0  0
    0.7550   13.6680   -3.9320 C   0  0  0  0  0  0  0  0  0  0  0  0
   -2.3740   14.8490   -0.5760 C   0  0  0  0  0  0  0  0  0  0  0  0
   -0.0550   14.9050   -0.3600 N   0  0  0  0  0  0  0  0  0  0  0  0
    0.9930   12.4810   -3.0390 C   0  0  0  0  0  0  0  0  0  0  0  0
   -2.4550   15.0150    0.7790 C   0  0  0  0  0  0  0  0  0  0  0  0
   -0.2570   15.0490    0.9620 C   0  0  0  0  0  0  0  0  0  0  0  0
   -3.7030   14.7330   -1.2070 C   0  0  0  0  0  0  0  0  0  0  0  0
    1.6810   12.4930   -2.0430 O   0  0  0  0  0  0  0  0  0  0  0  0
    0.3610   11.3570   -3.4480 O   0  0  0  0  0  0  0  0  0  0  0  0
   -1.4330   15.1150    1.6050 N   0  0  0  0  0  0  0  0  0  0  0  0
   -3.7970   15.0740    1.1950 N   0  0  0  0  0  0  0  0  0  0  0  0
   -4.6220   14.8920    0.0110 C   0  0  1  0  0  0  0  0  0  0  0  0
   -5.5090   15.9820   -0.3140 N   0  0  0  0  0  0  0  0  0  0  0  0
   -5.4810   13.8080    0.4160 N   0  0  0  0  0  0  0  0  0  0  0  0
   -6.7230   14.4430    0.6460 C   0  0  1  0  0  0  0  0  0  0  0  0
   -6.8150   15.3110   -0.4820 N   0  0  0  0  0  0  0  0  0  0  0  0
   -7.7240   13.4320    0.5530 N   0  0  0  0  0  0  0  0  0  0  0  0
  1  2  1  0
  2  3  1  0
  2  4  1  0
  3  5  1  0
  4  6  2  0
  4  7  1  0
  5  8  1  0
  6  9  1  0
  7 10  2  0
  6 11  1  0
  8 12  2  0
  8 13  1  0
  9 14  2  0
 10 14  1  0
  9 15  1  0
 16 11  1  6
 16 15  1  0
 16 17  1  0
 16 18  1  0
 18 19  1  0
 17 20  1  0
 19 20  1  0
 19 21  1  6
M  END
