mac-x0326-mac-x0180
     RDKit          3D

 21 23  0  0  0  0  0  0  0  0999 V2000
   -5.6090   15.4380   -1.5950 N   0  0  0  0  0  0  0  0  0  0  0  0
   -6.0500   14.6530   -0.4240 C   0  0  2  0  0  0  0  0  0  0  0  0
   -7.4930   14.9070    0.0240 C   0  0  0  0  0  0  0  0  0  0  0  0
   -4.1930   15.1870   -1.5190 C   0  0  0  0  0  0  0  0  0  0  0  0
   -5.0630   14.9590    0.6320 N   0  0  0  0  0  0  0  0  0  0  0  0
   -3.1280   15.1690   -2.4570 C   0  0  0  0  0  0  0  0  0  0  0  0
   -3.8800   14.9020   -0.1790 C   0  0  0  0  0  0  0  0  0  0  0  0
   -2.9750   15.4120   -3.8830 C   0  0  0  0  0  0  0  0  0  0  0  0
   -1.8750   14.8730   -2.0430 C   0  0  0  0  0  0  0  0  0  0  0  0
   -2.5750   14.6060    0.2570 C   0  0  0  0  0  0  0  0  0  0  0  0
   -3.6860   15.0150   -4.7580 O   0  0  0  0  0  0  0  0  0  0  0  0
   -1.8500   16.1380   -4.1430 O   0  0  0  0  0  0  0  0  0  0  0  0
   -0.8490   14.8490   -2.9730 N   0  0  0  0  0  0  0  0  0  0  0  0
   -1.5670   14.5990   -0.7420 C   0  0  0  0  0  0  0  0  0  0  0  0
    0.2660   14.5600   -2.4100 C   0  0  0  0  0  0  0  0  0  0  0  0
    0.1450   14.2980   -0.7040 S   0  0  0  0  0  0  0  0  0  0  0  0
    1.5370   14.4660   -3.2190 C   0  0  0  0  0  0  0  0  0  0  0  0
    1.5120   13.2050   -4.0720 C   0  0  0  0  0  0  0  0  0  0  0  0
    0.9820   12.1020   -3.2190 C   0  0  0  0  0  0  0  0  0  0  0  0
    0.2370   11.1950   -3.8710 O   0  0  0  0  0  0  0  0  0  0  0  0
    1.1780   12.0050   -2.0290 O   0  0  0  0  0  0  0  0  0  0  0  0
  1  2  1  0
  2  3  1  1
  1  4  1  0
  2  5  1  0
  4  6  1  0
  4  7  2  0
  5  7  1  0
  6  8  1  0
  6  9  2  0
  7 10  1  0
  8 11  2  0
  8 12  1  0
  9 13  1  0
  9 14  1  0
 10 14  2  0
 13 15  2  0
 14 16  1  0
 15 16  1  0
 15 17  1  0
 17 18  1  0
 18 19  1  0
 19 20  1  0
 19 21  2  0
M  END
