mac-x0344-mac-x0453
     RDKit          3D

 23 24  0  0  0  0  0  0  0  0999 V2000
    1.4890   13.6620   -4.5290 O   0  0  0  0  0  0  0  0  0  0  0  0
    1.0060   12.8090   -3.6050 C   0  0  0  0  0  0  0  0  0  0  0  0
    0.9720   12.9620   -2.3330 N   0  0  0  0  0  0  0  0  0  0  0  0
    0.4080   11.5220   -4.1520 C   0  0  0  0  0  0  0  0  0  0  0  0
    0.1930   10.6600   -3.3090 O   0  0  0  0  0  0  0  0  0  0  0  0
    0.1640   11.5060   -5.4980 N   0  0  0  0  0  0  0  0  0  0  0  0
    1.4470   14.2110   -1.7610 C   0  0  0  0  0  0  0  0  0  0  0  0
    0.1860   14.7650   -1.0940 C   0  0  0  0  0  0  0  0  0  0  0  0
   -0.7360   10.6140   -6.0990 C   0  0  0  0  0  0  0  0  0  0  0  0
   -1.0670   14.5360   -1.9640 C   0  0  0  0  0  0  0  0  0  0  0  0
   -0.3740   10.0430   -7.3230 C   0  0  0  0  0  0  0  0  0  0  0  0
   -1.9620   10.2760   -5.5260 C   0  0  0  0  0  0  0  0  0  0  0  0
   -1.2320    9.1450   -7.9640 C   0  0  0  0  0  0  0  0  0  0  0  0
   -2.8200    9.3790   -6.1650 C   0  0  0  0  0  0  0  0  0  0  0  0
   -2.3650   14.7170   -1.3310 N   0  0  0  0  0  0  0  0  0  0  0  0
   -2.4550    8.8130   -7.3840 C   0  0  0  0  0  0  0  0  0  0  0  0
   -2.6580   14.5360   -0.0080 C   0  0  0  0  0  0  0  0  0  0  0  0
   -3.5180   15.1010   -1.9600 C   0  0  0  0  0  0  0  0  0  0  0  0
   -4.0020   14.8240    0.1050 C   0  0  0  0  0  0  0  0  0  0  0  0
   -4.5230   15.1760   -1.1190 N   0  0  0  0  0  0  0  0  0  0  0  0
   -4.8280   14.7770    1.3440 C   0  0  0  0  0  0  0  0  0  0  0  0
   -6.0400   13.8360    1.2680 C   0  0  0  0  0  0  0  0  0  0  0  0
   -7.0160   14.1020    2.3270 N   0  0  0  0  0  0  0  0  0  0  0  0
  1  2  1  0
  2  3  2  3
  2  4  1  0
  4  5  2  0
  4  6  1  0
  3  7  1  0
  7  8  1  0
  6  9  1  0
  8 10  1  0
  9 11  2  0
  9 12  1  0
 11 13  1  0
 12 14  2  0
 10 15  1  0
 13 16  2  0
 14 16  1  0
 15 17  1  0
 15 18  1  0
 17 19  2  0
 18 20  2  0
 19 20  1  0
 19 21  1  0
 21 22  1  0
 22 23  1  0
M  END
