mac-x0333-mac-x0496
     RDKit          3D

 22 24  0  0  0  0  0  0  0  0999 V2000
   -2.4640   14.9640   -2.4740 C   0  0  0  0  0  0  0  0  0  0  0  0
   -2.6770   15.2720   -3.7640 O   0  0  0  0  0  0  0  0  0  0  0  0
   -1.3510   14.7540   -2.0430 O   0  0  0  0  0  0  0  0  0  0  0  0
   -3.7480   14.9330   -1.7390 C   0  0  0  0  0  0  0  0  0  0  0  0
   -4.9140   14.8640   -2.5030 C   0  0  0  0  0  0  0  0  0  0  0  0
   -3.8380   14.9700   -0.3090 C   0  0  0  0  0  0  0  0  0  0  0  0
   -6.1090   14.8320   -1.8410 C   0  0  0  0  0  0  0  0  0  0  0  0
   -5.1490   14.9330    0.2690 C   0  0  0  0  0  0  0  0  0  0  0  0
   -5.5670   14.9740    1.6650 C   0  0  0  0  0  0  0  0  0  0  0  0
   -6.1850   14.8700   -0.5060 C   0  0  0  0  0  0  0  0  0  0  0  0
   -7.3450   14.7630   -2.3800 O   0  0  0  0  0  0  0  0  0  0  0  0
   -6.6120   14.1860    2.1850 N   0  0  0  0  0  0  0  0  0  0  0  0
   -4.9980   15.7700    2.3200 O   0  0  0  0  0  0  0  0  0  0  0  0
   -7.4410   14.8380   -0.0360 O   0  0  0  0  0  0  0  0  0  0  0  0
   -8.1230   15.1530   -1.2370 C   0  0  0  0  0  0  0  0  0  0  0  0
   -8.0400   14.1970    1.7770 C   0  0  0  0  0  0  0  0  0  0  0  0
   -8.8950   15.2380    2.4530 C   0  0  0  0  0  0  0  0  0  0  0  0
  -10.1220   15.5180    1.8930 O   0  0  0  0  0  0  0  0  0  0  0  0
   -8.6670   15.9620    3.5320 N   0  0  0  0  0  0  0  0  0  0  0  0
   -9.8020   16.7240    3.6390 C   0  0  0  0  0  0  0  0  0  0  0  0
  -10.7210   16.5020    2.6900 N   0  0  0  0  0  0  0  0  0  0  0  0
   -9.9950   17.7150    4.7190 C   0  0  0  0  0  0  0  0  0  0  0  0
  1  2  1  0
  1  3  2  0
  1  4  1  0
  4  5  2  0
  4  6  1  0
  5  7  1  0
  6  8  2  0
  8  9  1  0
  7 10  2  0
  8 10  1  0
  7 11  1  0
  9 12  1  0
  9 13  2  0
 10 14  1  0
 11 15  1  0
 14 15  1  0
 12 16  1  0
 16 17  1  0
 17 18  1  0
 17 19  2  0
 19 20  1  0
 18 21  1  0
 20 21  2  0
 20 22  1  0
M  END
