mac-x0226-diamond-x0689_0_A
     RDKit          3D

 24 26  0  0  0  0  0  0  0  0999 V2000
    1.9200   12.2930   -2.2650 O   0  0  0  0  0  0  0  0  0  0  0  0
    0.6580   11.9940   -2.8000 C   0  0  0  0  0  0  0  0  0  0  0  0
    0.1410   10.8110   -2.1700 O   0  0  0  0  0  0  0  0  0  0  0  0
   -0.1550   13.2050   -2.4060 C   0  0  0  0  0  0  0  0  0  0  0  0
    0.7270   11.8880   -4.2800 C   0  0  0  0  0  0  0  0  0  0  0  0
    0.5400   14.0200   -1.3050 C   0  0  0  0  0  0  0  0  0  0  0  0
    1.5680   12.6240   -5.1380 C   0  0  0  0  0  0  0  0  0  0  0  0
    0.0180   11.0710   -5.1370 C   0  0  0  0  0  0  0  0  0  0  0  0
    1.4130   12.2970   -6.4110 N   0  0  0  0  0  0  0  0  0  0  0  0
    0.4550   11.3310   -6.4150 N   0  0  0  0  0  0  0  0  0  0  0  0
   -0.5270   14.3270   -0.3510 C   0  0  0  0  0  0  0  0  0  0  0  0
    0.0300   10.7230   -7.6250 C   0  0  0  0  0  0  0  0  0  0  0  0
   -1.7370   14.6430   -0.8760 C   0  0  0  0  0  0  0  0  0  0  0  0
   -0.4560   14.3250    1.0240 C   0  0  0  0  0  0  0  0  0  0  0  0
   -1.1190    9.9320   -7.6910 C   0  0  0  0  0  0  0  0  0  0  0  0
    0.7750   10.9110   -8.7850 C   0  0  0  0  0  0  0  0  0  0  0  0
   -2.7960   14.9390   -0.1500 N   0  0  0  0  0  0  0  0  0  0  0  0
   -1.5020   14.6150    1.8050 N   0  0  0  0  0  0  0  0  0  0  0  0
   -1.4900    9.3550   -8.9100 C   0  0  0  0  0  0  0  0  0  0  0  0
    0.4130   10.3430   -9.9930 C   0  0  0  0  0  0  0  0  0  0  0  0
   -2.6420   14.9180    1.1670 C   0  0  0  0  0  0  0  0  0  0  0  0
   -3.7980   15.2510    1.8230 N   0  0  0  0  0  0  0  0  0  0  0  0
   -0.7280    9.5600  -10.0590 C   0  0  0  0  0  0  0  0  0  0  0  0
   -4.9100   15.2640    0.9160 C   0  0  0  0  0  0  0  0  0  0  0  0
  2  1  1  0
  2  3  1  0
  2  4  1  0
  2  5  1  0
  4  6  1  0
  5  7  1  0
  5  8  2  0
  7  9  2  0
  8 10  1  0
  9 10  1  0
  6 11  1  0
 10 12  1  0
 11 13  2  0
 11 14  1  0
 12 15  2  0
 12 16  1  0
 13 17  1  0
 14 18  2  0
 15 19  1  0
 16 20  2  0
 17 21  2  0
 18 21  1  0
 21 22  1  0
 19 23  2  0
 20 23  1  0
 22 24  1  0
M  END
