mac-x0223-mac-x0371
     RDKit          3D

 16 16  0  0  0  0  0  0  0  0999 V2000
    1.1460   18.2790   -5.5730 C   0  0  0  0  0  0  0  0  0  0  0  0
    0.5680   17.9090   -4.3270 O   0  0  0  0  0  0  0  0  0  0  0  0
   -0.1460   16.7530   -4.5000 C   0  0  0  0  0  0  0  0  0  0  0  0
   -1.5110   16.9220   -4.7550 C   0  0  0  0  0  0  0  0  0  0  0  0
    0.3940   15.4350   -4.4310 C   0  0  0  0  0  0  0  0  0  0  0  0
   -2.0750   18.1700   -4.8140 O   0  0  0  0  0  0  0  0  0  0  0  0
    2.0530   15.0300   -4.1060 Cl  0  0  0  0  0  0  0  0  0  0  0  0
   -2.3310   15.8410   -4.9430 C   0  0  0  0  0  0  0  0  0  0  0  0
   -0.4270   14.3350   -4.6230 C   0  0  0  0  0  0  0  0  0  0  0  0
    0.1960   12.9490   -4.5420 C   0  0  0  0  0  0  0  0  0  0  0  0
   -1.7940   14.5640   -4.8780 C   0  0  0  0  0  0  0  0  0  0  0  0
    0.3010   12.3850   -3.1110 C   0  0  1  0  0  0  0  0  0  0  0  0
   -2.9330   13.3100   -5.1260 Cl  0  0  0  0  0  0  0  0  0  0  0  0
    0.1250   10.9000   -3.0940 N   0  0  0  0  0  0  0  0  0  0  0  0
    1.4020   12.9240   -2.3860 O   0  0  0  0  0  0  0  0  0  0  0  0
    0.4240   10.4360   -1.9970 O   0  0  0  0  0  0  0  0  0  0  0  0
  1  2  1  0
  2  3  1  0
  3  4  2  0
  3  5  1  0
  4  6  1  0
  5  7  1  0
  4  8  1  0
  5  9  2  0
  9 10  1  0
  8 11  2  0
  9 11  1  0
 10 12  1  0
 11 13  1  0
 12 14  1  0
 12 15  1  6
 14 16  2  0
M  END
