mac-x0348-diamond-x0969_0_A
     RDKit          3D

 28 31  0  0  0  0  0  0  0  0999 V2000
    0.7800   18.5450   -5.9030 C   0  0  0  0  0  0  0  0  0  0  0  0
    0.1840   17.3840   -5.2990 N   0  0  0  0  0  0  0  0  0  0  0  0
    0.8230   16.5330   -4.4430 C   0  0  0  0  0  0  0  0  0  0  0  0
   -1.1050   16.9600   -5.4880 C   0  0  0  0  0  0  0  0  0  0  0  0
   -0.0520   15.5380   -4.0740 C   0  0  0  0  0  0  0  0  0  0  0  0
   -1.2660   15.7980   -4.7370 C   0  0  0  0  0  0  0  0  0  0  0  0
   -2.1470   17.4760   -6.2430 C   0  0  0  0  0  0  0  0  0  0  0  0
    0.2120   14.3950   -3.1380 C   0  0  1  0  0  0  0  0  0  0  0  0
   -2.4950   15.1260   -4.7480 C   0  0  0  0  0  0  0  0  0  0  0  0
   -3.3420   16.7730   -6.2130 C   0  0  0  0  0  0  0  0  0  0  0  0
    1.0610   13.2200   -3.5780 C   0  0  0  0  0  0  0  0  0  0  0  0
    0.3640   14.8440   -1.6690 C   0  0  0  0  0  0  0  0  0  0  0  0
   -3.5300   15.6210   -5.4930 C   0  0  0  0  0  0  0  0  0  0  0  0
    0.7090   12.1480   -2.5920 C   0  0  0  0  0  0  0  0  0  0  0  0
   -0.7120   15.8000   -1.1520 C   0  0  0  0  0  0  0  0  0  0  0  0
    0.8060   12.2550   -1.3870 O   0  0  0  0  0  0  0  0  0  0  0  0
    0.2240   11.0240   -3.1400 O   0  0  0  0  0  0  0  0  0  0  0  0
   -2.0250   15.6940   -1.9500 C   0  0  0  0  0  0  0  0  0  0  0  0
   -3.2410   15.4540   -1.0930 C   0  0  0  0  0  0  0  0  0  0  0  0
   -4.4640   15.2130   -1.6240 C   0  0  0  0  0  0  0  0  0  0  0  0
   -3.0550   15.4870    0.3580 C   0  0  0  0  0  0  0  0  0  0  0  0
   -5.5770   14.9770   -0.7710 C   0  0  0  0  0  0  0  0  0  0  0  0
   -4.1050   15.2690    1.1590 C   0  0  0  0  0  0  0  0  0  0  0  0
   -6.8450   14.7140   -1.0020 N   0  0  0  0  0  0  0  0  0  0  0  0
   -5.3510   15.0110    0.5950 N   0  0  0  0  0  0  0  0  0  0  0  0
   -6.5870   14.7460    1.1620 C   0  0  0  0  0  0  0  0  0  0  0  0
   -7.4770   14.5710    0.2140 N   0  0  0  0  0  0  0  0  0  0  0  0
   -6.8010   14.6950    2.4930 N   0  0  0  0  0  0  0  0  0  0  0  0
  1  2  1  0
  2  3  1  0
  2  4  1  0
  3  5  2  0
  4  6  2  0
  5  6  1  0
  4  7  1  0
  5  8  1  0
  6  9  1  0
  7 10  2  0
  8 11  1  6
  8 12  1  0
  9 13  2  0
 10 13  1  0
 11 14  1  0
 12 15  1  0
 14 16  2  0
 14 17  1  0
 15 18  1  0
 18 19  1  0
 19 20  2  0
 19 21  1  0
 20 22  1  0
 21 23  2  0
 22 24  2  0
 22 25  1  0
 23 25  1  0
 25 26  1  0
 24 27  1  0
 26 27  2  0
 26 28  1  0
M  END
