mac-x0587-mac-x0379
     RDKit          3D

 16 16  0  0  0  0  0  0  0  0999 V2000
    0.0830   16.1240   -4.2070 C   0  0  0  0  0  0  0  0  0  0  0  0
   -0.5790   14.8320   -3.7140 C   0  0  2  0  0  0  0  0  0  0  0  0
   -0.2090   13.5390   -4.9810 S   0  0  0  0  0  0  0  0  0  0  0  0
   -2.1000   15.0350   -3.5010 C   0  0  0  0  0  0  0  0  0  0  0  0
   -0.6180   12.0130   -4.0700 C   0  0  0  0  0  0  0  0  0  0  0  0
   -2.8200   15.3290   -4.4590 O   0  0  0  0  0  0  0  0  0  0  0  0
   -2.6190   14.8740   -2.2210 N   0  0  0  0  0  0  0  0  0  0  0  0
    0.4800   11.5840   -3.1200 C   0  0  0  0  0  0  0  0  0  0  0  0
   -3.9990   15.1360   -1.8210 C   0  0  0  0  0  0  0  0  0  0  0  0
   -1.8430   14.7410   -1.0470 C   0  0  0  0  0  0  0  0  0  0  0  0
    0.5530   10.4350   -2.7180 O   0  0  0  0  0  0  0  0  0  0  0  0
    1.3560   12.5430   -2.7440 O   0  0  0  0  0  0  0  0  0  0  0  0
   -0.6380   14.7440   -0.9010 O   0  0  0  0  0  0  0  0  0  0  0  0
   -3.9420   15.3090   -0.3020 C   0  0  2  0  0  0  0  0  0  0  0  0
   -2.7340   14.6120    0.0160 N   0  0  0  0  0  0  0  0  0  0  0  0
   -5.1700   14.7980    0.4200 C   0  0  0  0  0  0  0  0  0  0  0  0
  2  1  1  6
  2  3  1  0
  2  4  1  0
  3  5  1  0
  4  6  2  0
  4  7  1  0
  5  8  1  0
  7  9  1  0
  7 10  1  0
  8 11  2  0
  8 12  1  0
 10 13  2  0
  9 14  1  0
 10 15  1  0
 14 15  1  0
 14 16  1  1
M  END
