mac-x0398-mac-x0137
     RDKit          3D

 23 25  0  0  0  0  0  0  0  0999 V2000
   -5.6800   15.0280    1.9930 N   0  0  0  0  0  0  0  0  0  0  0  0
   -5.3250   14.3850    0.7410 C   0  0  2  0  0  0  0  0  0  0  0  0
   -3.8330   13.9040    0.6040 C   0  0  0  0  0  0  0  0  0  0  0  0
   -5.7510   15.3200   -0.3720 C   0  0  0  0  0  0  0  0  0  0  0  0
   -5.3690   14.7680   -1.7030 C   0  0  1  0  0  0  0  0  0  0  0  0
   -2.9720   14.5670   -0.5930 C   0  0  1  0  0  0  0  0  0  0  0  0
   -6.0510   15.4320   -2.7530 O   0  0  0  0  0  0  0  0  0  0  0  0
   -3.8540   14.6800   -1.8960 C   0  0  2  0  0  0  0  0  0  0  0  0
   -2.5790   15.8550    0.1320 C   0  0  0  0  0  0  0  0  0  0  0  0
   -1.4840   14.1220   -0.9720 C   0  0  2  0  0  0  0  0  0  0  0  0
   -3.3730   15.5580   -3.0180 C   0  0  0  0  0  0  0  0  0  0  0  0
   -1.0890   13.4030   -2.1930 N   0  0  0  0  0  0  0  0  0  0  0  0
   -0.6800   13.7380    0.1500 N   0  0  0  0  0  0  0  0  0  0  0  0
   -1.7720   15.4750    1.3180 N   0  0  0  0  0  0  0  0  0  0  0  0
   -3.8630   15.6990   -4.1200 O   0  0  0  0  0  0  0  0  0  0  0  0
   -2.2400   16.2230   -2.7080 O   0  0  0  0  0  0  0  0  0  0  0  0
   -1.4730   14.0890   -3.4340 C   0  0  0  0  0  0  0  0  0  0  0  0
    0.2420   12.8670   -2.3540 C   0  0  0  0  0  0  0  0  0  0  0  0
   -0.4990   14.8080    1.0640 C   0  0  0  0  0  0  0  0  0  0  0  0
   -1.6610   13.1250   -4.5960 C   0  0  2  0  0  0  0  0  0  0  0  0
    0.2920   11.8610   -3.5110 C   0  0  0  0  0  0  0  0  0  0  0  0
   -2.7140   12.3200   -4.3020 F   0  0  0  0  0  0  0  0  0  0  0  0
   -0.4200   12.2710   -4.8090 C   0  0  0  0  0  0  0  0  0  0  0  0
  2  1  1  1
  2  3  1  0
  2  4  1  0
  4  5  1  0
  6  3  1  1
  5  7  1  6
  5  8  1  0
  6  8  1  0
  6  9  1  0
  6 10  1  0
  8 11  1  1
 10 12  1  6
 10 13  1  0
  9 14  1  0
 11 15  2  0
 11 16  1  0
 12 17  1  0
 12 18  1  0
 13 19  1  0
 14 19  1  0
 17 20  1  0
 18 21  1  0
 20 22  1  1
 20 23  1  0
 21 23  1  0
M  END
