mac-x0397-diamond-x0837_0_A
     RDKit          3D

 13 14  0  0  0  0  0  0  0  0999 V2000
   -6.5640   14.7440   -2.9980 Cl  0  0  0  0  0  0  0  0  0  0  0  0
   -5.1280   14.9540   -2.0600 C   0  0  0  0  0  0  0  0  0  0  0  0
   -5.1400   14.3210   -0.6940 C   0  0  2  0  0  0  0  0  0  0  0  0
   -4.0700   15.6210   -2.5590 C   0  0  0  0  0  0  0  0  0  0  0  0
   -6.0110   14.7780    0.4790 C   0  0  0  0  0  0  0  0  0  0  0  0
   -3.6870   14.2670   -0.2330 C   0  0  2  0  0  0  0  0  0  0  0  0
   -2.8710   15.8700   -1.8080 C   0  0  0  0  0  0  0  0  0  0  0  0
   -7.1820   15.1630    0.1910 O   0  0  0  0  0  0  0  0  0  0  0  0
   -2.8620   12.7840   -1.5550 I   0  0  0  0  0  0  0  0  0  0  0  0
   -5.3630   14.6700    1.6570 C   0  0  0  0  0  0  0  0  0  0  0  0
   -3.7240   14.0260    1.5700 S   0  0  0  0  0  0  0  0  0  0  0  0
   -2.6750   15.2660   -0.6540 C   0  0  0  0  0  0  0  0  0  0  0  0
   -6.0110   15.0470    2.8160 N   0  0  0  0  0  0  0  0  0  0  0  0
  1  2  1  0
  3  2  1  6
  2  4  2  0
  3  5  1  0
  3  6  1  0
  4  7  1  0
  5  8  1  0
  6  9  1  6
  5 10  2  0
  6 11  1  0
 10 11  1  0
  6 12  1  0
  7 12  2  0
 10 13  1  0
M  CHG  1   8  -1
M  END
