mac-x0284-diamond-x0421_0_A
     RDKit          3D

 21 23  0  0  0  0  0  0  0  0999 V2000
   -5.1500   16.0020   -0.3770 C   0  0  0  0  0  0  0  0  0  0  0  0
   -4.4560   15.4770   -1.5700 C   0  0  0  0  0  0  0  0  0  0  0  0
   -5.1150   15.2960   -2.7690 C   0  0  0  0  0  0  0  0  0  0  0  0
   -3.1320   15.1640   -1.4960 C   0  0  0  0  0  0  0  0  0  0  0  0
   -2.4230   14.6730   -2.5790 C   0  0  0  0  0  0  0  0  0  0  0  0
   -4.4290   14.8180   -3.8910 C   0  0  0  0  0  0  0  0  0  0  0  0
   -1.0120   14.3670   -2.2500 C   0  0  0  0  0  0  0  0  0  0  0  0
   -3.0740   14.5090   -3.7900 C   0  0  0  0  0  0  0  0  0  0  0  0
   -2.3890   14.0400   -4.8790 O   0  0  0  0  0  0  0  0  0  0  0  0
   -0.0480   15.4090   -2.2120 O   0  0  0  0  0  0  0  0  0  0  0  0
   -0.4770   13.4300   -3.2000 O   0  0  0  0  0  0  0  0  0  0  0  0
   -1.1380   13.6970   -0.8360 C   0  0  1  0  0  0  0  0  0  0  0  0
    0.0570   14.2030   -0.1390 N   0  0  0  0  0  0  0  0  0  0  0  0
   -2.3150   14.0120    0.1170 C   0  0  0  0  0  0  0  0  0  0  0  0
   -2.1730   14.6220    1.3430 C   0  0  0  0  0  0  0  0  0  0  0  0
   -3.6900   13.7280   -0.0800 N   0  0  0  0  0  0  0  0  0  0  0  0
   -3.4190   14.7030    1.8850 N   0  0  0  0  0  0  0  0  0  0  0  0
   -4.3080   14.1690    1.0180 C   0  0  0  0  0  0  0  0  0  0  0  0
   -5.8320   14.1290    1.3770 C   0  0  0  0  0  0  0  0  0  0  0  0
   -6.8850   14.0190    0.3050 C   0  0  0  0  0  0  0  0  0  0  0  0
   -6.6080   12.8510    1.2120 C   0  0  0  0  0  0  0  0  0  0  0  0
  1  2  1  0
  2  3  2  0
  2  4  1  0
  4  5  2  0
  3  6  1  0
  5  7  1  0
  5  8  1  0
  6  8  2  0
  8  9  1  0
  7 10  1  0
  7 11  1  0
  7 12  1  0
 12 13  1  1
 12 14  1  0
 14 15  2  0
 14 16  1  0
 15 17  1  0
 16 18  2  0
 17 18  1  0
 18 19  1  0
 19 20  1  0
 19 21  1  0
 20 21  1  0
M  END
