mac-x0587-mac-x0451
     RDKit          3D

 20 21  0  0  0  0  0  0  0  0999 V2000
    0.0460   16.1510   -4.2470 C   0  0  0  0  0  0  0  0  0  0  0  0
   -0.5850   14.8500   -3.7490 C   0  0  2  0  0  0  0  0  0  0  0  0
   -0.2250   13.5450   -5.0040 S   0  0  0  0  0  0  0  0  0  0  0  0
   -2.1040   15.0630   -3.5070 C   0  0  0  0  0  0  0  0  0  0  0  0
   -0.6240   12.0290   -4.0750 C   0  0  0  0  0  0  0  0  0  0  0  0
   -2.8670   15.3020   -4.4440 O   0  0  0  0  0  0  0  0  0  0  0  0
   -2.5620   14.9780   -2.1920 N   0  0  0  0  0  0  0  0  0  0  0  0
    0.4630   11.5770   -3.1400 C   0  0  0  0  0  0  0  0  0  0  0  0
   -3.8370   15.4330   -1.6460 C   0  0  0  0  0  0  0  0  0  0  0  0
   -1.7850   14.6330   -1.0850 C   0  0  0  0  0  0  0  0  0  0  0  0
    0.5600   10.4320   -2.7290 O   0  0  0  0  0  0  0  0  0  0  0  0
    1.3310   12.5410   -2.7760 O   0  0  0  0  0  0  0  0  0  0  0  0
   -0.5940   14.7540   -0.8760 O   0  0  0  0  0  0  0  0  0  0  0  0
   -3.9480   14.7190   -0.3050 C   0  0  2  0  0  0  0  0  0  0  0  0
   -2.6720   14.0840   -0.1660 N   0  0  0  0  0  0  0  0  0  0  0  0
   -5.1600   13.7590   -0.4000 C   0  0  0  0  0  0  0  0  0  0  0  0
   -4.2500   15.6180    1.2350 S   0  0  0  0  0  0  0  0  0  0  0  0
   -5.6040   14.5090    1.6000 C   0  0  2  0  0  0  0  0  0  0  0  0
   -6.2720   14.3600    0.3600 N   0  0  0  0  0  0  0  0  0  0  0  0
   -6.5550   14.9690    2.5500 N   0  0  0  0  0  0  0  0  0  0  0  0
  2  1  1  6
  2  3  1  0
  2  4  1  0
  3  5  1  0
  4  6  2  0
  4  7  1  0
  5  8  1  0
  7  9  1  0
  7 10  1  0
  8 11  2  0
  8 12  1  0
 10 13  2  0
 14  9  1  6
 10 15  1  0
 14 15  1  0
 14 16  1  0
 14 17  1  0
 17 18  1  0
 16 19  1  0
 18 19  1  0
 18 20  1  1
M  END
