mac-x0226-mac-x0341
     RDKit          3D

 28 31  0  0  0  0  0  0  0  0999 V2000
    1.2890   12.7200   -2.1870 O   0  0  0  0  0  0  0  0  0  0  0  0
    0.2930   11.9830   -2.8760 C   0  0  0  0  0  0  0  0  0  0  0  0
    0.2560   10.7000   -2.2400 O   0  0  0  0  0  0  0  0  0  0  0  0
   -1.0730   12.6810   -2.7350 C   0  0  0  0  0  0  0  0  0  0  0  0
    0.5890   11.8950   -4.3310 C   0  0  0  0  0  0  0  0  0  0  0  0
   -1.1940   14.2250   -2.6810 C   0  0  0  0  0  0  0  0  0  0  0  0
    1.5650   12.5770   -5.0870 C   0  0  0  0  0  0  0  0  0  0  0  0
   -0.0560   11.1140   -5.2610 C   0  0  0  0  0  0  0  0  0  0  0  0
    1.5320   12.2460   -6.3810 N   0  0  0  0  0  0  0  0  0  0  0  0
    0.5230   11.3400   -6.4800 N   0  0  0  0  0  0  0  0  0  0  0  0
   -2.2230   14.5070   -1.6470 C   0  0  0  0  0  0  0  0  0  0  0  0
    0.1440   10.7260   -7.7060 C   0  0  0  0  0  0  0  0  0  0  0  0
   -1.7780   14.6130   -0.3280 C   0  0  0  0  0  0  0  0  0  0  0  0
   -3.5900   14.6280   -1.9480 C   0  0  0  0  0  0  0  0  0  0  0  0
   -0.9820    9.8990   -7.7140 C   0  0  0  0  0  0  0  0  0  0  0  0
    0.8370   10.9090   -8.8980 C   0  0  0  0  0  0  0  0  0  0  0  0
   -4.4870   14.8180   -0.8960 C   0  0  0  0  0  0  0  0  0  0  0  0
   -2.6840   14.8070    0.6940 C   0  0  0  0  0  0  0  0  0  0  0  0
   -1.3930    9.2790   -8.8950 C   0  0  0  0  0  0  0  0  0  0  0  0
    0.4340   10.2970  -10.0730 C   0  0  0  0  0  0  0  0  0  0  0  0
   -5.9420   14.9210   -1.0830 C   0  0  0  0  0  0  0  0  0  0  0  0
   -4.0330   14.8960    0.4110 C   0  0  0  0  0  0  0  0  0  0  0  0
   -6.4560   15.2300   -2.1500 O   0  0  0  0  0  0  0  0  0  0  0  0
   -0.6830    9.4790  -10.0750 C   0  0  0  0  0  0  0  0  0  0  0  0
   -6.6710   14.6230    0.0510 N   0  0  0  0  0  0  0  0  0  0  0  0
   -4.8860   15.0300    1.4860 N   0  0  0  0  0  0  0  0  0  0  0  0
   -6.1410   14.8480    1.2920 C   0  0  0  0  0  0  0  0  0  0  0  0
   -6.9520   14.8770    2.3750 N   0  0  0  0  0  0  0  0  0  0  0  0
  2  1  1  0
  2  3  1  0
  2  4  1  0
  2  5  1  0
  4  6  1  0
  5  7  1  0
  5  8  2  0
  7  9  2  0
  8 10  1  0
  9 10  1  0
  6 11  1  0
 10 12  1  0
 11 13  2  0
 11 14  1  0
 12 15  2  0
 12 16  1  0
 14 17  2  0
 13 18  1  0
 15 19  1  0
 16 20  2  0
 17 21  1  0
 17 22  1  0
 18 22  2  0
 21 23  2  0
 19 24  2  0
 20 24  1  0
 21 25  1  0
 22 26  1  0
 25 27  1  0
 26 27  2  0
 27 28  1  0
M  END
