mac-x0568-mac-x0572
     RDKit          3D

 15 16  0  0  0  0  0  0  0  0999 V2000
   -8.8650   15.1650    0.7890 C   0  0  0  0  0  0  0  0  0  0  0  0
   -7.4700   14.8040    0.3550 C   0  0  0  0  0  0  0  0  0  0  0  0
   -6.5030   14.5380    1.2420 C   0  0  0  0  0  0  0  0  0  0  0  0
   -7.3190   14.7930   -1.0030 N   0  0  0  0  0  0  0  0  0  0  0  0
   -6.8860   14.6420    2.7000 C   0  0  0  0  0  0  0  0  0  0  0  0
   -6.1310   14.7120   -1.5100 C   0  0  0  0  0  0  0  0  0  0  0  0
   -5.0930   14.1340    0.7290 C   0  0  1  0  0  0  0  0  0  0  0  0
   -4.8550   14.5940   -0.7250 C   0  0  1  0  0  0  0  0  0  0  0  0
   -3.8150   14.4150    1.5130 C   0  0  0  0  0  0  0  0  0  0  0  0
   -3.7470   13.8390   -1.4380 C   0  0  0  0  0  0  0  0  0  0  0  0
   -2.9020   15.3050    1.1320 C   0  0  0  0  0  0  0  0  0  0  0  0
   -4.0420   15.8030   -0.9180 C   0  0  0  0  0  0  0  0  0  0  0  0
   -3.8030   13.5140   -2.6110 O   0  0  0  0  0  0  0  0  0  0  0  0
   -2.6020   13.6070   -0.7160 N   0  0  0  0  0  0  0  0  0  0  0  0
   -3.0980   16.0900   -0.0370 C   0  0  0  0  0  0  0  0  0  0  0  0
  1  2  1  0
  2  3  2  0
  2  4  1  0
  3  5  1  0
  4  6  2  0
  3  7  1  0
  6  8  1  0
  7  8  1  0
  7  9  1  1
  8 10  1  6
  9 11  2  0
  8 12  1  0
 10 13  2  0
 10 14  1  0
 11 15  1  0
 12 15  2  0
M  END
