mac-x0381-mac-x0568
     RDKit          3D

 24 26  0  0  0  0  0  0  0  0999 V2000
   -8.3660   13.6470    5.0900 N   0  0  0  0  0  0  0  0  0  0  0  0
   -8.3200   14.5200    3.9480 C   0  0  0  0  0  0  0  0  0  0  0  0
   -7.3600   15.5240    4.3810 N   0  0  0  0  0  0  0  0  0  0  0  0
   -7.8350   13.6660    2.7630 C   0  0  0  0  0  0  0  0  0  0  0  0
   -9.6480   15.1310    3.5410 C   0  0  0  0  0  0  0  0  0  0  0  0
   -8.2010   14.2160    1.3740 C   0  0  0  0  0  0  0  0  0  0  0  0
   -9.7380   15.8090    2.3100 C   0  0  0  0  0  0  0  0  0  0  0  0
  -10.8020   15.0360    4.3220 C   0  0  0  0  0  0  0  0  0  0  0  0
  -10.9370   16.3600    1.8500 C   0  0  0  0  0  0  0  0  0  0  0  0
  -12.0080   15.5870    3.8830 C   0  0  0  0  0  0  0  0  0  0  0  0
   -6.9430   14.4900    0.6440 C   0  0  0  0  0  0  0  0  0  0  0  0
  -12.0910   16.2440    2.6480 C   0  0  0  0  0  0  0  0  0  0  0  0
  -11.0110   17.0160    0.6110 C   0  0  0  0  0  0  0  0  0  0  0  0
   -6.9410   14.4270   -0.7020 N   0  0  0  0  0  0  0  0  0  0  0  0
   -5.8260   14.7900    1.3980 C   0  0  0  0  0  0  0  0  0  0  0  0
  -13.2990   16.7830    2.1910 C   0  0  0  0  0  0  0  0  0  0  0  0
  -12.2210   17.5410    0.1650 C   0  0  0  0  0  0  0  0  0  0  0  0
   -5.7500   14.6600   -1.2980 C   0  0  0  0  0  0  0  0  0  0  0  0
   -4.6200   15.0220    0.7700 C   0  0  0  0  0  0  0  0  0  0  0  0
  -13.3650   17.4240    0.9540 C   0  0  0  0  0  0  0  0  0  0  0  0
   -4.5780   14.9480   -0.6120 C   0  0  0  0  0  0  0  0  0  0  0  0
   -3.3540   15.1520   -1.3910 C   0  0  0  0  0  0  0  0  0  0  0  0
   -3.3900   15.5680   -2.5390 O   0  0  0  0  0  0  0  0  0  0  0  0
   -2.1650   14.8360   -0.7880 N   0  0  0  0  0  0  0  0  0  0  0  0
  2  1  1  0
  2  3  1  0
  2  4  1  0
  2  5  1  0
  4  6  1  0
  5  7  2  0
  5  8  1  0
  7  9  1  0
  8 10  2  0
  6 11  1  0
  9 12  2  0
 10 12  1  0
  9 13  1  0
 11 14  2  0
 11 15  1  0
 12 16  1  0
 13 17  2  0
 14 18  1  0
 15 19  2  0
 16 20  2  0
 17 20  1  0
 18 21  2  0
 19 21  1  0
 21 22  1  0
 22 23  2  0
 22 24  1  0
M  END
