mac-x0326-mac-x0190
     RDKit          3D

 21 23  0  0  0  0  0  0  0  0999 V2000
   -6.6390   15.5290   -1.9520 Cl  0  0  0  0  0  0  0  0  0  0  0  0
   -4.9040   15.5080   -1.5030 C   0  0  2  0  0  0  0  0  0  0  0  0
   -4.1150   14.9840   -2.7230 C   0  0  0  0  0  0  0  0  0  0  0  0
   -4.6640   14.6820   -0.2110 C   0  0  2  0  0  0  0  0  0  0  0  0
   -2.6770   14.8430   -2.4140 C   0  0  0  0  0  0  0  0  0  0  0  0
   -3.0930   14.6670    0.1140 C   0  0  0  0  0  0  0  0  0  0  0  0
   -5.2770   13.3070   -0.4180 C   0  0  0  0  0  0  0  0  0  0  0  0
   -5.5630   15.0420    0.9410 N   0  0  0  0  0  0  0  0  0  0  0  0
   -1.7270   14.8440   -3.4150 N   0  0  0  0  0  0  0  0  0  0  0  0
   -2.2180   14.7020   -1.1260 C   0  0  0  0  0  0  0  0  0  0  0  0
   -6.9420   14.6240    0.5730 C   0  0  1  0  0  0  0  0  0  0  0  0
   -6.7350   13.5550   -0.3930 N   0  0  0  0  0  0  0  0  0  0  0  0
   -7.7880   14.1820    1.8040 C   0  0  0  0  0  0  0  0  0  0  0  0
   -0.5280   14.7030   -2.8900 C   0  0  0  0  0  0  0  0  0  0  0  0
   -0.5060   14.5700   -1.1600 S   0  0  0  0  0  0  0  0  0  0  0  0
    0.7340   14.6590   -3.7170 C   0  0  0  0  0  0  0  0  0  0  0  0
   -8.9560   15.0010    1.9750 O   0  0  0  0  0  0  0  0  0  0  0  0
    0.9290   13.2870   -4.3560 C   0  0  0  0  0  0  0  0  0  0  0  0
    1.0580   12.2480   -3.2890 C   0  0  0  0  0  0  0  0  0  0  0  0
    0.3530   11.1280   -3.5420 O   0  0  0  0  0  0  0  0  0  0  0  0
    1.7250   12.3610   -2.2780 O   0  0  0  0  0  0  0  0  0  0  0  0
  2  1  1  6
  2  3  1  0
  2  4  1  0
  3  5  1  0
  4  6  1  1
  4  7  1  0
  4  8  1  0
  5  9  1  0
  5 10  2  0
  6 10  1  0
  8 11  1  0
  7 12  1  0
 11 12  1  0
 11 13  1  1
  9 14  2  0
 10 15  1  0
 14 15  1  0
 14 16  1  0
 13 17  1  0
 16 18  1  0
 18 19  1  0
 19 20  1  0
 19 21  2  0
M  END
