mac-x0415-mac-x0441
     RDKit          3D

 27 30  0  0  0  0  0  0  0  0999 V2000
   -0.0740   10.9910   -3.2460 O   0  0  0  0  0  0  0  0  0  0  0  0
    0.6500   12.1260   -3.3400 C   0  0  0  0  0  0  0  0  0  0  0  0
    1.0240   12.6600   -2.2990 O   0  0  0  0  0  0  0  0  0  0  0  0
    0.9540   12.6630   -4.7690 C   0  0  2  0  0  0  0  0  0  0  0  0
    0.7450   14.1260   -4.6060 C   0  0  0  0  0  0  0  0  0  0  0  0
    0.1520   12.1000   -5.9270 N   0  0  0  0  0  0  0  0  0  0  0  0
    1.7860   15.1130   -4.3350 C   0  0  0  0  0  0  0  0  0  0  0  0
   -0.3160   14.9210   -4.6870 C   0  0  0  0  0  0  0  0  0  0  0  0
    1.0690   11.9080   -7.1150 N   0  0  0  0  0  0  0  0  0  0  0  0
   -0.6120   10.8350   -5.8510 C   0  0  2  0  0  0  0  0  0  0  0  0
    1.4520   16.3650   -4.2660 N   0  0  0  0  0  0  0  0  0  0  0  0
    0.0170   16.3290   -4.3780 C   0  0  1  0  0  0  0  0  0  0  0  0
   -1.6800   14.6280   -4.9980 C   0  0  0  0  0  0  0  0  0  0  0  0
    0.7470   10.5980   -7.7680 C   0  0  1  0  0  0  0  0  0  0  0  0
   -0.6860   10.3890   -7.3310 C   0  0  1  0  0  0  0  0  0  0  0  0
   -1.9480   10.6670   -5.1910 C   0  0  0  0  0  0  0  0  0  0  0  0
    0.9450   10.4170   -9.2790 C   0  0  0  0  0  0  0  0  0  0  0  0
   -0.7020   17.3300   -5.2180 C   0  0  0  0  0  0  0  0  0  0  0  0
   -2.4360   15.6180   -5.5180 C   0  0  0  0  0  0  0  0  0  0  0  0
   -1.3420    9.0430   -7.4740 C   0  0  0  0  0  0  0  0  0  0  0  0
   -2.7470    9.6500   -5.5830 C   0  0  0  0  0  0  0  0  0  0  0  0
   -4.1970   15.2700   -6.0070 Br  0  0  0  0  0  0  0  0  0  0  0  0
    1.5700    9.2380   -9.5030 F   0  0  0  0  0  0  0  0  0  0  0  0
   -0.2350   10.3590   -9.9250 F   0  0  0  0  0  0  0  0  0  0  0  0
    1.6610   11.3520   -9.9030 F   0  0  0  0  0  0  0  0  0  0  0  0
   -1.8900   16.9720   -5.7470 C   0  0  0  0  0  0  0  0  0  0  0  0
   -2.3250    8.7220   -6.6210 C   0  0  0  0  0  0  0  0  0  0  0  0
  1  2  1  0
  2  3  2  0
  4  2  1  1
  4  5  1  0
  4  6  1  0
  5  7  1  0
  5  8  2  0
  6  9  1  0
  6 10  1  0
  7 11  2  0
  8 12  1  0
 11 12  1  0
  8 13  1  0
  9 14  1  0
 10 15  1  0
 14 15  1  0
 10 16  1  6
 14 17  1  6
 12 18  1  6
 13 19  2  0
 15 20  1  1
 16 21  2  0
 19 22  1  0
 17 23  1  0
 17 24  1  0
 17 25  1  0
 18 26  2  0
 19 26  1  0
 20 27  2  0
 21 27  1  0
M  END
