mac-x0321-mac-x0417
     RDKit          3D

 24 26  0  0  0  0  0  0  0  0999 V2000
   -4.2980   15.3050    1.7020 Cl  0  0  0  0  0  0  0  0  0  0  0  0
   -4.3200   15.2210   -0.0100 C   0  0  0  0  0  0  0  0  0  0  0  0
   -3.1320   14.9990   -0.6940 C   0  0  0  0  0  0  0  0  0  0  0  0
   -5.5200   15.3800   -0.6960 C   0  0  0  0  0  0  0  0  0  0  0  0
   -3.1410   14.9360   -2.0910 C   0  0  0  0  0  0  0  0  0  0  0  0
   -5.5350   15.3160   -2.0810 C   0  0  0  0  0  0  0  0  0  0  0  0
   -1.8570   14.6980   -2.8130 C   0  0  0  0  0  0  0  0  0  0  0  0
   -4.3470   15.0960   -2.7790 C   0  0  0  0  0  0  0  0  0  0  0  0
   -0.8460   14.3940   -1.9610 O   0  0  0  0  0  0  0  0  0  0  0  0
   -1.7720   14.7810   -4.0260 O   0  0  0  0  0  0  0  0  0  0  0  0
    0.4540   14.2860   -2.5700 C   0  0  0  0  0  0  0  0  0  0  0  0
    1.0120   12.9710   -2.4030 O   0  0  0  0  0  0  0  0  0  0  0  0
    0.6170   12.0380   -3.3240 C   0  0  0  0  0  0  0  0  0  0  0  0
    0.5230   10.8460   -3.0610 O   0  0  0  0  0  0  0  0  0  0  0  0
    0.3290   12.6910   -4.6630 C   0  0  0  0  0  0  0  0  0  0  0  0
    0.2790   11.7180   -5.7920 C   0  0  0  0  0  0  0  0  0  0  0  0
    1.2820   11.6940   -6.6710 N   0  0  0  0  0  0  0  0  0  0  0  0
   -0.7130   10.7550   -6.1040 C   0  0  0  0  0  0  0  0  0  0  0  0
    0.9540   10.6950   -7.5860 O   0  0  0  0  0  0  0  0  0  0  0  0
   -0.2370   10.1360   -7.2430 C   0  0  0  0  0  0  0  0  0  0  0  0
   -1.9350   10.3350   -5.5730 C   0  0  0  0  0  0  0  0  0  0  0  0
   -0.9010    9.1050   -7.9080 C   0  0  0  0  0  0  0  0  0  0  0  0
   -2.6340    9.3020   -6.2080 C   0  0  0  0  0  0  0  0  0  0  0  0
   -2.1260    8.6960   -7.3570 C   0  0  0  0  0  0  0  0  0  0  0  0
  1  2  1  0
  2  3  2  0
  2  4  1  0
  3  5  1  0
  4  6  2  0
  5  7  1  0
  5  8  2  0
  6  8  1  0
  7  9  1  0
  7 10  2  0
  9 11  1  0
 11 12  1  0
 12 13  1  0
 13 14  2  0
 13 15  1  0
 15 16  1  0
 16 17  2  0
 16 18  1  0
 17 19  1  0
 18 20  2  0
 19 20  1  0
 18 21  1  0
 20 22  1  0
 21 23  2  0
 22 24  2  0
 23 24  1  0
M  END
