mac-x0417-mac-x0451
     RDKit          3D

 26 29  0  0  0  0  0  0  0  0999 V2000
    1.3820   12.9620   -2.6220 O   0  0  0  0  0  0  0  0  0  0  0  0
    0.6560   12.0200   -3.2670 C   0  0  0  0  0  0  0  0  0  0  0  0
    0.6820   10.8580   -2.8930 O   0  0  0  0  0  0  0  0  0  0  0  0
   -0.1760   12.5310   -4.4400 C   0  0  1  0  0  0  0  0  0  0  0  0
   -0.2580   14.0630   -4.6130 C   0  0  0  0  0  0  0  0  0  0  0  0
    0.0150   11.6800   -5.6710 C   0  0  0  0  0  0  0  0  0  0  0  0
   -1.6390   14.6420   -4.2290 C   0  0  0  0  0  0  0  0  0  0  0  0
    1.0590   11.7650   -6.5110 N   0  0  0  0  0  0  0  0  0  0  0  0
   -0.8870   10.6760   -6.0780 C   0  0  0  0  0  0  0  0  0  0  0  0
   -1.5860   15.0190   -2.8490 O   0  0  0  0  0  0  0  0  0  0  0  0
    0.8310   10.8020   -7.4900 O   0  0  0  0  0  0  0  0  0  0  0  0
   -0.3320   10.1530   -7.2240 C   0  0  0  0  0  0  0  0  0  0  0  0
   -2.0980   10.1620   -5.6000 C   0  0  0  0  0  0  0  0  0  0  0  0
   -0.9100    9.1190   -7.9600 C   0  0  0  0  0  0  0  0  0  0  0  0
   -2.7090    9.1260   -6.3110 C   0  0  0  0  0  0  0  0  0  0  0  0
   -2.7060   14.9960   -2.0510 C   0  0  0  0  0  0  0  0  0  0  0  0
   -2.1230    8.6160   -7.4700 C   0  0  0  0  0  0  0  0  0  0  0  0
   -3.9380   15.1670   -2.6830 C   0  0  0  0  0  0  0  0  0  0  0  0
   -2.6500   14.8220   -0.6670 C   0  0  0  0  0  0  0  0  0  0  0  0
   -3.8460   14.8280    0.0490 C   0  0  0  0  0  0  0  0  0  0  0  0
   -5.1330   15.1670   -1.9480 C   0  0  0  0  0  0  0  0  0  0  0  0
   -5.0860   14.9940   -0.5550 C   0  0  0  0  0  0  0  0  0  0  0  0
   -4.0670   14.6480    1.7290 S   0  0  0  0  0  0  0  0  0  0  0  0
   -5.7650   14.7960    1.5250 C   0  0  0  0  0  0  0  0  0  0  0  0
   -6.1710   14.9690    0.2980 N   0  0  0  0  0  0  0  0  0  0  0  0
   -6.6160   14.7450    2.5620 N   0  0  0  0  0  0  0  0  0  0  0  0
  1  2  1  0
  2  3  2  0
  2  4  1  0
  4  5  1  6
  4  6  1  0
  5  7  1  0
  6  8  2  0
  6  9  1  0
  7 10  1  0
  8 11  1  0
  9 12  2  0
 11 12  1  0
  9 13  1  0
 12 14  1  0
 13 15  2  0
 10 16  1  0
 14 17  2  0
 15 17  1  0
 16 18  2  0
 16 19  1  0
 19 20  2  0
 18 21  1  0
 20 22  1  0
 21 22  2  0
 20 23  1  0
 23 24  1  0
 22 25  1  0
 24 25  2  0
 24 26  1  0
M  END
