mac-x0277-mac-x0284
     RDKit          3D

 19 21  0  0  0  0  0  0  0  0999 V2000
   -1.3970   17.9340   -6.0370 Cl  0  0  0  0  0  0  0  0  0  0  0  0
   -0.4210   17.1330   -4.8130 C   0  0  1  0  0  0  0  0  0  0  0  0
   -0.8210   15.7440   -4.2310 C   0  0  1  0  0  0  0  0  0  0  0  0
    0.9990   16.9530   -5.1770 C   0  0  0  0  0  0  0  0  0  0  0  0
   -2.1200   15.0930   -4.6670 C   0  0  0  0  0  0  0  0  0  0  0  0
    0.4980   14.9210   -4.0910 C   0  0  2  0  0  0  0  0  0  0  0  0
    1.4830   15.7740   -4.7580 C   0  0  0  0  0  0  0  0  0  0  0  0
    0.6890   13.4160   -4.3510 C   0  0  0  0  0  0  0  0  0  0  0  0
   -2.7340   14.5260   -3.3530 C   0  0  1  0  0  0  0  0  0  0  0  0
    1.0230   12.6430   -3.0640 C   0  0  2  0  0  0  0  0  0  0  0  0
   -1.7110   14.2650   -2.1710 C   0  0  1  0  0  0  0  0  0  0  0  0
   -3.9880   15.2140   -2.9330 C   0  0  0  0  0  0  0  0  0  0  0  0
    0.3220   11.4170   -3.0280 O   0  0  0  0  0  0  0  0  0  0  0  0
    0.5540   13.4250   -1.9570 N   0  0  0  0  0  0  0  0  0  0  0  0
   -0.2200   14.6340   -2.2580 C   0  0  0  0  0  0  0  0  0  0  0  0
   -2.2130   14.5630   -0.7270 C   0  0  0  0  0  0  0  0  0  0  0  0
   -4.4220   15.3620   -1.6860 C   0  0  0  0  0  0  0  0  0  0  0  0
   -3.7050   14.8330   -0.4910 C   0  0  2  0  0  0  0  0  0  0  0  0
   -4.0000   15.6540    0.7650 C   0  0  0  0  0  0  0  0  0  0  0  0
  2  1  1  6
  2  3  1  0
  2  4  1  0
  3  5  1  6
  3  6  1  0
  4  7  2  0
  6  7  1  6
  6  8  1  0
  9  5  1  6
  8 10  1  0
  9 11  1  0
  9 12  1  0
 10 13  1  6
 10 14  1  0
 11 15  1  6
 14 15  1  0
 11 16  1  0
 12 17  2  0
 16 18  1  0
 17 18  1  0
 18 19  1  1
M  END
