mac-x0338-mac-x0115
     RDKit          3D

 22 23  0  0  0  0  0  0  0  0999 V2000
   -4.0590   15.2550    1.9650 N   0  0  0  0  0  0  0  0  0  0  0  0
   -4.8250   14.9790    0.8920 C   0  0  0  0  0  0  0  0  0  0  0  0
   -6.0220   14.7180    1.0460 O   0  0  0  0  0  0  0  0  0  0  0  0
   -4.1070   15.0630   -0.4700 C   0  0  1  0  0  0  0  0  0  0  0  0
   -2.9530   14.1140   -0.7390 N   0  0  0  0  0  0  0  0  0  0  0  0
   -5.0830   15.0120   -1.6410 C   0  0  0  0  0  0  0  0  0  0  0  0
   -2.0190   14.8600   -1.6160 C   0  0  2  0  0  0  0  0  0  0  0  0
   -4.3350   15.0010   -2.9110 N   0  0  0  0  0  0  0  0  0  0  0  0
   -2.9630   15.5690   -2.6940 C   0  0  0  0  0  0  0  0  0  0  0  0
   -0.7590   14.1850   -2.1990 N   0  0  0  0  0  0  0  0  0  0  0  0
   -1.4880   15.8410   -0.5670 C   0  0  0  0  0  0  0  0  0  0  0  0
   -0.5590   14.2720   -3.6910 C   0  0  0  0  0  0  0  0  0  0  0  0
    0.4680   14.2060   -1.4610 C   0  0  0  0  0  0  0  0  0  0  0  0
   -0.7100   15.0530    0.4430 C   0  0  0  0  0  0  0  0  0  0  0  0
    0.0800   15.5900   -4.2140 C   0  0  0  0  0  0  0  0  0  0  0  0
   -0.9980   14.9290    1.6400 O   0  0  0  0  0  0  0  0  0  0  0  0
    2.0430   13.9950   -2.0330 S   0  0  0  0  0  0  0  0  0  0  0  0
    0.3530   14.4400   -0.1280 N   0  0  0  0  0  0  0  0  0  0  0  0
   -0.7550   16.1640   -5.2360 O   0  0  0  0  0  0  0  0  0  0  0  0
   -0.4340   17.4880   -5.7100 C   0  0  0  0  0  0  0  0  0  0  0  0
   -1.3960   18.4420   -5.0420 C   0  0  0  0  0  0  0  0  0  0  0  0
    1.0010   17.8550   -5.3980 C   0  0  0  0  0  0  0  0  0  0  0  0
  1  2  1  0
  2  3  2  0
  4  2  1  1
  4  5  1  0
  4  6  1  0
  7  5  1  0
  6  8  1  0
  7  9  1  6
  8  9  1  0
  7 10  1  0
  7 11  1  0
 10 12  1  0
 10 13  1  0
 11 14  1  0
 12 15  1  0
 14 16  2  0
 13 17  2  0
 13 18  1  0
 14 18  1  0
 15 19  1  0
 19 20  1  0
 20 21  1  0
 20 22  1  0
M  END
