mac-x0301-diamond-x0421_0_A
     RDKit          3D

 22 25  0  0  0  0  0  0  0  0999 V2000
   -0.6260   13.8760   -2.9880 O   0  0  0  0  0  0  0  0  0  0  0  0
   -1.7310   14.7900   -2.8550 C   0  0  0  0  0  0  0  0  0  0  0  0
   -1.5590   15.8160   -3.8190 O   0  0  0  0  0  0  0  0  0  0  0  0
   -3.2250   14.2130   -2.8640 C   0  0  1  0  0  0  0  0  0  0  0  0
   -2.0340   15.1330   -1.4820 C   0  0  0  0  0  0  0  0  0  0  0  0
   -3.3980   12.9550   -3.6030 N   0  0  0  0  0  0  0  0  0  0  0  0
   -1.3340   14.8780   -0.3380 C   0  0  0  0  0  0  0  0  0  0  0  0
   -3.2700   15.7590   -1.3630 C   0  0  0  0  0  0  0  0  0  0  0  0
   -3.7960   14.1080   -1.3930 C   0  0  0  0  0  0  0  0  0  0  0  0
   -1.8870   15.2230    0.8820 C   0  0  0  0  0  0  0  0  0  0  0  0
   -3.8020   16.0950   -0.1370 C   0  0  0  0  0  0  0  0  0  0  0  0
   -0.1290   14.2790   -0.2050 O   0  0  0  0  0  0  0  0  0  0  0  0
   -3.1660   13.6360   -0.2280 C   0  0  0  0  0  0  0  0  0  0  0  0
   -5.1010   14.5120   -1.0180 N   0  0  0  0  0  0  0  0  0  0  0  0
   -3.1130   15.8260    1.0040 C   0  0  0  0  0  0  0  0  0  0  0  0
   -1.1130   14.8900    1.9160 O   0  0  0  0  0  0  0  0  0  0  0  0
    0.0510   14.4860    1.2040 C   0  0  0  0  0  0  0  0  0  0  0  0
   -4.0680   13.7700    0.8040 N   0  0  0  0  0  0  0  0  0  0  0  0
   -5.2020   14.2940    0.2960 C   0  0  0  0  0  0  0  0  0  0  0  0
   -6.4390   14.5880    1.1860 C   0  0  0  0  0  0  0  0  0  0  0  0
   -7.8410   14.6650    0.6490 C   0  0  0  0  0  0  0  0  0  0  0  0
   -7.3970   13.4520    1.4190 C   0  0  0  0  0  0  0  0  0  0  0  0
  2  1  1  0
  2  3  1  0
  2  4  1  0
  2  5  1  0
  4  6  1  1
  5  7  1  0
  5  8  2  0
  4  9  1  0
  7 10  2  0
  8 11  1  0
  7 12  1  0
  9 13  2  0
  9 14  1  0
 10 15  1  0
 11 15  2  0
 10 16  1  0
 12 17  1  0
 16 17  1  0
 13 18  1  0
 14 19  2  0
 18 19  1  0
 19 20  1  0
 20 21  1  0
 20 22  1  0
 21 22  1  0
M  END
