mac-x0587-mac-x0255
     RDKit          3D

 24 26  0  0  0  0  0  0  0  0999 V2000
    0.0260   15.0500   -2.7330 C   0  0  0  0  0  0  0  0  0  0  0  0
   -0.9270   13.8440   -2.8390 C   0  0  2  0  0  0  0  0  0  0  0  0
   -0.6110   13.0260   -4.3670 S   0  0  2  0  0  0  0  0  0  0  0  0
   -2.3900   14.3210   -2.8250 C   0  0  0  0  0  0  0  0  0  0  0  0
    0.6750   11.8910   -4.2520 C   0  0  0  0  0  0  0  0  0  0  0  0
   -3.1600   14.1640   -3.7750 O   0  0  0  0  0  0  0  0  0  0  0  0
   -2.7640   14.9210   -1.6640 N   0  0  0  0  0  0  0  0  0  0  0  0
   -0.2720   14.5760   -4.8840 C   0  0  0  0  0  0  0  0  0  0  0  0
    0.8410   11.4540   -2.8420 C   0  0  0  0  0  0  0  0  0  0  0  0
   -4.1280   15.2540   -1.2970 C   0  0  0  0  0  0  0  0  0  0  0  0
   -2.0020   14.7610   -0.4970 C   0  0  0  0  0  0  0  0  0  0  0  0
    0.7300   15.4680   -5.1310 C   0  0  0  0  0  0  0  0  0  0  0  0
   -1.8150   15.1320   -5.1210 S   0  0  0  0  0  0  0  0  0  0  0  0
    0.4950   10.3540   -2.4270 O   0  0  0  0  0  0  0  0  0  0  0  0
    1.4170   12.4010   -2.0710 O   0  0  0  0  0  0  0  0  0  0  0  0
   -0.8010   14.6410   -0.3550 O   0  0  0  0  0  0  0  0  0  0  0  0
   -4.0900   15.4070    0.2110 C   0  0  0  0  0  0  0  0  0  0  0  0
   -2.8730   14.7590    0.5800 N   0  0  0  0  0  0  0  0  0  0  0  0
    0.1440   16.7120   -5.5400 C   0  0  0  0  0  0  0  0  0  0  0  0
   -1.2500   16.6250   -5.5630 C   0  0  0  0  0  0  0  0  0  0  0  0
    0.6900   17.9420   -5.9090 C   0  0  0  0  0  0  0  0  0  0  0  0
   -2.0890   17.6450   -5.9220 C   0  0  0  0  0  0  0  0  0  0  0  0
   -0.1610   18.9850   -6.2820 C   0  0  0  0  0  0  0  0  0  0  0  0
   -1.5370   18.8390   -6.2860 C   0  0  0  0  0  0  0  0  0  0  0  0
  2  1  1  6
  2  3  1  0
  2  4  1  0
  3  5  1  1
  4  6  2  0
  4  7  1  0
  3  8  1  0
  5  9  1  0
  7 10  1  0
  7 11  1  0
  8 12  2  0
  8 13  1  0
  9 14  2  0
  9 15  1  0
 11 16  2  0
 10 17  1  0
 11 18  1  0
 17 18  1  0
 12 19  1  0
 13 20  1  0
 19 20  2  0
 19 21  1  0
 20 22  1  0
 21 23  2  0
 22 24  2  0
 23 24  1  0
M  END
