mac-x0379-mac-x0433
     RDKit          3D

 18 19  0  0  0  0  0  0  0  0999 V2000
   -4.2750   13.1720   -0.1500 C   0  0  0  0  0  0  0  0  0  0  0  0
   -2.8630   13.7490   -0.2480 C   0  0  2  0  0  0  0  0  0  0  0  0
   -2.8440   15.1210   -0.6130 N   0  0  0  0  0  0  0  0  0  0  0  0
   -1.8880   12.9770   -1.5600 S   0  0  0  0  0  0  0  0  0  0  0  0
   -3.7150   15.7090    0.3640 C   0  0  0  0  0  0  0  0  0  0  0  0
   -3.2710   15.1540   -2.0370 C   0  0  0  0  0  0  0  0  0  0  0  0
   -2.3140   14.2430   -2.7910 C   0  0  1  0  0  0  0  0  0  0  0  0
   -1.0820   14.9340   -3.3470 C   0  0  0  0  0  0  0  0  0  0  0  0
   -5.0690   15.3530   -0.0720 C   0  0  0  0  0  0  0  0  0  0  0  0
   -0.9840   15.2490   -4.5240 O   0  0  0  0  0  0  0  0  0  0  0  0
   -0.0830   15.1650   -2.4630 O   0  0  0  0  0  0  0  0  0  0  0  0
   -5.2390   15.4080   -1.3950 N   0  0  0  0  0  0  0  0  0  0  0  0
   -6.0450   14.9790    0.7990 C   0  0  0  0  0  0  0  0  0  0  0  0
   -6.4200   15.0890   -1.8630 C   0  0  0  0  0  0  0  0  0  0  0  0
   -7.2490   14.6730    0.2200 C   0  0  0  0  0  0  0  0  0  0  0  0
   -8.3940   14.2640    1.0820 C   0  0  0  0  0  0  0  0  0  0  0  0
   -6.5740   15.1220   -3.2250 N   0  0  0  0  0  0  0  0  0  0  0  0
   -7.4530   14.7260   -1.1100 N   0  0  0  0  0  0  0  0  0  0  0  0
  2  1  1  6
  2  3  1  0
  2  4  1  0
  3  5  1  0
  3  6  1  0
  4  7  1  0
  6  7  1  0
  7  8  1  1
  5  9  1  0
  8 10  2  0
  8 11  1  0
  9 12  2  0
  9 13  1  0
 12 14  1  0
 13 15  2  0
 15 16  1  0
 14 17  1  0
 14 18  2  0
 15 18  1  0
M  END
