mac-x0321-mac-x0354
     RDKit          3D

 27 29  0  0  0  0  0  0  0  0999 V2000
   -4.3460   15.4980    1.6280 Cl  0  0  0  0  0  0  0  0  0  0  0  0
   -4.3680   15.3270   -0.0710 C   0  0  0  0  0  0  0  0  0  0  0  0
   -3.1800   15.0660   -0.7310 C   0  0  0  0  0  0  0  0  0  0  0  0
   -5.5620   15.4540   -0.7740 C   0  0  0  0  0  0  0  0  0  0  0  0
   -3.1730   14.9320   -2.1220 C   0  0  0  0  0  0  0  0  0  0  0  0
   -5.5670   15.3220   -2.1530 C   0  0  0  0  0  0  0  0  0  0  0  0
   -1.8790   14.6570   -2.7990 C   0  0  0  0  0  0  0  0  0  0  0  0
   -4.3750   15.0630   -2.8310 C   0  0  0  0  0  0  0  0  0  0  0  0
   -0.9010   14.4000   -1.8910 O   0  0  0  0  0  0  0  0  0  0  0  0
   -1.7560   14.6740   -4.0110 O   0  0  0  0  0  0  0  0  0  0  0  0
    0.3990   14.9490   -2.1850 C   0  0  0  0  0  0  0  0  0  0  0  0
    1.2510   13.8760   -2.8580 C   0  0  0  0  0  0  0  0  0  0  0  0
    0.8130   12.5740   -2.3600 N   0  0  0  0  0  0  0  0  0  0  0  0
    0.6320   11.6100   -3.1860 C   0  0  0  0  0  0  0  0  0  0  0  0
    0.2200   10.3720   -2.7420 O   0  0  0  0  0  0  0  0  0  0  0  0
    0.8770   11.7730   -4.6240 C   0  0  0  0  0  0  0  0  0  0  0  0
    1.8470   12.5980   -5.2530 C   0  0  0  0  0  0  0  0  0  0  0  0
    0.2410   11.1500   -5.7120 C   0  0  0  0  0  0  0  0  0  0  0  0
    0.8550   11.6100   -6.8320 N   0  0  0  0  0  0  0  0  0  0  0  0
    1.8300   12.4950   -6.5770 N   0  0  0  0  0  0  0  0  0  0  0  0
   -0.8370   10.1840   -5.8140 C   0  0  0  0  0  0  0  0  0  0  0  0
    0.5320   11.2140   -8.1960 C   0  0  0  0  0  0  0  0  0  0  0  0
   -0.6060    8.9510   -6.4420 C   0  0  0  0  0  0  0  0  0  0  0  0
   -2.0950   10.4750   -5.3010 C   0  0  0  0  0  0  0  0  0  0  0  0
   -1.6350    8.0210   -6.5490 C   0  0  0  0  0  0  0  0  0  0  0  0
   -3.1230    9.5410   -5.4110 C   0  0  0  0  0  0  0  0  0  0  0  0
   -2.8920    8.3150   -6.0340 C   0  0  0  0  0  0  0  0  0  0  0  0
  1  2  1  0
  2  3  2  0
  2  4  1  0
  3  5  1  0
  4  6  2  0
  5  7  1  0
  5  8  2  0
  6  8  1  0
  7  9  1  0
  7 10  2  0
  9 11  1  0
 11 12  1  0
 12 13  1  0
 13 14  2  3
 14 15  1  0
 14 16  1  0
 16 17  1  0
 16 18  2  0
 18 19  1  0
 17 20  2  0
 19 20  1  0
 18 21  1  0
 19 22  1  0
 21 23  2  0
 21 24  1  0
 23 25  1  0
 24 26  2  0
 25 27  2  0
 26 27  1  0
M  END
