mac-x0137-diamond-x0962_1_A
     RDKit          3D

 22 25  0  0  0  0  0  0  0  0999 V2000
   -2.8570   12.6890   -4.3820 F   0  0  0  0  0  0  0  0  0  0  0  0
   -1.7700   13.4910   -4.5870 C   0  0  2  0  0  0  0  0  0  0  0  0
   -0.5820   12.5700   -4.8720 C   0  0  0  0  0  0  0  0  0  0  0  0
   -1.5980   14.3410   -3.3190 C   0  0  0  0  0  0  0  0  0  0  0  0
   -1.2940   13.4040   -2.1960 N   0  0  0  0  0  0  0  0  0  0  0  0
    0.0550   11.9640   -3.6010 C   0  0  0  0  0  0  0  0  0  0  0  0
    0.0860   12.9160   -2.4050 C   0  0  0  0  0  0  0  0  0  0  0  0
   -1.3900   13.9570   -0.8940 C   0  0  0  0  0  0  0  0  0  0  0  0
   -0.3160   13.7760   -0.1010 N   0  0  0  0  0  0  0  0  0  0  0  0
   -2.4920   14.6590   -0.4070 C   0  0  0  0  0  0  0  0  0  0  0  0
   -0.3530   14.2750    1.1460 C   0  0  0  0  0  0  0  0  0  0  0  0
   -2.3440   15.1460    0.8690 C   0  0  0  0  0  0  0  0  0  0  0  0
   -3.8700   15.0970   -0.8600 C   0  0  2  0  0  0  0  0  0  0  0  0
   -1.3300   14.9680    1.6770 N   0  0  0  0  0  0  0  0  0  0  0  0
   -3.3770   15.9500    1.2940 N   0  0  0  0  0  0  0  0  0  0  0  0
   -4.1500   16.0180    0.2910 C   0  0  0  0  0  0  0  0  0  0  0  0
   -5.1830   14.5560   -0.3630 C   0  0  0  0  0  0  0  0  0  0  0  0
   -3.9900   15.7620   -2.1330 N   0  0  0  0  0  0  0  0  0  0  0  0
   -5.3740   14.4320    1.0060 N   0  0  0  0  0  0  0  0  0  0  0  0
   -6.3880   14.1290   -0.8870 C   0  0  0  0  0  0  0  0  0  0  0  0
   -6.6220   13.9630    1.2400 C   0  0  0  0  0  0  0  0  0  0  0  0
   -7.2670   13.7670    0.1160 N   0  0  0  0  0  0  0  0  0  0  0  0
  2  1  1  1
  2  3  1  0
  2  4  1  0
  4  5  1  0
  3  6  1  0
  5  7  1  0
  6  7  1  0
  5  8  1  0
  8  9  2  0
  8 10  1  0
  9 11  1  0
 10 12  2  0
 10 13  1  0
 11 14  2  0
 12 14  1  0
 12 15  1  0
 13 16  1  0
 15 16  2  0
 13 17  1  0
 13 18  1  6
 17 19  1  0
 17 20  2  0
 19 21  1  0
 20 22  1  0
 21 22  2  0
M  END
