mac-x0180-diamond-x0950_0_A
     RDKit          3D

 20 20  0  0  0  0  0  0  0  0999 V2000
   -7.7910   14.4990    1.4960 C   0  0  0  0  0  0  0  0  0  0  0  0
   -6.7990   14.7030    0.3780 C   0  0  0  0  0  0  0  0  0  0  0  0
   -7.1780   14.7790   -0.7830 O   0  0  0  0  0  0  0  0  0  0  0  0
   -5.4930   14.7890    0.8360 N   0  0  0  0  0  0  0  0  0  0  0  0
   -4.3460   14.8230    0.0140 C   0  0  0  0  0  0  0  0  0  0  0  0
   -3.0500   14.7150    0.5090 C   0  0  0  0  0  0  0  0  0  0  0  0
   -4.5330   14.9690   -1.3720 C   0  0  0  0  0  0  0  0  0  0  0  0
   -1.9550   14.7480   -0.3570 C   0  0  0  0  0  0  0  0  0  0  0  0
   -3.4400   15.0020   -2.2450 C   0  0  0  0  0  0  0  0  0  0  0  0
   -2.1380   14.8880   -1.7410 C   0  0  0  0  0  0  0  0  0  0  0  0
   -0.9890   14.9300   -2.6910 C   0  0  0  0  0  0  0  0  0  0  0  0
   -1.1010   14.8240   -3.9030 O   0  0  0  0  0  0  0  0  0  0  0  0
    0.1660   15.1250   -2.0040 O   0  0  0  0  0  0  0  0  0  0  0  0
    1.2450   14.2210   -2.2990 C   0  0  0  0  0  0  0  0  0  0  0  0
    0.8240   12.8780   -2.0320 O   0  0  0  0  0  0  0  0  0  0  0  0
    0.9250   12.0060   -3.0730 C   0  0  0  0  0  0  0  0  0  0  0  0
    1.5220   12.6410   -4.3330 C   0  0  1  0  0  0  0  0  0  0  0  0
    0.5850   10.8300   -3.0180 O   0  0  0  0  0  0  0  0  0  0  0  0
    3.0270   12.4470   -4.3580 C   0  0  0  0  0  0  0  0  0  0  0  0
    0.9650   12.0550   -5.5120 O   0  0  0  0  0  0  0  0  0  0  0  0
  1  2  1  0
  2  3  2  0
  2  4  1  0
  4  5  1  0
  5  6  2  0
  5  7  1  0
  6  8  1  0
  7  9  2  0
  8 10  2  0
  9 10  1  0
 10 11  1  0
 11 12  2  0
 11 13  1  0
 13 14  1  0
 14 15  1  0
 15 16  1  0
 16 17  1  0
 16 18  2  0
 17 19  1  6
 17 20  1  0
M  END
