mac-x0344-diamond-x0742_0_A
     RDKit          3D

 29 32  0  0  0  0  0  0  0  0999 V2000
    1.1600   13.8980   -5.0130 O   0  0  0  0  0  0  0  0  0  0  0  0
    0.9510   13.3280   -3.8220 C   0  0  0  0  0  0  0  0  0  0  0  0
    1.1500   13.9770   -2.7060 N   0  0  0  0  0  0  0  0  0  0  0  0
    0.4670   11.8730   -3.9960 C   0  0  0  0  0  0  0  0  0  0  0  0
    0.3760   11.1520   -3.0110 O   0  0  0  0  0  0  0  0  0  0  0  0
    0.1970   11.6080   -5.3320 N   0  0  0  0  0  0  0  0  0  0  0  0
    0.9880   13.4030   -1.3680 C   0  0  0  0  0  0  0  0  0  0  0  0
   -0.6990   10.6810   -5.9050 C   0  0  0  0  0  0  0  0  0  0  0  0
   -0.2610   13.7870   -0.5870 C   0  0  0  0  0  0  0  0  0  0  0  0
   -0.3340   10.1180   -7.1400 C   0  0  0  0  0  0  0  0  0  0  0  0
   -1.9090   10.2970   -5.3250 C   0  0  0  0  0  0  0  0  0  0  0  0
   -0.2720   14.1070    0.7890 C   0  0  0  0  0  0  0  0  0  0  0  0
   -1.4800   13.8200   -1.2280 C   0  0  0  0  0  0  0  0  0  0  0  0
   -1.1650    9.1890   -7.7750 C   0  0  0  0  0  0  0  0  0  0  0  0
   -2.7400    9.3670   -5.9630 C   0  0  0  0  0  0  0  0  0  0  0  0
   -1.3500   14.4350    1.5240 N   0  0  0  0  0  0  0  0  0  0  0  0
   -2.6200   14.1470   -0.5180 C   0  0  0  0  0  0  0  0  0  0  0  0
   -2.3690    8.8130   -7.1860 C   0  0  0  0  0  0  0  0  0  0  0  0
   -3.9760   14.1890   -1.1590 C   0  0  1  0  0  0  0  0  0  0  0  0
   -2.5000   14.4460    0.8480 C   0  0  0  0  0  0  0  0  0  0  0  0
   -5.1500   13.7000   -0.2410 C   0  0  1  0  0  0  0  0  0  0  0  0
   -4.4550   15.4130   -1.9310 C   0  0  0  0  0  0  0  0  0  0  0  0
   -3.7290   14.7930    1.5990 C   0  0  0  0  0  0  0  0  0  0  0  0
   -5.5620   12.2390   -0.5320 C   0  0  0  0  0  0  0  0  0  0  0  0
   -4.8490   13.8100    1.2670 C   0  0  0  0  0  0  0  0  0  0  0  0
   -6.3460   14.5560   -0.6870 C   0  0  0  0  0  0  0  0  0  0  0  0
   -5.7280   15.8410   -1.2170 C   0  0  0  0  0  0  0  0  0  0  0  0
   -5.1000   11.5730   -1.4610 O   0  0  0  0  0  0  0  0  0  0  0  0
   -6.5970   11.6360    0.3840 C   0  0  0  0  0  0  0  0  0  0  0  0
  1  2  1  0
  2  3  2  3
  2  4  1  0
  4  5  2  0
  4  6  1  0
  3  7  1  0
  6  8  1  0
  7  9  1  0
  8 10  2  0
  8 11  1  0
  9 12  2  0
  9 13  1  0
 10 14  1  0
 11 15  2  0
 12 16  1  0
 13 17  2  0
 14 18  2  0
 15 18  1  0
 17 19  1  0
 16 20  2  0
 17 20  1  0
 19 21  1  0
 19 22  1  1
 20 23  1  0
 21 24  1  6
 21 25  1  0
 23 25  1  0
 21 26  1  0
 22 27  1  0
 26 27  1  0
 24 28  2  0
 24 29  1  0
M  END
