mac-x0283-mac-x0142
     RDKit          3D

 23 27  0  0  0  0  0  0  0  0999 V2000
   -6.6240   13.6860    2.0880 N   0  0  0  0  0  0  0  0  0  0  0  0
   -6.4970   14.2620    0.9030 C   0  0  0  0  0  0  0  0  0  0  0  0
   -7.5520   14.8040    0.3040 N   0  0  0  0  0  0  0  0  0  0  0  0
   -5.3000   14.3940    0.1170 C   0  0  0  0  0  0  0  0  0  0  0  0
   -7.0860   15.3130   -0.8740 O   0  0  0  0  0  0  0  0  0  0  0  0
   -5.7530   15.0760   -0.9820 C   0  0  0  0  0  0  0  0  0  0  0  0
   -3.8220   13.9970    0.2180 C   0  0  0  0  0  0  0  0  0  0  0  0
   -4.9620   15.4730   -2.0440 C   0  0  0  0  0  0  0  0  0  0  0  0
   -2.8590   14.9270   -0.6750 C   0  0  1  0  0  0  0  0  0  0  0  0
   -3.6360   15.4400   -1.9170 C   0  0  0  0  0  0  0  0  0  0  0  0
   -2.3680   15.9390    0.3220 C   0  0  0  0  0  0  0  0  0  0  0  0
   -1.3600   14.5950   -1.1700 C   0  0  2  0  0  0  0  0  0  0  0  0
   -1.0280   14.1440   -2.5450 N   0  0  0  0  0  0  0  0  0  0  0  0
   -0.4840   13.9340   -0.2200 N   0  0  0  0  0  0  0  0  0  0  0  0
   -1.5800   15.2890    1.3850 N   0  0  0  0  0  0  0  0  0  0  0  0
   -2.0620   14.0270   -3.5830 C   0  0  0  0  0  0  0  0  0  0  0  0
    0.2080   14.7050   -3.1000 C   0  0  0  0  0  0  0  0  0  0  0  0
   -0.3190   14.6890    0.9900 C   0  0  0  0  0  0  0  0  0  0  0  0
    0.7270   13.6640   -4.0700 C   0  0  0  0  0  0  0  0  0  0  0  0
   -1.6370   13.0980   -4.7400 C   0  0  0  0  0  0  0  0  0  0  0  0
    2.2200   13.4700   -4.2680 C   0  0  0  0  0  0  0  0  0  0  0  0
    1.4440   12.4870   -3.4500 C   0  0  0  0  0  0  0  0  0  0  0  0
   -0.2080   13.3620   -5.2300 C   0  0  0  0  0  0  0  0  0  0  0  0
  1  2  1  0
  2  3  2  0
  2  4  1  0
  3  5  1  0
  4  6  2  0
  5  6  1  0
  4  7  1  0
  6  8  1  0
  9  7  1  1
  8 10  2  0
  9 10  1  0
  9 11  1  0
  9 12  1  0
 12 13  1  6
 12 14  1  0
 11 15  1  0
 13 16  1  0
 13 17  1  0
 14 18  1  0
 15 18  1  0
 19 17  1  0
 16 20  1  0
 19 21  1  0
 19 22  1  0
 21 22  1  0
 19 23  1  0
 20 23  1  0
M  END
