mac-x0344-mac-x0379
     RDKit          3D

 22 23  0  0  0  0  0  0  0  0999 V2000
    1.3910   13.5440   -4.6100 O   0  0  0  0  0  0  0  0  0  0  0  0
    0.8540   12.7840   -3.6340 C   0  0  0  0  0  0  0  0  0  0  0  0
    0.7530   13.2030   -2.4400 N   0  0  0  0  0  0  0  0  0  0  0  0
    0.3840   11.4390   -4.1290 C   0  0  0  0  0  0  0  0  0  0  0  0
    0.2190   10.5830   -3.2700 O   0  0  0  0  0  0  0  0  0  0  0  0
    0.1660   11.3680   -5.4820 N   0  0  0  0  0  0  0  0  0  0  0  0
    1.1600   14.5490   -2.1210 C   0  0  0  0  0  0  0  0  0  0  0  0
    0.0140   15.4070   -2.1810 O   0  0  0  0  0  0  0  0  0  0  0  0
   -0.7510   10.5120   -6.1010 C   0  0  0  0  0  0  0  0  0  0  0  0
   -1.0040   14.9460   -2.9940 C   0  0  0  0  0  0  0  0  0  0  0  0
   -0.4000    9.9570   -7.3330 C   0  0  0  0  0  0  0  0  0  0  0  0
   -1.9840   10.1940   -5.5340 C   0  0  0  0  0  0  0  0  0  0  0  0
   -0.8330   14.5840   -4.1520 O   0  0  0  0  0  0  0  0  0  0  0  0
   -1.2790    9.0900   -7.9900 C   0  0  0  0  0  0  0  0  0  0  0  0
   -2.8620    9.3270   -6.1890 C   0  0  0  0  0  0  0  0  0  0  0  0
   -2.3040   14.9660   -2.3410 C   0  0  0  0  0  0  0  0  0  0  0  0
   -2.5070    8.7780   -7.4160 C   0  0  0  0  0  0  0  0  0  0  0  0
   -3.5220   15.1570   -2.9630 C   0  0  0  0  0  0  0  0  0  0  0  0
   -2.5770   14.7670   -0.6530 S   0  0  0  0  0  0  0  0  0  0  0  0
   -4.2640   14.9710   -0.8970 C   0  0  0  0  0  0  0  0  0  0  0  0
   -4.6320   15.1590   -2.1430 N   0  0  0  0  0  0  0  0  0  0  0  0
   -5.2060   14.9300    0.2510 C   0  0  0  0  0  0  0  0  0  0  0  0
  1  2  1  0
  2  3  2  3
  2  4  1  0
  4  5  2  0
  4  6  1  0
  3  7  1  0
  7  8  1  0
  6  9  1  0
  8 10  1  0
  9 11  2  0
  9 12  1  0
 10 13  2  0
 11 14  1  0
 12 15  2  0
 10 16  1  0
 14 17  2  0
 15 17  1  0
 16 18  2  0
 16 19  1  0
 19 20  1  0
 18 21  1  0
 20 21  2  0
 20 22  1  0
M  END
