mac-x0148-mac-x0303
     RDKit          3D

 26 30  0  0  0  0  0  0  0  0999 V2000
   -8.2300   12.9150    2.5840 N   0  0  0  0  0  0  0  0  0  0  0  0
   -8.2780   14.4270    1.8410 S   0  0  0  0  0  0  0  0  0  0  0  0
   -7.7860   15.3410    2.8450 O   0  0  0  0  0  0  0  0  0  0  0  0
   -9.6400   14.5590    1.3710 O   0  0  0  0  0  0  0  0  0  0  0  0
   -7.0630   14.2420    0.3170 C   0  0  1  0  0  0  0  0  0  0  0  0
   -6.9940   15.3980   -0.5690 N   0  0  0  0  0  0  0  0  0  0  0  0
   -5.6640   13.7970    0.5540 N   0  0  0  0  0  0  0  0  0  0  0  0
   -4.6930   14.7940    0.0310 C   0  0  1  0  0  0  0  0  0  0  0  0
   -5.5910   15.8210   -0.6880 C   0  0  0  0  0  0  0  0  0  0  0  0
   -3.7970   15.3170    1.0680 N   0  0  0  0  0  0  0  0  0  0  0  0
   -3.7700   14.3360   -1.1460 C   0  0  0  0  0  0  0  0  0  0  0  0
   -2.4700   15.0360    0.6590 C   0  0  0  0  0  0  0  0  0  0  0  0
   -2.4040   14.5130   -0.6100 C   0  0  0  0  0  0  0  0  0  0  0  0
   -1.4110   15.2660    1.4190 N   0  0  0  0  0  0  0  0  0  0  0  0
   -1.1700   14.2450   -1.1510 C   0  0  0  0  0  0  0  0  0  0  0  0
   -1.0420   13.7070   -2.4550 N   0  0  0  0  0  0  0  0  0  0  0  0
   -0.0660   14.4850   -0.4230 N   0  0  0  0  0  0  0  0  0  0  0  0
   -0.2430   14.9740    0.8220 C   0  0  0  0  0  0  0  0  0  0  0  0
   -1.2690   14.5950   -3.6440 C   0  0  2  0  0  0  0  0  0  0  0  0
    0.0490   12.7440   -2.5340 C   0  0  0  0  0  0  0  0  0  0  0  0
   -2.7310   15.0560   -3.8450 C   0  0  0  0  0  0  0  0  0  0  0  0
   -0.9530   13.8950   -5.0060 C   0  0  2  0  0  0  0  0  0  0  0  0
   -0.2380   11.8150   -3.6930 C   0  0  0  0  0  0  0  0  0  0  0  0
   -2.3380   13.6750   -5.5890 C   0  0  0  0  0  0  0  0  0  0  0  0
   -3.0650   14.8400   -5.2250 O   0  0  0  0  0  0  0  0  0  0  0  0
   -0.1400   12.5800   -4.9960 C   0  0  0  0  0  0  0  0  0  0  0  0
  2  1  1  0
  2  3  2  0
  2  4  2  0
  5  2  1  1
  5  6  1  0
  5  7  1  0
  8  7  1  0
  6  9  1  0
  8  9  1  6
  8 10  1  0
  8 11  1  0
 10 12  1  0
 11 13  1  0
 12 13  2  0
 12 14  1  0
 13 15  1  0
 15 16  1  0
 15 17  2  0
 14 18  2  0
 17 18  1  0
 16 19  1  0
 16 20  1  0
 19 21  1  6
 19 22  1  0
 20 23  1  0
 22 24  1  1
 21 25  1  0
 24 25  1  0
 22 26  1  0
 23 26  1  0
M  END
