mac-x0283-diamond-x0910_0_A
     RDKit          3D

 16 18  0  0  0  0  0  0  0  0999 V2000
   -7.1110   14.7760    2.5690 N   0  0  0  0  0  0  0  0  0  0  0  0
   -6.9730   14.7350    1.2290 C   0  0  0  0  0  0  0  0  0  0  0  0
   -7.9480   14.6250    0.3210 N   0  0  0  0  0  0  0  0  0  0  0  0
   -5.7170   14.8060    0.6220 C   0  0  0  0  0  0  0  0  0  0  0  0
   -7.3070   14.6130   -0.9160 O   0  0  0  0  0  0  0  0  0  0  0  0
   -5.9620   14.7120   -0.7340 C   0  0  0  0  0  0  0  0  0  0  0  0
   -4.4220   14.9340    1.0780 C   0  0  0  0  0  0  0  0  0  0  0  0
   -4.9650   14.7160   -1.7150 C   0  0  0  0  0  0  0  0  0  0  0  0
   -3.4280   14.9350    0.1430 C   0  0  0  0  0  0  0  0  0  0  0  0
   -3.6600   14.8190   -1.2240 C   0  0  0  0  0  0  0  0  0  0  0  0
   -2.4620   14.8200   -1.9010 N   0  0  0  0  0  0  0  0  0  0  0  0
   -1.3850   14.8370   -1.0980 C   0  0  0  0  0  0  0  0  0  0  0  0
   -1.5680   14.6560    0.2590 N   0  0  0  0  0  0  0  0  0  0  0  0
   -0.1220   15.0120   -1.3150 N   0  0  0  0  0  0  0  0  0  0  0  0
   -0.4220   14.7230    0.9390 N   0  0  0  0  0  0  0  0  0  0  0  0
    0.4170   14.9460   -0.0720 C   0  0  0  0  0  0  0  0  0  0  0  0
  1  2  1  0
  2  3  2  0
  2  4  1  0
  3  5  1  0
  4  6  2  0
  5  6  1  0
  4  7  1  0
  6  8  1  0
  7  9  2  0
  8 10  2  0
  9 10  1  0
 10 11  1  0
 11 12  1  0
 12 13  1  0
 12 14  2  0
 13 15  1  0
 14 16  1  0
 15 16  2  0
M  END
