mac-x0148-mac-x0387
     RDKit          3D

 19 22  0  0  0  0  0  0  0  0999 V2000
   -2.5420   14.1110    2.1530 N   0  0  0  0  0  0  0  0  0  0  0  0
   -1.8790   14.9490    1.2980 N   0  0  0  0  0  0  0  0  0  0  0  0
   -0.5940   14.6270    0.9010 C   0  0  0  0  0  0  0  0  0  0  0  0
   -2.8030   15.1900    0.3910 C   0  0  0  0  0  0  0  0  0  0  0  0
   -0.2390   14.4270   -0.3350 N   0  0  0  0  0  0  0  0  0  0  0  0
   -2.4850   14.9260   -1.0140 C   0  0  0  0  0  0  0  0  0  0  0  0
   -4.0190   15.6070    0.5800 N   0  0  0  0  0  0  0  0  0  0  0  0
   -1.2180   14.5420   -1.3280 C   0  0  0  0  0  0  0  0  0  0  0  0
   -3.7330   15.1970   -1.6580 C   0  0  0  0  0  0  0  0  0  0  0  0
   -4.5620   15.5980   -0.6830 C   0  0  0  0  0  0  0  0  0  0  0  0
   -0.8460   14.2610   -2.6490 N   0  0  0  0  0  0  0  0  0  0  0  0
   -1.9530   14.1330   -3.6540 C   0  0  1  0  0  0  0  0  0  0  0  0
    0.3780   13.4400   -2.8080 C   0  0  0  0  0  0  0  0  0  0  0  0
   -2.2080   15.4040   -4.4400 C   0  0  0  0  0  0  0  0  0  0  0  0
   -1.8340   13.0700   -4.7430 C   0  0  1  0  0  0  0  0  0  0  0  0
    0.1730   12.2010   -3.6660 C   0  0  0  0  0  0  0  0  0  0  0  0
   -2.5670   13.6490   -5.9370 C   0  0  0  0  0  0  0  0  0  0  0  0
   -2.8010   15.0400   -5.6950 O   0  0  0  0  0  0  0  0  0  0  0  0
   -0.4360   12.5710   -4.9990 C   0  0  0  0  0  0  0  0  0  0  0  0
  1  2  1  0
  2  3  1  0
  2  4  1  0
  3  5  2  0
  4  6  1  0
  4  7  2  0
  5  8  1  0
  6  8  2  0
  6  9  1  0
  7 10  1  0
  9 10  2  0
  8 11  1  0
 11 12  1  0
 11 13  1  0
 12 14  1  6
 12 15  1  0
 13 16  1  0
 15 17  1  6
 14 18  1  0
 17 18  1  0
 15 19  1  0
 16 19  1  0
M  END
