mac-x0231-mac-x0360
     RDKit          3D

 28 30  0  0  0  0  0  0  0  0999 V2000
    0.5790   10.8820   -3.3850 O   0  0  0  0  0  0  0  0  0  0  0  0
    1.3080   12.0060   -3.2380 C   0  0  0  0  0  0  0  0  0  0  0  0
    1.5150   12.4490   -2.1230 O   0  0  0  0  0  0  0  0  0  0  0  0
    1.7780   12.5970   -4.5410 C   0  0  0  0  0  0  0  0  0  0  0  0
    1.3080   14.0050   -4.5500 C   0  0  0  0  0  0  0  0  0  0  0  0
   -0.1110   14.2400   -4.4470 C   0  0  0  0  0  0  0  0  0  0  0  0
    2.1630   14.9520   -4.5360 N   0  0  0  0  0  0  0  0  0  0  0  0
   -0.5450   15.5540   -4.4590 C   0  0  0  0  0  0  0  0  0  0  0  0
    1.7080   16.2250   -4.4780 N   0  0  0  0  0  0  0  0  0  0  0  0
   -0.9930   13.1860   -4.3010 C   0  0  0  0  0  0  0  0  0  0  0  0
    0.4250   16.6220   -4.6400 C   0  0  0  0  0  0  0  0  0  0  0  0
   -1.8730   15.8440   -4.2670 C   0  0  0  0  0  0  0  0  0  0  0  0
   -2.3120   13.4700   -4.1010 C   0  0  0  0  0  0  0  0  0  0  0  0
    0.0930   17.7710   -4.9050 O   0  0  0  0  0  0  0  0  0  0  0  0
   -2.7350   14.7940   -4.0550 C   0  0  0  0  0  0  0  0  0  0  0  0
   -4.1250   15.0090   -3.7090 C   0  0  0  0  0  0  0  0  0  0  0  0
   -4.1020   14.1750   -2.5100 N   0  0  0  0  0  0  0  0  0  0  0  0
   -4.1980   14.6800   -0.9080 S   0  0  0  0  0  0  0  0  0  0  0  0
   -5.0540   15.8320   -0.8020 O   0  0  0  0  0  0  0  0  0  0  0  0
   -2.9160   14.5830   -0.2380 O   0  0  0  0  0  0  0  0  0  0  0  0
   -5.0950   13.2030   -0.5750 C   0  0  0  0  0  0  0  0  0  0  0  0
   -4.8990   12.1740   -1.5000 C   0  0  0  0  0  0  0  0  0  0  0  0
   -5.9530   13.0550    0.5100 C   0  0  0  0  0  0  0  0  0  0  0  0
   -5.5770   10.9830   -1.3520 C   0  0  0  0  0  0  0  0  0  0  0  0
   -6.6280   11.8410    0.6400 C   0  0  0  0  0  0  0  0  0  0  0  0
   -7.7050   11.5990    1.9560 Cl  0  0  0  0  0  0  0  0  0  0  0  0
   -5.3360    9.7200   -2.4970 Cl  0  0  0  0  0  0  0  0  0  0  0  0
   -6.4500   10.8140   -0.2820 C   0  0  0  0  0  0  0  0  0  0  0  0
  1  2  1  0
  2  3  2  0
  2  4  1  0
  4  5  1  0
  5  6  1  0
  5  7  2  0
  6  8  2  0
  7  9  1  0
  6 10  1  0
  8 11  1  0
  9 11  1  0
  8 12  1  0
 10 13  2  0
 11 14  2  0
 12 15  2  0
 13 15  1  0
 15 16  1  0
 16 17  1  0
 18 17  1  0
 18 19  2  0
 18 20  2  0
 18 21  1  0
 21 22  2  0
 21 23  1  0
 22 24  1  0
 23 25  2  0
 25 26  1  0
 24 27  1  0
 24 28  2  0
 25 28  1  0
M  END
