mac-x0226-diamond-x0950_0_A
     RDKit          3D

 17 18  0  0  0  0  0  0  0  0999 V2000
    1.5320   11.7910   -2.2550 O   0  0  0  0  0  0  0  0  0  0  0  0
    0.5590   12.2680   -3.1100 C   0  0  0  0  0  0  0  0  0  0  0  0
   -0.6950   11.9410   -2.5130 O   0  0  0  0  0  0  0  0  0  0  0  0
    0.8670   13.7600   -3.2590 C   0  0  1  0  0  0  0  0  0  0  0  0
    0.6630   11.9170   -4.5310 C   0  0  0  0  0  0  0  0  0  0  0  0
    2.3750   14.0090   -3.3200 C   0  0  0  0  0  0  0  0  0  0  0  0
    0.3220   14.0810   -4.5630 O   0  0  0  0  0  0  0  0  0  0  0  0
    1.6480   12.4470   -5.3850 C   0  0  0  0  0  0  0  0  0  0  0  0
   -0.0810   11.0990   -5.3430 C   0  0  0  0  0  0  0  0  0  0  0  0
    1.5450   12.0170   -6.6180 N   0  0  0  0  0  0  0  0  0  0  0  0
    0.4760   11.1920   -6.5970 N   0  0  0  0  0  0  0  0  0  0  0  0
    0.0760   10.5670   -7.7870 C   0  0  0  0  0  0  0  0  0  0  0  0
   -1.0170    9.7080   -7.8250 C   0  0  0  0  0  0  0  0  0  0  0  0
    0.7910   10.8230   -8.9560 C   0  0  0  0  0  0  0  0  0  0  0  0
   -1.3780    9.1200   -9.0380 C   0  0  0  0  0  0  0  0  0  0  0  0
    0.4360   10.2430  -10.1580 C   0  0  0  0  0  0  0  0  0  0  0  0
   -0.6540    9.3870  -10.2020 C   0  0  0  0  0  0  0  0  0  0  0  0
  2  1  1  0
  2  3  1  0
  2  4  1  0
  2  5  1  0
  4  6  1  6
  4  7  1  0
  5  8  1  0
  5  9  2  0
  8 10  2  0
  9 11  1  0
 10 11  1  0
 11 12  1  0
 12 13  2  0
 12 14  1  0
 13 15  1  0
 14 16  2  0
 15 17  2  0
 16 17  1  0
M  END
