mac-x0584-mac-x0441
     RDKit          3D

 35 40  0  0  0  0  0  0  0  0999 V2000
    1.4820   11.6760   -4.0320 O   0  0  0  0  0  0  0  0  0  0  0  0
    1.3330   12.9560   -4.3390 C   0  0  0  0  0  0  0  0  0  0  0  0
    2.0410   13.7660   -3.7530 O   0  0  0  0  0  0  0  0  0  0  0  0
    0.2560   13.2110   -5.3630 C   0  0  2  0  0  0  0  0  0  0  0  0
   -0.9290   13.8230   -4.6060 C   0  0  1  0  0  0  0  0  0  0  0  0
    0.0200   12.0400   -6.2140 N   0  0  0  0  0  0  0  0  0  0  0  0
   -0.3510   14.2320   -3.2640 C   0  0  2  0  0  0  0  0  0  0  0  0
   -1.7320   15.0610   -4.9560 C   0  0  0  0  0  0  0  0  0  0  0  0
    0.7900   11.9580   -7.3280 N   0  0  0  0  0  0  0  0  0  0  0  0
   -0.8450   10.9690   -6.1280 C   0  0  0  0  0  0  0  0  0  0  0  0
    0.0420   12.9720   -2.4960 C   0  0  0  0  0  0  0  0  0  0  0  0
   -1.4770   14.8630   -2.6260 N   0  0  0  0  0  0  0  0  0  0  0  0
   -2.4950   15.2290   -3.6370 C   0  0  0  0  0  0  0  0  0  0  0  0
    0.4020   10.8410   -7.9640 C   0  0  0  0  0  0  0  0  0  0  0  0
   -0.6080   10.1920   -7.2450 C   0  0  0  0  0  0  0  0  0  0  0  0
   -1.8700   10.6080   -5.1090 C   0  0  0  0  0  0  0  0  0  0  0  0
    0.9610   10.3450   -9.2740 C   0  0  0  0  0  0  0  0  0  0  0  0
    1.2320   12.1440   -3.0480 C   0  0  0  0  0  0  0  0  0  0  0  0
   -0.8580   11.7440   -2.7900 C   0  0  0  0  0  0  0  0  0  0  0  0
   -1.5970   14.8430   -1.2480 C   0  0  0  0  0  0  0  0  0  0  0  0
   -1.3200    8.9280   -7.5740 C   0  0  0  0  0  0  0  0  0  0  0  0
   -2.9430    9.7310   -5.7730 C   0  0  0  0  0  0  0  0  0  0  0  0
    1.6630    9.1880   -9.1560 F   0  0  0  0  0  0  0  0  0  0  0  0
   -0.0380   10.0780  -10.1470 F   0  0  0  0  0  0  0  0  0  0  0  0
    1.7190   11.2450   -9.9310 F   0  0  0  0  0  0  0  0  0  0  0  0
    0.3950   10.8700   -2.8090 C   0  0  0  0  0  0  0  0  0  0  0  0
   -0.4730   14.6730   -0.4600 N   0  0  0  0  0  0  0  0  0  0  0  0
   -2.7300   15.0000   -0.5710 C   0  0  0  0  0  0  0  0  0  0  0  0
   -2.3130    8.5160   -6.4770 C   0  0  0  0  0  0  0  0  0  0  0  0
   -0.5190   14.6180    0.8980 C   0  0  0  0  0  0  0  0  0  0  0  0
   -2.7020   14.9700    0.9110 C   0  0  0  0  0  0  0  0  0  0  0  0
   -4.0960   15.2260   -0.8770 C   0  0  0  0  0  0  0  0  0  0  0  0
   -1.5640   14.7440    1.6300 N   0  0  0  0  0  0  0  0  0  0  0  0
   -3.8760   15.1860    1.4110 N   0  0  0  0  0  0  0  0  0  0  0  0
   -4.6970   15.3310    0.3090 C   0  0  0  0  0  0  0  0  0  0  0  0
  1  2  1  0
  2  3  2  0
  4  2  1  1
  4  5  1  0
  4  6  1  0
  5  7  1  0
  5  8  1  6
  6  9  1  0
  6 10  1  0
  7 11  1  1
  7 12  1  0
  8 13  1  0
 12 13  1  0
  9 14  2  0
 10 15  2  0
 14 15  1  0
 10 16  1  0
 14 17  1  0
 11 18  1  0
 11 19  1  0
 12 20  1  0
 15 21  1  0
 16 22  1  0
 17 23  1  0
 17 24  1  0
 17 25  1  0
 18 26  1  0
 19 26  1  0
 20 27  1  0
 20 28  2  0
 21 29  1  0
 22 29  1  0
 27 30  1  0
 28 31  1  0
 28 32  1  0
 30 33  2  0
 31 33  1  0
 31 34  2  0
 32 35  2  0
 34 35  1  0
M  END
