mac-x0306-mac-x0412
     RDKit          3D

 11 12  0  0  0  0  0  0  0  0999 V2000
   -8.6610   14.6140    1.0740 C   0  0  0  0  0  0  0  0  0  0  0  0
   -7.9290   14.4580    2.2180 C   0  0  0  0  0  0  0  0  0  0  0  0
   -6.6260   14.5350    1.8210 N   0  0  0  0  0  0  0  0  0  0  0  0
   -7.8400   14.7830   -0.0030 N   0  0  0  0  0  0  0  0  0  0  0  0
   -6.5960   14.7370    0.4520 C   0  0  0  0  0  0  0  0  0  0  0  0
   -5.3930   14.8790   -0.3780 C   0  0  0  0  0  0  0  0  0  0  0  0
   -5.4610   15.1160   -1.7560 C   0  0  0  0  0  0  0  0  0  0  0  0
   -4.1320   14.7720    0.2130 C   0  0  0  0  0  0  0  0  0  0  0  0
   -4.2770   15.2260   -2.4670 C   0  0  0  0  0  0  0  0  0  0  0  0
   -3.0110   14.8980   -0.5850 C   0  0  0  0  0  0  0  0  0  0  0  0
   -3.0560   15.1210   -1.9140 N   0  0  0  0  0  0  0  0  0  0  0  0
  1  2  2  0
  2  3  1  0
  1  4  1  0
  3  5  1  0
  4  5  2  0
  5  6  1  0
  6  7  2  0
  6  8  1  0
  7  9  1  0
  8 10  2  0
  9 11  2  0
 10 11  1  0
M  END
