mac-x0415-mac-x0301
     RDKit          3D

 26 29  0  0  0  0  0  0  0  0999 V2000
    0.1650   10.6480   -3.4060 O   0  0  0  0  0  0  0  0  0  0  0  0
    0.4890   11.9480   -3.6370 C   0  0  0  0  0  0  0  0  0  0  0  0
    1.6510   12.3240   -3.6040 O   0  0  0  0  0  0  0  0  0  0  0  0
   -0.7310   12.8340   -3.9120 C   0  0  0  0  0  0  0  0  0  0  0  0
   -0.3760   14.2540   -4.1800 C   0  0  0  0  0  0  0  0  0  0  0  0
    0.6350   15.0990   -3.5640 C   0  0  0  0  0  0  0  0  0  0  0  0
   -0.9230   15.1430   -4.9280 C   0  0  0  0  0  0  0  0  0  0  0  0
    1.1230   14.4170   -2.5690 O   0  0  0  0  0  0  0  0  0  0  0  0
    0.8610   16.3190   -3.9390 N   0  0  0  0  0  0  0  0  0  0  0  0
   -0.1070   16.4030   -5.0160 C   0  0  2  0  0  0  0  0  0  0  0  0
   -2.1320   15.0020   -5.6450 C   0  0  0  0  0  0  0  0  0  0  0  0
    0.1740   13.5210   -2.1600 C   0  0  0  0  0  0  0  0  0  0  0  0
   -0.9490   17.6090   -5.1850 C   0  0  0  0  0  0  0  0  0  0  0  0
   -2.7680   16.1270   -5.9930 C   0  0  0  0  0  0  0  0  0  0  0  0
   -4.3810   15.9750   -6.9170 Br  0  0  0  0  0  0  0  0  0  0  0  0
    0.2320   12.3220   -2.2620 O   0  0  0  0  0  0  0  0  0  0  0  0
   -2.1990   17.4590   -5.6640 C   0  0  0  0  0  0  0  0  0  0  0  0
   -1.0100   14.1440   -1.5060 C   0  0  0  0  0  0  0  0  0  0  0  0
   -0.9380   14.1250   -0.1760 C   0  0  0  0  0  0  0  0  0  0  0  0
   -2.1710   14.7180   -2.0950 C   0  0  0  0  0  0  0  0  0  0  0  0
   -1.9000   14.6400    0.6450 C   0  0  0  0  0  0  0  0  0  0  0  0
   -3.1930   15.2440   -1.2560 C   0  0  0  0  0  0  0  0  0  0  0  0
    0.0920   13.5860    0.4880 O   0  0  0  0  0  0  0  0  0  0  0  0
   -3.0580   15.2090    0.1440 C   0  0  0  0  0  0  0  0  0  0  0  0
   -1.5330   14.5000    1.9480 O   0  0  0  0  0  0  0  0  0  0  0  0
   -0.1380   14.1790    1.7430 C   0  0  0  0  0  0  0  0  0  0  0  0
  1  2  1  0
  2  3  2  0
  2  4  1  0
  4  5  1  0
  5  6  1  0
  5  7  2  0
  6  8  1  0
  6  9  2  0
  7 10  1  0
  9 10  1  0
  7 11  1  0
  8 12  1  0
 10 13  1  1
 11 14  2  0
 14 15  1  0
 12 16  2  0
 13 17  2  0
 14 17  1  0
 12 18  1  0
 18 19  1  0
 18 20  2  0
 19 21  2  0
 20 22  1  0
 19 23  1  0
 21 24  1  0
 22 24  2  0
 21 25  1  0
 23 26  1  0
 25 26  1  0
M  END
