mac-x0348-diamond-x0681_0_A
     RDKit          3D

 29 32  0  0  0  0  0  0  0  0999 V2000
    0.6710   18.6410   -5.9890 C   0  0  0  0  0  0  0  0  0  0  0  0
    0.0580   17.4460   -5.4860 N   0  0  0  0  0  0  0  0  0  0  0  0
    0.6870   16.5350   -4.6920 C   0  0  0  0  0  0  0  0  0  0  0  0
   -1.2310   17.0390   -5.7270 C   0  0  0  0  0  0  0  0  0  0  0  0
   -0.2030   15.5250   -4.4250 C   0  0  0  0  0  0  0  0  0  0  0  0
   -1.4080   15.8290   -5.0760 C   0  0  0  0  0  0  0  0  0  0  0  0
   -2.2580   17.6140   -6.4610 C   0  0  0  0  0  0  0  0  0  0  0  0
    0.0300   14.3220   -3.5860 C   0  0  1  0  0  0  0  0  0  0  0  0
   -2.6410   15.1620   -5.1590 C   0  0  0  0  0  0  0  0  0  0  0  0
   -3.4750   16.9270   -6.5450 C   0  0  0  0  0  0  0  0  0  0  0  0
    1.0450   13.3070   -4.0790 C   0  0  0  0  0  0  0  0  0  0  0  0
    0.2790   14.7920   -2.1670 C   0  0  0  0  0  0  0  0  0  0  0  0
   -3.6680   15.7180   -5.9020 C   0  0  0  0  0  0  0  0  0  0  0  0
    1.1060   12.2840   -2.9900 C   0  0  0  0  0  0  0  0  0  0  0  0
   -0.7300   15.8950   -1.8840 C   0  0  0  0  0  0  0  0  0  0  0  0
    1.6650   12.4190   -1.9320 O   0  0  0  0  0  0  0  0  0  0  0  0
    0.4330   11.1520   -3.2690 O   0  0  0  0  0  0  0  0  0  0  0  0
   -1.7620   15.3080   -1.0900 N   0  0  0  0  0  0  0  0  0  0  0  0
   -3.0020   15.0630   -1.3060 C   0  0  0  0  0  0  0  0  0  0  0  0
   -3.6020   15.3770   -2.5050 N   0  0  0  0  0  0  0  0  0  0  0  0
   -3.7360   14.4590   -0.1380 C   0  0  2  0  0  0  0  0  0  0  0  0
   -4.7830   13.4160   -0.3560 C   0  0  0  0  0  0  0  0  0  0  0  0
   -4.3110   15.6110    0.6550 C   0  0  0  0  0  0  0  0  0  0  0  0
   -5.7670   13.2670    0.5910 N   0  0  0  0  0  0  0  0  0  0  0  0
   -4.7060   15.0220    1.9730 C   0  0  0  0  0  0  0  0  0  0  0  0
   -4.9440   12.5590   -1.3400 N   0  0  0  0  0  0  0  0  0  0  0  0
   -5.8770   14.0600    1.8000 C   0  0  0  0  0  0  0  0  0  0  0  0
   -6.5920   12.2650    0.1920 C   0  0  0  0  0  0  0  0  0  0  0  0
   -6.0680   11.8390   -1.0060 C   0  0  0  0  0  0  0  0  0  0  0  0
  1  2  1  0
  2  3  1  0
  2  4  1  0
  3  5  2  0
  4  6  2  0
  5  6  1  0
  4  7  1  0
  5  8  1  0
  6  9  1  0
  7 10  2  0
  8 11  1  6
  8 12  1  0
  9 13  2  0
 10 13  1  0
 11 14  1  0
 12 15  1  0
 14 16  2  0
 14 17  1  0
 15 18  1  0
 18 19  2  3
 19 20  1  0
 21 19  1  6
 21 22  1  0
 21 23  1  0
 22 24  1  0
 23 25  1  0
 22 26  2  0
 24 27  1  0
 25 27  1  0
 24 28  1  0
 26 29  1  0
 28 29  2  0
M  END
