mac-x0402-diamond-x0962_2_B
     RDKit          3D

 18 20  0  0  0  0  0  0  0  0999 V2000
   -1.8400   14.8800   -3.4200 Cl  0  0  0  0  0  0  0  0  0  0  0  0
   -3.1210   14.9090   -2.2700 C   0  0  0  0  0  0  0  0  0  0  0  0
   -4.4100   15.1690   -2.7060 C   0  0  0  0  0  0  0  0  0  0  0  0
   -2.8450   14.6690   -0.9220 C   0  0  0  0  0  0  0  0  0  0  0  0
   -3.9250   14.6920   -0.0320 C   0  0  0  0  0  0  0  0  0  0  0  0
   -5.4750   15.1910   -1.8040 C   0  0  0  0  0  0  0  0  0  0  0  0
   -5.2300   14.9430   -0.4430 C   0  0  0  0  0  0  0  0  0  0  0  0
   -3.9270   14.4350    1.6560 S   0  0  0  0  0  0  0  0  0  0  0  0
   -5.6360   14.6570    1.7120 C   0  0  0  0  0  0  0  0  0  0  0  0
   -6.1820   14.9190    0.5520 N   0  0  0  0  0  0  0  0  0  0  0  0
   -6.3180   14.5550    2.8800 N   0  0  0  0  0  0  0  0  0  0  0  0
   -7.5290   15.0740    3.1030 N   0  0  0  0  0  0  0  0  0  0  0  0
   -8.0040   15.6710    4.2450 C   0  0  0  0  0  0  0  0  0  0  0  0
   -8.4910   15.0840    2.1810 C   0  0  0  0  0  0  0  0  0  0  0  0
   -9.5290   15.7070    2.7780 C   0  0  0  0  0  0  0  0  0  0  0  0
   -9.2450   16.0800    4.0730 N   0  0  0  0  0  0  0  0  0  0  0  0
  -10.7530   15.9460    2.1260 C   0  0  0  0  0  0  0  0  0  0  0  0
  -11.7070   16.1210    1.5070 N   0  0  0  0  0  0  0  0  0  0  0  0
  1  2  1  0
  2  3  2  0
  2  4  1  0
  4  5  2  0
  3  6  1  0
  5  7  1  0
  6  7  2  0
  5  8  1  0
  8  9  1  0
  7 10  1  0
  9 10  2  0
  9 11  1  0
 11 12  1  0
 12 13  1  0
 12 14  1  0
 14 15  2  0
 13 16  2  0
 15 16  1  0
 15 17  1  0
 17 18  3  0
M  END
