mac-x0379-mac-x0371
     RDKit          3D

 19 20  0  0  0  0  0  0  0  0999 V2000
   -4.5850   15.5680    0.6630 C   0  0  0  0  0  0  0  0  0  0  0  0
   -4.1440   15.2980   -0.7210 C   0  0  0  0  0  0  0  0  0  0  0  0
   -4.8770   15.4990   -1.7860 N   0  0  0  0  0  0  0  0  0  0  0  0
   -2.5790   14.6650   -0.9980 S   0  0  0  0  0  0  0  0  0  0  0  0
   -4.1740   15.1260   -2.9050 C   0  0  0  0  0  0  0  0  0  0  0  0
   -2.9170   14.6380   -2.6830 C   0  0  0  0  0  0  0  0  0  0  0  0
   -1.9890   14.1180   -3.7310 C   0  0  2  0  0  0  0  0  0  0  0  0
   -1.7000   12.8530   -3.2170 O   0  0  0  0  0  0  0  0  0  0  0  0
   -0.5910   14.5550   -3.9400 C   0  0  0  0  0  0  0  0  0  0  0  0
    0.4040   13.5410   -4.0300 C   0  0  0  0  0  0  0  0  0  0  0  0
   -0.2500   15.9080   -4.0480 C   0  0  0  0  0  0  0  0  0  0  0  0
    0.1200   12.0450   -3.9630 C   0  0  0  0  0  0  0  0  0  0  0  0
    1.0590   16.2700   -4.2180 C   0  0  0  0  0  0  0  0  0  0  0  0
    1.7030   13.9470   -4.1960 C   0  0  0  0  0  0  0  0  0  0  0  0
    3.0110   12.8380   -4.3070 Cl  0  0  0  0  0  0  0  0  0  0  0  0
    0.1650   11.3680   -2.6070 C   0  0  0  0  0  0  0  0  0  0  0  0
    2.0080   15.2720   -4.2800 C   0  0  0  0  0  0  0  0  0  0  0  0
    0.3210   12.1910   -1.5450 O   0  0  0  0  0  0  0  0  0  0  0  0
    0.0680   10.1690   -2.4250 O   0  0  0  0  0  0  0  0  0  0  0  0
  1  2  1  0
  2  3  2  0
  2  4  1  0
  3  5  1  0
  4  6  1  0
  5  6  2  0
  6  7  1  0
  7  8  1  1
  7  9  1  0
  9 10  2  0
  9 11  1  0
 10 12  1  0
 11 13  2  0
 10 14  1  0
 14 15  1  0
 12 16  1  0
 13 17  1  0
 14 17  2  0
 16 18  1  0
 16 19  2  0
M  END
