mac-x0527-mac-x0555
     RDKit          3D

 21 23  0  0  0  0  0  0  0  0999 V2000
   -3.7300   15.6200   -3.3240 O   0  0  0  0  0  0  0  0  0  0  0  0
   -3.1870   15.1210   -2.3420 C   0  0  0  0  0  0  0  0  0  0  0  0
   -1.9110   14.6300   -2.5040 N   0  0  0  0  0  0  0  0  0  0  0  0
   -3.8530   15.0240   -1.0460 C   0  0  0  0  0  0  0  0  0  0  0  0
   -1.1020   14.7100   -3.7180 C   0  0  0  0  0  0  0  0  0  0  0  0
   -3.1670   14.9800    0.1590 N   0  0  0  0  0  0  0  0  0  0  0  0
   -5.1940   14.9550   -0.6960 C   0  0  0  0  0  0  0  0  0  0  0  0
   -1.0030   13.3820   -4.4410 C   0  0  0  0  0  0  0  0  0  0  0  0
   -6.2940   14.9710   -1.5460 C   0  0  0  0  0  0  0  0  0  0  0  0
   -5.3270   14.8470    0.7240 C   0  0  0  0  0  0  0  0  0  0  0  0
   -4.0400   14.8760    1.2320 C   0  0  0  0  0  0  0  0  0  0  0  0
   -1.9080   12.3420   -4.1700 C   0  0  0  0  0  0  0  0  0  0  0  0
    0.0060   13.1680   -5.4020 C   0  0  0  0  0  0  0  0  0  0  0  0
   -6.2500   15.0780   -2.8980 N   0  0  0  0  0  0  0  0  0  0  0  0
   -6.5780   14.7390    1.4030 C   0  0  0  0  0  0  0  0  0  0  0  0
   -7.5070   14.8670   -0.9380 N   0  0  0  0  0  0  0  0  0  0  0  0
   -6.8690   14.6340    2.7550 N   0  0  0  0  0  0  0  0  0  0  0  0
   -1.8070   11.1200   -4.8430 C   0  0  0  0  0  0  0  0  0  0  0  0
    0.1030   11.9460   -6.0700 C   0  0  0  0  0  0  0  0  0  0  0  0
   -7.6010   14.7580    0.4380 C   0  0  0  0  0  0  0  0  0  0  0  0
   -0.8020   10.9230   -5.7910 C   0  0  0  0  0  0  0  0  0  0  0  0
  1  2  2  0
  2  3  1  0
  2  4  1  0
  3  5  1  0
  4  6  1  0
  4  7  2  0
  5  8  1  0
  7  9  1  0
  7 10  1  0
  6 11  1  0
 10 11  2  0
  8 12  2  0
  8 13  1  0
  9 14  1  0
 10 15  1  0
  9 16  2  0
 15 17  1  0
 12 18  1  0
 13 19  2  0
 15 20  2  0
 16 20  1  0
 18 21  2  0
 19 21  1  0
M  END
