mac-x0337-mac-x0223
     RDKit          3D

 26 27  0  0  0  0  0  0  0  0999 V2000
   -5.5890    8.9500   -2.0870 C   0  0  0  0  0  0  0  0  0  0  0  0
   -5.2340   10.3750   -1.8040 C   0  0  0  0  0  0  0  0  0  0  0  0
   -6.0990   11.1660   -1.0350 C   0  0  0  0  0  0  0  0  0  0  0  0
   -4.0420   10.9280   -2.2960 C   0  0  0  0  0  0  0  0  0  0  0  0
   -3.7240   12.2580   -2.0310 C   0  0  0  0  0  0  0  0  0  0  0  0
   -5.7850   12.4890   -0.7690 C   0  0  0  0  0  0  0  0  0  0  0  0
   -4.6070   13.0260   -1.2710 C   0  0  0  0  0  0  0  0  0  0  0  0
   -4.2610   14.7120   -0.9520 S   0  0  2  0  0  0  0  0  0  0  0  0
   -4.9860   15.3790   -2.1140 N   0  0  0  0  0  0  0  0  0  0  0  0
   -2.9040   14.9070   -0.4810 O   0  0  0  0  0  0  0  0  0  0  0  0
   -5.2410   15.2600    0.2790 N   0  0  0  0  0  0  0  0  0  0  0  0
   -4.4680   15.0390   -3.4510 C   0  0  0  0  0  0  0  0  0  0  0  0
   -3.2750   15.9310   -3.4500 C   0  0  0  0  0  0  0  0  0  0  0  0
   -2.8510   16.7050   -4.6090 O   0  0  0  0  0  0  0  0  0  0  0  0
   -1.7240   16.0340   -4.7000 C   0  0  0  0  0  0  0  0  0  0  0  0
   -0.4320   16.5960   -4.8030 C   0  0  0  0  0  0  0  0  0  0  0  0
   -1.9130   14.6820   -4.6390 C   0  0  0  0  0  0  0  0  0  0  0  0
   -0.2660   17.9580   -4.8770 O   0  0  0  0  0  0  0  0  0  0  0  0
   -0.8660   13.8350   -4.6430 C   0  0  0  0  0  0  0  0  0  0  0  0
    0.6550   15.7020   -4.8050 C   0  0  0  0  0  0  0  0  0  0  0  0
    1.0340   18.3130   -5.3460 C   0  0  0  0  0  0  0  0  0  0  0  0
    0.4160   14.3190   -4.7100 C   0  0  0  0  0  0  0  0  0  0  0  0
    1.4710   13.2710   -4.6480 C   0  0  0  0  0  0  0  0  0  0  0  0
    1.1060   12.4100   -3.4460 C   0  0  0  0  0  0  0  0  0  0  0  0
    0.4930   11.3560   -3.4160 O   0  0  0  0  0  0  0  0  0  0  0  0
    1.5230   12.9590   -2.2800 O   0  0  0  0  0  0  0  0  0  0  0  0
  1  2  1  0
  2  3  2  0
  2  4  1  0
  4  5  2  0
  3  6  1  0
  5  7  1  0
  6  7  2  0
  7  8  1  0
  8  9  2  0
  8 10  2  0
  8 11  1  1
  9 12  1  0
 12 13  1  0
 13 14  1  0
 14 15  1  0
 15 16  2  0
 15 17  1  0
 16 18  1  0
 17 19  2  0
 16 20  1  0
 18 21  1  0
 19 22  1  0
 20 22  2  0
 22 23  1  0
 23 24  1  0
 24 25  2  0
 24 26  1  0
M  END
