mac-x0182-mac-x0379
     RDKit          3D

 22 24  0  0  0  0  0  0  0  0999 V2000
    1.7300   11.7410   -7.1470 O   0  0  0  0  0  0  0  0  0  0  0  0
    0.8040   11.4950   -6.4410 C   0  0  0  0  0  0  0  0  0  0  0  0
    0.5700   12.0990   -5.2430 N   0  0  0  0  0  0  0  0  0  0  0  0
   -0.1930   10.4470   -6.7630 C   0  0  0  0  0  0  0  0  0  0  0  0
   -0.7160   11.3570   -4.4740 S   0  0  2  0  0  0  0  0  0  0  0  0
   -1.1010   10.2530   -5.7420 C   0  0  0  0  0  0  0  0  0  0  0  0
   -0.2730    9.6960   -7.9240 C   0  0  0  0  0  0  0  0  0  0  0  0
   -1.7690   12.4530   -4.5130 N   0  0  0  0  0  0  0  0  0  0  0  0
   -0.1560   10.6280   -3.3550 O   0  0  0  0  0  0  0  0  0  0  0  0
   -2.1220    9.3240   -5.7940 C   0  0  0  0  0  0  0  0  0  0  0  0
   -1.2980    8.7440   -8.0170 C   0  0  0  0  0  0  0  0  0  0  0  0
   -1.4740   13.7910   -4.9910 C   0  0  0  0  0  0  0  0  0  0  0  0
   -2.2140    8.5590   -6.9590 C   0  0  0  0  0  0  0  0  0  0  0  0
   -0.5230   14.3650   -4.0600 N   0  0  0  0  0  0  0  0  0  0  0  0
   -0.9390   14.8410   -2.9340 C   0  0  0  0  0  0  0  0  0  0  0  0
   -0.0380   15.3590   -2.0710 O   0  0  0  0  0  0  0  0  0  0  0  0
   -2.3060   14.9020   -2.4430 C   0  0  0  0  0  0  0  0  0  0  0  0
   -3.5000   15.0010   -3.1390 C   0  0  0  0  0  0  0  0  0  0  0  0
   -2.6720   14.8730   -0.7580 S   0  0  0  0  0  0  0  0  0  0  0  0
   -4.3430   15.0000   -1.0950 C   0  0  0  0  0  0  0  0  0  0  0  0
   -4.6480   15.0540   -2.3680 N   0  0  0  0  0  0  0  0  0  0  0  0
   -5.3250   15.0400    0.0190 C   0  0  0  0  0  0  0  0  0  0  0  0
  1  2  2  0
  2  3  1  0
  2  4  1  0
  5  3  1  6
  4  6  2  0
  5  6  1  0
  4  7  1  0
  5  8  2  0
  5  9  2  0
  6 10  1  0
  7 11  2  0
  8 12  1  0
 10 13  2  0
 11 13  1  0
 12 14  1  0
 14 15  2  3
 15 16  1  0
 15 17  1  0
 17 18  2  0
 17 19  1  0
 19 20  1  0
 18 21  1  0
 20 21  2  0
 20 22  1  0
M  END
