mac-x0139-mac-x0223
     RDKit          3D

 25 27  0  0  0  0  0  0  0  0999 V2000
   -1.6500   14.5240   -2.9820 C   0  0  0  0  0  0  0  0  0  0  0  0
   -0.5900   14.8520   -2.0240 N   0  0  0  0  0  0  0  0  0  0  0  0
    0.8120   14.3870   -2.3690 C   0  0  0  0  0  0  0  0  0  0  0  0
   -0.9860   14.7920   -0.7020 C   0  0  0  0  0  0  0  0  0  0  0  0
    0.8090   13.7420   -3.7480 C   0  0  1  0  0  0  0  0  0  0  0  0
   -2.2860   14.9470   -0.3380 C   0  0  0  0  0  0  0  0  0  0  0  0
    0.0150   14.5830    0.2190 N   0  0  0  0  0  0  0  0  0  0  0  0
    0.5280   12.2840   -3.4530 C   0  0  0  0  0  0  0  0  0  0  0  0
   -2.6000   14.8850    1.0920 C   0  0  0  0  0  0  0  0  0  0  0  0
   -0.3290   14.5040    1.4510 C   0  0  0  0  0  0  0  0  0  0  0  0
   -3.5570   15.1930   -0.9490 C   0  0  0  0  0  0  0  0  0  0  0  0
   -0.1710   14.7470   -4.3030 C   0  0  0  0  0  0  0  0  0  0  0  0
    0.7410   11.7700   -2.3630 O   0  0  0  0  0  0  0  0  0  0  0  0
    0.0440   11.5180   -4.4350 O   0  0  0  0  0  0  0  0  0  0  0  0
   -1.5910   14.6140    1.9300 N   0  0  0  0  0  0  0  0  0  0  0  0
   -3.8570   15.1130    1.3330 N   0  0  0  0  0  0  0  0  0  0  0  0
   -4.4140   15.2940    0.0790 C   0  0  0  0  0  0  0  0  0  0  0  0
   -1.5120   14.5130   -4.6880 C   0  0  0  0  0  0  0  0  0  0  0  0
    0.3560   16.0380   -4.3720 C   0  0  0  0  0  0  0  0  0  0  0  0
   -0.4130   17.0930   -4.7740 C   0  0  0  0  0  0  0  0  0  0  0  0
   -2.3010   15.6050   -5.0970 C   0  0  0  0  0  0  0  0  0  0  0  0
    0.0000   18.3780   -4.8660 O   0  0  0  0  0  0  0  0  0  0  0  0
   -1.7270   16.8740   -5.1130 C   0  0  0  0  0  0  0  0  0  0  0  0
    1.2060   18.5140   -5.5940 C   0  0  0  0  0  0  0  0  0  0  0  0
   -2.4590   17.9620   -5.4540 O   0  0  0  0  0  0  0  0  0  0  0  0
  1  2  1  0
  2  3  1  0
  2  4  1  0
  5  3  1  1
  4  6  2  0
  4  7  1  0
  5  8  1  0
  6  9  1  0
  7 10  2  0
  6 11  1  0
  5 12  1  0
  8 13  2  0
  8 14  1  0
  9 15  1  0
 10 15  1  0
  9 16  2  0
 11 17  2  0
 16 17  1  0
 12 18  2  0
 12 19  1  0
 19 20  2  0
 18 21  1  0
 20 22  1  0
 20 23  1  0
 21 23  2  0
 22 24  1  0
 23 25  1  0
M  END
