mac-x0404-diamond-x0592_0_A
     RDKit          3D

 27 29  0  0  0  0  0  0  0  0999 V2000
    1.1450   12.4080   -1.8100 O   0  0  0  0  0  0  0  0  0  0  0  0
    0.8520   12.1400   -3.0970 C   0  0  0  0  0  0  0  0  0  0  0  0
    0.4580   11.0280   -3.4200 O   0  0  0  0  0  0  0  0  0  0  0  0
    1.0580   13.3320   -4.0070 C   0  0  0  0  0  0  0  0  0  0  0  0
    0.6000   14.5000   -3.3010 O   0  0  0  0  0  0  0  0  0  0  0  0
   -0.5510   15.0310   -3.8550 C   0  0  0  0  0  0  0  0  0  0  0  0
   -0.3810   16.1340   -4.7340 C   0  0  0  0  0  0  0  0  0  0  0  0
   -1.8600   14.5470   -3.5610 C   0  0  0  0  0  0  0  0  0  0  0  0
   -2.2800   13.4680   -2.5710 C   0  0  0  0  0  0  0  0  0  0  0  0
   -1.5180   16.7070   -5.3400 C   0  0  0  0  0  0  0  0  0  0  0  0
   -2.9400   15.1330   -4.2150 C   0  0  0  0  0  0  0  0  0  0  0  0
    0.8710   16.7040   -5.0240 C   0  0  0  0  0  0  0  0  0  0  0  0
   -2.1580   13.9270   -1.1490 N   0  0  0  0  0  0  0  0  0  0  0  0
   -2.7710   16.1840   -5.0910 C   0  0  0  0  0  0  0  0  0  0  0  0
   -1.3910   17.8110   -6.1900 C   0  0  0  0  0  0  0  0  0  0  0  0
    0.9820   17.8100   -5.8670 C   0  0  0  0  0  0  0  0  0  0  0  0
   -3.0140   14.3970   -0.2560 C   0  0  0  0  0  0  0  0  0  0  0  0
   -0.1440   18.3630   -6.4480 C   0  0  0  0  0  0  0  0  0  0  0  0
   -2.7090   14.7800    1.0260 N   0  0  0  0  0  0  0  0  0  0  0  0
   -4.4570   14.5910   -0.4590 C   0  0  0  0  0  0  0  0  0  0  0  0
   -5.2590   15.0260   -1.5510 C   0  0  0  0  0  0  0  0  0  0  0  0
   -5.4080   14.3550    0.5330 C   0  0  0  0  0  0  0  0  0  0  0  0
   -6.5740   15.0520   -1.2640 N   0  0  0  0  0  0  0  0  0  0  0  0
   -6.6340   14.6370    0.0150 N   0  0  0  0  0  0  0  0  0  0  0  0
   -7.9180   14.5300    0.7030 C   0  0  0  0  0  0  0  0  0  0  0  0
   -7.7630   14.0700    2.1520 C   0  0  0  0  0  0  0  0  0  0  0  0
   -7.1050   15.0360    2.9700 O   0  0  0  0  0  0  0  0  0  0  0  0
  1  2  1  0
  2  3  2  0
  2  4  1  0
  4  5  1  0
  5  6  1  0
  6  7  2  0
  6  8  1  0
  8  9  1  0
  7 10  1  0
  8 11  2  0
  7 12  1  0
  9 13  1  0
 10 14  2  0
 11 14  1  0
 10 15  1  0
 12 16  2  0
 13 17  2  3
 15 18  2  0
 16 18  1  0
 17 19  1  0
 17 20  1  0
 20 21  1  0
 20 22  2  0
 21 23  2  0
 22 24  1  0
 23 24  1  0
 24 25  1  0
 25 26  1  0
 26 27  1  0
M  END
