mac-x0163-mac-x0347
     RDKit          3D

 32 36  0  0  0  0  0  0  0  0999 V2000
   -3.8700   12.6320   -1.0850 Cl  0  0  0  0  0  0  0  0  0  0  0  0
   -2.3950   13.2140   -0.3950 C   0  0  0  0  0  0  0  0  0  0  0  0
   -2.4590   14.0700    0.7160 C   0  0  0  0  0  0  0  0  0  0  0  0
   -1.1120   12.8590   -0.8700 C   0  0  0  0  0  0  0  0  0  0  0  0
   -3.6710   14.4550    1.2680 N   0  0  0  0  0  0  0  0  0  0  0  0
   -0.0380   13.3750   -0.2430 N   0  0  0  0  0  0  0  0  0  0  0  0
   -1.4050   14.5830    1.3390 N   0  0  0  0  0  0  0  0  0  0  0  0
   -0.8410   11.9360   -1.9920 N   0  0  0  0  0  0  0  0  0  0  0  0
   -0.2450   14.2110    0.8140 C   0  0  0  0  0  0  0  0  0  0  0  0
    0.6260   11.7980   -2.2580 C   0  0  0  0  0  0  0  0  0  0  0  0
   -1.5780   11.8390   -3.2560 C   0  0  0  0  0  0  0  0  0  0  0  0
    1.1770   13.0080   -3.0260 C   0  0  0  0  0  0  0  0  0  0  0  0
   -3.1220   11.6230   -3.2070 C   0  0  0  0  0  0  0  0  0  0  0  0
   -1.5330   10.3670   -3.7690 C   0  0  0  0  0  0  0  0  0  0  0  0
   -1.0090   12.8550   -4.2140 C   0  0  0  0  0  0  0  0  0  0  0  0
   -0.1090   13.7300   -3.3450 C   0  0  2  0  0  0  0  0  0  0  0  0
   -2.8240   10.1370   -2.9650 C   0  0  0  0  0  0  0  0  0  0  0  0
   -0.2310   15.1850   -3.6920 C   0  0  0  0  0  0  0  0  0  0  0  0
    0.2620   15.4790   -4.9880 O   0  0  0  0  0  0  0  0  0  0  0  0
    0.4470   15.9980   -2.7660 O   0  0  0  0  0  0  0  0  0  0  0  0
   -1.7410   15.2030   -3.6220 C   0  0  0  0  0  0  0  0  0  0  0  0
   -2.4170   15.1060   -2.3820 C   0  0  0  0  0  0  0  0  0  0  0  0
   -2.5200   15.2820   -4.7550 C   0  0  0  0  0  0  0  0  0  0  0  0
   -3.8160   15.0890   -2.3110 C   0  0  0  0  0  0  0  0  0  0  0  0
   -3.8630   15.2610   -4.7400 N   0  0  0  0  0  0  0  0  0  0  0  0
   -4.4630   15.1610   -3.5280 C   0  0  0  0  0  0  0  0  0  0  0  0
   -4.5830   14.9900   -1.0540 C   0  0  0  0  0  0  0  0  0  0  0  0
   -4.1560   15.5930    0.1450 C   0  0  0  0  0  0  0  0  0  0  0  0
   -5.7870   14.2630   -1.0190 C   0  0  0  0  0  0  0  0  0  0  0  0
   -4.8960   15.4620    1.3240 C   0  0  0  0  0  0  0  0  0  0  0  0
   -6.5280   14.1330    0.1560 C   0  0  0  0  0  0  0  0  0  0  0  0
   -6.0830   14.7300    1.3280 C   0  0  0  0  0  0  0  0  0  0  0  0
  1  2  1  0
  2  3  2  0
  2  4  1  0
  3  5  1  0
  4  6  2  0
  3  7  1  0
  4  8  1  0
  6  9  1  0
  7  9  2  0
  8 10  1  0
 11  8  1  0
 10 12  1  0
 11 13  1  0
 11 14  1  0
 11 15  1  0
 12 16  1  0
 15 16  1  0
 13 17  1  0
 14 17  1  0
 16 18  1  6
 18 19  1  0
 18 20  1  0
 18 21  1  0
 21 22  2  0
 21 23  1  0
 22 24  1  0
 23 25  2  0
 24 26  2  0
 25 26  1  0
 24 27  1  0
 27 28  2  0
 27 29  1  0
 28 30  1  0
 29 31  2  0
 30 32  2  0
 31 32  1  0
M  END
