mac-x0402-mac-x0439
     RDKit          3D

 26 29  0  0  0  0  0  0  0  0999 V2000
   -1.7140   14.7130   -3.0970 Cl  0  0  0  0  0  0  0  0  0  0  0  0
   -3.1240   14.7210   -2.1350 C   0  0  0  0  0  0  0  0  0  0  0  0
   -4.3880   14.5490   -2.6950 C   0  0  0  0  0  0  0  0  0  0  0  0
   -2.9250   14.9050   -0.7680 C   0  0  0  0  0  0  0  0  0  0  0  0
   -4.6210   14.3210   -4.1840 C   0  0  0  0  0  0  0  0  0  0  0  0
   -4.0400   14.9140    0.0580 C   0  0  0  0  0  0  0  0  0  0  0  0
   -5.4970   14.5750   -1.8300 C   0  0  0  0  0  0  0  0  0  0  0  0
   -3.3670   14.5790   -5.0420 C   0  0  0  0  0  0  0  0  0  0  0  0
   -5.3230   14.7530   -0.4430 C   0  0  0  0  0  0  0  0  0  0  0  0
   -4.1210   15.1050    1.7540 S   0  0  0  0  0  0  0  0  0  0  0  0
   -3.0610   16.0670   -5.0750 C   0  0  0  0  0  0  0  0  0  0  0  0
   -5.8280   14.9480    1.6840 C   0  0  0  0  0  0  0  0  0  0  0  0
   -6.3320   14.7770    0.4940 N   0  0  0  0  0  0  0  0  0  0  0  0
   -6.5890   14.9990    2.7860 N   0  0  0  0  0  0  0  0  0  0  0  0
   -1.6690   16.6010   -5.2890 C   0  0  0  0  0  0  0  0  0  0  0  0
   -0.3900   15.7920   -5.1150 C   0  0  2  0  0  0  0  0  0  0  0  0
   -1.5500   17.8910   -5.6710 C   0  0  0  0  0  0  0  0  0  0  0  0
   -0.1080   14.7220   -4.1250 C   0  0  0  0  0  0  0  0  0  0  0  0
    0.7490   16.7020   -4.7430 C   0  0  0  0  0  0  0  0  0  0  0  0
   -0.2700   18.5170   -5.9020 C   0  0  0  0  0  0  0  0  0  0  0  0
    1.0060   15.0270   -3.4540 C   0  0  0  0  0  0  0  0  0  0  0  0
    1.5280   16.2420   -3.8220 N   0  0  0  0  0  0  0  0  0  0  0  0
    0.8770   17.9880   -5.4670 C   0  0  0  0  0  0  0  0  0  0  0  0
    1.6060   14.1220   -2.4150 C   0  0  0  0  0  0  0  0  0  0  0  0
    2.7000   14.6130   -1.7710 O   0  0  0  0  0  0  0  0  0  0  0  0
    1.1540   13.0210   -2.1580 O   0  0  0  0  0  0  0  0  0  0  0  0
  1  2  1  0
  2  3  2  0
  2  4  1  0
  3  5  1  0
  4  6  2  0
  3  7  1  0
  5  8  1  0
  6  9  1  0
  7  9  2  0
  6 10  1  0
  8 11  1  0
 10 12  1  0
  9 13  1  0
 12 13  2  0
 12 14  1  0
 11 15  1  0
 15 16  1  0
 15 17  2  0
 16 18  1  1
 16 19  1  0
 17 20  1  0
 18 21  2  0
 19 22  2  0
 21 22  1  0
 19 23  1  0
 20 23  2  0
 21 24  1  0
 24 25  1  0
 24 26  2  0
M  END
