mac-x0302-mac-x0373
     RDKit          3D

 21 22  0  0  0  0  0  0  0  0999 V2000
    1.7230   14.1570   -3.4830 O   0  0  0  0  0  0  0  0  0  0  0  0
    0.6870   14.3380   -2.5490 C   0  0  0  0  0  0  0  0  0  0  0  0
    0.4280   13.1230   -1.9090 O   0  0  0  0  0  0  0  0  0  0  0  0
   -0.5980   14.8700   -3.2440 C   0  0  0  0  0  0  0  0  0  0  0  0
    1.1810   15.1700   -1.5480 O   0  0  0  0  0  0  0  0  0  0  0  0
   -1.8640   14.2310   -2.8220 N   0  0  0  0  0  0  0  0  0  0  0  0
   -2.9690   15.0850   -2.6130 C   0  0  0  0  0  0  0  0  0  0  0  0
   -2.0120   13.0020   -3.5050 C   0  0  0  0  0  0  0  0  0  0  0  0
   -3.3220   15.8790   -3.4860 O   0  0  0  0  0  0  0  0  0  0  0  0
   -3.7880   15.0590   -1.3610 C   0  0  0  0  0  0  0  0  0  0  0  0
   -1.3050   12.7880   -4.7060 C   0  0  0  0  0  0  0  0  0  0  0  0
   -2.8420   11.9890   -3.0270 C   0  0  0  0  0  0  0  0  0  0  0  0
   -5.1870   15.0340   -1.4080 C   0  0  0  0  0  0  0  0  0  0  0  0
   -3.1370   15.0580   -0.1180 C   0  0  0  0  0  0  0  0  0  0  0  0
   -1.4290   11.5910   -5.4050 C   0  0  0  0  0  0  0  0  0  0  0  0
   -2.9660   10.7920   -3.7270 C   0  0  0  0  0  0  0  0  0  0  0  0
   -5.9140   15.0020   -0.2200 C   0  0  0  0  0  0  0  0  0  0  0  0
   -3.8790   15.0310    1.0630 C   0  0  0  0  0  0  0  0  0  0  0  0
   -2.2620   10.5910   -4.9130 C   0  0  0  0  0  0  0  0  0  0  0  0
   -7.2750   14.9710   -0.3000 O   0  0  0  0  0  0  0  0  0  0  0  0
   -5.2680   15.0010    1.0140 C   0  0  0  0  0  0  0  0  0  0  0  0
  2  1  1  0
  2  3  1  0
  2  4  1  0
  2  5  1  0
  4  6  1  0
  6  7  1  0
  6  8  1  0
  7  9  2  0
  7 10  1  0
  8 11  2  0
  8 12  1  0
 10 13  2  0
 10 14  1  0
 11 15  1  0
 12 16  2  0
 13 17  1  0
 14 18  2  0
 15 19  2  0
 16 19  1  0
 17 20  1  0
 17 21  2  0
 18 21  1  0
M  END
