mac-x0439-mac-x0564
     RDKit          3D

 26 30  0  0  0  0  0  0  0  0999 V2000
   -3.0700   15.9170   -5.2350 Cl  0  0  0  0  0  0  0  0  0  0  0  0
   -1.5570   16.7040   -5.4250 C   0  0  0  0  0  0  0  0  0  0  0  0
   -0.2790   15.9550   -5.1650 C   0  0  2  0  0  0  0  0  0  0  0  0
   -1.5170   17.9830   -5.8350 C   0  0  0  0  0  0  0  0  0  0  0  0
   -0.0170   14.9770   -4.0900 C   0  0  0  0  0  0  0  0  0  0  0  0
    0.7930   16.9130   -4.7800 C   0  0  0  0  0  0  0  0  0  0  0  0
   -0.2480   18.6550   -6.0260 C   0  0  0  0  0  0  0  0  0  0  0  0
    1.0580   15.3300   -3.3700 C   0  0  0  0  0  0  0  0  0  0  0  0
    1.5450   16.5280   -3.8140 N   0  0  0  0  0  0  0  0  0  0  0  0
    0.9070   18.1810   -5.5340 C   0  0  0  0  0  0  0  0  0  0  0  0
    1.5850   14.4990   -2.2020 C   0  0  0  0  0  0  0  0  0  0  0  0
    2.8270   14.7490   -1.7270 O   0  0  0  0  0  0  0  0  0  0  0  0
    0.8000   13.6220   -1.7450 N   0  0  0  0  0  0  0  0  0  0  0  0
   -0.2900   13.6990   -2.5340 C   0  0  0  0  0  0  0  0  0  0  0  0
   -1.5440   14.1370   -2.1420 C   0  0  0  0  0  0  0  0  0  0  0  0
   -0.0660   13.3300   -3.8170 N   0  0  0  0  0  0  0  0  0  0  0  0
   -2.5200   14.1820   -3.1230 C   0  0  0  0  0  0  0  0  0  0  0  0
   -1.0840   13.4150   -4.6770 C   0  0  0  0  0  0  0  0  0  0  0  0
   -2.0470   14.5620   -0.9380 O   0  0  0  0  0  0  0  0  0  0  0  0
   -2.3240   13.8260   -4.4170 N   0  0  0  0  0  0  0  0  0  0  0  0
   -3.3650   14.8610   -1.1760 C   0  0  0  0  0  0  0  0  0  0  0  0
   -3.6860   14.6470   -2.5110 C   0  0  0  0  0  0  0  0  0  0  0  0
   -4.9800   14.8980   -2.9740 C   0  0  0  0  0  0  0  0  0  0  0  0
   -4.2950   15.3150   -0.2470 C   0  0  0  0  0  0  0  0  0  0  0  0
   -5.9240   15.3450   -2.0670 C   0  0  0  0  0  0  0  0  0  0  0  0
   -5.5840   15.5400   -0.7420 C   0  0  0  0  0  0  0  0  0  0  0  0
  1  2  1  0
  2  3  1  0
  2  4  2  0
  3  5  1  1
  3  6  1  0
  4  7  1  0
  5  8  2  0
  6  9  2  0
  8  9  1  0
  6 10  1  0
  7 10  2  0
  8 11  1  0
 11 12  1  0
 11 13  2  3
 13 14  1  0
 14 15  1  0
 14 16  2  0
 15 17  2  0
 16 18  1  0
 15 19  1  0
 17 20  1  0
 18 20  2  0
 19 21  1  0
 17 22  1  0
 21 22  2  0
 22 23  1  0
 21 24  1  0
 23 25  2  0
 24 26  2  0
 25 26  1  0
M  END
