mac-x0496-mac-x0116
     RDKit          3D

 28 31  0  0  0  0  0  0  0  0999 V2000
   -9.7310   17.7650    4.9250 C   0  0  0  0  0  0  0  0  0  0  0  0
   -9.9260   16.9090    3.7400 C   0  0  0  0  0  0  0  0  0  0  0  0
  -11.0740   16.8550    3.0560 N   0  0  0  0  0  0  0  0  0  0  0  0
   -8.9370   16.0990    3.2530 N   0  0  0  0  0  0  0  0  0  0  0  0
  -10.8010   15.9590    2.0270 O   0  0  0  0  0  0  0  0  0  0  0  0
   -9.5130   15.5540    2.2090 C   0  0  0  0  0  0  0  0  0  0  0  0
   -9.0040   14.5900    1.2110 C   0  0  0  0  0  0  0  0  0  0  0  0
   -7.5320   14.4950    1.1980 N   0  0  0  0  0  0  0  0  0  0  0  0
   -6.8460   14.8340    0.0340 C   0  0  0  0  0  0  0  0  0  0  0  0
   -7.1970   13.2550    1.6080 C   0  0  0  0  0  0  0  0  0  0  0  0
   -7.4090   15.3560   -0.9230 O   0  0  0  0  0  0  0  0  0  0  0  0
   -5.3280   14.5260   -0.0960 C   0  0  2  0  0  0  0  0  0  0  0  0
   -6.9160   12.4010    0.5900 O   0  0  0  0  0  0  0  0  0  0  0  0
   -7.0880   12.6330    2.8080 C   0  0  0  0  0  0  0  0  0  0  0  0
   -4.6270   14.5090    1.2370 C   0  0  0  0  0  0  0  0  0  0  0  0
   -4.6910   15.5370   -1.0680 C   0  0  0  0  0  0  0  0  0  0  0  0
   -6.7410   11.3220    2.5240 C   0  0  0  0  0  0  0  0  0  0  0  0
   -6.6460   11.2290    1.1520 C   0  0  0  0  0  0  0  0  0  0  0  0
   -3.3100   14.6830    1.3190 C   0  0  0  0  0  0  0  0  0  0  0  0
   -3.1400   15.6170   -1.0690 C   0  0  2  0  0  0  0  0  0  0  0  0
   -2.6060   15.1700   -2.4190 C   0  0  0  0  0  0  0  0  0  0  0  0
   -2.4200   14.9240    0.1200 C   0  0  2  0  0  0  0  0  0  0  0  0
   -1.4950   14.7330   -2.6700 O   0  0  0  0  0  0  0  0  0  0  0  0
   -3.5010   15.3000   -3.4220 O   0  0  0  0  0  0  0  0  0  0  0  0
   -1.5830   13.7350   -0.3740 C   0  0  0  0  0  0  0  0  0  0  0  0
   -1.3520   15.7910    0.6920 N   0  0  0  0  0  0  0  0  0  0  0  0
   -0.2300   14.2500   -0.4790 N   0  0  0  0  0  0  0  0  0  0  0  0
   -0.1490   14.9870    0.7420 C   0  0  0  0  0  0  0  0  0  0  0  0
  1  2  1  0
  2  3  2  0
  2  4  1  0
  3  5  1  0
  4  6  2  0
  5  6  1  0
  6  7  1  0
  7  8  1  0
  8  9  1  0
  8 10  1  0
  9 11  2  0
 12  9  1  1
 10 13  1  0
 10 14  2  0
 12 15  1  0
 12 16  1  0
 14 17  1  0
 13 18  1  0
 17 18  2  0
 15 19  2  0
 16 20  1  0
 20 21  1  6
 22 19  1  1
 20 22  1  0
 21 23  2  0
 21 24  1  0
 22 25  1  0
 22 26  1  0
 25 27  1  0
 26 28  1  0
 27 28  1  0
M  END
