mac-x0161-diamond-x0962_1_A
     RDKit          3D

 24 27  0  0  0  0  0  0  0  0999 V2000
   -4.1810   15.8570    1.1590 N   0  0  0  0  0  0  0  0  0  0  0  0
   -3.2630   15.7040    0.0470 C   0  0  1  0  0  0  0  0  0  0  0  0
   -2.2250   14.6370    0.3310 C   0  0  1  0  0  0  0  0  0  0  0  0
   -3.9220   15.4210   -1.2060 N   0  0  0  0  0  0  0  0  0  0  0  0
   -3.0540   15.3570   -2.3740 C   0  0  0  0  0  0  0  0  0  0  0  0
   -1.3140   14.4750   -0.8870 C   0  0  1  0  0  0  0  0  0  0  0  0
   -1.3470   14.9290    1.4800 N   0  0  0  0  0  0  0  0  0  0  0  0
   -4.8050   14.2870   -1.1630 C   0  0  0  0  0  0  0  0  0  0  0  0
   -1.6390   15.3090   -2.0320 N   0  0  0  0  0  0  0  0  0  0  0  0
   -0.0330   14.9760   -0.4100 N   0  0  0  0  0  0  0  0  0  0  0  0
   -0.0230   14.6480    0.9930 C   0  0  0  0  0  0  0  0  0  0  0  0
   -5.8740   14.4360   -0.1510 C   0  0  0  0  0  0  0  0  0  0  0  0
   -0.8120   15.0160   -3.2210 C   0  0  0  0  0  0  0  0  0  0  0  0
   -5.6460   14.4180    1.2040 N   0  0  0  0  0  0  0  0  0  0  0  0
   -7.2270   14.6010   -0.2780 C   0  0  0  0  0  0  0  0  0  0  0  0
   -0.6480   13.5740   -3.5650 C   0  0  0  0  0  0  0  0  0  0  0  0
   -6.8470   14.5660    1.8240 C   0  0  0  0  0  0  0  0  0  0  0  0
   -7.8290   14.6780    0.9530 N   0  0  0  0  0  0  0  0  0  0  0  0
   -1.0650   12.7700   -4.6040 C   0  0  0  0  0  0  0  0  0  0  0  0
    0.0700   12.8180   -2.6880 O   0  0  0  0  0  0  0  0  0  0  0  0
    0.1340   11.5080   -3.1320 N   0  0  0  0  0  0  0  0  0  0  0  0
   -0.5500   11.5040   -4.2800 C   0  0  0  0  0  0  0  0  0  0  0  0
   -0.7040   10.3820   -5.0150 O   0  0  0  0  0  0  0  0  0  0  0  0
   -1.7600   10.4420   -5.9660 C   0  0  0  0  0  0  0  0  0  0  0  0
  2  1  1  1
  2  3  1  0
  2  4  1  0
  4  5  1  0
  3  6  1  0
  3  7  1  1
  4  8  1  0
  5  9  1  0
  6  9  1  0
  6 10  1  1
  7 11  1  0
 10 11  1  0
  8 12  1  0
  9 13  1  0
 12 14  1  0
 12 15  2  0
 13 16  1  0
 14 17  1  0
 15 18  1  0
 17 18  2  0
 16 19  2  0
 16 20  1  0
 20 21  1  0
 19 22  1  0
 21 22  2  0
 22 23  1  0
 23 24  1  0
M  END
