mac-x0472-mac-x0161
     RDKit          3D

 33 37  0  0  0  0  0  0  0  0999 V2000
   -5.7400   13.5480   -4.6340 O   0  0  0  0  0  0  0  0  0  0  0  0
   -5.2620   12.1810   -4.6480 S   0  0  0  0  0  0  0  0  0  0  0  0
   -5.2750   11.3830   -5.8560 O   0  0  0  0  0  0  0  0  0  0  0  0
   -3.7140   12.1070   -4.0830 N   0  0  0  0  0  0  0  0  0  0  0  0
   -6.0250   11.2480   -3.3470 C   0  0  0  0  0  0  0  0  0  0  0  0
   -3.6590   12.5380   -2.7200 C   0  0  0  0  0  0  0  0  0  0  0  0
   -5.5200    9.9740   -3.0710 C   0  0  0  0  0  0  0  0  0  0  0  0
   -7.0880   11.7800   -2.6210 C   0  0  0  0  0  0  0  0  0  0  0  0
   -2.7070   12.2260   -1.8890 N   0  0  0  0  0  0  0  0  0  0  0  0
   -4.8960   13.5400   -2.1020 S   0  0  0  0  0  0  0  0  0  0  0  0
   -6.0940    9.2200   -2.0490 C   0  0  0  0  0  0  0  0  0  0  0  0
   -7.6570   11.0190   -1.6000 C   0  0  0  0  0  0  0  0  0  0  0  0
   -3.9970   13.5470   -0.6410 C   0  0  0  0  0  0  0  0  0  0  0  0
   -2.9210   12.8250   -0.6790 N   0  0  0  0  0  0  0  0  0  0  0  0
   -7.1590    9.7440   -1.3180 C   0  0  0  0  0  0  0  0  0  0  0  0
   -4.2850   14.2410    0.4420 N   0  0  0  0  0  0  0  0  0  0  0  0
   -3.4650   15.4130    0.3090 C   0  0  2  0  0  0  0  0  0  0  0  0
   -3.7470   16.0290   -0.9940 N   0  0  0  0  0  0  0  0  0  0  0  0
   -1.9590   14.9410    0.4010 C   0  0  1  0  0  0  0  0  0  0  0  0
   -2.9620   15.6230   -2.1690 C   0  0  0  0  0  0  0  0  0  0  0  0
   -1.2180   14.7490   -0.9570 C   0  0  1  0  0  0  0  0  0  0  0  0
   -1.0490   15.8620    1.0430 N   0  0  0  0  0  0  0  0  0  0  0  0
   -1.5460   15.7510   -1.9380 N   0  0  0  0  0  0  0  0  0  0  0  0
    0.1910   14.9110   -0.5840 N   0  0  0  0  0  0  0  0  0  0  0  0
    0.1790   15.1580    0.8360 C   0  0  0  0  0  0  0  0  0  0  0  0
   -0.7540   15.6940   -3.1970 C   0  0  0  0  0  0  0  0  0  0  0  0
   -0.3600   14.3370   -3.7160 C   0  0  0  0  0  0  0  0  0  0  0  0
   -0.7510   13.5680   -4.7930 C   0  0  0  0  0  0  0  0  0  0  0  0
    0.6010   13.6580   -3.0210 O   0  0  0  0  0  0  0  0  0  0  0  0
    0.8490   12.4390   -3.6340 N   0  0  0  0  0  0  0  0  0  0  0  0
    0.0330   12.4080   -4.6880 C   0  0  0  0  0  0  0  0  0  0  0  0
    0.0080   11.3490   -5.5320 O   0  0  0  0  0  0  0  0  0  0  0  0
    0.6160   11.5930   -6.7950 C   0  0  0  0  0  0  0  0  0  0  0  0
  1  2  2  0
  2  3  2  0
  2  4  1  0
  2  5  1  0
  4  6  1  0
  5  7  2  0
  5  8  1  0
  6  9  2  0
  6 10  1  0
  7 11  1  0
  8 12  2  0
 10 13  1  0
  9 14  1  0
 13 14  2  0
 11 15  2  0
 12 15  1  0
 13 16  1  0
 17 16  1  6
 17 18  1  0
 17 19  1  0
 18 20  1  0
 19 21  1  0
 19 22  1  1
 20 23  1  0
 21 23  1  0
 21 24  1  1
 22 25  1  0
 24 25  1  0
 23 26  1  0
 26 27  1  0
 27 28  2  0
 27 29  1  0
 29 30  1  0
 28 31  1  0
 30 31  2  0
 31 32  1  0
 32 33  1  0
M  END
