mac-x0455-mac-x0358
     RDKit          3D

 21 22  0  0  0  0  0  0  0  0999 V2000
   -1.2480   13.0190   -1.3670 C   0  0  0  0  0  0  0  0  0  0  0  0
   -0.9710   13.4270   -2.8290 C   0  0  1  0  0  0  0  0  0  0  0  0
   -1.9560   14.4350   -3.0730 O   0  0  0  0  0  0  0  0  0  0  0  0
    0.3770   13.9450   -3.1860 S   0  0  0  0  0  0  0  0  0  0  0  0
   -1.4190   12.3220   -3.7220 C   0  0  0  0  0  0  0  0  0  0  0  0
    1.6710   14.4090   -1.6790 O   0  0  0  0  0  0  0  0  0  0  0  0
    1.2500   12.5330   -2.6790 O   0  0  0  0  0  0  0  0  0  0  0  0
    0.1420   15.2050   -2.8030 O   0  0  0  0  0  0  0  0  0  0  0  0
    0.9770   14.1030   -4.5920 C   0  0  0  0  0  0  0  0  0  0  0  0
   -2.6600   11.8500   -3.9010 C   0  0  0  0  0  0  0  0  0  0  0  0
   -0.3270   11.7640   -4.4570 C   0  0  0  0  0  0  0  0  0  0  0  0
   -2.8320   10.8070   -4.8270 C   0  0  0  0  0  0  0  0  0  0  0  0
   -0.5060   10.7470   -5.3580 C   0  0  0  0  0  0  0  0  0  0  0  0
   -0.3760   14.1780   -5.1780 C   0  0  0  0  0  0  0  0  0  0  0  0
   -1.7750   10.2770   -5.5320 C   0  0  0  0  0  0  0  0  0  0  0  0
   -1.0340   13.1420   -5.8710 C   0  0  0  0  0  0  0  0  0  0  0  0
   -1.0770   15.3220   -5.0010 C   0  0  0  0  0  0  0  0  0  0  0  0
   -0.3420   11.9580   -6.0700 O   0  0  0  0  0  0  0  0  0  0  0  0
   -2.3130   13.2900   -6.3280 C   0  0  0  0  0  0  0  0  0  0  0  0
   -2.3670   15.5080   -5.4470 C   0  0  0  0  0  0  0  0  0  0  0  0
   -2.9810   14.4910   -6.1060 C   0  0  0  0  0  0  0  0  0  0  0  0
  2  1  1  1
  2  3  1  0
  2  4  1  0
  2  5  1  0
  4  6  2  0
  4  7  1  0
  4  8  1  0
  4  9  1  0
  5 10  2  0
  5 11  1  0
 10 12  1  0
 11 13  2  0
  9 14  1  0
 12 15  2  0
 13 15  1  0
 14 16  2  0
 14 17  1  0
 16 18  1  0
 16 19  1  0
 17 20  2  0
 19 21  2  0
 20 21  1  0
M  END
