mac-x0231-diamond-x0524_0_A
     RDKit          3D

 34 37  0  0  0  0  0  0  0  0999 V2000
    0.7190   10.8420   -2.8930 O   0  0  0  0  0  0  0  0  0  0  0  0
    1.2930   12.0110   -3.2210 C   0  0  0  0  0  0  0  0  0  0  0  0
    2.1450   12.4940   -2.5020 O   0  0  0  0  0  0  0  0  0  0  0  0
    0.7630   12.6430   -4.4720 C   0  0  2  0  0  0  0  0  0  0  0  0
    0.9700   12.1790   -5.9160 C   0  0  0  0  0  0  0  0  0  0  0  0
    0.7270   14.1190   -4.4670 C   0  0  0  0  0  0  0  0  0  0  0  0
   -0.3420   11.7160   -6.5470 C   0  0  0  0  0  0  0  0  0  0  0  0
   -0.6060   14.5810   -4.7960 C   0  0  0  0  0  0  0  0  0  0  0  0
    1.7540   14.8750   -4.2190 N   0  0  0  0  0  0  0  0  0  0  0  0
   -0.0680   10.5810   -7.3870 N   0  0  0  0  0  0  0  0  0  0  0  0
   -0.8090   15.9310   -4.8610 C   0  0  0  0  0  0  0  0  0  0  0  0
    1.5360   16.2210   -4.2810 N   0  0  0  0  0  0  0  0  0  0  0  0
   -1.6530   13.6810   -5.0400 C   0  0  0  0  0  0  0  0  0  0  0  0
   -0.7470    9.4920   -7.3900 C   0  0  0  0  0  0  0  0  0  0  0  0
    0.3310   16.8260   -4.5910 C   0  0  0  0  0  0  0  0  0  0  0  0
   -2.0870   16.4160   -5.1780 C   0  0  0  0  0  0  0  0  0  0  0  0
   -2.9180   14.1490   -5.3540 C   0  0  0  0  0  0  0  0  0  0  0  0
    0.1990   18.0410   -4.6410 O   0  0  0  0  0  0  0  0  0  0  0  0
   -0.4110    8.4610   -8.2240 N   0  0  0  0  0  0  0  0  0  0  0  0
   -1.9520    9.2480   -6.4950 C   0  0  0  0  0  0  0  0  0  0  0  0
   -3.1350   15.5210   -5.4240 C   0  0  0  0  0  0  0  0  0  0  0  0
    0.6500    8.4580   -9.1320 C   0  0  0  0  0  0  0  0  0  0  0  0
    1.7790    7.6550   -9.0290 C   0  0  0  0  0  0  0  0  0  0  0  0
    0.5820    9.3320  -10.2310 C   0  0  0  0  0  0  0  0  0  0  0  0
    2.8060    7.7130   -9.9760 C   0  0  0  0  0  0  0  0  0  0  0  0
    1.6050    9.3900  -11.1800 C   0  0  0  0  0  0  0  0  0  0  0  0
    2.7350    8.5790  -11.0670 C   0  0  0  0  0  0  0  0  0  0  0  0
    3.7400    8.6620  -12.0360 N   0  0  0  0  0  0  0  0  0  0  0  0
    3.9750    9.5600  -13.0840 C   0  0  0  0  0  0  0  0  0  0  0  0
    3.2190   10.7180  -13.3080 C   0  0  0  0  0  0  0  0  0  0  0  0
    5.0320    9.2840  -13.9570 C   0  0  0  0  0  0  0  0  0  0  0  0
    3.5100   11.5690  -14.3710 C   0  0  0  0  0  0  0  0  0  0  0  0
    5.3260   10.1340  -15.0220 C   0  0  0  0  0  0  0  0  0  0  0  0
    4.5630   11.2770  -15.2310 C   0  0  0  0  0  0  0  0  0  0  0  0
  1  2  1  0
  2  3  2  0
  2  4  1  0
  4  5  1  6
  4  6  1  0
  5  7  1  0
  6  8  1  0
  6  9  2  0
  7 10  1  0
  8 11  2  0
  9 12  1  0
  8 13  1  0
 10 14  2  3
 11 15  1  0
 12 15  1  0
 11 16  1  0
 13 17  2  0
 15 18  2  0
 14 19  1  0
 14 20  1  0
 16 21  2  0
 17 21  1  0
 19 22  1  0
 22 23  2  0
 22 24  1  0
 23 25  1  0
 24 26  2  0
 25 27  2  0
 26 27  1  0
 27 28  1  0
 28 29  1  0
 29 30  2  0
 29 31  1  0
 30 32  1  0
 31 33  2  0
 32 34  2  0
 33 34  1  0
M  END
