mac-x0161-mac-x0180
     RDKit          3D

 23 25  0  0  0  0  0  0  0  0999 V2000
   -4.9130   14.8370    0.9830 N   0  0  0  0  0  0  0  0  0  0  0  0
   -6.2230   14.7210    0.4970 C   0  0  0  0  0  0  0  0  0  0  0  0
   -7.2710   14.4490    1.5460 C   0  0  0  0  0  0  0  0  0  0  0  0
   -3.8400   15.2990    0.1270 C   0  0  2  0  0  0  0  0  0  0  0  0
   -6.5350   14.8330   -0.6910 O   0  0  0  0  0  0  0  0  0  0  0  0
   -4.1180   14.6040   -1.1320 N   0  0  0  0  0  0  0  0  0  0  0  0
   -2.3500   15.1250    0.5770 C   0  0  2  0  0  0  0  0  0  0  0  0
   -3.2780   15.0490   -2.2460 C   0  0  0  0  0  0  0  0  0  0  0  0
   -1.5760   14.5140   -0.5810 C   0  0  1  0  0  0  0  0  0  0  0  0
   -1.8190   14.2440    1.6060 N   0  0  0  0  0  0  0  0  0  0  0  0
   -1.8530   15.0180   -1.9040 N   0  0  0  0  0  0  0  0  0  0  0  0
   -0.2090   14.6180   -0.1030 N   0  0  0  0  0  0  0  0  0  0  0  0
   -0.3780   14.2010    1.2990 C   0  0  0  0  0  0  0  0  0  0  0  0
   -0.9400   14.8070   -3.0080 C   0  0  0  0  0  0  0  0  0  0  0  0
   -1.3830   15.5420   -4.1270 O   0  0  0  0  0  0  0  0  0  0  0  0
    0.3220   15.3510   -2.7080 O   0  0  0  0  0  0  0  0  0  0  0  0
   -0.7160   13.4140   -3.4630 C   0  0  0  0  0  0  0  0  0  0  0  0
   -1.1770   12.6540   -4.5160 C   0  0  0  0  0  0  0  0  0  0  0  0
    0.1290   12.6520   -2.7120 O   0  0  0  0  0  0  0  0  0  0  0  0
    0.2360   11.3880   -3.2610 N   0  0  0  0  0  0  0  0  0  0  0  0
   -0.5560   11.4120   -4.3340 C   0  0  0  0  0  0  0  0  0  0  0  0
   -0.7060   10.3270   -5.1230 O   0  0  0  0  0  0  0  0  0  0  0  0
   -1.8080   10.3990   -6.0200 C   0  0  0  0  0  0  0  0  0  0  0  0
  1  2  1  0
  2  3  1  0
  4  1  1  1
  2  5  2  0
  4  6  1  0
  4  7  1  0
  6  8  1  0
  7  9  1  0
  7 10  1  1
  8 11  1  0
  9 11  1  0
  9 12  1  1
 10 13  1  0
 12 13  1  0
 11 14  1  0
 14 15  1  0
 14 16  1  0
 14 17  1  0
 17 18  2  0
 17 19  1  0
 19 20  1  0
 18 21  1  0
 20 21  2  0
 21 22  1  0
 22 23  1  0
M  END
