mac-x0116-mac-x0213
     RDKit          3D

 29 33  0  0  0  0  0  0  0  0999 V2000
   -6.1580   14.7450    1.4110 C   0  0  0  0  0  0  0  0  0  0  0  0
   -4.7810   15.1740    1.6050 N   0  0  0  0  0  0  0  0  0  0  0  0
   -3.9270   15.0200    0.5140 C   0  0  0  0  0  0  0  0  0  0  0  0
   -6.4770   13.2920    1.5170 C   0  0  0  0  0  0  0  0  0  0  0  0
   -6.3860   12.5480    0.3760 O   0  0  0  0  0  0  0  0  0  0  0  0
   -6.8760   12.4960    2.5740 C   0  0  0  0  0  0  0  0  0  0  0  0
   -7.0410   11.2010    2.0540 C   0  0  0  0  0  0  0  0  0  0  0  0
   -6.7310   11.2820    0.7160 C   0  0  0  0  0  0  0  0  0  0  0  0
   -4.4000   15.1520   -0.7580 N   0  0  0  0  0  0  0  0  0  0  0  0
   -2.5600   14.7200    0.6780 C   0  0  0  0  0  0  0  0  0  0  0  0
   -3.5450   14.9850   -1.7870 C   0  0  0  0  0  0  0  0  0  0  0  0
   -1.8010   14.5700   -0.4690 C   0  0  0  0  0  0  0  0  0  0  0  0
   -1.7830   14.5320    1.8050 N   0  0  0  0  0  0  0  0  0  0  0  0
   -2.2280   14.6880   -1.7420 N   0  0  0  0  0  0  0  0  0  0  0  0
   -0.5420   14.2750   -0.0010 N   0  0  0  0  0  0  0  0  0  0  0  0
   -0.5860   14.2710    1.3560 C   0  0  0  0  0  0  0  0  0  0  0  0
    0.6400   14.0090   -0.7770 C   0  0  0  0  0  0  0  0  0  0  0  0
    0.4840   14.2290   -2.1770 N   0  0  0  0  0  0  0  0  0  0  0  0
    0.2360   13.2580   -2.9550 C   0  0  0  0  0  0  0  0  0  0  0  0
    0.1030   11.9530   -2.6010 O   0  0  0  0  0  0  0  0  0  0  0  0
    0.0720   13.6010   -4.3980 C   0  0  0  0  0  0  0  0  0  0  0  0
   -1.3790   14.0910   -4.6190 C   0  0  0  0  0  0  0  0  0  0  0  0
    1.0310   14.7600   -4.7420 C   0  0  0  0  0  0  0  0  0  0  0  0
   -1.2230   15.5500   -4.9400 C   0  0  0  0  0  0  0  0  0  0  0  0
    0.1230   15.9200   -5.0020 C   0  0  0  0  0  0  0  0  0  0  0  0
   -2.2280   16.4800   -5.1650 C   0  0  0  0  0  0  0  0  0  0  0  0
    0.4870   17.2250   -5.2870 C   0  0  0  0  0  0  0  0  0  0  0  0
   -1.8580   17.7980   -5.4580 C   0  0  0  0  0  0  0  0  0  0  0  0
   -0.5100   18.1630   -5.5160 C   0  0  0  0  0  0  0  0  0  0  0  0
  1  2  1  0
  2  3  1  0
  1  4  1  0
  4  5  1  0
  4  6  2  0
  6  7  1  0
  5  8  1  0
  7  8  2  0
  3  9  2  0
  3 10  1  0
  9 11  1  0
 10 12  2  0
 10 13  1  0
 11 14  2  0
 12 14  1  0
 12 15  1  0
 13 16  2  0
 15 16  1  0
 15 17  1  0
 17 18  1  0
 18 19  2  3
 19 20  1  0
 19 21  1  0
 21 22  1  0
 21 23  1  0
 22 24  1  0
 23 25  1  0
 24 25  2  0
 24 26  1  0
 25 27  1  0
 26 28  2  0
 27 29  2  0
 28 29  1  0
M  END
