mac-x0565-mac-x0394
     RDKit          3D

 24 26  0  0  0  0  0  0  0  0999 V2000
   -5.7880   15.1090    1.2590 O   0  0  0  0  0  0  0  0  0  0  0  0
   -6.3840   14.9640    0.0580 C   0  0  0  0  0  0  0  0  0  0  0  0
   -7.5850   14.8940   -0.1220 O   0  0  0  0  0  0  0  0  0  0  0  0
   -5.4200   14.8940   -1.0320 C   0  0  0  0  0  0  0  0  0  0  0  0
   -4.0570   14.8530   -0.7720 C   0  0  0  0  0  0  0  0  0  0  0  0
   -5.9370   14.8630   -2.3310 C   0  0  0  0  0  0  0  0  0  0  0  0
   -3.2480   14.7660   -1.8620 C   0  0  0  0  0  0  0  0  0  0  0  0
   -5.0830   14.7750   -3.4070 C   0  0  0  0  0  0  0  0  0  0  0  0
   -3.7510   14.7230   -3.1540 C   0  0  0  0  0  0  0  0  0  0  0  0
   -1.8910   14.7110   -1.8080 O   0  0  0  0  0  0  0  0  0  0  0  0
   -2.7820   14.6250   -4.0500 N   0  0  0  0  0  0  0  0  0  0  0  0
   -1.5630   14.6590   -3.2090 C   0  0  0  0  0  0  0  0  0  0  0  0
   -2.7850   15.3060   -5.2920 C   0  0  0  0  0  0  0  0  0  0  0  0
   -1.3670   15.5470   -5.1860 C   0  0  0  0  0  0  0  0  0  0  0  0
   -0.6160   14.4050   -4.9110 C   0  0  0  0  0  0  0  0  0  0  0  0
   -0.8000   16.7760   -5.3080 C   0  0  0  0  0  0  0  0  0  0  0  0
    0.7410   14.4740   -4.7320 C   0  0  0  0  0  0  0  0  0  0  0  0
    0.5500   16.8650   -5.1410 C   0  0  0  0  0  0  0  0  0  0  0  0
    1.1850   18.4260   -5.3090 Cl  0  0  0  0  0  0  0  0  0  0  0  0
    1.5280   13.2180   -4.4160 C   0  0  0  0  0  0  0  0  0  0  0  0
    1.3280   15.7260   -4.8470 C   0  0  0  0  0  0  0  0  0  0  0  0
    1.0790   12.5170   -3.1410 C   0  0  0  0  0  0  0  0  0  0  0  0
    0.3810   11.3860   -3.3830 O   0  0  0  0  0  0  0  0  0  0  0  0
    1.2720   12.8570   -1.9880 O   0  0  0  0  0  0  0  0  0  0  0  0
  1  2  1  0
  2  3  2  0
  2  4  1  0
  4  5  2  0
  4  6  1  0
  5  7  1  0
  6  8  2  0
  7  9  2  0
  8  9  1  0
  7 10  1  0
  9 11  1  0
 10 12  1  0
 11 12  1  0
 11 13  1  0
 13 14  1  0
 14 15  2  0
 14 16  1  0
 15 17  1  0
 16 18  2  0
 18 19  1  0
 17 20  1  0
 17 21  2  0
 18 21  1  0
 20 22  1  0
 22 23  1  0
 22 24  2  0
M  END
