mac-x0137-mac-x0354
     RDKit          3D

 31 35  0  0  0  0  0  0  0  0999 V2000
   -3.7020   13.4030   -3.6540 F   0  0  0  0  0  0  0  0  0  0  0  0
   -2.3870   13.5350   -3.9680 C   0  0  2  0  0  0  0  0  0  0  0  0
   -1.6410   12.4100   -3.3040 C   0  0  0  0  0  0  0  0  0  0  0  0
   -1.8810   14.8900   -3.4500 C   0  0  0  0  0  0  0  0  0  0  0  0
   -0.8870   14.7440   -2.3590 N   0  0  0  0  0  0  0  0  0  0  0  0
   -0.2170   12.7900   -3.5540 C   0  0  2  0  0  0  0  0  0  0  0  0
    0.7460   11.6940   -3.5700 C   0  0  0  0  0  0  0  0  0  0  0  0
    0.2670   13.9200   -2.6920 C   0  0  0  0  0  0  0  0  0  0  0  0
   -1.2270   14.7200   -1.0250 C   0  0  0  0  0  0  0  0  0  0  0  0
    1.8690   12.1060   -2.8140 O   0  0  0  0  0  0  0  0  0  0  0  0
    0.2050   10.4900   -3.0300 O   0  0  0  0  0  0  0  0  0  0  0  0
   -0.2550   14.4510   -0.0820 N   0  0  0  0  0  0  0  0  0  0  0  0
   -2.4490   14.9610   -0.5530 C   0  0  0  0  0  0  0  0  0  0  0  0
    0.9680   11.7310   -5.0080 C   0  0  0  0  0  0  0  0  0  0  0  0
   -0.5350   14.3990    1.2470 C   0  0  0  0  0  0  0  0  0  0  0  0
   -2.6730   14.9390    0.9020 C   0  0  0  0  0  0  0  0  0  0  0  0
   -3.7340   15.2940   -1.0860 C   0  0  0  0  0  0  0  0  0  0  0  0
    1.9480   12.5020   -5.6180 C   0  0  0  0  0  0  0  0  0  0  0  0
    0.3170   11.0770   -6.0410 C   0  0  0  0  0  0  0  0  0  0  0  0
   -1.6800   14.6220    1.7840 N   0  0  0  0  0  0  0  0  0  0  0  0
   -3.8930   15.2620    1.2100 N   0  0  0  0  0  0  0  0  0  0  0  0
   -4.5110   15.4660   -0.0150 C   0  0  0  0  0  0  0  0  0  0  0  0
    0.9390   11.4800   -7.1600 N   0  0  0  0  0  0  0  0  0  0  0  0
    1.9250   12.3420   -6.9020 N   0  0  0  0  0  0  0  0  0  0  0  0
   -0.7800   10.1400   -6.0570 C   0  0  0  0  0  0  0  0  0  0  0  0
    0.6270   11.0660   -8.5110 C   0  0  0  0  0  0  0  0  0  0  0  0
   -0.5690    8.8370   -6.5060 C   0  0  0  0  0  0  0  0  0  0  0  0
   -2.0410   10.5380   -5.6250 C   0  0  0  0  0  0  0  0  0  0  0  0
   -1.6240    7.9300   -6.5190 C   0  0  0  0  0  0  0  0  0  0  0  0
   -3.0970    9.6310   -5.6370 C   0  0  0  0  0  0  0  0  0  0  0  0
   -2.8850    8.3290   -6.0840 C   0  0  0  0  0  0  0  0  0  0  0  0
  2  1  1  1
  2  3  1  0
  2  4  1  0
  4  5  1  0
  3  6  1  0
  6  7  1  1
  5  8  1  0
  6  8  1  0
  5  9  1  0
  7 10  1  0
  7 11  1  0
  9 12  1  0
  9 13  2  0
  7 14  1  0
 12 15  1  0
 13 16  1  0
 13 17  1  0
 14 18  1  0
 14 19  2  0
 15 20  2  0
 16 20  1  0
 16 21  2  0
 17 22  2  0
 21 22  1  0
 19 23  1  0
 18 24  2  0
 23 24  1  0
 19 25  1  0
 23 26  1  0
 25 27  2  0
 25 28  1  0
 27 29  1  0
 28 30  2  0
 29 31  2  0
 30 31  1  0
M  END
