mac-x0392-diamond-x0849_0_A
     RDKit          3D

 15 16  0  0  0  0  0  0  0  0999 V2000
   -0.1220   13.9790    1.9950 N   0  0  0  0  0  0  0  0  0  0  0  0
   -1.4810   14.3030    1.5370 C   0  0  0  0  0  0  0  0  0  0  0  0
   -1.3770   15.0190    0.2830 C   0  0  0  0  0  0  0  0  0  0  0  0
   -0.3340   15.6490   -0.0960 N   0  0  0  0  0  0  0  0  0  0  0  0
   -2.5560   14.9960   -0.5760 C   0  0  0  0  0  0  0  0  0  0  0  0
   -2.2380   14.7800   -2.0100 C   0  0  1  0  0  0  0  0  0  0  0  0
   -3.7760   15.1640   -0.1760 N   0  0  0  0  0  0  0  0  0  0  0  0
   -0.4780   16.2470   -1.3220 C   0  0  0  0  0  0  0  0  0  0  0  0
   -1.5470   13.4760   -2.3960 C   0  0  0  0  0  0  0  0  0  0  0  0
   -3.6640   14.8690   -2.4110 C   0  0  0  0  0  0  0  0  0  0  0  0
   -4.4610   15.0820   -1.3530 C   0  0  0  0  0  0  0  0  0  0  0  0
   -1.3390   15.9040   -2.2620 C   0  0  0  0  0  0  0  0  0  0  0  0
   -2.1320   12.5020   -2.8300 O   0  0  0  0  0  0  0  0  0  0  0  0
   -0.1870   13.4670   -2.2660 O   0  0  0  0  0  0  0  0  0  0  0  0
   -4.1320   14.6800   -4.1700 Br  0  0  0  0  0  0  0  0  0  0  0  0
  1  2  1  0
  2  3  1  0
  3  4  2  0
  3  5  1  0
  5  6  1  0
  5  7  2  0
  4  8  1  0
  6  9  1  1
  6 10  1  0
  7 11  1  0
 10 11  2  0
  6 12  1  0
  8 12  2  0
  9 13  2  0
  9 14  1  0
 10 15  1  0
M  END
