mac-x0522-mac-x0131
     RDKit          3D

 36 40  0  0  0  0  0  0  0  0999 V2000
    1.7090    9.1920  -11.0480 O   0  0  0  0  0  0  0  0  0  0  0  0
    2.7920    8.8100  -11.4880 C   0  0  0  0  0  0  0  0  0  0  0  0
    3.4150    7.7350  -10.8910 N   0  0  0  0  0  0  0  0  0  0  0  0
    3.3500    9.5610  -12.6420 C   0  0  0  0  0  0  0  0  0  0  0  0
    2.9300    7.0570   -9.8050 C   0  0  0  0  0  0  0  0  0  0  0  0
    4.4580    9.0470  -13.3230 C   0  0  0  0  0  0  0  0  0  0  0  0
    2.7780   10.7740  -13.0460 C   0  0  0  0  0  0  0  0  0  0  0  0
    3.2250    5.9600   -9.2730 N   0  0  0  0  0  0  0  0  0  0  0  0
    1.6910    7.8300   -9.0170 S   0  0  0  0  0  0  0  0  0  0  0  0
    4.9860    9.7510  -14.4070 C   0  0  0  0  0  0  0  0  0  0  0  0
    3.3110   11.4710  -14.1280 C   0  0  0  0  0  0  0  0  0  0  0  0
    1.3640    6.6820   -7.7490 C   0  0  0  0  0  0  0  0  0  0  0  0
    2.3830    5.7740   -8.1840 C   0  0  0  0  0  0  0  0  0  0  0  0
    4.4150   10.9580  -14.8070 C   0  0  0  0  0  0  0  0  0  0  0  0
    0.3830    7.7900   -7.5110 C   0  0  0  0  0  0  0  0  0  0  0  0
   -0.4820    7.6260   -6.2720 C   0  0  0  0  0  0  0  0  0  0  0  0
   -0.5490    8.8730   -5.3810 C   0  0  0  0  0  0  0  0  0  0  0  0
   -0.3530   10.2150   -6.1000 C   0  0  0  0  0  0  0  0  0  0  0  0
   -0.5670   11.3270   -5.1250 C   0  0  0  0  0  0  0  0  0  0  0  0
    0.0380   12.6230   -5.0370 C   0  0  0  0  0  0  0  0  0  0  0  0
   -1.4600   11.2690   -4.0890 C   0  0  0  0  0  0  0  0  0  0  0  0
   -0.5620   13.2520   -3.9630 C   0  0  0  0  0  0  0  0  0  0  0  0
   -1.4660   12.4150   -3.3900 O   0  0  0  0  0  0  0  0  0  0  0  0
   -0.4620   14.5790   -3.3180 C   0  0  0  0  0  0  0  0  0  0  0  0
   -1.6100   14.7810   -2.4320 N   0  0  0  0  0  0  0  0  0  0  0  0
   -2.9380   15.0310   -2.7760 C   0  0  0  0  0  0  0  0  0  0  0  0
   -1.4900   14.7460   -1.0660 C   0  0  0  0  0  0  0  0  0  0  0  0
   -3.4230   15.1360   -4.1820 C   0  0  0  0  0  0  0  0  0  0  0  0
   -3.6610   15.1570   -1.5880 C   0  0  0  0  0  0  0  0  0  0  0  0
   -2.7370   14.9760   -0.5040 C   0  0  0  0  0  0  0  0  0  0  0  0
   -0.3420   14.5280   -0.4020 N   0  0  0  0  0  0  0  0  0  0  0  0
   -5.1200   15.4310   -1.4480 C   0  0  0  0  0  0  0  0  0  0  0  0
   -2.7930   14.9840    0.9020 C   0  0  0  0  0  0  0  0  0  0  0  0
   -0.5220   14.5500    0.9270 C   0  0  0  0  0  0  0  0  0  0  0  0
   -3.9590   15.2230    1.6210 N   0  0  0  0  0  0  0  0  0  0  0  0
   -1.6630   14.7560    1.6070 N   0  0  0  0  0  0  0  0  0  0  0  0
  1  2  2  0
  2  3  1  0
  2  4  1  0
  3  5  1  0
  4  6  2  0
  4  7  1  0
  5  8  2  0
  5  9  1  0
  6 10  1  0
  7 11  2  0
  9 12  1  0
  8 13  1  0
 12 13  2  0
 10 14  2  0
 11 14  1  0
 12 15  1  0
 15 16  1  0
 16 17  1  0
 17 18  1  0
 18 19  1  0
 19 20  1  0
 19 21  2  0
 20 22  2  0
 21 23  1  0
 22 23  1  0
 22 24  1  0
 24 25  1  0
 25 26  1  0
 25 27  1  0
 26 28  1  0
 26 29  2  0
 27 30  2  0
 29 30  1  0
 27 31  1  0
 29 32  1  0
 30 33  1  0
 31 34  2  0
 33 35  1  0
 33 36  2  0
 34 36  1  0
M  END
