mac-x0572-diamond-x0681_0_A
     RDKit          3D

 20 22  0  0  0  0  0  0  0  0999 V2000
   -8.0400   14.7660    3.3760 C   0  0  0  0  0  0  0  0  0  0  0  0
   -7.1110   14.3420    2.2280 C   0  0  2  0  0  0  0  0  0  0  0  0
   -5.8850   15.1510    2.3160 N   0  0  0  0  0  0  0  0  0  0  0  0
   -7.8720   14.2160    0.8960 C   0  0  1  0  0  0  0  0  0  0  0  0
   -9.1630   14.8070    0.9780 O   0  0  0  0  0  0  0  0  0  0  0  0
   -7.1200   14.7730   -0.2990 C   0  0  0  0  0  0  0  0  0  0  0  0
   -5.0280   15.4160    1.1730 C   0  0  2  0  0  0  0  0  0  0  0  0
   -7.7030   14.8540   -1.3850 O   0  0  0  0  0  0  0  0  0  0  0  0
   -5.6760   15.2130   -0.2140 C   0  0  1  0  0  0  0  0  0  0  0  0
   -3.5720   14.9870    1.3560 C   0  0  0  0  0  0  0  0  0  0  0  0
   -2.7900   14.7840    0.2900 C   0  0  0  0  0  0  0  0  0  0  0  0
   -4.7820   14.2110   -0.8270 C   0  0  0  0  0  0  0  0  0  0  0  0
   -3.4810   14.9750   -1.0180 C   0  0  2  0  0  0  0  0  0  0  0  0
   -5.3090   13.2950   -1.8810 N   0  0  0  0  0  0  0  0  0  0  0  0
   -4.6710   13.1530    0.2310 N   0  0  0  0  0  0  0  0  0  0  0  0
   -2.7790   14.6410   -2.2960 C   0  0  0  0  0  0  0  0  0  0  0  0
   -5.6870   12.2440    0.0360 C   0  0  0  0  0  0  0  0  0  0  0  0
   -6.0700   12.3170   -1.2390 C   0  0  0  0  0  0  0  0  0  0  0  0
   -3.5120   15.0140   -3.3830 N   0  0  0  0  0  0  0  0  0  0  0  0
   -1.6900   14.1100   -2.4100 O   0  0  0  0  0  0  0  0  0  0  0  0
  2  1  1  1
  2  3  1  0
  2  4  1  0
  4  5  1  1
  4  6  1  0
  3  7  1  0
  6  8  2  0
  9  6  1  1
  7  9  1  0
  7 10  1  1
 10 11  2  0
  9 12  1  0
 11 13  1  0
 12 13  1  0
 12 14  1  0
 12 15  1  0
 13 16  1  6
 15 17  1  0
 14 18  1  0
 17 18  2  0
 16 19  1  0
 16 20  2  0
M  END
