mac-x0303-diamond-x0950_0_A
     RDKit          3D

 22 23  0  0  0  0  0  0  0  0999 V2000
   -8.2140   13.1070    3.0110 N   0  0  0  0  0  0  0  0  0  0  0  0
   -8.4920   14.5280    2.1520 S   0  0  0  0  0  0  0  0  0  0  0  0
   -8.4000   15.6310    3.0790 O   0  0  0  0  0  0  0  0  0  0  0  0
   -9.6540   14.3300    1.3190 O   0  0  0  0  0  0  0  0  0  0  0  0
   -7.1020   14.6830    1.0860 C   0  0  0  0  0  0  0  0  0  0  0  0
   -7.1740   14.9880   -0.2510 N   0  0  0  0  0  0  0  0  0  0  0  0
   -5.8560   14.5230    1.4710 N   0  0  0  0  0  0  0  0  0  0  0  0
   -5.8910   15.0210   -0.7410 C   0  0  0  0  0  0  0  0  0  0  0  0
   -5.0990   14.7240    0.3580 C   0  0  0  0  0  0  0  0  0  0  0  0
   -5.3650   15.2750   -2.0040 C   0  0  0  0  0  0  0  0  0  0  0  0
   -3.7130   14.6610    0.2290 C   0  0  0  0  0  0  0  0  0  0  0  0
   -3.9680   15.2060   -2.1220 C   0  0  0  0  0  0  0  0  0  0  0  0
   -3.1430   14.8990   -1.0250 C   0  0  0  0  0  0  0  0  0  0  0  0
   -1.6420   14.8160   -1.1680 C   0  0  0  0  0  0  0  0  0  0  0  0
   -1.0320   13.4380   -1.1590 C   0  0  0  0  0  0  0  0  0  0  0  0
    0.4630   13.5250   -1.4060 C   0  0  0  0  0  0  0  0  0  0  0  0
    0.9240   12.2100   -1.6280 O   0  0  0  0  0  0  0  0  0  0  0  0
    0.7580   11.7720   -2.9110 C   0  0  0  0  0  0  0  0  0  0  0  0
    1.3050   12.7380   -3.9870 C   0  0  1  0  0  0  0  0  0  0  0  0
    0.2290   10.7090   -3.1950 O   0  0  0  0  0  0  0  0  0  0  0  0
    2.8110   12.9300   -3.8940 C   0  0  0  0  0  0  0  0  0  0  0  0
    1.0050   12.2490   -5.2990 O   0  0  0  0  0  0  0  0  0  0  0  0
  2  1  1  0
  2  3  2  0
  2  4  2  0
  2  5  1  0
  5  6  1  0
  5  7  2  0
  6  8  1  0
  7  9  1  0
  8  9  2  0
  8 10  1  0
  9 11  1  0
 10 12  2  0
 11 13  2  0
 12 13  1  0
 13 14  1  0
 14 15  1  0
 15 16  1  0
 16 17  1  0
 17 18  1  0
 18 19  1  0
 18 20  2  0
 19 21  1  6
 19 22  1  0
M  END
