mac-x0439-mac-x0546
     RDKit          3D

 17 19  0  0  0  0  0  0  0  0999 V2000
   -2.9560   15.5980   -4.8380 C   0  0  0  0  0  0  0  0  0  0  0  0
   -3.9350   15.4990   -6.0000 C   0  0  0  0  0  0  0  0  0  0  0  0
   -1.6760   16.3350   -5.1560 C   0  0  0  0  0  0  0  0  0  0  0  0
   -0.3410   15.6090   -5.0820 C   0  0  2  0  0  0  0  0  0  0  0  0
   -1.6790   17.6440   -5.5160 C   0  0  0  0  0  0  0  0  0  0  0  0
    0.0890   14.5630   -4.1120 C   0  0  0  0  0  0  0  0  0  0  0  0
    0.7330   16.6270   -4.7300 C   0  0  0  0  0  0  0  0  0  0  0  0
   -0.4590   18.3740   -5.8090 C   0  0  0  0  0  0  0  0  0  0  0  0
   -0.4770   13.2040   -3.8540 C   0  0  0  0  0  0  0  0  0  0  0  0
    1.1730   14.9960   -3.4790 C   0  0  0  0  0  0  0  0  0  0  0  0
    1.5680   16.2450   -3.8290 N   0  0  0  0  0  0  0  0  0  0  0  0
    0.7440   17.9230   -5.4370 C   0  0  0  0  0  0  0  0  0  0  0  0
    1.7980   14.0740   -2.5140 C   0  0  0  0  0  0  0  0  0  0  0  0
    0.5530   12.2270   -3.2250 C   0  0  1  0  0  0  0  0  0  0  0  0
    2.7480   14.6290   -1.7320 O   0  0  0  0  0  0  0  0  0  0  0  0
    1.5660   12.8290   -2.3430 N   0  0  0  0  0  0  0  0  0  0  0  0
   -0.1310   11.1460   -2.6020 O   0  0  0  0  0  0  0  0  0  0  0  0
  1  2  1  0
  1  3  1  0
  4  3  1  1
  3  5  2  0
  4  6  1  0
  4  7  1  0
  5  8  1  0
  6  9  1  0
  6 10  2  0
  7 11  2  0
 10 11  1  0
  7 12  1  0
  8 12  2  0
 10 13  1  0
  9 14  1  0
 13 15  1  0
 13 16  2  0
 14 16  1  0
 14 17  1  1
M  END
