mac-x0224-diamond-x0727_0_A
     RDKit          3D

 23 25  0  0  0  0  0  0  0  0999 V2000
   -5.1060   14.9410    1.2430 C   0  0  0  0  0  0  0  0  0  0  0  0
   -3.3200   15.2200    1.2410 S   0  0  0  0  0  0  0  0  0  0  0  0
   -2.9730   15.0310   -0.4870 C   0  0  0  0  0  0  0  0  0  0  0  0
   -1.8960   14.2720   -0.9190 C   0  0  0  0  0  0  0  0  0  0  0  0
   -3.7990   15.6490   -1.4300 C   0  0  0  0  0  0  0  0  0  0  0  0
   -1.6540   14.1360   -2.2890 C   0  0  0  0  0  0  0  0  0  0  0  0
   -3.5320   15.5110   -2.7950 C   0  0  0  0  0  0  0  0  0  0  0  0
   -0.5780   13.2800   -2.7250 C   0  0  0  0  0  0  0  0  0  0  0  0
   -2.4580   14.7590   -3.2210 C   0  0  0  0  0  0  0  0  0  0  0  0
   -2.2100   14.6260   -4.5550 O   0  0  0  0  0  0  0  0  0  0  0  0
   -0.3560   12.2300   -2.0820 N   0  0  0  0  0  0  0  0  0  0  0  0
    0.1070   13.5300   -3.8760 O   0  0  0  0  0  0  0  0  0  0  0  0
    0.7480   12.2630   -4.1760 C   0  0  1  0  0  0  0  0  0  0  0  0
    0.4590   11.5010   -2.8500 C   0  0  0  0  0  0  0  0  0  0  0  0
    0.0560   11.6650   -5.3270 N   0  0  0  0  0  0  0  0  0  0  0  0
    0.7880   10.3820   -2.5040 O   0  0  0  0  0  0  0  0  0  0  0  0
    0.7100   11.3240   -6.5030 C   0  0  0  0  0  0  0  0  0  0  0  0
    1.7080   11.9120   -6.8810 O   0  0  0  0  0  0  0  0  0  0  0  0
    0.1410   10.1510   -7.3220 C   0  0  0  0  0  0  0  0  0  0  0  0
   -1.0970   10.5240   -8.1440 C   0  0  0  0  0  0  0  0  0  0  0  0
   -0.2750    8.9230   -6.4770 C   0  0  0  0  0  0  0  0  0  0  0  0
   -1.9860    9.2870   -8.1190 C   0  0  0  0  0  0  0  0  0  0  0  0
   -1.7460    8.6780   -6.7500 C   0  0  0  0  0  0  0  0  0  0  0  0
  1  2  1  0
  2  3  1  0
  3  4  2  0
  3  5  1  0
  4  6  1  0
  5  7  2  0
  6  8  1  0
  6  9  2  0
  7  9  1  0
  9 10  1  0
  8 11  2  0
  8 12  1  0
 12 13  1  0
 11 14  1  0
 13 14  1  0
 13 15  1  6
 14 16  2  0
 15 17  1  0
 17 18  2  0
 17 19  1  0
 19 20  1  0
 19 21  1  0
 20 22  1  0
 21 23  1  0
 22 23  1  0
M  END
