mac-x0358-mac-x0568
     RDKit          3D

 22 23  0  0  0  0  0  0  0  0999 V2000
    1.7480   12.8740   -2.2430 O   0  0  0  0  0  0  0  0  0  0  0  0
    1.0150   12.1510   -3.1160 C   0  0  0  0  0  0  0  0  0  0  0  0
    0.4590   11.1290   -2.7470 O   0  0  0  0  0  0  0  0  0  0  0  0
    0.9750   12.7660   -4.4960 C   0  0  0  0  0  0  0  0  0  0  0  0
   -0.4190   13.2370   -4.7720 C   0  0  0  0  0  0  0  0  0  0  0  0
   -1.2900   12.5520   -5.6130 C   0  0  0  0  0  0  0  0  0  0  0  0
   -0.8660   14.3890   -4.1490 C   0  0  0  0  0  0  0  0  0  0  0  0
   -0.8380   11.4080   -6.2030 O   0  0  0  0  0  0  0  0  0  0  0  0
   -2.5880   13.0100   -5.8490 C   0  0  0  0  0  0  0  0  0  0  0  0
   -2.1540   14.8570   -4.3500 C   0  0  0  0  0  0  0  0  0  0  0  0
   -2.5850   16.0790   -3.6070 C   0  0  0  0  0  0  0  0  0  0  0  0
   -3.0240   14.1730   -5.2140 C   0  0  0  0  0  0  0  0  0  0  0  0
   -3.6720   15.7360   -2.6700 N   0  0  0  0  0  0  0  0  0  0  0  0
   -3.6100   15.4740   -1.3920 C   0  0  0  0  0  0  0  0  0  0  0  0
   -2.3920   15.4900   -0.7510 N   0  0  0  0  0  0  0  0  0  0  0  0
   -4.8220   15.1620   -0.6000 C   0  0  0  0  0  0  0  0  0  0  0  0
   -6.0240   15.0010   -1.2690 C   0  0  0  0  0  0  0  0  0  0  0  0
   -4.8130   15.0260    0.7890 C   0  0  0  0  0  0  0  0  0  0  0  0
   -7.2000   14.7160   -0.6620 N   0  0  0  0  0  0  0  0  0  0  0  0
   -6.0240   14.7350    1.4310 C   0  0  0  0  0  0  0  0  0  0  0  0
   -7.1850   14.5870    0.6810 C   0  0  0  0  0  0  0  0  0  0  0  0
   -8.4860   14.2800    1.3610 C   0  0  0  0  0  0  0  0  0  0  0  0
  1  2  1  0
  2  3  2  0
  2  4  1  0
  4  5  1  0
  5  6  2  0
  5  7  1  0
  6  8  1  0
  6  9  1  0
  7 10  2  0
 10 11  1  0
  9 12  2  0
 10 12  1  0
 11 13  1  0
 13 14  2  3
 14 15  1  0
 14 16  1  0
 16 17  2  0
 16 18  1  0
 17 19  1  0
 18 20  2  0
 19 21  2  0
 20 21  1  0
 21 22  1  0
M  END
