mac-x0137-mac-x0333
     RDKit          3D

 21 24  0  0  0  0  0  0  0  0999 V2000
   -2.7460   12.7830   -4.2310 F   0  0  0  0  0  0  0  0  0  0  0  0
   -1.6530   13.5220   -4.5880 C   0  0  2  0  0  0  0  0  0  0  0  0
   -0.5130   12.5500   -4.8980 C   0  0  0  0  0  0  0  0  0  0  0  0
   -1.3310   14.4770   -3.4260 C   0  0  0  0  0  0  0  0  0  0  0  0
   -0.8480   13.6510   -2.3010 N   0  0  0  0  0  0  0  0  0  0  0  0
    0.2950   12.0620   -3.6740 C   0  0  0  0  0  0  0  0  0  0  0  0
    0.4770   13.1000   -2.5570 C   0  0  0  0  0  0  0  0  0  0  0  0
   -1.0730   14.1460   -0.9940 C   0  0  0  0  0  0  0  0  0  0  0  0
   -0.0680   14.1810   -0.1210 N   0  0  0  0  0  0  0  0  0  0  0  0
   -2.3190   14.5770   -0.6240 C   0  0  0  0  0  0  0  0  0  0  0  0
   -0.3540   14.6440    1.1130 C   0  0  0  0  0  0  0  0  0  0  0  0
   -2.5110   15.0500    0.6510 C   0  0  0  0  0  0  0  0  0  0  0  0
   -3.5700   14.6260   -1.3920 C   0  0  2  0  0  0  0  0  0  0  0  0
   -3.4200   15.5830   -2.4370 O   0  0  0  0  0  0  0  0  0  0  0  0
   -1.5400   15.0870    1.5590 N   0  0  0  0  0  0  0  0  0  0  0  0
   -3.8480   15.5000    0.8920 N   0  0  0  0  0  0  0  0  0  0  0  0
   -4.6040   14.9910   -0.2630 C   0  0  2  0  0  0  0  0  0  0  0  0
   -5.3610   13.8720    0.2390 O   0  0  0  0  0  0  0  0  0  0  0  0
   -5.6750   15.8760   -0.8800 C   0  0  0  0  0  0  0  0  0  0  0  0
   -6.9580   15.2970   -0.5770 O   0  0  0  0  0  0  0  0  0  0  0  0
   -6.6790   14.3620    0.4400 C   0  0  0  0  0  0  0  0  0  0  0  0
  2  1  1  1
  2  3  1  0
  2  4  1  0
  4  5  1  0
  3  6  1  0
  5  7  1  0
  6  7  1  0
  5  8  1  0
  8  9  2  0
  8 10  1  0
  9 11  1  0
 10 12  2  0
 10 13  1  0
 13 14  1  6
 11 15  2  0
 12 15  1  0
 12 16  1  0
 13 17  1  0
 16 17  1  0
 17 18  1  0
 17 19  1  6
 19 20  1  0
 18 21  1  0
 20 21  1  0
M  END
