mac-x0404-diamond-x0253_0_A
     RDKit          3D

 25 27  0  0  0  0  0  0  0  0999 V2000
    0.9120   12.9660   -1.9040 O   0  0  0  0  0  0  0  0  0  0  0  0
    0.8410   12.0860   -2.9320 C   0  0  0  0  0  0  0  0  0  0  0  0
    0.4590   10.9340   -2.7660 O   0  0  0  0  0  0  0  0  0  0  0  0
    1.2840   12.6610   -4.3010 C   0  0  2  0  0  0  0  0  0  0  0  0
    1.0280   14.0530   -4.3290 O   0  0  0  0  0  0  0  0  0  0  0  0
    0.5150   12.0100   -5.3640 N   0  0  0  0  0  0  0  0  0  0  0  0
    1.1250   11.6700   -6.5380 C   0  0  0  0  0  0  0  0  0  0  0  0
   -0.2160   14.5210   -4.6590 C   0  0  0  0  0  0  0  0  0  0  0  0
    2.2340   12.1140   -6.7160 O   0  0  0  0  0  0  0  0  0  0  0  0
   -0.2790   15.8940   -4.9760 C   0  0  0  0  0  0  0  0  0  0  0  0
   -1.3720   13.7420   -4.6980 C   0  0  0  0  0  0  0  0  0  0  0  0
    0.4850   10.7610   -7.5260 C   0  0  0  0  0  0  0  0  0  0  0  0
   -1.5210   16.4700   -5.3340 C   0  0  0  0  0  0  0  0  0  0  0  0
   -2.5930   14.3170   -5.0510 C   0  0  0  0  0  0  0  0  0  0  0  0
    0.8540   16.7200   -4.9540 C   0  0  0  0  0  0  0  0  0  0  0  0
   -0.4910    9.8580   -7.0990 C   0  0  0  0  0  0  0  0  0  0  0  0
    0.8500   10.7950   -8.8810 C   0  0  0  0  0  0  0  0  0  0  0  0
   -2.6670   15.6690   -5.3650 C   0  0  0  0  0  0  0  0  0  0  0  0
   -1.5950   17.8260   -5.6570 C   0  0  0  0  0  0  0  0  0  0  0  0
    0.7710   18.0720   -5.2790 C   0  0  0  0  0  0  0  0  0  0  0  0
   -1.1050    8.9950   -8.0140 C   0  0  0  0  0  0  0  0  0  0  0  0
    0.2440    9.9370   -9.7930 C   0  0  0  0  0  0  0  0  0  0  0  0
   -2.1570    8.0250   -7.5580 C   0  0  0  0  0  0  0  0  0  0  0  0
   -0.4560   18.6210   -5.6330 C   0  0  0  0  0  0  0  0  0  0  0  0
   -0.7310    9.0400   -9.3630 C   0  0  0  0  0  0  0  0  0  0  0  0
  1  2  1  0
  2  3  2  0
  2  4  1  0
  4  5  1  0
  4  6  1  6
  6  7  1  0
  5  8  1  0
  7  9  2  0
  8 10  1  0
  8 11  2  0
  7 12  1  0
 10 13  2  0
 11 14  1  0
 10 15  1  0
 12 16  2  0
 12 17  1  0
 13 18  1  0
 14 18  2  0
 13 19  1  0
 15 20  2  0
 16 21  1  0
 17 22  2  0
 21 23  1  0
 19 24  2  0
 20 24  1  0
 21 25  2  0
 22 25  1  0
M  END
