mac-x0179-diamond-x0592_0_A
     RDKit          3D

 29 31  0  0  0  0  0  0  0  0999 V2000
    1.6420   13.0120   -2.2650 O   0  0  0  0  0  0  0  0  0  0  0  0
    1.0520   12.2330   -3.1880 C   0  0  0  0  0  0  0  0  0  0  0  0
    0.7280   11.0930   -2.8940 O   0  0  0  0  0  0  0  0  0  0  0  0
    0.8400   12.8660   -4.5520 C   0  0  0  0  0  0  0  0  0  0  0  0
    0.0560   12.0110   -5.4200 N   0  0  0  0  0  0  0  0  0  0  0  0
    0.7120   11.4750   -6.4970 C   0  0  0  0  0  0  0  0  0  0  0  0
   -1.0700   11.2850   -5.1250 C   0  0  0  0  0  0  0  0  0  0  0  0
    1.7880   11.7800   -6.9390 O   0  0  0  0  0  0  0  0  0  0  0  0
   -1.9150   11.3490   -4.1560 N   0  0  0  0  0  0  0  0  0  0  0  0
   -0.1130   10.4090   -7.0400 C   0  0  0  0  0  0  0  0  0  0  0  0
   -1.2060   10.2850   -6.2070 C   0  0  0  0  0  0  0  0  0  0  0  0
   -1.8530   12.2910   -3.0390 C   0  0  0  0  0  0  0  0  0  0  0  0
    0.0750    9.6180   -8.1610 C   0  0  0  0  0  0  0  0  0  0  0  0
   -2.1830    9.3390   -6.4630 C   0  0  0  0  0  0  0  0  0  0  0  0
   -3.1760   13.0140   -2.7440 C   0  0  0  0  0  0  0  0  0  0  0  0
   -0.9030    8.6560   -8.4320 C   0  0  0  0  0  0  0  0  0  0  0  0
   -2.0240    8.5190   -7.5880 C   0  0  0  0  0  0  0  0  0  0  0  0
   -3.0170   14.4880   -2.3350 C   0  0  0  0  0  0  0  0  0  0  0  0
   -2.5210   14.6070   -0.9620 N   0  0  0  0  0  0  0  0  0  0  0  0
   -3.3050   14.7620    0.0500 C   0  0  0  0  0  0  0  0  0  0  0  0
   -2.9680   14.8840    1.3800 N   0  0  0  0  0  0  0  0  0  0  0  0
   -4.7380   14.8280   -0.1760 C   0  0  0  0  0  0  0  0  0  0  0  0
   -5.5230   15.1940   -1.2990 C   0  0  0  0  0  0  0  0  0  0  0  0
   -5.6840   14.5100    0.7730 C   0  0  0  0  0  0  0  0  0  0  0  0
   -6.8410   15.1090   -1.0730 N   0  0  0  0  0  0  0  0  0  0  0  0
   -6.9010   14.6910    0.2060 N   0  0  0  0  0  0  0  0  0  0  0  0
   -8.1750   14.4730    0.8620 C   0  0  0  0  0  0  0  0  0  0  0  0
   -7.9640   14.0530    2.3130 C   0  0  0  0  0  0  0  0  0  0  0  0
   -7.1730   15.0140    3.0120 O   0  0  0  0  0  0  0  0  0  0  0  0
  1  2  1  0
  2  3  2  0
  2  4  1  0
  4  5  1  0
  5  6  1  0
  5  7  1  0
  6  8  2  0
  7  9  2  3
  6 10  1  0
  7 11  1  0
 10 11  2  0
  9 12  1  0
 10 13  1  0
 11 14  1  0
 12 15  1  0
 13 16  2  0
 14 17  2  0
 16 17  1  0
 15 18  1  0
 18 19  1  0
 19 20  2  3
 20 21  1  0
 20 22  1  0
 22 23  1  0
 22 24  2  0
 23 25  2  0
 24 26  1  0
 25 26  1  0
 26 27  1  0
 27 28  1  0
 28 29  1  0
M  END
