mac-x0392-mac-x0180
     RDKit          3D

 14 14  0  0  0  0  0  0  0  0999 V2000
    0.3400   14.2200   -0.2530 N   0  0  0  0  0  0  0  0  0  0  0  0
   -1.0450   14.4560   -0.1030 C   0  0  0  0  0  0  0  0  0  0  0  0
   -1.6340   14.4810    1.1380 C   0  0  0  0  0  0  0  0  0  0  0  0
   -1.9130   14.6800   -1.1860 C   0  0  0  0  0  0  0  0  0  0  0  0
   -1.3280   14.6710   -2.5550 C   0  0  0  0  0  0  0  0  0  0  0  0
   -3.3050   14.9130   -0.9850 C   0  0  0  0  0  0  0  0  0  0  0  0
   -2.9510   14.7020    1.3500 N   0  0  0  0  0  0  0  0  0  0  0  0
   -1.9960   14.6900   -3.5720 O   0  0  0  0  0  0  0  0  0  0  0  0
    0.0200   14.6340   -2.5660 O   0  0  0  0  0  0  0  0  0  0  0  0
   -3.7870   14.9130    0.3310 C   0  0  0  0  0  0  0  0  0  0  0  0
   -5.1470   15.1320    0.6720 N   0  0  0  0  0  0  0  0  0  0  0  0
   -6.3470   14.7860    0.0910 C   0  0  0  0  0  0  0  0  0  0  0  0
   -7.5410   14.4460    0.9460 C   0  0  0  0  0  0  0  0  0  0  0  0
   -6.4450   14.7740   -1.1350 O   0  0  0  0  0  0  0  0  0  0  0  0
  1  2  1  0
  2  3  2  0
  2  4  1  0
  4  5  1  0
  4  6  2  0
  3  7  1  0
  5  8  2  0
  5  9  1  0
  6 10  1  0
  7 10  2  0
 10 11  1  0
 11 12  1  0
 12 13  1  0
 12 14  2  0
M  END
