mac-x0347-mac-x0163
     RDKit          3D

 32 36  0  0  0  0  0  0  0  0999 V2000
   -0.3030   16.1660   -4.9240 O   0  0  0  0  0  0  0  0  0  0  0  0
   -0.6790   15.2280   -3.9380 C   0  0  0  0  0  0  0  0  0  0  0  0
    0.0090   15.6100   -2.7580 O   0  0  0  0  0  0  0  0  0  0  0  0
   -2.1140   15.1530   -3.6490 C   0  0  0  0  0  0  0  0  0  0  0  0
   -0.2450   13.8290   -4.2800 C   0  0  1  0  0  0  0  0  0  0  0  0
   -2.6400   15.1100   -2.3540 C   0  0  0  0  0  0  0  0  0  0  0  0
   -2.9910   15.0970   -4.7020 C   0  0  0  0  0  0  0  0  0  0  0  0
    1.1630   13.5220   -4.5060 C   0  0  0  0  0  0  0  0  0  0  0  0
   -1.1340   12.6330   -4.1330 C   0  0  0  0  0  0  0  0  0  0  0  0
   -4.0130   15.0110   -2.1520 C   0  0  0  0  0  0  0  0  0  0  0  0
   -4.3140   15.0000   -4.5680 N   0  0  0  0  0  0  0  0  0  0  0  0
    1.5260   13.4330   -3.0470 C   0  0  0  0  0  0  0  0  0  0  0  0
   -0.5300   11.8850   -2.9410 C   0  0  0  0  0  0  0  0  0  0  0  0
   -4.7830   14.9590   -3.3010 C   0  0  0  0  0  0  0  0  0  0  0  0
   -4.6490   14.9480   -0.8410 C   0  0  0  0  0  0  0  0  0  0  0  0
    2.9640   12.8770   -2.9650 C   0  0  0  0  0  0  0  0  0  0  0  0
    2.1080   14.7340   -2.4560 C   0  0  0  0  0  0  0  0  0  0  0  0
    0.3490   12.8770   -2.2330 N   0  0  0  0  0  0  0  0  0  0  0  0
   -4.1410   15.5910    0.3000 C   0  0  0  0  0  0  0  0  0  0  0  0
   -5.8290   14.2040   -0.7110 C   0  0  0  0  0  0  0  0  0  0  0  0
   -0.3000   13.4950   -1.0340 C   0  0  0  0  0  0  0  0  0  0  0  0
    3.2040   13.8870   -1.8390 C   0  0  0  0  0  0  0  0  0  0  0  0
   -4.7950   15.4830    1.5230 C   0  0  0  0  0  0  0  0  0  0  0  0
   -6.4840   14.0980    0.5080 C   0  0  0  0  0  0  0  0  0  0  0  0
   -1.6900   13.4510   -0.6730 C   0  0  0  0  0  0  0  0  0  0  0  0
    0.5220   14.1530   -0.2070 N   0  0  0  0  0  0  0  0  0  0  0  0
   -2.9280   12.6860   -1.6150 Cl  0  0  0  0  0  0  0  0  0  0  0  0
   -5.9680   14.7350    1.6220 C   0  0  0  0  0  0  0  0  0  0  0  0
   -2.0780   14.0740    0.5420 C   0  0  0  0  0  0  0  0  0  0  0  0
    0.0240   14.7140    0.9140 C   0  0  0  0  0  0  0  0  0  0  0  0
   -3.4080   14.0720    0.9990 N   0  0  0  0  0  0  0  0  0  0  0  0
   -1.2350   14.7080    1.3540 N   0  0  0  0  0  0  0  0  0  0  0  0
  2  1  1  0
  2  3  1  0
  2  4  1  0
  5  2  1  1
  4  6  2  0
  4  7  1  0
  5  8  1  0
  5  9  1  0
  6 10  1  0
  7 11  2  0
  8 12  1  0
  9 13  1  0
 10 14  2  0
 11 14  1  0
 10 15  1  0
 12 16  1  0
 12 17  1  0
 12 18  1  0
 13 18  1  0
 15 19  2  0
 15 20  1  0
 18 21  1  0
 16 22  1  0
 17 22  1  0
 19 23  1  0
 20 24  2  0
 21 25  2  0
 21 26  1  0
 25 27  1  0
 23 28  2  0
 24 28  1  0
 25 29  1  0
 26 30  2  0
 29 31  1  0
 29 32  2  0
 30 32  1  0
M  END
