mac-x0451-mac-x0319
     RDKit          3D

 22 24  0  0  0  0  0  0  0  0999 V2000
   -6.3820   14.8980    2.7140 N   0  0  0  0  0  0  0  0  0  0  0  0
   -5.6440   14.9110    1.6000 C   0  0  0  0  0  0  0  0  0  0  0  0
   -6.2470   14.9310    0.4690 N   0  0  0  0  0  0  0  0  0  0  0  0
   -3.9150   14.9200    1.5310 S   0  0  0  0  0  0  0  0  0  0  0  0
   -5.3430   14.9770   -0.5400 C   0  0  0  0  0  0  0  0  0  0  0  0
   -3.9890   14.9820   -0.1960 C   0  0  0  0  0  0  0  0  0  0  0  0
   -5.7300   15.0220   -1.8620 C   0  0  0  0  0  0  0  0  0  0  0  0
   -2.9790   15.0350   -1.2080 C   0  0  0  0  0  0  0  0  0  0  0  0
   -4.7820   15.0770   -2.8420 C   0  0  0  0  0  0  0  0  0  0  0  0
   -3.4430   15.0910   -2.5510 C   0  0  0  0  0  0  0  0  0  0  0  0
   -2.6710   15.1740   -3.7020 O   0  0  0  0  0  0  0  0  0  0  0  0
   -1.3380   15.0160   -3.8830 C   0  0  0  0  0  0  0  0  0  0  0  0
   -0.6490   16.1460   -4.2820 C   0  0  0  0  0  0  0  0  0  0  0  0
   -0.6890   13.8160   -3.7010 C   0  0  0  0  0  0  0  0  0  0  0  0
    0.6850   13.7240   -3.9110 C   0  0  0  0  0  0  0  0  0  0  0  0
    0.7040   16.0740   -4.4900 C   0  0  0  0  0  0  0  0  0  0  0  0
    1.3240   12.3880   -3.6840 C   0  0  0  0  0  0  0  0  0  0  0  0
    1.2850   17.2380   -4.8750 O   0  0  0  0  0  0  0  0  0  0  0  0
    1.3980   14.8740   -4.3100 C   0  0  0  0  0  0  0  0  0  0  0  0
    0.7950   11.7840   -2.4000 C   0  0  0  0  0  0  0  0  0  0  0  0
    0.5310   10.4560   -2.4740 O   0  0  0  0  0  0  0  0  0  0  0  0
    0.5900   12.3690   -1.3510 O   0  0  0  0  0  0  0  0  0  0  0  0
  1  2  1  0
  2  3  2  0
  2  4  1  0
  3  5  1  0
  4  6  1  0
  5  6  2  0
  5  7  1  0
  6  8  1  0
  7  9  2  0
  8 10  2  0
  9 10  1  0
 10 11  1  0
 11 12  1  0
 12 13  2  0
 12 14  1  0
 14 15  2  0
 13 16  1  0
 15 17  1  0
 16 18  1  0
 15 19  1  0
 16 19  2  0
 17 20  1  0
 20 21  1  0
 20 22  2  0
M  END
