mac-x0398-diamond-x0969_0_A
     RDKit          3D

 14 15  0  0  0  0  0  0  0  0999 V2000
   -6.2180   15.1580    2.6340 N   0  0  0  0  0  0  0  0  0  0  0  0
   -6.0940   14.5810    1.3050 C   0  0  2  0  0  0  0  0  0  0  0  0
   -5.1530   15.3120    0.2820 C   0  0  2  0  0  0  0  0  0  0  0  0
   -7.5170   14.3690    0.7930 C   0  0  0  0  0  0  0  0  0  0  0  0
   -5.3600   14.8370   -1.1820 C   0  0  1  0  0  0  0  0  0  0  0  0
   -3.6960   15.0950    0.5630 C   0  0  0  0  0  0  0  0  0  0  0  0
   -7.6370   14.6760   -0.6240 N   0  0  0  0  0  0  0  0  0  0  0  0
   -5.7010   15.9500   -2.0090 O   0  0  0  0  0  0  0  0  0  0  0  0
   -3.9840   14.3420   -1.6540 C   0  0  2  0  0  0  0  0  0  0  0  0
   -3.0650   14.5790   -0.4790 C   0  0  0  0  0  0  0  0  0  0  0  0
   -6.5530   14.0300   -1.3310 N   0  0  0  0  0  0  0  0  0  0  0  0
   -3.4290   14.9790   -2.9040 C   0  0  0  0  0  0  0  0  0  0  0  0
   -4.0250   15.3260   -3.9070 O   0  0  0  0  0  0  0  0  0  0  0  0
   -2.0890   15.1430   -2.8400 O   0  0  0  0  0  0  0  0  0  0  0  0
  2  1  1  1
  2  3  1  0
  2  4  1  0
  3  5  1  0
  3  6  1  1
  4  7  1  0
  5  8  1  6
  5  9  1  0
  6 10  2  0
  9 10  1  0
  5 11  1  0
  7 11  1  0
  9 12  1  6
 12 13  2  0
 12 14  1  0
M  END
