mac-x0159-diamond-x0950_0_A
     RDKit          3D

 24 26  0  0  0  0  0  0  0  0999 V2000
   -4.3890   15.9000    0.6520 N   0  0  0  0  0  0  0  0  0  0  0  0
   -3.5410   15.0030   -0.0950 C   0  0  2  0  0  0  0  0  0  0  0  0
   -2.0550   15.1800    0.1500 C   0  0  2  0  0  0  0  0  0  0  0  0
   -3.8740   15.1170   -1.5000 N   0  0  0  0  0  0  0  0  0  0  0  0
   -2.7500   15.4470   -2.3910 C   0  0  0  0  0  0  0  0  0  0  0  0
   -1.4190   14.2120   -0.8090 C   0  0  1  0  0  0  0  0  0  0  0  0
   -1.4760   14.8240    1.4540 N   0  0  0  0  0  0  0  0  0  0  0  0
   -1.5330   14.6380   -2.1970 N   0  0  0  0  0  0  0  0  0  0  0  0
   -0.0360   14.2840   -0.3530 N   0  0  0  0  0  0  0  0  0  0  0  0
   -0.1050   14.4820    1.0900 C   0  0  0  0  0  0  0  0  0  0  0  0
   -0.2510   15.3320   -2.4980 C   0  0  1  0  0  0  0  0  0  0  0  0
    1.0220   14.4130   -2.5430 C   0  0  0  0  0  0  0  0  0  0  0  0
   -0.1780   16.2590   -3.7190 C   0  0  0  0  0  0  0  0  0  0  0  0
    0.7710   13.0210   -2.1840 O   0  0  0  0  0  0  0  0  0  0  0  0
    1.0310   16.5800   -4.2890 C   0  0  0  0  0  0  0  0  0  0  0  0
   -1.2780   16.8610   -4.3410 N   0  0  0  0  0  0  0  0  0  0  0  0
    0.7740   12.1050   -3.1880 C   0  0  0  0  0  0  0  0  0  0  0  0
   -0.8590   17.6180   -5.3440 C   0  0  0  0  0  0  0  0  0  0  0  0
    0.8340   17.6510   -5.6000 S   0  0  0  0  0  0  0  0  0  0  0  0
   -1.7370   18.4220   -6.2360 C   0  0  0  0  0  0  0  0  0  0  0  0
    1.2360   12.7250   -4.5100 C   0  0  1  0  0  0  0  0  0  0  0  0
    0.4490   10.9280   -3.0630 O   0  0  0  0  0  0  0  0  0  0  0  0
    2.7320   12.9910   -4.4880 C   0  0  0  0  0  0  0  0  0  0  0  0
    0.9380   11.8840   -5.6220 O   0  0  0  0  0  0  0  0  0  0  0  0
  2  1  1  1
  2  3  1  0
  2  4  1  0
  4  5  1  0
  3  6  1  0
  3  7  1  1
  5  8  1  0
  6  8  1  0
  6  9  1  1
  7 10  1  0
  9 10  1  0
  8 11  1  0
 11 12  1  6
 11 13  1  0
 12 14  1  0
 13 15  2  0
 13 16  1  0
 14 17  1  0
 16 18  2  0
 15 19  1  0
 18 19  1  0
 18 20  1  0
 17 21  1  0
 17 22  2  0
 21 23  1  1
 21 24  1  0
M  END
