mac-x0361-mac-x0373
     RDKit          3D

 19 20  0  0  0  0  0  0  0  0999 V2000
   -6.3080   14.8750    1.7130 N   0  0  0  0  0  0  0  0  0  0  0  0
   -6.4650   14.8230    0.3430 C   0  0  0  0  0  0  0  0  0  0  0  0
   -7.5960   14.7980   -0.1290 O   0  0  0  0  0  0  0  0  0  0  0  0
   -5.2610   14.7900   -0.5370 C   0  0  0  0  0  0  0  0  0  0  0  0
   -4.0550   14.4060    0.0420 C   0  0  0  0  0  0  0  0  0  0  0  0
   -5.2930   15.1120   -1.9070 C   0  0  0  0  0  0  0  0  0  0  0  0
   -2.8900   14.3190   -0.7250 C   0  0  0  0  0  0  0  0  0  0  0  0
   -4.1130   15.0230   -2.6780 C   0  0  0  0  0  0  0  0  0  0  0  0
   -2.8900   14.6110   -2.0910 C   0  0  0  0  0  0  0  0  0  0  0  0
   -1.6620   14.4600   -2.8450 N   0  0  0  0  0  0  0  0  0  0  0  0
   -0.4070   14.5440   -2.1890 C   0  0  0  0  0  0  0  0  0  0  0  0
   -1.7960   13.2730   -3.6500 C   0  0  0  0  0  0  0  0  0  0  0  0
   -0.0180   13.4310   -1.5080 O   0  0  0  0  0  0  0  0  0  0  0  0
    0.3920   15.4680   -2.1590 O   0  0  0  0  0  0  0  0  0  0  0  0
   -1.0810   13.0590   -4.8460 C   0  0  0  0  0  0  0  0  0  0  0  0
   -2.6810   12.2640   -3.2300 C   0  0  0  0  0  0  0  0  0  0  0  0
   -1.2530   11.8800   -5.5850 C   0  0  0  0  0  0  0  0  0  0  0  0
   -2.8520   11.0890   -3.9650 C   0  0  0  0  0  0  0  0  0  0  0  0
   -2.1380   10.8980   -5.1420 C   0  0  0  0  0  0  0  0  0  0  0  0
  1  2  1  0
  2  3  2  0
  2  4  1  0
  4  5  2  0
  4  6  1  0
  5  7  1  0
  6  8  2  0
  7  9  2  0
  8  9  1  0
  9 10  1  0
 10 11  1  0
 10 12  1  0
 11 13  1  0
 11 14  2  0
 12 15  2  0
 12 16  1  0
 15 17  1  0
 16 18  2  0
 17 19  2  0
 18 19  1  0
M  END
