mac-x0510-mac-x0587
     RDKit          3D

 20 21  0  0  0  0  0  0  0  0999 V2000
   -5.8270   15.2290    0.4330 O   0  0  0  0  0  0  0  0  0  0  0  0
   -4.6320   15.2390    0.1680 C   0  0  0  0  0  0  0  0  0  0  0  0
   -4.1690   15.4350   -1.1090 N   0  0  0  0  0  0  0  0  0  0  0  0
   -3.6890   15.0230    1.1200 N   0  0  0  0  0  0  0  0  0  0  0  0
   -2.4600   14.3730    0.7840 C   0  0  1  0  0  0  0  0  0  0  0  0
   -3.0390   14.6570   -1.6500 C   0  0  1  0  0  0  0  0  0  0  0  0
   -2.5550   15.0720   -3.0710 C   0  0  0  0  0  0  0  0  0  0  0  0
   -1.9090   14.5890   -0.6390 C   0  0  2  0  0  0  0  0  0  0  0  0
   -1.3990   14.9150    1.6170 N   0  0  0  0  0  0  0  0  0  0  0  0
   -1.0320   15.0050   -3.4260 C   0  0  2  0  0  0  0  0  0  0  0  0
   -3.3720   15.4220   -3.9380 O   0  0  0  0  0  0  0  0  0  0  0  0
   -0.9810   13.5730   -0.9600 O   0  0  0  0  0  0  0  0  0  0  0  0
   -1.1260   15.7900   -0.4780 N   0  0  0  0  0  0  0  0  0  0  0  0
   -0.3760   15.3510    0.6690 C   0  0  0  0  0  0  0  0  0  0  0  0
   -0.5500   16.3650   -3.9320 C   0  0  0  0  0  0  0  0  0  0  0  0
   -0.6250   13.7530   -4.7570 S   0  0  0  0  0  0  0  0  0  0  0  0
   -0.8160   12.1490   -3.8970 C   0  0  0  0  0  0  0  0  0  0  0  0
    0.4120   11.6990   -3.1340 C   0  0  0  0  0  0  0  0  0  0  0  0
    0.5730   10.5390   -2.7840 O   0  0  0  0  0  0  0  0  0  0  0  0
    1.3180   12.6620   -2.8530 O   0  0  0  0  0  0  0  0  0  0  0  0
  1  2  2  0
  2  3  1  0
  2  4  1  0
  5  4  1  6
  3  6  1  0
  6  7  1  6
  5  8  1  0
  6  8  1  0
  5  9  1  0
  7 10  1  0
  7 11  2  0
  8 12  1  6
  8 13  1  0
  9 14  1  0
 13 14  1  0
 10 15  1  6
 10 16  1  0
 16 17  1  0
 17 18  1  0
 18 19  2  0
 18 20  1  0
M  END
