mac-x0397-mac-x0453
     RDKit          3D

 14 16  0  0  0  0  0  0  0  0999 V2000
   -6.1510   14.6710   -3.6520 Cl  0  0  0  0  0  0  0  0  0  0  0  0
   -5.3170   14.7120   -2.1570 C   0  0  0  0  0  0  0  0  0  0  0  0
   -6.0720   14.5850   -1.0000 C   0  0  0  0  0  0  0  0  0  0  0  0
   -3.9240   14.8590   -2.1450 C   0  0  0  0  0  0  0  0  0  0  0  0
   -5.4170   14.5940    0.2290 C   0  0  0  0  0  0  0  0  0  0  0  0
   -3.2590   14.8680   -0.9210 C   0  0  0  0  0  0  0  0  0  0  0  0
   -7.4690   14.4460   -0.9980 C   0  0  0  0  0  0  0  0  0  0  0  0
   -6.2080   14.4610    1.4060 C   0  0  0  0  0  0  0  0  0  0  0  0
   -8.2430   14.3170    0.0970 N   0  0  0  0  0  0  0  0  0  0  0  0
   -4.0130   14.7300    0.2590 C   0  0  0  0  0  0  0  0  0  0  0  0
   -5.6540   14.4650    2.6900 N   0  0  0  0  0  0  0  0  0  0  0  0
   -3.4090   14.7110    1.6220 C   0  0  0  0  0  0  0  0  0  0  0  0
   -7.5850   14.3290    1.2670 C   0  0  0  0  0  0  0  0  0  0  0  0
   -4.3990   15.1820    2.6900 C   0  0  0  0  0  0  0  0  0  0  0  0
  1  2  1  0
  2  3  2  0
  2  4  1  0
  3  5  1  0
  4  6  2  0
  3  7  1  0
  5  8  1  0
  7  9  2  0
  5 10  2  0
  6 10  1  0
  8 11  1  0
 10 12  1  0
  8 13  2  0
  9 13  1  0
 11 14  1  0
 12 14  1  0
M  END
