mac-x0381-diamond-x0844_0_A
     RDKit          3D

 23 25  0  0  0  0  0  0  0  0999 V2000
   -7.9980   13.2910    4.3160 N   0  0  0  0  0  0  0  0  0  0  0  0
   -8.1150   14.6370    3.7970 C   0  0  0  0  0  0  0  0  0  0  0  0
   -7.3870   15.3600    4.7860 N   0  0  0  0  0  0  0  0  0  0  0  0
   -7.3910   14.7140    2.4550 C   0  0  0  0  0  0  0  0  0  0  0  0
   -9.5270   15.0570    3.5280 C   0  0  0  0  0  0  0  0  0  0  0  0
   -7.5820   13.5200    1.5200 C   0  0  0  0  0  0  0  0  0  0  0  0
   -9.8880   15.2260    2.1980 C   0  0  0  0  0  0  0  0  0  0  0  0
  -10.4950   15.2740    4.5190 C   0  0  0  0  0  0  0  0  0  0  0  0
   -7.2800   13.9960    0.1600 N   0  0  0  0  0  0  0  0  0  0  0  0
  -11.1590   15.5750    1.8270 C   0  0  0  0  0  0  0  0  0  0  0  0
  -11.7940   15.6400    4.1590 C   0  0  0  0  0  0  0  0  0  0  0  0
  -12.1390   15.7850    2.8120 C   0  0  0  0  0  0  0  0  0  0  0  0
  -11.4670   15.7010    0.4830 C   0  0  0  0  0  0  0  0  0  0  0  0
   -6.1490   14.5980    0.0200 C   0  0  0  0  0  0  0  0  0  0  0  0
  -13.4330   16.1230    2.4230 C   0  0  0  0  0  0  0  0  0  0  0  0
  -12.7500   16.0140    0.1100 C   0  0  0  0  0  0  0  0  0  0  0  0
   -5.3790   14.7360    1.1410 N   0  0  0  0  0  0  0  0  0  0  0  0
   -5.5850   15.1670   -1.2740 C   0  0  0  0  0  0  0  0  0  0  0  0
  -13.7380   16.2300    1.0720 C   0  0  0  0  0  0  0  0  0  0  0  0
   -4.0320   14.7700    1.1500 C   0  0  0  0  0  0  0  0  0  0  0  0
   -4.0720   15.4140   -1.2150 C   0  0  2  0  0  0  0  0  0  0  0  0
   -3.1480   14.4730   -2.6650 Br  0  0  0  0  0  0  0  0  0  0  0  0
   -3.3490   15.0820    0.0580 C   0  0  0  0  0  0  0  0  0  0  0  0
  2  1  1  0
  2  3  1  0
  2  4  1  0
  2  5  1  0
  4  6  1  0
  5  7  2  0
  5  8  1  0
  6  9  1  0
  7 10  1  0
  8 11  2  0
 10 12  2  0
 11 12  1  0
 10 13  1  0
  9 14  2  3
 12 15  1  0
 13 16  2  0
 14 17  1  0
 14 18  1  0
 15 19  2  0
 16 19  1  0
 17 20  1  0
 18 21  1  0
 21 22  1  6
 20 23  2  0
 21 23  1  0
M  END
