mac-x0412-mac-x0263
     RDKit          3D

 16 17  0  0  0  0  0  0  0  0999 V2000
   -8.0250   15.0200   -0.7720 O   0  0  0  0  0  0  0  0  0  0  0  0
   -7.0570   14.9020   -0.0340 C   0  0  0  0  0  0  0  0  0  0  0  0
   -7.1590   14.6860    1.3480 N   0  0  0  0  0  0  0  0  0  0  0  0
   -5.6760   14.9870   -0.5900 C   0  0  0  0  0  0  0  0  0  0  0  0
   -8.4780   14.3740    1.9340 C   0  0  0  0  0  0  0  0  0  0  0  0
   -4.5860   15.0640    0.2820 C   0  0  0  0  0  0  0  0  0  0  0  0
   -6.0710   14.8990    2.1760 C   0  0  0  0  0  0  0  0  0  0  0  0
   -5.4780   14.9860   -1.9720 C   0  0  0  0  0  0  0  0  0  0  0  0
   -9.4950   15.5090    1.7830 C   0  0  0  0  0  0  0  0  0  0  0  0
   -4.8230   15.0800    1.7150 C   0  0  0  0  0  0  0  0  0  0  0  0
   -3.2920   15.1280   -0.2370 C   0  0  0  0  0  0  0  0  0  0  0  0
   -4.1820   15.0540   -2.4850 C   0  0  0  0  0  0  0  0  0  0  0  0
  -10.6770   15.3830    2.7030 C   0  0  0  0  0  0  0  0  0  0  0  0
   -3.0950   15.1200   -1.6180 C   0  0  0  0  0  0  0  0  0  0  0  0
  -11.4050   14.2720    2.4920 O   0  0  0  0  0  0  0  0  0  0  0  0
  -10.9990   16.1810    3.5670 O   0  0  0  0  0  0  0  0  0  0  0  0
  1  2  2  0
  2  3  1  0
  2  4  1  0
  3  5  1  0
  4  6  2  0
  3  7  1  0
  4  8  1  0
  5  9  1  0
  6 10  1  0
  7 10  2  0
  6 11  1  0
  8 12  2  0
  9 13  1  0
 11 14  2  0
 12 14  1  0
 13 15  1  0
 13 16  2  0
M  END
