mac-x0271-mac-x0115
     RDKit          3D

 27 30  0  0  0  0  0  0  0  0999 V2000
   -4.0890   13.2440   -2.7540 O   0  0  0  0  0  0  0  0  0  0  0  0
   -3.9850   14.3640   -1.8920 C   0  0  2  0  0  0  0  0  0  0  0  0
   -3.4050   13.9350   -0.5010 C   0  0  2  0  0  0  0  0  0  0  0  0
   -5.3850   14.9860   -1.8340 C   0  0  0  0  0  0  0  0  0  0  0  0
   -2.8620   15.1550   -2.4940 C   0  0  0  0  0  0  0  0  0  0  0  0
   -6.1060   14.5830   -0.5610 C   0  0  1  0  0  0  0  0  0  0  0  0
   -3.8770   14.7700    0.7000 C   0  0  0  0  0  0  0  0  0  0  0  0
   -1.8530   13.8950   -0.7060 C   0  0  1  0  0  0  0  0  0  0  0  0
   -1.6060   14.2980   -2.1500 C   0  0  2  0  0  0  0  0  0  0  0  0
   -5.3410   15.1930    0.5940 C   0  0  2  0  0  0  0  0  0  0  0  0
   -7.5090   14.9580   -0.5640 O   0  0  0  0  0  0  0  0  0  0  0  0
   -0.2470   14.8000   -2.4630 N   0  0  0  0  0  0  0  0  0  0  0  0
   -0.9030   14.4890    0.3120 C   0  0  0  0  0  0  0  0  0  0  0  0
    0.1480   14.5830   -3.8840 C   0  0  0  0  0  0  0  0  0  0  0  0
   -1.2120   14.7540    1.4900 O   0  0  0  0  0  0  0  0  0  0  0  0
   -6.1070   14.8860    1.8500 C   0  0  0  0  0  0  0  0  0  0  0  0
   -8.2300   14.8490    0.5940 C   0  0  0  0  0  0  0  0  0  0  0  0
    0.7430   14.5880   -1.5020 C   0  0  0  0  0  0  0  0  0  0  0  0
    0.3650   14.6900   -0.1830 N   0  0  0  0  0  0  0  0  0  0  0  0
   -9.4570   14.8650    0.6210 O   0  0  0  0  0  0  0  0  0  0  0  0
    0.5690   15.8470   -4.6420 C   0  0  0  0  0  0  0  0  0  0  0  0
    2.3490   14.1870   -1.8000 S   0  0  0  0  0  0  0  0  0  0  0  0
   -7.4450   14.7230    1.8420 C   0  0  0  0  0  0  0  0  0  0  0  0
   -0.6280   16.4480   -5.1480 O   0  0  0  0  0  0  0  0  0  0  0  0
   -0.4380   17.7080   -5.8000 C   0  0  0  0  0  0  0  0  0  0  0  0
   -1.4410   18.7320   -5.2940 C   0  0  0  0  0  0  0  0  0  0  0  0
    0.9910   18.1530   -5.5440 C   0  0  0  0  0  0  0  0  0  0  0  0
  2  1  1  6
  2  3  1  0
  2  4  1  0
  2  5  1  0
  6  4  1  6
  3  7  1  1
  3  8  1  0
  9  5  1  1
  8  9  1  0
  6 10  1  0
 10  7  1  1
  6 11  1  0
  9 12  1  0
  8 13  1  1
 12 14  1  0
 13 15  2  0
 10 16  1  0
 11 17  1  0
 12 18  1  0
 13 19  1  0
 18 19  1  0
 17 20  2  0
 14 21  1  0
 18 22  2  0
 16 23  2  0
 17 23  1  0
 21 24  1  0
 24 25  1  0
 25 26  1  0
 25 27  1  0
M  END
