mac-x0472-mac-x0255
     RDKit          3D

 28 31  0  0  0  0  0  0  0  0999 V2000
   -4.5670   15.5160   -2.5160 O   0  0  0  0  0  0  0  0  0  0  0  0
   -3.4830   14.5990   -2.7790 S   0  0  1  0  0  0  0  0  0  0  0  0
   -2.5670   14.6100   -4.0320 N   0  0  0  0  0  0  0  0  0  0  0  0
   -2.3260   14.8050   -1.5590 N   0  0  0  0  0  0  0  0  0  0  0  0
   -4.1410   12.9640   -2.4610 C   0  0  0  0  0  0  0  0  0  0  0  0
   -2.7530   14.9020   -0.2790 C   0  0  0  0  0  0  0  0  0  0  0  0
   -3.4160   11.8170   -2.8280 C   0  0  0  0  0  0  0  0  0  0  0  0
   -5.3900   12.8250   -1.8350 C   0  0  0  0  0  0  0  0  0  0  0  0
   -1.0500   13.8630   -3.7900 S   0  0  0  0  0  0  0  0  0  0  0  0
   -2.0230   14.5360    0.7560 N   0  0  0  0  0  0  0  0  0  0  0  0
   -4.3020   15.5230    0.1700 S   0  0  0  0  0  0  0  0  0  0  0  0
   -3.9460   10.5450   -2.5700 C   0  0  0  0  0  0  0  0  0  0  0  0
   -5.9060   11.5490   -1.5810 C   0  0  0  0  0  0  0  0  0  0  0  0
    0.7570   14.1570   -3.9140 C   0  0  0  0  0  0  0  0  0  0  0  0
   -1.0000   15.4760   -4.7340 C   0  0  0  0  0  0  0  0  0  0  0  0
    1.6530   13.1550   -3.2700 C   0  0  0  0  0  0  0  0  0  0  0  0
   -3.8620   15.2410    1.7950 C   0  0  0  0  0  0  0  0  0  0  0  0
   -2.6630   14.7310    1.9530 N   0  0  0  0  0  0  0  0  0  0  0  0
   -5.1880   10.4160   -1.9480 C   0  0  0  0  0  0  0  0  0  0  0  0
    1.2530   15.1950   -4.5290 C   0  0  0  0  0  0  0  0  0  0  0  0
    0.3140   16.0630   -5.1480 C   0  0  2  0  0  0  0  0  0  0  0  0
   -2.1780   16.2560   -5.1870 C   0  0  0  0  0  0  0  0  0  0  0  0
    0.8340   12.1410   -2.5080 C   0  0  0  0  0  0  0  0  0  0  0  0
    0.3890   17.5320   -4.9660 C   0  0  0  0  0  0  0  0  0  0  0  0
   -1.9700   17.5770   -5.3670 C   0  0  0  0  0  0  0  0  0  0  0  0
    0.4530   12.5410   -1.2760 O   0  0  0  0  0  0  0  0  0  0  0  0
    0.5200   11.0490   -2.9530 O   0  0  0  0  0  0  0  0  0  0  0  0
   -0.7260   18.2340   -5.0950 C   0  0  0  0  0  0  0  0  0  0  0  0
  1  2  2  0
  2  3  2  0
  2  4  1  1
  2  5  1  0
  4  6  1  0
  5  7  2  0
  5  8  1  0
  3  9  1  0
  6 10  2  0
  6 11  1  0
  7 12  1  0
  8 13  2  0
  9 14  1  0
  9 15  2  0
 14 16  1  0
 11 17  1  0
 10 18  1  0
 17 18  2  0
 12 19  2  0
 13 19  1  0
 14 20  2  0
 15 21  1  0
 21 20  1  1
 15 22  1  0
 16 23  1  0
 21 24  1  0
 22 25  2  0
 23 26  1  0
 23 27  2  0
 24 28  2  0
 25 28  1  0
M  END
