mac-x0412-mac-x0354
     RDKit          3D

 29 32  0  0  0  0  0  0  0  0999 V2000
   -7.8410   14.5180   -0.7650 O   0  0  0  0  0  0  0  0  0  0  0  0
   -6.9500   14.8820   -0.0070 C   0  0  0  0  0  0  0  0  0  0  0  0
   -7.1340   14.8390    1.3760 N   0  0  0  0  0  0  0  0  0  0  0  0
   -5.5850   15.4360   -0.5310 C   0  0  1  0  0  0  0  0  0  0  0  0
   -4.4810   14.9450    0.3760 C   0  0  0  0  0  0  0  0  0  0  0  0
   -6.0860   14.7330    2.1190 C   0  0  0  0  0  0  0  0  0  0  0  0
   -5.2910   15.1650   -1.9860 C   0  0  0  0  0  0  0  0  0  0  0  0
   -4.7030   14.6140    1.6430 C   0  0  0  0  0  0  0  0  0  0  0  0
   -3.1630   14.7860   -0.1550 C   0  0  0  0  0  0  0  0  0  0  0  0
   -4.0550   14.8330   -2.4110 C   0  0  0  0  0  0  0  0  0  0  0  0
   -2.9440   14.7090   -1.4670 C   0  0  0  0  0  0  0  0  0  0  0  0
   -1.5680   14.4450   -2.0180 C   0  0  0  0  0  0  0  0  0  0  0  0
   -0.9630   13.1980   -1.3520 C   0  0  0  0  0  0  0  0  0  0  0  0
    0.5430   13.0850   -1.4990 C   0  0  0  0  0  0  0  0  0  0  0  0
    0.8140   13.0150   -2.8930 N   0  0  0  0  0  0  0  0  0  0  0  0
    0.6110   11.9050   -3.4690 C   0  0  0  0  0  0  0  0  0  0  0  0
    0.1720   10.7720   -2.8530 O   0  0  0  0  0  0  0  0  0  0  0  0
    0.8790   11.8800   -4.8650 C   0  0  0  0  0  0  0  0  0  0  0  0
    1.8790   12.6190   -5.5030 C   0  0  0  0  0  0  0  0  0  0  0  0
    0.2650   11.1620   -5.8900 C   0  0  0  0  0  0  0  0  0  0  0  0
    0.9240   11.5160   -7.0180 N   0  0  0  0  0  0  0  0  0  0  0  0
    1.9020   12.3940   -6.7910 N   0  0  0  0  0  0  0  0  0  0  0  0
   -0.8230   10.2110   -5.9230 C   0  0  0  0  0  0  0  0  0  0  0  0
    0.6480   11.0290   -8.3550 C   0  0  0  0  0  0  0  0  0  0  0  0
   -0.6170    8.9530   -6.5020 C   0  0  0  0  0  0  0  0  0  0  0  0
   -2.0700   10.5320   -5.3900 C   0  0  0  0  0  0  0  0  0  0  0  0
   -1.6510    8.0250   -6.5460 C   0  0  0  0  0  0  0  0  0  0  0  0
   -3.1070    9.6030   -5.4340 C   0  0  0  0  0  0  0  0  0  0  0  0
   -2.8970    8.3490   -6.0120 C   0  0  0  0  0  0  0  0  0  0  0  0
  1  2  2  0
  2  3  1  0
  2  4  1  0
  4  5  1  0
  3  6  2  0
  4  7  1  6
  5  8  2  0
  6  8  1  0
  5  9  1  0
  7 10  2  0
  9 11  2  0
 10 11  1  0
 11 12  1  0
 12 13  1  0
 13 14  1  0
 14 15  1  0
 15 16  2  3
 16 17  1  0
 16 18  1  0
 18 19  1  0
 18 20  2  0
 20 21  1  0
 19 22  2  0
 21 22  1  0
 20 23  1  0
 21 24  1  0
 23 25  2  0
 23 26  1  0
 25 27  1  0
 26 28  2  0
 27 29  2  0
 28 29  1  0
M  END
