mac-x0360-diamond-x0421_0_A
     RDKit          3D

 22 24  0  0  0  0  0  0  0  0999 V2000
   -7.8120   11.5110    1.0010 Cl  0  0  0  0  0  0  0  0  0  0  0  0
   -6.6300   11.7210   -0.2410 C   0  0  0  0  0  0  0  0  0  0  0  0
   -6.2210   10.6050   -0.9470 C   0  0  0  0  0  0  0  0  0  0  0  0
   -6.0930   12.9810   -0.5450 C   0  0  0  0  0  0  0  0  0  0  0  0
   -5.1370   13.0930   -1.5740 C   0  0  0  0  0  0  0  0  0  0  0  0
   -5.2710   10.7300   -1.9570 C   0  0  0  0  0  0  0  0  0  0  0  0
   -4.7730    9.3350   -2.8230 Cl  0  0  0  0  0  0  0  0  0  0  0  0
   -4.4440   14.6990   -2.0020 S   0  0  0  0  0  0  0  0  0  0  0  0
   -4.7220   11.9670   -2.2760 C   0  0  0  0  0  0  0  0  0  0  0  0
   -2.7300   14.7350   -1.4860 N   0  0  2  0  0  0  0  0  0  0  0  0
   -4.5040   14.8610   -3.4290 O   0  0  0  0  0  0  0  0  0  0  0  0
   -5.1240   15.6640   -1.1510 O   0  0  0  0  0  0  0  0  0  0  0  0
   -1.9720   15.9090   -1.9900 N   0  0  0  0  0  0  0  0  0  0  0  0
   -1.9690   13.6420   -1.7970 O   0  0  0  0  0  0  0  0  0  0  0  0
   -3.0570   14.7970   -0.0460 C   0  0  0  0  0  0  0  0  0  0  0  0
   -2.3020   14.8660    1.1010 C   0  0  0  0  0  0  0  0  0  0  0  0
   -4.3940   14.7730    0.2350 N   0  0  0  0  0  0  0  0  0  0  0  0
   -3.2520   14.8780    2.0930 N   0  0  0  0  0  0  0  0  0  0  0  0
   -4.5010   14.8220    1.4990 C   0  0  0  0  0  0  0  0  0  0  0  0
   -5.9070   14.8040    2.1750 C   0  0  0  0  0  0  0  0  0  0  0  0
   -7.1590   14.7180    1.3250 C   0  0  0  0  0  0  0  0  0  0  0  0
   -6.6870   13.5190    2.0770 C   0  0  0  0  0  0  0  0  0  0  0  0
  1  2  1  0
  2  3  2  0
  2  4  1  0
  4  5  2  0
  3  6  1  0
  6  7  1  0
  8  5  1  0
  5  9  1  0
  6  9  2  0
  8 10  1  0
  8 11  2  0
  8 12  2  0
 10 13  1  6
 10 14  1  0
 10 15  1  0
 15 16  2  0
 15 17  1  0
 16 18  1  0
 17 19  2  0
 18 19  1  0
 19 20  1  0
 20 21  1  0
 20 22  1  0
 21 22  1  0
M  CHG  2  10   1  14  -1
M  END
