mac-x0412-mac-x0115
     RDKit          3D

 24 26  0  0  0  0  0  0  0  0999 V2000
   -7.3840   14.9070   -0.7070 O   0  0  0  0  0  0  0  0  0  0  0  0
   -6.3390   14.9880   -0.0620 C   0  0  0  0  0  0  0  0  0  0  0  0
   -6.3420   14.7480    1.2930 N   0  0  0  0  0  0  0  0  0  0  0  0
   -4.9640   15.3610   -0.6490 C   0  0  1  0  0  0  0  0  0  0  0  0
   -3.7980   14.8140    0.2220 C   0  0  2  0  0  0  0  0  0  0  0  0
   -5.3190   15.1360    2.1170 C   0  0  0  0  0  0  0  0  0  0  0  0
   -4.8180   14.9090   -2.1040 C   0  0  0  0  0  0  0  0  0  0  0  0
   -4.0610   15.1880    1.6550 C   0  0  0  0  0  0  0  0  0  0  0  0
   -2.3380   14.7470   -0.4760 C   0  0  2  0  0  0  0  0  0  0  0  0
   -3.7900   13.8140   -2.2700 C   0  0  0  0  0  0  0  0  0  0  0  0
   -2.6520   13.7180   -1.5350 C   0  0  0  0  0  0  0  0  0  0  0  0
   -1.1550   14.4090    0.4910 C   0  0  0  0  0  0  0  0  0  0  0  0
   -1.6550   15.7510   -1.4180 C   0  0  0  0  0  0  0  0  0  0  0  0
   -1.2560   14.3580    1.7240 O   0  0  0  0  0  0  0  0  0  0  0  0
   -0.4590   15.1660   -2.1210 N   0  0  0  0  0  0  0  0  0  0  0  0
    0.1070   14.2070   -0.0820 N   0  0  0  0  0  0  0  0  0  0  0  0
   -0.5520   14.8660   -3.5690 C   0  0  0  0  0  0  0  0  0  0  0  0
    0.5170   14.5500   -1.3470 C   0  0  0  0  0  0  0  0  0  0  0  0
    0.2410   15.8230   -4.4750 C   0  0  0  0  0  0  0  0  0  0  0  0
    2.0980   14.1850   -1.7950 S   0  0  0  0  0  0  0  0  0  0  0  0
   -0.6480   16.3510   -5.4590 O   0  0  0  0  0  0  0  0  0  0  0  0
   -0.4190   17.7000   -5.8730 C   0  0  0  0  0  0  0  0  0  0  0  0
   -1.3970   18.5540   -5.0990 C   0  0  0  0  0  0  0  0  0  0  0  0
    1.0180   18.1040   -5.6000 C   0  0  0  0  0  0  0  0  0  0  0  0
  1  2  2  0
  2  3  1  0
  2  4  1  0
  4  5  1  0
  3  6  1  0
  4  7  1  6
  5  8  1  1
  6  8  2  0
  5  9  1  0
  7 10  1  0
  9 11  1  6
 10 11  2  0
  9 12  1  0
  9 13  1  0
 12 14  2  0
 13 15  1  0
 12 16  1  0
 15 17  1  0
 15 18  1  0
 16 18  1  0
 17 19  1  0
 18 20  2  0
 19 21  1  0
 21 22  1  0
 22 23  1  0
 22 24  1  0
M  END
