mac-x0224-diamond-x0805_0_A
     RDKit          3D

 19 21  0  0  0  0  0  0  0  0999 V2000
   -5.2750   14.7870    1.0620 C   0  0  0  0  0  0  0  0  0  0  0  0
   -3.5200   15.1460    1.0850 S   0  0  0  0  0  0  0  0  0  0  0  0
   -2.8740   15.0320   -0.6050 C   0  0  0  0  0  0  0  0  0  0  0  0
   -1.6850   14.3940   -0.7750 C   0  0  0  0  0  0  0  0  0  0  0  0
   -3.4100   15.4850   -1.6110 C   0  0  0  0  0  0  0  0  0  0  0  0
   -1.0640   14.2230   -1.8880 C   0  0  0  0  0  0  0  0  0  0  0  0
   -2.7340   15.3440   -2.9630 C   0  0  0  0  0  0  0  0  0  0  0  0
    0.0210   13.5650   -1.9130 C   0  0  0  0  0  0  0  0  0  0  0  0
   -1.1450   14.5670   -3.5900 S   0  0  0  0  0  0  0  0  0  0  0  0
   -2.2450   15.3070   -4.2520 O   0  0  0  0  0  0  0  0  0  0  0  0
    0.5520   13.1400   -0.8320 N   0  0  0  0  0  0  0  0  0  0  0  0
    0.5430   13.2660   -3.1120 O   0  0  0  0  0  0  0  0  0  0  0  0
    0.3310   13.6410   -3.1850 C   0  0  2  0  0  0  0  0  0  0  0  0
   -0.5600   14.4960   -5.0020 C   0  0  0  0  0  0  0  0  0  0  0  0
    1.0610   12.7410   -2.0990 C   0  0  2  0  0  0  0  0  0  0  0  0
    1.5320   13.6830   -4.1640 C   0  0  0  0  0  0  0  0  0  0  0  0
    0.6430   15.4840   -4.9600 C   0  0  0  0  0  0  0  0  0  0  0  0
    0.8000   11.3900   -2.3070 O   0  0  0  0  0  0  0  0  0  0  0  0
    1.7120   14.9480   -4.4820 O   0  0  0  0  0  0  0  0  0  0  0  0
  1  2  1  0
  2  3  1  0
  3  4  2  0
  3  5  1  0
  4  6  1  0
  5  7  2  0
  6  8  1  0
  6  9  2  0
  7  9  1  0
  9 10  1  0
  8 11  2  0
  8 12  1  0
  9 13  1  0
  9 14  1  0
 11 15  1  0
 13 15  1  0
 13 16  1  1
 14 17  1  0
 15 18  1  6
 16 19  1  0
 17 19  1  0
M  END
