mac-x0328-diamond-x0128_0_A
     RDKit          3D

 20 21  0  0  0  0  0  0  0  0999 V2000
   -2.2540   14.8480   -3.1650 O   0  0  0  0  0  0  0  0  0  0  0  0
   -2.3170   14.7700   -1.8160 C   0  0  0  0  0  0  0  0  0  0  0  0
   -1.3010   14.6170   -1.1640 O   0  0  0  0  0  0  0  0  0  0  0  0
   -3.7160   14.8960   -1.2780 C   0  0  0  0  0  0  0  0  0  0  0  0
   -4.1050   14.7860    0.1110 C   0  0  0  0  0  0  0  0  0  0  0  0
   -4.6940   15.1380   -2.2420 C   0  0  0  0  0  0  0  0  0  0  0  0
   -5.4850   14.9140    0.5240 C   0  0  0  0  0  0  0  0  0  0  0  0
   -6.0240   15.2650   -1.8730 C   0  0  0  0  0  0  0  0  0  0  0  0
   -6.0360   14.8190    1.9220 N   0  0  0  0  0  0  0  0  0  0  0  0
   -6.4030   15.1520   -0.5290 C   0  0  0  0  0  0  0  0  0  0  0  0
   -7.7250   15.2770   -0.2120 O   0  0  0  0  0  0  0  0  0  0  0  0
   -7.3240   15.0840    2.5490 C   0  0  0  0  0  0  0  0  0  0  0  0
   -8.3880   15.1450    1.9400 O   0  0  0  0  0  0  0  0  0  0  0  0
   -7.2610   15.2910    3.9740 N   0  0  0  0  0  0  0  0  0  0  0  0
   -8.1830   15.9950    4.8620 C   0  0  0  0  0  0  0  0  0  0  0  0
   -9.0330   17.0550    4.5250 C   0  0  0  0  0  0  0  0  0  0  0  0
   -8.2420   15.5920    6.2110 C   0  0  0  0  0  0  0  0  0  0  0  0
   -9.8780   17.6950    5.3890 N   0  0  0  0  0  0  0  0  0  0  0  0
   -9.1020   16.2360    7.1170 C   0  0  0  0  0  0  0  0  0  0  0  0
   -9.8920   17.2740    6.6630 C   0  0  0  0  0  0  0  0  0  0  0  0
  1  2  1  0
  2  3  2  0
  2  4  1  0
  4  5  2  0
  4  6  1  0
  5  7  1  0
  6  8  2  0
  7  9  1  0
  7 10  2  0
  8 10  1  0
 10 11  1  0
  9 12  1  0
 12 13  2  0
 12 14  1  0
 14 15  1  0
 15 16  2  0
 15 17  1  0
 16 18  1  0
 17 19  2  0
 18 20  2  0
 19 20  1  0
M  END
