mac-x0283-mac-x0398
     RDKit          3D

 14 15  0  0  0  0  0  0  0  0999 V2000
   -6.8690   14.7020    2.6090 N   0  0  0  0  0  0  0  0  0  0  0  0
   -6.8130   14.7620    1.2660 C   0  0  0  0  0  0  0  0  0  0  0  0
   -7.8970   14.7130    0.4960 N   0  0  0  0  0  0  0  0  0  0  0  0
   -5.6200   14.8910    0.5010 C   0  0  0  0  0  0  0  0  0  0  0  0
   -7.4410   14.8130   -0.8010 O   0  0  0  0  0  0  0  0  0  0  0  0
   -6.0920   14.9180   -0.7980 C   0  0  0  0  0  0  0  0  0  0  0  0
   -4.2290   14.9880    0.7250 C   0  0  0  0  0  0  0  0  0  0  0  0
   -5.3060   15.0310   -1.9220 C   0  0  0  0  0  0  0  0  0  0  0  0
   -3.3890   15.0970   -0.3940 C   0  0  0  0  0  0  0  0  0  0  0  0
   -5.9010   15.0420   -3.1650 O   0  0  0  0  0  0  0  0  0  0  0  0
   -3.9250   15.1160   -1.7010 C   0  0  0  0  0  0  0  0  0  0  0  0
   -3.0770   15.2160   -2.8960 C   0  0  0  0  0  0  0  0  0  0  0  0
   -3.5100   15.4390   -4.0110 O   0  0  0  0  0  0  0  0  0  0  0  0
   -1.7740   15.0260   -2.6680 O   0  0  0  0  0  0  0  0  0  0  0  0
  1  2  1  0
  2  3  2  0
  2  4  1  0
  3  5  1  0
  4  6  2  0
  5  6  1  0
  4  7  1  0
  6  8  1  0
  7  9  2  0
  8 10  1  0
  8 11  2  0
  9 11  1  0
 11 12  1  0
 12 13  2  0
 12 14  1  0
M  END
