mac-x0411-mac-x0415
     RDKit          3D

 24 26  0  0  0  0  0  0  0  0999 V2000
    0.7340   10.2820   -8.2300 Cl  0  0  0  0  0  0  0  0  0  0  0  0
   -0.6280   10.3940   -7.1780 C   0  0  0  0  0  0  0  0  0  0  0  0
   -0.7200   11.3340   -6.1130 C   0  0  0  0  0  0  0  0  0  0  0  0
   -1.6630    9.4720   -7.4210 C   0  0  0  0  0  0  0  0  0  0  0  0
    0.3020   12.2640   -5.8270 O   0  0  0  0  0  0  0  0  0  0  0  0
   -1.8980   11.2870   -5.3360 C   0  0  0  0  0  0  0  0  0  0  0  0
   -2.8020    9.4580   -6.6300 C   0  0  0  0  0  0  0  0  0  0  0  0
   -2.1990   12.3390   -4.0090 Cl  0  0  0  0  0  0  0  0  0  0  0  0
    0.3190   12.5990   -4.4030 C   0  0  1  0  0  0  0  0  0  0  0  0
   -2.9130   10.3670   -5.5930 C   0  0  0  0  0  0  0  0  0  0  0  0
    1.1900   11.7100   -3.5500 C   0  0  0  0  0  0  0  0  0  0  0  0
    0.5820   14.0700   -3.9370 C   0  0  1  0  0  0  0  0  0  0  0  0
    0.8510   11.7290   -2.1230 N   0  0  0  0  0  0  0  0  0  0  0  0
    2.1240   11.0400   -3.9190 O   0  0  0  0  0  0  0  0  0  0  0  0
    1.9300   14.7580   -4.1350 C   0  0  0  0  0  0  0  0  0  0  0  0
   -0.4240   15.1630   -4.2220 C   0  0  1  0  0  0  0  0  0  0  0  0
    1.0050   12.8290   -1.5910 O   0  0  0  0  0  0  0  0  0  0  0  0
    1.5760   16.1790   -4.4050 N   0  0  0  0  0  0  0  0  0  0  0  0
    0.3380   16.0530   -5.1480 C   0  0  2  0  0  0  0  0  0  0  0  0
   -1.7200   14.7250   -4.8480 C   0  0  0  0  0  0  0  0  0  0  0  0
   -0.4750   17.2530   -5.4980 C   0  0  0  0  0  0  0  0  0  0  0  0
   -2.5890   15.9570   -5.0060 C   0  0  2  0  0  0  0  0  0  0  0  0
   -4.0060   15.4200   -6.2260 Br  0  0  0  0  0  0  0  0  0  0  0  0
   -1.8320   17.2040   -5.4430 C   0  0  0  0  0  0  0  0  0  0  0  0
  1  2  1  0
  2  3  2  0
  2  4  1  0
  3  5  1  0
  3  6  1  0
  4  7  2  0
  6  8  1  0
  9  5  1  6
  6 10  2  0
  7 10  1  0
  9 11  1  0
  9 12  1  0
 11 13  1  0
 11 14  2  0
 12 15  1  6
 12 16  1  0
 13 17  2  0
 15 18  1  0
 16 19  1  0
 18 19  1  0
 16 20  1  6
 19 21  1  1
 20 22  1  0
 22 23  1  6
 21 24  2  0
 22 24  1  0
M  END
