mac-x0284-diamond-x0905_0_A
     RDKit          3D

 16 17  0  0  0  0  0  0  0  0999 V2000
   -3.3920   16.1420    0.1640 C   0  0  0  0  0  0  0  0  0  0  0  0
   -3.2450   14.7300   -0.2880 C   0  0  1  0  0  0  0  0  0  0  0  0
   -4.2990   14.4390   -1.3610 C   0  0  2  0  0  0  0  0  0  0  0  0
   -1.8390   14.5500   -0.7650 C   0  0  0  0  0  0  0  0  0  0  0  0
   -3.6120   14.0430    0.9530 C   0  0  0  0  0  0  0  0  0  0  0  0
   -1.5280   14.7070   -2.0630 C   0  0  0  0  0  0  0  0  0  0  0  0
   -3.8940   14.9580   -2.7240 C   0  0  0  0  0  0  0  0  0  0  0  0
   -4.9030   14.0290    1.2720 C   0  0  0  0  0  0  0  0  0  0  0  0
   -5.6370   14.8000   -0.7330 C   0  0  0  0  0  0  0  0  0  0  0  0
   -0.0990   14.5070   -2.4060 C   0  0  0  0  0  0  0  0  0  0  0  0
   -6.6070   15.3350   -1.4840 O   0  0  0  0  0  0  0  0  0  0  0  0
   -2.5750   15.0620   -3.0350 C   0  0  0  0  0  0  0  0  0  0  0  0
   -5.9080   14.5960    0.5170 N   0  0  0  0  0  0  0  0  0  0  0  0
   -2.1420   15.4930   -4.2620 O   0  0  0  0  0  0  0  0  0  0  0  0
    0.8390   14.6210   -1.6410 O   0  0  0  0  0  0  0  0  0  0  0  0
    0.1060   14.1750   -3.6900 O   0  0  0  0  0  0  0  0  0  0  0  0
  2  1  1  1
  2  3  1  0
  2  4  1  0
  2  5  1  0
  4  6  2  0
  3  7  1  6
  5  8  2  0
  3  9  1  0
  6 10  1  0
  9 11  1  0
  6 12  1  0
  7 12  2  0
  8 13  1  0
  9 13  2  0
 12 14  1  0
 10 15  2  0
 10 16  1  0
M  END
