mac-x0565-mac-x0439
     RDKit          3D

 25 28  0  0  0  0  0  0  0  0999 V2000
   -5.7100   15.1220    1.1100 O   0  0  0  0  0  0  0  0  0  0  0  0
   -6.2450   14.9300   -0.1050 C   0  0  0  0  0  0  0  0  0  0  0  0
   -7.4460   14.8140   -0.2730 O   0  0  0  0  0  0  0  0  0  0  0  0
   -5.2310   14.8910   -1.1630 C   0  0  0  0  0  0  0  0  0  0  0  0
   -3.8620   14.8940   -0.8800 C   0  0  0  0  0  0  0  0  0  0  0  0
   -5.6910   14.8460   -2.4860 C   0  0  0  0  0  0  0  0  0  0  0  0
   -3.0170   14.8460   -1.9530 C   0  0  0  0  0  0  0  0  0  0  0  0
   -4.8010   14.7970   -3.5400 C   0  0  0  0  0  0  0  0  0  0  0  0
   -3.4650   14.7970   -3.2580 C   0  0  0  0  0  0  0  0  0  0  0  0
   -1.6570   14.8390   -1.8790 O   0  0  0  0  0  0  0  0  0  0  0  0
   -2.4510   14.7530   -4.1690 N   0  0  0  0  0  0  0  0  0  0  0  0
   -1.2870   14.9060   -3.2750 C   0  0  0  0  0  0  0  0  0  0  0  0
   -2.6860   15.6480   -5.2870 C   0  0  0  0  0  0  0  0  0  0  0  0
   -1.4930   16.5170   -5.4120 C   0  0  0  0  0  0  0  0  0  0  0  0
   -0.1560   15.8540   -5.2740 C   0  0  2  0  0  0  0  0  0  0  0  0
   -1.5460   17.8390   -5.6570 C   0  0  0  0  0  0  0  0  0  0  0  0
    0.1450   14.7020   -4.3940 C   0  0  0  0  0  0  0  0  0  0  0  0
    0.8250   16.8150   -4.7160 C   0  0  0  0  0  0  0  0  0  0  0  0
   -0.3300   18.6160   -5.7680 C   0  0  0  0  0  0  0  0  0  0  0  0
    1.1460   15.0430   -3.5900 C   0  0  0  0  0  0  0  0  0  0  0  0
    1.5550   16.3370   -3.7780 N   0  0  0  0  0  0  0  0  0  0  0  0
    0.8560   18.1660   -5.3160 C   0  0  0  0  0  0  0  0  0  0  0  0
    1.7320   14.0920   -2.6140 C   0  0  0  0  0  0  0  0  0  0  0  0
    3.0670   14.2320   -2.4960 O   0  0  0  0  0  0  0  0  0  0  0  0
    1.1270   13.2530   -1.9720 O   0  0  0  0  0  0  0  0  0  0  0  0
  1  2  1  0
  2  3  2  0
  2  4  1  0
  4  5  2  0
  4  6  1  0
  5  7  1  0
  6  8  2  0
  7  9  2  0
  8  9  1  0
  7 10  1  0
  9 11  1  0
 10 12  1  0
 11 12  1  0
 11 13  1  0
 13 14  1  0
 14 15  1  0
 14 16  2  0
 15 17  1  1
 15 18  1  0
 16 19  1  0
 17 20  2  0
 18 21  2  0
 20 21  1  0
 18 22  1  0
 19 22  2  0
 20 23  1  0
 23 24  1  0
 23 25  2  0
M  END
