mac-x0303-diamond-x0933_0_A
     RDKit          3D

 14 15  0  0  0  0  0  0  0  0999 V2000
   -8.6150   12.9280    2.6450 N   0  0  0  0  0  0  0  0  0  0  0  0
   -8.7900   14.4790    2.0100 S   0  0  0  0  0  0  0  0  0  0  0  0
   -8.6100   15.4460    3.0660 O   0  0  0  0  0  0  0  0  0  0  0  0
   -9.9250   14.4940    1.1280 O   0  0  0  0  0  0  0  0  0  0  0  0
   -7.3910   14.6990    0.9800 C   0  0  0  0  0  0  0  0  0  0  0  0
   -7.4070   14.9220   -0.3770 N   0  0  0  0  0  0  0  0  0  0  0  0
   -6.1810   14.6710    1.4480 N   0  0  0  0  0  0  0  0  0  0  0  0
   -6.0980   15.0470   -0.7870 C   0  0  0  0  0  0  0  0  0  0  0  0
   -5.3710   14.8830    0.3790 C   0  0  0  0  0  0  0  0  0  0  0  0
   -5.4930   15.2790   -2.0210 C   0  0  0  0  0  0  0  0  0  0  0  0
   -3.9950   14.9410    0.3840 C   0  0  0  0  0  0  0  0  0  0  0  0
   -3.3130   14.7710    1.5990 N   0  0  0  0  0  0  0  0  0  0  0  0
   -4.0920   15.3370   -2.0240 C   0  0  0  0  0  0  0  0  0  0  0  0
   -3.3520   15.1700   -0.8420 C   0  0  0  0  0  0  0  0  0  0  0  0
  2  1  1  0
  2  3  2  0
  2  4  2  0
  2  5  1  0
  5  6  1  0
  5  7  2  0
  6  8  1  0
  7  9  1  0
  8  9  2  0
  8 10  1  0
  9 11  1  0
 11 12  1  0
 10 13  2  0
 11 14  2  0
 13 14  1  0
M  END
