mac-x0345-mac-x0360
     RDKit          3D

 20 21  0  0  0  0  0  0  0  0999 V2000
   -8.2590   15.2000    0.4220 C   0  0  0  0  0  0  0  0  0  0  0  0
   -7.0410   15.0730   -0.4080 C   0  0  0  0  0  0  0  0  0  0  0  0
   -7.1480   15.0820   -1.7210 N   0  0  0  0  0  0  0  0  0  0  0  0
   -5.7980   14.9220    0.0720 C   0  0  0  0  0  0  0  0  0  0  0  0
   -5.4610   14.8890    1.9380 Br  0  0  0  0  0  0  0  0  0  0  0  0
   -4.6820   14.7600   -0.6780 C   0  0  0  0  0  0  0  0  0  0  0  0
   -6.1450   14.9490   -2.5500 C   0  0  0  0  0  0  0  0  0  0  0  0
   -6.3160   14.9410   -3.9600 N   0  0  0  0  0  0  0  0  0  0  0  0
   -4.9150   14.7920   -2.0300 C   0  0  0  0  0  0  0  0  0  0  0  0
   -3.1900   14.4650   -0.0870 S   0  0  0  0  0  0  0  0  0  0  0  0
   -2.3440   14.8330   -1.3230 N   0  0  0  0  0  0  0  0  0  0  0  0
   -2.2470   13.7730    0.6130 O   0  0  0  0  0  0  0  0  0  0  0  0
   -4.2850   12.9790   -0.2820 C   0  0  0  0  0  0  0  0  0  0  0  0
   -4.1760   12.1440   -1.3210 C   0  0  0  0  0  0  0  0  0  0  0  0
   -5.2500   12.8250    0.6950 C   0  0  0  0  0  0  0  0  0  0  0  0
   -5.0520   11.0800   -1.4710 C   0  0  0  0  0  0  0  0  0  0  0  0
   -6.1430   11.7710    0.5600 C   0  0  0  0  0  0  0  0  0  0  0  0
   -7.4150   11.4890    1.7290 Cl  0  0  0  0  0  0  0  0  0  0  0  0
   -4.9550    9.9580   -2.8050 Cl  0  0  0  0  0  0  0  0  0  0  0  0
   -6.0490   10.9170   -0.5040 C   0  0  0  0  0  0  0  0  0  0  0  0
  1  2  1  0
  2  3  2  0
  2  4  1  0
  4  5  1  0
  4  6  2  0
  3  7  1  0
  7  8  1  0
  6  9  1  0
  7  9  2  0
  6 10  1  0
 10 11  1  0
 10 12  2  0
 10 13  1  0
 13 14  2  0
 13 15  1  0
 14 16  1  0
 15 17  2  0
 17 18  1  0
 16 19  1  0
 16 20  2  0
 17 20  1  0
M  END
