mac-x0178-mac-x0345
     RDKit          3D

 25 26  0  0  0  0  0  0  0  0999 V2000
   -1.4400   18.6340   -4.8940 N   0  0  0  0  0  0  0  0  0  0  0  0
   -1.7100   17.1800   -5.6360 S   0  0  2  0  0  0  0  0  0  0  0  0
   -1.3550   17.5530   -6.9660 O   0  0  0  0  0  0  0  0  0  0  0  0
   -3.0590   16.7250   -5.1840 N   0  0  0  0  0  0  0  0  0  0  0  0
   -0.8330   15.9220   -4.8060 C   0  0  0  0  0  0  0  0  0  0  0  0
   -3.8600   16.0320   -6.2240 C   0  0  0  0  0  0  0  0  0  0  0  0
    0.3930   16.1060   -4.1790 C   0  0  0  0  0  0  0  0  0  0  0  0
   -1.4930   14.6920   -4.7900 C   0  0  0  0  0  0  0  0  0  0  0  0
   -4.4960   14.7100   -5.8480 C   0  0  0  0  0  0  0  0  0  0  0  0
    0.9550   15.0150   -3.5070 C   0  0  0  0  0  0  0  0  0  0  0  0
   -0.9380   13.6170   -4.1260 C   0  0  0  0  0  0  0  0  0  0  0  0
   -4.5280   14.4610   -4.3620 C   0  0  0  0  0  0  0  0  0  0  0  0
    0.2830   13.7740   -3.4770 C   0  0  0  0  0  0  0  0  0  0  0  0
    0.8910   12.6490   -2.7440 C   0  0  0  0  0  0  0  0  0  0  0  0
   -5.8000   14.7470   -3.6970 N   0  0  0  0  0  0  0  0  0  0  0  0
    1.8600   12.7290   -2.0340 O   0  0  0  0  0  0  0  0  0  0  0  0
    0.2400   11.4860   -2.9200 O   0  0  0  0  0  0  0  0  0  0  0  0
   -5.6060   14.9200   -2.3540 C   0  0  0  0  0  0  0  0  0  0  0  0
   -4.3330   15.3290   -2.0110 C   0  0  0  0  0  0  0  0  0  0  0  0
   -6.5770   14.6980   -1.4480 N   0  0  0  0  0  0  0  0  0  0  0  0
   -6.2720   14.8940   -0.1410 C   0  0  0  0  0  0  0  0  0  0  0  0
   -4.0370   15.5230   -0.7060 C   0  0  0  0  0  0  0  0  0  0  0  0
   -7.3900   14.6270    0.8360 C   0  0  0  0  0  0  0  0  0  0  0  0
   -4.9920   15.3160    0.2290 C   0  0  0  0  0  0  0  0  0  0  0  0
   -4.3570   15.6590    1.9270 Br  0  0  0  0  0  0  0  0  0  0  0  0
  2  1  1  1
  2  3  2  0
  2  4  2  0
  2  5  1  0
  4  6  1  0
  5  7  2  0
  5  8  1  0
  6  9  1  0
  7 10  1  0
  8 11  2  0
  9 12  1  0
 10 13  2  0
 11 13  1  0
 13 14  1  0
 12 15  1  0
 14 16  2  0
 14 17  1  0
 15 18  1  0
 18 19  2  0
 18 20  1  0
 20 21  2  0
 19 22  1  0
 21 23  1  0
 21 24  1  0
 22 24  2  0
 24 25  1  0
M  END
