mac-x0357-diamond-x0587_0_A
     RDKit          3D

 26 27  0  0  0  0  0  0  0  0999 V2000
    2.4630   13.1340   -4.6010 C   0  0  0  0  0  0  0  0  0  0  0  0
    1.1220   12.5090   -4.8710 C   0  0  0  0  0  0  0  0  0  0  0  0
    0.8500   11.8430   -6.0720 C   0  0  0  0  0  0  0  0  0  0  0  0
    0.0890   12.5650   -3.9230 C   0  0  0  0  0  0  0  0  0  0  0  0
    1.7600   11.7110   -7.0630 O   0  0  0  0  0  0  0  0  0  0  0  0
    0.2580   13.2400   -2.6210 C   0  0  0  0  0  0  0  0  0  0  0  0
   -1.1630   11.9730   -4.1790 C   0  0  0  0  0  0  0  0  0  0  0  0
   -0.3860   11.2570   -6.3330 C   0  0  0  0  0  0  0  0  0  0  0  0
   -0.4760   14.1990   -2.2120 N   0  0  0  0  0  0  0  0  0  0  0  0
    1.2820   12.7190   -1.9300 O   0  0  0  0  0  0  0  0  0  0  0  0
   -1.3970   11.3190   -5.3860 C   0  0  0  0  0  0  0  0  0  0  0  0
   -1.5920   14.7790   -2.9340 C   0  0  0  0  0  0  0  0  0  0  0  0
   -2.4720   15.5920   -1.9850 C   0  0  0  0  0  0  0  0  0  0  0  0
   -3.2350   14.7950   -1.0890 O   0  0  0  0  0  0  0  0  0  0  0  0
   -4.5800   14.4970   -1.4890 C   0  0  0  0  0  0  0  0  0  0  0  0
   -4.5200   13.2260   -1.9940 F   0  0  0  0  0  0  0  0  0  0  0  0
   -4.8980   15.2680   -2.5710 F   0  0  0  0  0  0  0  0  0  0  0  0
   -5.6150   14.5850   -0.3560 C   0  0  0  0  0  0  0  0  0  0  0  0
   -6.9250   14.3580   -0.6410 N   0  0  0  0  0  0  0  0  0  0  0  0
   -5.1660   14.8920    0.8820 N   0  0  0  0  0  0  0  0  0  0  0  0
   -7.8030   14.4540    0.3820 C   0  0  0  0  0  0  0  0  0  0  0  0
   -6.0990   14.9730    1.8590 C   0  0  0  0  0  0  0  0  0  0  0  0
   -7.4410   14.7660    1.6680 C   0  0  0  0  0  0  0  0  0  0  0  0
   -8.3810   14.8970    2.7930 C   0  0  0  0  0  0  0  0  0  0  0  0
   -7.8900   14.9170    4.0670 N   0  0  0  0  0  0  0  0  0  0  0  0
   -9.5830   15.0000    2.5950 O   0  0  0  0  0  0  0  0  0  0  0  0
  1  2  1  0
  2  3  2  0
  2  4  1  0
  3  5  1  0
  4  6  1  0
  4  7  2  0
  3  8  1  0
  6  9  2  3
  6 10  1  0
  7 11  1  0
  8 11  2  0
  9 12  1  0
 12 13  1  0
 13 14  1  0
 14 15  1  0
 15 16  1  0
 15 17  1  0
 15 18  1  0
 18 19  2  0
 18 20  1  0
 19 21  1  0
 20 22  2  0
 21 23  2  0
 22 23  1  0
 23 24  1  0
 24 25  1  0
 24 26  2  0
M  END
