mac-x0436-diamond-x0900_1_A
     RDKit          3D

 17 18  0  0  0  0  0  0  0  0999 V2000
    0.7550   11.2270   -2.9540 O   0  0  0  0  0  0  0  0  0  0  0  0
    1.2590   12.4730   -2.9210 C   0  0  0  0  0  0  0  0  0  0  0  0
    1.3720   13.0460   -1.8560 O   0  0  0  0  0  0  0  0  0  0  0  0
    1.6550   13.0340   -4.2670 C   0  0  0  0  0  0  0  0  0  0  0  0
    0.5350   13.0830   -5.3190 C   0  0  0  0  0  0  0  0  0  0  0  0
   -0.2150   11.7560   -5.5200 C   0  0  1  0  0  0  0  0  0  0  0  0
   -1.7280   11.8830   -5.3220 C   0  0  0  0  0  0  0  0  0  0  0  0
    0.0720   11.1370   -6.8300 N   0  0  0  0  0  0  0  0  0  0  0  0
   -2.2860   12.8730   -4.8490 O   0  0  0  0  0  0  0  0  0  0  0  0
   -2.4430   10.7840   -5.7160 N   0  0  0  0  0  0  0  0  0  0  0  0
   -0.4830    9.7560   -6.8840 C   0  0  1  0  0  0  0  0  0  0  0  0
   -1.7190    9.5400   -5.9730 C   0  0  2  0  0  0  0  0  0  0  0  0
   -0.7610    9.3470   -8.3240 C   0  0  0  0  0  0  0  0  0  0  0  0
   -0.5770   10.0550   -9.3150 O   0  0  0  0  0  0  0  0  0  0  0  0
   -1.3040    7.9960   -8.4820 C   0  0  0  0  0  0  0  0  0  0  0  0
   -2.6950    8.4310   -6.4480 C   0  0  0  0  0  0  0  0  0  0  0  0
   -2.2040    7.5850   -7.5930 C   0  0  0  0  0  0  0  0  0  0  0  0
  1  2  1  0
  2  3  2  0
  2  4  1  0
  4  5  1  0
  6  5  1  6
  6  7  1  0
  6  8  1  0
  7  9  2  0
  7 10  1  0
 11  8  1  6
 10 12  1  0
 11 12  1  0
 11 13  1  0
 13 14  2  0
 13 15  1  0
 12 16  1  6
 15 17  2  0
 16 17  1  0
M  END
