mac-x0302-mac-x0231
     RDKit          3D

 28 30  0  0  0  0  0  0  0  0999 V2000
    1.7020   14.4610   -2.6170 O   0  0  0  0  0  0  0  0  0  0  0  0
    0.4210   14.0360   -2.5080 C   0  0  0  0  0  0  0  0  0  0  0  0
    0.1400   12.8420   -2.7000 N   0  0  0  0  0  0  0  0  0  0  0  0
   -0.5640   15.0880   -2.1800 C   0  0  0  0  0  0  0  0  0  0  0  0
   -1.8740   14.4610   -2.3420 N   0  0  0  0  0  0  0  0  0  0  0  0
    1.1640   11.9550   -3.0760 C   0  0  1  0  0  0  0  0  0  0  0  0
   -3.0500   15.1770   -2.4180 C   0  0  0  0  0  0  0  0  0  0  0  0
    0.6980   10.6160   -3.0510 O   0  0  0  0  0  0  0  0  0  0  0  0
    1.6320   12.4500   -4.4540 C   0  0  0  0  0  0  0  0  0  0  0  0
   -3.3940   15.8290   -3.3890 O   0  0  0  0  0  0  0  0  0  0  0  0
   -3.9050   15.1040   -1.2180 C   0  0  0  0  0  0  0  0  0  0  0  0
    1.1490   13.8810   -4.6280 C   0  0  0  0  0  0  0  0  0  0  0  0
   -5.2950   15.0580   -1.3340 C   0  0  0  0  0  0  0  0  0  0  0  0
   -3.2950   15.0790    0.0410 C   0  0  0  0  0  0  0  0  0  0  0  0
   -0.2760   14.1730   -4.9240 C   0  0  0  0  0  0  0  0  0  0  0  0
    2.0410   14.8100   -4.4530 N   0  0  0  0  0  0  0  0  0  0  0  0
   -6.0610   14.9810   -0.1820 C   0  0  0  0  0  0  0  0  0  0  0  0
   -4.0750   15.0050    1.1860 C   0  0  0  0  0  0  0  0  0  0  0  0
   -0.6490   15.5210   -4.9800 C   0  0  0  0  0  0  0  0  0  0  0  0
    1.6510   16.1110   -4.5590 N   0  0  0  0  0  0  0  0  0  0  0  0
   -1.2460   13.1870   -5.1360 C   0  0  0  0  0  0  0  0  0  0  0  0
   -7.4190   14.9360   -0.3320 O   0  0  0  0  0  0  0  0  0  0  0  0
   -5.4650   14.9550    1.0770 C   0  0  0  0  0  0  0  0  0  0  0  0
    0.3740   16.5610   -4.7670 C   0  0  0  0  0  0  0  0  0  0  0  0
   -1.9830   15.8810   -5.2370 C   0  0  0  0  0  0  0  0  0  0  0  0
   -2.5740   13.5420   -5.3950 C   0  0  0  0  0  0  0  0  0  0  0  0
    0.0930   17.7570   -4.7820 O   0  0  0  0  0  0  0  0  0  0  0  0
   -2.9440   14.8900   -5.4450 C   0  0  0  0  0  0  0  0  0  0  0  0
  1  2  1  0
  2  3  2  3
  2  4  1  0
  4  5  1  0
  3  6  1  0
  5  7  1  0
  6  8  1  6
  6  9  1  0
  7 10  2  0
  7 11  1  0
  9 12  1  0
 11 13  2  0
 11 14  1  0
 12 15  1  0
 12 16  2  0
 13 17  1  0
 14 18  2  0
 15 19  2  0
 16 20  1  0
 15 21  1  0
 17 22  1  0
 17 23  2  0
 18 23  1  0
 19 24  1  0
 20 24  1  0
 19 25  1  0
 21 26  2  0
 24 27  2  0
 25 28  2  0
 26 28  1  0
M  END
