mac-x0555-mac-x0412
     RDKit          3D

 11 12  0  0  0  0  0  0  0  0999 V2000
   -7.4980   14.2920    2.8810 N   0  0  0  0  0  0  0  0  0  0  0  0
   -6.9780   14.5100    1.6060 C   0  0  0  0  0  0  0  0  0  0  0  0
   -7.7730   14.5940    0.4700 C   0  0  0  0  0  0  0  0  0  0  0  0
   -5.6060   14.6550    1.4180 C   0  0  0  0  0  0  0  0  0  0  0  0
   -5.0840   14.8760    0.1410 C   0  0  0  0  0  0  0  0  0  0  0  0
   -7.3110   14.8100   -0.7810 N   0  0  0  0  0  0  0  0  0  0  0  0
   -5.9850   14.9480   -0.9410 C   0  0  0  0  0  0  0  0  0  0  0  0
   -3.7070   15.0210   -0.0780 C   0  0  0  0  0  0  0  0  0  0  0  0
   -5.4750   15.1660   -2.2080 C   0  0  0  0  0  0  0  0  0  0  0  0
   -3.2240   15.2320   -1.3630 C   0  0  0  0  0  0  0  0  0  0  0  0
   -4.1070   15.3080   -2.4320 C   0  0  0  0  0  0  0  0  0  0  0  0
  1  2  1  0
  2  3  2  0
  2  4  1  0
  4  5  2  0
  3  6  1  0
  5  7  1  0
  6  7  2  0
  5  8  1  0
  7  9  1  0
  8 10  2  0
  9 11  2  0
 10 11  1  0
M  END
