mac-x0453-mac-x0139
     RDKit          3D

 20 21  0  0  0  0  0  0  0  0999 V2000
   -6.7470   14.1800    2.0930 N   0  0  0  0  0  0  0  0  0  0  0  0
   -5.9610   14.2740    0.8560 C   0  0  0  0  0  0  0  0  0  0  0  0
   -4.7080   15.1410    1.0690 C   0  0  0  0  0  0  0  0  0  0  0  0
   -3.8490   15.4150   -0.1940 C   0  0  1  0  0  0  0  0  0  0  0  0
   -2.6310   14.4700   -0.2990 C   0  0  1  0  0  0  0  0  0  0  0  0
   -4.6340   15.1900   -1.4250 N   0  0  0  0  0  0  0  0  0  0  0  0
   -3.3610   13.3190   -0.8200 N   0  0  0  0  0  0  0  0  0  0  0  0
   -4.2810   13.8370   -1.8120 C   0  0  0  0  0  0  0  0  0  0  0  0
   -1.2410   14.6170   -1.1340 C   0  0  1  0  0  0  0  0  0  0  0  0
   -2.2700   14.2890    1.2160 C   0  0  0  0  0  0  0  0  0  0  0  0
   -1.1660   15.1090   -2.5200 N   0  0  0  0  0  0  0  0  0  0  0  0
   -0.8430   14.1890    1.4710 N   0  0  0  0  0  0  0  0  0  0  0  0
   -0.1100   15.2640   -0.4680 N   0  0  0  0  0  0  0  0  0  0  0  0
   -2.3330   14.9870   -3.3890 C   0  0  0  0  0  0  0  0  0  0  0  0
    0.1340   14.8570   -3.1710 C   0  0  0  0  0  0  0  0  0  0  0  0
   -0.1870   15.3340    0.9330 C   0  0  0  0  0  0  0  0  0  0  0  0
    0.2080   13.4760   -3.8360 C   0  0  0  0  0  0  0  0  0  0  0  0
    0.9720   12.5040   -2.9730 C   0  0  0  0  0  0  0  0  0  0  0  0
    1.8480   12.7660   -2.1790 O   0  0  0  0  0  0  0  0  0  0  0  0
    0.5930   11.2260   -3.1510 O   0  0  0  0  0  0  0  0  0  0  0  0
  1  2  1  0
  2  3  1  0
  4  3  1  1
  4  5  1  0
  4  6  1  0
  5  7  1  0
  6  8  1  0
  7  8  1  0
  5  9  1  0
  5 10  1  1
  9 11  1  6
 10 12  1  0
  9 13  1  0
 11 14  1  0
 11 15  1  0
 12 16  1  0
 13 16  1  0
 15 17  1  0
 17 18  1  0
 18 19  2  0
 18 20  1  0
M  END
