mac-x0132-diamond-x0685_0_A
     RDKit          3D

 15 16  0  0  0  0  0  0  0  0999 V2000
   -5.3220   14.7600    2.5720 N   0  0  0  0  0  0  0  0  0  0  0  0
   -6.4710   14.9090    3.4780 C   0  0  0  0  0  0  0  0  0  0  0  0
   -7.0480   13.6090    4.0220 C   0  0  0  0  0  0  0  0  0  0  0  0
   -5.5220   13.6590    1.6410 C   0  0  2  0  0  0  0  0  0  0  0  0
   -4.7640   13.8060    0.2930 C   0  0  1  0  0  0  0  0  0  0  0  0
   -6.9430   13.5820    1.4120 N   0  0  0  0  0  0  0  0  0  0  0  0
   -5.6790   13.2740   -0.8510 C   0  0  1  0  0  0  0  0  0  0  0  0
   -7.2700   14.5250    0.3950 C   0  0  0  0  0  0  0  0  0  0  0  0
   -4.1410   15.1510   -0.0700 C   0  0  0  0  0  0  0  0  0  0  0  0
   -6.9290   14.0430   -0.9290 N   0  0  0  0  0  0  0  0  0  0  0  0
   -5.1040   13.5730   -2.2200 C   0  0  0  0  0  0  0  0  0  0  0  0
   -3.9400   15.4780   -1.3570 C   0  0  0  0  0  0  0  0  0  0  0  0
   -6.7660   14.9530   -1.8740 C   0  0  0  0  0  0  0  0  0  0  0  0
   -4.2920   14.6090   -2.4350 C   0  0  0  0  0  0  0  0  0  0  0  0
   -6.5080   15.6730   -2.7030 N   0  0  0  0  0  0  0  0  0  0  0  0
  1  2  1  0
  2  3  1  0
  4  1  1  1
  4  5  1  0
  4  6  1  0
  5  7  1  0
  6  8  1  0
  5  9  1  6
  7 10  1  0
  8 10  1  0
  7 11  1  6
  9 12  2  0
 10 13  1  0
 11 14  2  0
 12 14  1  0
 13 15  3  0
M  END
