mac-x0584-diamond-x0290_0_A
     RDKit          3D

 25 28  0  0  0  0  0  0  0  0999 V2000
   -7.2010   13.5930    1.2130 N   0  0  0  0  0  0  0  0  0  0  0  0
   -8.1400   14.6860    0.9640 C   0  0  0  0  0  0  0  0  0  0  0  0
   -5.8970   14.0160    1.8010 C   0  0  0  0  0  0  0  0  0  0  0  0
   -4.7100   13.7020    0.8520 C   0  0  0  0  0  0  0  0  0  0  0  0
   -4.9200   13.5500   -0.3530 O   0  0  0  0  0  0  0  0  0  0  0  0
   -3.4290   13.5660    1.4690 N   0  0  0  0  0  0  0  0  0  0  0  0
   -2.2870   14.4630    1.2920 N   0  0  0  0  0  0  0  0  0  0  0  0
   -0.9980   14.0500    0.6960 C   0  0  0  0  0  0  0  0  0  0  0  0
   -2.6650   15.7030    0.7520 C   0  0  1  0  0  0  0  0  0  0  0  0
   -1.0270   13.9080   -0.7680 N   0  0  0  0  0  0  0  0  0  0  0  0
   -2.6220   15.7760   -0.7930 C   0  0  1  0  0  0  0  0  0  0  0  0
   -4.0440   16.1250    1.0000 N   0  0  0  0  0  0  0  0  0  0  0  0
    0.2100   13.3980   -1.2890 C   0  0  0  0  0  0  0  0  0  0  0  0
   -1.3450   15.1780   -1.3830 C   0  0  2  0  0  0  0  0  0  0  0  0
   -4.0360   15.4320   -1.1530 C   0  0  0  0  0  0  0  0  0  0  0  0
   -4.7870   15.6730   -0.0710 C   0  0  0  0  0  0  0  0  0  0  0  0
   -1.1170   15.2580   -2.8730 N   0  0  0  0  0  0  0  0  0  0  0  0
   -1.0320   14.0400   -3.7200 C   0  0  2  0  0  0  0  0  0  0  0  0
   -2.2160   16.0550   -3.4750 C   0  0  0  0  0  0  0  0  0  0  0  0
    0.3310   13.3970   -4.0040 C   0  0  0  0  0  0  0  0  0  0  0  0
   -1.4300   14.5160   -5.1040 C   0  0  0  0  0  0  0  0  0  0  0  0
   -2.4850   15.5540   -4.8770 C   0  0  0  0  0  0  0  0  0  0  0  0
    1.7190   13.7910   -3.4600 C   0  0  0  0  0  0  0  0  0  0  0  0
    0.6400   11.9580   -3.5480 C   0  0  0  0  0  0  0  0  0  0  0  0
    2.1040   12.3660   -3.8080 C   0  0  0  0  0  0  0  0  0  0  0  0
  1  2  1  0
  1  3  1  0
  3  4  1  0
  4  5  2  0
  4  6  1  0
  6  7  1  0
  7  8  1  0
  7  9  1  0
  8 10  1  0
  9 11  1  0
  9 12  1  6
 10 13  1  0
 10 14  1  0
 11 14  1  0
 11 15  1  6
 12 16  1  0
 15 16  2  0
 14 17  1  6
 17 18  1  0
 17 19  1  0
 18 20  1  6
 18 21  1  0
 19 22  1  0
 21 22  1  0
 20 23  1  0
 20 24  1  0
 23 25  1  0
 24 25  1  0
M  END
