mac-x0306-mac-x0182
     RDKit          3D

 25 28  0  0  0  0  0  0  0  0999 V2000
    1.7120   11.9090   -6.8350 O   0  0  0  0  0  0  0  0  0  0  0  0
    0.6950   11.6530   -6.2290 C   0  0  0  0  0  0  0  0  0  0  0  0
    0.2640   12.2790   -5.0860 N   0  0  0  0  0  0  0  0  0  0  0  0
   -0.2480   10.5770   -6.6240 C   0  0  0  0  0  0  0  0  0  0  0  0
   -0.7660   11.2640   -4.2230 S   0  0  2  0  0  0  0  0  0  0  0  0
   -1.1280   10.2550   -5.5940 C   0  0  0  0  0  0  0  0  0  0  0  0
   -0.3160    9.9150   -7.8420 C   0  0  0  0  0  0  0  0  0  0  0  0
   -1.9950   12.1180   -3.8500 N   0  0  0  0  0  0  0  0  0  0  0  0
    0.0680   10.5180   -3.3140 O   0  0  0  0  0  0  0  0  0  0  0  0
   -2.1000    9.2820   -5.7140 C   0  0  0  0  0  0  0  0  0  0  0  0
   -1.2940    8.9230   -7.9930 C   0  0  0  0  0  0  0  0  0  0  0  0
   -2.0130   13.6050   -3.9790 C   0  0  0  0  0  0  0  0  0  0  0  0
   -2.1770    8.6090   -6.9380 C   0  0  0  0  0  0  0  0  0  0  0  0
   -1.7220   14.3230   -2.6340 C   0  0  0  0  0  0  0  0  0  0  0  0
   -2.9440   14.7440   -1.8740 N   0  0  0  0  0  0  0  0  0  0  0  0
   -4.1180   15.2110   -2.4680 C   0  0  0  0  0  0  0  0  0  0  0  0
   -2.9040   14.8770   -0.4820 C   0  0  0  0  0  0  0  0  0  0  0  0
   -5.3020   15.1070   -1.8270 C   0  0  0  0  0  0  0  0  0  0  0  0
   -4.0150   14.7540    0.2600 C   0  0  0  0  0  0  0  0  0  0  0  0
   -5.3160   14.4470   -0.4500 C   0  0  0  0  0  0  0  0  0  0  0  0
   -6.5830   14.5980    0.3660 C   0  0  0  0  0  0  0  0  0  0  0  0
   -6.6040   14.5170    1.7470 N   0  0  0  0  0  0  0  0  0  0  0  0
   -7.8030   14.8030   -0.0940 N   0  0  0  0  0  0  0  0  0  0  0  0
   -8.6170   14.8560    1.0050 C   0  0  0  0  0  0  0  0  0  0  0  0
   -7.8940   14.6830    2.1570 C   0  0  0  0  0  0  0  0  0  0  0  0
  1  2  2  0
  2  3  1  0
  2  4  1  0
  5  3  1  6
  4  6  2  0
  5  6  1  0
  4  7  1  0
  5  8  2  0
  5  9  2  0
  6 10  1  0
  7 11  2  0
  8 12  1  0
 10 13  2  0
 11 13  1  0
 12 14  1  0
 14 15  1  0
 15 16  1  0
 15 17  1  0
 16 18  2  0
 17 19  2  0
 18 20  1  0
 19 20  1  0
 20 21  1  0
 21 22  1  0
 21 23  2  0
 23 24  1  0
 22 25  1  0
 24 25  2  0
M  END
