mac-x0348-diamond-x0950_1_A
     RDKit          3D

 17 18  0  0  0  0  0  0  0  0999 V2000
    0.3160   18.7220   -6.1460 C   0  0  0  0  0  0  0  0  0  0  0  0
   -0.0810   17.5220   -5.4620 N   0  0  0  0  0  0  0  0  0  0  0  0
    0.7400   16.8180   -4.6450 C   0  0  0  0  0  0  0  0  0  0  0  0
   -1.3070   16.9130   -5.5220 C   0  0  0  0  0  0  0  0  0  0  0  0
    0.0810   15.7240   -4.1640 C   0  0  0  0  0  0  0  0  0  0  0  0
   -1.2260   15.7740   -4.7150 C   0  0  0  0  0  0  0  0  0  0  0  0
   -2.4800   17.2430   -6.2080 C   0  0  0  0  0  0  0  0  0  0  0  0
    0.6560   14.6920   -3.2400 C   0  0  0  0  0  0  0  0  0  0  0  0
   -2.3470   14.9410   -4.5910 C   0  0  0  0  0  0  0  0  0  0  0  0
   -3.5700   16.3750   -6.0490 C   0  0  0  0  0  0  0  0  0  0  0  0
    0.4190   13.2360   -3.6770 C   0  0  2  0  0  0  0  0  0  0  0  0
   -3.5100   15.2540   -5.2650 C   0  0  0  0  0  0  0  0  0  0  0  0
    0.4170   12.3060   -2.4780 C   0  0  0  0  0  0  0  0  0  0  0  0
    1.3830   12.7720   -4.7700 C   0  0  0  0  0  0  0  0  0  0  0  0
    0.6290   12.6150   -1.3150 O   0  0  0  0  0  0  0  0  0  0  0  0
    0.1370   11.0200   -2.7780 O   0  0  0  0  0  0  0  0  0  0  0  0
    0.7980   11.6920   -5.4990 O   0  0  0  0  0  0  0  0  0  0  0  0
  1  2  1  0
  2  3  1  0
  2  4  1  0
  3  5  2  0
  4  6  2  0
  5  6  1  0
  4  7  1  0
  5  8  1  0
  6  9  1  0
  7 10  2  0
 11  8  1  1
  9 12  2  0
 10 12  1  0
 11 13  1  0
 11 14  1  0
 13 15  2  0
 13 16  1  0
 14 17  1  0
M  END
