mac-x0306-mac-x0319
     RDKit          3D

 23 25  0  0  0  0  0  0  0  0999 V2000
    0.5340   10.4630   -2.5170 O   0  0  0  0  0  0  0  0  0  0  0  0
    0.8240   11.7960   -2.4300 C   0  0  0  0  0  0  0  0  0  0  0  0
    0.6210   12.4010   -1.3850 O   0  0  0  0  0  0  0  0  0  0  0  0
    1.3840   12.4350   -3.6980 C   0  0  0  0  0  0  0  0  0  0  0  0
    0.7030   13.7440   -3.9520 C   0  0  0  0  0  0  0  0  0  0  0  0
    1.3650   14.9460   -4.2560 C   0  0  0  0  0  0  0  0  0  0  0  0
   -0.6840   13.7360   -3.8650 C   0  0  0  0  0  0  0  0  0  0  0  0
    0.6090   16.1020   -4.4650 C   0  0  0  0  0  0  0  0  0  0  0  0
   -1.4380   14.8820   -4.0680 C   0  0  0  0  0  0  0  0  0  0  0  0
    1.2420   17.2710   -4.7580 O   0  0  0  0  0  0  0  0  0  0  0  0
   -2.9400   14.8090   -3.9580 C   0  0  0  0  0  0  0  0  0  0  0  0
   -0.7800   16.0790   -4.3760 C   0  0  0  0  0  0  0  0  0  0  0  0
   -3.5860   15.1050   -2.6500 N   0  0  0  0  0  0  0  0  0  0  0  0
   -4.9480   15.1720   -2.7940 C   0  0  0  0  0  0  0  0  0  0  0  0
   -3.1410   14.6850   -1.3740 C   0  0  0  0  0  0  0  0  0  0  0  0
   -5.8040   15.3010   -1.8070 C   0  0  0  0  0  0  0  0  0  0  0  0
   -3.9330   14.7830   -0.2640 C   0  0  0  0  0  0  0  0  0  0  0  0
   -5.3300   15.3720   -0.3880 C   0  0  0  0  0  0  0  0  0  0  0  0
   -6.4790   14.8710    0.4760 C   0  0  0  0  0  0  0  0  0  0  0  0
   -6.4040   14.5440    1.8160 N   0  0  0  0  0  0  0  0  0  0  0  0
   -7.7230   14.7010    0.0450 N   0  0  0  0  0  0  0  0  0  0  0  0
   -8.4490   14.2690    1.1140 C   0  0  0  0  0  0  0  0  0  0  0  0
   -7.6530   14.1640    2.2230 C   0  0  0  0  0  0  0  0  0  0  0  0
  1  2  1  0
  2  3  2  0
  2  4  1  0
  4  5  1  0
  5  6  2  0
  5  7  1  0
  6  8  1  0
  7  9  2  0
  8 10  1  0
  9 11  1  0
  8 12  2  0
  9 12  1  0
 11 13  1  0
 13 14  1  0
 13 15  1  0
 14 16  2  0
 15 17  2  0
 16 18  1  0
 17 18  1  0
 18 19  1  0
 19 20  1  0
 19 21  2  0
 21 22  1  0
 20 23  1  0
 22 23  2  0
M  END
