mac-x0433-mac-x0412
     RDKit          3D

 13 14  0  0  0  0  0  0  0  0999 V2000
   -3.9720   15.7000   -0.1640 C   0  0  0  0  0  0  0  0  0  0  0  0
   -4.5120   14.5480    0.6870 C   0  0  0  0  0  0  0  0  0  0  0  0
   -3.3600   13.6440    0.9820 C   0  0  0  0  0  0  0  0  0  0  0  0
   -5.6540   13.7210    0.0320 C   0  0  2  0  0  0  0  0  0  0  0  0
   -4.8830   15.1010    2.0140 C   0  0  0  0  0  0  0  0  0  0  0  0
   -5.6340   13.6820   -1.4500 N   0  0  0  0  0  0  0  0  0  0  0  0
   -7.0660   14.2730    0.3340 C   0  0  2  0  0  0  0  0  0  0  0  0
   -6.1380   15.1210    2.4440 C   0  0  0  0  0  0  0  0  0  0  0  0
   -8.1780   13.2610    0.1220 C   0  0  0  0  0  0  0  0  0  0  0  0
   -6.6770   14.5670   -1.8710 C   0  0  1  0  0  0  0  0  0  0  0  0
   -7.1600   15.2730   -0.7260 N   0  0  0  0  0  0  0  0  0  0  0  0
   -7.2020   14.6890    1.7140 N   0  0  0  0  0  0  0  0  0  0  0  0
   -6.0500   15.5150   -2.6780 N   0  0  0  0  0  0  0  0  0  0  0  0
  2  1  1  0
  2  3  1  0
  2  4  1  0
  2  5  1  0
  4  6  1  6
  4  7  1  0
  5  8  2  0
  7  9  1  6
  6 10  1  0
  7 11  1  0
 10 11  1  0
  7 12  1  0
  8 12  1  0
 10 13  1  6
M  END
