mac-x0132-diamond-x0591_0_A
     RDKit          3D

 19 20  0  0  0  0  0  0  0  0999 V2000
   -4.2160   15.6760    2.1960 N   0  0  0  0  0  0  0  0  0  0  0  0
   -5.1050   15.1640    1.2560 C   0  0  0  0  0  0  0  0  0  0  0  0
   -6.3670   14.8370    1.6180 N   0  0  0  0  0  0  0  0  0  0  0  0
   -4.7120   14.9970   -0.0410 C   0  0  0  0  0  0  0  0  0  0  0  0
   -5.5900   14.4930   -1.0100 C   0  0  0  0  0  0  0  0  0  0  0  0
   -7.2150   14.3610    0.7210 C   0  0  0  0  0  0  0  0  0  0  0  0
   -3.4840   15.3220   -0.3610 C   0  0  0  0  0  0  0  0  0  0  0  0
   -6.8260   14.2000   -0.5570 N   0  0  0  0  0  0  0  0  0  0  0  0
   -5.3950   14.2400   -2.3960 C   0  0  0  0  0  0  0  0  0  0  0  0
   -3.1640   15.1480   -1.6330 C   0  0  0  0  0  0  0  0  0  0  0  0
   -6.7710   13.8770   -1.9200 C   0  0  0  0  0  0  0  0  0  0  0  0
   -4.0490   14.6530   -2.5830 C   0  0  0  0  0  0  0  0  0  0  0  0
   -6.8370   12.8960   -1.0110 N   0  0  0  0  0  0  0  0  0  0  0  0
   -7.6820   14.5590   -2.4600 O   0  0  0  0  0  0  0  0  0  0  0  0
   -3.3720   14.5330   -4.1940 S   0  0  0  0  0  0  0  0  0  0  0  0
   -6.8850   11.8890   -0.0100 C   0  0  0  0  0  0  0  0  0  0  0  0
   -1.8860   15.4460   -4.3190 N   0  0  0  0  0  0  0  0  0  0  0  0
   -2.9720   13.0810   -4.4230 O   0  0  0  0  0  0  0  0  0  0  0  0
   -4.2560   15.0300   -5.2950 O   0  0  0  0  0  0  0  0  0  0  0  0
  1  2  1  0
  2  3  2  0
  2  4  1  0
  4  5  2  0
  3  6  1  0
  4  7  1  0
  5  8  1  0
  6  8  2  0
  5  9  1  0
  7 10  2  0
  9 11  1  0
  9 12  2  0
 10 12  1  0
 11 13  1  0
 11 14  2  0
 12 15  1  0
 13 16  1  0
 15 17  1  0
 15 18  2  0
 15 19  2  0
M  END
