mac-x0321-mac-x0346
     RDKit          3D

 14 14  0  0  0  0  0  0  0  0999 V2000
   -4.5080   15.3350    1.4950 Cl  0  0  0  0  0  0  0  0  0  0  0  0
   -4.4780   15.1300   -0.2130 C   0  0  0  0  0  0  0  0  0  0  0  0
   -3.2020   15.0130   -0.7780 C   0  0  0  0  0  0  0  0  0  0  0  0
   -5.6140   15.0710   -1.0450 C   0  0  0  0  0  0  0  0  0  0  0  0
   -7.0630   15.1400   -0.7280 C   0  0  0  0  0  0  0  0  0  0  0  0
   -3.0520   14.8470   -2.1610 C   0  0  0  0  0  0  0  0  0  0  0  0
   -5.4280   14.9160   -2.4190 C   0  0  0  0  0  0  0  0  0  0  0  0
   -1.7050   14.7120   -2.7550 C   0  0  0  0  0  0  0  0  0  0  0  0
   -7.5490   14.9060    0.5350 N   0  0  0  0  0  0  0  0  0  0  0  0
   -7.8300   15.3830   -1.6470 O   0  0  0  0  0  0  0  0  0  0  0  0
   -4.1680   14.8070   -2.9740 C   0  0  0  0  0  0  0  0  0  0  0  0
   -0.7140   14.6900   -1.8510 O   0  0  0  0  0  0  0  0  0  0  0  0
   -1.4880   14.6170   -3.9450 O   0  0  0  0  0  0  0  0  0  0  0  0
   -7.1680   13.7110    1.1720 O   0  0  0  0  0  0  0  0  0  0  0  0
  1  2  1  0
  2  3  2  0
  2  4  1  0
  4  5  1  0
  3  6  1  0
  4  7  2  0
  6  8  1  0
  5  9  1  0
  5 10  2  0
  6 11  2  0
  7 11  1  0
  8 12  1  0
  8 13  2  0
  9 14  1  0
M  END
