mac-x0305-mac-x0472
     RDKit          3D

 19 20  0  0  0  0  0  0  0  0999 V2000
   -0.4200   12.8640   -1.1670 O   0  0  0  0  0  0  0  0  0  0  0  0
   -1.1240   14.0540   -1.6590 C   0  0  0  0  0  0  0  0  0  0  0  0
   -0.1020   14.9840   -2.0830 O   0  0  0  0  0  0  0  0  0  0  0  0
   -2.5220   13.8260   -2.9440 S   0  0  0  0  0  0  0  0  0  0  0  0
   -2.1270   14.6160   -0.7080 C   0  0  0  0  0  0  0  0  0  0  0  0
   -3.3640   15.0280   -2.9980 O   0  0  0  0  0  0  0  0  0  0  0  0
   -1.9260   13.4440   -4.2060 O   0  0  0  0  0  0  0  0  0  0  0  0
   -2.1270   14.7530    0.6920 C   0  0  0  0  0  0  0  0  0  0  0  0
   -3.1860   15.0170   -1.4510 N   0  0  0  0  0  0  0  0  0  0  0  0
   -3.6090   12.4920   -2.4550 C   0  0  0  0  0  0  0  0  0  0  0  0
   -1.1150   14.3990    1.5430 O   0  0  0  0  0  0  0  0  0  0  0  0
   -3.2690   15.2930    1.2570 C   0  0  0  0  0  0  0  0  0  0  0  0
   -4.2520   15.5360   -0.8780 C   0  0  0  0  0  0  0  0  0  0  0  0
   -3.2140   11.1880   -2.7390 C   0  0  0  0  0  0  0  0  0  0  0  0
   -4.8350   12.7360   -1.8040 C   0  0  0  0  0  0  0  0  0  0  0  0
   -4.3320   15.6840    0.4690 C   0  0  0  0  0  0  0  0  0  0  0  0
   -4.0310   10.1250   -2.3820 C   0  0  0  0  0  0  0  0  0  0  0  0
   -5.6510   11.6580   -1.4460 C   0  0  0  0  0  0  0  0  0  0  0  0
   -5.2510   10.3550   -1.7360 C   0  0  0  0  0  0  0  0  0  0  0  0
  2  1  1  0
  2  3  1  0
  2  4  1  0
  2  5  1  0
  4  6  2  0
  4  7  2  0
  5  8  2  0
  5  9  1  0
  4 10  1  0
  8 11  1  0
  8 12  1  0
  9 13  2  0
 10 14  2  0
 10 15  1  0
 12 16  2  0
 13 16  1  0
 14 17  1  0
 15 18  2  0
 17 19  2  0
 18 19  1  0
M  END
