mac-x0381-diamond-x0685_0_A
     RDKit          3D

 22 24  0  0  0  0  0  0  0  0999 V2000
   -7.8800   13.0600    3.4980 N   0  0  0  0  0  0  0  0  0  0  0  0
   -7.7170   14.4910    3.4560 C   0  0  0  0  0  0  0  0  0  0  0  0
   -7.6020   14.6860    4.8750 N   0  0  0  0  0  0  0  0  0  0  0  0
   -6.5260   15.0640    2.8030 N   0  0  0  0  0  0  0  0  0  0  0  0
   -9.1020   15.1320    3.0700 C   0  0  0  0  0  0  0  0  0  0  0  0
   -9.3870   15.8650    1.9010 C   0  0  0  0  0  0  0  0  0  0  0  0
  -10.1870   14.9620    3.9730 C   0  0  0  0  0  0  0  0  0  0  0  0
   -5.9290   14.9850    1.5120 C   0  0  0  0  0  0  0  0  0  0  0  0
  -10.6670   16.4040    1.6370 C   0  0  0  0  0  0  0  0  0  0  0  0
  -11.4640   15.4860    3.7230 C   0  0  0  0  0  0  0  0  0  0  0  0
   -4.5450   15.2530    1.4950 C   0  0  0  0  0  0  0  0  0  0  0  0
   -6.5720   14.7080    0.3550 N   0  0  0  0  0  0  0  0  0  0  0  0
  -11.7210   16.2090    2.5570 C   0  0  0  0  0  0  0  0  0  0  0  0
  -10.9190   17.1350    0.4650 C   0  0  0  0  0  0  0  0  0  0  0  0
   -3.8160   15.2530    0.3080 C   0  0  0  0  0  0  0  0  0  0  0  0
   -5.8410   14.7200   -0.8020 C   0  0  0  0  0  0  0  0  0  0  0  0
  -12.9930   16.7380    2.2830 C   0  0  0  0  0  0  0  0  0  0  0  0
  -12.1880   17.6600    0.2080 C   0  0  0  0  0  0  0  0  0  0  0  0
   -4.4760   14.9890   -0.8800 C   0  0  0  0  0  0  0  0  0  0  0  0
   -3.7850   14.9920   -2.1340 C   0  0  0  0  0  0  0  0  0  0  0  0
  -13.2250   17.4600    1.1140 C   0  0  0  0  0  0  0  0  0  0  0  0
   -3.2290   15.0140   -3.1550 N   0  0  0  0  0  0  0  0  0  0  0  0
  2  1  1  0
  2  3  1  0
  2  4  1  0
  2  5  1  0
  5  6  2  0
  5  7  1  0
  4  8  1  0
  6  9  1  0
  7 10  2  0
  8 11  2  0
  8 12  1  0
  9 13  2  0
 10 13  1  0
  9 14  1  0
 11 15  1  0
 12 16  2  0
 13 17  1  0
 14 18  2  0
 15 19  2  0
 16 19  1  0
 19 20  1  0
 17 21  2  0
 18 21  1  0
 20 22  3  0
M  END
