mac-x0398-diamond-x0926_0_A
     RDKit          3D

 11 11  0  0  0  0  0  0  0  0999 V2000
   -6.3250   14.8750    2.1010 N   0  0  0  0  0  0  0  0  0  0  0  0
   -5.5890   14.9400    0.9120 C   0  0  0  0  0  0  0  0  0  0  0  0
   -4.1900   14.9060    0.9340 C   0  0  0  0  0  0  0  0  0  0  0  0
   -6.2540   15.0410   -0.3090 C   0  0  0  0  0  0  0  0  0  0  0  0
   -5.5380   15.1050   -1.4990 C   0  0  0  0  0  0  0  0  0  0  0  0
   -3.4680   14.9670   -0.2610 C   0  0  0  0  0  0  0  0  0  0  0  0
   -6.2140   15.2030   -2.6800 O   0  0  0  0  0  0  0  0  0  0  0  0
   -4.1480   15.0650   -1.4860 C   0  0  0  0  0  0  0  0  0  0  0  0
   -3.3580   15.1180   -2.7290 C   0  0  0  0  0  0  0  0  0  0  0  0
   -3.8290   15.1500   -3.8520 O   0  0  0  0  0  0  0  0  0  0  0  0
   -2.0340   15.1050   -2.5330 O   0  0  0  0  0  0  0  0  0  0  0  0
  1  2  1  0
  2  3  2  0
  2  4  1  0
  4  5  2  0
  3  6  1  0
  5  7  1  0
  5  8  1  0
  6  8  2  0
  8  9  1  0
  9 10  2  0
  9 11  1  0
M  END
