mac-x0178-diamond-x0524_0_A
     RDKit          3D

 33 35  0  0  0  0  0  0  0  0999 V2000
   -0.3450   18.1800   -6.4770 N   0  0  0  0  0  0  0  0  0  0  0  0
   -1.6930   17.5960   -5.6930 S   0  0  0  0  0  0  0  0  0  0  0  0
   -2.6160   17.1580   -6.7140 O   0  0  0  0  0  0  0  0  0  0  0  0
   -2.0310   18.6090   -4.7240 O   0  0  0  0  0  0  0  0  0  0  0  0
   -1.0140   16.2220   -4.8110 C   0  0  0  0  0  0  0  0  0  0  0  0
    0.2060   16.3810   -4.1490 C   0  0  0  0  0  0  0  0  0  0  0  0
   -1.6960   15.0050   -4.7770 C   0  0  0  0  0  0  0  0  0  0  0  0
    0.7460   15.3140   -3.4310 C   0  0  0  0  0  0  0  0  0  0  0  0
   -1.1480   13.9430   -4.0570 C   0  0  0  0  0  0  0  0  0  0  0  0
    0.0690   14.0980   -3.3780 C   0  0  0  0  0  0  0  0  0  0  0  0
    0.5910   12.9440   -2.6150 C   0  0  0  0  0  0  0  0  0  0  0  0
    1.5850   12.9640   -1.9140 O   0  0  0  0  0  0  0  0  0  0  0  0
   -0.2140   11.9010   -2.8180 O   0  0  0  0  0  0  0  0  0  0  0  0
    0.3380   10.9400   -3.6710 C   0  0  0  0  0  0  0  0  0  0  0  0
   -0.5640   10.5650   -4.8410 C   0  0  0  0  0  0  0  0  0  0  0  0
   -0.2900   11.3600   -6.1230 C   0  0  0  0  0  0  0  0  0  0  0  0
   -0.0700   10.4050   -7.1990 N   0  0  0  0  0  0  0  0  0  0  0  0
   -0.8660    9.3960   -7.3270 C   0  0  0  0  0  0  0  0  0  0  0  0
   -0.6090    8.5110   -8.3420 N   0  0  0  0  0  0  0  0  0  0  0  0
   -2.0610    9.1240   -6.4290 C   0  0  0  0  0  0  0  0  0  0  0  0
    0.5020    8.5270   -9.2180 C   0  0  0  0  0  0  0  0  0  0  0  0
    1.5960    7.6750   -9.0870 C   0  0  0  0  0  0  0  0  0  0  0  0
    0.5010    9.4390  -10.2740 C   0  0  0  0  0  0  0  0  0  0  0  0
    2.6630    7.7320   -9.9900 C   0  0  0  0  0  0  0  0  0  0  0  0
    1.5630    9.4980  -11.1780 C   0  0  0  0  0  0  0  0  0  0  0  0
    2.6630    8.6390  -11.0470 C   0  0  0  0  0  0  0  0  0  0  0  0
    3.7230    8.7120  -11.9750 N   0  0  0  0  0  0  0  0  0  0  0  0
    3.9650    9.5940  -13.0520 C   0  0  0  0  0  0  0  0  0  0  0  0
    3.2180   10.7520  -13.3030 C   0  0  0  0  0  0  0  0  0  0  0  0
    5.0220    9.2840  -13.9170 C   0  0  0  0  0  0  0  0  0  0  0  0
    3.5220   11.5750  -14.3890 C   0  0  0  0  0  0  0  0  0  0  0  0
    5.3270   10.1050  -15.0050 C   0  0  0  0  0  0  0  0  0  0  0  0
    4.5730   11.2530  -15.2380 C   0  0  0  0  0  0  0  0  0  0  0  0
  2  1  1  0
  2  3  2  0
  2  4  2  0
  2  5  1  0
  5  6  2  0
  5  7  1  0
  6  8  1  0
  7  9  2  0
  8 10  2  0
  9 10  1  0
 10 11  1  0
 11 12  2  0
 11 13  1  0
 13 14  1  0
 14 15  1  0
 15 16  1  0
 16 17  1  0
 17 18  2  3
 18 19  1  0
 18 20  1  0
 19 21  1  0
 21 22  2  0
 21 23  1  0
 22 24  1  0
 23 25  2  0
 24 26  2  0
 25 26  1  0
 26 27  1  0
 27 28  1  0
 28 29  2  0
 28 30  1  0
 29 31  1  0
 30 32  2  0
 31 33  2  0
 32 33  1  0
M  END
