mac-x0453-diamond-x1018_0_A
     RDKit          3D

 13 14  0  0  0  0  0  0  0  0999 V2000
   -6.4000   13.3580    2.3500 N   0  0  0  0  0  0  0  0  0  0  0  0
   -5.4000   12.4980    1.6930 C   0  0  0  0  0  0  0  0  0  0  0  0
   -4.8130   12.9850    0.3420 C   0  0  0  0  0  0  0  0  0  0  0  0
   -4.3130   14.4260    0.3080 C   0  0  1  0  0  0  0  0  0  0  0  0
   -2.7960   14.5660    0.0710 C   0  0  0  0  0  0  0  0  0  0  0  0
   -4.8990   15.1000   -0.8360 N   0  0  0  0  0  0  0  0  0  0  0  0
   -4.8240   14.9190    1.5750 C   0  0  0  0  0  0  0  0  0  0  0  0
   -2.6550   14.6940   -1.3980 N   0  0  0  0  0  0  0  0  0  0  0  0
   -4.0120   14.8230   -1.9640 C   0  0  0  0  0  0  0  0  0  0  0  0
   -6.3130   14.7290   -0.9110 N   0  0  0  0  0  0  0  0  0  0  0  0
   -6.1490   15.0350    1.6230 C   0  0  0  0  0  0  0  0  0  0  0  0
   -7.0240   14.7610    0.3950 C   0  0  2  0  0  0  0  0  0  0  0  0
   -7.9900   13.2880    0.5420 Cl  0  0  0  0  0  0  0  0  0  0  0  0
  1  2  1  0
  2  3  1  0
  4  3  1  6
  4  5  1  0
  4  6  1  0
  4  7  1  0
  5  8  1  0
  6  9  1  0
  8  9  1  0
  6 10  1  0
  7 11  2  0
 10 12  1  0
 11 12  1  0
 12 13  1  1
M  END
