mac-x0451-mac-x0588
     RDKit          3D

 21 24  0  0  0  0  0  0  0  0999 V2000
   -6.2650   14.5330    2.9320 N   0  0  0  0  0  0  0  0  0  0  0  0
   -5.4010   14.5960    1.8980 C   0  0  0  0  0  0  0  0  0  0  0  0
   -5.8330   14.7760    0.6950 N   0  0  0  0  0  0  0  0  0  0  0  0
   -3.6780   14.4580    2.0130 S   0  0  0  0  0  0  0  0  0  0  0  0
   -4.7670   14.8210   -0.1770 C   0  0  0  0  0  0  0  0  0  0  0  0
   -3.5040   14.6700    0.3290 C   0  0  0  0  0  0  0  0  0  0  0  0
   -5.0640   15.0450   -1.5790 C   0  0  1  0  0  0  0  0  0  0  0  0
   -2.2050   14.7060   -0.4980 C   0  0  1  0  0  0  0  0  0  0  0  0
   -6.1530   15.9780   -1.4020 N   0  0  0  0  0  0  0  0  0  0  0  0
   -3.8150   15.5970   -2.2820 C   0  0  0  0  0  0  0  0  0  0  0  0
   -2.5650   14.7510   -2.0560 C   0  0  1  0  0  0  0  0  0  0  0  0
   -1.3760   15.8170    0.0710 N   0  0  0  0  0  0  0  0  0  0  0  0
   -1.2310   13.5500   -0.3190 C   0  0  0  0  0  0  0  0  0  0  0  0
   -1.4130   14.9880   -2.9480 O   0  0  0  0  0  0  0  0  0  0  0  0
    0.0790   14.1980   -0.3720 N   0  0  0  0  0  0  0  0  0  0  0  0
   -0.2100   15.1610    0.6450 C   0  0  0  0  0  0  0  0  0  0  0  0
   -0.8770   16.2920   -3.3060 C   0  0  2  0  0  0  0  0  0  0  0  0
   -1.7910   17.1160   -4.0790 O   0  0  0  0  0  0  0  0  0  0  0  0
    0.3070   16.0850   -4.2610 C   0  0  0  0  0  0  0  0  0  0  0  0
    0.4240   17.4370   -4.9380 C   0  0  0  0  0  0  0  0  0  0  0  0
   -1.0270   17.8680   -5.0400 C   0  0  0  0  0  0  0  0  0  0  0  0
  1  2  1  0
  2  3  2  0
  2  4  1  0
  3  5  1  0
  4  6  1  0
  5  6  2  0
  5  7  1  0
  6  8  1  0
  7  9  1  1
  7 10  1  0
  8 11  1  0
 10 11  1  0
  8 12  1  0
  8 13  1  6
 11 14  1  6
 13 15  1  0
 12 16  1  0
 15 16  1  0
 17 14  1  6
 17 18  1  0
 17 19  1  0
 19 20  1  0
 18 21  1  0
 20 21  1  0
M  END
