mac-x0116-mac-x0188
     RDKit          3D

 24 27  0  0  0  0  0  0  0  0999 V2000
   -5.8930   14.7750    1.3580 C   0  0  0  0  0  0  0  0  0  0  0  0
   -4.4910   15.1690    1.2010 N   0  0  0  0  0  0  0  0  0  0  0  0
   -3.6160   14.9500    0.1360 C   0  0  0  0  0  0  0  0  0  0  0  0
   -6.2660   13.3380    1.4820 C   0  0  0  0  0  0  0  0  0  0  0  0
   -6.2010   12.5730    0.3540 O   0  0  0  0  0  0  0  0  0  0  0  0
   -6.6980   12.5740    2.5440 C   0  0  0  0  0  0  0  0  0  0  0  0
   -6.9140   11.2810    2.0460 C   0  0  0  0  0  0  0  0  0  0  0  0
   -6.5980   11.3280    0.7100 C   0  0  0  0  0  0  0  0  0  0  0  0
   -4.0640   15.1570   -1.1700 N   0  0  0  0  0  0  0  0  0  0  0  0
   -2.3610   14.5790    0.3770 C   0  0  0  0  0  0  0  0  0  0  0  0
   -3.2860   14.9170   -2.2230 C   0  0  0  0  0  0  0  0  0  0  0  0
   -1.4380   14.3060   -0.7220 C   0  0  0  0  0  0  0  0  0  0  0  0
   -1.6810   14.3920    1.5600 N   0  0  0  0  0  0  0  0  0  0  0  0
   -1.8610   14.3250   -2.1860 C   0  0  1  0  0  0  0  0  0  0  0  0
   -0.2650   14.0670   -0.2070 N   0  0  0  0  0  0  0  0  0  0  0  0
   -0.4820   14.1280    1.1650 C   0  0  0  0  0  0  0  0  0  0  0  0
   -2.0470   12.9790   -2.8010 N   0  0  0  0  0  0  0  0  0  0  0  0
   -0.6430   14.7740   -3.0330 C   0  0  1  0  0  0  0  0  0  0  0  0
    0.6460   14.4380   -2.3360 C   0  0  0  0  0  0  0  0  0  0  0  0
   -0.6970   14.1020   -4.3960 C   0  0  2  0  0  0  0  0  0  0  0  0
   -1.6680   13.0700   -4.2320 O   0  0  0  0  0  0  0  0  0  0  0  0
    0.5820   13.4720   -4.9770 C   0  0  0  0  0  0  0  0  0  0  0  0
    1.6260   15.1180   -2.2130 O   0  0  0  0  0  0  0  0  0  0  0  0
    0.6260   13.1960   -1.8110 O   0  0  0  0  0  0  0  0  0  0  0  0
  1  2  1  0
  2  3  1  0
  1  4  1  0
  4  5  1  0
  4  6  2  0
  6  7  1  0
  5  8  1  0
  7  8  2  0
  3  9  1  0
  3 10  2  0
  9 11  2  0
 10 12  1  0
 10 13  1  0
 14 11  1  1
 12 14  1  0
 12 15  2  0
 13 16  2  0
 15 16  1  0
 14 17  1  0
 14 18  1  0
 18 19  1  1
 18 20  1  0
 17 21  1  0
 20 21  1  0
 20 22  1  1
 19 23  2  0
 19 24  1  0
M  END
