mac-x0441-mac-x0226
     RDKit          3D

 21 23  0  0  0  0  0  0  0  0999 V2000
    0.5180   10.9120   -3.3050 O   0  0  0  0  0  0  0  0  0  0  0  0
    0.6390   12.2330   -3.5500 C   0  0  0  0  0  0  0  0  0  0  0  0
    0.9650   12.9870   -2.6460 O   0  0  0  0  0  0  0  0  0  0  0  0
    0.3350   12.6390   -4.9860 C   0  0  0  0  0  0  0  0  0  0  0  0
    0.1780   11.5160   -5.9350 N   0  0  0  0  0  0  0  0  0  0  0  0
    1.2480   11.4960   -6.9910 N   0  0  0  0  0  0  0  0  0  0  0  0
   -1.0960   11.3930   -6.6660 C   0  0  1  0  0  0  0  0  0  0  0  0
    0.6550   10.6320   -8.1050 C   0  0  1  0  0  0  0  0  0  0  0  0
   -0.7540   10.2210   -7.6510 C   0  0  1  0  0  0  0  0  0  0  0  0
   -2.4300   11.1640   -6.0000 C   0  0  0  0  0  0  0  0  0  0  0  0
    0.7670   10.9850   -9.6240 C   0  0  0  0  0  0  0  0  0  0  0  0
   -0.9920    8.8870   -6.9610 C   0  0  0  0  0  0  0  0  0  0  0  0
   -2.8240    9.9000   -5.7470 C   0  0  0  0  0  0  0  0  0  0  0  0
   -1.3870    9.9450   -9.0130 C   0  0  0  0  0  0  0  0  0  0  0  0
    1.2560    9.3190   -8.3510 C   0  0  0  0  0  0  0  0  0  0  0  0
    0.9600    9.7850  -10.2260 F   0  0  0  0  0  0  0  0  0  0  0  0
   -0.3300   11.5180  -10.1820 F   0  0  0  0  0  0  0  0  0  0  0  0
    1.8410   11.6030  -10.0960 F   0  0  0  0  0  0  0  0  0  0  0  0
   -1.9820    8.7650   -6.0740 C   0  0  0  0  0  0  0  0  0  0  0  0
   -0.6770    9.1070   -9.7940 C   0  0  0  0  0  0  0  0  0  0  0  0
    0.5680    8.5720   -9.2340 C   0  0  0  0  0  0  0  0  0  0  0  0
  1  2  1  0
  2  3  2  0
  2  4  1  0
  4  5  1  0
  5  6  1  0
  5  7  1  0
  6  8  1  0
  7  9  1  0
  8  9  1  0
  7 10  1  1
  8 11  1  6
  9 12  1  1
 10 13  2  0
  9 14  1  0
  8 15  1  0
 11 16  1  0
 11 17  1  0
 11 18  1  0
 12 19  2  0
 13 19  1  0
 14 20  2  0
 15 21  2  0
 20 21  1  0
M  END
