mac-x0226-mac-x0277
     RDKit          3D

 24 26  0  0  0  0  0  0  0  0999 V2000
    0.5660   12.3840   -2.2450 N   0  0  0  0  0  0  0  0  0  0  0  0
    0.2150   11.2110   -2.7520 C   0  0  0  0  0  0  0  0  0  0  0  0
   -0.1340   10.2070   -2.1770 O   0  0  0  0  0  0  0  0  0  0  0  0
    1.2150   12.8270   -3.2270 C   0  0  0  0  0  0  0  0  0  0  0  0
    1.7910   14.1570   -3.2580 C   0  0  0  0  0  0  0  0  0  0  0  0
    0.3620   11.3460   -4.1970 C   0  0  0  0  0  0  0  0  0  0  0  0
    1.1670   12.2850   -4.9100 C   0  0  0  0  0  0  0  0  0  0  0  0
   -0.2170   10.6110   -5.2040 C   0  0  0  0  0  0  0  0  0  0  0  0
    0.8010   15.0810   -3.8970 C   0  0  0  0  0  0  0  0  0  0  0  0
    1.1040   12.1420   -6.2280 N   0  0  0  0  0  0  0  0  0  0  0  0
    0.2540   11.1030   -6.4010 N   0  0  0  0  0  0  0  0  0  0  0  0
   -0.5050   14.7470   -4.3110 C   0  0  0  0  0  0  0  0  0  0  0  0
    1.2470   16.3490   -4.0690 C   0  0  0  0  0  0  0  0  0  0  0  0
   -0.0590   10.6260   -7.6890 C   0  0  0  0  0  0  0  0  0  0  0  0
   -1.3160   15.7480   -4.8880 C   0  0  0  0  0  0  0  0  0  0  0  0
    0.4760   17.3350   -4.6350 C   0  0  0  0  0  0  0  0  0  0  0  0
   -2.9230   15.3430   -5.3800 Cl  0  0  0  0  0  0  0  0  0  0  0  0
   -1.1990    9.8530   -7.8740 C   0  0  0  0  0  0  0  0  0  0  0  0
    0.7540   10.9110   -8.7770 C   0  0  0  0  0  0  0  0  0  0  0  0
   -0.8080   17.0420   -5.0460 C   0  0  0  0  0  0  0  0  0  0  0  0
   -1.7060   18.3380   -5.7340 Cl  0  0  0  0  0  0  0  0  0  0  0  0
   -1.5120    9.3730   -9.1450 C   0  0  0  0  0  0  0  0  0  0  0  0
    0.4490   10.4380  -10.0440 C   0  0  0  0  0  0  0  0  0  0  0  0
   -0.6880    9.6650  -10.2300 C   0  0  0  0  0  0  0  0  0  0  0  0
  1  2  1  0
  2  3  2  0
  1  4  2  3
  4  5  1  0
  2  6  1  0
  6  7  1  0
  6  8  2  0
  5  9  1  0
  7 10  2  0
  8 11  1  0
 10 11  1  0
  9 12  2  0
  9 13  1  0
 11 14  1  0
 12 15  1  0
 13 16  2  0
 15 17  1  0
 14 18  2  0
 14 19  1  0
 15 20  2  0
 16 20  1  0
 20 21  1  0
 18 22  1  0
 19 23  2  0
 22 24  2  0
 23 24  1  0
M  END
