mac-x0137-diamond-x0910_0_A
     RDKit          3D

 17 19  0  0  0  0  0  0  0  0999 V2000
   -2.9820   12.6380   -3.8590 F   0  0  0  0  0  0  0  0  0  0  0  0
   -2.0510   13.3670   -4.5320 C   0  0  2  0  0  0  0  0  0  0  0  0
   -0.8270   12.4710   -4.7570 C   0  0  0  0  0  0  0  0  0  0  0  0
   -1.7740   14.6590   -3.7350 C   0  0  0  0  0  0  0  0  0  0  0  0
   -0.8930   14.4150   -2.5920 N   0  0  0  0  0  0  0  0  0  0  0  0
    0.0240   12.3430   -3.4990 C   0  0  0  0  0  0  0  0  0  0  0  0
    0.3570   13.7260   -2.9650 C   0  0  0  0  0  0  0  0  0  0  0  0
   -1.2560   14.5730   -1.2260 C   0  0  0  0  0  0  0  0  0  0  0  0
   -0.3080   14.3840   -0.2480 N   0  0  0  0  0  0  0  0  0  0  0  0
   -2.4680   14.9100   -0.7440 C   0  0  0  0  0  0  0  0  0  0  0  0
    0.7030   13.5630   -0.5950 N   0  0  0  0  0  0  0  0  0  0  0  0
   -0.5840   14.4360    1.1010 C   0  0  0  0  0  0  0  0  0  0  0  0
   -2.6780   15.0240    0.7260 C   0  0  0  0  0  0  0  0  0  0  0  0
   -3.7490   15.2440   -1.2760 C   0  0  0  0  0  0  0  0  0  0  0  0
   -1.7120   14.7220    1.6370 N   0  0  0  0  0  0  0  0  0  0  0  0
   -3.8710   15.4320    1.0220 N   0  0  0  0  0  0  0  0  0  0  0  0
   -4.5010   15.5520   -0.2070 C   0  0  0  0  0  0  0  0  0  0  0  0
  2  1  1  1
  2  3  1  0
  2  4  1  0
  4  5  1  0
  3  6  1  0
  5  7  1  0
  6  7  1  0
  5  8  1  0
  8  9  1  0
  8 10  2  0
  9 11  1  0
  9 12  1  0
 10 13  1  0
 10 14  1  0
 12 15  2  0
 13 15  1  0
 13 16  2  0
 14 17  2  0
 16 17  1  0
M  END
