mac-x0182-mac-x0584
     RDKit          3D

 30 35  0  0  0  0  0  0  0  0999 V2000
    1.6730   11.6350   -7.0960 O   0  0  0  0  0  0  0  0  0  0  0  0
    0.6270   11.3920   -6.5510 C   0  0  0  0  0  0  0  0  0  0  0  0
    0.1410   12.0390   -5.4640 N   0  0  0  0  0  0  0  0  0  0  0  0
   -0.2970   10.3100   -6.9600 C   0  0  0  0  0  0  0  0  0  0  0  0
   -0.9730   11.0760   -4.6650 S   0  0  2  0  0  0  0  0  0  0  0  0
   -1.2440   10.0280   -5.9890 C   0  0  0  0  0  0  0  0  0  0  0  0
   -0.2930    9.6030   -8.1460 C   0  0  0  0  0  0  0  0  0  0  0  0
   -2.1270   11.9120   -4.4640 O   0  0  0  0  0  0  0  0  0  0  0  0
   -0.0920   10.4330   -3.6300 N   0  0  0  0  0  0  0  0  0  0  0  0
   -2.2150    9.0680   -6.1090 C   0  0  0  0  0  0  0  0  0  0  0  0
   -1.2730    8.6140   -8.3070 C   0  0  0  0  0  0  0  0  0  0  0  0
   -2.2230    8.3490   -7.3000 C   0  0  0  0  0  0  0  0  0  0  0  0
    0.6040   11.4090   -2.8240 C   0  0  1  0  0  0  0  0  0  0  0  0
    1.3870   12.5160   -3.5980 C   0  0  0  0  0  0  0  0  0  0  0  0
   -0.3940   12.4700   -2.3960 C   0  0  0  0  0  0  0  0  0  0  0  0
    0.6330   13.5690   -2.7470 C   0  0  2  0  0  0  0  0  0  0  0  0
   -0.0510   14.8000   -3.3410 C   0  0  1  0  0  0  0  0  0  0  0  0
   -0.4630   14.6890   -4.8220 C   0  0  0  0  0  0  0  0  0  0  0  0
   -1.3560   14.8530   -2.6500 N   0  0  0  0  0  0  0  0  0  0  0  0
   -2.4650   15.1090   -3.5870 C   0  0  0  0  0  0  0  0  0  0  0  0
   -1.7730   15.4670   -4.8910 C   0  0  0  0  0  0  0  0  0  0  0  0
   -1.4970   14.8210   -1.2690 C   0  0  0  0  0  0  0  0  0  0  0  0
   -0.3900   14.6210   -0.4790 N   0  0  0  0  0  0  0  0  0  0  0  0
   -2.6470   14.9980   -0.6100 C   0  0  0  0  0  0  0  0  0  0  0  0
   -0.4690   14.5790    0.8840 C   0  0  0  0  0  0  0  0  0  0  0  0
   -2.6510   14.9660    0.8700 C   0  0  0  0  0  0  0  0  0  0  0  0
   -4.0050   15.2530   -0.9450 C   0  0  0  0  0  0  0  0  0  0  0  0
   -1.5260   14.7270    1.6010 N   0  0  0  0  0  0  0  0  0  0  0  0
   -3.8310   15.2040    1.3530 N   0  0  0  0  0  0  0  0  0  0  0  0
   -4.6300   15.3650    0.2330 C   0  0  0  0  0  0  0  0  0  0  0  0
  1  2  2  0
  2  3  1  0
  2  4  1  0
  5  3  1  6
  4  6  2  0
  5  6  1  0
  4  7  1  0
  5  8  2  0
  5  9  2  0
  6 10  1  0
  7 11  2  0
 10 12  2  0
 11 12  1  0
 13  9  1  6
 13 14  1  0
 13 15  1  0
 16 14  1  6
 15 16  1  0
 16 17  1  0
 17 18  1  6
 17 19  1  0
 19 20  1  0
 18 21  1  0
 20 21  1  0
 19 22  1  0
 22 23  1  0
 22 24  2  0
 23 25  1  0
 24 26  1  0
 24 27  1  0
 25 28  2  0
 26 28  1  0
 26 29  2  0
 27 30  2  0
 29 30  1  0
M  END
