mac-x0587-mac-x0337
     RDKit          3D

 25 26  0  0  0  0  0  0  0  0999 V2000
   -0.6310   14.8090   -3.3320 C   0  0  0  0  0  0  0  0  0  0  0  0
   -1.5430   13.6450   -2.9390 C   0  0  2  0  0  0  0  0  0  0  0  0
   -1.5300   12.5890   -4.3940 S   0  0  0  0  0  0  0  0  0  0  0  0
   -2.9440   14.1950   -2.5470 C   0  0  1  0  0  0  0  0  0  0  0  0
   -0.3300   11.2850   -4.2410 C   0  0  0  0  0  0  0  0  0  0  0  0
   -3.5220   14.9080   -3.6310 O   0  0  0  0  0  0  0  0  0  0  0  0
   -4.0130   13.6780   -1.4220 S   0  0  0  0  0  0  0  0  0  0  0  0
   -2.5670   15.1690   -1.6420 N   0  0  0  0  0  0  0  0  0  0  0  0
    0.5180   11.4020   -3.0430 C   0  0  0  0  0  0  0  0  0  0  0  0
   -3.4830   12.9970    0.0790 O   0  0  0  0  0  0  0  0  0  0  0  0
   -5.5730   14.2270   -1.3840 N   0  0  0  0  0  0  0  0  0  0  0  0
   -3.7880   15.6440   -0.9240 C   0  0  0  0  0  0  0  0  0  0  0  0
   -1.6540   14.9180   -0.5570 C   0  0  0  0  0  0  0  0  0  0  0  0
   -4.4300   12.1190   -1.7780 C   0  0  0  0  0  0  0  0  0  0  0  0
    0.5390   10.5360   -2.1320 O   0  0  0  0  0  0  0  0  0  0  0  0
    1.3370   12.5270   -2.9280 O   0  0  0  0  0  0  0  0  0  0  0  0
   -0.4190   14.8390   -0.6590 O   0  0  0  0  0  0  0  0  0  0  0  0
   -3.4900   15.6010    0.5620 C   0  0  0  0  0  0  0  0  0  0  0  0
   -2.3310   14.7830    0.6920 N   0  0  0  0  0  0  0  0  0  0  0  0
   -3.6780   11.2130   -2.5060 C   0  0  0  0  0  0  0  0  0  0  0  0
   -5.6310   11.6130   -1.3240 C   0  0  0  0  0  0  0  0  0  0  0  0
   -4.0750    9.9340   -2.7590 C   0  0  0  0  0  0  0  0  0  0  0  0
   -6.0580   10.3680   -1.5500 C   0  0  0  0  0  0  0  0  0  0  0  0
   -5.2780    9.5310   -2.2660 C   0  0  0  0  0  0  0  0  0  0  0  0
   -5.7480    8.1230   -2.5180 C   0  0  0  0  0  0  0  0  0  0  0  0
  2  1  1  6
  2  3  1  0
  2  4  1  0
  3  5  1  0
  4  6  1  6
  4  7  1  0
  4  8  1  0
  5  9  1  0
  7 10  2  0
  7 11  1  0
  8 12  1  0
  8 13  1  0
  7 14  1  0
  9 15  2  0
  9 16  1  0
 13 17  2  0
 12 18  1  0
 13 19  1  0
 18 19  1  0
 14 20  2  0
 14 21  1  0
 20 22  1  0
 21 23  2  0
 22 24  2  0
 23 24  1  0
 24 25  1  0
M  END
