mac-x0159-mac-x0283
     RDKit          3D

 25 29  0  0  0  0  0  0  0  0999 V2000
   -3.6450   16.3160    0.7100 N   0  0  0  0  0  0  0  0  0  0  0  0
   -3.4060   15.1240   -0.0900 C   0  0  2  0  0  0  0  0  0  0  0  0
   -1.9700   14.6650    0.1520 C   0  0  1  0  0  0  0  0  0  0  0  0
   -3.7350   15.5230   -1.4690 N   0  0  0  0  0  0  0  0  0  0  0  0
   -4.4370   14.1340    0.4850 C   0  0  0  0  0  0  0  0  0  0  0  0
   -2.7900   15.3200   -2.5930 C   0  0  0  0  0  0  0  0  0  0  0  0
   -1.0940   15.0900   -0.9940 C   0  0  2  0  0  0  0  0  0  0  0  0
   -1.2410   15.2930    1.2370 N   0  0  0  0  0  0  0  0  0  0  0  0
   -5.6990   14.9810    0.6030 C   0  0  2  0  0  0  0  0  0  0  0  0
   -5.0640   15.0630   -1.8640 C   0  0  0  0  0  0  0  0  0  0  0  0
   -1.5830   14.5870   -2.2480 N   0  0  0  0  0  0  0  0  0  0  0  0
    0.1290   14.4960   -0.5120 N   0  0  0  0  0  0  0  0  0  0  0  0
    0.0890   14.8070    0.9210 C   0  0  0  0  0  0  0  0  0  0  0  0
   -7.0080   14.4880    1.1790 C   0  0  2  0  0  0  0  0  0  0  0  0
   -6.1210   15.3750   -0.8080 C   0  0  1  0  0  0  0  0  0  0  0  0
   -0.5710   14.5220   -3.3280 C   0  0  0  0  0  0  0  0  0  0  0  0
   -6.9720   13.5680    2.2690 N   0  0  0  0  0  0  0  0  0  0  0  0
   -7.7000   13.8570    0.0930 N   0  0  0  0  0  0  0  0  0  0  0  0
   -7.3010   14.6080   -1.1020 O   0  0  0  0  0  0  0  0  0  0  0  0
   -0.2870   15.8220   -4.0580 C   0  0  0  0  0  0  0  0  0  0  0  0
    0.9500   16.4380   -4.1430 C   0  0  0  0  0  0  0  0  0  0  0  0
   -1.3000   16.5110   -4.7320 N   0  0  0  0  0  0  0  0  0  0  0  0
   -0.8150   17.6040   -5.2950 C   0  0  0  0  0  0  0  0  0  0  0  0
    0.8550   17.8790   -5.0620 S   0  0  0  0  0  0  0  0  0  0  0  0
   -1.6040   18.5770   -6.0980 C   0  0  0  0  0  0  0  0  0  0  0  0
  2  1  1  1
  2  3  1  0
  2  4  1  0
  2  5  1  0
  4  6  1  0
  3  7  1  0
  3  8  1  1
  9  5  1  6
  4 10  1  0
  6 11  1  0
  7 11  1  0
  7 12  1  1
  8 13  1  0
 12 13  1  0
  9 14  1  0
  9 15  1  0
 15 10  1  6
 11 16  1  0
 14 17  1  1
 14 18  1  0
 15 19  1  0
 18 19  1  0
 16 20  1  0
 20 21  2  0
 20 22  1  0
 22 23  2  0
 21 24  1  0
 23 24  1  0
 23 25  1  0
M  END
