mac-x0375-mac-x0139
     RDKit          3D

 23 25  0  0  0  0  0  0  0  0999 V2000
    1.8870   12.6080   -2.5650 O   0  0  0  0  0  0  0  0  0  0  0  0
    0.8480   11.8930   -3.0650 C   0  0  0  0  0  0  0  0  0  0  0  0
    0.7310   10.7050   -2.7990 O   0  0  0  0  0  0  0  0  0  0  0  0
   -0.0900   12.7090   -3.9240 C   0  0  2  0  0  0  0  0  0  0  0  0
    0.1930   12.3410   -5.3090 O   0  0  0  0  0  0  0  0  0  0  0  0
    0.0470   14.2050   -3.4410 C   0  0  0  0  0  0  0  0  0  0  0  0
   -1.1440   14.7300   -2.6770 N   0  0  0  0  0  0  0  0  0  0  0  0
   -0.6160   11.2920   -5.7350 C   0  0  0  0  0  0  0  0  0  0  0  0
   -2.2490   15.0850   -3.5680 C   0  0  0  0  0  0  0  0  0  0  0  0
   -0.2430   10.2850   -6.6420 C   0  0  0  0  0  0  0  0  0  0  0  0
   -1.9040   11.2640   -5.1930 C   0  0  0  0  0  0  0  0  0  0  0  0
   -1.2750   14.7730   -1.2420 C   0  0  0  0  0  0  0  0  0  0  0  0
   -1.1520    9.2740   -6.9840 C   0  0  0  0  0  0  0  0  0  0  0  0
   -2.8060   10.2530   -5.5400 C   0  0  0  0  0  0  0  0  0  0  0  0
   -2.4980   14.9170   -0.6400 C   0  0  0  0  0  0  0  0  0  0  0  0
   -0.1220   14.7110   -0.4280 N   0  0  0  0  0  0  0  0  0  0  0  0
   -2.4310    9.2550   -6.4360 C   0  0  0  0  0  0  0  0  0  0  0  0
   -2.5740   14.9690    0.8460 C   0  0  0  0  0  0  0  0  0  0  0  0
   -0.2770   14.7420    0.8760 C   0  0  0  0  0  0  0  0  0  0  0  0
   -3.8680   15.0720   -1.0200 C   0  0  0  0  0  0  0  0  0  0  0  0
   -1.4460   14.7890    1.5510 N   0  0  0  0  0  0  0  0  0  0  0  0
   -3.7780   15.1930    1.2730 N   0  0  0  0  0  0  0  0  0  0  0  0
   -4.5430   15.2470    0.1260 C   0  0  0  0  0  0  0  0  0  0  0  0
  1  2  1  0
  2  3  2  0
  2  4  1  0
  4  5  1  0
  4  6  1  6
  6  7  1  0
  5  8  1  0
  7  9  1  0
  8 10  2  0
  8 11  1  0
  7 12  1  0
 10 13  1  0
 11 14  2  0
 12 15  2  0
 12 16  1  0
 13 17  2  0
 14 17  1  0
 15 18  1  0
 16 19  2  0
 15 20  1  0
 18 21  1  0
 19 21  1  0
 18 22  2  0
 20 23  2  0
 22 23  1  0
M  END
