mac-x0555-mac-x0411
     RDKit          3D

 26 28  0  0  0  0  0  0  0  0999 V2000
   -7.3010   14.5680    2.7750 N   0  0  0  0  0  0  0  0  0  0  0  0
   -6.8300   14.6330    1.4670 C   0  0  0  0  0  0  0  0  0  0  0  0
   -7.6230   14.5140    0.3310 C   0  0  0  0  0  0  0  0  0  0  0  0
   -5.4740   14.8270    1.2490 C   0  0  0  0  0  0  0  0  0  0  0  0
   -4.9480   14.8810   -0.0380 C   0  0  0  0  0  0  0  0  0  0  0  0
   -7.1540   14.5680   -0.9500 N   0  0  0  0  0  0  0  0  0  0  0  0
   -5.8290   14.7410   -1.1250 C   0  0  0  0  0  0  0  0  0  0  0  0
   -3.5840   15.0590   -0.2430 C   0  0  0  0  0  0  0  0  0  0  0  0
   -5.2850   14.7780   -2.4150 C   0  0  0  0  0  0  0  0  0  0  0  0
   -3.0630   15.0830   -1.5290 C   0  0  0  0  0  0  0  0  0  0  0  0
   -3.8940   14.9380   -2.6400 C   0  0  0  0  0  0  0  0  0  0  0  0
   -3.3010   14.9440   -4.0470 C   0  0  0  0  0  0  0  0  0  0  0  0
   -3.1810   13.5620   -4.7560 C   0  0  0  0  0  0  0  0  0  0  0  0
   -1.8120   12.8130   -4.6870 C   0  0  0  0  0  0  0  0  0  0  0  0
   -1.7340   11.4450   -5.4030 C   0  0  0  0  0  0  0  0  0  0  0  0
   -0.6050   10.9850   -6.1630 C   0  0  0  0  0  0  0  0  0  0  0  0
   -2.8550   10.5960   -5.3010 C   0  0  0  0  0  0  0  0  0  0  0  0
    0.4890   11.8130   -6.2600 O   0  0  0  0  0  0  0  0  0  0  0  0
   -2.8890    9.3470   -5.9140 C   0  0  0  0  0  0  0  0  0  0  0  0
   -0.6670    9.7060   -6.7840 C   0  0  0  0  0  0  0  0  0  0  0  0
    0.6000    9.0180   -7.7450 Cl  0  0  0  0  0  0  0  0  0  0  0  0
    1.0500   12.4450   -5.1120 C   0  0  0  0  0  0  0  0  0  0  0  0
   -1.8020    8.9050   -6.6510 C   0  0  0  0  0  0  0  0  0  0  0  0
    0.8360   11.9190   -3.6900 C   0  0  0  0  0  0  0  0  0  0  0  0
    1.2490   12.8070   -2.7620 O   0  0  0  0  0  0  0  0  0  0  0  0
    0.3740   10.8450   -3.3380 O   0  0  0  0  0  0  0  0  0  0  0  0
  1  2  1  0
  2  3  2  0
  2  4  1  0
  4  5  2  0
  3  6  1  0
  5  7  1  0
  6  7  2  0
  5  8  1  0
  7  9  1  0
  8 10  2  0
  9 11  2  0
 10 11  1  0
 11 12  1  0
 12 13  1  0
 13 14  1  0
 14 15  1  0
 15 16  2  0
 15 17  1  0
 16 18  1  0
 17 19  2  0
 16 20  1  0
 20 21  1  0
 18 22  1  0
 19 23  1  0
 20 23  2  0
 22 24  1  0
 24 25  1  0
 24 26  2  0
M  END
