mac-x0306-diamond-x0104_0_A
     RDKit          3D

 22 24  0  0  0  0  0  0  0  0999 V2000
   -6.7750   15.0110    2.5700 N   0  0  0  0  0  0  0  0  0  0  0  0
   -7.9930   15.2620    3.2120 C   0  0  0  0  0  0  0  0  0  0  0  0
   -7.9940   15.1220    4.5790 N   0  0  0  0  0  0  0  0  0  0  0  0
   -6.9210   14.3720    1.3410 N   0  0  0  0  0  0  0  0  0  0  0  0
   -8.9510   15.5750    2.5120 O   0  0  0  0  0  0  0  0  0  0  0  0
   -7.9710   13.5170    1.1950 C   0  0  0  0  0  0  0  0  0  0  0  0
   -6.6380   14.9790   -0.0230 C   0  0  2  0  0  0  0  0  0  0  0  0
   -8.1690   13.2770   -0.1030 C   0  0  0  0  0  0  0  0  0  0  0  0
   -7.2450   13.9650   -0.8950 N   0  0  0  0  0  0  0  0  0  0  0  0
   -5.2210   15.0340   -0.5040 C   0  0  0  0  0  0  0  0  0  0  0  0
   -9.1210   15.0890    5.3760 C   0  0  0  0  0  0  0  0  0  0  0  0
   -6.2380   13.2510   -1.6160 O   0  0  0  0  0  0  0  0  0  0  0  0
   -4.9960   15.4460   -1.8130 C   0  0  0  0  0  0  0  0  0  0  0  0
   -4.1230   14.6710    0.2800 C   0  0  0  0  0  0  0  0  0  0  0  0
   -9.1660   15.1920    6.7500 C   0  0  0  0  0  0  0  0  0  0  0  0
  -10.6760   14.9110    4.7070 S   0  0  0  0  0  0  0  0  0  0  0  0
   -5.6630   14.0450   -2.6740 C   0  0  0  0  0  0  0  0  0  0  0  0
   -3.7130   15.4680   -2.3050 C   0  0  0  0  0  0  0  0  0  0  0  0
   -2.8660   14.7280   -0.3020 C   0  0  0  0  0  0  0  0  0  0  0  0
  -11.4260   14.9670    6.2410 C   0  0  0  0  0  0  0  0  0  0  0  0
  -10.5030   15.1200    7.2530 C   0  0  0  0  0  0  0  0  0  0  0  0
   -2.6420   15.1080   -1.5790 N   0  0  0  0  0  0  0  0  0  0  0  0
  1  2  1  0
  2  3  1  0
  1  4  1  0
  2  5  2  0
  4  6  1  0
  4  7  1  0
  6  8  2  0
  7  9  1  0
  8  9  1  0
  7 10  1  6
  3 11  1  0
  9 12  1  0
 10 13  2  0
 10 14  1  0
 11 15  2  0
 11 16  1  0
 12 17  1  0
 13 18  1  0
 14 19  2  0
 16 20  1  0
 15 21  1  0
 20 21  2  0
 18 22  2  0
 19 22  1  0
M  END
