mac-x0180-diamond-x1015_0_A
     RDKit          3D

 26 29  0  0  0  0  0  0  0  0999 V2000
   -7.9420   14.5200    1.4320 C   0  0  0  0  0  0  0  0  0  0  0  0
   -6.9900   14.7820    0.2940 C   0  0  0  0  0  0  0  0  0  0  0  0
   -7.3440   14.6340   -0.8650 O   0  0  0  0  0  0  0  0  0  0  0  0
   -5.7470   15.1930    0.7270 N   0  0  0  0  0  0  0  0  0  0  0  0
   -4.6050   15.0830   -0.0440 C   0  0  0  0  0  0  0  0  0  0  0  0
   -3.3740   14.7840    0.5020 C   0  0  0  0  0  0  0  0  0  0  0  0
   -4.7500   15.2740   -1.4280 C   0  0  0  0  0  0  0  0  0  0  0  0
   -2.2890   14.6370   -0.3350 C   0  0  0  0  0  0  0  0  0  0  0  0
   -3.6590   15.1290   -2.2760 C   0  0  0  0  0  0  0  0  0  0  0  0
   -2.4390   14.7910   -1.7100 C   0  0  0  0  0  0  0  0  0  0  0  0
   -1.2630   14.5160   -2.4990 C   0  0  0  0  0  0  0  0  0  0  0  0
   -1.2330   14.4500   -3.8030 N   0  0  0  0  0  0  0  0  0  0  0  0
   -0.1930   14.1430   -1.7400 N   0  0  0  0  0  0  0  0  0  0  0  0
    0.0590   13.7950   -4.0310 C   0  0  1  0  0  0  0  0  0  0  0  0
    0.5020   13.6400   -2.6300 C   0  0  0  0  0  0  0  0  0  0  0  0
    0.1900   12.3540   -4.1720 N   0  0  0  0  0  0  0  0  0  0  0  0
    1.5670   12.9230   -2.5330 N   0  0  0  0  0  0  0  0  0  0  0  0
    0.8200   11.8680   -2.9940 C   0  0  0  0  0  0  0  0  0  0  0  0
   -0.3180   11.5440   -5.2160 C   0  0  0  0  0  0  0  0  0  0  0  0
    0.7150   10.7770   -2.4490 O   0  0  0  0  0  0  0  0  0  0  0  0
    0.1480   11.6610   -6.5250 C   0  0  0  0  0  0  0  0  0  0  0  0
   -1.3130   10.5790   -4.9530 C   0  0  0  0  0  0  0  0  0  0  0  0
   -0.3530   10.8480   -7.5480 C   0  0  0  0  0  0  0  0  0  0  0  0
   -1.8170    9.7620   -5.9730 C   0  0  0  0  0  0  0  0  0  0  0  0
   -1.3320    9.9030   -7.2660 C   0  0  0  0  0  0  0  0  0  0  0  0
   -1.9410    8.9060   -8.5260 Cl  0  0  0  0  0  0  0  0  0  0  0  0
  1  2  1  0
  2  3  2  0
  2  4  1  0
  4  5  1  0
  5  6  2  0
  5  7  1  0
  6  8  1  0
  7  9  2  0
  8 10  2  0
  9 10  1  0
 10 11  1  0
 11 12  2  0
 11 13  1  0
 14 12  1  1
 13 15  2  0
 14 15  1  0
 14 16  1  0
 15 17  1  0
 16 18  1  0
 17 18  1  0
 16 19  1  0
 18 20  2  0
 19 21  2  0
 19 22  1  0
 21 23  1  0
 22 24  2  0
 23 25  2  0
 24 25  1  0
 25 26  1  0
M  END
