mac-x0455-diamond-x0421_0_A
     RDKit          3D

 22 24  0  0  0  0  0  0  0  0999 V2000
   -1.8170   14.3350   -2.0820 C   0  0  0  0  0  0  0  0  0  0  0  0
   -0.8850   14.2140   -3.2680 C   0  0  1  0  0  0  0  0  0  0  0  0
   -0.9400   15.4120   -4.0860 O   0  0  0  0  0  0  0  0  0  0  0  0
   -3.0460   14.8620   -1.9160 C   0  0  0  0  0  0  0  0  0  0  0  0
    0.5330   14.2360   -2.6480 C   0  0  0  0  0  0  0  0  0  0  0  0
   -3.7610   15.4350   -2.9590 N   0  0  0  0  0  0  0  0  0  0  0  0
   -1.0250   12.9950   -4.1970 C   0  0  0  0  0  0  0  0  0  0  0  0
   -3.6320   14.8460   -0.5920 C   0  0  0  0  0  0  0  0  0  0  0  0
    1.2080   15.2340   -2.4720 O   0  0  0  0  0  0  0  0  0  0  0  0
    1.0340   13.0420   -2.2790 O   0  0  0  0  0  0  0  0  0  0  0  0
   -2.1060   12.0960   -4.1830 C   0  0  0  0  0  0  0  0  0  0  0  0
    0.0090   12.7550   -5.1360 C   0  0  0  0  0  0  0  0  0  0  0  0
   -2.9450   14.9600    0.6110 C   0  0  0  0  0  0  0  0  0  0  0  0
   -4.9800   14.7120   -0.3620 N   0  0  0  0  0  0  0  0  0  0  0  0
   -2.1440   11.0080   -5.0660 C   0  0  0  0  0  0  0  0  0  0  0  0
   -0.0300   11.6720   -6.0140 C   0  0  0  0  0  0  0  0  0  0  0  0
   -3.9030   14.8930    1.5740 N   0  0  0  0  0  0  0  0  0  0  0  0
   -5.1040   14.7440    0.9500 C   0  0  0  0  0  0  0  0  0  0  0  0
   -1.1110   10.7950   -5.9780 C   0  0  0  0  0  0  0  0  0  0  0  0
   -6.4470   14.6220    1.7030 C   0  0  0  0  0  0  0  0  0  0  0  0
   -7.7510   14.6600    0.9500 C   0  0  0  0  0  0  0  0  0  0  0  0
   -7.2500   13.3650    1.5250 C   0  0  0  0  0  0  0  0  0  0  0  0
  1  2  1  0
  2  3  1  6
  1  4  2  3
  2  5  1  0
  4  6  1  0
  2  7  1  0
  4  8  1  0
  5  9  2  0
  5 10  1  0
  7 11  2  0
  7 12  1  0
  8 13  2  0
  8 14  1  0
 11 15  1  0
 12 16  2  0
 13 17  1  0
 14 18  2  0
 17 18  1  0
 15 19  2  0
 16 19  1  0
 18 20  1  0
 20 21  1  0
 20 22  1  0
 21 22  1  0
M  END
