mac-x0131-diamond-x0128_0_A
     RDKit          3D

 33 37  0  0  0  0  0  0  0  0999 V2000
   -3.8480   14.7130   -3.9910 C   0  0  0  0  0  0  0  0  0  0  0  0
   -3.1240   14.7600   -2.6890 C   0  0  0  0  0  0  0  0  0  0  0  0
   -3.5810   14.8130   -1.3760 C   0  0  0  0  0  0  0  0  0  0  0  0
   -1.7330   14.7470   -2.5690 N   0  0  0  0  0  0  0  0  0  0  0  0
   -0.7450   14.6710   -3.6270 C   0  0  0  0  0  0  0  0  0  0  0  0
   -2.4970   14.8540   -0.4870 C   0  0  0  0  0  0  0  0  0  0  0  0
   -1.3640   14.8090   -1.2410 C   0  0  0  0  0  0  0  0  0  0  0  0
   -4.8550   14.8240   -0.7780 C   0  0  0  0  0  0  0  0  0  0  0  0
   -2.3550   14.9290    0.9210 C   0  0  0  0  0  0  0  0  0  0  0  0
   -0.1210   14.8290   -0.7510 N   0  0  0  0  0  0  0  0  0  0  0  0
   -0.5010   13.2190   -3.7750 C   0  0  0  0  0  0  0  0  0  0  0  0
   -6.1290   14.7230   -1.3160 C   0  0  0  0  0  0  0  0  0  0  0  0
   -4.6730   14.9490    0.5710 C   0  0  0  0  0  0  0  0  0  0  0  0
   -3.3750   15.0070    1.8540 N   0  0  0  0  0  0  0  0  0  0  0  0
   -1.1450   14.9450    1.4440 N   0  0  0  0  0  0  0  0  0  0  0  0
   -0.1220   14.9030    0.5930 C   0  0  0  0  0  0  0  0  0  0  0  0
    0.4630   12.3310   -3.3370 C   0  0  0  0  0  0  0  0  0  0  0  0
   -1.4430   12.5550   -4.4980 O   0  0  0  0  0  0  0  0  0  0  0  0
   -7.2110   14.7540   -0.4180 C   0  0  0  0  0  0  0  0  0  0  0  0
   -5.7110   14.9800    1.4440 C   0  0  0  0  0  0  0  0  0  0  0  0
   -1.0900   11.2520   -4.5210 C   0  0  0  0  0  0  0  0  0  0  0  0
    0.0620   11.0600   -3.8210 C   0  0  0  0  0  0  0  0  0  0  0  0
   -6.9920   14.8850    0.9690 C   0  0  0  0  0  0  0  0  0  0  0  0
   -8.0060   14.9570    1.9360 N   0  0  0  0  0  0  0  0  0  0  0  0
   -8.1230   14.6790    3.2690 C   0  0  0  0  0  0  0  0  0  0  0  0
   -8.7760   13.6900    3.4990 O   0  0  0  0  0  0  0  0  0  0  0  0
   -7.5940   15.5030    4.2400 N   0  0  0  0  0  0  0  0  0  0  0  0
   -8.3920   16.1570    5.2170 C   0  0  0  0  0  0  0  0  0  0  0  0
   -9.1240   17.2860    4.8470 C   0  0  0  0  0  0  0  0  0  0  0  0
   -8.5110   15.7490    6.5430 C   0  0  0  0  0  0  0  0  0  0  0  0
   -9.9280   18.0000    5.6720 N   0  0  0  0  0  0  0  0  0  0  0  0
   -9.3300   16.4650    7.4230 C   0  0  0  0  0  0  0  0  0  0  0  0
  -10.0100   17.5740    6.9420 C   0  0  0  0  0  0  0  0  0  0  0  0
  1  2  1  0
  2  3  2  0
  2  4  1  0
  4  5  1  0
  3  6  1  0
  4  7  1  0
  6  7  2  0
  3  8  1  0
  6  9  1  0
  7 10  1  0
  5 11  1  0
  8 12  2  0
  8 13  1  0
  9 14  1  0
  9 15  2  0
 10 16  2  0
 15 16  1  0
 11 17  2  0
 11 18  1  0
 12 19  1  0
 13 20  2  0
 18 21  1  0
 17 22  1  0
 21 22  2  0
 19 23  2  0
 20 23  1  0
 23 24  1  0
 24 25  1  0
 25 26  2  0
 25 27  1  0
 27 28  1  0
 28 29  2  0
 28 30  1  0
 29 31  1  0
 30 32  2  0
 31 33  2  0
 32 33  1  0
M  END
