mac-x0360-mac-x0277
     RDKit          3D

 26 27  0  0  0  0  0  0  0  0999 V2000
   -7.6870   11.5560    1.7600 Cl  0  0  0  0  0  0  0  0  0  0  0  0
   -6.4960   11.8430    0.5510 C   0  0  0  0  0  0  0  0  0  0  0  0
   -6.3020   10.9000   -0.4530 C   0  0  0  0  0  0  0  0  0  0  0  0
   -5.7420   13.0100    0.5860 C   0  0  0  0  0  0  0  0  0  0  0  0
   -4.7800   13.2290   -0.4060 C   0  0  0  0  0  0  0  0  0  0  0  0
   -5.3340   11.1240   -1.4320 C   0  0  0  0  0  0  0  0  0  0  0  0
   -5.0950    9.9440   -2.6640 Cl  0  0  0  0  0  0  0  0  0  0  0  0
   -3.8190   14.7230   -0.3890 S   0  0  0  0  0  0  0  0  0  0  0  0
   -4.5690   12.2850   -1.4190 C   0  0  0  0  0  0  0  0  0  0  0  0
   -3.0620   14.6390   -1.8860 N   0  0  0  0  0  0  0  0  0  0  0  0
   -4.7440   15.8310   -0.4380 O   0  0  0  0  0  0  0  0  0  0  0  0
   -2.8090   14.6230    0.6400 O   0  0  0  0  0  0  0  0  0  0  0  0
   -3.7660   15.3290   -2.9720 C   0  0  0  0  0  0  0  0  0  0  0  0
   -3.5990   14.6810   -4.3400 C   0  0  0  0  0  0  0  0  0  0  0  0
   -2.8070   15.5320   -5.3470 C   0  0  0  0  0  0  0  0  0  0  0  0
   -1.3290   15.6070   -5.0380 C   0  0  0  0  0  0  0  0  0  0  0  0
   -0.6470   14.3990   -4.8100 C   0  0  0  0  0  0  0  0  0  0  0  0
   -0.6010   16.8040   -4.9660 C   0  0  0  0  0  0  0  0  0  0  0  0
   -1.3270   18.3470   -5.2390 Cl  0  0  0  0  0  0  0  0  0  0  0  0
    0.7210   14.3700   -4.5120 C   0  0  0  0  0  0  0  0  0  0  0  0
    0.7640   16.7860   -4.6670 C   0  0  0  0  0  0  0  0  0  0  0  0
    1.4210   13.0530   -4.2730 C   0  0  0  0  0  0  0  0  0  0  0  0
    1.4180   15.5730   -4.4400 C   0  0  0  0  0  0  0  0  0  0  0  0
    0.9850   12.4050   -2.9770 C   0  0  0  0  0  0  0  0  0  0  0  0
    0.2950   11.2630   -3.1710 O   0  0  0  0  0  0  0  0  0  0  0  0
    1.1920   12.8080   -1.8470 O   0  0  0  0  0  0  0  0  0  0  0  0
  1  2  1  0
  2  3  2  0
  2  4  1  0
  4  5  2  0
  3  6  1  0
  6  7  1  0
  5  8  1  0
  5  9  1  0
  6  9  2  0
  8 10  1  0
  8 11  2  0
  8 12  2  0
 10 13  1  0
 13 14  1  0
 14 15  1  0
 15 16  1  0
 16 17  2  0
 16 18  1  0
 18 19  1  0
 17 20  1  0
 18 21  2  0
 20 22  1  0
 20 23  2  0
 21 23  1  0
 22 24  1  0
 24 25  1  0
 24 26  2  0
M  END
