mac-x0163-mac-x0284
     RDKit          3D

 27 30  0  0  0  0  0  0  0  0999 V2000
   -2.9770   13.6380   -1.9310 Cl  0  0  0  0  0  0  0  0  0  0  0  0
   -1.9410   13.8150   -0.5490 C   0  0  0  0  0  0  0  0  0  0  0  0
   -2.2740   14.6840    0.5150 C   0  0  0  0  0  0  0  0  0  0  0  0
   -0.7720   13.1050   -0.4790 C   0  0  0  0  0  0  0  0  0  0  0  0
   -3.4600   15.3730    0.2370 N   0  0  0  0  0  0  0  0  0  0  0  0
   -0.0100   13.2450    0.5950 N   0  0  0  0  0  0  0  0  0  0  0  0
   -1.5070   14.8200    1.6100 N   0  0  0  0  0  0  0  0  0  0  0  0
   -0.3260   12.2120   -1.5050 N   0  0  0  0  0  0  0  0  0  0  0  0
   -0.3960   14.0740    1.5830 C   0  0  0  0  0  0  0  0  0  0  0  0
   -1.3680   11.5510   -2.3040 C   0  0  0  0  0  0  0  0  0  0  0  0
    0.8540   12.6320   -2.2730 C   0  0  0  0  0  0  0  0  0  0  0  0
   -3.4670   15.4500   -1.1480 C   0  0  0  0  0  0  0  0  0  0  0  0
   -1.1960   11.7360   -3.8380 C   0  0  0  0  0  0  0  0  0  0  0  0
    0.4960   13.6150   -3.3860 C   0  0  0  0  0  0  0  0  0  0  0  0
   -2.2500   15.7930   -1.7510 C   0  0  0  0  0  0  0  0  0  0  0  0
   -4.5670   15.1700   -1.9580 C   0  0  0  0  0  0  0  0  0  0  0  0
   -0.5240   10.4870   -4.4940 C   0  0  0  0  0  0  0  0  0  0  0  0
   -2.4690   11.3760   -4.6750 C   0  0  0  0  0  0  0  0  0  0  0  0
   -0.6120   13.0950   -4.2970 C   0  0  0  0  0  0  0  0  0  0  0  0
   -2.0890   15.8500   -3.1270 C   0  0  0  0  0  0  0  0  0  0  0  0
   -4.4210   15.2210   -3.3520 C   0  0  0  0  0  0  0  0  0  0  0  0
   -0.7340   16.2130   -3.6160 C   0  0  0  0  0  0  0  0  0  0  0  0
   -3.1860   15.5580   -3.9330 C   0  0  0  0  0  0  0  0  0  0  0  0
   -1.9180    9.9520   -4.8660 C   0  0  0  0  0  0  0  0  0  0  0  0
   -3.1380   15.5730   -5.3000 O   0  0  0  0  0  0  0  0  0  0  0  0
    0.2170   16.5440   -2.9350 O   0  0  0  0  0  0  0  0  0  0  0  0
   -0.5980   16.1200   -4.9520 O   0  0  0  0  0  0  0  0  0  0  0  0
  1  2  1  0
  2  3  2  0
  2  4  1  0
  3  5  1  0
  4  6  2  0
  3  7  1  0
  4  8  1  0
  6  9  1  0
  7  9  2  0
  8 10  1  0
  8 11  1  0
  5 12  1  0
 13 10  1  0
 11 14  1  0
 12 15  2  0
 12 16  1  0
 13 17  1  0
 13 18  1  0
 13 19  1  0
 14 19  1  0
 15 20  1  0
 16 21  2  0
 20 22  1  0
 20 23  2  0
 21 23  1  0
 17 24  1  0
 18 24  1  0
 23 25  1  0
 22 26  2  0
 22 27  1  0
M  END
