mac-x0379-mac-x0137
     RDKit          3D

 21 23  0  0  0  0  0  0  0  0999 V2000
   -3.8010   13.3660    0.5910 C   0  0  0  0  0  0  0  0  0  0  0  0
   -3.9700   14.1300   -0.6630 C   0  0  0  0  0  0  0  0  0  0  0  0
   -5.0510   14.8200   -0.9880 N   0  0  0  0  0  0  0  0  0  0  0  0
   -2.9480   14.3200   -1.8960 S   0  0  0  0  0  0  0  0  0  0  0  0
   -4.9200   15.4540   -2.2640 C   0  0  0  0  0  0  0  0  0  0  0  0
   -3.7080   15.2720   -2.9780 C   0  0  0  0  0  0  0  0  0  0  0  0
   -1.4960   14.1350   -2.7960 C   0  0  0  0  0  0  0  0  0  0  0  0
   -1.6000   13.3950   -1.4400 C   0  0  1  0  0  0  0  0  0  0  0  0
   -3.2470   15.7390   -4.2740 C   0  0  0  0  0  0  0  0  0  0  0  0
   -0.8360   12.7940   -2.5480 N   0  0  0  0  0  0  0  0  0  0  0  0
   -0.7490   13.9800   -0.4440 N   0  0  0  0  0  0  0  0  0  0  0  0
   -0.4240   15.0970   -2.4040 N   0  0  0  0  0  0  0  0  0  0  0  0
   -3.7470   15.5390   -5.3730 O   0  0  0  0  0  0  0  0  0  0  0  0
   -2.1230   16.4840   -4.2220 O   0  0  0  0  0  0  0  0  0  0  0  0
   -1.3380   12.8020   -3.9510 C   0  0  0  0  0  0  0  0  0  0  0  0
   -0.0870   11.6020   -2.1540 C   0  0  0  0  0  0  0  0  0  0  0  0
    0.1690   14.8340   -1.1010 C   0  0  0  0  0  0  0  0  0  0  0  0
   -1.8900   11.4630   -4.4940 C   0  0  2  0  0  0  0  0  0  0  0  0
    0.0420   10.6000   -3.2710 C   0  0  0  0  0  0  0  0  0  0  0  0
   -3.2490   11.4160   -4.3840 F   0  0  0  0  0  0  0  0  0  0  0  0
   -1.3220   10.2470   -3.7940 C   0  0  0  0  0  0  0  0  0  0  0  0
  1  2  1  0
  2  3  2  0
  2  4  1  0
  3  5  1  0
  4  6  1  0
  5  6  2  0
  4  7  1  0
  4  8  1  0
  6  9  1  0
  8 10  1  6
  8 11  1  0
  7 12  1  0
  9 13  2  0
  9 14  1  0
 10 15  1  0
 10 16  1  0
 11 17  1  0
 12 17  1  0
 15 18  1  0
 16 19  1  0
 18 20  1  1
 18 21  1  0
 19 21  1  0
M  END
