mac-x0277-mac-x0451
     RDKit          3D

 24 26  0  0  0  0  0  0  0  0999 V2000
   -1.1600   18.4580   -5.2610 Cl  0  0  0  0  0  0  0  0  0  0  0  0
   -0.4580   16.9070   -4.9760 C   0  0  0  0  0  0  0  0  0  0  0  0
   -1.1920   15.7390   -5.1100 C   0  0  0  0  0  0  0  0  0  0  0  0
    0.8810   16.8440   -4.5990 C   0  0  0  0  0  0  0  0  0  0  0  0
   -2.6360   15.7080   -5.4930 C   0  0  0  0  0  0  0  0  0  0  0  0
   -0.5670   14.5030   -4.8670 C   0  0  0  0  0  0  0  0  0  0  0  0
    1.4920   15.6060   -4.3560 C   0  0  0  0  0  0  0  0  0  0  0  0
   -3.3050   14.8650   -4.4520 C   0  0  0  0  0  0  0  0  0  0  0  0
    0.7710   14.4210   -4.4900 C   0  0  0  0  0  0  0  0  0  0  0  0
    1.4070   13.0740   -4.2330 C   0  0  0  0  0  0  0  0  0  0  0  0
   -2.5680   14.9770   -3.2200 O   0  0  0  0  0  0  0  0  0  0  0  0
    1.0090   12.4450   -2.9050 C   0  0  0  0  0  0  0  0  0  0  0  0
   -3.4900   14.9650   -2.2600 C   0  0  0  0  0  0  0  0  0  0  0  0
    0.4690   11.2060   -3.0370 O   0  0  0  0  0  0  0  0  0  0  0  0
    1.1410   12.9530   -1.8050 O   0  0  0  0  0  0  0  0  0  0  0  0
   -4.7950   14.8120   -2.6650 C   0  0  0  0  0  0  0  0  0  0  0  0
   -3.1280   15.1020   -0.9320 C   0  0  0  0  0  0  0  0  0  0  0  0
   -4.1740   15.0750   -0.0160 C   0  0  0  0  0  0  0  0  0  0  0  0
   -5.8080   14.7790   -1.7500 C   0  0  0  0  0  0  0  0  0  0  0  0
   -5.5000   14.9050   -0.4120 C   0  0  0  0  0  0  0  0  0  0  0  0
   -4.1390   15.2280    1.6700 S   0  0  0  0  0  0  0  0  0  0  0  0
   -5.8570   15.0220    1.7130 C   0  0  0  0  0  0  0  0  0  0  0  0
   -6.4380   14.8700    0.5750 N   0  0  0  0  0  0  0  0  0  0  0  0
   -6.5730   15.0250    2.8470 N   0  0  0  0  0  0  0  0  0  0  0  0
  1  2  1  0
  2  3  2  0
  2  4  1  0
  3  5  1  0
  3  6  1  0
  4  7  2  0
  5  8  1  0
  6  9  2  0
  7  9  1  0
  9 10  1  0
  8 11  1  0
 10 12  1  0
 11 13  1  0
 12 14  1  0
 12 15  2  0
 13 16  2  0
 13 17  1  0
 17 18  2  0
 16 19  1  0
 18 20  1  0
 19 20  2  0
 18 21  1  0
 21 22  1  0
 20 23  1  0
 22 23  2  0
 22 24  1  0
M  END
