mac-x0397-diamond-x0969_0_A
     RDKit          3D

 11 12  0  0  0  0  0  0  0  0999 V2000
   -6.6100   15.3000   -2.0660 Cl  0  0  0  0  0  0  0  0  0  0  0  0
   -5.0210   15.0720   -1.4820 C   0  0  0  0  0  0  0  0  0  0  0  0
   -4.8930   14.9140   -0.0900 C   0  0  0  0  0  0  0  0  0  0  0  0
   -3.9200   15.0390   -2.3330 C   0  0  0  0  0  0  0  0  0  0  0  0
   -5.8980   14.9210    0.8750 N   0  0  0  0  0  0  0  0  0  0  0  0
   -3.6070   14.7230    0.4180 C   0  0  0  0  0  0  0  0  0  0  0  0
   -2.6530   14.8420   -1.8000 C   0  0  0  0  0  0  0  0  0  0  0  0
   -5.3950   14.7480    2.0710 C   0  0  0  0  0  0  0  0  0  0  0  0
   -3.6960   14.5610    2.1290 S   0  0  0  0  0  0  0  0  0  0  0  0
   -2.4770   14.6820   -0.4160 C   0  0  0  0  0  0  0  0  0  0  0  0
   -6.1440   14.7150    3.1900 N   0  0  0  0  0  0  0  0  0  0  0  0
  1  2  1  0
  2  3  2  0
  2  4  1  0
  3  5  1  0
  3  6  1  0
  4  7  2  0
  5  8  2  0
  6  9  1  0
  8  9  1  0
  6 10  2  0
  7 10  1  0
  8 11  1  0
M  END
