mac-x0404-mac-x0306
     RDKit          3D

 27 30  0  0  0  0  0  0  0  0999 V2000
    1.2850   13.0630   -2.1380 O   0  0  0  0  0  0  0  0  0  0  0  0
    1.2120   12.2260   -3.2000 C   0  0  0  0  0  0  0  0  0  0  0  0
    0.5650   11.1890   -3.1460 O   0  0  0  0  0  0  0  0  0  0  0  0
    2.0100   12.6790   -4.4380 C   0  0  0  0  0  0  0  0  0  0  0  0
    1.6480   13.9490   -4.9780 O   0  0  0  0  0  0  0  0  0  0  0  0
    0.3660   14.3570   -4.7950 C   0  0  0  0  0  0  0  0  0  0  0  0
    0.0830   15.7300   -5.0000 C   0  0  0  0  0  0  0  0  0  0  0  0
   -0.6210   13.4630   -4.4180 C   0  0  0  0  0  0  0  0  0  0  0  0
   -1.2100   16.2080   -4.7970 C   0  0  0  0  0  0  0  0  0  0  0  0
   -1.8840   13.9270   -4.2110 C   0  0  0  0  0  0  0  0  0  0  0  0
    1.0610   16.6360   -5.3970 C   0  0  0  0  0  0  0  0  0  0  0  0
   -2.1670   15.2690   -4.3820 C   0  0  0  0  0  0  0  0  0  0  0  0
   -1.4630   17.5870   -5.0160 C   0  0  0  0  0  0  0  0  0  0  0  0
    0.8110   17.9880   -5.6080 C   0  0  0  0  0  0  0  0  0  0  0  0
   -3.5330   15.6390   -4.0780 C   0  0  0  0  0  0  0  0  0  0  0  0
   -0.4650   18.4630   -5.4190 C   0  0  0  0  0  0  0  0  0  0  0  0
   -3.9640   15.0810   -2.7700 N   0  0  0  0  0  0  0  0  0  0  0  0
   -5.2520   14.6380   -2.8370 C   0  0  0  0  0  0  0  0  0  0  0  0
   -3.5730   15.6020   -1.5090 C   0  0  0  0  0  0  0  0  0  0  0  0
   -5.9740   14.2940   -1.7930 C   0  0  0  0  0  0  0  0  0  0  0  0
   -4.2290   15.3070   -0.3530 C   0  0  0  0  0  0  0  0  0  0  0  0
   -5.4250   14.3600   -0.3940 C   0  0  0  0  0  0  0  0  0  0  0  0
   -6.6120   14.5760    0.5120 C   0  0  0  0  0  0  0  0  0  0  0  0
   -6.5810   14.5030    1.8890 N   0  0  0  0  0  0  0  0  0  0  0  0
   -7.8390   14.8430    0.1000 N   0  0  0  0  0  0  0  0  0  0  0  0
   -8.6030   14.9460    1.2270 C   0  0  0  0  0  0  0  0  0  0  0  0
   -7.8430   14.7390    2.3460 C   0  0  0  0  0  0  0  0  0  0  0  0
  1  2  1  0
  2  3  2  0
  2  4  1  0
  4  5  1  0
  5  6  1  0
  6  7  2  0
  6  8  1  0
  7  9  1  0
  8 10  2  0
  7 11  1  0
  9 12  2  0
 10 12  1  0
  9 13  1  0
 11 14  2  0
 12 15  1  0
 13 16  2  0
 14 16  1  0
 15 17  1  0
 17 18  1  0
 17 19  1  0
 18 20  2  0
 19 21  2  0
 20 22  1  0
 21 22  1  0
 22 23  1  0
 23 24  1  0
 23 25  2  0
 25 26  1  0
 24 27  1  0
 26 27  2  0
M  END
