mac-x0375-diamond-x0900_1_A
     RDKit          3D

 12 12  0  0  0  0  0  0  0  0999 V2000
    1.3660   12.9750   -2.7130 O   0  0  0  0  0  0  0  0  0  0  0  0
    0.8700   12.0360   -3.5520 C   0  0  0  0  0  0  0  0  0  0  0  0
    0.5260   10.9570   -3.1090 O   0  0  0  0  0  0  0  0  0  0  0  0
    0.8210   12.4890   -5.0070 C   0  0  0  0  0  0  0  0  0  0  0  0
    0.6710   11.3590   -5.8650 O   0  0  0  0  0  0  0  0  0  0  0  0
   -0.5700   11.2790   -6.5610 C   0  0  1  0  0  0  0  0  0  0  0  0
   -0.7880   10.0350   -7.4770 C   0  0  0  0  0  0  0  0  0  0  0  0
   -1.6580   11.3580   -5.5270 C   0  0  0  0  0  0  0  0  0  0  0  0
   -0.4460    9.9830   -8.6760 O   0  0  0  0  0  0  0  0  0  0  0  0
   -1.4860    8.8640   -6.8980 C   0  0  0  0  0  0  0  0  0  0  0  0
   -2.4370   10.3190   -5.1950 C   0  0  0  0  0  0  0  0  0  0  0  0
   -2.2620    9.0330   -5.8220 C   0  0  0  0  0  0  0  0  0  0  0  0
  1  2  1  0
  2  3  2  0
  2  4  1  0
  4  5  1  0
  6  5  1  1
  6  7  1  0
  6  8  1  0
  7  9  2  0
  7 10  1  0
  8 11  2  0
 10 12  2  0
 11 12  1  0
M  END
