mac-x0263-mac-x0546
     RDKit          3D

 31 34  0  0  0  0  0  0  0  0999 V2000
  -11.5680   14.2840    2.2220 O   0  0  0  0  0  0  0  0  0  0  0  0
  -10.9220   15.3230    2.7970 C   0  0  0  0  0  0  0  0  0  0  0  0
  -11.4310   15.9700    3.6880 O   0  0  0  0  0  0  0  0  0  0  0  0
   -9.5680   15.5810    2.2060 C   0  0  0  0  0  0  0  0  0  0  0  0
   -8.9720   14.2820    1.6940 C   0  0  0  0  0  0  0  0  0  0  0  0
   -7.6570   14.5250    1.0680 C   0  0  0  0  0  0  0  0  0  0  0  0
   -7.5110   14.6830   -0.2800 N   0  0  0  0  0  0  0  0  0  0  0  0
   -6.5040   14.6200    1.6860 N   0  0  0  0  0  0  0  0  0  0  0  0
   -6.1900   14.8780   -0.5320 C   0  0  0  0  0  0  0  0  0  0  0  0
   -5.5740   14.8370    0.7110 C   0  0  0  0  0  0  0  0  0  0  0  0
   -5.5040   15.0760   -1.7060 C   0  0  0  0  0  0  0  0  0  0  0  0
   -4.1900   15.0060    0.8120 C   0  0  0  0  0  0  0  0  0  0  0  0
   -4.1250   15.2260   -1.6060 C   0  0  0  0  0  0  0  0  0  0  0  0
   -3.4710   15.1970   -0.3660 C   0  0  0  0  0  0  0  0  0  0  0  0
   -3.3660   15.4040   -2.8720 C   0  0  0  0  0  0  0  0  0  0  0  0
   -4.0970   14.9010   -4.0970 C   0  0  0  0  0  0  0  0  0  0  0  0
   -3.6580   15.6970   -5.2450 N   0  0  0  0  0  0  0  0  0  0  0  0
   -4.4210   15.2700   -6.4090 C   0  0  0  0  0  0  0  0  0  0  0  0
   -2.2840   15.8740   -5.3230 C   0  0  0  0  0  0  0  0  0  0  0  0
   -1.4790   14.8090   -5.1390 C   0  0  0  0  0  0  0  0  0  0  0  0
   -1.6620   17.1910   -5.6040 C   0  0  0  0  0  0  0  0  0  0  0  0
   -0.0090   14.9230   -5.2340 C   0  0  1  0  0  0  0  0  0  0  0  0
   -0.3540   17.4480   -5.3770 C   0  0  0  0  0  0  0  0  0  0  0  0
    0.3860   16.3080   -4.8180 C   0  0  0  0  0  0  0  0  0  0  0  0
    0.9220   14.1730   -4.3590 C   0  0  0  0  0  0  0  0  0  0  0  0
    0.9030   12.6840   -4.3310 C   0  0  0  0  0  0  0  0  0  0  0  0
    1.3460   16.3780   -3.9760 N   0  0  0  0  0  0  0  0  0  0  0  0
    1.6710   15.0660   -3.7120 C   0  0  0  0  0  0  0  0  0  0  0  0
    0.5850   12.0420   -2.9800 C   0  0  0  0  0  0  0  0  0  0  0  0
    0.9330   12.4660   -1.8910 O   0  0  0  0  0  0  0  0  0  0  0  0
   -0.1580   10.9120   -3.0940 O   0  0  0  0  0  0  0  0  0  0  0  0
  1  2  1  0
  2  3  2  0
  2  4  1  0
  4  5  1  0
  5  6  1  0
  6  7  1  0
  6  8  2  0
  7  9  1  0
  8 10  1  0
  9 10  2  0
  9 11  1  0
 10 12  1  0
 11 13  2  0
 12 14  2  0
 13 14  1  0
 13 15  1  0
 15 16  1  0
 16 17  1  0
 17 18  1  0
 17 19  1  0
 19 20  2  0
 19 21  1  0
 22 20  1  1
 21 23  2  0
 22 24  1  0
 23 24  1  0
 22 25  1  0
 25 26  1  0
 24 27  2  0
 25 28  2  0
 27 28  1  0
 26 29  1  0
 29 30  2  0
 29 31  1  0
M  END
