mac-x0137-mac-x0371
     RDKit          3D

 27 30  0  0  0  0  0  0  0  0999 V2000
   -1.6870   13.7260   -5.3360 O   0  0  0  0  0  0  0  0  0  0  0  0
   -2.4540   13.4860   -4.1760 C   0  0  1  0  0  0  0  0  0  0  0  0
   -2.0220   12.1230   -3.6170 C   0  0  0  0  0  0  0  0  0  0  0  0
   -0.4850   14.2490   -4.9620 C   0  0  0  0  0  0  0  0  0  0  0  0
   -2.1860   14.6820   -3.2460 C   0  0  0  0  0  0  0  0  0  0  0  0
    0.5320   13.3460   -4.6000 C   0  0  0  0  0  0  0  0  0  0  0  0
   -0.2730   15.6410   -4.9280 C   0  0  0  0  0  0  0  0  0  0  0  0
    0.3260   11.8380   -4.6130 C   0  0  0  0  0  0  0  0  0  0  0  0
   -1.0250   14.5360   -2.3320 N   0  0  0  0  0  0  0  0  0  0  0  0
   -0.8530   12.1820   -2.6380 C   0  0  0  0  0  0  0  0  0  0  0  0
    0.9550   16.1400   -4.5330 C   0  0  0  0  0  0  0  0  0  0  0  0
    1.7550   13.8770   -4.2150 C   0  0  0  0  0  0  0  0  0  0  0  0
    3.0640   12.8590   -3.7630 Cl  0  0  0  0  0  0  0  0  0  0  0  0
    0.4290   11.1510   -3.2340 C   0  0  0  0  0  0  0  0  0  0  0  0
   -0.1030   13.4990   -2.7200 C   0  0  0  0  0  0  0  0  0  0  0  0
   -1.2830   14.6210   -0.9890 C   0  0  0  0  0  0  0  0  0  0  0  0
    1.9580   15.2510   -4.1790 C   0  0  0  0  0  0  0  0  0  0  0  0
    1.1880   11.8460   -2.3550 O   0  0  0  0  0  0  0  0  0  0  0  0
   -0.0750   10.0880   -2.8650 O   0  0  0  0  0  0  0  0  0  0  0  0
   -0.2850   14.3860   -0.0630 N   0  0  0  0  0  0  0  0  0  0  0  0
   -2.4750   14.9330   -0.4890 C   0  0  0  0  0  0  0  0  0  0  0  0
   -0.5230   14.3830    1.2710 C   0  0  0  0  0  0  0  0  0  0  0  0
   -2.6480   14.9840    0.9680 C   0  0  0  0  0  0  0  0  0  0  0  0
   -3.7690   15.2810   -0.9820 C   0  0  0  0  0  0  0  0  0  0  0  0
   -1.6470   14.6590    1.8290 N   0  0  0  0  0  0  0  0  0  0  0  0
   -3.8410   15.3620    1.3080 N   0  0  0  0  0  0  0  0  0  0  0  0
   -4.4980   15.5290    0.1040 C   0  0  0  0  0  0  0  0  0  0  0  0
  2  1  1  6
  2  3  1  0
  1  4  1  0
  2  5  1  0
  4  6  2  0
  4  7  1  0
  6  8  1  0
  5  9  1  0
  3 10  1  0
  7 11  2  0
  6 12  1  0
 12 13  1  0
  8 14  1  0
  9 15  1  0
 10 15  1  0
  9 16  1  0
 11 17  1  0
 12 17  2  0
 14 18  1  0
 14 19  2  0
 16 20  1  0
 16 21  2  0
 20 22  1  0
 21 23  1  0
 21 24  1  0
 22 25  2  0
 23 25  1  0
 23 26  2  0
 24 27  2  0
 26 27  1  0
M  END
