mac-x0365-mac-x0472
     RDKit          3D

 24 26  0  0  0  0  0  0  0  0999 V2000
   -2.1220   12.7680   -1.7070 O   0  0  0  0  0  0  0  0  0  0  0  0
   -2.5480   14.1290   -1.6080 C   0  0  1  0  0  0  0  0  0  0  0  0
   -2.1050   14.8370   -2.7420 O   0  0  0  0  0  0  0  0  0  0  0  0
   -4.0180   14.2680   -1.2990 C   0  0  0  0  0  0  0  0  0  0  0  0
   -2.2250   14.5180   -0.2260 C   0  0  0  0  0  0  0  0  0  0  0  0
   -2.9290   14.3260   -4.0420 S   0  0  0  0  0  0  0  0  0  0  0  0
   -4.8880   15.1330   -1.9680 C   0  0  0  0  0  0  0  0  0  0  0  0
   -4.5200   13.4940   -0.2350 C   0  0  0  0  0  0  0  0  0  0  0  0
   -1.1160   14.4640    0.4530 N   0  0  0  0  0  0  0  0  0  0  0  0
   -3.6220   15.0880    0.6180 S   0  0  0  0  0  0  0  0  0  0  0  0
   -4.0310   15.3150   -4.2390 O   0  0  0  0  0  0  0  0  0  0  0  0
   -6.2120   15.2050   -1.5640 C   0  0  0  0  0  0  0  0  0  0  0  0
   -5.8410   13.5810    0.1600 C   0  0  0  0  0  0  0  0  0  0  0  0
   -3.7360   12.8570   -3.2680 C   0  0  0  0  0  0  0  0  0  0  0  0
   -2.6420   15.1860    1.9430 C   0  0  0  0  0  0  0  0  0  0  0  0
   -1.3790   14.8540    1.7310 N   0  0  0  0  0  0  0  0  0  0  0  0
   -7.0430   16.0210   -2.1980 F   0  0  0  0  0  0  0  0  0  0  0  0
   -6.6870   14.4450   -0.5110 C   0  0  0  0  0  0  0  0  0  0  0  0
   -3.0230   11.6710   -3.0430 C   0  0  0  0  0  0  0  0  0  0  0  0
   -5.0940   12.9000   -2.8900 C   0  0  0  0  0  0  0  0  0  0  0  0
   -7.9920   14.5660   -0.1530 O   0  0  0  0  0  0  0  0  0  0  0  0
   -3.6430   10.5600   -2.4550 C   0  0  0  0  0  0  0  0  0  0  0  0
   -5.7100   11.7850   -2.3000 C   0  0  0  0  0  0  0  0  0  0  0  0
   -4.9840   10.6220   -2.0870 C   0  0  0  0  0  0  0  0  0  0  0  0
  2  1  1  6
  2  3  1  0
  2  4  1  0
  2  5  1  0
  6  3  1  1
  4  7  2  0
  4  8  1  0
  5  9  2  0
  5 10  1  0
  6 11  2  0
  7 12  1  0
  8 13  2  0
  6 14  1  0
 10 15  1  0
  9 16  1  0
 15 16  2  0
 12 17  1  0
 12 18  2  0
 13 18  1  0
 14 19  2  0
 14 20  1  0
 18 21  1  0
 19 22  1  0
 20 23  2  0
 22 24  2  0
 23 24  1  0
M  END
