mac-x0138-diamond-x0438_0_A
     RDKit          3D

 21 23  0  0  0  0  0  0  0  0999 V2000
   -2.3820   15.0240   -3.3560 C   0  0  0  0  0  0  0  0  0  0  0  0
   -3.0840   14.5360   -2.1830 N   0  0  0  0  0  0  0  0  0  0  0  0
   -4.4950   14.9240   -1.9740 C   0  0  0  0  0  0  0  0  0  0  0  0
   -2.5400   14.7630   -0.8890 C   0  0  1  0  0  0  0  0  0  0  0  0
   -4.8490   14.3110   -0.5710 C   0  0  1  0  0  0  0  0  0  0  0  0
   -3.4650   14.0600    0.0540 C   0  0  2  0  0  0  0  0  0  0  0  0
   -1.1350   14.4850   -0.6640 N   0  0  0  0  0  0  0  0  0  0  0  0
   -3.1200   14.6060    1.4120 C   0  0  2  0  0  0  0  0  0  0  0  0
   -0.7590   14.9540    0.6300 C   0  0  2  0  0  0  0  0  0  0  0  0
   -5.9630   15.0000    0.2840 N   0  0  0  0  0  0  0  0  0  0  0  0
   -5.5020   12.9970   -0.6770 C   0  0  0  0  0  0  0  0  0  0  0  0
   -4.1090   15.5310    1.8920 N   0  0  0  0  0  0  0  0  0  0  0  0
   -0.2140   13.8290    1.2930 N   0  0  0  0  0  0  0  0  0  0  0  0
   -1.8750   15.3320    1.4500 N   0  0  0  0  0  0  0  0  0  0  0  0
   -6.9040   14.0720    0.4970 C   0  0  0  0  0  0  0  0  0  0  0  0
   -6.6160   12.8840   -0.0630 N   0  0  0  0  0  0  0  0  0  0  0  0
   -8.2610   14.0090    1.2110 C   0  0  0  0  0  0  0  0  0  0  0  0
   -8.9290   15.2090    2.3540 S   0  0  0  0  0  0  0  0  0  0  0  0
   -7.7910   15.3880    3.7120 C   0  0  0  0  0  0  0  0  0  0  0  0
  -10.0960   14.5670    2.9480 O   0  0  0  0  0  0  0  0  0  0  0  0
   -9.1730   16.4650    1.6870 O   0  0  0  0  0  0  0  0  0  0  0  0
  1  2  1  0
  2  3  1  0
  2  4  1  0
  5  3  1  6
  4  6  1  0
  5  6  1  0
  4  7  1  6
  6  8  1  1
  7  9  1  0
  5 10  1  0
  5 11  1  0
  8 12  1  6
  9 13  1  1
  8 14  1  0
  9 14  1  0
 10 15  2  0
 11 16  2  0
 15 16  1  0
 15 17  1  0
 18 17  1  0
 18 19  1  0
 18 20  2  0
 18 21  2  0
M  END
