mac-x0179-diamond-x0969_0_A
     RDKit          3D

 28 31  0  0  0  0  0  0  0  0999 V2000
    1.5370   12.9240   -2.2440 O   0  0  0  0  0  0  0  0  0  0  0  0
    0.9660   12.1510   -3.1890 C   0  0  0  0  0  0  0  0  0  0  0  0
    0.6550   11.0030   -2.9220 O   0  0  0  0  0  0  0  0  0  0  0  0
    0.7950   12.8760   -4.5100 C   0  0  0  0  0  0  0  0  0  0  0  0
    0.0420   12.0360   -5.4190 N   0  0  0  0  0  0  0  0  0  0  0  0
    0.7220   11.5030   -6.4810 C   0  0  0  0  0  0  0  0  0  0  0  0
   -1.1010   11.3230   -5.1740 C   0  0  0  0  0  0  0  0  0  0  0  0
    1.8010   11.8280   -6.9030 O   0  0  0  0  0  0  0  0  0  0  0  0
   -1.9990   11.4080   -4.2660 N   0  0  0  0  0  0  0  0  0  0  0  0
   -0.0770   10.4180   -7.0300 C   0  0  0  0  0  0  0  0  0  0  0  0
   -1.1940   10.3000   -6.2310 C   0  0  0  0  0  0  0  0  0  0  0  0
   -2.0840   12.3420   -3.1560 C   0  0  0  0  0  0  0  0  0  0  0  0
    0.1460    9.6010   -8.1240 C   0  0  0  0  0  0  0  0  0  0  0  0
   -2.1620    9.3440   -6.4870 C   0  0  0  0  0  0  0  0  0  0  0  0
   -2.5640   13.7250   -3.6230 C   0  0  0  0  0  0  0  0  0  0  0  0
   -0.8210    8.6280   -8.4000 C   0  0  0  0  0  0  0  0  0  0  0  0
   -1.9650    8.5010   -7.5870 C   0  0  0  0  0  0  0  0  0  0  0  0
   -2.4420   14.8780   -2.6030 C   0  0  0  0  0  0  0  0  0  0  0  0
   -3.4900   14.8930   -1.5120 C   0  0  0  0  0  0  0  0  0  0  0  0
   -4.7890   14.8170   -1.8480 C   0  0  0  0  0  0  0  0  0  0  0  0
   -3.0940   14.9810   -0.0960 C   0  0  0  0  0  0  0  0  0  0  0  0
   -5.7870   14.7870   -0.8520 C   0  0  0  0  0  0  0  0  0  0  0  0
   -4.0480   14.9620    0.8590 C   0  0  0  0  0  0  0  0  0  0  0  0
   -7.0920   14.6910   -0.9310 N   0  0  0  0  0  0  0  0  0  0  0  0
   -5.3910   14.8540    0.4710 N   0  0  0  0  0  0  0  0  0  0  0  0
   -6.5840   14.7840    1.1830 C   0  0  0  0  0  0  0  0  0  0  0  0
   -7.5920   14.6860    0.3460 N   0  0  0  0  0  0  0  0  0  0  0  0
   -6.6810   14.8180    2.5240 N   0  0  0  0  0  0  0  0  0  0  0  0
  1  2  1  0
  2  3  2  0
  2  4  1  0
  4  5  1  0
  5  6  1  0
  5  7  1  0
  6  8  2  0
  7  9  2  3
  6 10  1  0
  7 11  1  0
 10 11  2  0
  9 12  1  0
 10 13  1  0
 11 14  1  0
 12 15  1  0
 13 16  2  0
 14 17  2  0
 16 17  1  0
 15 18  1  0
 18 19  1  0
 19 20  2  0
 19 21  1  0
 20 22  1  0
 21 23  2  0
 22 24  2  0
 22 25  1  0
 23 25  1  0
 25 26  1  0
 24 27  1  0
 26 27  2  0
 26 28  1  0
M  END
