mac-x0397-mac-x0451
     RDKit          3D

 12 13  0  0  0  0  0  0  0  0999 V2000
   -6.6770   15.3120   -2.3730 Cl  0  0  0  0  0  0  0  0  0  0  0  0
   -5.0860   15.0890   -1.8120 C   0  0  0  0  0  0  0  0  0  0  0  0
   -4.9820   14.9200   -0.4320 C   0  0  0  0  0  0  0  0  0  0  0  0
   -3.9730   15.0710   -2.6440 C   0  0  0  0  0  0  0  0  0  0  0  0
   -6.0140   14.9240    0.4880 N   0  0  0  0  0  0  0  0  0  0  0  0
   -3.7100   14.7230    0.0910 C   0  0  0  0  0  0  0  0  0  0  0  0
   -2.7270   14.8720   -2.0740 C   0  0  0  0  0  0  0  0  0  0  0  0
   -1.6460   14.8510   -2.8590 F   0  0  0  0  0  0  0  0  0  0  0  0
   -5.5550   14.7410    1.6840 C   0  0  0  0  0  0  0  0  0  0  0  0
   -3.8520   14.5400    1.7700 S   0  0  0  0  0  0  0  0  0  0  0  0
   -2.5620   14.6920   -0.7030 C   0  0  0  0  0  0  0  0  0  0  0  0
   -6.3790   14.7210    2.7540 N   0  0  0  0  0  0  0  0  0  0  0  0
  1  2  1  0
  2  3  2  0
  2  4  1  0
  3  5  1  0
  3  6  1  0
  4  7  2  0
  7  8  1  0
  5  9  2  0
  6 10  1  0
  9 10  1  0
  6 11  2  0
  7 11  1  0
  9 12  1  0
M  END
