mac-x0188-mac-x0392
     RDKit          3D

 17 18  0  0  0  0  0  0  0  0999 V2000
    1.1690   12.8460   -5.2100 C   0  0  0  0  0  0  0  0  0  0  0  0
   -0.0770   13.3130   -4.5720 C   0  0  0  0  0  0  0  0  0  0  0  0
   -1.1640   13.4470   -5.3760 O   0  0  0  0  0  0  0  0  0  0  0  0
   -0.4230   13.6720   -3.2830 C   0  0  0  0  0  0  0  0  0  0  0  0
    0.4340   13.6930   -2.0820 C   0  0  2  0  0  0  0  0  0  0  0  0
   -2.2350   13.8990   -4.6330 N   0  0  0  0  0  0  0  0  0  0  0  0
   -1.7950   14.0450   -3.3650 C   0  0  0  0  0  0  0  0  0  0  0  0
    0.7250   15.1380   -1.9560 N   0  0  0  0  0  0  0  0  0  0  0  0
    1.5000   12.7550   -2.1470 O   0  0  0  0  0  0  0  0  0  0  0  0
   -2.6900   14.5360   -2.3000 C   0  0  0  0  0  0  0  0  0  0  0  0
   -0.0250   15.7040   -2.7720 O   0  0  0  0  0  0  0  0  0  0  0  0
   -3.9590   15.0010   -2.6910 C   0  0  0  0  0  0  0  0  0  0  0  0
   -2.3400   14.5700   -0.9070 C   0  0  0  0  0  0  0  0  0  0  0  0
   -1.0950   14.1420   -0.3500 N   0  0  0  0  0  0  0  0  0  0  0  0
   -4.8720   15.4880   -1.7570 C   0  0  0  0  0  0  0  0  0  0  0  0
   -3.2840   15.0660    0.0040 C   0  0  0  0  0  0  0  0  0  0  0  0
   -4.5320   15.5200   -0.4120 C   0  0  0  0  0  0  0  0  0  0  0  0
  1  2  1  0
  2  3  1  0
  2  4  2  0
  4  5  1  0
  3  6  1  0
  4  7  1  0
  6  7  2  0
  5  8  1  0
  5  9  1  6
  7 10  1  0
  8 11  2  0
 10 12  2  0
 10 13  1  0
 13 14  1  0
 12 15  1  0
 13 16  2  0
 15 17  2  0
 16 17  1  0
M  END
