mac-x0509-mac-x0373
     RDKit          3D

 27 30  0  0  0  0  0  0  0  0999 V2000
   -2.3040    7.4780   -6.0850 O   0  0  0  0  0  0  0  0  0  0  0  0
   -1.3220    8.0480   -6.5280 C   0  0  0  0  0  0  0  0  0  0  0  0
   -1.1310    9.5300   -6.7880 C   0  0  2  0  0  0  0  0  0  0  0  0
   -0.1010    7.5050   -6.9080 N   0  0  0  0  0  0  0  0  0  0  0  0
   -2.3630   10.4230   -6.6710 C   0  0  0  0  0  0  0  0  0  0  0  0
   -0.2360    9.4950   -7.9970 C   0  0  0  0  0  0  0  0  0  0  0  0
    0.3770    8.2420   -7.9930 C   0  0  0  0  0  0  0  0  0  0  0  0
    0.0450   10.4220   -8.9880 C   0  0  0  0  0  0  0  0  0  0  0  0
    1.2950    7.8630   -8.9430 C   0  0  0  0  0  0  0  0  0  0  0  0
   -2.1370   11.2760   -5.4490 C   0  0  0  0  0  0  0  0  0  0  0  0
    0.9730   10.0550   -9.9700 C   0  0  0  0  0  0  0  0  0  0  0  0
    1.5940    8.7910   -9.9440 C   0  0  0  0  0  0  0  0  0  0  0  0
   -1.1050   12.2100   -5.5110 C   0  0  0  0  0  0  0  0  0  0  0  0
   -2.8900   11.1590   -4.2710 C   0  0  0  0  0  0  0  0  0  0  0  0
   -0.8030   13.0160   -4.4210 C   0  0  0  0  0  0  0  0  0  0  0  0
   -2.5890   11.9670   -3.1720 C   0  0  0  0  0  0  0  0  0  0  0  0
   -1.5380   12.8950   -3.2360 C   0  0  0  0  0  0  0  0  0  0  0  0
   -1.2340   13.7180   -1.9950 C   0  0  1  0  0  0  0  0  0  0  0  0
    0.1890   14.2730   -1.8440 C   0  0  0  0  0  0  0  0  0  0  0  0
   -2.4160   14.4800   -1.4330 C   0  0  0  0  0  0  0  0  0  0  0  0
    1.0100   13.4080   -1.1770 O   0  0  0  0  0  0  0  0  0  0  0  0
    0.6090   15.3450   -2.2450 O   0  0  0  0  0  0  0  0  0  0  0  0
   -3.4790   14.9950   -2.1930 C   0  0  0  0  0  0  0  0  0  0  0  0
   -2.4240   14.6500   -0.0420 C   0  0  0  0  0  0  0  0  0  0  0  0
   -4.5210   15.6560   -1.5530 C   0  0  0  0  0  0  0  0  0  0  0  0
   -3.4640   15.3110    0.5860 C   0  0  0  0  0  0  0  0  0  0  0  0
   -4.5060   15.8080   -0.1750 C   0  0  0  0  0  0  0  0  0  0  0  0
  1  2  2  0
  2  3  1  0
  2  4  1  0
  3  5  1  6
  3  6  1  0
  4  7  1  0
  6  7  2  0
  6  8  1  0
  7  9  1  0
  5 10  1  0
  8 11  2  0
  9 12  2  0
 11 12  1  0
 10 13  2  0
 10 14  1  0
 13 15  1  0
 14 16  2  0
 15 17  2  0
 16 17  1  0
 17 18  1  0
 18 19  1  6
 18 20  1  0
 19 21  1  0
 19 22  2  0
 20 23  2  0
 20 24  1  0
 23 25  1  0
 24 26  2  0
 25 27  2  0
 26 27  1  0
M  END
