mac-x0190-mac-x0328
     RDKit          3D

 15 16  0  0  0  0  0  0  0  0999 V2000
   -9.1720   15.0820    2.6350 O   0  0  0  0  0  0  0  0  0  0  0  0
   -9.0620   14.4870    1.3480 C   0  0  0  0  0  0  0  0  0  0  0  0
   -7.6460   14.6170    0.9240 C   0  0  0  0  0  0  0  0  0  0  0  0
   -7.3050   14.6640   -0.3960 N   0  0  0  0  0  0  0  0  0  0  0  0
   -6.5760   14.7020    1.6840 N   0  0  0  0  0  0  0  0  0  0  0  0
   -5.9410   14.7750   -0.4880 C   0  0  0  0  0  0  0  0  0  0  0  0
   -5.5060   14.7990    0.8220 C   0  0  0  0  0  0  0  0  0  0  0  0
   -5.0770   14.8500   -1.5690 C   0  0  0  0  0  0  0  0  0  0  0  0
   -4.1330   14.9110    1.0850 C   0  0  0  0  0  0  0  0  0  0  0  0
   -5.6300   14.8220   -2.8080 O   0  0  0  0  0  0  0  0  0  0  0  0
   -3.6740   14.9350   -1.3220 C   0  0  0  0  0  0  0  0  0  0  0  0
   -3.2390   14.9720    0.0110 C   0  0  0  0  0  0  0  0  0  0  0  0
   -2.5400   14.9750   -2.3290 C   0  0  0  0  0  0  0  0  0  0  0  0
   -2.8440   15.1900   -3.6270 O   0  0  0  0  0  0  0  0  0  0  0  0
   -1.3750   14.8050   -1.9750 O   0  0  0  0  0  0  0  0  0  0  0  0
  1  2  1  0
  2  3  1  0
  3  4  1  0
  3  5  2  0
  4  6  1  0
  5  7  1  0
  6  7  2  0
  6  8  1  0
  7  9  1  0
  8 10  1  0
  8 11  2  0
  9 12  2  0
 11 12  1  0
 11 13  1  0
 13 14  1  0
 13 15  2  0
M  END
