mac-x0161-mac-x0283
     RDKit          3D

 23 26  0  0  0  0  0  0  0  0999 V2000
   -4.3140   15.7540    1.8300 N   0  0  0  0  0  0  0  0  0  0  0  0
   -3.6830   15.5570    0.5060 C   0  0  1  0  0  0  0  0  0  0  0  0
   -2.4140   14.6660    0.5980 C   0  0  1  0  0  0  0  0  0  0  0  0
   -4.5740   14.9250   -0.5800 C   0  0  2  0  0  0  0  0  0  0  0  0
   -3.7240   14.7230   -1.9140 C   0  0  0  0  0  0  0  0  0  0  0  0
   -1.5510   14.6370   -0.6430 C   0  0  2  0  0  0  0  0  0  0  0  0
   -1.3980   15.0140    1.5720 N   0  0  0  0  0  0  0  0  0  0  0  0
   -5.8460   15.6350   -0.8790 O   0  0  0  0  0  0  0  0  0  0  0  0
   -5.1860   13.7040    0.0980 C   0  0  0  0  0  0  0  0  0  0  0  0
   -2.2610   14.3630   -1.8570 N   0  0  0  0  0  0  0  0  0  0  0  0
   -0.5190   13.7500   -0.2040 N   0  0  0  0  0  0  0  0  0  0  0  0
   -0.1900   14.3680    1.0810 C   0  0  0  0  0  0  0  0  0  0  0  0
   -6.1690   14.4680    0.9480 C   0  0  1  0  0  0  0  0  0  0  0  0
   -6.9600   15.0250   -0.0930 N   0  0  0  0  0  0  0  0  0  0  0  0
   -1.4680   14.6290   -3.0590 C   0  0  0  0  0  0  0  0  0  0  0  0
   -6.9420   13.7580    1.9190 N   0  0  0  0  0  0  0  0  0  0  0  0
   -0.9970   13.3250   -3.5550 C   0  0  0  0  0  0  0  0  0  0  0  0
   -1.3290   12.5410   -4.6250 C   0  0  0  0  0  0  0  0  0  0  0  0
   -0.0310   12.7110   -2.8170 O   0  0  0  0  0  0  0  0  0  0  0  0
    0.2800   11.4950   -3.3990 N   0  0  0  0  0  0  0  0  0  0  0  0
   -0.5090   11.4190   -4.4700 C   0  0  0  0  0  0  0  0  0  0  0  0
   -0.4970   10.3530   -5.2960 O   0  0  0  0  0  0  0  0  0  0  0  0
   -1.7030   10.1820   -6.0290 C   0  0  0  0  0  0  0  0  0  0  0  0
  2  1  1  1
  2  3  1  0
  2  4  1  0
  4  5  1  6
  3  6  1  0
  3  7  1  1
  4  8  1  0
  4  9  1  0
  5 10  1  0
  6 10  1  0
  6 11  1  1
  7 12  1  0
 11 12  1  0
  9 13  1  0
  8 14  1  0
 13 14  1  0
 10 15  1  0
 13 16  1  1
 15 17  1  0
 17 18  2  0
 17 19  1  0
 19 20  1  0
 18 21  1  0
 20 21  2  0
 21 22  1  0
 22 23  1  0
M  END
