mac-x0224-mac-x0338
     RDKit          3D

 13 13  0  0  0  0  0  0  0  0999 V2000
   -5.1360   14.4280    1.1950 C   0  0  0  0  0  0  0  0  0  0  0  0
   -3.5930   15.2640    1.1480 S   0  0  0  0  0  0  0  0  0  0  0  0
   -3.0760   15.0420   -0.5360 C   0  0  0  0  0  0  0  0  0  0  0  0
   -6.2280   14.9680    1.0910 O   0  0  0  0  0  0  0  0  0  0  0  0
   -1.7490   14.6860   -0.7910 C   0  0  0  0  0  0  0  0  0  0  0  0
   -3.9570   15.2190   -1.6040 C   0  0  0  0  0  0  0  0  0  0  0  0
   -1.2930   14.5110   -2.1090 C   0  0  0  0  0  0  0  0  0  0  0  0
   -3.5150   15.0450   -2.9170 C   0  0  0  0  0  0  0  0  0  0  0  0
    0.1250   14.1380   -2.3360 C   0  0  0  0  0  0  0  0  0  0  0  0
   -2.1880   14.6940   -3.1680 C   0  0  0  0  0  0  0  0  0  0  0  0
   -1.7790   14.5310   -4.4610 O   0  0  0  0  0  0  0  0  0  0  0  0
    0.9850   13.9450   -1.5070 O   0  0  0  0  0  0  0  0  0  0  0  0
    0.4070   14.0160   -3.6420 O   0  0  0  0  0  0  0  0  0  0  0  0
  1  2  1  0
  2  3  1  0
  1  4  2  0
  3  5  2  0
  3  6  1  0
  5  7  1  0
  6  8  2  0
  7  9  1  0
  7 10  2  0
  8 10  1  0
 10 11  1  0
  9 12  2  0
  9 13  1  0
M  END
