mac-x0436-mac-x0319
     RDKit          3D

 23 25  0  0  0  0  0  0  0  0999 V2000
    0.3200   10.9620   -3.0520 O   0  0  0  0  0  0  0  0  0  0  0  0
    0.7810   12.1930   -2.7620 C   0  0  0  0  0  0  0  0  0  0  0  0
    0.8060   12.5800   -1.5890 O   0  0  0  0  0  0  0  0  0  0  0  0
    1.2400   13.0430   -3.9650 C   0  0  1  0  0  0  0  0  0  0  0  0
    1.0700   12.4970   -5.3740 C   0  0  0  0  0  0  0  0  0  0  0  0
    0.5670   14.3480   -4.1590 C   0  0  0  0  0  0  0  0  0  0  0  0
   -0.0420   11.5100   -5.6260 C   0  0  0  0  0  0  0  0  0  0  0  0
    1.2650   15.5370   -4.0400 C   0  0  0  0  0  0  0  0  0  0  0  0
   -0.7970   14.3630   -4.4890 C   0  0  0  0  0  0  0  0  0  0  0  0
   -1.3380   11.3890   -4.7850 C   0  0  0  0  0  0  0  0  0  0  0  0
    0.2020   10.7540   -6.6320 N   0  0  0  0  0  0  0  0  0  0  0  0
    0.6000   16.7280   -4.2530 C   0  0  0  0  0  0  0  0  0  0  0  0
   -1.4520   15.5630   -4.7020 C   0  0  0  0  0  0  0  0  0  0  0  0
   -1.5710   12.0810   -3.8080 O   0  0  0  0  0  0  0  0  0  0  0  0
    1.3080   17.8750   -4.1280 O   0  0  0  0  0  0  0  0  0  0  0  0
   -2.2230   10.4270   -5.2320 N   0  0  0  0  0  0  0  0  0  0  0  0
   -0.6940    9.7630   -6.9700 C   0  0  0  0  0  0  0  0  0  0  0  0
   -0.7470   16.7510   -4.5860 C   0  0  0  0  0  0  0  0  0  0  0  0
   -1.9000    9.5730   -6.2930 C   0  0  0  0  0  0  0  0  0  0  0  0
   -0.3480    8.9330   -8.0250 C   0  0  0  0  0  0  0  0  0  0  0  0
   -1.2030    7.9070   -8.4100 C   0  0  0  0  0  0  0  0  0  0  0  0
   -2.7640    8.5470   -6.6690 C   0  0  0  0  0  0  0  0  0  0  0  0
   -2.4060    7.7140   -7.7330 C   0  0  0  0  0  0  0  0  0  0  0  0
  1  2  1  0
  2  3  2  0
  2  4  1  0
  4  5  1  6
  4  6  1  0
  5  7  1  0
  6  8  2  0
  6  9  1  0
  7 10  1  0
  7 11  2  0
  8 12  1  0
  9 13  2  0
 10 14  2  0
 12 15  1  0
 10 16  1  0
 11 17  1  0
 12 18  2  0
 13 18  1  0
 16 19  1  0
 17 19  2  0
 17 20  1  0
 20 21  2  0
 19 22  1  0
 21 23  1  0
 22 23  2  0
M  END
