mac-x0188-mac-x0228
     RDKit          3D

 21 24  0  0  0  0  0  0  0  0999 V2000
    1.3800   13.3210   -5.1550 C   0  0  0  0  0  0  0  0  0  0  0  0
   -0.0040   13.4760   -4.6630 C   0  0  0  0  0  0  0  0  0  0  0  0
   -1.0160   13.3370   -5.5720 O   0  0  0  0  0  0  0  0  0  0  0  0
   -0.5560   13.7440   -3.4390 C   0  0  0  0  0  0  0  0  0  0  0  0
    0.0260   14.0020   -2.1100 C   0  0  0  0  0  0  0  0  0  0  0  0
   -2.2510   13.5080   -4.9490 N   0  0  0  0  0  0  0  0  0  0  0  0
   -1.9770   13.7480   -3.6650 C   0  0  0  0  0  0  0  0  0  0  0  0
    0.1690   12.8950   -1.2630 O   0  0  0  0  0  0  0  0  0  0  0  0
    1.2750   14.6330   -2.1180 O   0  0  0  0  0  0  0  0  0  0  0  0
   -1.1330   14.8610   -1.6020 C   0  0  0  0  0  0  0  0  0  0  0  0
   -3.0530   13.9780   -2.6020 C   0  0  2  0  0  0  0  0  0  0  0  0
   -1.0720   16.0720   -1.6070 O   0  0  0  0  0  0  0  0  0  0  0  0
   -3.9590   15.1900   -2.7480 C   0  0  0  0  0  0  0  0  0  0  0  0
   -2.3450   14.0400   -1.2440 C   0  0  2  0  0  0  0  0  0  0  0  0
   -4.7520   15.5440   -1.7110 C   0  0  0  0  0  0  0  0  0  0  0  0
   -3.2310   14.4940   -0.0700 C   0  0  0  0  0  0  0  0  0  0  0  0
   -4.7060   14.7330   -0.4600 C   0  0  2  0  0  0  0  0  0  0  0  0
   -5.6080   13.5110   -0.7320 C   0  0  0  0  0  0  0  0  0  0  0  0
   -5.4810   15.1830    0.7360 C   0  0  0  0  0  0  0  0  0  0  0  0
   -6.9640   13.9640   -0.4710 O   0  0  0  0  0  0  0  0  0  0  0  0
   -6.7240   14.7050    0.6480 C   0  0  0  0  0  0  0  0  0  0  0  0
  1  2  1  0
  2  3  1  0
  2  4  2  0
  4  5  1  0
  3  6  1  0
  4  7  1  0
  6  7  2  0
  5  8  1  0
  5  9  1  0
  5 10  1  0
  7 11  1  0
 10 12  2  0
 11 13  1  6
 10 14  1  0
 11 14  1  0
 13 15  2  0
 14 16  1  1
 17 15  1  6
 16 17  1  0
 17 18  1  0
 17 19  1  0
 18 20  1  0
 19 21  2  0
 20 21  1  0
M  END
