mac-x0546-mac-x0394
     RDKit          3D

 16 17  0  0  0  0  0  0  0  0999 V2000
   -4.3460   15.3020   -5.8270 C   0  0  0  0  0  0  0  0  0  0  0  0
   -3.5240   16.2490   -5.1450 O   0  0  0  0  0  0  0  0  0  0  0  0
   -2.1880   16.0270   -5.2140 C   0  0  0  0  0  0  0  0  0  0  0  0
   -1.5750   14.8450   -4.9970 C   0  0  0  0  0  0  0  0  0  0  0  0
   -1.4140   17.2110   -5.5770 C   0  0  0  0  0  0  0  0  0  0  0  0
   -0.0990   14.7400   -5.1550 C   0  0  1  0  0  0  0  0  0  0  0  0
   -0.0840   17.2590   -5.3960 C   0  0  0  0  0  0  0  0  0  0  0  0
    0.9240   18.5510   -5.7890 Cl  0  0  0  0  0  0  0  0  0  0  0  0
    0.5220   16.0660   -4.8070 C   0  0  0  0  0  0  0  0  0  0  0  0
    0.7840   13.9110   -4.2950 C   0  0  0  0  0  0  0  0  0  0  0  0
    0.6600   12.4370   -4.1590 C   0  0  0  0  0  0  0  0  0  0  0  0
    1.5330   16.0230   -4.0160 N   0  0  0  0  0  0  0  0  0  0  0  0
    1.6810   14.7020   -3.7140 C   0  0  0  0  0  0  0  0  0  0  0  0
    0.3650   11.9520   -2.7440 C   0  0  0  0  0  0  0  0  0  0  0  0
    0.5410   12.5060   -1.6630 O   0  0  0  0  0  0  0  0  0  0  0  0
   -0.1630   10.7160   -2.7650 O   0  0  0  0  0  0  0  0  0  0  0  0
  1  2  1  0
  2  3  1  0
  3  4  2  0
  3  5  1  0
  6  4  1  1
  5  7  2  0
  7  8  1  0
  6  9  1  0
  7  9  1  0
  6 10  1  0
 10 11  1  0
  9 12  2  0
 10 13  2  0
 12 13  1  0
 11 14  1  0
 14 15  2  0
 14 16  1  0
M  END
