mac-x0283-mac-x0206
     RDKit          3D

 14 15  0  0  0  0  0  0  0  0999 V2000
   -6.7940   14.6780    2.2140 N   0  0  0  0  0  0  0  0  0  0  0  0
   -6.1390   14.8090    1.0340 C   0  0  0  0  0  0  0  0  0  0  0  0
   -6.7220   14.6320   -0.2310 N   0  0  0  0  0  0  0  0  0  0  0  0
   -4.8190   15.1240    0.7630 C   0  0  0  0  0  0  0  0  0  0  0  0
   -8.0430   14.3000   -0.4930 O   0  0  0  0  0  0  0  0  0  0  0  0
   -5.7630   14.8290   -1.1970 C   0  0  0  0  0  0  0  0  0  0  0  0
   -4.6510   15.1280   -0.6180 C   0  0  0  0  0  0  0  0  0  0  0  0
   -3.7800   15.3980    1.6250 C   0  0  0  0  0  0  0  0  0  0  0  0
   -5.7840   14.7530   -2.5640 C   0  0  0  0  0  0  0  0  0  0  0  0
   -3.5100   15.3910   -1.3480 C   0  0  0  0  0  0  0  0  0  0  0  0
   -2.5870   15.6610    0.9050 C   0  0  0  0  0  0  0  0  0  0  0  0
   -4.5590   14.3970   -3.0580 N   0  0  0  0  0  0  0  0  0  0  0  0
   -6.7200   14.9640   -3.2700 O   0  0  0  0  0  0  0  0  0  0  0  0
   -2.4590   15.6610   -0.5090 C   0  0  0  0  0  0  0  0  0  0  0  0
  1  2  1  0
  2  3  1  0
  2  4  2  0
  3  5  1  0
  3  6  1  0
  4  7  1  0
  6  7  2  0
  4  8  1  0
  6  9  1  0
  7 10  1  0
  8 11  2  0
  9 12  1  0
  9 13  2  0
 10 14  2  0
 11 14  1  0
M  END
