mac-x0188-diamond-x0574_0_A
     RDKit          3D

 22 24  0  0  0  0  0  0  0  0999 V2000
    1.2360   13.3340   -5.4360 C   0  0  0  0  0  0  0  0  0  0  0  0
   -0.0310   13.6460   -4.7610 C   0  0  0  0  0  0  0  0  0  0  0  0
   -1.1620   13.5900   -5.5110 O   0  0  0  0  0  0  0  0  0  0  0  0
   -0.3430   13.9930   -3.4790 C   0  0  0  0  0  0  0  0  0  0  0  0
    0.6240   14.1610   -2.3940 C   0  0  0  0  0  0  0  0  0  0  0  0
   -2.2580   13.8880   -4.7290 N   0  0  0  0  0  0  0  0  0  0  0  0
   -1.7850   14.1260   -3.4950 C   0  0  0  0  0  0  0  0  0  0  0  0
    1.1850   15.2210   -2.1940 O   0  0  0  0  0  0  0  0  0  0  0  0
    0.9330   13.0900   -1.5980 O   0  0  0  0  0  0  0  0  0  0  0  0
   -2.6090   14.4380   -2.3390 C   0  0  0  0  0  0  0  0  0  0  0  0
   -3.9300   14.7830   -2.3750 C   0  0  0  0  0  0  0  0  0  0  0  0
   -1.8440   14.2780   -1.1680 C   0  0  0  0  0  0  0  0  0  0  0  0
   -4.9500   15.0410   -1.3380 C   0  0  0  0  0  0  0  0  0  0  0  0
   -2.2000   14.4020    0.4180 S   0  0  0  0  0  0  0  0  0  0  0  0
   -0.5300   13.9560   -1.0580 C   0  0  0  0  0  0  0  0  0  0  0  0
   -4.9890   15.0500    0.0300 C   0  0  0  0  0  0  0  0  0  0  0  0
   -3.8330   14.8090    0.9450 C   0  0  0  0  0  0  0  0  0  0  0  0
    0.0840   13.8380    0.1870 N   0  0  0  0  0  0  0  0  0  0  0  0
   -0.7130   14.0560    1.1310 C   0  0  0  0  0  0  0  0  0  0  0  0
   -6.1450   15.2520    0.7590 O   0  0  0  0  0  0  0  0  0  0  0  0
   -0.2720   13.9770    2.3500 N   0  0  0  0  0  0  0  0  0  0  0  0
   -6.3370   14.6100    2.0220 C   0  0  0  0  0  0  0  0  0  0  0  0
  1  2  1  0
  2  3  1  0
  2  4  2  0
  4  5  1  0
  3  6  1  0
  4  7  1  0
  6  7  2  0
  5  8  2  0
  5  9  1  0
  7 10  1  0
 10 11  2  0
 10 12  1  0
 11 13  1  0
 12 14  1  0
 12 15  2  0
 13 16  2  0
 14 17  2  0
 16 17  1  0
 15 18  1  0
 14 19  1  0
 18 19  2  0
 16 20  1  0
 19 21  1  0
 20 22  1  0
M  END
