mac-x0132-mac-x0193
     RDKit          3D

 28 30  0  0  0  0  0  0  0  0999 V2000
   -4.2360   15.2800    1.9490 N   0  0  0  0  0  0  0  0  0  0  0  0
   -5.2150   15.0260    1.0020 C   0  0  0  0  0  0  0  0  0  0  0  0
   -6.4900   14.9340    1.4170 N   0  0  0  0  0  0  0  0  0  0  0  0
   -4.8210   14.8900   -0.3000 C   0  0  0  0  0  0  0  0  0  0  0  0
   -5.8410   14.6950   -1.2200 C   0  0  0  0  0  0  0  0  0  0  0  0
   -7.3920   14.7320    0.4480 C   0  0  0  0  0  0  0  0  0  0  0  0
   -3.4740   14.9340   -0.6900 C   0  0  0  0  0  0  0  0  0  0  0  0
   -7.1330   14.6210   -0.8620 N   0  0  0  0  0  0  0  0  0  0  0  0
   -5.4780   14.5700   -2.5510 C   0  0  0  0  0  0  0  0  0  0  0  0
   -3.1100   14.7720   -2.0190 C   0  0  0  0  0  0  0  0  0  0  0  0
   -1.6460   14.7570   -2.4180 C   0  0  0  0  0  0  0  0  0  0  0  0
   -4.1330   14.6040   -2.9590 C   0  0  0  0  0  0  0  0  0  0  0  0
   -0.7110   14.6320   -1.1870 C   0  0  0  0  0  0  0  0  0  0  0  0
    0.2470   13.4460   -1.3030 C   0  0  0  0  0  0  0  0  0  0  0  0
    0.6180   13.3640   -2.7010 N   0  0  0  0  0  0  0  0  0  0  0  0
    0.6060   12.2750   -3.3620 C   0  0  0  0  0  0  0  0  0  0  0  0
    0.2910   11.0550   -2.8690 O   0  0  0  0  0  0  0  0  0  0  0  0
    0.9480   12.3720   -4.8290 C   0  0  0  0  0  0  0  0  0  0  0  0
    0.1840   11.4880   -5.7030 N   0  0  0  0  0  0  0  0  0  0  0  0
    0.8150   11.2720   -6.8830 C   0  0  0  0  0  0  0  0  0  0  0  0
    1.8980   11.7500   -7.0340 O   0  0  0  0  0  0  0  0  0  0  0  0
    0.1400   10.4940   -7.7930 N   0  0  0  0  0  0  0  0  0  0  0  0
    0.8180   10.0140   -8.9940 C   0  0  0  0  0  0  0  0  0  0  0  0
    1.4040    8.6210   -8.7530 C   0  0  0  0  0  0  0  0  0  0  0  0
   -0.1110    9.9880  -10.2090 C   0  0  0  0  0  0  0  0  0  0  0  0
    2.1450    8.0860   -9.9810 C   0  0  0  0  0  0  0  0  0  0  0  0
    0.6310    9.4890  -11.4460 C   0  0  0  0  0  0  0  0  0  0  0  0
    1.2600    8.1150  -11.2210 C   0  0  0  0  0  0  0  0  0  0  0  0
  1  2  1  0
  2  3  2  0
  2  4  1  0
  4  5  2  0
  3  6  1  0
  4  7  1  0
  5  8  1  0
  6  8  2  0
  5  9  1  0
  7 10  2  0
 10 11  1  0
  9 12  2  0
 10 12  1  0
 11 13  1  0
 13 14  1  0
 14 15  1  0
 15 16  2  3
 16 17  1  0
 16 18  1  0
 18 19  1  0
 19 20  1  0
 20 21  2  0
 20 22  1  0
 22 23  1  0
 23 24  1  0
 23 25  1  0
 24 26  1  0
 25 27  1  0
 26 28  1  0
 27 28  1  0
M  END
