mac-x0344-diamond-x0290_0_A
     RDKit          3D

 27 28  0  0  0  0  0  0  0  0999 V2000
    2.6320   12.7570   -5.2130 O   0  0  0  0  0  0  0  0  0  0  0  0
    1.8250   12.7070   -4.1580 C   0  0  0  0  0  0  0  0  0  0  0  0
    2.0170   13.3430   -3.0680 N   0  0  0  0  0  0  0  0  0  0  0  0
    0.6040   11.7830   -4.3710 C   0  0  0  0  0  0  0  0  0  0  0  0
    0.1850   11.1670   -3.3980 O   0  0  0  0  0  0  0  0  0  0  0  0
    0.1520   11.7510   -5.6670 N   0  0  0  0  0  0  0  0  0  0  0  0
    0.9780   13.1810   -2.1070 C   0  0  0  0  0  0  0  0  0  0  0  0
   -0.2100   13.6370   -2.9460 C   0  0  0  0  0  0  0  0  0  0  0  0
   -0.6410   10.7410   -6.2420 C   0  0  0  0  0  0  0  0  0  0  0  0
   -1.0030   14.7920   -2.3750 C   0  0  0  0  0  0  0  0  0  0  0  0
   -0.2900   10.0380   -7.3910 C   0  0  0  0  0  0  0  0  0  0  0  0
   -1.8490   10.4360   -5.6110 C   0  0  0  0  0  0  0  0  0  0  0  0
   -1.1380    9.0470   -7.8970 C   0  0  0  0  0  0  0  0  0  0  0  0
   -2.6980    9.4490   -6.1110 C   0  0  0  0  0  0  0  0  0  0  0  0
   -1.3100   14.7180   -0.9140 C   0  0  0  0  0  0  0  0  0  0  0  0
   -2.3420    8.7510   -7.2560 C   0  0  0  0  0  0  0  0  0  0  0  0
   -0.2770   14.6170    0.0150 C   0  0  0  0  0  0  0  0  0  0  0  0
   -2.6280   14.7450   -0.4530 C   0  0  0  0  0  0  0  0  0  0  0  0
   -0.5980   14.5450    1.3440 C   0  0  0  0  0  0  0  0  0  0  0  0
   -2.8660   14.6700    0.9010 C   0  0  0  0  0  0  0  0  0  0  0  0
   -4.1500   14.6870    1.4310 N   0  0  0  0  0  0  0  0  0  0  0  0
   -1.8640   14.5700    1.8100 N   0  0  0  0  0  0  0  0  0  0  0  0
   -5.3140   14.4480    0.7370 C   0  0  0  0  0  0  0  0  0  0  0  0
   -5.4510   14.4670   -0.4820 O   0  0  0  0  0  0  0  0  0  0  0  0
   -6.4920   14.1300    1.6720 C   0  0  0  0  0  0  0  0  0  0  0  0
   -7.7220   13.8020    0.9230 N   0  0  0  0  0  0  0  0  0  0  0  0
   -8.5810   14.9610    0.7270 C   0  0  0  0  0  0  0  0  0  0  0  0
  1  2  1  0
  2  3  2  3
  2  4  1  0
  4  5  2  0
  4  6  1  0
  3  7  1  0
  7  8  1  0
  6  9  1  0
  8 10  1  0
  9 11  2  0
  9 12  1  0
 11 13  1  0
 12 14  2  0
 10 15  1  0
 13 16  2  0
 14 16  1  0
 15 17  2  0
 15 18  1  0
 17 19  1  0
 18 20  2  0
 20 21  1  0
 19 22  2  0
 20 22  1  0
 21 23  1  0
 23 24  2  0
 23 25  1  0
 25 26  1  0
 26 27  1  0
M  END
