mac-x0472-mac-x0193
     RDKit          3D

 31 33  0  0  0  0  0  0  0  0999 V2000
   -4.2930   15.4280   -2.4590 O   0  0  0  0  0  0  0  0  0  0  0  0
   -3.2690   14.4190   -2.6210 S   0  0  0  0  0  0  0  0  0  0  0  0
   -2.5790   14.2890   -3.8850 O   0  0  0  0  0  0  0  0  0  0  0  0
   -2.1880   14.4870   -1.3430 N   0  0  0  0  0  0  0  0  0  0  0  0
   -4.0560   12.8260   -2.3370 C   0  0  0  0  0  0  0  0  0  0  0  0
   -0.7220   14.6510   -1.5080 C   0  0  0  0  0  0  0  0  0  0  0  0
   -2.7660   14.7390   -0.0480 C   0  0  0  0  0  0  0  0  0  0  0  0
   -3.4080   11.6480   -2.7200 C   0  0  0  0  0  0  0  0  0  0  0  0
   -5.3210   12.7710   -1.7330 C   0  0  0  0  0  0  0  0  0  0  0  0
    0.1060   13.3540   -1.4850 C   0  0  0  0  0  0  0  0  0  0  0  0
   -2.1250   14.3760    1.0310 N   0  0  0  0  0  0  0  0  0  0  0  0
   -4.2780   15.4980    0.2490 S   0  0  0  0  0  0  0  0  0  0  0  0
   -4.0260   10.4160   -2.5040 C   0  0  0  0  0  0  0  0  0  0  0  0
   -5.9320   11.5330   -1.5190 C   0  0  0  0  0  0  0  0  0  0  0  0
    0.7550   13.1310   -2.7660 N   0  0  0  0  0  0  0  0  0  0  0  0
   -3.9640   15.2660    1.9060 C   0  0  0  0  0  0  0  0  0  0  0  0
   -2.8200   14.6760    2.1660 N   0  0  0  0  0  0  0  0  0  0  0  0
   -5.2880   10.3620   -1.9060 C   0  0  0  0  0  0  0  0  0  0  0  0
    0.8480   12.0220   -3.3850 C   0  0  0  0  0  0  0  0  0  0  0  0
    0.3380   10.9020   -2.8110 O   0  0  0  0  0  0  0  0  0  0  0  0
    1.4580   11.7980   -4.7490 C   0  0  0  0  0  0  0  0  0  0  0  0
    0.5200   11.0500   -5.5640 N   0  0  0  0  0  0  0  0  0  0  0  0
    0.7980   10.9500   -6.8870 C   0  0  0  0  0  0  0  0  0  0  0  0
    1.6710   11.5750   -7.3890 O   0  0  0  0  0  0  0  0  0  0  0  0
   -0.0270   10.0790   -7.5560 N   0  0  0  0  0  0  0  0  0  0  0  0
    0.3440    9.4010   -8.8080 C   0  0  0  0  0  0  0  0  0  0  0  0
    1.4880    8.3830   -8.6480 C   0  0  0  0  0  0  0  0  0  0  0  0
    0.5810   10.3750   -9.9630 C   0  0  0  0  0  0  0  0  0  0  0  0
    2.1960    8.0080   -9.9570 C   0  0  0  0  0  0  0  0  0  0  0  0
    0.8320    9.6660  -11.3020 C   0  0  0  0  0  0  0  0  0  0  0  0
    1.3030    8.2140  -11.1700 C   0  0  0  0  0  0  0  0  0  0  0  0
  1  2  2  0
  2  3  2  0
  2  4  1  0
  2  5  1  0
  4  6  1  0
  4  7  1  0
  5  8  2  0
  5  9  1  0
  6 10  1  0
  7 11  2  0
  7 12  1  0
  8 13  1  0
  9 14  2  0
 10 15  1  0
 12 16  1  0
 11 17  1  0
 16 17  2  0
 13 18  2  0
 14 18  1  0
 15 19  2  3
 19 20  1  0
 19 21  1  0
 21 22  1  0
 22 23  1  0
 23 24  2  0
 23 25  1  0
 25 26  1  0
 26 27  1  0
 26 28  1  0
 27 29  1  0
 28 30  1  0
 29 31  1  0
 30 31  1  0
M  END
