mac-x0123-mac-x0338
     RDKit          3D

 15 18  0  0  0  0  0  0  0  0999 V2000
   -4.1780   14.1110    1.3350 N   0  0  0  0  0  0  0  0  0  0  0  0
   -3.1940   14.8910    0.8620 C   0  0  0  0  0  0  0  0  0  0  0  0
   -2.2230   15.1570    1.4980 O   0  0  0  0  0  0  0  0  0  0  0  0
   -5.2880   14.9010    1.0590 C   0  0  1  0  0  0  0  0  0  0  0  0
   -4.9930   15.4240   -0.2960 N   0  0  0  0  0  0  0  0  0  0  0  0
   -6.5750   14.1630    1.2170 C   0  0  2  0  0  0  0  0  0  0  0  0
   -3.6060   15.3150   -0.4260 N   0  0  0  0  0  0  0  0  0  0  0  0
   -5.5880   14.7990   -1.5000 C   0  0  2  0  0  0  0  0  0  0  0  0
   -7.4210   14.5480   -0.0040 C   0  0  1  0  0  0  0  0  0  0  0  0
   -7.4820   14.4440    2.3610 C   0  0  0  0  0  0  0  0  0  0  0  0
   -3.2740   14.6820   -1.6950 C   0  0  0  0  0  0  0  0  0  0  0  0
   -6.8070   14.0520   -1.2410 N   0  0  0  0  0  0  0  0  0  0  0  0
   -8.8310   14.1550    0.4400 C   0  0  0  0  0  0  0  0  0  0  0  0
   -8.7420   14.4350    1.9260 C   0  0  0  0  0  0  0  0  0  0  0  0
   -4.5360   14.0070   -2.0970 N   0  0  0  0  0  0  0  0  0  0  0  0
  1  2  1  0
  2  3  2  0
  4  1  1  6
  4  5  1  0
  4  6  1  0
  2  7  1  0
  5  7  1  0
  5  8  1  0
  6  9  1  0
  6 10  1  1
  7 11  1  0
  8 12  1  1
  9 12  1  0
  9 13  1  1
 10 14  2  0
 13 14  1  0
  8 15  1  0
 11 15  1  0
M  END
