mac-x0360-diamond-x0864_0_A
     RDKit          3D

 27 28  0  0  0  0  0  0  0  0999 V2000
   -7.6130   11.6370    1.7320 Cl  0  0  0  0  0  0  0  0  0  0  0  0
   -6.4120   11.8970    0.5270 C   0  0  0  0  0  0  0  0  0  0  0  0
   -6.2370   10.9540   -0.4770 C   0  0  0  0  0  0  0  0  0  0  0  0
   -5.6270   13.0500    0.5670 C   0  0  0  0  0  0  0  0  0  0  0  0
   -4.6540   13.2490   -0.4210 C   0  0  0  0  0  0  0  0  0  0  0  0
   -5.2610   11.1560   -1.4540 C   0  0  0  0  0  0  0  0  0  0  0  0
   -5.0510    9.9750   -2.6860 Cl  0  0  0  0  0  0  0  0  0  0  0  0
   -3.6690   14.7370   -0.3620 S   0  0  0  0  0  0  0  0  0  0  0  0
   -4.4620   12.3030   -1.4350 C   0  0  0  0  0  0  0  0  0  0  0  0
   -2.4470   14.4620   -1.4680 N   0  0  0  0  0  0  0  0  0  0  0  0
   -4.5000   15.8140   -0.8450 O   0  0  0  0  0  0  0  0  0  0  0  0
   -3.0230   14.8060    0.9280 O   0  0  0  0  0  0  0  0  0  0  0  0
   -1.1310   13.9780   -1.0170 C   0  0  0  0  0  0  0  0  0  0  0  0
   -0.0220   14.8870   -1.5560 C   0  0  0  0  0  0  0  0  0  0  0  0
    1.2450   14.1370   -1.9740 C   0  0  0  0  0  0  0  0  0  0  0  0
    0.9530   12.7200   -1.9310 N   0  0  0  0  0  0  0  0  0  0  0  0
    0.6900   12.0260   -2.9720 C   0  0  0  0  0  0  0  0  0  0  0  0
    0.6440   12.6180   -4.3780 C   0  0  0  0  0  0  0  0  0  0  0  0
    0.4270   10.7070   -2.9160 O   0  0  0  0  0  0  0  0  0  0  0  0
   -0.1300   11.7750   -5.2900 N   0  0  0  0  0  0  0  0  0  0  0  0
   -1.3200   11.1960   -4.8740 C   0  0  0  0  0  0  0  0  0  0  0  0
    0.5160   11.3670   -6.4460 C   0  0  0  0  0  0  0  0  0  0  0  0
    1.5470   11.8720   -6.8640 O   0  0  0  0  0  0  0  0  0  0  0  0
   -1.8710   10.1820   -5.5560 C   0  0  0  0  0  0  0  0  0  0  0  0
   -0.0880   10.2330   -7.1860 C   0  0  0  0  0  0  0  0  0  0  0  0
   -1.2240    9.6800   -6.7440 C   0  0  0  0  0  0  0  0  0  0  0  0
   -2.0230    8.2450   -7.6310 Br  0  0  0  0  0  0  0  0  0  0  0  0
  1  2  1  0
  2  3  2  0
  2  4  1  0
  4  5  2  0
  3  6  1  0
  6  7  1  0
  5  8  1  0
  5  9  1  0
  6  9  2  0
  8 10  1  0
  8 11  2  0
  8 12  2  0
 10 13  1  0
 13 14  1  0
 14 15  1  0
 15 16  1  0
 16 17  2  3
 17 18  1  0
 17 19  1  0
 18 20  1  0
 20 21  1  0
 20 22  1  0
 22 23  2  0
 21 24  2  0
 22 25  1  0
 24 26  1  0
 25 26  2  0
 26 27  1  0
M  END
