mac-x0139-diamond-x0969_0_A
     RDKit          3D

 21 23  0  0  0  0  0  0  0  0999 V2000
   -2.2390   15.3190   -3.1740 C   0  0  0  0  0  0  0  0  0  0  0  0
   -1.0170   15.6190   -2.4150 N   0  0  0  0  0  0  0  0  0  0  0  0
    0.2180   15.0290   -3.0190 C   0  0  0  0  0  0  0  0  0  0  0  0
   -1.1560   15.2940   -1.0400 C   0  0  0  0  0  0  0  0  0  0  0  0
    0.0080   13.6160   -3.5920 C   0  0  0  0  0  0  0  0  0  0  0  0
   -2.3620   14.9570   -0.4590 C   0  0  0  0  0  0  0  0  0  0  0  0
   -0.0640   15.3090   -0.2770 N   0  0  0  0  0  0  0  0  0  0  0  0
    0.8770   12.6040   -2.8870 C   0  0  0  0  0  0  0  0  0  0  0  0
   -2.3570   14.6230    0.8840 C   0  0  0  0  0  0  0  0  0  0  0  0
   -0.1920   14.9900    1.0170 C   0  0  0  0  0  0  0  0  0  0  0  0
   -3.7410   14.8660   -1.0090 C   0  0  0  0  0  0  0  0  0  0  0  0
    1.8250   12.8260   -2.1650 O   0  0  0  0  0  0  0  0  0  0  0  0
    0.5110   11.3250   -3.1170 O   0  0  0  0  0  0  0  0  0  0  0  0
   -1.2980   14.6350    1.6610 N   0  0  0  0  0  0  0  0  0  0  0  0
   -3.6210   14.2370    1.3700 N   0  0  0  0  0  0  0  0  0  0  0  0
   -4.5420   14.3420    0.2050 C   0  0  1  0  0  0  0  0  0  0  0  0
   -5.6640   15.2090    0.6900 C   0  0  2  0  0  0  0  0  0  0  0  0
   -5.3880   13.1170   -0.1180 C   0  0  0  0  0  0  0  0  0  0  0  0
   -6.3160   14.8700    1.9630 N   0  0  0  0  0  0  0  0  0  0  0  0
   -6.7550   15.0270   -0.2830 N   0  0  0  0  0  0  0  0  0  0  0  0
   -6.5800   13.6720   -0.8130 N   0  0  0  0  0  0  0  0  0  0  0  0
  1  2  1  0
  2  3  1  0
  2  4  1  0
  3  5  1  0
  4  6  2  0
  4  7  1  0
  5  8  1  0
  6  9  1  0
  7 10  2  0
  6 11  1  0
  8 12  2  0
  8 13  1  0
  9 14  2  0
 10 14  1  0
  9 15  1  0
 16 11  1  6
 16 15  1  0
 16 17  1  0
 16 18  1  0
 17 19  1  1
 17 20  1  0
 18 21  1  0
 20 21  1  0
M  END
