mac-x0555-diamond-x0950_0_A
     RDKit          3D

 20 21  0  0  0  0  0  0  0  0999 V2000
   -7.4960   14.3140    2.8680 N   0  0  0  0  0  0  0  0  0  0  0  0
   -6.9600   14.5180    1.5980 C   0  0  0  0  0  0  0  0  0  0  0  0
   -7.7390   14.7520    0.4710 C   0  0  0  0  0  0  0  0  0  0  0  0
   -5.5870   14.4940    1.4080 C   0  0  0  0  0  0  0  0  0  0  0  0
   -5.0330   14.6950    0.1420 C   0  0  0  0  0  0  0  0  0  0  0  0
   -7.2440   14.9580   -0.7760 N   0  0  0  0  0  0  0  0  0  0  0  0
   -5.9110   14.9290   -0.9320 C   0  0  0  0  0  0  0  0  0  0  0  0
   -3.6440   14.6580   -0.0590 C   0  0  0  0  0  0  0  0  0  0  0  0
   -5.3590   15.1340   -2.1860 C   0  0  0  0  0  0  0  0  0  0  0  0
   -3.1000   14.8490   -1.3280 C   0  0  0  0  0  0  0  0  0  0  0  0
   -1.6010   14.7810   -1.5340 C   0  0  0  0  0  0  0  0  0  0  0  0
   -3.9720   15.0970   -2.3970 C   0  0  0  0  0  0  0  0  0  0  0  0
   -0.9350   13.4090   -1.4830 C   0  0  0  0  0  0  0  0  0  0  0  0
    0.5770   13.5720   -1.3370 C   0  0  0  0  0  0  0  0  0  0  0  0
    1.3190   12.4940   -1.9100 O   0  0  0  0  0  0  0  0  0  0  0  0
    0.8430   11.9320   -3.0510 C   0  0  0  0  0  0  0  0  0  0  0  0
    1.2600   12.7450   -4.2880 C   0  0  1  0  0  0  0  0  0  0  0  0
    0.1780   10.9050   -3.0870 O   0  0  0  0  0  0  0  0  0  0  0  0
    2.7580   12.9940   -4.2460 C   0  0  0  0  0  0  0  0  0  0  0  0
    0.9040   12.1700   -5.5350 O   0  0  0  0  0  0  0  0  0  0  0  0
  1  2  1  0
  2  3  2  0
  2  4  1  0
  4  5  2  0
  3  6  1  0
  5  7  1  0
  6  7  2  0
  5  8  1  0
  7  9  1  0
  8 10  2  0
 10 11  1  0
  9 12  2  0
 10 12  1  0
 11 13  1  0
 13 14  1  0
 14 15  1  0
 15 16  1  0
 16 17  1  0
 16 18  2  0
 17 19  1  6
 17 20  1  0
M  END
