mac-x0572-mac-x0412
     RDKit          3D

 13 14  0  0  0  0  0  0  0  0999 V2000
   -7.9240   14.5300    3.1830 C   0  0  0  0  0  0  0  0  0  0  0  0
   -7.1910   14.6390    1.8650 C   0  0  0  0  0  0  0  0  0  0  0  0
   -5.8350   14.7390    2.0330 N   0  0  0  0  0  0  0  0  0  0  0  0
   -7.8060   14.6360    0.6660 C   0  0  0  0  0  0  0  0  0  0  0  0
   -9.1710   14.5320    0.4780 O   0  0  0  0  0  0  0  0  0  0  0  0
   -6.9350   14.7620   -0.5590 C   0  0  0  0  0  0  0  0  0  0  0  0
   -5.0630   15.0730    1.0490 C   0  0  0  0  0  0  0  0  0  0  0  0
   -7.3390   14.3780   -1.6530 O   0  0  0  0  0  0  0  0  0  0  0  0
   -5.5660   15.3920   -0.3450 C   0  0  1  0  0  0  0  0  0  0  0  0
   -3.6140   15.1330    1.3230 C   0  0  0  0  0  0  0  0  0  0  0  0
   -2.7740   15.0890    0.2920 C   0  0  0  0  0  0  0  0  0  0  0  0
   -4.5240   15.1180   -1.3930 C   0  0  0  0  0  0  0  0  0  0  0  0
   -3.2280   14.9870   -1.0770 C   0  0  0  0  0  0  0  0  0  0  0  0
  1  2  1  0
  2  3  1  0
  2  4  2  0
  4  5  1  0
  4  6  1  0
  3  7  2  0
  6  8  2  0
  6  9  1  0
  7  9  1  0
  7 10  1  0
 10 11  2  0
  9 12  1  6
 11 13  1  0
 12 13  2  0
M  END
