mac-x0226-mac-x0415
     RDKit          3D

 25 28  0  0  0  0  0  0  0  0999 V2000
    1.2460   13.3860   -3.2730 O   0  0  0  0  0  0  0  0  0  0  0  0
    0.4150   12.3860   -3.5270 C   0  0  0  0  0  0  0  0  0  0  0  0
   -0.2460   12.1730   -2.5400 N   0  0  0  0  0  0  0  0  0  0  0  0
    0.5920   11.9690   -4.8170 C   0  0  0  0  0  0  0  0  0  0  0  0
    0.2300   13.3330   -1.8620 C   0  0  0  0  0  0  0  0  0  0  0  0
    1.6650   12.4240   -5.5810 C   0  0  0  0  0  0  0  0  0  0  0  0
   -0.1190   11.1570   -5.6340 C   0  0  0  0  0  0  0  0  0  0  0  0
    1.6430   11.9520   -6.7920 N   0  0  0  0  0  0  0  0  0  0  0  0
    0.5410   11.1810   -6.8270 N   0  0  0  0  0  0  0  0  0  0  0  0
    0.3980   14.3710   -2.9910 C   0  0  0  0  0  0  0  0  0  0  0  0
    0.1830   10.5330   -8.0010 C   0  0  0  0  0  0  0  0  0  0  0  0
    1.5910   15.2100   -3.1600 C   0  0  0  0  0  0  0  0  0  0  0  0
   -0.3250   14.8390   -4.0600 C   0  0  0  0  0  0  0  0  0  0  0  0
   -0.8810    9.6390   -7.9710 C   0  0  0  0  0  0  0  0  0  0  0  0
    0.8620   10.7780   -9.1890 C   0  0  0  0  0  0  0  0  0  0  0  0
    1.6340   16.0790   -4.1220 N   0  0  0  0  0  0  0  0  0  0  0  0
    0.3910   15.8950   -4.8350 C   0  0  2  0  0  0  0  0  0  0  0  0
   -1.6210   14.5250   -4.6010 C   0  0  0  0  0  0  0  0  0  0  0  0
   -1.2610    8.9930   -9.1410 C   0  0  0  0  0  0  0  0  0  0  0  0
    0.4850   10.1350  -10.3510 C   0  0  0  0  0  0  0  0  0  0  0  0
   -0.4670   17.1040   -5.0410 C   0  0  0  0  0  0  0  0  0  0  0  0
   -2.3280   15.5360   -5.1690 C   0  0  0  0  0  0  0  0  0  0  0  0
   -3.9980   15.2170   -5.9320 Br  0  0  0  0  0  0  0  0  0  0  0  0
   -0.5780    9.2420  -10.3310 C   0  0  0  0  0  0  0  0  0  0  0  0
   -1.7880   16.9040   -5.2070 C   0  0  0  0  0  0  0  0  0  0  0  0
  1  2  1  0
  2  3  2  3
  2  4  1  0
  3  5  1  0
  4  6  1  0
  4  7  2  0
  6  8  2  0
  7  9  1  0
  8  9  1  0
  5 10  1  0
  9 11  1  0
 10 12  1  0
 10 13  2  0
 11 14  2  0
 11 15  1  0
 12 16  2  0
 13 17  1  0
 16 17  1  0
 13 18  1  0
 14 19  1  0
 15 20  2  0
 17 21  1  1
 18 22  2  0
 22 23  1  0
 19 24  2  0
 20 24  1  0
 21 25  2  0
 22 25  1  0
M  END
