mac-x0271-mac-x1494
     RDKit          3D

 18 20  0  0  0  0  0  0  0  0999 V2000
   -3.9330   16.2860   -2.2410 O   0  0  0  0  0  0  0  0  0  0  0  0
   -4.8280   15.2380   -2.0000 C   0  0  1  0  0  0  0  0  0  0  0  0
   -4.0200   14.3350   -1.1250 C   0  0  2  0  0  0  0  0  0  0  0  0
   -6.1410   15.7090   -1.4240 C   0  0  0  0  0  0  0  0  0  0  0  0
   -4.9930   14.6600   -3.3270 C   0  0  0  0  0  0  0  0  0  0  0  0
   -6.7300   14.6120   -0.5510 C   0  0  1  0  0  0  0  0  0  0  0  0
   -4.3910   14.6220    0.3370 C   0  0  0  0  0  0  0  0  0  0  0  0
   -2.5680   14.3980   -1.6700 C   0  0  0  0  0  0  0  0  0  0  0  0
   -3.8620   14.4110   -3.9310 C   0  0  0  0  0  0  0  0  0  0  0  0
   -3.6330   15.1020    1.1940 O   0  0  0  0  0  0  0  0  0  0  0  0
   -5.8430   14.2570    0.6430 C   0  0  1  0  0  0  0  0  0  0  0  0
   -8.1030   14.9590   -0.2400 O   0  0  0  0  0  0  0  0  0  0  0  0
   -2.5730   14.7360   -3.2140 C   0  0  2  0  0  0  0  0  0  0  0  0
   -1.2860   13.9160   -4.1260 Cl  0  0  0  0  0  0  0  0  0  0  0  0
   -6.3700   14.7470    1.9560 C   0  0  0  0  0  0  0  0  0  0  0  0
   -8.6260   14.8570    0.9990 C   0  0  0  0  0  0  0  0  0  0  0  0
   -9.8180   14.6740    1.1920 O   0  0  0  0  0  0  0  0  0  0  0  0
   -7.6770   15.0060    2.1120 C   0  0  0  0  0  0  0  0  0  0  0  0
  2  1  1  6
  2  3  1  0
  2  4  1  0
  2  5  1  0
  6  4  1  1
  3  7  1  0
  3  8  1  1
  5  9  2  0
  7 10  2  0
  6 11  1  0
  7 11  1  0
  6 12  1  0
  8 13  1  0
  9 13  1  0
 13 14  1  6
 11 15  1  1
 12 16  1  0
 16 17  2  0
 15 18  2  0
 16 18  1  0
M  END
