mac-x0411-mac-x0397
     RDKit          3D

 26 28  0  0  0  0  0  0  0  0999 V2000
    0.6280    8.8080   -7.5940 Cl  0  0  0  0  0  0  0  0  0  0  0  0
   -0.6630    9.5590   -6.7320 C   0  0  0  0  0  0  0  0  0  0  0  0
   -0.5570   10.8680   -6.2080 C   0  0  0  0  0  0  0  0  0  0  0  0
   -1.8300    8.8220   -6.5800 C   0  0  0  0  0  0  0  0  0  0  0  0
    0.6380   11.5400   -6.3830 O   0  0  0  0  0  0  0  0  0  0  0  0
   -1.6600   11.4500   -5.5380 C   0  0  0  0  0  0  0  0  0  0  0  0
   -2.9130    9.3750   -5.9120 C   0  0  0  0  0  0  0  0  0  0  0  0
   -1.6930   12.8630   -4.9650 C   0  0  0  0  0  0  0  0  0  0  0  0
    0.9760   12.5260   -5.3730 C   0  0  0  0  0  0  0  0  0  0  0  0
   -2.8290   10.6720   -5.4020 C   0  0  0  0  0  0  0  0  0  0  0  0
    0.9640   11.9250   -3.9660 C   0  0  0  0  0  0  0  0  0  0  0  0
   -1.2310   13.1600   -3.5290 C   0  0  0  0  0  0  0  0  0  0  0  0
    1.6170   12.6820   -3.0500 O   0  0  0  0  0  0  0  0  0  0  0  0
    0.4360   10.8670   -3.6590 O   0  0  0  0  0  0  0  0  0  0  0  0
   -1.4550   14.6210   -3.0850 C   0  0  0  0  0  0  0  0  0  0  0  0
   -2.6620   14.7630   -2.2030 C   0  0  0  0  0  0  0  0  0  0  0  0
   -3.9340   14.8320   -2.7690 C   0  0  0  0  0  0  0  0  0  0  0  0
   -2.5180   14.8180   -0.8080 C   0  0  0  0  0  0  0  0  0  0  0  0
   -3.6670   14.9270   -0.0300 C   0  0  0  0  0  0  0  0  0  0  0  0
   -5.0500   14.9360   -1.9500 C   0  0  0  0  0  0  0  0  0  0  0  0
   -6.6440   15.0140   -2.5510 Cl  0  0  0  0  0  0  0  0  0  0  0  0
   -4.9450   14.9750   -0.5700 C   0  0  0  0  0  0  0  0  0  0  0  0
   -3.7890   15.0170    1.6560 S   0  0  0  0  0  0  0  0  0  0  0  0
   -5.5090   15.0670    1.5300 C   0  0  0  0  0  0  0  0  0  0  0  0
   -5.9780   15.0520    0.3310 N   0  0  0  0  0  0  0  0  0  0  0  0
   -6.3250   15.1190    2.5950 N   0  0  0  0  0  0  0  0  0  0  0  0
  1  2  1  0
  2  3  2  0
  2  4  1  0
  3  5  1  0
  3  6  1  0
  4  7  2  0
  6  8  1  0
  5  9  1  0
  6 10  2  0
  7 10  1  0
  9 11  1  0
  8 12  1  0
 11 13  1  0
 11 14  2  0
 12 15  1  0
 15 16  1  0
 16 17  2  0
 16 18  1  0
 18 19  2  0
 17 20  1  0
 20 21  1  0
 19 22  1  0
 20 22  2  0
 19 23  1  0
 23 24  1  0
 22 25  1  0
 24 25  2  0
 24 26  1  0
M  END
