mac-x0587-diamond-x0727_0_A
     RDKit          3D

 23 24  0  0  0  0  0  0  0  0999 V2000
    0.1540   16.2040   -4.1240 C   0  0  0  0  0  0  0  0  0  0  0  0
   -0.5060   14.8610   -3.8150 C   0  0  2  0  0  0  0  0  0  0  0  0
   -0.1810   13.6400   -5.1690 S   0  0  0  0  0  0  0  0  0  0  0  0
   -2.0220   15.0010   -3.5130 C   0  0  0  0  0  0  0  0  0  0  0  0
   -0.3770   11.9550   -4.4830 C   0  0  2  0  0  0  0  0  0  0  0  0
   -2.8240   15.2710   -4.4200 O   0  0  0  0  0  0  0  0  0  0  0  0
   -2.4780   14.8330   -2.2030 N   0  0  0  0  0  0  0  0  0  0  0  0
    0.5110   11.6300   -3.2630 C   0  0  0  0  0  0  0  0  0  0  0  0
   -0.2800   10.9310   -5.5080 N   0  0  0  0  0  0  0  0  0  0  0  0
   -3.8720   15.1000   -1.8710 C   0  0  0  0  0  0  0  0  0  0  0  0
   -1.7460   14.7480   -0.9980 C   0  0  0  0  0  0  0  0  0  0  0  0
    0.5600   10.5500   -2.6990 O   0  0  0  0  0  0  0  0  0  0  0  0
    1.2810   12.6450   -2.8100 O   0  0  0  0  0  0  0  0  0  0  0  0
   -0.5440   14.7780   -0.8240 O   0  0  0  0  0  0  0  0  0  0  0  0
    0.4920   11.0400   -6.6530 C   0  0  0  0  0  0  0  0  0  0  0  0
   -3.9210   15.1820   -0.3510 C   0  0  0  0  0  0  0  0  0  0  0  0
   -2.6590   14.6330    0.0390 N   0  0  0  0  0  0  0  0  0  0  0  0
    1.3300   11.9130   -6.8410 O   0  0  0  0  0  0  0  0  0  0  0  0
    0.1980    9.9230   -7.6540 C   0  0  0  0  0  0  0  0  0  0  0  0
   -1.0240   10.2550   -8.5230 C   0  0  0  0  0  0  0  0  0  0  0  0
   -0.1660    8.5740   -7.0160 C   0  0  0  0  0  0  0  0  0  0  0  0
   -2.2040    9.4630   -7.9510 C   0  0  0  0  0  0  0  0  0  0  0  0
   -1.6670    8.6150   -6.8090 C   0  0  0  0  0  0  0  0  0  0  0  0
  2  1  1  6
  2  3  1  0
  2  4  1  0
  3  5  1  0
  4  6  2  0
  4  7  1  0
  5  8  1  0
  5  9  1  6
  7 10  1  0
  7 11  1  0
  8 12  2  0
  8 13  1  0
 11 14  2  0
  9 15  1  0
 10 16  1  0
 11 17  1  0
 16 17  1  0
 15 18  2  0
 15 19  1  0
 19 20  1  0
 19 21  1  0
 20 22  1  0
 21 23  1  0
 22 23  1  0
M  END
