mac-x0161-diamond-x0864_0_A
     RDKit          3D

 30 33  0  0  0  0  0  0  0  0999 V2000
   -4.9470   15.0900    1.2290 N   0  0  0  0  0  0  0  0  0  0  0  0
   -3.7990   15.5720    0.4750 C   0  0  1  0  0  0  0  0  0  0  0  0
   -2.5760   14.6560    0.5440 C   0  0  1  0  0  0  0  0  0  0  0  0
   -4.3400   15.7550   -0.8590 N   0  0  0  0  0  0  0  0  0  0  0  0
   -3.4500   15.3960   -1.9630 C   0  0  0  0  0  0  0  0  0  0  0  0
   -1.6120   14.8610   -0.6280 C   0  0  1  0  0  0  0  0  0  0  0  0
   -1.6980   14.7790    1.7250 N   0  0  0  0  0  0  0  0  0  0  0  0
   -2.0500   15.6950   -1.7330 N   0  0  0  0  0  0  0  0  0  0  0  0
   -0.3890   15.3240   -0.0070 N   0  0  0  0  0  0  0  0  0  0  0  0
   -0.3710   14.5350    1.1830 C   0  0  0  0  0  0  0  0  0  0  0  0
   -1.3000   15.4320   -2.9540 C   0  0  0  0  0  0  0  0  0  0  0  0
   -1.2980   13.9610   -3.1280 C   0  0  0  0  0  0  0  0  0  0  0  0
   -1.7890   13.1000   -4.0610 C   0  0  0  0  0  0  0  0  0  0  0  0
   -0.6780   13.2480   -2.1480 O   0  0  0  0  0  0  0  0  0  0  0  0
   -0.7650   11.9130   -2.4280 N   0  0  0  0  0  0  0  0  0  0  0  0
   -1.4280   11.8220   -3.5770 C   0  0  0  0  0  0  0  0  0  0  0  0
   -1.7170   10.6760   -4.2170 N   0  0  0  0  0  0  0  0  0  0  0  0
   -3.0580   10.1270   -4.1330 C   0  0  0  0  0  0  0  0  0  0  0  0
   -1.0920   10.5350   -5.4170 C   0  0  0  0  0  0  0  0  0  0  0  0
   -0.0980   11.4150   -5.8740 N   0  0  0  0  0  0  0  0  0  0  0  0
   -1.4560    9.5100   -6.1910 C   0  0  0  0  0  0  0  0  0  0  0  0
    0.4710   12.5100   -5.0600 C   0  0  0  0  0  0  0  0  0  0  0  0
   -0.8600    9.2920   -7.4670 C   0  0  0  0  0  0  0  0  0  0  0  0
    0.6740   11.0900   -6.9520 C   0  0  0  0  0  0  0  0  0  0  0  0
    1.7410   11.6100   -7.1610 O   0  0  0  0  0  0  0  0  0  0  0  0
    1.1120   12.1170   -3.7280 C   0  0  0  0  0  0  0  0  0  0  0  0
   -1.5890    7.9400   -8.5200 Br  0  0  0  0  0  0  0  0  0  0  0  0
    0.1710   10.0450   -7.8600 C   0  0  0  0  0  0  0  0  0  0  0  0
    0.7130   10.9310   -3.2230 O   0  0  0  0  0  0  0  0  0  0  0  0
    1.9330   12.7980   -3.1190 O   0  0  0  0  0  0  0  0  0  0  0  0
  2  1  1  1
  2  3  1  0
  2  4  1  0
  4  5  1  0
  3  6  1  0
  3  7  1  1
  5  8  1  0
  6  8  1  0
  6  9  1  1
  7 10  1  0
  9 10  1  0
  8 11  1  0
 11 12  1  0
 12 13  2  0
 12 14  1  0
 14 15  1  0
 13 16  1  0
 15 16  2  0
 16 17  1  0
 17 18  1  0
 17 19  1  0
 19 20  1  0
 19 21  2  0
 20 22  1  0
 21 23  1  0
 20 24  1  0
 24 25  2  0
 22 26  1  0
 23 27  1  0
 23 28  2  0
 24 28  1  0
 26 29  1  0
 26 30  2  0
M  END
