mac-x0565-diamond-x0465_0_A
     RDKit          3D

 26 28  0  0  0  0  0  0  0  0999 V2000
   -5.3620   15.0780    0.9080 O   0  0  0  0  0  0  0  0  0  0  0  0
   -5.8420   14.9310   -0.3320 C   0  0  0  0  0  0  0  0  0  0  0  0
   -7.0440   14.8420   -0.5420 O   0  0  0  0  0  0  0  0  0  0  0  0
   -4.7760   14.9020   -1.3680 C   0  0  0  0  0  0  0  0  0  0  0  0
   -3.3920   14.7880   -1.0630 C   0  0  0  0  0  0  0  0  0  0  0  0
   -5.1970   14.9940   -2.7050 C   0  0  0  0  0  0  0  0  0  0  0  0
   -2.4700   14.7760   -2.1140 C   0  0  0  0  0  0  0  0  0  0  0  0
   -4.2710   14.9790   -3.7450 C   0  0  0  0  0  0  0  0  0  0  0  0
   -2.9380   14.8750   -3.4230 C   0  0  0  0  0  0  0  0  0  0  0  0
   -1.0450   14.6920   -2.1500 N   0  0  0  0  0  0  0  0  0  0  0  0
   -0.1450   13.8780   -1.3150 C   0  0  0  0  0  0  0  0  0  0  0  0
   -1.9260   14.8600   -4.3490 O   0  0  0  0  0  0  0  0  0  0  0  0
   -0.7420   15.0260   -3.5330 C   0  0  0  0  0  0  0  0  0  0  0  0
    0.0570   12.4400   -1.6080 N   0  0  0  0  0  0  0  0  0  0  0  0
    0.3580   11.8880   -2.7610 C   0  0  0  0  0  0  0  0  0  0  0  0
    0.6040   12.4430   -4.1990 C   0  0  1  0  0  0  0  0  0  0  0  0
    0.4680   10.5370   -2.6540 O   0  0  0  0  0  0  0  0  0  0  0  0
    1.9800   13.1260   -4.2740 C   0  0  0  0  0  0  0  0  0  0  0  0
    0.6280   11.4510   -5.2490 O   0  0  0  0  0  0  0  0  0  0  0  0
   -0.5580   10.8050   -5.5200 C   0  0  0  0  0  0  0  0  0  0  0  0
   -0.6600    9.8260   -6.5220 C   0  0  0  0  0  0  0  0  0  0  0  0
   -1.6900   11.1330   -4.7730 C   0  0  0  0  0  0  0  0  0  0  0  0
    0.3970    9.4780   -7.2710 F   0  0  0  0  0  0  0  0  0  0  0  0
   -1.8620    9.1820   -6.7730 C   0  0  0  0  0  0  0  0  0  0  0  0
   -2.9040   10.4860   -5.0250 C   0  0  0  0  0  0  0  0  0  0  0  0
   -2.9900    9.5110   -6.0230 C   0  0  0  0  0  0  0  0  0  0  0  0
  1  2  1  0
  2  3  2  0
  2  4  1  0
  4  5  2  0
  4  6  1  0
  5  7  1  0
  6  8  2  0
  7  9  2  0
  8  9  1  0
  7 10  1  0
 10 11  1  0
  9 12  1  0
 10 13  1  0
 12 13  1  0
 11 14  1  0
 14 15  2  3
 15 16  1  0
 15 17  1  0
 16 18  1  1
 16 19  1  0
 19 20  1  0
 20 21  2  0
 20 22  1  0
 21 23  1  0
 21 24  1  0
 22 25  2  0
 24 26  2  0
 25 26  1  0
M  END
