mac-x0306-mac-x0555
     RDKit          3D

 11 12  0  0  0  0  0  0  0  0999 V2000
   -8.6590   14.6300    1.0700 C   0  0  0  0  0  0  0  0  0  0  0  0
   -7.9270   14.4750    2.2170 C   0  0  0  0  0  0  0  0  0  0  0  0
   -6.6230   14.5470    1.8220 N   0  0  0  0  0  0  0  0  0  0  0  0
   -7.8340   14.7950   -0.0060 N   0  0  0  0  0  0  0  0  0  0  0  0
   -6.5930   14.7470    0.4540 C   0  0  0  0  0  0  0  0  0  0  0  0
   -5.3940   14.8890   -0.3750 C   0  0  0  0  0  0  0  0  0  0  0  0
   -5.4610   15.1270   -1.7530 C   0  0  0  0  0  0  0  0  0  0  0  0
   -4.1330   14.7820    0.2140 C   0  0  0  0  0  0  0  0  0  0  0  0
   -4.2770   15.2370   -2.4650 C   0  0  0  0  0  0  0  0  0  0  0  0
   -3.0120   14.9070   -0.5820 C   0  0  0  0  0  0  0  0  0  0  0  0
   -3.0560   15.1310   -1.9120 N   0  0  0  0  0  0  0  0  0  0  0  0
  1  2  2  0
  2  3  1  0
  1  4  1  0
  3  5  1  0
  4  5  2  0
  5  6  1  0
  6  7  2  0
  6  8  1  0
  7  9  1  0
  8 10  2  0
  9 11  2  0
 10 11  1  0
M  END
