mac-x0179-diamond-x0676_0_B
     RDKit          3D

 30 33  0  0  0  0  0  0  0  0999 V2000
    1.4760   13.0190   -2.2830 O   0  0  0  0  0  0  0  0  0  0  0  0
    0.9390   12.1800   -3.1950 C   0  0  0  0  0  0  0  0  0  0  0  0
    0.6080   11.0420   -2.8990 O   0  0  0  0  0  0  0  0  0  0  0  0
    0.7990   12.7920   -4.5860 C   0  0  0  0  0  0  0  0  0  0  0  0
    0.1680   11.8130   -5.4390 N   0  0  0  0  0  0  0  0  0  0  0  0
    0.7070   11.3490   -6.5910 C   0  0  0  0  0  0  0  0  0  0  0  0
   -1.1600   11.6110   -5.4770 C   0  0  0  0  0  0  0  0  0  0  0  0
    1.7220   11.7090   -7.1020 O   0  0  0  0  0  0  0  0  0  0  0  0
   -2.0210   12.2620   -4.9600 O   0  0  0  0  0  0  0  0  0  0  0  0
   -0.2060   10.2880   -7.0520 C   0  0  0  0  0  0  0  0  0  0  0  0
   -1.3680   10.4520   -6.3250 C   0  0  0  0  0  0  0  0  0  0  0  0
   -0.0940    9.2730   -7.9820 C   0  0  0  0  0  0  0  0  0  0  0  0
   -2.4670    9.6290   -6.4560 C   0  0  0  0  0  0  0  0  0  0  0  0
    1.1000    9.0210   -8.8200 C   0  0  0  0  0  0  0  0  0  0  0  0
   -1.2020    8.4230   -8.1370 C   0  0  0  0  0  0  0  0  0  0  0  0
   -2.3720    8.5930   -7.3840 C   0  0  0  0  0  0  0  0  0  0  0  0
    0.7460    8.1140   -9.9960 C   0  0  0  0  0  0  0  0  0  0  0  0
    1.6600    8.4000  -11.0730 N   0  0  0  0  0  0  0  0  0  0  0  0
    2.8480    7.9660  -10.9890 C   0  0  0  0  0  0  0  0  0  0  0  0
    3.3820    7.1490   -9.8430 C   0  0  0  0  0  0  0  0  0  0  0  0
    3.9030    8.1200  -11.8670 N   0  0  0  0  0  0  0  0  0  0  0  0
    5.1170    7.6980  -11.3180 N   0  0  0  0  0  0  0  0  0  0  0  0
    4.8400    7.1670  -10.1640 C   0  0  0  0  0  0  0  0  0  0  0  0
    3.9780    9.1670  -12.8300 C   0  0  0  0  0  0  0  0  0  0  0  0
    5.8570    6.6220   -9.2270 C   0  0  0  0  0  0  0  0  0  0  0  0
    3.0230   10.2130  -12.8410 C   0  0  0  0  0  0  0  0  0  0  0  0
    4.9790    9.2250  -13.8030 C   0  0  0  0  0  0  0  0  0  0  0  0
    3.0740   11.2580  -13.7730 C   0  0  0  0  0  0  0  0  0  0  0  0
    5.0340   10.2650  -14.7390 C   0  0  0  0  0  0  0  0  0  0  0  0
    4.0830   11.2810  -14.7240 C   0  0  0  0  0  0  0  0  0  0  0  0
  1  2  1  0
  2  3  2  0
  2  4  1  0
  4  5  1  0
  5  6  1  0
  5  7  1  0
  6  8  2  0
  7  9  2  0
  6 10  1  0
  7 11  1  0
 10 11  2  0
 10 12  1  0
 11 13  1  0
 12 14  1  0
 12 15  2  0
 13 16  2  0
 15 16  1  0
 14 17  1  0
 17 18  1  0
 18 19  2  3
 19 20  1  0
 19 21  1  0
 21 22  1  0
 20 23  1  0
 22 23  2  0
 21 24  1  0
 23 25  1  0
 24 26  2  0
 24 27  1  0
 26 28  1  0
 27 29  2  0
 28 30  2  0
 29 30  1  0
M  END
