mac-x0263-mac-x0451
     RDKit          3D

 16 17  0  0  0  0  0  0  0  0999 V2000
  -11.4660   14.3790    2.4440 O   0  0  0  0  0  0  0  0  0  0  0  0
  -10.7890   15.4980    2.7640 C   0  0  0  0  0  0  0  0  0  0  0  0
  -11.2240   16.2610    3.6070 O   0  0  0  0  0  0  0  0  0  0  0  0
   -9.5160   15.6630    1.9790 C   0  0  0  0  0  0  0  0  0  0  0  0
   -9.0920   14.4260    1.1920 C   0  0  0  0  0  0  0  0  0  0  0  0
   -7.7190   14.6170    0.6410 C   0  0  0  0  0  0  0  0  0  0  0  0
   -7.3770   14.6270   -0.6330 N   0  0  0  0  0  0  0  0  0  0  0  0
   -6.6330   14.8190    1.4410 N   0  0  0  0  0  0  0  0  0  0  0  0
   -6.6900   14.8850    2.8600 N   0  0  0  0  0  0  0  0  0  0  0  0
   -6.0160   14.8380   -0.6470 C   0  0  0  0  0  0  0  0  0  0  0  0
   -5.5170   14.9560    0.6510 C   0  0  0  0  0  0  0  0  0  0  0  0
   -5.1380   14.9390   -1.7400 C   0  0  0  0  0  0  0  0  0  0  0  0
   -4.1630   15.1670    0.9280 C   0  0  0  0  0  0  0  0  0  0  0  0
   -3.7810   15.1420   -1.4720 C   0  0  0  0  0  0  0  0  0  0  0  0
   -3.3090   15.2510   -0.1660 C   0  0  0  0  0  0  0  0  0  0  0  0
   -2.8950   15.2330   -2.4870 F   0  0  0  0  0  0  0  0  0  0  0  0
  1  2  1  0
  2  3  2  0
  2  4  1  0
  4  5  1  0
  5  6  1  0
  6  7  2  0
  6  8  1  0
  8  9  1  0
  7 10  1  0
  8 11  1  0
 10 11  2  0
 10 12  1  0
 11 13  1  0
 12 14  2  0
 13 15  2  0
 14 15  1  0
 14 16  1  0
M  END
