mac-x0271-mac-x0163
     RDKit          3D

 28 32  0  0  0  0  0  0  0  0999 V2000
   -3.0600   15.0700   -1.9150 O   0  0  0  0  0  0  0  0  0  0  0  0
   -4.2210   14.9730   -1.2420 C   0  0  0  0  0  0  0  0  0  0  0  0
   -3.8880   14.2910   -0.1060 C   0  0  0  0  0  0  0  0  0  0  0  0
   -2.0860   14.8340   -0.9170 C   0  0  0  0  0  0  0  0  0  0  0  0
   -5.5350   15.4070   -1.4760 C   0  0  0  0  0  0  0  0  0  0  0  0
   -2.3730   15.0990    0.4760 C   0  0  0  0  0  0  0  0  0  0  0  0
   -0.7960   14.3450   -1.1530 C   0  0  0  0  0  0  0  0  0  0  0  0
   -3.6000   15.6210    0.9530 N   0  0  0  0  0  0  0  0  0  0  0  0
   -6.4730   15.1210   -0.4620 C   0  0  0  0  0  0  0  0  0  0  0  0
   -4.8050   14.0270    0.8540 C   0  0  0  0  0  0  0  0  0  0  0  0
    0.0770   14.1380   -0.1630 N   0  0  0  0  0  0  0  0  0  0  0  0
   -1.4870   14.8820    1.4580 N   0  0  0  0  0  0  0  0  0  0  0  0
   -0.3230   14.0390   -2.4530 N   0  0  0  0  0  0  0  0  0  0  0  0
   -6.0990   14.4460    0.7000 C   0  0  0  0  0  0  0  0  0  0  0  0
   -7.8160   15.5310   -0.6160 O   0  0  0  0  0  0  0  0  0  0  0  0
   -0.3100   14.4110    1.0880 C   0  0  0  0  0  0  0  0  0  0  0  0
    0.7760   14.9500   -2.8370 C   0  0  0  0  0  0  0  0  0  0  0  0
   -0.9270   13.2230   -3.4660 C   0  0  0  0  0  0  0  0  0  0  0  0
   -7.0590   14.1910    1.7430 C   0  0  0  0  0  0  0  0  0  0  0  0
   -8.7750   15.2250    0.3550 C   0  0  0  0  0  0  0  0  0  0  0  0
    1.3670   14.5960   -4.2030 C   0  0  0  0  0  0  0  0  0  0  0  0
   -0.1910   11.8720   -3.7440 C   0  0  0  0  0  0  0  0  0  0  0  0
   -2.1400   12.3610   -2.9910 C   0  0  0  0  0  0  0  0  0  0  0  0
   -1.0820   14.1060   -4.7130 C   0  0  0  0  0  0  0  0  0  0  0  0
   -9.9630   15.4770    0.2290 O   0  0  0  0  0  0  0  0  0  0  0  0
   -8.3130   14.5620    1.5810 C   0  0  0  0  0  0  0  0  0  0  0  0
    0.2860   14.5090   -5.2720 C   0  0  0  0  0  0  0  0  0  0  0  0
   -1.1330   11.2190   -2.7110 C   0  0  0  0  0  0  0  0  0  0  0  0
  1  2  1  0
  2  3  2  0
  1  4  1  0
  2  5  1  0
  4  6  2  0
  4  7  1  0
  6  8  1  0
  5  9  2  0
  3 10  1  0
  7 11  2  0
  6 12  1  0
  7 13  1  0
  9 14  1  0
 10 14  2  0
  9 15  1  0
 11 16  1  0
 12 16  2  0
 13 17  1  0
 18 13  1  0
 14 19  1  0
 15 20  1  0
 17 21  1  0
 18 22  1  0
 18 23  1  0
 18 24  1  0
 20 25  2  0
 19 26  2  0
 20 26  1  0
 21 27  1  0
 24 27  1  0
 22 28  1  0
 23 28  1  0
M  END
