mac-x0567-diamond-x0587_0_A
     RDKit          3D

 23 25  0  0  0  0  0  0  0  0999 V2000
    0.4020   13.6020   -0.2100 N   0  0  0  0  0  0  0  0  0  0  0  0
   -0.7010   14.1690    0.2980 C   0  0  0  0  0  0  0  0  0  0  0  0
   -0.8150   14.4100    1.6140 N   0  0  0  0  0  0  0  0  0  0  0  0
   -1.8780   14.6200   -0.2140 C   0  0  0  0  0  0  0  0  0  0  0  0
   -1.9690   14.9830    1.9550 N   0  0  0  0  0  0  0  0  0  0  0  0
   -2.6470   15.1430    0.8790 C   0  0  0  0  0  0  0  0  0  0  0  0
   -2.2710   14.5890   -1.5230 C   0  0  0  0  0  0  0  0  0  0  0  0
   -3.8960   15.7110    0.7550 C   0  0  0  0  0  0  0  0  0  0  0  0
   -3.5430   15.1460   -1.5960 C   0  0  0  0  0  0  0  0  0  0  0  0
   -4.2870   15.2540   -2.6340 O   0  0  0  0  0  0  0  0  0  0  0  0
   -4.3160   15.6870   -0.5500 C   0  0  0  0  0  0  0  0  0  0  0  0
   -5.3730   14.3710   -2.3490 C   0  0  0  0  0  0  0  0  0  0  0  0
   -4.9130   13.1080   -2.6020 F   0  0  0  0  0  0  0  0  0  0  0  0
   -6.2410   14.6420   -3.3490 F   0  0  0  0  0  0  0  0  0  0  0  0
   -6.0710   14.4950   -0.9390 C   0  0  0  0  0  0  0  0  0  0  0  0
   -7.4160   14.6470   -0.9380 N   0  0  0  0  0  0  0  0  0  0  0  0
   -5.3630   14.4490    0.2330 N   0  0  0  0  0  0  0  0  0  0  0  0
   -8.0470   14.7640    0.2540 C   0  0  0  0  0  0  0  0  0  0  0  0
   -6.0520   14.5760    1.4020 C   0  0  0  0  0  0  0  0  0  0  0  0
   -7.4170   14.7400    1.4730 C   0  0  0  0  0  0  0  0  0  0  0  0
   -8.2210   14.8950    2.7040 C   0  0  0  0  0  0  0  0  0  0  0  0
   -7.5910   14.9010    3.9100 N   0  0  0  0  0  0  0  0  0  0  0  0
   -9.4390   15.0300    2.6350 O   0  0  0  0  0  0  0  0  0  0  0  0
  1  2  1  0
  2  3  1  0
  2  4  2  0
  3  5  1  0
  4  6  1  0
  5  6  2  0
  4  7  1  0
  6  8  1  0
  7  9  2  0
  9 10  1  0
  8 11  2  0
  9 11  1  0
 10 12  1  0
 12 13  1  0
 12 14  1  0
 12 15  1  0
 15 16  2  0
 15 17  1  0
 16 18  1  0
 17 19  2  0
 18 20  2  0
 19 20  1  0
 20 21  1  0
 21 22  1  0
 21 23  2  0
M  END
