mac-x0375-mac-x0451
     RDKit          3D

 24 26  0  0  0  0  0  0  0  0999 V2000
    1.9020   12.8800   -2.8600 O   0  0  0  0  0  0  0  0  0  0  0  0
    0.9940   12.1600   -3.5450 C   0  0  0  0  0  0  0  0  0  0  0  0
    0.7500   11.0190   -3.1990 O   0  0  0  0  0  0  0  0  0  0  0  0
    0.3680   12.9270   -4.7020 C   0  0  1  0  0  0  0  0  0  0  0  0
    0.4050   12.0220   -5.8390 O   0  0  0  0  0  0  0  0  0  0  0  0
   -1.0670   13.2400   -4.2460 C   0  0  0  0  0  0  0  0  0  0  0  0
   -1.5250   14.6900   -4.0890 C   0  0  0  0  0  0  0  0  0  0  0  0
   -0.5330   11.0310   -6.0450 C   0  0  0  0  0  0  0  0  0  0  0  0
   -1.5350   15.0010   -2.6880 O   0  0  0  0  0  0  0  0  0  0  0  0
   -0.3280    9.8000   -6.6740 C   0  0  0  0  0  0  0  0  0  0  0  0
   -1.8100   11.3230   -5.5680 C   0  0  0  0  0  0  0  0  0  0  0  0
   -1.3790    8.8860   -6.8080 C   0  0  0  0  0  0  0  0  0  0  0  0
   -2.8580   10.4150   -5.7030 C   0  0  0  0  0  0  0  0  0  0  0  0
   -2.6560   14.9600   -1.8670 C   0  0  0  0  0  0  0  0  0  0  0  0
   -2.6450    9.1940   -6.3210 C   0  0  0  0  0  0  0  0  0  0  0  0
   -3.9140   15.1040   -2.4640 C   0  0  0  0  0  0  0  0  0  0  0  0
   -2.5670   14.7940   -0.4780 C   0  0  0  0  0  0  0  0  0  0  0  0
   -3.7410   14.7800    0.2890 C   0  0  0  0  0  0  0  0  0  0  0  0
   -5.0880   15.0840   -1.6860 C   0  0  0  0  0  0  0  0  0  0  0  0
   -5.0000   14.9190   -0.2840 C   0  0  0  0  0  0  0  0  0  0  0  0
   -3.9060   14.6030    1.9960 S   0  0  0  0  0  0  0  0  0  0  0  0
   -5.6060   14.7200    1.8410 C   0  0  0  0  0  0  0  0  0  0  0  0
   -6.0570   14.8780    0.6170 N   0  0  0  0  0  0  0  0  0  0  0  0
   -6.4100   14.6520    2.9210 N   0  0  0  0  0  0  0  0  0  0  0  0
  1  2  1  0
  2  3  2  0
  2  4  1  0
  4  5  1  0
  4  6  1  1
  6  7  1  0
  5  8  1  0
  7  9  1  0
  8 10  2  0
  8 11  1  0
 10 12  1  0
 11 13  2  0
  9 14  1  0
 12 15  2  0
 13 15  1  0
 14 16  2  0
 14 17  1  0
 17 18  2  0
 16 19  1  0
 18 20  1  0
 19 20  2  0
 18 21  1  0
 21 22  1  0
 20 23  1  0
 22 23  2  0
 22 24  1  0
M  END
