mac-x0132-diamond-x0104_0_A
     RDKit          3D

 22 24  0  0  0  0  0  0  0  0999 V2000
   -4.2420   13.9130    1.6330 N   0  0  0  0  0  0  0  0  0  0  0  0
   -5.0830   15.0320    1.2860 C   0  0  2  0  0  0  0  0  0  0  0  0
   -6.5030   14.7410    1.3900 N   0  0  0  0  0  0  0  0  0  0  0  0
   -4.8150   15.6170   -0.1100 C   0  0  2  0  0  0  0  0  0  0  0  0
   -6.9820   14.6020    2.7040 N   0  0  0  0  0  0  0  0  0  0  0  0
   -5.9640   15.4010   -1.1570 C   0  0  2  0  0  0  0  0  0  0  0  0
   -7.0010   13.7920    0.4100 C   0  0  0  0  0  0  0  0  0  0  0  0
   -3.4090   15.3310   -0.5880 C   0  0  0  0  0  0  0  0  0  0  0  0
   -8.1570   15.1380    3.2160 C   0  0  0  0  0  0  0  0  0  0  0  0
   -6.7310   14.1800   -0.9850 N   0  0  0  0  0  0  0  0  0  0  0  0
   -5.4390   15.3460   -2.5640 C   0  0  0  0  0  0  0  0  0  0  0  0
   -3.1170   15.1710   -1.8820 C   0  0  0  0  0  0  0  0  0  0  0  0
   -8.0960   15.1540    4.5950 N   0  0  0  0  0  0  0  0  0  0  0  0
   -9.0940   15.5270    2.5230 O   0  0  0  0  0  0  0  0  0  0  0  0
   -5.9170   13.1350   -1.6240 O   0  0  0  0  0  0  0  0  0  0  0  0
   -4.1370   15.2490   -2.8910 C   0  0  0  0  0  0  0  0  0  0  0  0
   -4.6440   13.6300   -2.0760 C   0  0  0  0  0  0  0  0  0  0  0  0
   -9.1930   15.1270    5.4200 C   0  0  0  0  0  0  0  0  0  0  0  0
   -9.3320   15.2180    6.7830 C   0  0  0  0  0  0  0  0  0  0  0  0
  -10.6880   14.9420    4.6220 S   0  0  0  0  0  0  0  0  0  0  0  0
  -11.5480   14.9840    6.1040 C   0  0  0  0  0  0  0  0  0  0  0  0
  -10.7020   15.1350    7.1810 C   0  0  0  0  0  0  0  0  0  0  0  0
  2  1  1  6
  2  3  1  0
  2  4  1  0
  3  5  1  0
  4  6  1  0
  3  7  1  0
  4  8  1  6
  5  9  1  0
  6 10  1  0
  7 10  1  0
  6 11  1  6
  8 12  2  0
  9 13  1  0
  9 14  2  0
 10 15  1  0
 11 16  2  0
 12 16  1  0
 15 17  1  0
 13 18  1  0
 18 19  2  0
 18 20  1  0
 20 21  1  0
 19 22  1  0
 21 22  2  0
M  END
