mac-x0228-mac-x0159
     RDKit          3D

 28 32  0  0  0  0  0  0  0  0999 V2000
   -3.0260   13.5700   -4.8740 O   0  0  0  0  0  0  0  0  0  0  0  0
   -2.9370   14.1130   -3.6250 C   0  0  0  0  0  0  0  0  0  0  0  0
   -1.9650   14.8660   -3.1600 C   0  0  0  0  0  0  0  0  0  0  0  0
   -4.0700   13.9970   -2.6820 C   0  0  0  0  0  0  0  0  0  0  0  0
   -4.0440   13.4480   -1.3830 C   0  0  0  0  0  0  0  0  0  0  0  0
   -5.2650   14.5600   -3.1840 C   0  0  0  0  0  0  0  0  0  0  0  0
   -2.2390   15.2020   -1.8380 N   0  0  0  0  0  0  0  0  0  0  0  0
   -0.8190   15.3870   -3.8850 C   0  0  0  0  0  0  0  0  0  0  0  0
   -5.2270   13.5100   -0.6340 C   0  0  0  0  0  0  0  0  0  0  0  0
   -6.4280   14.6080   -2.4290 C   0  0  0  0  0  0  0  0  0  0  0  0
   -3.6640   15.4280   -1.6580 C   0  0  0  0  0  0  0  0  0  0  0  0
   -1.4840   14.7700   -0.6490 C   0  0  1  0  0  0  0  0  0  0  0  0
    0.5120   15.0650   -3.9110 C   0  0  0  0  0  0  0  0  0  0  0  0
   -1.1800   16.4570   -4.7210 N   0  0  0  0  0  0  0  0  0  0  0  0
   -6.3840   14.0840   -1.1610 C   0  0  0  0  0  0  0  0  0  0  0  0
   -5.5200   13.0510    0.7390 C   0  0  0  0  0  0  0  0  0  0  0  0
   -4.3070   15.8050   -0.4200 N   0  0  0  0  0  0  0  0  0  0  0  0
   -2.3400   14.5840    0.5960 C   0  0  2  0  0  0  0  0  0  0  0  0
   -0.6070   13.6480   -0.4810 N   0  0  0  0  0  0  0  0  0  0  0  0
   -0.1580   16.9400   -5.3500 C   0  0  0  0  0  0  0  0  0  0  0  0
    1.2970   16.1300   -4.9980 S   0  0  0  0  0  0  0  0  0  0  0  0
   -0.2050   18.0890   -6.2980 C   0  0  0  0  0  0  0  0  0  0  0  0
   -7.4500   14.0720   -0.3000 O   0  0  0  0  0  0  0  0  0  0  0  0
   -6.8110   13.8370    0.9800 C   0  0  0  0  0  0  0  0  0  0  0  0
   -3.4690   15.6570    0.7240 C   0  0  2  0  0  0  0  0  0  0  0  0
   -1.2550   14.6150    1.5970 N   0  0  0  0  0  0  0  0  0  0  0  0
   -0.1330   14.0400    0.8430 C   0  0  0  0  0  0  0  0  0  0  0  0
   -4.4790   15.5230    1.7600 N   0  0  0  0  0  0  0  0  0  0  0  0
  1  2  1  0
  2  3  2  3
  2  4  1  0
  4  5  2  0
  4  6  1  0
  3  7  1  0
  3  8  1  0
  5  9  1  0
  6 10  2  0
  7 11  1  0
  7 12  1  0
  8 13  2  0
  8 14  1  0
  9 15  2  0
 10 15  1  0
  9 16  1  0
 11 17  1  0
 12 18  1  0
 12 19  1  6
 14 20  2  0
 13 21  1  0
 20 21  1  0
 20 22  1  0
 15 23  1  0
 16 24  1  0
 23 24  1  0
 17 25  1  0
 18 25  1  0
 18 26  1  1
 19 27  1  0
 26 27  1  0
 25 28  1  1
M  END
