mac-x0115-diamond-x0592_0_A
     RDKit          3D

 27 29  0  0  0  0  0  0  0  0999 V2000
   -1.4490   18.6340   -5.2360 C   0  0  0  0  0  0  0  0  0  0  0  0
   -0.4170   17.6690   -5.7880 C   0  0  0  0  0  0  0  0  0  0  0  0
    1.0060   18.1680   -5.5630 C   0  0  0  0  0  0  0  0  0  0  0  0
   -0.5170   16.3820   -5.1710 O   0  0  0  0  0  0  0  0  0  0  0  0
    0.7210   15.7480   -4.8470 C   0  0  0  0  0  0  0  0  0  0  0  0
    0.4410   14.4620   -4.0640 C   0  0  0  0  0  0  0  0  0  0  0  0
    0.2170   14.6500   -2.6070 N   0  0  0  0  0  0  0  0  0  0  0  0
    1.1690   14.3260   -1.6490 C   0  0  0  0  0  0  0  0  0  0  0  0
   -1.1330   14.6390   -2.1270 C   0  0  1  0  0  0  0  0  0  0  0  0
    2.7680   13.9420   -1.9370 S   0  0  0  0  0  0  0  0  0  0  0  0
    0.7440   14.3100   -0.3170 N   0  0  0  0  0  0  0  0  0  0  0  0
   -1.3050   15.4360   -0.8430 C   0  0  2  0  0  0  0  0  0  0  0  0
   -2.2470   15.2190   -2.9520 C   0  0  0  0  0  0  0  0  0  0  0  0
   -0.4580   14.7590    0.1930 C   0  0  0  0  0  0  0  0  0  0  0  0
   -2.7600   15.3180   -0.8030 N   0  0  0  0  0  0  0  0  0  0  0  0
   -3.1930   15.5900   -2.0840 C   0  0  0  0  0  0  0  0  0  0  0  0
   -0.7970   14.6130    1.3760 O   0  0  0  0  0  0  0  0  0  0  0  0
   -3.5230   15.3760    0.3890 C   0  0  2  0  0  0  0  0  0  0  0  0
   -3.0760   14.5000    1.4600 N   0  0  0  0  0  0  0  0  0  0  0  0
   -4.9700   15.1120    0.1650 C   0  0  0  0  0  0  0  0  0  0  0  0
   -5.7070   15.2460   -1.0480 C   0  0  0  0  0  0  0  0  0  0  0  0
   -5.9080   14.6900    1.0690 C   0  0  0  0  0  0  0  0  0  0  0  0
   -6.9970   14.9390   -0.9030 N   0  0  0  0  0  0  0  0  0  0  0  0
   -7.0840   14.6090    0.4020 N   0  0  0  0  0  0  0  0  0  0  0  0
   -8.3510   14.2180    0.9760 C   0  0  0  0  0  0  0  0  0  0  0  0
   -8.1870   13.9260    2.4690 C   0  0  0  0  0  0  0  0  0  0  0  0
   -7.4150   14.9270    3.1400 O   0  0  0  0  0  0  0  0  0  0  0  0
  1  2  1  0
  2  3  1  0
  2  4  1  0
  4  5  1  0
  5  6  1  0
  6  7  1  0
  7  8  1  0
  7  9  1  0
  8 10  2  0
  8 11  1  0
  9 12  1  0
  9 13  1  6
 11 14  1  0
 12 14  1  1
 12 15  1  0
 13 16  2  0
 15 16  1  0
 14 17  2  0
 15 18  1  0
 18 19  1  1
 18 20  1  0
 20 21  1  0
 20 22  2  0
 21 23  2  0
 22 24  1  0
 23 24  1  0
 24 25  1  0
 25 26  1  0
 26 27  1  0
M  END
