mac-x0417-mac-x0344
     RDKit          3D

 15 17  0  0  0  0  0  0  0  0999 V2000
    0.1070   12.7980   -2.8510 O   0  0  0  0  0  0  0  0  0  0  0  0
    0.2960   11.7860   -3.8190 C   0  0  0  0  0  0  0  0  0  0  0  0
    0.9570   10.7770   -3.1160 O   0  0  0  0  0  0  0  0  0  0  0  0
    1.1340   12.3830   -5.0340 C   0  0  2  0  0  0  0  0  0  0  0  0
   -0.9890   11.1940   -4.1650 N   0  0  0  0  0  0  0  0  0  0  0  0
    0.9540   13.7990   -5.1310 O   0  0  0  0  0  0  0  0  0  0  0  0
    0.8070   11.5790   -6.2520 C   0  0  0  0  0  0  0  0  0  0  0  0
   -1.1840   10.4820   -5.3330 C   0  0  0  0  0  0  0  0  0  0  0  0
    1.4490   11.5280   -7.3770 N   0  0  0  0  0  0  0  0  0  0  0  0
   -0.2800   10.7200   -6.2970 C   0  0  0  0  0  0  0  0  0  0  0  0
   -2.1830    9.5470   -5.6530 C   0  0  0  0  0  0  0  0  0  0  0  0
    0.7730   10.6100   -8.2040 O   0  0  0  0  0  0  0  0  0  0  0  0
   -0.2860   10.1210   -7.5220 C   0  0  0  0  0  0  0  0  0  0  0  0
   -2.2080    8.9170   -6.9150 C   0  0  0  0  0  0  0  0  0  0  0  0
   -1.2430    9.1930   -7.8980 C   0  0  0  0  0  0  0  0  0  0  0  0
  2  1  1  0
  2  3  1  0
  2  4  1  0
  2  5  1  0
  4  6  1  6
  4  7  1  0
  5  8  1  0
  7  9  2  0
  7 10  1  0
  8 10  2  0
  8 11  1  0
  9 12  1  0
 10 13  1  0
 12 13  1  0
 11 14  2  0
 13 15  2  0
 14 15  1  0
M  END
