mac-x0392-mac-x0357
     RDKit          3D

 19 20  0  0  0  0  0  0  0  0999 V2000
    0.3520   14.0270   -0.0730 N   0  0  0  0  0  0  0  0  0  0  0  0
   -0.9920   14.3830   -0.0490 C   0  0  0  0  0  0  0  0  0  0  0  0
   -1.6810   14.5350    1.1490 C   0  0  0  0  0  0  0  0  0  0  0  0
   -1.7440   14.6110   -1.2170 C   0  0  0  0  0  0  0  0  0  0  0  0
   -1.1530   14.4960   -2.5880 C   0  0  0  0  0  0  0  0  0  0  0  0
   -3.1030   14.9670   -1.1230 C   0  0  0  0  0  0  0  0  0  0  0  0
   -2.9880   14.8810    1.2660 N   0  0  0  0  0  0  0  0  0  0  0  0
   -1.6640   15.1530   -3.5000 O   0  0  0  0  0  0  0  0  0  0  0  0
   -0.0880   13.6400   -2.9260 N   0  0  0  0  0  0  0  0  0  0  0  0
   -3.6720   15.0870    0.1270 C   0  0  0  0  0  0  0  0  0  0  0  0
    0.5750   12.9990   -1.8320 O   0  0  0  0  0  0  0  0  0  0  0  0
   -0.1260   12.8110   -4.0860 C   0  0  0  0  0  0  0  0  0  0  0  0
    0.9960   12.6780   -4.9300 C   0  0  0  0  0  0  0  0  0  0  0  0
   -1.3110   12.1170   -4.4060 C   0  0  0  0  0  0  0  0  0  0  0  0
    2.2850   13.3850   -4.6220 C   0  0  0  0  0  0  0  0  0  0  0  0
   -1.3990   11.3140   -5.5400 C   0  0  0  0  0  0  0  0  0  0  0  0
    0.8700   11.8710   -6.0660 C   0  0  0  0  0  0  0  0  0  0  0  0
    1.8870   11.6940   -6.9430 O   0  0  0  0  0  0  0  0  0  0  0  0
   -0.3010   11.1940   -6.3770 C   0  0  0  0  0  0  0  0  0  0  0  0
  1  2  1  0
  2  3  2  0
  2  4  1  0
  4  5  1  0
  4  6  2  0
  3  7  1  0
  5  8  2  0
  5  9  1  0
  6 10  1  0
  7 10  2  0
  9 11  1  0
  9 12  1  0
 12 13  2  0
 12 14  1  0
 13 15  1  0
 14 16  2  0
 13 17  1  0
 17 18  1  0
 16 19  1  0
 17 19  2  0
M  END
