mac-x0375-mac-x0567
     RDKit          3D

 24 26  0  0  0  0  0  0  0  0999 V2000
    1.7990   12.4640   -2.9970 O   0  0  0  0  0  0  0  0  0  0  0  0
    0.6990   12.1950   -3.8580 C   0  0  0  0  0  0  0  0  0  0  0  0
    0.4680   10.8100   -3.7580 O   0  0  0  0  0  0  0  0  0  0  0  0
    0.9880   12.6030   -5.3170 C   0  0  0  0  0  0  0  0  0  0  0  0
   -0.4930   12.8930   -3.2440 C   0  0  0  0  0  0  0  0  0  0  0  0
    0.7870   11.4860   -6.1760 O   0  0  0  0  0  0  0  0  0  0  0  0
   -0.4440   12.7060   -1.7520 C   0  0  0  0  0  0  0  0  0  0  0  0
    0.5290   13.7180   -1.1730 C   0  0  0  0  0  0  0  0  0  0  0  0
   -0.4060   10.8220   -6.1180 C   0  0  0  0  0  0  0  0  0  0  0  0
    0.1480   13.9510    0.1840 N   0  0  0  0  0  0  0  0  0  0  0  0
   -0.3950    9.5840   -6.7590 C   0  0  0  0  0  0  0  0  0  0  0  0
   -1.5760   11.2620   -5.5000 C   0  0  0  0  0  0  0  0  0  0  0  0
   -1.5380    8.7850   -6.7860 C   0  0  0  0  0  0  0  0  0  0  0  0
   -2.7230   10.4620   -5.5260 C   0  0  0  0  0  0  0  0  0  0  0  0
   -1.1130   14.3290    0.5110 C   0  0  0  0  0  0  0  0  0  0  0  0
   -2.7030    9.2270   -6.1670 C   0  0  0  0  0  0  0  0  0  0  0  0
   -1.5750   14.4100    1.7770 N   0  0  0  0  0  0  0  0  0  0  0  0
   -2.1920   14.7030   -0.2570 C   0  0  0  0  0  0  0  0  0  0  0  0
   -2.8580   14.8030    1.8980 N   0  0  0  0  0  0  0  0  0  0  0  0
   -3.2730   14.9990    0.6450 C   0  0  0  0  0  0  0  0  0  0  0  0
   -2.2450   14.7860   -1.6490 C   0  0  0  0  0  0  0  0  0  0  0  0
   -4.5210   15.4180    0.1690 C   0  0  0  0  0  0  0  0  0  0  0  0
   -3.5110   15.2090   -2.1030 C   0  0  0  0  0  0  0  0  0  0  0  0
   -4.6020   15.5140   -1.2360 C   0  0  0  0  0  0  0  0  0  0  0  0
  2  1  1  0
  2  3  1  0
  2  4  1  0
  2  5  1  0
  4  6  1  0
  5  7  1  0
  7  8  1  0
  6  9  1  0
  8 10  1  0
  9 11  2  0
  9 12  1  0
 11 13  1  0
 12 14  2  0
 10 15  1  0
 13 16  2  0
 14 16  1  0
 15 17  1  0
 15 18  2  0
 17 19  1  0
 18 20  1  0
 19 20  2  0
 18 21  1  0
 20 22  1  0
 21 23  2  0
 22 24  2  0
 23 24  1  0
M  END
