mac-x0263-mac-x0231
     RDKit          3D

 31 34  0  0  0  0  0  0  0  0999 V2000
  -11.5250   14.3710    2.5140 O   0  0  0  0  0  0  0  0  0  0  0  0
  -10.8420   15.4860    2.8380 C   0  0  0  0  0  0  0  0  0  0  0  0
  -11.2640   16.2460    3.6870 O   0  0  0  0  0  0  0  0  0  0  0  0
   -9.5810   15.6610    2.0560 C   0  0  0  0  0  0  0  0  0  0  0  0
   -8.9120   14.3250    1.7880 C   0  0  0  0  0  0  0  0  0  0  0  0
   -7.6590   14.5580    1.0300 C   0  0  0  0  0  0  0  0  0  0  0  0
   -7.6510   14.7550   -0.3220 N   0  0  0  0  0  0  0  0  0  0  0  0
   -6.4420   14.6120    1.5230 N   0  0  0  0  0  0  0  0  0  0  0  0
   -6.3620   14.9450   -0.7160 C   0  0  0  0  0  0  0  0  0  0  0  0
   -5.6190   14.8530    0.4540 C   0  0  0  0  0  0  0  0  0  0  0  0
   -5.8160   15.1800   -1.9670 C   0  0  0  0  0  0  0  0  0  0  0  0
   -4.2310   15.0060    0.4010 C   0  0  0  0  0  0  0  0  0  0  0  0
   -4.4400   15.3220   -2.0210 C   0  0  0  0  0  0  0  0  0  0  0  0
   -3.6540   15.2390   -0.8520 C   0  0  0  0  0  0  0  0  0  0  0  0
   -3.7610   15.5660   -3.3430 C   0  0  0  0  0  0  0  0  0  0  0  0
   -4.1330   14.8280   -4.6420 C   0  0  0  0  0  0  0  0  0  0  0  0
   -2.7350   14.4850   -4.7390 C   0  0  0  0  0  0  0  0  0  0  0  0
   -1.8810   15.5810   -4.7010 C   0  0  0  0  0  0  0  0  0  0  0  0
   -2.2740   13.1860   -4.7990 C   0  0  0  0  0  0  0  0  0  0  0  0
   -0.5330   15.3780   -4.6700 C   0  0  0  0  0  0  0  0  0  0  0  0
   -0.9100   12.9850   -4.7670 C   0  0  0  0  0  0  0  0  0  0  0  0
   -0.0580   14.0880   -4.6760 C   0  0  0  0  0  0  0  0  0  0  0  0
    0.3960   16.5100   -4.6040 C   0  0  0  0  0  0  0  0  0  0  0  0
    0.0150   17.6740   -4.6700 O   0  0  0  0  0  0  0  0  0  0  0  0
    1.3740   13.9320   -4.5460 C   0  0  0  0  0  0  0  0  0  0  0  0
    1.7060   16.1650   -4.4690 N   0  0  0  0  0  0  0  0  0  0  0  0
    1.8760   12.5480   -4.4270 C   0  0  0  0  0  0  0  0  0  0  0  0
    2.1990   14.9060   -4.4310 N   0  0  0  0  0  0  0  0  0  0  0  0
    1.3420   12.0110   -3.1190 C   0  0  0  0  0  0  0  0  0  0  0  0
    0.5910   10.8890   -3.2250 O   0  0  0  0  0  0  0  0  0  0  0  0
    1.5420   12.5290   -2.0390 O   0  0  0  0  0  0  0  0  0  0  0  0
  1  2  1  0
  2  3  2  0
  2  4  1  0
  4  5  1  0
  5  6  1  0
  6  7  1  0
  6  8  2  0
  7  9  1  0
  8 10  1  0
  9 10  2  0
  9 11  1  0
 10 12  1  0
 11 13  2  0
 12 14  2  0
 13 14  1  0
 13 15  1  0
 15 16  1  0
 16 17  1  0
 17 18  2  0
 17 19  1  0
 18 20  1  0
 19 21  2  0
 20 22  2  0
 21 22  1  0
 20 23  1  0
 23 24  2  0
 22 25  1  0
 23 26  1  0
 25 27  1  0
 25 28  2  0
 26 28  1  0
 27 29  1  0
 29 30  1  0
 29 31  2  0
M  END
