mac-x0337-mac-x0138
     RDKit          3D

 22 24  0  0  0  0  0  0  0  0999 V2000
   -5.7400    8.8570   -2.2160 C   0  0  0  0  0  0  0  0  0  0  0  0
   -5.5370   10.2860   -1.8710 C   0  0  0  0  0  0  0  0  0  0  0  0
   -6.3900   10.9500   -1.0540 C   0  0  0  0  0  0  0  0  0  0  0  0
   -4.4670   10.9500   -2.3860 C   0  0  0  0  0  0  0  0  0  0  0  0
   -4.2930   12.2790   -2.0590 C   0  0  0  0  0  0  0  0  0  0  0  0
   -6.2120   12.2600   -0.7340 C   0  0  0  0  0  0  0  0  0  0  0  0
   -5.1490   12.9800   -1.2310 C   0  0  0  0  0  0  0  0  0  0  0  0
   -4.9410   14.5780   -0.8200 S   0  0  0  0  0  0  0  0  0  0  0  0
   -4.3410   14.1580    0.4560 O   0  0  0  0  0  0  0  0  0  0  0  0
   -5.6890   15.3740   -1.8850 N   0  0  0  0  0  0  0  0  0  0  0  0
   -3.6090   15.1650   -1.1550 N   0  0  0  0  0  0  0  0  0  0  0  0
   -3.1160   15.0790   -2.4790 C   0  0  0  0  0  0  0  0  0  0  0  0
   -2.8310   14.3470   -0.4240 C   0  0  1  0  0  0  0  0  0  0  0  0
   -1.7930   14.4130   -2.4260 N   0  0  0  0  0  0  0  0  0  0  0  0
   -1.4420   14.5580   -1.0260 C   0  0  2  0  0  0  0  0  0  0  0  0
   -2.7720   14.4670    1.0910 C   0  0  2  0  0  0  0  0  0  0  0  0
   -0.8220   15.0290   -3.2790 C   0  0  0  0  0  0  0  0  0  0  0  0
   -3.7770   15.4140    1.5650 N   0  0  0  0  0  0  0  0  0  0  0  0
   -1.4980   14.9920    1.4450 N   0  0  0  0  0  0  0  0  0  0  0  0
   -0.5310   13.7210   -0.4010 N   0  0  0  0  0  0  0  0  0  0  0  0
   -0.4110   14.2430    0.9460 C   0  0  1  0  0  0  0  0  0  0  0  0
    0.5940   15.2770    0.8090 N   0  0  0  0  0  0  0  0  0  0  0  0
  1  2  1  0
  2  3  2  0
  2  4  1  0
  4  5  2  0
  3  6  1  0
  5  7  1  0
  6  7  2  0
  7  8  1  0
  8  9  2  0
  8 10  1  0
  8 11  1  0
 11 12  1  0
 13 11  1  6
 12 14  1  0
 13 15  1  0
 14 15  1  0
 13 16  1  0
 14 17  1  0
 16 18  1  6
 16 19  1  0
 15 20  1  1
 19 21  1  0
 20 21  1  0
 21 22  1  6
M  END
