mac-x0303-diamond-x0438_0_A
     RDKit          3D

 15 16  0  0  0  0  0  0  0  0999 V2000
   -8.7370   12.9030    2.5670 N   0  0  0  0  0  0  0  0  0  0  0  0
   -8.1940   14.3260    2.4900 S   0  0  0  0  0  0  0  0  0  0  0  0
   -8.4380   15.6240    3.4500 O   0  0  0  0  0  0  0  0  0  0  0  0
   -9.4210   14.8980    1.7270 N   0  0  0  0  0  0  0  0  0  0  0  0
   -6.9590   14.6450    1.2010 C   0  0  0  0  0  0  0  0  0  0  0  0
  -10.6520   14.6770    2.2900 O   0  0  0  0  0  0  0  0  0  0  0  0
   -9.4060   16.2690    1.6050 O   0  0  0  0  0  0  0  0  0  0  0  0
   -7.1910   14.8710   -0.0720 N   0  0  0  0  0  0  0  0  0  0  0  0
   -5.6770   14.6820    1.4130 N   0  0  0  0  0  0  0  0  0  0  0  0
   -5.9770   15.0530   -0.6710 C   0  0  0  0  0  0  0  0  0  0  0  0
   -5.0240   14.9290    0.2810 C   0  0  0  0  0  0  0  0  0  0  0  0
   -5.5890   15.3130   -1.9410 C   0  0  0  0  0  0  0  0  0  0  0  0
   -3.6900   15.0520    0.0140 C   0  0  0  0  0  0  0  0  0  0  0  0
   -4.2370   15.4460   -2.2870 C   0  0  0  0  0  0  0  0  0  0  0  0
   -3.3000   15.3110   -1.2970 C   0  0  0  0  0  0  0  0  0  0  0  0
  1  2  1  0
  2  3  2  0
  2  4  1  0
  2  5  1  0
  4  6  1  0
  4  7  1  0
  5  8  1  0
  5  9  2  0
  8 10  1  0
  9 11  1  0
 10 11  2  0
 10 12  1  0
 11 13  1  0
 12 14  2  0
 13 15  2  0
 14 15  1  0
M  END
