mac-x0451-diamond-x0722_0_A
     RDKit          3D

 22 24  0  0  0  0  0  0  0  0999 V2000
   -7.9110   11.5990    1.3190 N   0  0  0  0  0  0  0  0  0  0  0  0
   -6.9310   12.1080    0.5620 C   0  0  0  0  0  0  0  0  0  0  0  0
   -7.0620   12.3880   -0.7220 N   0  0  0  0  0  0  0  0  0  0  0  0
   -5.4130   12.4290    1.2590 S   0  0  0  0  0  0  0  0  0  0  0  0
   -5.8770   12.9170   -1.2150 C   0  0  0  0  0  0  0  0  0  0  0  0
   -4.8820   13.0080   -0.2600 C   0  0  0  0  0  0  0  0  0  0  0  0
   -5.5980   13.3620   -2.5480 C   0  0  0  0  0  0  0  0  0  0  0  0
   -3.6590   13.5160   -0.5550 C   0  0  0  0  0  0  0  0  0  0  0  0
   -4.3280   13.9020   -2.8640 C   0  0  0  0  0  0  0  0  0  0  0  0
   -3.4000   13.9690   -1.8440 C   0  0  0  0  0  0  0  0  0  0  0  0
   -2.1690   14.4820   -1.8760 O   0  0  0  0  0  0  0  0  0  0  0  0
   -2.3840   14.8100   -0.6120 C   0  0  0  0  0  0  0  0  0  0  0  0
   -3.5790   15.3460   -0.0860 C   0  0  0  0  0  0  0  0  0  0  0  0
   -1.5180   14.6650    0.4470 N   0  0  0  0  0  0  0  0  0  0  0  0
   -0.1660   14.1660    0.4660 C   0  0  0  0  0  0  0  0  0  0  0  0
   -4.8720   15.7240   -0.7960 C   0  0  0  0  0  0  0  0  0  0  0  0
   -2.0710   15.0440    1.6040 N   0  0  0  0  0  0  0  0  0  0  0  0
   -3.3090   15.4440    1.2860 C   0  0  0  0  0  0  0  0  0  0  0  0
   -4.2250   15.9190    2.3280 C   0  0  0  0  0  0  0  0  0  0  0  0
   -6.1710   15.0690   -0.3450 C   0  0  0  0  0  0  0  0  0  0  0  0
   -7.1530   14.9070   -1.0630 O   0  0  0  0  0  0  0  0  0  0  0  0
   -6.2240   14.6680    0.9550 N   0  0  0  0  0  0  0  0  0  0  0  0
  1  2  1  0
  2  3  2  0
  2  4  1  0
  3  5  1  0
  4  6  1  0
  5  6  2  0
  5  7  1  0
  6  8  1  0
  7  9  2  0
  8 10  2  0
  9 10  1  0
 10 11  1  0
 11 12  1  0
 12 13  2  0
 12 14  1  0
 14 15  1  0
 13 16  1  0
 14 17  1  0
 13 18  1  0
 17 18  2  0
 18 19  1  0
 16 20  1  0
 20 21  2  0
 20 22  1  0
M  END
