mac-x0228-diamond-x0438_0_A
     RDKit          3D

 17 18  0  0  0  0  0  0  0  0999 V2000
   -1.1200   14.5630   -1.6630 O   0  0  0  0  0  0  0  0  0  0  0  0
   -2.0850   14.6720   -2.6000 C   0  0  0  0  0  0  0  0  0  0  0  0
   -1.8630   14.7390   -3.7970 O   0  0  0  0  0  0  0  0  0  0  0  0
   -3.4540   14.7000   -2.0270 C   0  0  0  0  0  0  0  0  0  0  0  0
   -3.7230   14.2860   -0.7150 C   0  0  0  0  0  0  0  0  0  0  0  0
   -4.4900   15.1570   -2.8510 C   0  0  0  0  0  0  0  0  0  0  0  0
   -5.0380   14.3400   -0.2710 C   0  0  0  0  0  0  0  0  0  0  0  0
   -5.8070   15.2110   -2.3800 C   0  0  0  0  0  0  0  0  0  0  0  0
   -6.0540   14.7980   -1.0880 C   0  0  0  0  0  0  0  0  0  0  0  0
   -5.5940   13.9560    1.0450 C   0  0  0  0  0  0  0  0  0  0  0  0
   -7.2980   14.7980   -0.4990 O   0  0  0  0  0  0  0  0  0  0  0  0
   -7.0310   14.4640    0.8880 C   0  0  1  0  0  0  0  0  0  0  0  0
   -8.2230   13.8550    1.6070 C   0  0  0  0  0  0  0  0  0  0  0  0
   -9.2000   15.0630    2.5150 S   0  0  0  0  0  0  0  0  0  0  0  0
   -8.2070   15.5030    3.9260 C   0  0  0  0  0  0  0  0  0  0  0  0
  -10.3710   14.3770    3.0320 O   0  0  0  0  0  0  0  0  0  0  0  0
   -9.3980   16.2550    1.7110 O   0  0  0  0  0  0  0  0  0  0  0  0
  1  2  1  0
  2  3  2  0
  2  4  1  0
  4  5  2  0
  4  6  1  0
  5  7  1  0
  6  8  2  0
  7  9  2  0
  8  9  1  0
  7 10  1  0
  9 11  1  0
 10 12  1  0
 11 12  1  0
 12 13  1  6
 14 13  1  0
 14 15  1  0
 14 16  2  0
 14 17  2  0
M  END
