mac-x0404-diamond-x0933_0_A
     RDKit          3D

 24 26  0  0  0  0  0  0  0  0999 V2000
    0.6800   12.6460   -1.4700 O   0  0  0  0  0  0  0  0  0  0  0  0
    0.9630   12.2510   -2.7470 C   0  0  0  0  0  0  0  0  0  0  0  0
    0.5190   11.2140   -3.2090 O   0  0  0  0  0  0  0  0  0  0  0  0
    1.8850   13.2220   -3.5060 C   0  0  0  0  0  0  0  0  0  0  0  0
    1.3110   13.9140   -4.6250 O   0  0  0  0  0  0  0  0  0  0  0  0
    0.0680   14.5240   -4.5710 C   0  0  0  0  0  0  0  0  0  0  0  0
   -0.0250   15.8760   -5.0330 C   0  0  0  0  0  0  0  0  0  0  0  0
   -1.0770   13.9010   -4.0900 C   0  0  0  0  0  0  0  0  0  0  0  0
   -1.2640   16.5440   -5.0280 C   0  0  0  0  0  0  0  0  0  0  0  0
   -2.2790   14.6000   -4.0710 C   0  0  0  0  0  0  0  0  0  0  0  0
    1.0590   16.6070   -5.4980 C   0  0  0  0  0  0  0  0  0  0  0  0
   -3.5330   14.0500   -3.5040 C   0  0  0  0  0  0  0  0  0  0  0  0
   -2.3700   15.8900   -4.5520 C   0  0  0  0  0  0  0  0  0  0  0  0
   -1.3900   17.8640   -5.4840 C   0  0  0  0  0  0  0  0  0  0  0  0
    0.9470   17.9250   -5.9430 C   0  0  0  0  0  0  0  0  0  0  0  0
   -3.9270   15.2390   -2.6030 C   0  0  0  0  0  0  0  0  0  0  0  0
   -0.2830   18.5510   -5.9400 C   0  0  0  0  0  0  0  0  0  0  0  0
   -4.3010   15.0100   -1.1310 C   0  0  1  0  0  0  0  0  0  0  0  0
   -5.1710   13.8000   -0.9540 C   0  0  0  0  0  0  0  0  0  0  0  0
   -3.2190   14.9600   -0.0070 C   0  0  0  0  0  0  0  0  0  0  0  0
   -5.8750   13.9200    0.3020 N   0  0  0  0  0  0  0  0  0  0  0  0
   -3.8600   14.5560    1.2420 N   0  0  0  0  0  0  0  0  0  0  0  0
   -5.2230   14.8950    1.0980 C   0  0  2  0  0  0  0  0  0  0  0  0
   -5.8760   14.8070    2.3500 N   0  0  0  0  0  0  0  0  0  0  0  0
  1  2  1  0
  2  3  2  0
  2  4  1  0
  4  5  1  0
  5  6  1  0
  6  7  2  0
  6  8  1  0
  7  9  1  0
  8 10  2  0
  7 11  1  0
 10 12  1  0
  9 13  2  0
 10 13  1  0
  9 14  1  0
 11 15  2  0
 12 16  1  0
 14 17  2  0
 15 17  1  0
 18 16  1  6
 18 19  1  0
 18 20  1  0
 19 21  1  0
 20 22  1  0
 21 23  1  0
 22 23  1  0
 23 24  1  1
M  END
