mac-x0572-mac-x0182
     RDKit          3D

 28 31  0  0  0  0  0  0  0  0999 V2000
   -8.0730   14.4950    3.1100 C   0  0  0  0  0  0  0  0  0  0  0  0
   -7.2640   14.6300    1.8410 C   0  0  0  0  0  0  0  0  0  0  0  0
   -5.9210   14.7570    2.0700 N   0  0  0  0  0  0  0  0  0  0  0  0
   -7.8160   14.6280    0.6190 C   0  0  0  0  0  0  0  0  0  0  0  0
   -9.1730   14.4960    0.3900 O   0  0  0  0  0  0  0  0  0  0  0  0
   -6.9150   14.7820   -0.5620 C   0  0  0  0  0  0  0  0  0  0  0  0
   -5.1150   15.0950    1.1180 C   0  0  0  0  0  0  0  0  0  0  0  0
   -7.3300   14.4220   -1.6640 O   0  0  0  0  0  0  0  0  0  0  0  0
   -5.5500   15.3890   -0.3050 C   0  0  1  0  0  0  0  0  0  0  0  0
   -3.6910   15.1950    1.4550 C   0  0  0  0  0  0  0  0  0  0  0  0
   -2.8050   15.1540    0.4790 C   0  0  0  0  0  0  0  0  0  0  0  0
   -4.4570   15.1080   -1.2990 C   0  0  0  0  0  0  0  0  0  0  0  0
   -3.1640   15.0090   -0.9190 C   0  0  0  0  0  0  0  0  0  0  0  0
   -1.9780   14.7530   -1.8070 C   0  0  0  0  0  0  0  0  0  0  0  0
   -1.6900   13.3400   -2.2510 C   0  0  0  0  0  0  0  0  0  0  0  0
   -1.6460   13.2940   -3.7640 C   0  0  0  0  0  0  0  0  0  0  0  0
   -1.9250   11.9260   -4.1460 N   0  0  0  0  0  0  0  0  0  0  0  0
   -0.7290   11.0270   -4.3390 S   0  0  2  0  0  0  0  0  0  0  0  0
   -0.0030   10.2780   -3.3460 O   0  0  0  0  0  0  0  0  0  0  0  0
    0.3880   12.0230   -5.1010 N   0  0  0  0  0  0  0  0  0  0  0  0
   -1.0750   10.0680   -5.7250 C   0  0  0  0  0  0  0  0  0  0  0  0
    0.7280   11.5130   -6.3230 C   0  0  0  0  0  0  0  0  0  0  0  0
   -0.2070   10.4370   -6.7450 C   0  0  0  0  0  0  0  0  0  0  0  0
   -2.0350    9.0930   -5.8550 C   0  0  0  0  0  0  0  0  0  0  0  0
    1.6820   11.8560   -6.9740 O   0  0  0  0  0  0  0  0  0  0  0  0
   -2.1220    8.4580   -7.0930 C   0  0  0  0  0  0  0  0  0  0  0  0
   -0.2830    9.8120   -7.9740 C   0  0  0  0  0  0  0  0  0  0  0  0
   -1.2520    8.8140   -8.1460 C   0  0  0  0  0  0  0  0  0  0  0  0
  1  2  1  0
  2  3  1  0
  2  4  2  0
  4  5  1  0
  4  6  1  0
  3  7  2  0
  6  8  2  0
  6  9  1  0
  7  9  1  0
  7 10  1  0
 10 11  2  0
  9 12  1  6
 11 13  1  0
 12 13  2  0
 13 14  1  0
 14 15  1  0
 15 16  1  0
 16 17  1  0
 17 18  2  0
 18 19  2  0
 18 20  1  6
 18 21  1  0
 20 22  1  0
 21 23  2  0
 22 23  1  0
 21 24  1  0
 22 25  2  0
 24 26  2  0
 23 27  1  0
 26 28  1  0
 27 28  2  0
M  END
