mac-x0584-diamond-x0926_0_A
     RDKit          3D

 19 22  0  0  0  0  0  0  0  0999 V2000
   -6.0370   15.0930    0.2170 O   0  0  0  0  0  0  0  0  0  0  0  0
   -4.8100   15.0650    0.2490 C   0  0  0  0  0  0  0  0  0  0  0  0
   -3.9560   14.9770    1.3250 N   0  0  0  0  0  0  0  0  0  0  0  0
   -4.0190   15.0670   -0.9800 C   0  0  0  0  0  0  0  0  0  0  0  0
   -2.7830   14.8780    0.8030 C   0  0  0  0  0  0  0  0  0  0  0  0
   -2.7500   14.9280   -0.6350 C   0  0  0  0  0  0  0  0  0  0  0  0
   -1.6190   14.7430    1.4890 N   0  0  0  0  0  0  0  0  0  0  0  0
   -1.4760   14.8440   -1.3230 C   0  0  0  0  0  0  0  0  0  0  0  0
   -1.3520   14.9070   -2.6960 N   0  0  0  0  0  0  0  0  0  0  0  0
   -0.4010   14.7310   -0.5720 N   0  0  0  0  0  0  0  0  0  0  0  0
   -0.5230   14.6870    0.8000 C   0  0  0  0  0  0  0  0  0  0  0  0
   -0.1520   15.0840   -3.4770 C   0  0  1  0  0  0  0  0  0  0  0  0
   -2.5510   15.0020   -3.5420 C   0  0  0  0  0  0  0  0  0  0  0  0
    0.6320   13.8090   -3.4820 C   0  0  0  0  0  0  0  0  0  0  0  0
   -0.6210   15.3660   -4.9210 C   0  0  0  0  0  0  0  0  0  0  0  0
   -2.0930   15.7070   -4.8080 C   0  0  0  0  0  0  0  0  0  0  0  0
    1.4760   13.4080   -4.7220 C   0  0  0  0  0  0  0  0  0  0  0  0
   -0.1540   12.4920   -3.6920 C   0  0  0  0  0  0  0  0  0  0  0  0
    1.1230   11.9820   -4.3080 C   0  0  0  0  0  0  0  0  0  0  0  0
  1  2  2  0
  2  3  1  0
  2  4  1  0
  3  5  2  0
  4  6  2  0
  5  6  1  0
  5  7  1  0
  6  8  1  0
  8  9  1  0
  8 10  2  0
  7 11  2  0
 10 11  1  0
  9 12  1  0
  9 13  1  0
 12 14  1  6
 12 15  1  0
 13 16  1  0
 15 16  1  0
 14 17  1  0
 14 18  1  0
 17 19  1  0
 18 19  1  0
M  END
