mac-x0385-mac-x0360
     RDKit          3D

 19 21  0  0  0  0  0  0  0  0999 V2000
   -4.0160   14.9490   -1.4810 C   0  0  0  0  0  0  0  0  0  0  0  0
   -4.5280   13.7250   -0.3780 S   0  0  2  0  0  0  0  0  0  0  0  0
   -5.1210   14.2490   -1.8590 N   0  0  0  0  0  0  0  0  0  0  0  0
   -2.7910   15.3130   -0.9760 C   0  0  0  0  0  0  0  0  0  0  0  0
   -3.5090   14.0950    0.7410 N   0  0  0  0  0  0  0  0  0  0  0  0
   -2.5840   14.7710    0.2350 C   0  0  0  0  0  0  0  0  0  0  0  0
   -1.8510   16.0080   -1.5670 C   0  0  0  0  0  0  0  0  0  0  0  0
   -5.6270   12.5420   -0.2410 C   0  0  0  0  0  0  0  0  0  0  0  0
   -1.4980   14.8620    0.8910 N   0  0  0  0  0  0  0  0  0  0  0  0
   -0.6830   16.1450   -0.9720 N   0  0  0  0  0  0  0  0  0  0  0  0
   -5.3940   11.6150   -1.2260 C   0  0  0  0  0  0  0  0  0  0  0  0
   -6.5820   12.4740    0.7050 C   0  0  0  0  0  0  0  0  0  0  0  0
   -0.6090   15.5290    0.2210 C   0  0  0  0  0  0  0  0  0  0  0  0
   -6.1740   10.5130   -1.2790 C   0  0  0  0  0  0  0  0  0  0  0  0
   -7.3760   11.3570    0.6540 C   0  0  0  0  0  0  0  0  0  0  0  0
    0.6240   15.5430    0.8950 C   0  0  0  0  0  0  0  0  0  0  0  0
   -8.6080   11.1740    1.8280 Cl  0  0  0  0  0  0  0  0  0  0  0  0
   -5.8750    9.3410   -2.5030 Cl  0  0  0  0  0  0  0  0  0  0  0  0
   -7.1860   10.3690   -0.3310 C   0  0  0  0  0  0  0  0  0  0  0  0
  1  2  2  0
  2  3  1  1
  1  4  1  0
  2  5  2  0
  4  6  2  0
  5  6  1  0
  4  7  1  0
  2  8  1  0
  6  9  1  0
  7 10  2  0
  8 11  2  0
  8 12  1  0
  9 13  2  0
 10 13  1  0
 11 14  1  0
 12 15  2  0
 13 16  1  0
 15 17  1  0
 14 18  1  0
 14 19  2  0
 15 19  1  0
M  END
