mac-x0163-mac-x0321
     RDKit          3D

 26 29  0  0  0  0  0  0  0  0999 V2000
   -2.7130   15.8720   -1.9220 Cl  0  0  0  0  0  0  0  0  0  0  0  0
   -1.7160   15.3320   -0.6180 C   0  0  0  0  0  0  0  0  0  0  0  0
   -2.2750   15.0840    0.6590 C   0  0  0  0  0  0  0  0  0  0  0  0
   -0.3550   15.1230   -0.7990 C   0  0  0  0  0  0  0  0  0  0  0  0
   -3.6670   15.2890    0.7370 N   0  0  0  0  0  0  0  0  0  0  0  0
    0.3740   14.7060    0.2320 N   0  0  0  0  0  0  0  0  0  0  0  0
   -1.5310   14.6680    1.6880 N   0  0  0  0  0  0  0  0  0  0  0  0
    0.3490   15.3240   -2.0650 N   0  0  0  0  0  0  0  0  0  0  0  0
   -0.2390   14.5000    1.4120 C   0  0  0  0  0  0  0  0  0  0  0  0
   -0.2000   16.4860   -2.8140 C   0  0  0  0  0  0  0  0  0  0  0  0
    0.7560   14.2140   -2.9390 C   0  0  0  0  0  0  0  0  0  0  0  0
   -4.2790   15.0930   -0.4960 C   0  0  0  0  0  0  0  0  0  0  0  0
    0.2810   16.5010   -4.2630 C   0  0  0  0  0  0  0  0  0  0  0  0
    1.2820   12.9370   -2.2090 C   0  0  0  0  0  0  0  0  0  0  0  0
    2.2240   14.4110   -3.4400 C   0  0  0  0  0  0  0  0  0  0  0  0
   -0.2570   14.0410   -4.0560 C   0  0  0  0  0  0  0  0  0  0  0  0
   -3.4970   14.4540   -1.4450 C   0  0  0  0  0  0  0  0  0  0  0  0
   -5.5640   15.4820   -0.8600 C   0  0  0  0  0  0  0  0  0  0  0  0
   -0.1350   15.2230   -5.0000 C   0  0  0  0  0  0  0  0  0  0  0  0
   -3.9420   14.2100   -2.7240 C   0  0  0  0  0  0  0  0  0  0  0  0
   -6.0410   15.2420   -2.1530 C   0  0  0  0  0  0  0  0  0  0  0  0
    2.7030   13.5390   -2.2700 C   0  0  0  0  0  0  0  0  0  0  0  0
   -3.0460   13.5380   -3.6900 C   0  0  0  0  0  0  0  0  0  0  0  0
   -5.2260   14.6060   -3.0900 C   0  0  0  0  0  0  0  0  0  0  0  0
   -2.2740   12.5990   -3.1090 O   0  0  0  0  0  0  0  0  0  0  0  0
   -2.9610   13.7780   -4.8790 O   0  0  0  0  0  0  0  0  0  0  0  0
  1  2  1  0
  2  3  2  0
  2  4  1  0
  3  5  1  0
  4  6  2  0
  3  7  1  0
  4  8  1  0
  6  9  1  0
  7  9  2  0
  8 10  1  0
 11  8  1  0
  5 12  1  0
 10 13  1  0
 11 14  1  0
 11 15  1  0
 11 16  1  0
 12 17  2  0
 12 18  1  0
 13 19  1  0
 16 19  1  0
 17 20  1  0
 18 21  2  0
 14 22  1  0
 15 22  1  0
 20 23  1  0
 20 24  2  0
 21 24  1  0
 23 25  1  0
 23 26  2  0
M  END
