mac-x0567-diamond-x0895_0_A
     RDKit          3D

 11 12  0  0  0  0  0  0  0  0999 V2000
    0.1180   13.7760    0.1770 N   0  0  0  0  0  0  0  0  0  0  0  0
   -1.1120   14.3030    0.3000 C   0  0  0  0  0  0  0  0  0  0  0  0
   -1.6570   14.7010    1.4950 N   0  0  0  0  0  0  0  0  0  0  0  0
   -2.1280   14.5910   -0.6250 C   0  0  0  0  0  0  0  0  0  0  0  0
   -3.0040   15.2250    1.2740 N   0  0  0  0  0  0  0  0  0  0  0  0
   -3.3050   15.1630    0.0170 C   0  0  0  0  0  0  0  0  0  0  0  0
   -2.0710   14.3760   -1.9930 C   0  0  0  0  0  0  0  0  0  0  0  0
   -3.7130   15.6520    2.1520 O   0  0  0  0  0  0  0  0  0  0  0  0
   -4.4790   15.5570   -0.5800 C   0  0  0  0  0  0  0  0  0  0  0  0
   -3.2770   14.7780   -2.6260 C   0  0  0  0  0  0  0  0  0  0  0  0
   -4.4190   15.3370   -1.9570 C   0  0  0  0  0  0  0  0  0  0  0  0
  1  2  1  0
  2  3  1  0
  2  4  2  0
  3  5  1  0
  4  6  1  0
  5  6  2  0
  4  7  1  0
  5  8  1  0
  6  9  1  0
  7 10  2  0
  9 11  2  0
 10 11  1  0
M  CHG  2   5   1   8  -1
M  END
