mac-x0588-mac-x0357
     RDKit          3D

 26 29  0  0  0  0  0  0  0  0999 V2000
   -4.2960   15.5140    1.3360 N   0  0  0  0  0  0  0  0  0  0  0  0
   -3.6190   14.7750    0.2750 C   0  0  2  0  0  0  0  0  0  0  0  0
   -2.1400   14.3710    0.5630 C   0  0  1  0  0  0  0  0  0  0  0  0
   -3.8650   15.5330   -0.9100 N   0  0  0  0  0  0  0  0  0  0  0  0
   -3.0360   15.0820   -2.0070 C   0  0  0  0  0  0  0  0  0  0  0  0
   -1.2680   14.1490   -0.6810 C   0  0  1  0  0  0  0  0  0  0  0  0
   -1.3620   15.3570    1.2860 N   0  0  0  0  0  0  0  0  0  0  0  0
   -1.5790   14.9650   -1.8210 N   0  0  0  0  0  0  0  0  0  0  0  0
    0.0900   14.2940   -0.1770 N   0  0  0  0  0  0  0  0  0  0  0  0
   -0.0100   14.8760    1.1310 C   0  0  0  0  0  0  0  0  0  0  0  0
   -0.8720   14.7020   -3.0070 C   0  0  0  0  0  0  0  0  0  0  0  0
   -0.7010   13.3730   -3.2110 C   0  0  0  0  0  0  0  0  0  0  0  0
   -0.4540   15.9040   -3.9110 C   0  0  2  0  0  0  0  0  0  0  0  0
   -1.0700   12.4550   -2.2540 O   0  0  0  0  0  0  0  0  0  0  0  0
   -1.5160   16.6660   -4.5190 O   0  0  0  0  0  0  0  0  0  0  0  0
    0.5610   15.7560   -5.0150 C   0  0  0  0  0  0  0  0  0  0  0  0
   -0.2110   12.7030   -4.3670 C   0  0  0  0  0  0  0  0  0  0  0  0
    0.6060   17.2150   -5.4390 C   0  0  0  0  0  0  0  0  0  0  0  0
   -0.8510   17.6520   -5.3200 C   0  0  0  0  0  0  0  0  0  0  0  0
    1.0430   12.7060   -4.9630 C   0  0  0  0  0  0  0  0  0  0  0  0
   -1.2720   11.9600   -4.9050 C   0  0  0  0  0  0  0  0  0  0  0  0
    2.2460   13.4520   -4.4510 C   0  0  0  0  0  0  0  0  0  0  0  0
   -1.1370   11.2100   -6.0450 C   0  0  0  0  0  0  0  0  0  0  0  0
    1.1280   11.9490   -6.1170 C   0  0  0  0  0  0  0  0  0  0  0  0
    2.2590   11.8890   -6.7920 O   0  0  0  0  0  0  0  0  0  0  0  0
    0.0870   11.2110   -6.6660 C   0  0  0  0  0  0  0  0  0  0  0  0
  2  1  1  1
  2  3  1  0
  2  4  1  0
  4  5  1  0
  3  6  1  0
  3  7  1  1
  5  8  1  0
  6  8  1  0
  6  9  1  1
  7 10  1  0
  9 10  1  0
  8 11  1  0
 11 12  2  3
 13 11  1  6
 12 14  1  0
 13 15  1  0
 13 16  1  0
 12 17  1  0
 16 18  1  0
 15 19  1  0
 18 19  1  0
 17 20  2  0
 17 21  1  0
 20 22  1  0
 21 23  2  0
 20 24  1  0
 24 25  1  0
 23 26  1  0
 24 26  2  0
M  END
