mac-x0380-mac-x0371
     RDKit          3D

 25 27  0  0  0  0  0  0  0  0999 V2000
   -1.2300   14.9940   -1.9530 O   0  0  0  0  0  0  0  0  0  0  0  0
   -2.4160   14.8270   -2.5450 C   0  0  0  0  0  0  0  0  0  0  0  0
   -2.3000   14.6680   -3.8210 N   0  0  0  0  0  0  0  0  0  0  0  0
   -3.4170   14.8820   -1.4680 C   0  0  0  0  0  0  0  0  0  0  0  0
   -4.7990   14.9650   -1.6740 C   0  0  0  0  0  0  0  0  0  0  0  0
   -2.8990   14.8430   -0.1690 C   0  0  0  0  0  0  0  0  0  0  0  0
   -0.9040   14.7600   -4.0530 C   0  0  0  0  0  0  0  0  0  0  0  0
   -5.6520   14.9970   -0.5510 C   0  0  0  0  0  0  0  0  0  0  0  0
   -3.7380   14.8780    0.9310 C   0  0  0  0  0  0  0  0  0  0  0  0
    0.0220   13.6630   -4.0700 C   0  0  0  0  0  0  0  0  0  0  0  0
   -0.4310   16.0670   -4.2480 C   0  0  0  0  0  0  0  0  0  0  0  0
   -0.4370   12.2130   -3.8890 C   0  0  0  0  0  0  0  0  0  0  0  0
   -5.1130   14.9490    0.7470 C   0  0  0  0  0  0  0  0  0  0  0  0
   -7.4080   15.0880   -0.7890 S   0  0  0  0  0  0  0  0  0  0  0  0
    0.9050   16.3340   -4.4370 C   0  0  0  0  0  0  0  0  0  0  0  0
    1.3820   13.9820   -4.2630 C   0  0  0  0  0  0  0  0  0  0  0  0
    2.6650   12.8380   -4.3010 Cl  0  0  0  0  0  0  0  0  0  0  0  0
   -0.0340   11.4640   -2.6250 C   0  0  0  0  0  0  0  0  0  0  0  0
   -5.9070   14.9630    1.9060 N   0  0  0  0  0  0  0  0  0  0  0  0
   -7.8880   14.1440    0.6760 C   0  0  0  0  0  0  0  0  0  0  0  0
    1.7950   15.2850   -4.4340 C   0  0  0  0  0  0  0  0  0  0  0  0
    0.1720   12.2460   -1.5370 O   0  0  0  0  0  0  0  0  0  0  0  0
    0.0980   10.2540   -2.5040 O   0  0  0  0  0  0  0  0  0  0  0  0
   -7.2350   14.6360    1.9410 C   0  0  0  0  0  0  0  0  0  0  0  0
   -7.8770   14.7550    2.9900 O   0  0  0  0  0  0  0  0  0  0  0  0
  1  2  1  0
  2  3  2  3
  2  4  1  0
  4  5  2  0
  4  6  1  0
  3  7  1  0
  5  8  1  0
  6  9  2  0
  7 10  2  0
  7 11  1  0
 10 12  1  0
  8 13  2  0
  9 13  1  0
  8 14  1  0
 11 15  2  0
 10 16  1  0
 16 17  1  0
 12 18  1  0
 13 19  1  0
 14 20  1  0
 15 21  1  0
 16 21  2  0
 18 22  1  0
 18 23  2  0
 19 24  1  0
 20 24  1  0
 24 25  2  0
M  END
