mac-x0159-mac-x0224
     RDKit          3D

 21 23  0  0  0  0  0  0  0  0999 V2000
   -4.6190   15.2190    0.1030 N   0  0  0  0  0  0  0  0  0  0  0  0
   -5.4070   14.8150    1.2380 C   0  0  0  0  0  0  0  0  0  0  0  0
   -3.2930   14.6590    0.0030 C   0  0  1  0  0  0  0  0  0  0  0  0
   -3.1510   13.8410   -1.1880 N   0  0  0  0  0  0  0  0  0  0  0  0
   -2.0930   15.5410    0.3210 C   0  0  2  0  0  0  0  0  0  0  0  0
   -2.1520   14.1320   -2.2360 C   0  0  2  0  0  0  0  0  0  0  0  0
   -1.0820   15.6950   -0.8210 C   0  0  2  0  0  0  0  0  0  0  0  0
   -1.3360   14.9860    1.4640 N   0  0  0  0  0  0  0  0  0  0  0  0
   -0.8200   13.2600   -2.1410 C   0  0  0  0  0  0  0  0  0  0  0  0
   -1.6080   15.4490   -2.1660 N   0  0  0  0  0  0  0  0  0  0  0  0
   -0.0950   14.6640   -0.4870 N   0  0  0  0  0  0  0  0  0  0  0  0
   -0.0350   14.6520    0.9530 C   0  0  0  0  0  0  0  0  0  0  0  0
   -0.4940   15.3650   -3.1140 C   0  0  0  0  0  0  0  0  0  0  0  0
   -0.2220   12.8120   -1.1600 O   0  0  0  0  0  0  0  0  0  0  0  0
   -0.2540   13.0270   -3.3550 O   0  0  0  0  0  0  0  0  0  0  0  0
   -0.2680   16.4510   -4.0940 C   0  0  0  0  0  0  0  0  0  0  0  0
    0.9800   16.9410   -4.3430 C   0  0  0  0  0  0  0  0  0  0  0  0
   -1.2840   17.0420   -4.8280 N   0  0  0  0  0  0  0  0  0  0  0  0
   -0.7740   17.9640   -5.6080 C   0  0  0  0  0  0  0  0  0  0  0  0
    0.9230   18.1710   -5.5140 S   0  0  0  0  0  0  0  0  0  0  0  0
   -1.5620   18.8050   -6.5360 C   0  0  0  0  0  0  0  0  0  0  0  0
  1  2  1  0
  3  1  1  6
  3  4  1  0
  3  5  1  0
  4  6  1  0
  5  7  1  0
  5  8  1  1
  6  9  1  1
  6 10  1  0
  7 10  1  0
  7 11  1  1
  8 12  1  0
 11 12  1  0
 10 13  1  0
  9 14  2  0
  9 15  1  0
 13 16  1  0
 16 17  2  0
 16 18  1  0
 18 19  2  0
 17 20  1  0
 19 20  1  0
 19 21  1  0
M  END
