mac-x0387-diamond-x0910_1_A
     RDKit          3D

 16 18  0  0  0  0  0  0  0  0999 V2000
   -3.7620   15.3210    1.9480 N   0  0  0  0  0  0  0  0  0  0  0  0
   -2.6460   15.0240    1.1850 C   0  0  0  0  0  0  0  0  0  0  0  0
   -1.4970   14.9540    1.8600 N   0  0  0  0  0  0  0  0  0  0  0  0
   -2.7340   14.8300   -0.1750 C   0  0  0  0  0  0  0  0  0  0  0  0
   -1.5040   14.5840   -0.8570 C   0  0  0  0  0  0  0  0  0  0  0  0
   -0.3620   14.7050    1.2040 C   0  0  0  0  0  0  0  0  0  0  0  0
   -4.0900   14.8690   -0.9110 C   0  0  2  0  0  0  0  0  0  0  0  0
   -0.3020   14.5210   -0.1450 C   0  0  0  0  0  0  0  0  0  0  0  0
   -1.4440   14.3940   -2.2970 C   0  0  0  0  0  0  0  0  0  0  0  0
   -3.9550   14.4630   -2.4230 C   0  0  0  0  0  0  0  0  0  0  0  0
   -4.9380   16.0800   -0.8760 N   0  0  0  0  0  0  0  0  0  0  0  0
   -5.0020   13.9130   -0.1800 N   0  0  0  0  0  0  0  0  0  0  0  0
   -2.5640   14.3450   -3.0150 C   0  0  0  0  0  0  0  0  0  0  0  0
   -6.1310   14.6390    0.3010 C   0  0  1  0  0  0  0  0  0  0  0  0
   -6.3100   15.5580   -0.7630 N   0  0  0  0  0  0  0  0  0  0  0  0
   -7.2490   13.7520    0.3300 N   0  0  0  0  0  0  0  0  0  0  0  0
  1  2  1  0
  2  3  2  0
  2  4  1  0
  4  5  2  0
  3  6  1  0
  4  7  1  0
  5  8  1  0
  6  8  2  0
  5  9  1  0
  7 10  1  6
  7 11  1  0
  7 12  1  0
  9 13  2  0
 10 13  1  0
 12 14  1  0
 11 15  1  0
 14 15  1  0
 14 16  1  6
M  END
