mac-x0319-mac-x0341
     RDKit          3D

 25 27  0  0  0  0  0  0  0  0999 V2000
    0.3450   10.5130   -2.5940 O   0  0  0  0  0  0  0  0  0  0  0  0
    0.6190   11.8140   -2.3290 C   0  0  0  0  0  0  0  0  0  0  0  0
    0.2730   12.3270   -1.1890 N   0  0  0  0  0  0  0  0  0  0  0  0
    1.3540   12.5310   -3.4560 C   0  0  0  0  0  0  0  0  0  0  0  0
    0.5050   13.6640   -0.6440 C   0  0  0  0  0  0  0  0  0  0  0  0
    0.6550   13.7960   -3.9060 C   0  0  0  0  0  0  0  0  0  0  0  0
   -0.3140   14.7860   -1.2630 C   0  0  0  0  0  0  0  0  0  0  0  0
    1.3050   15.0390   -3.8550 C   0  0  0  0  0  0  0  0  0  0  0  0
   -0.6670   13.7410   -4.3800 C   0  0  0  0  0  0  0  0  0  0  0  0
    0.6330   16.1920   -4.2660 C   0  0  0  0  0  0  0  0  0  0  0  0
   -1.3240   14.9060   -4.7910 C   0  0  0  0  0  0  0  0  0  0  0  0
   -1.8280   14.8140   -1.0980 C   0  0  0  0  0  0  0  0  0  0  0  0
    1.2780   17.3870   -4.1970 O   0  0  0  0  0  0  0  0  0  0  0  0
   -0.6730   16.1320   -4.7320 C   0  0  0  0  0  0  0  0  0  0  0  0
   -2.5350   14.7770    0.1360 C   0  0  0  0  0  0  0  0  0  0  0  0
   -2.5550   14.9040   -2.2850 C   0  0  0  0  0  0  0  0  0  0  0  0
   -3.9510   14.8360    0.1390 C   0  0  0  0  0  0  0  0  0  0  0  0
   -3.9320   14.9610   -2.2890 C   0  0  0  0  0  0  0  0  0  0  0  0
   -4.6120   14.9260   -1.0870 C   0  0  0  0  0  0  0  0  0  0  0  0
   -4.6720   14.8040    1.3500 N   0  0  0  0  0  0  0  0  0  0  0  0
   -5.9760   14.7500    1.2990 C   0  0  0  0  0  0  0  0  0  0  0  0
   -6.0760   14.9800   -1.0830 C   0  0  0  0  0  0  0  0  0  0  0  0
   -6.7260   14.7160    2.4340 N   0  0  0  0  0  0  0  0  0  0  0  0
   -6.7140   15.2120   -2.0980 O   0  0  0  0  0  0  0  0  0  0  0  0
   -6.6690   14.7380    0.1250 N   0  0  0  0  0  0  0  0  0  0  0  0
  1  2  1  0
  2  3  2  3
  2  4  1  0
  3  5  1  0
  4  6  1  0
  5  7  1  0
  6  8  2  0
  6  9  1  0
  8 10  1  0
  9 11  2  0
  7 12  1  0
 10 13  1  0
 10 14  2  0
 11 14  1  0
 12 15  2  0
 12 16  1  0
 15 17  1  0
 16 18  2  0
 17 19  2  0
 18 19  1  0
 17 20  1  0
 20 21  2  0
 19 22  1  0
 21 23  1  0
 22 24  2  0
 21 25  1  0
 22 25  1  0
M  END
