mac-x0357-mac-x0527
     RDKit          3D

 20 22  0  0  0  0  0  0  0  0999 V2000
    2.5000   13.0050   -4.0280 C   0  0  0  0  0  0  0  0  0  0  0  0
    1.2190   12.6430   -4.7150 C   0  0  0  0  0  0  0  0  0  0  0  0
    1.2210   11.8700   -5.8830 C   0  0  0  0  0  0  0  0  0  0  0  0
   -0.0240   13.0670   -4.2440 C   0  0  0  0  0  0  0  0  0  0  0  0
    2.4170   11.4610   -6.3720 O   0  0  0  0  0  0  0  0  0  0  0  0
   -0.4630   13.9010   -3.0960 C   0  0  0  0  0  0  0  0  0  0  0  0
   -1.1720   12.7050   -4.9630 C   0  0  0  0  0  0  0  0  0  0  0  0
    0.0620   11.5020   -6.5660 C   0  0  0  0  0  0  0  0  0  0  0  0
   -1.8200   14.1090   -3.2230 C   0  0  0  0  0  0  0  0  0  0  0  0
    0.4430   14.3760   -2.1960 O   0  0  0  0  0  0  0  0  0  0  0  0
   -2.3630   13.2990   -4.3360 C   0  0  0  0  0  0  0  0  0  0  0  0
   -1.1610   11.9250   -6.0980 C   0  0  0  0  0  0  0  0  0  0  0  0
   -2.7900   14.9880   -2.4950 C   0  0  0  0  0  0  0  0  0  0  0  0
   -3.1890   15.9070   -3.2100 O   0  0  0  0  0  0  0  0  0  0  0  0
   -3.4510   14.9310   -1.1590 C   0  0  0  0  0  0  0  0  0  0  0  0
   -4.8400   15.0930   -1.1590 C   0  0  0  0  0  0  0  0  0  0  0  0
   -2.7640   14.7510   -0.0060 N   0  0  0  0  0  0  0  0  0  0  0  0
   -5.5930   15.0820   -0.0330 N   0  0  0  0  0  0  0  0  0  0  0  0
   -3.5220   14.7450    1.1240 C   0  0  0  0  0  0  0  0  0  0  0  0
   -4.8990   14.9060    1.1100 C   0  0  0  0  0  0  0  0  0  0  0  0
  1  2  1  0
  2  3  2  0
  2  4  1  0
  3  5  1  0
  4  6  1  0
  4  7  2  0
  3  8  1  0
  6  9  2  0
  6 10  1  0
  7 11  1  0
  9 11  1  0
  7 12  1  0
  8 12  2  0
  9 13  1  0
 13 14  2  0
 13 15  1  0
 15 16  2  0
 15 17  1  0
 16 18  1  0
 17 19  2  0
 18 20  2  0
 19 20  1  0
M  END
