mac-x0392-mac-x0404
     RDKit          3D

 26 28  0  0  0  0  0  0  0  0999 V2000
    0.0570   13.9380    0.3820 N   0  0  0  0  0  0  0  0  0  0  0  0
   -1.2610   14.3750    0.1780 C   0  0  0  0  0  0  0  0  0  0  0  0
   -2.1300   14.5250    1.2420 C   0  0  0  0  0  0  0  0  0  0  0  0
   -1.7980   14.6850   -1.0730 C   0  0  0  0  0  0  0  0  0  0  0  0
   -0.9740   14.5640   -2.2860 C   0  0  0  0  0  0  0  0  0  0  0  0
   -3.1300   15.1150   -1.2030 C   0  0  0  0  0  0  0  0  0  0  0  0
   -3.4150   14.9400    1.1570 N   0  0  0  0  0  0  0  0  0  0  0  0
   -1.4230   14.0930   -3.3000 O   0  0  0  0  0  0  0  0  0  0  0  0
    0.2770   15.0620   -2.0890 O   0  0  0  0  0  0  0  0  0  0  0  0
   -3.8910   15.2270   -0.0640 C   0  0  0  0  0  0  0  0  0  0  0  0
    1.3720   14.1300   -2.0280 C   0  0  0  0  0  0  0  0  0  0  0  0
    0.8400   12.8080   -1.9400 O   0  0  0  0  0  0  0  0  0  0  0  0
    0.8850   12.0120   -3.0470 C   0  0  0  0  0  0  0  0  0  0  0  0
    0.4670   10.8590   -3.0460 O   0  0  0  0  0  0  0  0  0  0  0  0
    1.5130   12.6730   -4.2900 C   0  0  0  0  0  0  0  0  0  0  0  0
    1.2770   14.0490   -4.5640 O   0  0  0  0  0  0  0  0  0  0  0  0
   -0.0130   14.4590   -4.8550 C   0  0  0  0  0  0  0  0  0  0  0  0
   -0.1890   15.8430   -5.0520 C   0  0  0  0  0  0  0  0  0  0  0  0
   -1.1080   13.5930   -4.9600 C   0  0  0  0  0  0  0  0  0  0  0  0
   -1.4710   16.3570   -5.3500 C   0  0  0  0  0  0  0  0  0  0  0  0
   -2.3800   14.1090   -5.2530 C   0  0  0  0  0  0  0  0  0  0  0  0
    0.8850   16.7290   -4.9620 C   0  0  0  0  0  0  0  0  0  0  0  0
   -2.5590   15.4810   -5.4430 C   0  0  0  0  0  0  0  0  0  0  0  0
   -1.6290   17.7310   -5.5560 C   0  0  0  0  0  0  0  0  0  0  0  0
    0.7230   18.0940   -5.1700 C   0  0  0  0  0  0  0  0  0  0  0  0
   -0.5410   18.5890   -5.4700 C   0  0  0  0  0  0  0  0  0  0  0  0
  1  2  1  0
  2  3  2  0
  2  4  1  0
  4  5  1  0
  4  6  2  0
  3  7  1  0
  5  8  2  0
  5  9  1  0
  6 10  1  0
  7 10  2  0
  9 11  1  0
 11 12  1  0
 12 13  1  0
 13 14  2  0
 13 15  1  0
 15 16  1  0
 16 17  1  0
 17 18  1  0
 17 19  2  0
 18 20  2  0
 19 21  1  0
 18 22  1  0
 20 23  1  0
 21 23  2  0
 20 24  1  0
 22 25  2  0
 24 26  2  0
 25 26  1  0
M  END
