mac-x0365-mac-x0546
     RDKit          3D

 26 28  0  0  0  0  0  0  0  0999 V2000
   -1.1330   15.2850   -2.2150 O   0  0  0  0  0  0  0  0  0  0  0  0
   -2.2940   14.8800   -2.7530 C   0  0  0  0  0  0  0  0  0  0  0  0
   -2.3990   14.7060   -4.0350 N   0  0  0  0  0  0  0  0  0  0  0  0
   -3.3430   14.7850   -1.7610 C   0  0  0  0  0  0  0  0  0  0  0  0
   -4.5970   14.9730   -2.3210 C   0  0  0  0  0  0  0  0  0  0  0  0
   -3.1790   14.5720   -0.3860 C   0  0  0  0  0  0  0  0  0  0  0  0
   -1.3600   15.2260   -4.7280 C   0  0  0  0  0  0  0  0  0  0  0  0
   -5.7030   14.9560   -1.5270 C   0  0  0  0  0  0  0  0  0  0  0  0
   -4.3260   14.5560    0.4210 C   0  0  0  0  0  0  0  0  0  0  0  0
   -1.6840   16.4460   -5.1590 C   0  0  0  0  0  0  0  0  0  0  0  0
    0.0110   14.7040   -5.0230 C   0  0  1  0  0  0  0  0  0  0  0  0
   -6.9080   15.1400   -2.0830 F   0  0  0  0  0  0  0  0  0  0  0  0
   -2.9310   16.9250   -5.0150 O   0  0  0  0  0  0  0  0  0  0  0  0
   -5.5840   14.7510   -0.1640 C   0  0  0  0  0  0  0  0  0  0  0  0
    0.8920   15.9210   -4.9040 C   0  0  0  0  0  0  0  0  0  0  0  0
   -0.7680   17.3420   -5.8040 C   0  0  0  0  0  0  0  0  0  0  0  0
    0.7920   13.8060   -4.1380 C   0  0  0  0  0  0  0  0  0  0  0  0
   -6.6900   14.7370    0.6310 O   0  0  0  0  0  0  0  0  0  0  0  0
   -3.7950   15.9510   -5.6640 C   0  0  0  0  0  0  0  0  0  0  0  0
    0.3740   12.3870   -3.9280 C   0  0  0  0  0  0  0  0  0  0  0  0
    0.5470   17.1340   -5.6870 C   0  0  0  0  0  0  0  0  0  0  0  0
    1.8890   15.7870   -4.1150 N   0  0  0  0  0  0  0  0  0  0  0  0
    1.8280   14.5000   -3.6640 C   0  0  0  0  0  0  0  0  0  0  0  0
    0.3550   11.8290   -2.5140 C   0  0  0  0  0  0  0  0  0  0  0  0
    0.5380   12.4070   -1.4560 O   0  0  0  0  0  0  0  0  0  0  0  0
    0.0890   10.4960   -2.5020 O   0  0  0  0  0  0  0  0  0  0  0  0
  1  2  1  0
  2  3  2  3
  2  4  1  0
  4  5  2  0
  4  6  1  0
  3  7  1  0
  5  8  1  0
  6  9  2  0
  7 10  2  0
 11  7  1  1
  8 12  1  0
 10 13  1  0
  8 14  2  0
  9 14  1  0
 11 15  1  0
 10 16  1  0
 11 17  1  0
 14 18  1  0
 13 19  1  0
 17 20  1  0
 15 21  1  0
 16 21  2  0
 15 22  2  0
 17 23  2  0
 22 23  1  0
 20 24  1  0
 24 25  2  0
 24 26  1  0
M  END
