mac-x0555-mac-x0584
     RDKit          3D

 25 29  0  0  0  0  0  0  0  0999 V2000
   -7.5060   14.4310    2.9680 N   0  0  0  0  0  0  0  0  0  0  0  0
   -6.9140   14.5700    1.7160 C   0  0  0  0  0  0  0  0  0  0  0  0
   -7.5870   14.3010    0.5290 C   0  0  0  0  0  0  0  0  0  0  0  0
   -5.5910   14.9960    1.6210 C   0  0  0  0  0  0  0  0  0  0  0  0
   -4.9840   15.1380    0.3760 C   0  0  0  0  0  0  0  0  0  0  0  0
   -7.0430   14.4140   -0.6990 N   0  0  0  0  0  0  0  0  0  0  0  0
   -5.7580   14.8210   -0.7460 C   0  0  0  0  0  0  0  0  0  0  0  0
   -3.5530   15.6030    0.2290 C   0  0  0  0  0  0  0  0  0  0  0  0
   -5.1720   14.8990   -2.0680 C   0  0  0  0  0  0  0  0  0  0  0  0
   -2.8620   14.9560   -0.9990 C   0  0  2  0  0  0  0  0  0  0  0  0
   -3.8420   14.9370   -2.1940 C   0  0  0  0  0  0  0  0  0  0  0  0
   -2.5400   13.6840   -0.1900 C   0  0  0  0  0  0  0  0  0  0  0  0
   -1.3580   15.1620   -1.4000 C   0  0  1  0  0  0  0  0  0  0  0  0
   -1.0130   15.4900   -2.8110 N   0  0  0  0  0  0  0  0  0  0  0  0
   -0.5700   15.7170   -0.3290 N   0  0  0  0  0  0  0  0  0  0  0  0
   -1.6260   14.0190    0.9550 N   0  0  0  0  0  0  0  0  0  0  0  0
   -0.8780   14.3210   -3.6610 C   0  0  2  0  0  0  0  0  0  0  0  0
   -2.0060   16.2410   -3.6090 C   0  0  0  0  0  0  0  0  0  0  0  0
   -0.3470   14.6270    0.5970 C   0  0  0  0  0  0  0  0  0  0  0  0
   -0.0210   13.1590   -3.1580 C   0  0  0  0  0  0  0  0  0  0  0  0
   -0.5480   14.9150   -5.0010 C   0  0  0  0  0  0  0  0  0  0  0  0
   -1.7240   15.8770   -5.0740 C   0  0  0  0  0  0  0  0  0  0  0  0
    0.9530   12.3960   -4.0890 C   0  0  0  0  0  0  0  0  0  0  0  0
   -0.7470   11.8250   -2.8670 C   0  0  0  0  0  0  0  0  0  0  0  0
    0.4240   11.0840   -3.4580 C   0  0  0  0  0  0  0  0  0  0  0  0
  1  2  1  0
  2  3  2  0
  2  4  1  0
  4  5  2  0
  3  6  1  0
  5  7  1  0
  6  7  2  0
  5  8  1  0
  7  9  1  0
 10  8  1  1
  9 11  2  0
 10 11  1  0
 10 12  1  0
 10 13  1  0
 13 14  1  6
 13 15  1  0
 12 16  1  0
 14 17  1  0
 14 18  1  0
 15 19  1  0
 16 19  1  0
 17 20  1  1
 17 21  1  0
 18 22  1  0
 21 22  1  0
 20 23  1  0
 20 24  1  0
 23 25  1  0
 24 25  1  0
M  END
