mac-x0496-diamond-x0855_0_A
     RDKit          3D

 31 33  0  0  0  0  0  0  0  0999 V2000
   -9.6910   17.6550    4.6710 C   0  0  0  0  0  0  0  0  0  0  0  0
   -9.6470   16.7180    3.5310 C   0  0  0  0  0  0  0  0  0  0  0  0
  -10.3570   16.8600    2.3990 N   0  0  0  0  0  0  0  0  0  0  0  0
   -8.8540   15.6180    3.5530 N   0  0  0  0  0  0  0  0  0  0  0  0
   -9.9970   15.7640    1.6310 O   0  0  0  0  0  0  0  0  0  0  0  0
   -9.0950   15.0760    2.3840 C   0  0  0  0  0  0  0  0  0  0  0  0
   -8.5190   13.8560    1.7980 C   0  0  0  0  0  0  0  0  0  0  0  0
   -7.1270   14.1280    1.4900 N   0  0  0  0  0  0  0  0  0  0  0  0
   -6.7430   14.6540    0.2740 C   0  0  0  0  0  0  0  0  0  0  0  0
   -7.5180   14.9800   -0.6130 O   0  0  0  0  0  0  0  0  0  0  0  0
   -5.2760   14.7910    0.1070 C   0  0  0  0  0  0  0  0  0  0  0  0
   -4.5410   14.9030    1.2680 C   0  0  0  0  0  0  0  0  0  0  0  0
   -4.6280   14.8040   -1.1260 C   0  0  0  0  0  0  0  0  0  0  0  0
   -3.1610   15.0030    1.2380 C   0  0  0  0  0  0  0  0  0  0  0  0
   -3.2330   14.9160   -1.1730 C   0  0  0  0  0  0  0  0  0  0  0  0
   -2.5980   14.9350   -2.5170 C   0  0  0  0  0  0  0  0  0  0  0  0
   -2.4990   15.0060    0.0200 C   0  0  0  0  0  0  0  0  0  0  0  0
   -1.3740   14.6060   -2.7670 N   0  0  0  0  0  0  0  0  0  0  0  0
   -3.4170   15.3430   -3.5030 O   0  0  0  0  0  0  0  0  0  0  0  0
   -0.4370   14.1530   -1.7200 C   0  0  0  0  0  0  0  0  0  0  0  0
    1.0170   14.2560   -2.2070 C   0  0  0  0  0  0  0  0  0  0  0  0
    1.6010   12.9500   -2.4180 O   0  0  0  0  0  0  0  0  0  0  0  0
    0.8960   12.0490   -3.1580 C   0  0  0  0  0  0  0  0  0  0  0  0
    0.5400   10.9560   -2.7310 O   0  0  0  0  0  0  0  0  0  0  0  0
    0.6100   12.5390   -4.5560 C   0  0  0  0  0  0  0  0  0  0  0  0
   -0.4170   11.6870   -5.1160 N   0  0  0  0  0  0  0  0  0  0  0  0
   -0.2840   10.7650   -6.1200 C   0  0  0  0  0  0  0  0  0  0  0  0
   -1.6750   11.7580   -4.6260 N   0  0  0  0  0  0  0  0  0  0  0  0
   -1.5250   10.2070   -6.2680 C   0  0  0  0  0  0  0  0  0  0  0  0
   -2.3470   10.8470   -5.3360 C   0  0  0  0  0  0  0  0  0  0  0  0
   -2.0530    8.8700   -7.4500 Br  0  0  0  0  0  0  0  0  0  0  0  0
  1  2  1  0
  2  3  2  0
  2  4  1  0
  3  5  1  0
  4  6  2  0
  5  6  1  0
  6  7  1  0
  7  8  1  0
  8  9  1  0
  9 10  2  0
  9 11  1  0
 11 12  2  0
 11 13  1  0
 12 14  1  0
 13 15  2  0
 15 16  1  0
 14 17  2  0
 15 17  1  0
 16 18  2  3
 16 19  1  0
 18 20  1  0
 20 21  1  0
 21 22  1  0
 22 23  1  0
 23 24  2  0
 23 25  1  0
 25 26  1  0
 26 27  1  0
 26 28  1  0
 27 29  2  0
 28 30  2  0
 29 30  1  0
 29 31  1  0
M  END
