mac-x0527-mac-x0381
     RDKit          3D

 31 34  0  0  0  0  0  0  0  0999 V2000
   -3.6340   15.5180   -3.8000 O   0  0  0  0  0  0  0  0  0  0  0  0
   -3.0440   15.1300   -2.8030 C   0  0  0  0  0  0  0  0  0  0  0  0
   -1.7330   14.7170   -2.7840 N   0  0  0  0  0  0  0  0  0  0  0  0
   -3.7190   15.0660   -1.4860 C   0  0  0  0  0  0  0  0  0  0  0  0
   -0.9140   14.7180   -3.9690 C   0  0  0  0  0  0  0  0  0  0  0  0
   -5.0970   15.1650   -1.4090 C   0  0  0  0  0  0  0  0  0  0  0  0
   -2.9150   14.9020   -0.4000 N   0  0  0  0  0  0  0  0  0  0  0  0
   -0.8820   13.3520   -4.6160 C   0  0  0  0  0  0  0  0  0  0  0  0
   -5.7540   15.0920   -0.2310 N   0  0  0  0  0  0  0  0  0  0  0  0
   -3.5750   14.8310    0.7660 C   0  0  0  0  0  0  0  0  0  0  0  0
   -1.8280   12.3690   -4.2830 C   0  0  0  0  0  0  0  0  0  0  0  0
    0.1050   13.0470   -5.5690 C   0  0  0  0  0  0  0  0  0  0  0  0
   -4.9560   14.9180    0.8500 C   0  0  0  0  0  0  0  0  0  0  0  0
   -5.5800   14.8050    2.1760 C   0  0  0  0  0  0  0  0  0  0  0  0
   -1.7860   11.1090   -4.8880 C   0  0  0  0  0  0  0  0  0  0  0  0
    0.1440   11.7890   -6.1720 C   0  0  0  0  0  0  0  0  0  0  0  0
   -7.0780   14.5730    2.1630 C   0  0  0  0  0  0  0  0  0  0  0  0
   -0.8010   10.8200   -5.8310 C   0  0  0  0  0  0  0  0  0  0  0  0
   -7.3880   14.1880    3.5060 N   0  0  0  0  0  0  0  0  0  0  0  0
   -8.4520   14.3450    4.1560 C   0  0  0  0  0  0  0  0  0  0  0  0
   -8.5690   13.8930    5.4300 N   0  0  0  0  0  0  0  0  0  0  0  0
   -9.6530   15.0140    3.5520 C   0  0  0  0  0  0  0  0  0  0  0  0
   -9.6460   15.6920    2.3190 C   0  0  0  0  0  0  0  0  0  0  0  0
  -10.8340   14.9290    4.2860 C   0  0  0  0  0  0  0  0  0  0  0  0
  -10.8280   16.2730    1.8200 C   0  0  0  0  0  0  0  0  0  0  0  0
  -12.0040   15.5000    3.8070 C   0  0  0  0  0  0  0  0  0  0  0  0
  -12.0220   16.1680    2.5810 C   0  0  0  0  0  0  0  0  0  0  0  0
  -10.8640   16.9480    0.5900 C   0  0  0  0  0  0  0  0  0  0  0  0
  -13.2060   16.7300    2.0930 C   0  0  0  0  0  0  0  0  0  0  0  0
  -12.0570   17.5000    0.1170 C   0  0  0  0  0  0  0  0  0  0  0  0
  -13.2270   17.3870    0.8690 C   0  0  0  0  0  0  0  0  0  0  0  0
  1  2  2  0
  2  3  1  0
  2  4  1  0
  3  5  1  0
  4  6  2  0
  4  7  1  0
  5  8  1  0
  6  9  1  0
  7 10  2  0
  8 11  2  0
  8 12  1  0
  9 13  2  0
 10 13  1  0
 13 14  1  0
 11 15  1  0
 12 16  2  0
 14 17  1  0
 15 18  2  0
 16 18  1  0
 17 19  1  0
 19 20  2  3
 20 21  1  0
 20 22  1  0
 22 23  2  0
 22 24  1  0
 23 25  1  0
 24 26  2  0
 25 27  2  0
 26 27  1  0
 25 28  1  0
 27 29  1  0
 28 30  2  0
 29 31  2  0
 30 31  1  0
M  END
