mac-x0379-diamond-x0689_0_A
     RDKit          3D

 16 17  0  0  0  0  0  0  0  0999 V2000
   -4.7980   14.9200    0.2720 C   0  0  0  0  0  0  0  0  0  0  0  0
   -3.8370   14.8960    1.3960 N   0  0  0  0  0  0  0  0  0  0  0  0
   -2.5660   14.4700    1.0270 C   0  0  0  0  0  0  0  0  0  0  0  0
   -4.2310   14.9620   -1.1400 C   0  0  0  0  0  0  0  0  0  0  0  0
   -4.9010   15.0340   -2.2760 N   0  0  0  0  0  0  0  0  0  0  0  0
   -2.5340   14.9100   -1.3470 S   0  0  0  0  0  0  0  0  0  0  0  0
   -4.0080   15.0470   -3.3490 C   0  0  0  0  0  0  0  0  0  0  0  0
   -2.6660   14.9850   -3.0260 C   0  0  0  0  0  0  0  0  0  0  0  0
   -2.3910   13.8490   -0.1370 N   0  0  0  0  0  0  0  0  0  0  0  0
   -1.5680   14.7280    1.8700 N   0  0  0  0  0  0  0  0  0  0  0  0
   -1.5100   14.9820   -3.8930 C   0  0  0  0  0  0  0  0  0  0  0  0
   -1.1420   13.4920   -0.4760 C   0  0  0  0  0  0  0  0  0  0  0  0
   -0.3360   14.3490    1.4920 C   0  0  0  0  0  0  0  0  0  0  0  0
   -1.4970   14.8680   -5.1050 O   0  0  0  0  0  0  0  0  0  0  0  0
   -0.3380   15.1270   -3.2260 O   0  0  0  0  0  0  0  0  0  0  0  0
   -0.0670   13.7270    0.3100 C   0  0  0  0  0  0  0  0  0  0  0  0
  1  2  1  0
  2  3  1  0
  1  4  1  0
  4  5  2  0
  4  6  1  0
  5  7  1  0
  6  8  1  0
  7  8  2  0
  3  9  2  0
  3 10  1  0
  8 11  1  0
  9 12  1  0
 10 13  2  0
 11 14  2  0
 11 15  1  0
 12 16  2  0
 13 16  1  0
M  END
