mac-x0379-mac-x0354
     RDKit          3D

 26 28  0  0  0  0  0  0  0  0999 V2000
   -5.1510   14.9590    0.2940 C   0  0  0  0  0  0  0  0  0  0  0  0
   -4.2680   14.9840   -0.9000 C   0  0  0  0  0  0  0  0  0  0  0  0
   -4.6950   15.1700   -2.1240 N   0  0  0  0  0  0  0  0  0  0  0  0
   -2.5740   14.7610   -0.7280 S   0  0  0  0  0  0  0  0  0  0  0  0
   -3.6250   15.1490   -2.9950 C   0  0  0  0  0  0  0  0  0  0  0  0
   -2.3860   14.9450   -2.4290 C   0  0  0  0  0  0  0  0  0  0  0  0
   -1.0910   14.8910   -3.0770 C   0  0  0  0  0  0  0  0  0  0  0  0
   -0.8770   14.4360   -4.1900 O   0  0  0  0  0  0  0  0  0  0  0  0
   -0.1300   15.4600   -2.2790 O   0  0  0  0  0  0  0  0  0  0  0  0
    0.7840   14.5990   -1.5800 C   0  0  0  0  0  0  0  0  0  0  0  0
    1.4460   13.6280   -2.5400 C   0  0  0  0  0  0  0  0  0  0  0  0
    0.8840   12.3240   -2.2530 N   0  0  0  0  0  0  0  0  0  0  0  0
    0.6230   11.4880   -3.1750 C   0  0  0  0  0  0  0  0  0  0  0  0
    0.1050   10.2780   -2.8220 O   0  0  0  0  0  0  0  0  0  0  0  0
    0.8770   11.7280   -4.6060 C   0  0  0  0  0  0  0  0  0  0  0  0
    1.8340   12.5870   -5.2150 C   0  0  0  0  0  0  0  0  0  0  0  0
    0.2490   11.1350   -5.7070 C   0  0  0  0  0  0  0  0  0  0  0  0
    0.8460   11.6300   -6.8190 N   0  0  0  0  0  0  0  0  0  0  0  0
    1.8120   12.5220   -6.5450 N   0  0  0  0  0  0  0  0  0  0  0  0
   -0.8160   10.1620   -5.8240 C   0  0  0  0  0  0  0  0  0  0  0  0
    0.5120   11.2500   -8.1800 C   0  0  0  0  0  0  0  0  0  0  0  0
   -0.5780    8.9330   -6.4550 C   0  0  0  0  0  0  0  0  0  0  0  0
   -2.0740   10.4520   -5.3130 C   0  0  0  0  0  0  0  0  0  0  0  0
   -1.6040    8.0050   -6.5660 C   0  0  0  0  0  0  0  0  0  0  0  0
   -3.1000    9.5210   -5.4260 C   0  0  0  0  0  0  0  0  0  0  0  0
   -2.8670    8.2960   -6.0520 C   0  0  0  0  0  0  0  0  0  0  0  0
  1  2  1  0
  2  3  2  0
  2  4  1  0
  3  5  1  0
  4  6  1  0
  5  6  2  0
  6  7  1  0
  7  8  2  0
  7  9  1  0
  9 10  1  0
 10 11  1  0
 11 12  1  0
 12 13  2  3
 13 14  1  0
 13 15  1  0
 15 16  1  0
 15 17  2  0
 17 18  1  0
 16 19  2  0
 18 19  1  0
 17 20  1  0
 18 21  1  0
 20 22  2  0
 20 23  1  0
 22 24  1  0
 23 25  2  0
 24 26  2  0
 25 26  1  0
M  END
