mac-x0496-diamond-x0950_0_A
     RDKit          3D

 27 28  0  0  0  0  0  0  0  0999 V2000
   -9.6690   17.6870    4.6940 C   0  0  0  0  0  0  0  0  0  0  0  0
   -9.6360   16.7290    3.5660 C   0  0  0  0  0  0  0  0  0  0  0  0
  -10.3430   16.8750    2.4310 N   0  0  0  0  0  0  0  0  0  0  0  0
   -8.8700   15.6110    3.5980 N   0  0  0  0  0  0  0  0  0  0  0  0
  -10.0140   15.7640    1.6740 O   0  0  0  0  0  0  0  0  0  0  0  0
   -9.1280   15.0630    2.4290 C   0  0  0  0  0  0  0  0  0  0  0  0
   -8.5890   13.8240    1.8510 C   0  0  0  0  0  0  0  0  0  0  0  0
   -7.1830   14.0470    1.5800 N   0  0  0  0  0  0  0  0  0  0  0  0
   -6.7700   14.5840    0.3780 C   0  0  0  0  0  0  0  0  0  0  0  0
   -7.5360   14.9020   -0.5210 O   0  0  0  0  0  0  0  0  0  0  0  0
   -5.3050   14.7450    0.2300 C   0  0  0  0  0  0  0  0  0  0  0  0
   -4.5750   14.8730    1.4080 C   0  0  0  0  0  0  0  0  0  0  0  0
   -4.6540   14.7660   -1.0060 C   0  0  0  0  0  0  0  0  0  0  0  0
   -3.2000   15.0070    1.3820 C   0  0  0  0  0  0  0  0  0  0  0  0
   -3.2650   14.9060   -1.0320 C   0  0  0  0  0  0  0  0  0  0  0  0
   -2.5360   14.9310   -2.3080 C   0  0  0  0  0  0  0  0  0  0  0  0
   -2.5400   15.0220    0.1660 C   0  0  0  0  0  0  0  0  0  0  0  0
   -1.3000   14.7150   -2.5730 N   0  0  0  0  0  0  0  0  0  0  0  0
   -3.3520   15.2470   -3.3310 O   0  0  0  0  0  0  0  0  0  0  0  0
   -0.3930   14.3760   -1.4580 C   0  0  0  0  0  0  0  0  0  0  0  0
    1.0210   14.0950   -1.9740 C   0  0  0  0  0  0  0  0  0  0  0  0
    1.2460   12.6730   -1.9500 O   0  0  0  0  0  0  0  0  0  0  0  0
    0.8550   11.9820   -3.0610 C   0  0  0  0  0  0  0  0  0  0  0  0
    1.2850   12.7380   -4.3290 C   0  0  1  0  0  0  0  0  0  0  0  0
    0.2650   10.9100   -3.0340 O   0  0  0  0  0  0  0  0  0  0  0  0
    2.7720   13.0100   -4.2860 C   0  0  0  0  0  0  0  0  0  0  0  0
    0.9810   12.0430   -5.5360 O   0  0  0  0  0  0  0  0  0  0  0  0
  1  2  1  0
  2  3  2  0
  2  4  1  0
  3  5  1  0
  4  6  2  0
  5  6  1  0
  6  7  1  0
  7  8  1  0
  8  9  1  0
  9 10  2  0
  9 11  1  0
 11 12  2  0
 11 13  1  0
 12 14  1  0
 13 15  2  0
 15 16  1  0
 14 17  2  0
 15 17  1  0
 16 18  2  3
 16 19  1  0
 18 20  1  0
 20 21  1  0
 21 22  1  0
 22 23  1  0
 23 24  1  0
 23 25  2  0
 24 26  1  1
 24 27  1  0
M  END
