mac-x0373-mac-x0161
     RDKit          3D

 23 25  0  0  0  0  0  0  0  0999 V2000
    0.9700   13.0880   -2.0440 O   0  0  0  0  0  0  0  0  0  0  0  0
    0.1540   14.1300   -2.2840 C   0  0  0  0  0  0  0  0  0  0  0  0
    0.6500   15.2010   -2.5970 O   0  0  0  0  0  0  0  0  0  0  0  0
   -1.3190   13.8090   -2.1460 C   0  0  2  0  0  0  0  0  0  0  0  0
   -1.8350   12.8000   -3.1440 C   0  0  0  0  0  0  0  0  0  0  0  0
   -2.1730   15.0220   -1.6500 C   0  0  1  0  0  0  0  0  0  0  0  0
   -0.9740   12.3350   -4.1610 C   0  0  0  0  0  0  0  0  0  0  0  0
   -3.1320   12.2920   -3.0810 C   0  0  0  0  0  0  0  0  0  0  0  0
   -3.5940   15.0880   -2.1670 C   0  0  0  0  0  0  0  0  0  0  0  0
   -2.0310   15.2010   -0.0890 C   0  0  1  0  0  0  0  0  0  0  0  0
   -1.4130   11.3860   -5.0710 C   0  0  0  0  0  0  0  0  0  0  0  0
   -3.5690   11.3490   -3.9950 C   0  0  0  0  0  0  0  0  0  0  0  0
   -4.6510   15.3800   -1.4100 C   0  0  0  0  0  0  0  0  0  0  0  0
   -3.2250   15.7700    0.7020 C   0  0  0  0  0  0  0  0  0  0  0  0
   -1.6140   13.9710    0.6190 N   0  0  0  0  0  0  0  0  0  0  0  0
   -0.7620   16.0490    0.0660 C   0  0  0  0  0  0  0  0  0  0  0  0
   -0.7000   10.8390   -6.0780 O   0  0  0  0  0  0  0  0  0  0  0  0
   -2.7120   10.8970   -4.9850 C   0  0  0  0  0  0  0  0  0  0  0  0
   -4.5980   15.6830    0.0500 C   0  0  2  0  0  0  0  0  0  0  0  0
    0.2990   15.0640    0.1560 N   0  0  0  0  0  0  0  0  0  0  0  0
   -0.2740   14.1660    1.1140 C   0  0  0  0  0  0  0  0  0  0  0  0
   -5.3990   14.7530    0.8410 N   0  0  0  0  0  0  0  0  0  0  0  0
   -1.2460    9.6490   -6.6130 C   0  0  0  0  0  0  0  0  0  0  0  0
  1  2  1  0
  2  3  2  0
  4  2  1  6
  4  5  1  0
  4  6  1  0
  5  7  2  0
  5  8  1  0
  6  9  1  1
  6 10  1  0
  7 11  1  0
  8 12  2  0
  9 13  2  0
 10 14  1  1
 10 15  1  0
 10 16  1  0
 11 17  1  0
 11 18  2  0
 12 18  1  0
 13 19  1  0
 14 19  1  0
 16 20  1  0
 15 21  1  0
 20 21  1  0
 19 22  1  1
 17 23  1  0
M  END
