mac-x0193-mac-x0338
     RDKit          3D

 26 27  0  0  0  0  0  0  0  0999 V2000
    0.5180   10.5130   -3.0510 O   0  0  0  0  0  0  0  0  0  0  0  0
    0.6870   11.8360   -3.2060 C   0  0  0  0  0  0  0  0  0  0  0  0
    0.7180   12.4690   -2.0810 N   0  0  0  0  0  0  0  0  0  0  0  0
    0.7960   12.3320   -4.6530 C   0  0  0  0  0  0  0  0  0  0  0  0
    0.0920   11.5090   -5.6260 N   0  0  0  0  0  0  0  0  0  0  0  0
    0.8690   13.9120   -1.9730 C   0  0  0  0  0  0  0  0  0  0  0  0
    0.6650   11.2810   -6.8580 C   0  0  0  0  0  0  0  0  0  0  0  0
   -0.4470   14.4690   -1.4030 C   0  0  0  0  0  0  0  0  0  0  0  0
    1.7910   11.6120   -7.1060 O   0  0  0  0  0  0  0  0  0  0  0  0
   -0.2160   10.6560   -7.7330 N   0  0  0  0  0  0  0  0  0  0  0  0
   -1.5680   14.6050   -2.4600 C   0  0  0  0  0  0  0  0  0  0  0  0
    0.1450    9.8110   -8.8920 C   0  0  0  0  0  0  0  0  0  0  0  0
   -2.9920   14.8100   -1.9900 C   0  0  0  0  0  0  0  0  0  0  0  0
    1.2220    8.8070   -8.5490 C   0  0  0  0  0  0  0  0  0  0  0  0
    0.5260   10.6040  -10.1530 C   0  0  0  0  0  0  0  0  0  0  0  0
   -3.2850   14.8760   -0.6590 N   0  0  0  0  0  0  0  0  0  0  0  0
   -4.0010   14.9290   -2.9380 C   0  0  0  0  0  0  0  0  0  0  0  0
    1.9300    8.2140   -9.7870 C   0  0  0  0  0  0  0  0  0  0  0  0
    0.7070    9.7260  -11.4020 C   0  0  0  0  0  0  0  0  0  0  0  0
   -4.6050   15.0600   -0.3490 C   0  0  0  0  0  0  0  0  0  0  0  0
   -5.3030   15.1090   -2.6270 N   0  0  0  0  0  0  0  0  0  0  0  0
   -4.9820   15.1320    1.0810 C   0  0  0  0  0  0  0  0  0  0  0  0
    1.1070    8.2930  -11.0660 C   0  0  0  0  0  0  0  0  0  0  0  0
   -5.5810   15.1750   -1.3130 C   0  0  0  0  0  0  0  0  0  0  0  0
   -3.9770   15.3480    1.9740 N   0  0  0  0  0  0  0  0  0  0  0  0
   -6.1490   14.9910    1.4560 O   0  0  0  0  0  0  0  0  0  0  0  0
  1  2  1  0
  2  3  2  3
  2  4  1  0
  4  5  1  0
  3  6  1  0
  5  7  1  0
  6  8  1  0
  7  9  2  0
  7 10  1  0
  8 11  1  0
 10 12  1  0
 11 13  1  0
 12 14  1  0
 12 15  1  0
 13 16  2  0
 13 17  1  0
 14 18  1  0
 15 19  1  0
 16 20  1  0
 17 21  2  0
 20 22  1  0
 18 23  1  0
 19 23  1  0
 20 24  2  0
 21 24  1  0
 22 25  1  0
 22 26  2  0
M  END
