mac-x0124-mac-x0188
     RDKit          3D

 18 20  0  0  0  0  0  0  0  0999 V2000
    0.5870   14.5680   -2.6160 C   0  0  0  0  0  0  0  0  0  0  0  0
    0.9660   13.3130   -2.2970 O   0  0  0  0  0  0  0  0  0  0  0  0
    1.3780   15.2810   -3.1930 O   0  0  0  0  0  0  0  0  0  0  0  0
   -0.6550   14.8960   -2.2170 N   0  0  0  0  0  0  0  0  0  0  0  0
   -1.8410   14.4150   -2.8970 C   0  0  1  0  0  0  0  0  0  0  0  0
   -0.9190   14.8130   -0.8620 C   0  0  0  0  0  0  0  0  0  0  0  0
   -3.0200   14.7520   -1.8890 C   0  0  0  0  0  0  0  0  0  0  0  0
   -2.2580   14.7480   -0.5980 C   0  0  0  0  0  0  0  0  0  0  0  0
    0.0280   14.8020    0.0490 N   0  0  0  0  0  0  0  0  0  0  0  0
   -2.0630   15.0080   -4.2270 N   0  0  0  0  0  0  0  0  0  0  0  0
   -1.5850   12.9510   -3.2350 C   0  0  0  0  0  0  0  0  0  0  0  0
   -2.6210   14.6960    0.7410 C   0  0  0  0  0  0  0  0  0  0  0  0
   -0.4020   14.7300    1.2960 C   0  0  0  0  0  0  0  0  0  0  0  0
   -0.8850   12.9910   -4.6010 C   0  0  1  0  0  0  0  0  0  0  0  0
   -1.3210   14.2030   -5.2140 O   0  0  0  0  0  0  0  0  0  0  0  0
   -3.9440   14.6520    1.1720 N   0  0  0  0  0  0  0  0  0  0  0  0
    0.6450   12.9240   -4.6180 C   0  0  0  0  0  0  0  0  0  0  0  0
   -1.6790   14.6830    1.7010 N   0  0  0  0  0  0  0  0  0  0  0  0
  1  2  1  0
  1  3  2  0
  1  4  1  0
  5  4  1  0
  4  6  1  0
  5  7  1  1
  6  8  2  0
  7  8  1  0
  6  9  1  0
  5 10  1  0
  5 11  1  0
  8 12  1  0
  9 13  2  0
 11 14  1  0
 10 15  1  0
 14 15  1  0
 12 16  1  0
 14 17  1  1
 12 18  2  0
 13 18  1  0
M  END
