mac-x0417-diamond-x0104_0_A
     RDKit          3D

 33 36  0  0  0  0  0  0  0  0999 V2000
    1.1850   12.8990   -2.4830 O   0  0  0  0  0  0  0  0  0  0  0  0
    0.7010   12.0600   -3.4300 C   0  0  0  0  0  0  0  0  0  0  0  0
    0.4850   10.8900   -3.1440 O   0  0  0  0  0  0  0  0  0  0  0  0
    0.4980   12.7410   -4.7750 C   0  0  2  0  0  0  0  0  0  0  0  0
   -0.5550   13.8830   -4.7880 C   0  0  0  0  0  0  0  0  0  0  0  0
    0.3570   11.7260   -5.8740 C   0  0  0  0  0  0  0  0  0  0  0  0
   -1.9480   13.5590   -4.2190 C   0  0  0  0  0  0  0  0  0  0  0  0
    1.3060   11.5930   -6.8010 N   0  0  0  0  0  0  0  0  0  0  0  0
   -0.7050   10.8020   -6.1000 C   0  0  0  0  0  0  0  0  0  0  0  0
   -2.7720   14.8350   -3.9550 C   0  0  0  0  0  0  0  0  0  0  0  0
    0.8840   10.5940   -7.6580 O   0  0  0  0  0  0  0  0  0  0  0  0
   -0.3120   10.1200   -7.2390 C   0  0  0  0  0  0  0  0  0  0  0  0
   -1.9290   10.4590   -5.5040 C   0  0  0  0  0  0  0  0  0  0  0  0
   -3.2850   14.8730   -2.5230 C   0  0  0  0  0  0  0  0  0  0  0  0
   -1.0480    9.1070   -7.8430 C   0  0  0  0  0  0  0  0  0  0  0  0
   -2.6950    9.4380   -6.0840 C   0  0  0  0  0  0  0  0  0  0  0  0
   -4.7040   14.9820   -2.4440 O   0  0  0  0  0  0  0  0  0  0  0  0
   -2.2610    8.7730   -7.2360 C   0  0  0  0  0  0  0  0  0  0  0  0
   -5.1920   14.9110   -1.1600 C   0  0  0  0  0  0  0  0  0  0  0  0
   -4.3300   14.9010   -0.1300 N   0  0  0  0  0  0  0  0  0  0  0  0
   -6.5690   14.8510   -1.0050 C   0  0  0  0  0  0  0  0  0  0  0  0
   -4.8610   14.8310    1.1110 C   0  0  0  0  0  0  0  0  0  0  0  0
   -7.0940   14.7750    0.2810 C   0  0  0  0  0  0  0  0  0  0  0  0
   -6.2260   14.7680    1.3770 C   0  0  0  0  0  0  0  0  0  0  0  0
   -6.7600   14.6990    2.6700 N   0  0  0  0  0  0  0  0  0  0  0  0
   -7.9780   15.0840    3.1430 C   0  0  0  0  0  0  0  0  0  0  0  0
   -8.1280   15.1530    4.5020 N   0  0  0  0  0  0  0  0  0  0  0  0
   -8.9520   15.3730    2.4500 O   0  0  0  0  0  0  0  0  0  0  0  0
   -9.2540   15.1120    5.2890 C   0  0  0  0  0  0  0  0  0  0  0  0
   -9.2670   15.2130    6.6610 C   0  0  0  0  0  0  0  0  0  0  0  0
  -10.8090   14.9260    4.6460 S   0  0  0  0  0  0  0  0  0  0  0  0
  -11.5300   14.9760    6.1970 C   0  0  0  0  0  0  0  0  0  0  0  0
  -10.5920   15.1340    7.1920 C   0  0  0  0  0  0  0  0  0  0  0  0
  1  2  1  0
  2  3  2  0
  2  4  1  0
  4  5  1  1
  4  6  1  0
  5  7  1  0
  6  8  2  0
  6  9  1  0
  7 10  1  0
  8 11  1  0
  9 12  2  0
 11 12  1  0
  9 13  1  0
 10 14  1  0
 12 15  1  0
 13 16  2  0
 14 17  1  0
 15 18  2  0
 16 18  1  0
 17 19  1  0
 19 20  2  0
 19 21  1  0
 20 22  1  0
 21 23  2  0
 22 24  2  0
 23 24  1  0
 24 25  1  0
 25 26  1  0
 26 27  1  0
 26 28  2  0
 27 29  1  0
 29 30  2  0
 29 31  1  0
 31 32  1  0
 30 33  1  0
 32 33  2  0
M  END
