mac-x0375-diamond-x0253_0_A
     RDKit          3D

 20 21  0  0  0  0  0  0  0  0999 V2000
    1.4850   13.0760   -2.4970 O   0  0  0  0  0  0  0  0  0  0  0  0
    0.9010   12.1700   -3.2980 C   0  0  0  0  0  0  0  0  0  0  0  0
    0.7230   11.0420   -2.8770 O   0  0  0  0  0  0  0  0  0  0  0  0
    0.5170   12.6570   -4.6830 C   0  0  0  0  0  0  0  0  0  0  0  0
    0.3210   11.5620   -5.6340 N   0  0  0  0  0  0  0  0  0  0  0  0
    1.1340   11.5330   -6.7360 C   0  0  0  0  0  0  0  0  0  0  0  0
   -0.8700   10.8100   -5.6710 C   0  0  0  0  0  0  0  0  0  0  0  0
    2.2000   12.1110   -6.7660 O   0  0  0  0  0  0  0  0  0  0  0  0
   -0.8230    9.4040   -5.6740 C   0  0  0  0  0  0  0  0  0  0  0  0
   -2.1170   11.4210   -5.7220 C   0  0  0  0  0  0  0  0  0  0  0  0
    0.5980   10.7020   -7.8600 C   0  0  0  0  0  0  0  0  0  0  0  0
   -1.9780    8.6450   -5.7300 C   0  0  0  0  0  0  0  0  0  0  0  0
   -3.2780   10.6580   -5.7790 C   0  0  0  0  0  0  0  0  0  0  0  0
   -0.3720    9.7440   -7.5430 C   0  0  0  0  0  0  0  0  0  0  0  0
    0.9970   10.8240   -9.1960 C   0  0  0  0  0  0  0  0  0  0  0  0
   -3.2100    9.2700   -5.7850 C   0  0  0  0  0  0  0  0  0  0  0  0
   -0.9440    8.9230   -8.5130 C   0  0  0  0  0  0  0  0  0  0  0  0
    0.4330   10.0070  -10.1720 C   0  0  0  0  0  0  0  0  0  0  0  0
   -1.9810    7.9090   -8.1400 C   0  0  0  0  0  0  0  0  0  0  0  0
   -0.5300    9.0620   -9.8350 C   0  0  0  0  0  0  0  0  0  0  0  0
  1  2  1  0
  2  3  2  0
  2  4  1  0
  4  5  1  0
  5  6  1  0
  5  7  1  0
  6  8  2  0
  7  9  2  0
  7 10  1  0
  6 11  1  0
  9 12  1  0
 10 13  2  0
 11 14  2  0
 11 15  1  0
 12 16  2  0
 13 16  1  0
 14 17  1  0
 15 18  2  0
 17 19  1  0
 17 20  2  0
 18 20  1  0
M  END
