mac-x0354-mac-x0588
     RDKit          3D

 33 37  0  0  0  0  0  0  0  0999 V2000
    0.7050   10.9610   -8.4740 C   0  0  0  0  0  0  0  0  0  0  0  0
    0.9580   11.4320   -7.1290 N   0  0  0  0  0  0  0  0  0  0  0  0
    1.9360   12.3080   -6.8850 N   0  0  0  0  0  0  0  0  0  0  0  0
    0.2870   11.0790   -6.0080 C   0  0  0  0  0  0  0  0  0  0  0  0
    1.9030   12.5270   -5.6030 C   0  0  0  0  0  0  0  0  0  0  0  0
    0.8960   11.7870   -4.9960 C   0  0  0  0  0  0  0  0  0  0  0  0
   -0.8080   10.1420   -6.0180 C   0  0  0  0  0  0  0  0  0  0  0  0
    0.6290   11.8310   -3.6290 C   0  0  0  0  0  0  0  0  0  0  0  0
   -0.6130    8.8720   -6.5720 C   0  0  0  0  0  0  0  0  0  0  0  0
   -2.0430   10.4930   -5.4830 C   0  0  0  0  0  0  0  0  0  0  0  0
    1.0450   12.8860   -3.1110 N   0  0  0  0  0  0  0  0  0  0  0  0
   -0.0610   10.8250   -3.0430 O   0  0  0  0  0  0  0  0  0  0  0  0
   -1.6590    7.9570   -6.5880 C   0  0  0  0  0  0  0  0  0  0  0  0
   -3.0910    9.5740   -5.5000 C   0  0  0  0  0  0  0  0  0  0  0  0
    0.6840   13.1600   -1.7910 C   0  0  0  0  0  0  0  0  0  0  0  0
   -2.8950    8.3070   -6.0520 C   0  0  0  0  0  0  0  0  0  0  0  0
   -0.6610   13.7610   -2.1960 C   0  0  0  0  0  0  0  0  0  0  0  0
   -0.6440   15.2620   -2.6140 C   0  0  2  0  0  0  0  0  0  0  0  0
   -1.7330   15.8340   -1.8230 N   0  0  0  0  0  0  0  0  0  0  0  0
   -0.5880   15.6620   -4.1280 C   0  0  1  0  0  0  0  0  0  0  0  0
   -3.0680   15.3310   -2.1740 C   0  0  0  0  0  0  0  0  0  0  0  0
   -1.2810   15.7620   -0.4250 C   0  0  1  0  0  0  0  0  0  0  0  0
   -1.5020   16.7660   -4.3860 O   0  0  0  0  0  0  0  0  0  0  0  0
    0.7940   16.1100   -4.6320 C   0  0  0  0  0  0  0  0  0  0  0  0
   -3.6290   14.5020   -1.1220 N   0  0  0  0  0  0  0  0  0  0  0  0
   -2.3290   15.5060    0.6610 C   0  0  1  0  0  0  0  0  0  0  0  0
   -0.3800   14.6140   -0.2750 N   0  0  0  0  0  0  0  0  0  0  0  0
    0.5650   17.4380   -5.3300 C   0  0  0  0  0  0  0  0  0  0  0  0
   -0.7530   17.9190   -4.7810 C   0  0  0  0  0  0  0  0  0  0  0  0
   -3.7140   15.3100    0.0490 C   0  0  2  0  0  0  0  0  0  0  0  0
   -1.7520   14.4840    1.5490 N   0  0  0  0  0  0  0  0  0  0  0  0
   -0.3760   14.3240    1.1370 C   0  0  0  0  0  0  0  0  0  0  0  0
   -4.6800   14.6570    0.8990 N   0  0  0  0  0  0  0  0  0  0  0  0
  1  2  1  0
  2  3  1  0
  2  4  1  0
  3  5  2  0
  4  6  2  0
  5  6  1  0
  4  7  1  0
  6  8  1  0
  7  9  2  0
  7 10  1  0
  8 11  2  3
  8 12  1  0
  9 13  1  0
 10 14  2  0
 11 15  1  0
 13 16  2  0
 14 16  1  0
 15 17  1  0
 18 17  1  6
 18 19  1  0
 18 20  1  0
 19 21  1  0
 19 22  1  0
 20 23  1  0
 20 24  1  1
 21 25  1  0
 22 26  1  0
 22 27  1  6
 24 28  1  0
 23 29  1  0
 28 29  1  0
 25 30  1  0
 26 30  1  0
 26 31  1  6
 27 32  1  0
 31 32  1  0
 30 33  1  1
M  END
