mac-x0179-mac-x0365
     RDKit          3D

 28 30  0  0  0  0  0  0  0  0999 V2000
    1.5940   12.9420   -2.2760 O   0  0  0  0  0  0  0  0  0  0  0  0
    0.9910   12.1800   -3.1960 C   0  0  0  0  0  0  0  0  0  0  0  0
    0.5940   11.0530   -2.8850 O   0  0  0  0  0  0  0  0  0  0  0  0
    0.8140   12.7080   -4.6260 C   0  0  2  0  0  0  0  0  0  0  0  0
    0.5220   14.2210   -4.7190 C   0  0  0  0  0  0  0  0  0  0  0  0
    0.0290   11.9210   -5.5660 N   0  0  0  0  0  0  0  0  0  0  0  0
    0.1040   14.9230   -3.4350 C   0  0  0  0  0  0  0  0  0  0  0  0
    0.6970   11.3800   -6.6190 C   0  0  0  0  0  0  0  0  0  0  0  0
   -1.0690   11.1610   -5.2790 C   0  0  0  0  0  0  0  0  0  0  0  0
    1.7710   11.6820   -7.0430 O   0  0  0  0  0  0  0  0  0  0  0  0
   -1.8280   11.2620   -4.3330 O   0  0  0  0  0  0  0  0  0  0  0  0
   -1.3510   14.9250   -3.2300 N   0  0  0  0  0  0  0  0  0  0  0  0
   -0.1110   10.3000   -7.1630 C   0  0  0  0  0  0  0  0  0  0  0  0
   -1.2020   10.1600   -6.3370 C   0  0  0  0  0  0  0  0  0  0  0  0
   -1.6910   14.8970   -1.9920 C   0  0  0  0  0  0  0  0  0  0  0  0
    0.0810    9.5060   -8.2720 C   0  0  0  0  0  0  0  0  0  0  0  0
   -2.1800    9.2150   -6.5620 C   0  0  0  0  0  0  0  0  0  0  0  0
   -0.7630   14.8480   -1.0280 O   0  0  0  0  0  0  0  0  0  0  0  0
   -0.8940    8.5370   -8.5290 C   0  0  0  0  0  0  0  0  0  0  0  0
   -2.0130    8.3920   -7.6830 C   0  0  0  0  0  0  0  0  0  0  0  0
   -3.0850   14.9500   -1.5060 C   0  0  0  0  0  0  0  0  0  0  0  0
   -4.1670   15.0450   -2.3770 C   0  0  0  0  0  0  0  0  0  0  0  0
   -3.2950   14.9080   -0.1070 C   0  0  0  0  0  0  0  0  0  0  0  0
   -5.4490   15.0920   -1.8430 C   0  0  0  0  0  0  0  0  0  0  0  0
   -4.5840   14.9570    0.4170 C   0  0  0  0  0  0  0  0  0  0  0  0
   -6.4890   15.1770   -2.6820 F   0  0  0  0  0  0  0  0  0  0  0  0
   -5.6620   15.0470   -0.4650 C   0  0  0  0  0  0  0  0  0  0  0  0
   -6.9410   15.0890   -0.0070 O   0  0  0  0  0  0  0  0  0  0  0  0
  1  2  1  0
  2  3  2  0
  2  4  1  0
  4  5  1  1
  4  6  1  0
  5  7  1  0
  6  8  1  0
  6  9  1  0
  8 10  2  0
  9 11  2  0
  7 12  1  0
  8 13  1  0
  9 14  1  0
 13 14  2  0
 12 15  2  3
 13 16  1  0
 14 17  1  0
 15 18  1  0
 16 19  2  0
 17 20  2  0
 19 20  1  0
 15 21  1  0
 21 22  2  0
 21 23  1  0
 22 24  1  0
 23 25  2  0
 24 26  1  0
 24 27  2  0
 25 27  1  0
 27 28  1  0
M  END
