mac-x0212-mac-x0346
     RDKit          3D

 16 17  0  0  0  0  0  0  0  0999 V2000
   -6.6980   12.6670    1.0980 C   0  0  0  0  0  0  0  0  0  0  0  0
   -6.9800   14.4140    1.1020 S   0  0  2  0  0  0  0  0  0  0  0  0
   -7.6640   14.7800    2.3210 O   0  0  0  0  0  0  0  0  0  0  0  0
   -7.3820   14.8630   -0.2920 N   0  0  0  0  0  0  0  0  0  0  0  0
   -5.4340   15.0950    1.3310 N   0  0  0  0  0  0  0  0  0  0  0  0
   -6.4450   15.0440   -1.3130 C   0  0  0  0  0  0  0  0  0  0  0  0
   -4.5320   14.9540    0.2520 C   0  0  0  0  0  0  0  0  0  0  0  0
   -6.8130   15.2700   -2.4480 O   0  0  0  0  0  0  0  0  0  0  0  0
   -3.1640   14.8290    0.5050 C   0  0  0  0  0  0  0  0  0  0  0  0
   -4.9760   14.9290   -1.0750 C   0  0  0  0  0  0  0  0  0  0  0  0
   -2.2600   14.6790   -0.5490 C   0  0  0  0  0  0  0  0  0  0  0  0
   -4.0730   14.7850   -2.1460 C   0  0  0  0  0  0  0  0  0  0  0  0
   -2.7080   14.6560   -1.8800 C   0  0  0  0  0  0  0  0  0  0  0  0
   -1.7530   14.4890   -3.0090 C   0  0  0  0  0  0  0  0  0  0  0  0
   -0.6280   14.0340   -2.9160 O   0  0  0  0  0  0  0  0  0  0  0  0
   -2.2450   14.8900   -4.1940 O   0  0  0  0  0  0  0  0  0  0  0  0
  2  1  1  6
  2  3  2  0
  2  4  2  0
  2  5  1  0
  4  6  1  0
  5  7  1  0
  6  8  2  0
  7  9  2  0
  6 10  1  0
  7 10  1  0
  9 11  1  0
 10 12  2  0
 11 13  2  0
 12 13  1  0
 13 14  1  0
 14 15  2  0
 14 16  1  0
M  END
