mac-x0572-mac-x0576
     RDKit          3D

 20 22  0  0  0  0  0  0  0  0999 V2000
   -8.5720   14.6400    3.0450 C   0  0  0  0  0  0  0  0  0  0  0  0
   -7.6760   14.6520    1.8410 C   0  0  0  0  0  0  0  0  0  0  0  0
   -6.3720   14.9010    2.0890 N   0  0  0  0  0  0  0  0  0  0  0  0
   -8.0760   14.4410    0.5740 C   0  0  0  0  0  0  0  0  0  0  0  0
   -9.3870   14.1890    0.2410 O   0  0  0  0  0  0  0  0  0  0  0  0
   -7.0500   14.4840   -0.5410 C   0  0  0  0  0  0  0  0  0  0  0  0
   -5.4480   14.9850    1.1040 C   0  0  0  0  0  0  0  0  0  0  0  0
   -7.4180   14.2890   -1.6920 O   0  0  0  0  0  0  0  0  0  0  0  0
   -5.6210   14.7830   -0.1860 C   0  0  0  0  0  0  0  0  0  0  0  0
   -4.1580   15.3480    1.5900 C   0  0  0  0  0  0  0  0  0  0  0  0
   -4.1430   15.9440    2.6240 O   0  0  0  0  0  0  0  0  0  0  0  0
   -2.9740   15.0070    0.7700 C   0  0  0  0  0  0  0  0  0  0  0  0
   -4.5010   14.8250   -1.1240 C   0  0  0  0  0  0  0  0  0  0  0  0
   -3.2190   14.9010   -0.6660 C   0  0  0  0  0  0  0  0  0  0  0  0
   -1.8350   14.8420    1.3400 N   0  0  0  0  0  0  0  0  0  0  0  0
   -0.8160   14.5720    0.5120 C   0  0  0  0  0  0  0  0  0  0  0  0
   -1.9980   14.8680   -1.4840 C   0  0  0  0  0  0  0  0  0  0  0  0
    0.3310   14.2800    1.1010 N   0  0  0  0  0  0  0  0  0  0  0  0
   -2.0140   15.0690   -2.6890 O   0  0  0  0  0  0  0  0  0  0  0  0
   -0.8600   14.5820   -0.7800 N   0  0  0  0  0  0  0  0  0  0  0  0
  1  2  1  0
  2  3  1  0
  2  4  2  0
  4  5  1  0
  4  6  1  0
  3  7  1  0
  6  8  2  0
  6  9  1  0
  7  9  2  0
  7 10  1  0
 10 11  2  0
 10 12  1  0
  9 13  1  0
 12 14  1  0
 13 14  2  0
 12 15  2  0
 15 16  1  0
 14 17  1  0
 16 18  1  0
 17 19  2  0
 16 20  2  0
 17 20  1  0
M  END
