mac-x0385-mac-x0131
     RDKit          3D

 19 21  0  0  0  0  0  0  0  0999 V2000
   -5.3660   15.6500   -0.3650 C   0  0  0  0  0  0  0  0  0  0  0  0
   -3.8970   15.5700   -0.1080 C   0  0  0  0  0  0  0  0  0  0  0  0
   -3.0640   15.6350   -1.2870 C   0  0  1  0  0  0  0  0  0  0  0  0
   -3.2700   15.4720    1.0510 C   0  0  0  0  0  0  0  0  0  0  0  0
   -3.9630   15.4900    2.2250 N   0  0  0  0  0  0  0  0  0  0  0  0
   -1.8930   15.3610    1.0880 N   0  0  0  0  0  0  0  0  0  0  0  0
   -1.9020   14.7840   -1.2380 N   0  0  0  0  0  0  0  0  0  0  0  0
   -3.7020   15.3120   -2.5690 C   0  0  0  0  0  0  0  0  0  0  0  0
   -1.2500   15.0240   -0.0130 C   0  0  0  0  0  0  0  0  0  0  0  0
   -2.7170   14.9420   -3.3610 C   0  0  0  0  0  0  0  0  0  0  0  0
   -1.5170   14.9760   -2.6110 N   0  0  0  0  0  0  0  0  0  0  0  0
    0.2440   14.8980    0.1370 C   0  0  0  0  0  0  0  0  0  0  0  0
   -2.8660   14.5550   -4.7800 C   0  0  0  0  0  0  0  0  0  0  0  0
   -0.2530   14.5400   -3.1880 C   0  0  0  0  0  0  0  0  0  0  0  0
   -0.2520   13.0870   -3.4930 C   0  0  0  0  0  0  0  0  0  0  0  0
    0.6760   12.0800   -3.4000 C   0  0  0  0  0  0  0  0  0  0  0  0
   -1.4290   12.5950   -3.9740 O   0  0  0  0  0  0  0  0  0  0  0  0
   -1.2530   11.2730   -4.1830 C   0  0  0  0  0  0  0  0  0  0  0  0
    0.0190   10.9070   -3.8440 C   0  0  0  0  0  0  0  0  0  0  0  0
  1  2  1  0
  2  3  1  0
  2  4  2  0
  4  5  1  0
  4  6  1  0
  3  7  1  0
  3  8  1  6
  6  9  2  0
  7  9  1  0
  8 10  2  0
  7 11  1  0
 10 11  1  0
  9 12  1  0
 10 13  1  0
 11 14  1  0
 14 15  1  0
 15 16  2  0
 15 17  1  0
 17 18  1  0
 16 19  1  0
 18 19  2  0
M  END
