mac-x0347-mac-x1493
     RDKit          3D

 23 25  0  0  0  0  0  0  0  0999 V2000
    1.5220   14.2730   -4.4380 O   0  0  0  0  0  0  0  0  0  0  0  0
    0.8370   13.4830   -3.5950 C   0  0  0  0  0  0  0  0  0  0  0  0
    1.4090   12.6690   -2.8980 O   0  0  0  0  0  0  0  0  0  0  0  0
   -0.6190   13.7160   -3.6180 C   0  0  0  0  0  0  0  0  0  0  0  0
   -1.3870   13.6570   -2.4660 C   0  0  0  0  0  0  0  0  0  0  0  0
   -1.2620   14.0070   -4.8160 C   0  0  0  0  0  0  0  0  0  0  0  0
   -2.7600   13.8890   -2.5330 C   0  0  0  0  0  0  0  0  0  0  0  0
   -2.6020   14.2380   -4.9190 N   0  0  0  0  0  0  0  0  0  0  0  0
   -3.3250   14.1740   -3.7730 C   0  0  0  0  0  0  0  0  0  0  0  0
   -3.5170   13.8390   -1.2830 C   0  0  0  0  0  0  0  0  0  0  0  0
   -2.6550   14.0420   -0.1150 C   0  0  0  0  0  0  0  0  0  0  0  0
   -4.8610   13.7330   -1.1510 C   0  0  0  0  0  0  0  0  0  0  0  0
   -5.5870   13.8150    0.1130 C   0  0  1  0  0  0  0  0  0  0  0  0
   -2.8270   13.7720    1.1750 C   0  0  0  0  0  0  0  0  0  0  0  0
   -5.9540   13.6930   -2.1120 C   0  0  0  0  0  0  0  0  0  0  0  0
   -5.1510   13.1460    1.3670 C   0  0  0  0  0  0  0  0  0  0  0  0
   -3.9390   13.1490    1.8050 C   0  0  0  0  0  0  0  0  0  0  0  0
   -5.2840   15.1930   -0.1140 C   0  0  0  0  0  0  0  0  0  0  0  0
   -6.5990   14.8300   -2.1140 N   0  0  0  0  0  0  0  0  0  0  0  0
   -4.3390   15.9720    0.6800 C   0  0  0  0  0  0  0  0  0  0  0  0
   -5.8510   15.6490   -1.2450 C   0  0  0  0  0  0  0  0  0  0  0  0
   -4.5980   16.0950    1.9730 O   0  0  0  0  0  0  0  0  0  0  0  0
   -3.3130   16.4370    0.2190 O   0  0  0  0  0  0  0  0  0  0  0  0
  1  2  1  0
  2  3  2  0
  2  4  1  0
  4  5  2  0
  4  6  1  0
  5  7  1  0
  6  8  2  0
  7  9  2  0
  8  9  1  0
  7 10  1  0
 10 11  1  0
 10 12  2  0
 12 13  1  0
 11 14  2  0
 12 15  1  0
 13 16  1  1
 14 17  1  0
 16 17  2  0
 13 18  1  0
 15 19  2  0
 18 20  1  0
 18 21  2  0
 19 21  1  0
 20 22  1  0
 20 23  2  0
M  END
