mac-x0212-diamond-x0950_0_A
     RDKit          3D

 21 21  0  0  0  0  0  0  0  0999 V2000
   -6.5310   12.7000    1.3940 C   0  0  0  0  0  0  0  0  0  0  0  0
   -6.9690   14.4000    1.0840 S   0  0  0  0  0  0  0  0  0  0  0  0
   -7.8980   14.8490    2.0940 O   0  0  0  0  0  0  0  0  0  0  0  0
   -7.2780   14.5390   -0.3230 O   0  0  0  0  0  0  0  0  0  0  0  0
   -5.4500   15.1310    1.3100 N   0  0  0  0  0  0  0  0  0  0  0  0
   -4.5360   15.0080    0.2210 C   0  0  0  0  0  0  0  0  0  0  0  0
   -3.3100   14.3980    0.4550 C   0  0  0  0  0  0  0  0  0  0  0  0
   -4.8620   15.4840   -1.0590 C   0  0  0  0  0  0  0  0  0  0  0  0
   -2.4010   14.2480   -0.5820 C   0  0  0  0  0  0  0  0  0  0  0  0
   -3.9470   15.3320   -2.1050 C   0  0  0  0  0  0  0  0  0  0  0  0
   -2.7160   14.7110   -1.8640 C   0  0  0  0  0  0  0  0  0  0  0  0
   -1.7530   14.5420   -2.9560 C   0  0  0  0  0  0  0  0  0  0  0  0
   -0.5120   14.2220   -2.9810 N   0  0  0  0  0  0  0  0  0  0  0  0
   -2.3490   14.7750   -4.1350 O   0  0  0  0  0  0  0  0  0  0  0  0
    0.2250   13.9420   -1.7420 C   0  0  0  0  0  0  0  0  0  0  0  0
    0.7290   12.6010   -1.6430 O   0  0  0  0  0  0  0  0  0  0  0  0
    0.7730   11.9160   -2.8320 C   0  0  0  0  0  0  0  0  0  0  0  0
    1.3870   12.7470   -3.9860 C   0  0  1  0  0  0  0  0  0  0  0  0
    0.3710   10.7700   -2.9630 O   0  0  0  0  0  0  0  0  0  0  0  0
    2.8910   12.9000   -3.8220 C   0  0  0  0  0  0  0  0  0  0  0  0
    1.1130   12.2020   -5.2760 O   0  0  0  0  0  0  0  0  0  0  0  0
  1  2  1  0
  2  3  2  0
  2  4  2  0
  2  5  1  0
  5  6  1  0
  6  7  2  0
  6  8  1  0
  7  9  1  0
  8 10  2  0
  9 11  2  0
 10 11  1  0
 11 12  1  0
 12 13  2  3
 12 14  1  0
 13 15  1  0
 15 16  1  0
 16 17  1  0
 17 18  1  0
 17 19  2  0
 18 20  1  1
 18 21  1  0
M  END
