mac-x0453-mac-x0404
     RDKit          3D

 25 27  0  0  0  0  0  0  0  0999 V2000
   -7.0530   14.0080    2.3630 N   0  0  0  0  0  0  0  0  0  0  0  0
   -6.1000   13.8220    1.2690 C   0  0  0  0  0  0  0  0  0  0  0  0
   -4.8870   14.7560    1.3700 C   0  0  0  0  0  0  0  0  0  0  0  0
   -4.0490   14.7890    0.1560 C   0  0  0  0  0  0  0  0  0  0  0  0
   -2.7090   14.5100    0.0650 C   0  0  0  0  0  0  0  0  0  0  0  0
   -4.5610   15.1230   -1.0790 N   0  0  0  0  0  0  0  0  0  0  0  0
   -2.3990   14.6750   -1.2440 N   0  0  0  0  0  0  0  0  0  0  0  0
   -3.5420   15.0450   -1.9030 C   0  0  0  0  0  0  0  0  0  0  0  0
   -1.0850   14.4900   -1.8200 C   0  0  0  0  0  0  0  0  0  0  0  0
   -0.4320   13.1880   -1.3700 C   0  0  0  0  0  0  0  0  0  0  0  0
    0.8570   12.9900   -1.9930 O   0  0  0  0  0  0  0  0  0  0  0  0
    0.8920   12.0610   -2.9970 C   0  0  0  0  0  0  0  0  0  0  0  0
    0.5020   10.9090   -2.8570 O   0  0  0  0  0  0  0  0  0  0  0  0
    1.4850   12.6730   -4.2680 C   0  0  0  0  0  0  0  0  0  0  0  0
    1.2010   14.0610   -4.3550 O   0  0  0  0  0  0  0  0  0  0  0  0
   -0.0710   14.4680   -4.6920 C   0  0  0  0  0  0  0  0  0  0  0  0
   -0.2110   15.8470   -4.9650 C   0  0  0  0  0  0  0  0  0  0  0  0
   -1.1890   13.6320   -4.7800 C   0  0  0  0  0  0  0  0  0  0  0  0
   -1.4740   16.3720   -5.3180 C   0  0  0  0  0  0  0  0  0  0  0  0
   -2.4380   14.1590   -5.1280 C   0  0  0  0  0  0  0  0  0  0  0  0
    0.8770   16.7240   -4.8980 C   0  0  0  0  0  0  0  0  0  0  0  0
   -2.5790   15.5200   -5.3930 C   0  0  0  0  0  0  0  0  0  0  0  0
   -1.6080   17.7350   -5.5940 C   0  0  0  0  0  0  0  0  0  0  0  0
    0.7380   18.0770   -5.1760 C   0  0  0  0  0  0  0  0  0  0  0  0
   -0.5090   18.5830   -5.5270 C   0  0  0  0  0  0  0  0  0  0  0  0
  1  2  1  0
  2  3  1  0
  3  4  1  0
  4  5  2  0
  4  6  1  0
  5  7  1  0
  6  8  2  0
  7  8  1  0
  7  9  1  0
  9 10  1  0
 10 11  1  0
 11 12  1  0
 12 13  2  0
 12 14  1  0
 14 15  1  0
 15 16  1  0
 16 17  1  0
 16 18  2  0
 17 19  2  0
 18 20  1  0
 17 21  1  0
 19 22  1  0
 20 22  2  0
 19 23  1  0
 21 24  2  0
 23 25  2  0
 24 25  1  0
M  END
