mac-x0212-mac-x0527
     RDKit          3D

 21 22  0  0  0  0  0  0  0  0999 V2000
   -6.5930   12.7330    1.3280 C   0  0  0  0  0  0  0  0  0  0  0  0
   -6.9460   14.4490    1.0010 S   0  0  0  0  0  0  0  0  0  0  0  0
   -7.7490   14.9460    2.1000 O   0  0  0  0  0  0  0  0  0  0  0  0
   -7.3990   14.5920   -0.3650 O   0  0  0  0  0  0  0  0  0  0  0  0
   -5.4200   15.1330    1.1950 N   0  0  0  0  0  0  0  0  0  0  0  0
   -4.4890   15.0260    0.1160 C   0  0  0  0  0  0  0  0  0  0  0  0
   -3.2250   14.5430    0.4360 C   0  0  0  0  0  0  0  0  0  0  0  0
   -4.7800   15.3670   -1.2190 C   0  0  0  0  0  0  0  0  0  0  0  0
   -2.2580   14.3920   -0.5600 C   0  0  0  0  0  0  0  0  0  0  0  0
   -3.7990   15.2060   -2.2210 C   0  0  0  0  0  0  0  0  0  0  0  0
   -2.5330   14.7160   -1.8980 C   0  0  0  0  0  0  0  0  0  0  0  0
   -4.1680   15.5510   -3.4870 O   0  0  0  0  0  0  0  0  0  0  0  0
   -1.4030   14.4910   -2.8480 C   0  0  0  0  0  0  0  0  0  0  0  0
   -0.2560   14.3800   -2.4630 O   0  0  0  0  0  0  0  0  0  0  0  0
   -1.8240   14.4090   -4.1560 O   0  0  0  0  0  0  0  0  0  0  0  0
   -1.3980   13.2130   -4.7420 C   0  0  0  0  0  0  0  0  0  0  0  0
   -2.1450   12.0750   -4.4600 C   0  0  0  0  0  0  0  0  0  0  0  0
   -0.2700   13.1590   -5.5670 C   0  0  0  0  0  0  0  0  0  0  0  0
   -1.7680   10.8560   -5.0160 C   0  0  0  0  0  0  0  0  0  0  0  0
    0.1030   11.9340   -6.1200 C   0  0  0  0  0  0  0  0  0  0  0  0
   -0.6440   10.7870   -5.8430 C   0  0  0  0  0  0  0  0  0  0  0  0
  1  2  1  0
  2  3  2  0
  2  4  2  0
  2  5  1  0
  5  6  1  0
  6  7  2  0
  6  8  1  0
  7  9  1  0
  8 10  2  0
  9 11  2  0
 10 11  1  0
 10 12  1  0
 11 13  1  0
 13 14  2  0
 13 15  1  0
 15 16  1  0
 16 17  2  0
 16 18  1  0
 17 19  1  0
 18 20  2  0
 19 21  2  0
 20 21  1  0
M  END
