mac-x0142-diamond-x0628_0_A
     RDKit          3D

 28 32  0  0  0  0  0  0  0  0999 V2000
   -0.4610    8.9640   -7.2540 C   0  0  0  0  0  0  0  0  0  0  0  0
   -0.7950   10.1490   -6.4440 C   0  0  0  0  0  0  0  0  0  0  0  0
   -1.7220   10.0980   -5.4470 N   0  0  0  0  0  0  0  0  0  0  0  0
   -0.2240   11.3470   -6.6200 N   0  0  0  0  0  0  0  0  0  0  0  0
   -0.8460   12.0850   -5.6670 N   0  0  0  0  0  0  0  0  0  0  0  0
   -1.7370   11.3220   -4.9680 C   0  0  0  0  0  0  0  0  0  0  0  0
   -2.5760   11.8160   -3.8590 C   0  0  0  0  0  0  0  0  0  0  0  0
   -0.5740   13.5110   -5.4500 C   0  0  2  0  0  0  0  0  0  0  0  0
    0.5850   13.8260   -4.5270 C   0  0  2  0  0  0  0  0  0  0  0  0
   -1.8760   14.2590   -5.1310 C   0  0  0  0  0  0  0  0  0  0  0  0
    2.0220   13.6500   -4.9930 C   0  0  0  0  0  0  0  0  0  0  0  0
    1.4270   12.6450   -4.1210 C   0  0  1  0  0  0  0  0  0  0  0  0
   -2.1500   14.5560   -3.6570 C   0  0  0  0  0  0  0  0  0  0  0  0
    0.3050   14.8730   -3.4410 C   0  0  0  0  0  0  0  0  0  0  0  0
   -0.9670   14.5550   -2.7860 N   0  0  0  0  0  0  0  0  0  0  0  0
    1.9040   12.4770   -2.7820 C   0  0  0  0  0  0  0  0  0  0  0  0
   -1.1500   14.6860   -1.3960 C   0  0  0  0  0  0  0  0  0  0  0  0
    0.8850   11.6760   -2.0650 C   0  0  0  0  0  0  0  0  0  0  0  0
   -0.1230   14.6120   -0.4720 N   0  0  0  0  0  0  0  0  0  0  0  0
   -2.3650   14.9110   -0.8630 C   0  0  0  0  0  0  0  0  0  0  0  0
    0.5730   10.5150   -2.3080 O   0  0  0  0  0  0  0  0  0  0  0  0
    0.3030   12.3410   -1.0760 O   0  0  0  0  0  0  0  0  0  0  0  0
   -0.3500   14.7210    0.8790 C   0  0  0  0  0  0  0  0  0  0  0  0
   -2.5290   15.0500    0.6070 C   0  0  0  0  0  0  0  0  0  0  0  0
   -3.6950   15.0920   -1.3550 C   0  0  0  0  0  0  0  0  0  0  0  0
   -1.4780   14.9250    1.4680 N   0  0  0  0  0  0  0  0  0  0  0  0
   -3.7570   15.3140    0.9400 N   0  0  0  0  0  0  0  0  0  0  0  0
   -4.4420   15.3300   -0.2690 C   0  0  0  0  0  0  0  0  0  0  0  0
  1  2  1  0
  2  3  1  0
  2  4  2  0
  4  5  1  0
  3  6  2  0
  5  6  1  0
  6  7  1  0
  8  5  1  1
  8  9  1  0
  8 10  1  0
  9 11  1  6
  9 12  1  0
 11 12  1  0
 10 13  1  0
  9 14  1  0
 13 15  1  0
 14 15  1  0
 12 16  1  1
 15 17  1  0
 16 18  1  0
 17 19  1  0
 17 20  2  0
 18 21  2  0
 18 22  1  0
 19 23  1  0
 20 24  1  0
 20 25  1  0
 23 26  2  0
 24 26  1  0
 24 27  2  0
 25 28  2  0
 27 28  1  0
M  END
