mac-x0213-mac-x0380
     RDKit          3D

 26 29  0  0  0  0  0  0  0  0999 V2000
    0.1190   11.6340   -3.0440 O   0  0  0  0  0  0  0  0  0  0  0  0
    0.4800   12.9190   -2.8230 C   0  0  0  0  0  0  0  0  0  0  0  0
    0.8880   13.2350   -1.7220 O   0  0  0  0  0  0  0  0  0  0  0  0
    0.2890   13.8150   -4.0290 C   0  0  1  0  0  0  0  0  0  0  0  0
   -1.1840   14.2510   -4.1060 C   0  0  1  0  0  0  0  0  0  0  0  0
    1.1060   15.1230   -3.9020 C   0  0  0  0  0  0  0  0  0  0  0  0
   -1.7300   14.4290   -2.7900 O   0  0  0  0  0  0  0  0  0  0  0  0
   -1.0910   15.6400   -4.6820 C   0  0  0  0  0  0  0  0  0  0  0  0
    0.2080   16.1310   -4.5590 C   0  0  0  0  0  0  0  0  0  0  0  0
   -2.9360   15.0250   -2.8250 C   0  0  0  0  0  0  0  0  0  0  0  0
   -2.0960   16.4080   -5.2700 C   0  0  0  0  0  0  0  0  0  0  0  0
    0.5260   17.4020   -5.0180 C   0  0  0  0  0  0  0  0  0  0  0  0
   -3.4390   15.5130   -3.8140 O   0  0  0  0  0  0  0  0  0  0  0  0
   -1.7770   17.6850   -5.7320 C   0  0  0  0  0  0  0  0  0  0  0  0
   -0.4740   18.1750   -5.6050 C   0  0  0  0  0  0  0  0  0  0  0  0
   -3.6270   15.0160   -1.5190 C   0  0  0  0  0  0  0  0  0  0  0  0
   -5.0140   15.0480   -1.5920 C   0  0  0  0  0  0  0  0  0  0  0  0
   -2.9900   14.9760   -0.2690 C   0  0  0  0  0  0  0  0  0  0  0  0
   -5.7800   15.0340   -0.4380 C   0  0  0  0  0  0  0  0  0  0  0  0
   -3.7590   14.9650    0.8990 C   0  0  0  0  0  0  0  0  0  0  0  0
   -5.1610   14.9910    0.8140 C   0  0  0  0  0  0  0  0  0  0  0  0
   -7.5470   15.0630   -0.6140 S   0  0  0  0  0  0  0  0  0  0  0  0
   -5.9070   14.9670    2.0040 N   0  0  0  0  0  0  0  0  0  0  0  0
   -7.9190   14.0980    0.8590 C   0  0  0  0  0  0  0  0  0  0  0  0
   -7.2370   14.6390    2.0860 C   0  0  0  0  0  0  0  0  0  0  0  0
   -7.8550   14.7970    3.1430 O   0  0  0  0  0  0  0  0  0  0  0  0
  1  2  1  0
  2  3  2  0
  4  2  1  1
  4  5  1  0
  4  6  1  0
  5  7  1  1
  5  8  1  0
  6  9  1  0
  8  9  2  0
  7 10  1  0
  8 11  1  0
  9 12  1  0
 10 13  2  0
 11 14  2  0
 12 15  2  0
 14 15  1  0
 10 16  1  0
 16 17  2  0
 16 18  1  0
 17 19  1  0
 18 20  2  0
 19 21  2  0
 20 21  1  0
 19 22  1  0
 21 23  1  0
 22 24  1  0
 23 25  1  0
 24 25  1  0
 25 26  2  0
M  END
