mac-x0379-mac-x0277
     RDKit          3D

 20 21  0  0  0  0  0  0  0  0999 V2000
   -5.0000   15.4330    0.3710 C   0  0  0  0  0  0  0  0  0  0  0  0
   -4.2720   15.0770   -0.8580 C   0  0  0  0  0  0  0  0  0  0  0  0
   -4.7990   15.0920   -2.0560 N   0  0  0  0  0  0  0  0  0  0  0  0
   -2.6370   14.6000   -0.7600 S   0  0  0  0  0  0  0  0  0  0  0  0
   -3.8590   14.6930   -2.9790 C   0  0  0  0  0  0  0  0  0  0  0  0
   -2.6180   14.3770   -2.4660 C   0  0  0  0  0  0  0  0  0  0  0  0
   -1.3600   13.8930   -3.1180 C   0  0  1  0  0  0  0  0  0  0  0  0
   -1.6490   12.7910   -3.9180 O   0  0  0  0  0  0  0  0  0  0  0  0
   -0.5370   14.8650   -3.8880 C   0  0  0  0  0  0  0  0  0  0  0  0
    0.8580   14.7040   -3.9500 C   0  0  0  0  0  0  0  0  0  0  0  0
   -1.1480   15.9560   -4.5520 C   0  0  0  0  0  0  0  0  0  0  0  0
   -2.8570   16.1620   -4.5720 Cl  0  0  0  0  0  0  0  0  0  0  0  0
    1.6390   13.5420   -3.3170 C   0  0  0  0  0  0  0  0  0  0  0  0
   -0.3950   16.9000   -5.2160 C   0  0  0  0  0  0  0  0  0  0  0  0
    1.5690   15.6610   -4.6280 C   0  0  0  0  0  0  0  0  0  0  0  0
   -1.1130   18.2590   -6.0000 Cl  0  0  0  0  0  0  0  0  0  0  0  0
    0.9200   12.5260   -2.4380 C   0  0  0  0  0  0  0  0  0  0  0  0
    0.9710   16.7560   -5.2520 C   0  0  0  0  0  0  0  0  0  0  0  0
    0.5440   11.3970   -3.0970 O   0  0  0  0  0  0  0  0  0  0  0  0
    0.6830   12.6700   -1.2480 O   0  0  0  0  0  0  0  0  0  0  0  0
  1  2  1  0
  2  3  2  0
  2  4  1  0
  3  5  1  0
  4  6  1  0
  5  6  2  0
  6  7  1  0
  7  8  1  6
  7  9  1  0
  9 10  2  0
  9 11  1  0
 11 12  1  0
 10 13  1  0
 11 14  2  0
 10 15  1  0
 14 16  1  0
 13 17  1  0
 14 18  1  0
 15 18  2  0
 17 19  1  0
 17 20  2  0
M  END
