mac-x0397-mac-x0301
     RDKit          3D

 18 20  0  0  0  0  0  0  0  0999 V2000
   -6.3450   15.1820   -2.3350 Cl  0  0  0  0  0  0  0  0  0  0  0  0
   -4.8020   14.4660   -1.7880 C   0  0  2  0  0  0  0  0  0  0  0  0
   -4.6640   14.7390   -0.3520 C   0  0  0  0  0  0  0  0  0  0  0  0
   -3.6240   15.0010   -2.6280 C   0  0  0  0  0  0  0  0  0  0  0  0
   -5.7950   14.7760    0.4360 N   0  0  0  0  0  0  0  0  0  0  0  0
   -3.4600   14.9570    0.2810 C   0  0  0  0  0  0  0  0  0  0  0  0
   -2.2130   15.1260   -1.9640 C   0  0  2  0  0  0  0  0  0  0  0  0
   -1.1770   14.4520   -2.8700 C   0  0  0  0  0  0  0  0  0  0  0  0
   -5.4680   15.0130    1.6600 C   0  0  0  0  0  0  0  0  0  0  0  0
   -3.7760   15.2130    1.9340 S   0  0  0  0  0  0  0  0  0  0  0  0
   -2.1040   14.9470   -0.3830 C   0  0  2  0  0  0  0  0  0  0  0  0
   -6.3880   15.0920    2.6300 N   0  0  0  0  0  0  0  0  0  0  0  0
    0.1030   14.5760   -2.4660 O   0  0  0  0  0  0  0  0  0  0  0  0
   -1.4080   13.8600   -3.9140 O   0  0  0  0  0  0  0  0  0  0  0  0
   -1.4370   13.8230    0.2080 O   0  0  0  0  0  0  0  0  0  0  0  0
   -1.1100   15.9960    0.0660 C   0  0  0  0  0  0  0  0  0  0  0  0
    0.1630   15.3740    0.0210 O   0  0  0  0  0  0  0  0  0  0  0  0
   -0.1460   14.1840    0.6720 C   0  0  0  0  0  0  0  0  0  0  0  0
  2  1  1  6
  2  3  1  0
  2  4  1  0
  3  5  1  0
  3  6  2  0
  4  7  1  0
  7  8  1  6
  5  9  2  0
  6 10  1  0
  9 10  1  0
  6 11  1  0
  7 11  1  0
  9 12  1  0
  8 13  1  0
  8 14  2  0
 11 15  1  0
 11 16  1  1
 16 17  1  0
 15 18  1  0
 17 18  1  0
M  END
