mac-x0361-diamond-x0628_0_A
     RDKit          3D

 23 24  0  0  0  0  0  0  0  0999 V2000
   -6.1880   14.7590    1.6400 N   0  0  0  0  0  0  0  0  0  0  0  0
   -6.4800   14.7800    0.3040 C   0  0  0  0  0  0  0  0  0  0  0  0
   -7.6450   14.7320   -0.0780 O   0  0  0  0  0  0  0  0  0  0  0  0
   -5.3420   14.8550   -0.6490 C   0  0  0  0  0  0  0  0  0  0  0  0
   -4.0140   14.7660   -0.2210 C   0  0  0  0  0  0  0  0  0  0  0  0
   -5.6170   15.0140   -2.0140 C   0  0  0  0  0  0  0  0  0  0  0  0
   -2.9710   14.8260   -1.1530 C   0  0  0  0  0  0  0  0  0  0  0  0
   -4.5720   15.0720   -2.9370 C   0  0  0  0  0  0  0  0  0  0  0  0
   -3.2570   14.9760   -2.5120 C   0  0  0  0  0  0  0  0  0  0  0  0
   -2.3000   15.0380   -3.4880 O   0  0  0  0  0  0  0  0  0  0  0  0
   -2.4570   14.0710   -4.5530 C   0  0  0  0  0  0  0  0  0  0  0  0
   -2.2320   12.6410   -4.0320 C   0  0  0  0  0  0  0  0  0  0  0  0
   -1.4940   11.7920   -5.0260 C   0  0  0  0  0  0  0  0  0  0  0  0
   -1.9180   10.6480   -5.5420 N   0  0  0  0  0  0  0  0  0  0  0  0
   -0.2610   12.0800   -5.5500 N   0  0  0  0  0  0  0  0  0  0  0  0
    0.6150   13.2120   -5.3060 C   0  0  0  0  0  0  0  0  0  0  0  0
   -0.8980   10.2760   -6.3820 C   0  0  0  0  0  0  0  0  0  0  0  0
    0.1290   11.1260   -6.4180 N   0  0  0  0  0  0  0  0  0  0  0  0
   -0.9260    9.0380   -7.1820 C   0  0  0  0  0  0  0  0  0  0  0  0
    1.6870   12.9410   -4.2620 C   0  0  0  0  0  0  0  0  0  0  0  0
    1.1210   12.2770   -3.0360 C   0  0  0  0  0  0  0  0  0  0  0  0
    0.6310   11.1610   -2.9610 O   0  0  0  0  0  0  0  0  0  0  0  0
    1.2020   13.0590   -1.9490 O   0  0  0  0  0  0  0  0  0  0  0  0
  1  2  1  0
  2  3  2  0
  2  4  1  0
  4  5  2  0
  4  6  1  0
  5  7  1  0
  6  8  2  0
  7  9  2  0
  8  9  1  0
  9 10  1  0
 10 11  1  0
 11 12  1  0
 12 13  1  0
 13 14  2  0
 13 15  1  0
 15 16  1  0
 14 17  1  0
 15 18  1  0
 17 18  2  0
 17 19  1  0
 16 20  1  0
 20 21  1  0
 21 22  2  0
 21 23  1  0
M  END
