mac-x0394-diamond-x0128_0_A
     RDKit          3D

 31 33  0  0  0  0  0  0  0  0999 V2000
    0.8700   18.2240   -4.8690 Cl  0  0  0  0  0  0  0  0  0  0  0  0
    0.2710   16.6310   -4.8140 C   0  0  0  0  0  0  0  0  0  0  0  0
   -1.0300   16.3740   -5.2420 C   0  0  0  0  0  0  0  0  0  0  0  0
    1.0900   15.6050   -4.3450 C   0  0  0  0  0  0  0  0  0  0  0  0
    0.6040   14.2980   -4.3020 C   0  0  0  0  0  0  0  0  0  0  0  0
   -1.5160   15.0600   -5.2080 C   0  0  0  0  0  0  0  0  0  0  0  0
   -2.8960   14.6800   -5.6680 C   0  0  0  0  0  0  0  0  0  0  0  0
    1.4470   13.1530   -3.7970 C   0  0  0  0  0  0  0  0  0  0  0  0
   -0.6940   14.0440   -4.7370 C   0  0  0  0  0  0  0  0  0  0  0  0
    0.7870   12.3870   -2.6650 C   0  0  0  0  0  0  0  0  0  0  0  0
   -3.9930   15.3530   -4.9060 C   0  0  0  0  0  0  0  0  0  0  0  0
    0.1900   11.2580   -3.1020 O   0  0  0  0  0  0  0  0  0  0  0  0
    0.7370   12.6770   -1.4720 O   0  0  0  0  0  0  0  0  0  0  0  0
   -4.4670   14.6060   -3.6590 C   0  0  0  0  0  0  0  0  0  0  0  0
   -3.8370   15.2290   -2.4180 C   0  0  0  0  0  0  0  0  0  0  0  0
   -4.6520   15.0530   -1.1620 C   0  0  0  0  0  0  0  0  0  0  0  0
   -6.0370   14.8170   -1.1650 C   0  0  0  0  0  0  0  0  0  0  0  0
   -3.9840   15.1220    0.0580 C   0  0  0  0  0  0  0  0  0  0  0  0
   -6.7230   14.6440    0.0460 C   0  0  0  0  0  0  0  0  0  0  0  0
   -4.6640   14.9510    1.2570 C   0  0  0  0  0  0  0  0  0  0  0  0
   -6.0360   14.7060    1.2690 C   0  0  0  0  0  0  0  0  0  0  0  0
   -6.7590   14.5120    2.4620 N   0  0  0  0  0  0  0  0  0  0  0  0
   -7.8300   15.1790    2.9700 C   0  0  0  0  0  0  0  0  0  0  0  0
   -8.8050   15.6090    2.3550 O   0  0  0  0  0  0  0  0  0  0  0  0
   -7.7580   15.3610    4.3220 N   0  0  0  0  0  0  0  0  0  0  0  0
   -8.5260   16.1350    5.2170 C   0  0  0  0  0  0  0  0  0  0  0  0
   -9.2220   17.2890    4.8720 C   0  0  0  0  0  0  0  0  0  0  0  0
   -8.6090   15.7270    6.5490 C   0  0  0  0  0  0  0  0  0  0  0  0
   -9.9640   18.0270    5.7280 N   0  0  0  0  0  0  0  0  0  0  0  0
   -9.3650   16.4690    7.4590 C   0  0  0  0  0  0  0  0  0  0  0  0
  -10.0190   17.6030    7.0050 C   0  0  0  0  0  0  0  0  0  0  0  0
  1  2  1  0
  2  3  2  0
  2  4  1  0
  4  5  2  0
  3  6  1  0
  6  7  1  0
  5  8  1  0
  5  9  1  0
  6  9  2  0
  8 10  1  0
  7 11  1  0
 10 12  1  0
 10 13  2  0
 11 14  1  0
 14 15  1  0
 15 16  1  0
 16 17  2  0
 16 18  1  0
 17 19  1  0
 18 20  2  0
 19 21  2  0
 20 21  1  0
 21 22  1  0
 22 23  1  0
 23 24  2  0
 23 25  1  0
 25 26  1  0
 26 27  2  0
 26 28  1  0
 27 29  1  0
 28 30  2  0
 29 31  2  0
 30 31  1  0
M  END
