mac-x0328-mac-x0138
     RDKit          3D

 17 18  0  0  0  0  0  0  0  0999 V2000
   -2.2660   14.5340   -4.0960 O   0  0  0  0  0  0  0  0  0  0  0  0
   -2.0830   14.3270   -2.7750 C   0  0  0  0  0  0  0  0  0  0  0  0
   -0.9460   14.3370   -2.3310 O   0  0  0  0  0  0  0  0  0  0  0  0
   -3.3860   14.1070   -1.9910 C   0  0  1  0  0  0  0  0  0  0  0  0
   -3.3950   14.9640   -0.6720 C   0  0  1  0  0  0  0  0  0  0  0  0
   -4.5450   14.4190   -2.9370 C   0  0  0  0  0  0  0  0  0  0  0  0
   -4.7430   15.7340   -0.5160 C   0  0  0  0  0  0  0  0  0  0  0  0
   -5.7380   14.8010   -2.4740 C   0  0  0  0  0  0  0  0  0  0  0  0
   -3.1890   14.1930    0.6680 C   0  0  2  0  0  0  0  0  0  0  0  0
   -2.1470   15.8270   -0.8570 C   0  0  0  0  0  0  0  0  0  0  0  0
   -4.4090   14.2050    1.4480 N   0  0  0  0  0  0  0  0  0  0  0  0
   -5.9400   14.9410   -1.0210 C   0  0  2  0  0  0  0  0  0  0  0  0
   -2.1560   14.8210    1.4750 N   0  0  0  0  0  0  0  0  0  0  0  0
   -0.9620   15.0610   -0.5250 N   0  0  0  0  0  0  0  0  0  0  0  0
   -7.2140   15.5100   -0.7570 O   0  0  0  0  0  0  0  0  0  0  0  0
   -0.8670   14.9980    0.8790 C   0  0  2  0  0  0  0  0  0  0  0  0
   -0.1210   13.8830    1.3020 N   0  0  0  0  0  0  0  0  0  0  0  0
  1  2  1  0
  2  3  2  0
  4  2  1  6
  4  5  1  0
  4  6  1  0
  5  7  1  1
  6  8  2  0
  5  9  1  0
  5 10  1  0
  9 11  1  1
  7 12  1  0
  8 12  1  0
  9 13  1  0
 10 14  1  0
 12 15  1  6
 13 16  1  0
 14 16  1  0
 16 17  1  6
M  END
