mac-x0346-diamond-x0421_0_A
     RDKit          3D

 15 16  0  0  0  0  0  0  0  0999 V2000
   -8.3340   14.9650    0.6080 O   0  0  0  0  0  0  0  0  0  0  0  0
   -7.6620   14.1890   -0.3640 N   0  0  0  0  0  0  0  0  0  0  0  0
   -6.7180   14.8490   -1.1200 C   0  0  0  0  0  0  0  0  0  0  0  0
   -6.9050   14.9880   -2.3240 O   0  0  0  0  0  0  0  0  0  0  0  0
   -5.4570   15.3940   -0.4320 C   0  0  2  0  0  0  0  0  0  0  0  0
   -4.1880   15.4490   -1.3060 C   0  0  2  0  0  0  0  0  0  0  0  0
   -5.2510   14.7710    0.9620 C   0  0  0  0  0  0  0  0  0  0  0  0
   -3.9940   14.3080   -2.1330 O   0  0  0  0  0  0  0  0  0  0  0  0
   -2.9100   15.6970   -0.5440 C   0  0  0  0  0  0  0  0  0  0  0  0
   -3.9250   15.0950    1.6530 C   0  0  0  0  0  0  0  0  0  0  0  0
   -6.4960   14.6970    1.8460 C   0  0  0  0  0  0  0  0  0  0  0  0
   -5.9160   13.4350    1.2900 C   0  0  0  0  0  0  0  0  0  0  0  0
   -2.6920   13.9830   -2.3330 C   0  0  0  0  0  0  0  0  0  0  0  0
   -2.7950   15.5390    0.7720 C   0  0  0  0  0  0  0  0  0  0  0  0
   -1.7310   14.7310   -2.2980 O   0  0  0  0  0  0  0  0  0  0  0  0
  1  2  1  0
  2  3  1  0
  3  4  2  0
  5  3  1  6
  5  6  1  0
  5  7  1  0
  6  8  1  1
  6  9  1  0
  7 10  1  0
  7 11  1  0
  7 12  1  0
 11 12  1  0
  8 13  1  0
  9 14  2  0
 10 14  1  0
 13 15  2  0
M  END
