mac-x0373-mac-x0116
     RDKit          3D

 26 29  0  0  0  0  0  0  0  0999 V2000
    0.2700   13.0640   -1.1040 O   0  0  0  0  0  0  0  0  0  0  0  0
    0.2390   14.1270   -1.9680 C   0  0  0  0  0  0  0  0  0  0  0  0
    1.2500   14.7950   -2.1230 O   0  0  0  0  0  0  0  0  0  0  0  0
   -1.1190   14.3260   -2.6310 C   0  0  1  0  0  0  0  0  0  0  0  0
   -1.6130   13.1130   -3.4390 C   0  0  0  0  0  0  0  0  0  0  0  0
   -2.1100   15.1720   -1.7500 C   0  0  1  0  0  0  0  0  0  0  0  0
   -1.0290   12.8670   -4.7020 C   0  0  0  0  0  0  0  0  0  0  0  0
   -2.6060   12.2250   -3.0020 C   0  0  0  0  0  0  0  0  0  0  0  0
   -3.4380   15.4160   -2.4640 C   0  0  0  0  0  0  0  0  0  0  0  0
   -2.2720   14.8200   -0.2230 C   0  0  0  0  0  0  0  0  0  0  0  0
   -1.4220   11.7810   -5.4860 C   0  0  0  0  0  0  0  0  0  0  0  0
   -3.0000   11.1360   -3.7870 C   0  0  0  0  0  0  0  0  0  0  0  0
   -4.6020   15.6010   -1.8600 C   0  0  0  0  0  0  0  0  0  0  0  0
   -3.7720   14.5680    0.2490 C   0  0  1  0  0  0  0  0  0  0  0  0
   -1.4530   15.6410    0.6630 N   0  0  0  0  0  0  0  0  0  0  0  0
   -1.4000   13.7190    0.2320 N   0  0  0  0  0  0  0  0  0  0  0  0
   -4.0120   14.5900    1.7000 N   0  0  0  0  0  0  0  0  0  0  0  0
   -2.4060   10.9140   -5.0300 C   0  0  0  0  0  0  0  0  0  0  0  0
   -4.7250   15.5790   -0.3940 C   0  0  0  0  0  0  0  0  0  0  0  0
   -0.4790   14.6080    0.9110 C   0  0  0  0  0  0  0  0  0  0  0  0
   -5.4570   14.6180    1.9710 C   0  0  0  0  0  0  0  0  0  0  0  0
   -6.0620   13.2600    1.8460 C   0  0  0  0  0  0  0  0  0  0  0  0
   -6.1090   12.7070    0.5930 O   0  0  0  0  0  0  0  0  0  0  0  0
   -6.6170   12.3950    2.7600 C   0  0  0  0  0  0  0  0  0  0  0  0
   -7.0260   11.2570    2.0400 C   0  0  0  0  0  0  0  0  0  0  0  0
   -6.6960   11.4920    0.7270 C   0  0  0  0  0  0  0  0  0  0  0  0
  1  2  1  0
  2  3  2  0
  4  2  1  1
  4  5  1  0
  4  6  1  0
  5  7  2  0
  5  8  1  0
  6  9  1  6
  6 10  1  0
  7 11  1  0
  8 12  2  0
  9 13  2  0
 10 14  1  0
 10 15  1  0
 10 16  1  0
 14 17  1  1
 11 18  2  0
 12 18  1  0
 13 19  1  0
 14 19  1  0
 15 20  1  0
 16 20  1  0
 17 21  1  0
 21 22  1  0
 22 23  1  0
 22 24  2  0
 24 25  1  0
 23 26  1  0
 25 26  2  0
M  END
