mac-x0564-mac-x0344
     RDKit          3D

 25 28  0  0  0  0  0  0  0  0999 V2000
    0.9600   13.9750   -2.5430 N   0  0  0  0  0  0  0  0  0  0  0  0
    1.3220   12.8180   -3.0290 C   0  0  0  0  0  0  0  0  0  0  0  0
    2.5860   12.4290   -2.8920 O   0  0  0  0  0  0  0  0  0  0  0  0
   -0.2930   14.2380   -2.9490 C   0  0  0  0  0  0  0  0  0  0  0  0
    0.5020   11.7220   -3.7890 C   0  0  0  0  0  0  0  0  0  0  0  0
   -1.4970   14.5080   -2.2980 C   0  0  0  0  0  0  0  0  0  0  0  0
   -0.2440   14.1990   -4.2760 N   0  0  0  0  0  0  0  0  0  0  0  0
    0.0660   10.8580   -3.0340 O   0  0  0  0  0  0  0  0  0  0  0  0
    0.3180   11.7610   -5.1670 N   0  0  0  0  0  0  0  0  0  0  0  0
   -2.5880   14.7140   -3.1340 C   0  0  0  0  0  0  0  0  0  0  0  0
   -1.3410   14.4120   -4.9550 C   0  0  0  0  0  0  0  0  0  0  0  0
   -1.8870   14.6210   -0.9840 O   0  0  0  0  0  0  0  0  0  0  0  0
   -2.5460   14.6780   -4.4810 N   0  0  0  0  0  0  0  0  0  0  0  0
   -3.2400   14.8920   -1.0210 C   0  0  0  0  0  0  0  0  0  0  0  0
   -3.6960   14.9520   -2.3290 C   0  0  0  0  0  0  0  0  0  0  0  0
   -0.4960   10.8350   -5.9000 C   0  0  0  0  0  0  0  0  0  0  0  0
   -5.0410   15.2090   -2.5950 C   0  0  0  0  0  0  0  0  0  0  0  0
   -4.0810   15.0830    0.0660 C   0  0  0  0  0  0  0  0  0  0  0  0
   -0.1760   10.2970   -7.1500 C   0  0  0  0  0  0  0  0  0  0  0  0
   -1.7100   10.4400   -5.3020 C   0  0  0  0  0  0  0  0  0  0  0  0
   -5.9020   15.4060   -1.5280 C   0  0  0  0  0  0  0  0  0  0  0  0
   -5.4250   15.3390   -0.2230 C   0  0  0  0  0  0  0  0  0  0  0  0
   -1.0410    9.3900   -7.7840 C   0  0  0  0  0  0  0  0  0  0  0  0
   -2.5730    9.5360   -5.9380 C   0  0  0  0  0  0  0  0  0  0  0  0
   -2.2370    9.0110   -7.1800 C   0  0  0  0  0  0  0  0  0  0  0  0
  1  2  2  3
  2  3  1  0
  1  4  1  0
  2  5  1  0
  4  6  1  0
  4  7  2  0
  5  8  2  0
  5  9  1  0
  6 10  2  0
  7 11  1  0
  6 12  1  0
 10 13  1  0
 11 13  2  0
 12 14  1  0
 10 15  1  0
 14 15  2  0
  9 16  1  0
 15 17  1  0
 14 18  1  0
 16 19  2  0
 16 20  1  0
 17 21  2  0
 18 22  2  0
 21 22  1  0
 19 23  1  0
 20 24  2  0
 23 25  2  0
 24 25  1  0
M  END
