mac-x0472-diamond-x0727_0_A
     RDKit          3D

 30 32  0  0  0  0  0  0  0  0999 V2000
   -4.5140   15.3330   -2.4590 O   0  0  0  0  0  0  0  0  0  0  0  0
   -3.4970   14.3450   -2.7260 S   0  0  1  0  0  0  0  0  0  0  0  0
   -2.7340   14.2250   -4.0480 N   0  0  0  0  0  0  0  0  0  0  0  0
   -2.3570   14.6970   -1.5580 N   0  0  0  0  0  0  0  0  0  0  0  0
   -4.1940   12.7620   -2.3320 C   0  0  0  0  0  0  0  0  0  0  0  0
   -1.6200   15.1150   -4.3610 C   0  0  0  0  0  0  0  0  0  0  0  0
   -2.7470   14.8730   -0.2870 C   0  0  0  0  0  0  0  0  0  0  0  0
   -3.5020   11.5960   -2.6840 C   0  0  0  0  0  0  0  0  0  0  0  0
   -5.4260   12.6850   -1.6750 C   0  0  0  0  0  0  0  0  0  0  0  0
   -0.3060   14.5190   -3.8410 C   0  0  0  0  0  0  0  0  0  0  0  0
   -2.0000   14.5130    0.7380 N   0  0  0  0  0  0  0  0  0  0  0  0
   -4.2560   15.5820    0.1800 S   0  0  0  0  0  0  0  0  0  0  0  0
   -4.0510   10.3520   -2.3800 C   0  0  0  0  0  0  0  0  0  0  0  0
   -5.9700   11.4340   -1.3730 C   0  0  0  0  0  0  0  0  0  0  0  0
    0.5520   13.8830   -4.9530 C   0  0  0  0  0  0  0  0  0  0  0  0
   -3.7800   15.3430    1.7890 C   0  0  0  0  0  0  0  0  0  0  0  0
   -2.6010   14.7850    1.9410 N   0  0  0  0  0  0  0  0  0  0  0  0
   -5.2820   10.2730   -1.7280 C   0  0  0  0  0  0  0  0  0  0  0  0
    0.8580   12.3920   -4.7300 C   0  0  2  0  0  0  0  0  0  0  0  0
    0.1050   11.5020   -5.6310 N   0  0  0  0  0  0  0  0  0  0  0  0
    0.7600   11.9170   -3.2710 C   0  0  0  0  0  0  0  0  0  0  0  0
    0.1760   10.9190   -2.8750 O   0  0  0  0  0  0  0  0  0  0  0  0
    0.6720   11.1140   -6.8090 C   0  0  0  0  0  0  0  0  0  0  0  0
    1.4020   12.7120   -2.3810 O   0  0  0  0  0  0  0  0  0  0  0  0
    1.6480   11.6660   -7.2430 O   0  0  0  0  0  0  0  0  0  0  0  0
    0.0460    9.9340   -7.5440 C   0  0  0  0  0  0  0  0  0  0  0  0
   -1.2440   10.3030   -8.2740 C   0  0  0  0  0  0  0  0  0  0  0  0
   -0.2990    8.7480   -6.6240 C   0  0  0  0  0  0  0  0  0  0  0  0
   -2.1570    9.0970   -8.0990 C   0  0  0  0  0  0  0  0  0  0  0  0
   -1.7990    8.5540   -6.7280 C   0  0  0  0  0  0  0  0  0  0  0  0
  1  2  2  0
  2  3  2  0
  2  4  1  1
  2  5  1  0
  3  6  1  0
  4  7  1  0
  5  8  2  0
  5  9  1  0
  6 10  1  0
  7 11  2  0
  7 12  1  0
  8 13  1  0
  9 14  2  0
 10 15  1  0
 12 16  1  0
 11 17  1  0
 16 17  2  0
 13 18  2  0
 14 18  1  0
 19 15  1  1
 19 20  1  0
 19 21  1  0
 21 22  2  0
 20 23  1  0
 21 24  1  0
 23 25  2  0
 23 26  1  0
 26 27  1  0
 26 28  1  0
 27 29  1  0
 28 30  1  0
 29 30  1  0
M  END
