mac-x0231-mac-x0371
     RDKit          3D

 17 18  0  0  0  0  0  0  0  0999 V2000
    0.2890   10.7650   -3.1110 N   0  0  0  0  0  0  0  0  0  0  0  0
    1.1280   11.9630   -3.0870 C   0  0  0  0  0  0  0  0  0  0  0  0
    1.3820   12.3960   -1.9750 O   0  0  0  0  0  0  0  0  0  0  0  0
    0.1410   10.3350   -1.9780 O   0  0  0  0  0  0  0  0  0  0  0  0
    1.6390   12.6440   -4.3060 C   0  0  0  0  0  0  0  0  0  0  0  0
    1.1360   14.0470   -4.3020 C   0  0  0  0  0  0  0  0  0  0  0  0
   -0.3610   14.3340   -4.4450 C   0  0  1  0  0  0  0  0  0  0  0  0
    2.0240   14.9830   -4.1600 N   0  0  0  0  0  0  0  0  0  0  0  0
   -1.1680   14.3400   -2.8400 Cl  0  0  0  0  0  0  0  0  0  0  0  0
   -0.5230   15.6990   -5.0460 C   0  0  2  0  0  0  0  0  0  0  0  0
    1.6240   16.2820   -4.1430 N   0  0  0  0  0  0  0  0  0  0  0  0
   -1.1560   13.3430   -5.2580 C   0  0  0  0  0  0  0  0  0  0  0  0
    0.3730   16.7300   -4.4490 C   0  0  0  0  0  0  0  0  0  0  0  0
   -1.9990   16.0490   -5.1230 C   0  0  0  0  0  0  0  0  0  0  0  0
   -2.3640   13.7230   -5.7180 C   0  0  0  0  0  0  0  0  0  0  0  0
    0.0340   17.9000   -4.2750 O   0  0  0  0  0  0  0  0  0  0  0  0
   -2.8660   15.0620   -5.4470 C   0  0  0  0  0  0  0  0  0  0  0  0
  1  2  1  0
  2  3  2  0
  1  4  2  0
  2  5  1  0
  5  6  1  0
  6  7  1  0
  6  8  2  0
  7  9  1  1
  7 10  1  0
  8 11  1  0
  7 12  1  0
 10 13  1  0
 11 13  1  0
 10 14  1  1
 12 15  2  0
 13 16  2  0
 14 17  2  0
 15 17  1  0
M  END
