mac-x0345-mac-x0337
     RDKit          3D

 20 21  0  0  0  0  0  0  0  0999 V2000
   -8.0310   14.5280    0.8210 C   0  0  0  0  0  0  0  0  0  0  0  0
   -6.9410   14.8040   -0.1660 C   0  0  0  0  0  0  0  0  0  0  0  0
   -7.2770   14.7370   -1.4870 N   0  0  0  0  0  0  0  0  0  0  0  0
   -5.6510   15.1110    0.2040 C   0  0  0  0  0  0  0  0  0  0  0  0
   -4.9130   15.2480    1.9200 Br  0  0  0  0  0  0  0  0  0  0  0  0
   -4.7690   15.3440   -0.7590 C   0  0  0  0  0  0  0  0  0  0  0  0
   -6.3180   14.9760   -2.4100 C   0  0  0  0  0  0  0  0  0  0  0  0
   -6.6490   14.8860   -3.7400 N   0  0  0  0  0  0  0  0  0  0  0  0
   -3.5210   15.6290   -0.3740 N   0  0  0  0  0  0  0  0  0  0  0  0
   -5.0470   15.2910   -2.0750 C   0  0  0  0  0  0  0  0  0  0  0  0
   -2.5620   14.4430   -1.0020 S   0  0  0  0  0  0  0  0  0  0  0  0
   -2.1560   14.9070   -2.3080 O   0  0  0  0  0  0  0  0  0  0  0  0
   -1.6310   14.1550    0.0550 O   0  0  0  0  0  0  0  0  0  0  0  0
   -3.6400   13.0190   -1.2370 C   0  0  0  0  0  0  0  0  0  0  0  0
   -3.2760   12.1140   -2.2320 C   0  0  0  0  0  0  0  0  0  0  0  0
   -4.8030   12.7860   -0.4770 C   0  0  0  0  0  0  0  0  0  0  0  0
   -4.0570   10.9850   -2.4740 C   0  0  0  0  0  0  0  0  0  0  0  0
   -5.5840   11.6500   -0.7290 C   0  0  0  0  0  0  0  0  0  0  0  0
   -5.2150   10.7420   -1.7290 C   0  0  0  0  0  0  0  0  0  0  0  0
   -6.0410    9.5170   -2.0060 C   0  0  0  0  0  0  0  0  0  0  0  0
  1  2  1  0
  2  3  2  0
  2  4  1  0
  4  5  1  0
  4  6  2  0
  3  7  1  0
  7  8  1  0
  6  9  1  0
  6 10  1  0
  7 10  2  0
 11  9  1  0
 11 12  2  0
 11 13  2  0
 11 14  1  0
 14 15  2  0
 14 16  1  0
 15 17  1  0
 16 18  2  0
 17 19  2  0
 18 19  1  0
 19 20  1  0
M  END
