mac-x0277-diamond-x0591_0_A
     RDKit          3D

 25 26  0  0  0  0  0  0  0  0999 V2000
   -1.2390   18.4890   -5.1500 Cl  0  0  0  0  0  0  0  0  0  0  0  0
   -0.3590   16.9960   -4.9010 C   0  0  0  0  0  0  0  0  0  0  0  0
   -0.9890   15.8380   -5.1400 C   0  0  0  0  0  0  0  0  0  0  0  0
    0.9450   16.9350   -4.4690 C   0  0  0  0  0  0  0  0  0  0  0  0
   -2.3450   15.7510   -5.5530 N   0  0  0  0  0  0  0  0  0  0  0  0
   -0.3390   14.6410   -4.9740 C   0  0  0  0  0  0  0  0  0  0  0  0
    1.6110   15.7160   -4.2810 C   0  0  0  0  0  0  0  0  0  0  0  0
   -2.6740   14.4640   -4.6380 S   0  0  0  0  0  0  0  0  0  0  0  0
    0.9410   14.5570   -4.5480 C   0  0  0  0  0  0  0  0  0  0  0  0
    1.6420   13.2270   -4.3570 C   0  0  0  0  0  0  0  0  0  0  0  0
   -1.2380   13.9920   -3.8490 N   0  0  0  0  0  0  0  0  0  0  0  0
   -3.0670   12.8910   -5.6470 O   0  0  0  0  0  0  0  0  0  0  0  0
   -3.8310   14.5700   -3.4370 C   0  0  0  0  0  0  0  0  0  0  0  0
    1.1130   12.5200   -3.1620 C   0  0  0  0  0  0  0  0  0  0  0  0
   -3.4030   14.4270   -2.1300 C   0  0  0  0  0  0  0  0  0  0  0  0
   -5.0870   14.7810   -3.6920 C   0  0  0  0  0  0  0  0  0  0  0  0
    0.4320   11.3090   -3.3410 O   0  0  0  0  0  0  0  0  0  0  0  0
    1.2530   12.9420   -1.9900 O   0  0  0  0  0  0  0  0  0  0  0  0
   -4.2620   14.4950   -1.0820 C   0  0  0  0  0  0  0  0  0  0  0  0
   -6.0000   14.8630   -2.6520 C   0  0  0  0  0  0  0  0  0  0  0  0
   -5.5900   14.7180   -1.3520 C   0  0  0  0  0  0  0  0  0  0  0  0
   -6.4860   14.7840   -0.2370 C   0  0  0  0  0  0  0  0  0  0  0  0
   -6.0260   14.5940    1.0920 N   0  0  0  0  0  0  0  0  0  0  0  0
   -7.7000   15.0040   -0.4070 O   0  0  0  0  0  0  0  0  0  0  0  0
   -6.9450   14.5420    2.2020 C   0  0  0  0  0  0  0  0  0  0  0  0
  1  2  1  0
  2  3  2  0
  2  4  1  0
  3  5  1  0
  3  6  1  0
  4  7  2  0
  5  8  1  0
  6  9  2  0
  7  9  1  0
  9 10  1  0
  8 11  1  0
  8 12  2  0
  8 13  1  0
 10 14  1  0
 13 15  2  0
 13 16  1  0
 14 17  1  0
 14 18  2  0
 15 19  1  0
 16 20  2  0
 19 21  2  0
 20 21  1  0
 21 22  1  0
 22 23  1  0
 22 24  2  0
 23 25  1  0
M  END
