mac-x0328-mac-x0159
     RDKit          3D

 26 29  0  0  0  0  0  0  0  0999 V2000
   -1.0980   14.8680   -2.9650 N   0  0  0  0  0  0  0  0  0  0  0  0
   -2.0700   13.9050   -3.2900 C   0  0  0  0  0  0  0  0  0  0  0  0
   -1.9380   12.9470   -4.0230 O   0  0  0  0  0  0  0  0  0  0  0  0
   -1.5160   15.4040   -1.7500 N   0  0  0  0  0  0  0  0  0  0  0  0
   -0.6120   15.8540   -3.8800 C   0  0  0  0  0  0  0  0  0  0  0  0
   -3.4180   14.0870   -2.6210 C   0  0  0  0  0  0  0  0  0  0  0  0
   -2.8830   15.7920   -1.9750 C   0  0  0  0  0  0  0  0  0  0  0  0
   -1.3870   14.5670   -0.6060 C   0  0  2  0  0  0  0  0  0  0  0  0
    0.7080   16.2120   -4.1270 C   0  0  0  0  0  0  0  0  0  0  0  0
   -1.5150   16.6000   -4.6470 N   0  0  0  0  0  0  0  0  0  0  0  0
   -3.6660   13.5300   -1.3440 C   0  0  0  0  0  0  0  0  0  0  0  0
   -4.4350   14.8220   -3.2590 C   0  0  0  0  0  0  0  0  0  0  0  0
   -3.8140   15.7880   -0.8450 N   0  0  0  0  0  0  0  0  0  0  0  0
   -1.7910   15.4290    0.5700 C   0  0  1  0  0  0  0  0  0  0  0  0
   -0.0150   14.2400   -0.2230 N   0  0  0  0  0  0  0  0  0  0  0  0
   -0.8960   17.4710   -5.4140 C   0  0  0  0  0  0  0  0  0  0  0  0
    0.8060   17.4700   -5.2950 S   0  0  0  0  0  0  0  0  0  0  0  0
   -1.5790   18.4200   -6.3410 C   0  0  0  0  0  0  0  0  0  0  0  0
   -4.9120   13.7200   -0.7170 C   0  0  0  0  0  0  0  0  0  0  0  0
   -5.6730   15.0020   -2.6190 C   0  0  0  0  0  0  0  0  0  0  0  0
   -3.2590   15.8720    0.4720 C   0  0  2  0  0  0  0  0  0  0  0  0
   -1.4090   14.5550    1.6510 N   0  0  0  0  0  0  0  0  0  0  0  0
   -0.0580   14.2700    1.2370 C   0  0  0  0  0  0  0  0  0  0  0  0
   -4.1550   15.0600    1.2530 N   0  0  0  0  0  0  0  0  0  0  0  0
   -5.9030   14.4590   -1.3630 C   0  0  0  0  0  0  0  0  0  0  0  0
   -7.1290   14.6810   -0.8000 O   0  0  0  0  0  0  0  0  0  0  0  0
  1  2  1  0
  2  3  2  0
  1  4  1  0
  1  5  1  0
  2  6  1  0
  4  7  1  0
  4  8  1  0
  5  9  2  0
  5 10  1  0
  6 11  2  0
  6 12  1  0
  7 13  1  0
  8 14  1  0
  8 15  1  1
 10 16  2  0
  9 17  1  0
 16 17  1  0
 16 18  1  0
 11 19  1  0
 12 20  2  0
 13 21  1  0
 14 21  1  0
 14 22  1  1
 15 23  1  0
 22 23  1  0
 21 24  1  1
 19 25  2  0
 20 25  1  0
 25 26  1  0
M  END
