mac-x0284-mac-x0417
     RDKit          3D

 25 27  0  0  0  0  0  0  0  0999 V2000
   -4.0740   15.3650    0.7970 C   0  0  0  0  0  0  0  0  0  0  0  0
   -3.5740   15.1810   -0.6080 C   0  0  0  0  0  0  0  0  0  0  0  0
   -4.4500   15.3090   -1.6910 C   0  0  0  0  0  0  0  0  0  0  0  0
   -2.2240   14.8820   -0.8530 C   0  0  0  0  0  0  0  0  0  0  0  0
   -1.7490   14.7220   -2.1650 C   0  0  0  0  0  0  0  0  0  0  0  0
   -3.9880   15.1440   -2.9950 C   0  0  0  0  0  0  0  0  0  0  0  0
   -0.3060   14.4260   -2.3850 C   0  0  0  0  0  0  0  0  0  0  0  0
   -2.6490   14.8560   -3.2290 C   0  0  0  0  0  0  0  0  0  0  0  0
   -2.2240   14.7110   -4.5290 O   0  0  0  0  0  0  0  0  0  0  0  0
    0.4860   13.9590   -1.4990 N   0  0  0  0  0  0  0  0  0  0  0  0
    0.1360   14.6940   -3.6240 O   0  0  0  0  0  0  0  0  0  0  0  0
    1.8420   13.7560   -2.0120 C   0  0  0  0  0  0  0  0  0  0  0  0
    2.0230   12.5620   -2.7940 O   0  0  0  0  0  0  0  0  0  0  0  0
    0.9200   11.9150   -3.2860 C   0  0  0  0  0  0  0  0  0  0  0  0
    0.4300   10.9170   -2.7680 O   0  0  0  0  0  0  0  0  0  0  0  0
    0.4350   12.5940   -4.5560 C   0  0  0  0  0  0  0  0  0  0  0  0
    0.3170   11.6700   -5.7220 C   0  0  0  0  0  0  0  0  0  0  0  0
    1.2680   11.6760   -6.6600 N   0  0  0  0  0  0  0  0  0  0  0  0
   -0.7040   10.7250   -6.0160 C   0  0  0  0  0  0  0  0  0  0  0  0
    0.8780   10.7180   -7.5950 O   0  0  0  0  0  0  0  0  0  0  0  0
   -0.2970   10.1540   -7.2080 C   0  0  0  0  0  0  0  0  0  0  0  0
   -1.9070   10.2890   -5.4310 C   0  0  0  0  0  0  0  0  0  0  0  0
   -1.0030    9.1570   -7.8820 C   0  0  0  0  0  0  0  0  0  0  0  0
   -2.6430    9.2880   -6.0820 C   0  0  0  0  0  0  0  0  0  0  0  0
   -2.1990    8.7330   -7.2850 C   0  0  0  0  0  0  0  0  0  0  0  0
  1  2  1  0
  2  3  2  0
  2  4  1  0
  4  5  2  0
  3  6  1  0
  5  7  1  0
  5  8  1  0
  6  8  2  0
  8  9  1  0
  7 10  2  3
  7 11  1  0
 10 12  1  0
 12 13  1  0
 13 14  1  0
 14 15  2  0
 14 16  1  0
 16 17  1  0
 17 18  2  0
 17 19  1  0
 18 20  1  0
 19 21  2  0
 20 21  1  0
 19 22  1  0
 21 23  1  0
 22 24  2  0
 23 25  2  0
 24 25  1  0
M  END
