mac-x0411-mac-x0283
     RDKit          3D

 25 27  0  0  0  0  0  0  0  0999 V2000
    0.5460    8.9590   -7.6650 Cl  0  0  0  0  0  0  0  0  0  0  0  0
   -0.6970    9.6930   -6.7080 C   0  0  0  0  0  0  0  0  0  0  0  0
   -0.5390   10.9440   -6.0550 C   0  0  0  0  0  0  0  0  0  0  0  0
   -1.8910    8.9930   -6.6050 C   0  0  0  0  0  0  0  0  0  0  0  0
    0.6750   11.5960   -6.1830 O   0  0  0  0  0  0  0  0  0  0  0  0
   -1.6180   11.5020   -5.2900 C   0  0  0  0  0  0  0  0  0  0  0  0
   -2.9430    9.5150   -5.8650 C   0  0  0  0  0  0  0  0  0  0  0  0
   -1.5430   12.8600   -4.5580 C   0  0  0  0  0  0  0  0  0  0  0  0
    1.0390   12.5260   -5.1510 C   0  0  0  0  0  0  0  0  0  0  0  0
   -2.8110   10.7510   -5.2190 C   0  0  0  0  0  0  0  0  0  0  0  0
    0.8850   11.9580   -3.7450 C   0  0  0  0  0  0  0  0  0  0  0  0
   -2.8120   13.3790   -3.8220 C   0  0  0  0  0  0  0  0  0  0  0  0
    1.3590   12.7580   -2.7690 O   0  0  0  0  0  0  0  0  0  0  0  0
    0.3950   10.8770   -3.4540 O   0  0  0  0  0  0  0  0  0  0  0  0
   -2.6170   14.6950   -2.9990 C   0  0  0  0  0  0  0  0  0  0  0  0
   -3.5740   14.7500   -1.8120 C   0  0  0  0  0  0  0  0  0  0  0  0
   -4.9520   14.7400   -2.0630 C   0  0  0  0  0  0  0  0  0  0  0  0
   -3.1070   14.8000   -0.4730 C   0  0  0  0  0  0  0  0  0  0  0  0
   -5.8020   14.7580   -0.9630 C   0  0  0  0  0  0  0  0  0  0  0  0
   -4.0000   14.8230    0.6190 C   0  0  0  0  0  0  0  0  0  0  0  0
   -7.1560   14.7400   -1.0120 O   0  0  0  0  0  0  0  0  0  0  0  0
   -5.3860   14.7920    0.3580 C   0  0  0  0  0  0  0  0  0  0  0  0
   -6.6150   14.7810    1.0830 C   0  0  0  0  0  0  0  0  0  0  0  0
   -7.6710   14.7500    0.2690 N   0  0  0  0  0  0  0  0  0  0  0  0
   -6.7240   14.8000    2.4270 N   0  0  0  0  0  0  0  0  0  0  0  0
  1  2  1  0
  2  3  2  0
  2  4  1  0
  3  5  1  0
  3  6  1  0
  4  7  2  0
  6  8  1  0
  5  9  1  0
  6 10  2  0
  7 10  1  0
  9 11  1  0
  8 12  1  0
 11 13  1  0
 11 14  2  0
 12 15  1  0
 15 16  1  0
 16 17  2  0
 16 18  1  0
 17 19  1  0
 18 20  2  0
 19 21  1  0
 19 22  2  0
 20 22  1  0
 22 23  1  0
 21 24  1  0
 23 24  2  0
 23 25  1  0
M  END
