mac-x0433-mac-x0178
     RDKit          3D

 25 26  0  0  0  0  0  0  0  0999 V2000
   -3.1550   15.4400    0.8180 C   0  0  0  0  0  0  0  0  0  0  0  0
   -4.4590   15.1940    0.1360 C   0  0  0  0  0  0  0  0  0  0  0  0
   -5.5830   14.9370    0.8780 C   0  0  0  0  0  0  0  0  0  0  0  0
   -4.4850   15.2300   -1.2010 N   0  0  0  0  0  0  0  0  0  0  0  0
   -5.6550   15.0030   -1.8080 C   0  0  0  0  0  0  0  0  0  0  0  0
   -6.7500   14.7220    0.1730 C   0  0  0  0  0  0  0  0  0  0  0  0
   -8.0250   14.4420    0.9070 C   0  0  0  0  0  0  0  0  0  0  0  0
   -5.6940   15.0070   -3.1880 N   0  0  0  0  0  0  0  0  0  0  0  0
   -6.8020   14.7530   -1.1710 N   0  0  0  0  0  0  0  0  0  0  0  0
   -4.3310   14.9830   -3.7270 C   0  0  0  0  0  0  0  0  0  0  0  0
   -4.3630   14.7440   -5.2320 C   0  0  0  0  0  0  0  0  0  0  0  0
   -3.7910   15.9070   -6.0410 C   0  0  0  0  0  0  0  0  0  0  0  0
   -2.9870   16.8520   -5.2250 N   0  0  0  0  0  0  0  0  0  0  0  0
   -1.6320   17.2460   -5.6950 S   0  0  2  0  0  0  0  0  0  0  0  0
   -1.3600   18.7100   -4.9750 N   0  0  0  0  0  0  0  0  0  0  0  0
   -1.2600   17.5660   -7.0310 O   0  0  0  0  0  0  0  0  0  0  0  0
   -0.7820   15.9710   -4.8410 C   0  0  0  0  0  0  0  0  0  0  0  0
    0.4230   16.1670   -4.1760 C   0  0  0  0  0  0  0  0  0  0  0  0
   -1.4210   14.7300   -4.8460 C   0  0  0  0  0  0  0  0  0  0  0  0
    0.9810   15.0840   -3.4890 C   0  0  0  0  0  0  0  0  0  0  0  0
   -0.8670   13.6600   -4.1660 C   0  0  0  0  0  0  0  0  0  0  0  0
    0.3320   13.8330   -3.4790 C   0  0  0  0  0  0  0  0  0  0  0  0
    0.8760   12.6700   -2.7530 C   0  0  0  0  0  0  0  0  0  0  0  0
    1.8290   12.7050   -2.0140 O   0  0  0  0  0  0  0  0  0  0  0  0
    0.1970   11.5300   -2.9640 O   0  0  0  0  0  0  0  0  0  0  0  0
  1  2  1  0
  2  3  2  0
  2  4  1  0
  4  5  2  0
  3  6  1  0
  6  7  1  0
  5  8  1  0
  5  9  1  0
  6  9  2  0
  8 10  1  0
 10 11  1  0
 11 12  1  0
 12 13  1  0
 13 14  2  0
 14 15  1  1
 14 16  2  0
 14 17  1  0
 17 18  2  0
 17 19  1  0
 18 20  1  0
 19 21  2  0
 20 22  2  0
 21 22  1  0
 22 23  1  0
 23 24  2  0
 23 25  1  0
M  END
