mac-x0182-diamond-x0681_0_A
     RDKit          3D

 25 28  0  0  0  0  0  0  0  0999 V2000
    1.7270   11.8590   -6.9520 O   0  0  0  0  0  0  0  0  0  0  0  0
    0.7590   11.5890   -6.2860 C   0  0  0  0  0  0  0  0  0  0  0  0
    0.4390   12.1740   -5.0870 N   0  0  0  0  0  0  0  0  0  0  0  0
   -0.2160   10.5370   -6.6580 C   0  0  0  0  0  0  0  0  0  0  0  0
   -0.7410   11.2840   -4.2780 S   0  0  2  0  0  0  0  0  0  0  0  0
   -1.1100   10.2580   -5.6340 C   0  0  0  0  0  0  0  0  0  0  0  0
   -0.2920    9.8550   -7.8660 C   0  0  0  0  0  0  0  0  0  0  0  0
   -1.8350   12.3350   -4.0590 N   0  0  0  0  0  0  0  0  0  0  0  0
   -0.0370   10.5130   -3.2790 O   0  0  0  0  0  0  0  0  0  0  0  0
   -2.1070    9.3100   -5.7450 C   0  0  0  0  0  0  0  0  0  0  0  0
   -1.2950    8.8880   -8.0080 C   0  0  0  0  0  0  0  0  0  0  0  0
   -1.5040   13.6220   -3.4190 C   0  0  0  0  0  0  0  0  0  0  0  0
   -2.1950    8.6170   -6.9580 C   0  0  0  0  0  0  0  0  0  0  0  0
   -2.2310   13.7610   -2.1550 N   0  0  0  0  0  0  0  0  0  0  0  0
   -3.2270   14.5840   -2.0490 C   0  0  0  0  0  0  0  0  0  0  0  0
   -3.7180   15.4080   -3.0300 N   0  0  0  0  0  0  0  0  0  0  0  0
   -4.0070   14.7000   -0.7390 C   0  0  1  0  0  0  0  0  0  0  0  0
   -4.8830   13.5260   -0.5800 C   0  0  0  0  0  0  0  0  0  0  0  0
   -3.3230   14.9300    0.5970 C   0  0  0  0  0  0  0  0  0  0  0  0
   -5.7050   13.5200    0.4780 N   0  0  0  0  0  0  0  0  0  0  0  0
   -4.3840   15.3950    1.5830 C   0  0  0  0  0  0  0  0  0  0  0  0
   -5.0110   12.4420   -1.3120 N   0  0  0  0  0  0  0  0  0  0  0  0
   -5.7360   14.6240    1.4190 C   0  0  0  0  0  0  0  0  0  0  0  0
   -6.4270   12.3690    0.4620 C   0  0  0  0  0  0  0  0  0  0  0  0
   -5.9800   11.7120   -0.6660 C   0  0  0  0  0  0  0  0  0  0  0  0
  1  2  2  0
  2  3  1  0
  2  4  1  0
  5  3  1  6
  4  6  2  0
  5  6  1  0
  4  7  1  0
  5  8  2  0
  5  9  2  0
  6 10  1  0
  7 11  2  0
  8 12  1  0
 10 13  2  0
 11 13  1  0
 12 14  1  0
 14 15  2  3
 15 16  1  0
 17 15  1  6
 17 18  1  0
 17 19  1  0
 18 20  1  0
 19 21  1  0
 18 22  2  0
 20 23  1  0
 21 23  1  0
 20 24  1  0
 22 25  1  0
 24 25  2  0
M  END
