mac-x0453-mac-x0587
     RDKit          3D

 18 18  0  0  0  0  0  0  0  0999 V2000
   -6.8230   13.7700    2.1670 N   0  0  0  0  0  0  0  0  0  0  0  0
   -5.9330   13.6140    1.0020 C   0  0  0  0  0  0  0  0  0  0  0  0
   -5.3390   14.9620    0.5520 C   0  0  0  0  0  0  0  0  0  0  0  0
   -4.0860   14.8890   -0.2750 C   0  0  0  0  0  0  0  0  0  0  0  0
   -2.8480   14.7700    0.2060 C   0  0  0  0  0  0  0  0  0  0  0  0
   -4.1200   14.9480   -1.6690 N   0  0  0  0  0  0  0  0  0  0  0  0
   -1.9070   14.7610   -0.9150 N   0  0  2  0  0  0  0  0  0  0  0  0
   -2.8530   14.8720   -2.0370 C   0  0  0  0  0  0  0  0  0  0  0  0
   -2.3120   14.9090   -3.4460 C   0  0  0  0  0  0  0  0  0  0  0  0
   -1.1940   13.6210   -0.9070 O   0  0  0  0  0  0  0  0  0  0  0  0
   -0.7900   14.7710   -3.6300 C   0  0  2  0  0  0  0  0  0  0  0  0
   -3.1430   15.0450   -4.3350 O   0  0  0  0  0  0  0  0  0  0  0  0
   -0.1420   16.0730   -4.1080 C   0  0  0  0  0  0  0  0  0  0  0  0
   -0.3970   13.5030   -4.9060 S   0  0  0  0  0  0  0  0  0  0  0  0
   -0.7220   11.9570   -3.9950 C   0  0  0  0  0  0  0  0  0  0  0  0
    0.4320   11.5590   -3.1120 C   0  0  0  0  0  0  0  0  0  0  0  0
    0.5960   10.4290   -2.6920 O   0  0  0  0  0  0  0  0  0  0  0  0
    1.2760   12.5680   -2.8170 O   0  0  0  0  0  0  0  0  0  0  0  0
  1  2  1  0
  2  3  1  0
  3  4  1  0
  4  5  2  0
  4  6  1  0
  5  7  1  0
  6  8  2  0
  7  8  1  0
  8  9  1  0
  7 10  1  6
  9 11  1  0
  9 12  2  0
 11 13  1  6
 11 14  1  0
 14 15  1  0
 15 16  1  0
 16 17  2  0
 16 18  1  0
M  CHG  2   7   1  10  -1
M  END
