mac-x0123-mac-x0303
     RDKit          3D

 17 19  0  0  0  0  0  0  0  0999 V2000
   -3.5890   14.2700    1.5460 N   0  0  0  0  0  0  0  0  0  0  0  0
   -4.7420   15.0900    1.2190 C   0  0  2  0  0  0  0  0  0  0  0  0
   -6.1140   14.5820    1.6400 C   0  0  1  0  0  0  0  0  0  0  0  0
   -4.8560   15.2300   -0.2300 N   0  0  0  0  0  0  0  0  0  0  0  0
   -5.6530   14.2000   -0.8770 C   0  0  1  0  0  0  0  0  0  0  0  0
   -6.3910   13.2070    1.0590 C   0  0  2  0  0  0  0  0  0  0  0  0
   -6.7480   14.6070    2.9810 C   0  0  0  0  0  0  0  0  0  0  0  0
   -3.6360   15.1830   -1.0400 N   0  0  0  0  0  0  0  0  0  0  0  0
   -6.9070   13.6440   -0.2400 N   0  0  0  0  0  0  0  0  0  0  0  0
   -7.3680   12.5350    2.0240 C   0  0  0  0  0  0  0  0  0  0  0  0
   -7.4520   13.4840    3.1810 C   0  0  0  0  0  0  0  0  0  0  0  0
   -5.6480   14.6850   -2.2390 N   0  0  0  0  0  0  0  0  0  0  0  0
   -4.1970   14.9730   -2.3880 C   0  0  0  0  0  0  0  0  0  0  0  0
   -8.3450   14.5170    0.1230 S   0  0  0  0  0  0  0  0  0  0  0  0
   -9.2900   13.2060    0.5130 N   0  0  0  0  0  0  0  0  0  0  0  0
   -8.2480   15.2650    1.3560 O   0  0  0  0  0  0  0  0  0  0  0  0
   -8.9730   15.0520   -1.0430 O   0  0  0  0  0  0  0  0  0  0  0  0
  2  1  1  6
  2  3  1  0
  2  4  1  0
  4  5  1  0
  3  6  1  0
  3  7  1  1
  4  8  1  0
  5  9  1  0
  6  9  1  0
  6 10  1  1
  7 11  2  0
 10 11  1  0
  5 12  1  6
  8 13  1  0
 12 13  1  0
  9 14  1  0
 14 15  1  0
 14 16  2  0
 14 17  2  0
M  END
