mac-x0333-mac-x0358
     RDKit          3D

 22 24  0  0  0  0  0  0  0  0999 V2000
   -2.1500   14.9560   -2.4970 O   0  0  0  0  0  0  0  0  0  0  0  0
   -3.2540   14.9490   -1.7020 C   0  0  0  0  0  0  0  0  0  0  0  0
   -3.0560   15.1430   -0.3290 C   0  0  0  0  0  0  0  0  0  0  0  0
   -4.5210   14.7440   -2.2890 C   0  0  0  0  0  0  0  0  0  0  0  0
   -4.5960   14.5080   -3.8190 C   0  0  0  0  0  0  0  0  0  0  0  0
   -5.5850   14.7670   -1.3580 C   0  0  0  0  0  0  0  0  0  0  0  0
   -4.1210   15.1540    0.5420 C   0  0  0  0  0  0  0  0  0  0  0  0
   -5.3670   14.9650    0.0050 C   0  0  0  0  0  0  0  0  0  0  0  0
   -6.9170   14.6040   -1.6030 O   0  0  0  0  0  0  0  0  0  0  0  0
   -3.1850   14.1880   -4.2430 C   0  0  0  0  0  0  0  0  0  0  0  0
   -6.5070   14.9450    0.7420 O   0  0  0  0  0  0  0  0  0  0  0  0
   -7.4790   14.6830   -0.2760 C   0  0  0  0  0  0  0  0  0  0  0  0
   -2.8350   12.8470   -4.3500 C   0  0  0  0  0  0  0  0  0  0  0  0
   -2.2150   15.1870   -4.4840 C   0  0  0  0  0  0  0  0  0  0  0  0
   -1.5360   12.4980   -4.6360 C   0  0  0  0  0  0  0  0  0  0  0  0
   -0.8920   14.8200   -4.7730 C   0  0  0  0  0  0  0  0  0  0  0  0
   -1.1830   11.1790   -4.7150 O   0  0  0  0  0  0  0  0  0  0  0  0
   -0.5570   13.4580   -4.8210 C   0  0  0  0  0  0  0  0  0  0  0  0
    0.8260   12.9570   -5.0270 C   0  0  0  0  0  0  0  0  0  0  0  0
    1.1030   12.2220   -3.7200 C   0  0  0  0  0  0  0  0  0  0  0  0
    1.9060   12.8960   -2.8690 O   0  0  0  0  0  0  0  0  0  0  0  0
    0.6630   11.1430   -3.3550 O   0  0  0  0  0  0  0  0  0  0  0  0
  1  2  1  0
  2  3  2  0
  2  4  1  0
  4  5  1  0
  4  6  2  0
  3  7  1  0
  6  8  1  0
  7  8  2  0
  6  9  1  0
  5 10  1  0
  8 11  1  0
  9 12  1  0
 11 12  1  0
 10 13  2  0
 10 14  1  0
 13 15  1  0
 14 16  2  0
 15 17  1  0
 15 18  2  0
 16 18  1  0
 18 19  1  0
 19 20  1  0
 20 21  1  0
 20 22  2  0
M  END
