mac-x0358-mac-x0306
     RDKit          3D

 23 25  0  0  0  0  0  0  0  0999 V2000
    1.9030   12.7260   -2.4920 O   0  0  0  0  0  0  0  0  0  0  0  0
    1.1980   12.0050   -3.3900 C   0  0  0  0  0  0  0  0  0  0  0  0
    0.6040   10.9870   -3.0530 O   0  0  0  0  0  0  0  0  0  0  0  0
    1.1550   12.5600   -4.8050 C   0  0  0  0  0  0  0  0  0  0  0  0
   -0.0960   13.3150   -4.7830 C   0  0  0  0  0  0  0  0  0  0  0  0
   -1.3060   12.6400   -4.8610 C   0  0  0  0  0  0  0  0  0  0  0  0
   -0.0540   14.6960   -4.6440 C   0  0  0  0  0  0  0  0  0  0  0  0
   -1.3290   11.2750   -5.0160 O   0  0  0  0  0  0  0  0  0  0  0  0
   -2.4750   13.3370   -4.7590 C   0  0  0  0  0  0  0  0  0  0  0  0
   -1.2250   15.3950   -4.5400 C   0  0  0  0  0  0  0  0  0  0  0  0
   -2.4240   14.7190   -4.5750 C   0  0  0  0  0  0  0  0  0  0  0  0
   -3.6080   15.5440   -4.3750 C   0  0  0  0  0  0  0  0  0  0  0  0
   -4.1700   15.2610   -3.0150 N   0  0  0  0  0  0  0  0  0  0  0  0
   -5.4910   14.9260   -3.0160 C   0  0  0  0  0  0  0  0  0  0  0  0
   -3.4730   15.0560   -1.7890 C   0  0  0  0  0  0  0  0  0  0  0  0
   -6.2250   14.9760   -1.9340 C   0  0  0  0  0  0  0  0  0  0  0  0
   -4.1350   15.1010   -0.5940 C   0  0  0  0  0  0  0  0  0  0  0  0
   -5.6330   15.4000   -0.6270 C   0  0  0  0  0  0  0  0  0  0  0  0
   -6.6120   14.8870    0.4220 C   0  0  0  0  0  0  0  0  0  0  0  0
   -6.3490   14.5640    1.7390 N   0  0  0  0  0  0  0  0  0  0  0  0
   -7.9050   14.6970    0.1680 N   0  0  0  0  0  0  0  0  0  0  0  0
   -8.4690   14.2620    1.3260 C   0  0  0  0  0  0  0  0  0  0  0  0
   -7.5270   14.1700    2.3120 C   0  0  0  0  0  0  0  0  0  0  0  0
  1  2  1  0
  2  3  2  0
  2  4  1  0
  4  5  1  0
  5  6  2  0
  5  7  1  0
  6  8  1  0
  6  9  1  0
  7 10  2  0
  9 11  2  0
 10 11  1  0
 11 12  1  0
 12 13  1  0
 13 14  1  0
 13 15  1  0
 14 16  2  0
 15 17  2  0
 16 18  1  0
 17 18  1  0
 18 19  1  0
 19 20  1  0
 19 21  2  0
 21 22  1  0
 20 23  1  0
 22 23  2  0
M  END
