mac-x0223-mac-x0132
     RDKit          3D

 26 28  0  0  0  0  0  0  0  0999 V2000
    1.1660   18.4080   -5.5760 C   0  0  0  0  0  0  0  0  0  0  0  0
    0.0440   17.9940   -4.8260 O   0  0  0  0  0  0  0  0  0  0  0  0
   -0.1340   16.6430   -4.7710 C   0  0  0  0  0  0  0  0  0  0  0  0
   -1.3990   16.1530   -5.0550 C   0  0  0  0  0  0  0  0  0  0  0  0
    0.8420   15.7000   -4.4530 C   0  0  0  0  0  0  0  0  0  0  0  0
   -2.4530   16.8650   -5.3670 O   0  0  0  0  0  0  0  0  0  0  0  0
   -1.7190   14.8210   -5.0430 C   0  0  0  0  0  0  0  0  0  0  0  0
    0.5140   14.3270   -4.4320 C   0  0  0  0  0  0  0  0  0  0  0  0
    1.4960   13.2580   -4.0860 C   0  0  0  0  0  0  0  0  0  0  0  0
   -3.5240   16.0090   -4.9280 C   0  0  0  0  0  0  0  0  0  0  0  0
   -0.7660   13.9050   -4.7320 C   0  0  0  0  0  0  0  0  0  0  0  0
    0.9150   12.3790   -3.0060 C   0  0  0  0  0  0  0  0  0  0  0  0
   -3.2740   14.6530   -4.2970 C   0  0  0  0  0  0  0  0  0  0  0  0
    0.2780   11.3460   -3.1100 O   0  0  0  0  0  0  0  0  0  0  0  0
    1.1510   12.8840   -1.7800 O   0  0  0  0  0  0  0  0  0  0  0  0
   -3.8550   14.7550   -2.8940 C   0  0  0  0  0  0  0  0  0  0  0  0
   -5.2240   14.5190   -2.5860 C   0  0  0  0  0  0  0  0  0  0  0  0
   -2.9990   15.1020   -1.8690 C   0  0  0  0  0  0  0  0  0  0  0  0
   -5.7150   14.6240   -1.2700 C   0  0  0  0  0  0  0  0  0  0  0  0
   -3.4670   15.2190   -0.5750 C   0  0  0  0  0  0  0  0  0  0  0  0
   -4.8120   14.9820   -0.2760 C   0  0  0  0  0  0  0  0  0  0  0  0
   -7.0090   14.3830   -0.9970 N   0  0  0  0  0  0  0  0  0  0  0  0
   -5.3170   15.0850    1.0020 C   0  0  0  0  0  0  0  0  0  0  0  0
   -7.3850   14.4970    0.2910 C   0  0  0  0  0  0  0  0  0  0  0  0
   -4.4480   15.4780    2.0220 N   0  0  0  0  0  0  0  0  0  0  0  0
   -6.5980   14.8380    1.3160 N   0  0  0  0  0  0  0  0  0  0  0  0
  1  2  1  0
  2  3  1  0
  3  4  2  0
  3  5  1  0
  4  6  1  0
  4  7  1  0
  5  8  2  0
  8  9  1  0
  6 10  1  0
  7 11  2  0
  8 11  1  0
  9 12  1  0
 10 13  1  0
 12 14  2  0
 12 15  1  0
 13 16  1  0
 16 17  2  0
 16 18  1  0
 17 19  1  0
 18 20  2  0
 19 21  2  0
 20 21  1  0
 19 22  1  0
 21 23  1  0
 22 24  2  0
 23 25  1  0
 23 26  2  0
 24 26  1  0
M  END
