mac-x0373-mac-x0137
     RDKit          3D

 20 22  0  0  0  0  0  0  0  0999 V2000
    1.1060   14.2530   -2.4330 O   0  0  0  0  0  0  0  0  0  0  0  0
    0.0220   15.0500   -2.6000 C   0  0  0  0  0  0  0  0  0  0  0  0
    0.1900   16.1680   -3.0280 O   0  0  0  0  0  0  0  0  0  0  0  0
   -1.2690   14.3570   -2.2110 C   0  0  0  0  0  0  0  0  0  0  0  0
   -1.2630   12.8500   -2.4790 C   0  0  2  0  0  0  0  0  0  0  0  0
   -2.5580   14.8770   -1.5800 C   0  0  0  0  0  0  0  0  0  0  0  0
   -0.5010   12.6260   -3.8220 C   0  0  0  0  0  0  0  0  0  0  0  0
   -2.6830   12.1600   -2.5230 C   0  0  0  0  0  0  0  0  0  0  0  0
   -3.6380   15.1690   -2.4280 C   0  0  0  0  0  0  0  0  0  0  0  0
   -2.7230   15.0500   -0.1770 C   0  0  0  0  0  0  0  0  0  0  0  0
   -0.3850   12.4880   -1.3170 N   0  0  0  0  0  0  0  0  0  0  0  0
   -0.9200   11.8130   -4.8150 C   0  0  0  0  0  0  0  0  0  0  0  0
   -2.9600   11.2020   -3.6620 C   0  0  0  0  0  0  0  0  0  0  0  0
   -4.8390   15.6090   -1.9130 C   0  0  0  0  0  0  0  0  0  0  0  0
   -3.9510   15.5020    0.3040 C   0  0  0  0  0  0  0  0  0  0  0  0
   -0.0600   13.6150   -0.3950 C   0  0  0  0  0  0  0  0  0  0  0  0
   -1.7190   14.8060    0.9220 C   0  0  0  0  0  0  0  0  0  0  0  0
   -2.1420   11.0540   -4.7110 C   0  0  0  0  0  0  0  0  0  0  0  0
   -4.9920   15.7720   -0.5590 C   0  0  0  0  0  0  0  0  0  0  0  0
   -0.8560   13.6550    0.8050 N   0  0  0  0  0  0  0  0  0  0  0  0
  1  2  1  0
  2  3  2  0
  2  4  1  0
  4  5  1  0
  4  6  1  0
  5  7  1  6
  5  8  1  0
  6  9  2  0
  6 10  1  0
  5 11  1  0
  7 12  2  0
  8 13  1  0
  9 14  1  0
 10 15  2  0
 11 16  1  0
 10 17  1  0
 12 18  1  0
 13 18  2  0
 14 19  2  0
 15 19  1  0
 16 20  1  0
 17 20  1  0
M  END
