mac-x0555-diamond-x0864_0_A
     RDKit          3D

 26 28  0  0  0  0  0  0  0  0999 V2000
   -7.5930   14.2950    2.8880 N   0  0  0  0  0  0  0  0  0  0  0  0
   -7.0500   14.5190    1.6180 C   0  0  0  0  0  0  0  0  0  0  0  0
   -7.8090   14.7550    0.4750 C   0  0  0  0  0  0  0  0  0  0  0  0
   -5.6770   14.5120    1.4510 C   0  0  0  0  0  0  0  0  0  0  0  0
   -5.1050   14.7300    0.2010 C   0  0  0  0  0  0  0  0  0  0  0  0
   -7.2980   14.9800   -0.7660 N   0  0  0  0  0  0  0  0  0  0  0  0
   -5.9550   14.9660   -0.8960 C   0  0  0  0  0  0  0  0  0  0  0  0
   -3.7220   14.7060    0.0490 C   0  0  0  0  0  0  0  0  0  0  0  0
   -5.3650   15.1840   -2.1370 C   0  0  0  0  0  0  0  0  0  0  0  0
   -3.1400   14.9090   -1.1950 C   0  0  0  0  0  0  0  0  0  0  0  0
   -1.6430   14.8360   -1.3020 C   0  0  0  0  0  0  0  0  0  0  0  0
   -3.9710   15.1580   -2.3000 C   0  0  0  0  0  0  0  0  0  0  0  0
   -1.0920   13.4590   -1.0820 C   0  0  0  0  0  0  0  0  0  0  0  0
    0.3990   13.4350   -1.3440 C   0  0  0  0  0  0  0  0  0  0  0  0
    0.6020   12.0600   -1.6710 N   0  0  0  0  0  0  0  0  0  0  0  0
    0.5990   11.7290   -2.9020 C   0  0  0  0  0  0  0  0  0  0  0  0
    0.4500   12.5260   -4.1980 C   0  0  0  0  0  0  0  0  0  0  0  0
    0.7340   10.4140   -3.0710 O   0  0  0  0  0  0  0  0  0  0  0  0
   -0.2540   11.7790   -5.2420 N   0  0  0  0  0  0  0  0  0  0  0  0
   -1.4620   11.1900   -4.9230 C   0  0  0  0  0  0  0  0  0  0  0  0
    0.4630   11.4110   -6.3810 C   0  0  0  0  0  0  0  0  0  0  0  0
    1.4840   11.9700   -6.7660 O   0  0  0  0  0  0  0  0  0  0  0  0
   -1.9460   10.1700   -5.6400 C   0  0  0  0  0  0  0  0  0  0  0  0
   -0.0570   10.2460   -7.1420 C   0  0  0  0  0  0  0  0  0  0  0  0
   -1.2060    9.6650   -6.7720 C   0  0  0  0  0  0  0  0  0  0  0  0
   -1.9030    8.1950   -7.6800 Br  0  0  0  0  0  0  0  0  0  0  0  0
  1  2  1  0
  2  3  2  0
  2  4  1  0
  4  5  2  0
  3  6  1  0
  5  7  1  0
  6  7  2  0
  5  8  1  0
  7  9  1  0
  8 10  2  0
 10 11  1  0
  9 12  2  0
 10 12  1  0
 11 13  1  0
 13 14  1  0
 14 15  1  0
 15 16  2  3
 16 17  1  0
 16 18  1  0
 17 19  1  0
 19 20  1  0
 19 21  1  0
 21 22  2  0
 20 23  2  0
 21 24  1  0
 23 25  1  0
 24 25  2  0
 25 26  1  0
M  END
