mac-x0433-diamond-x0849_0_A
     RDKit          3D

 21 23  0  0  0  0  0  0  0  0999 V2000
   -4.0820   13.1190    0.8420 C   0  0  0  0  0  0  0  0  0  0  0  0
   -5.1980   13.8070    0.1510 C   0  0  0  0  0  0  0  0  0  0  0  0
   -6.3710   14.0580    0.8160 C   0  0  0  0  0  0  0  0  0  0  0  0
   -5.0040   14.1580   -1.1200 N   0  0  0  0  0  0  0  0  0  0  0  0
   -5.9910   14.7770   -1.7480 C   0  0  0  0  0  0  0  0  0  0  0  0
   -7.3470   14.6960    0.0910 C   0  0  0  0  0  0  0  0  0  0  0  0
   -8.6630   15.0090    0.7330 C   0  0  0  0  0  0  0  0  0  0  0  0
   -5.6320   15.0880   -3.0310 N   0  0  0  0  0  0  0  0  0  0  0  0
   -7.1740   15.0640   -1.1960 N   0  0  0  0  0  0  0  0  0  0  0  0
   -4.2360   14.7940   -3.2830 C   0  0  0  0  0  0  0  0  0  0  0  0
   -3.2950   15.4680   -2.4160 O   0  0  0  0  0  0  0  0  0  0  0  0
   -3.3620   15.4160   -1.0250 C   0  0  0  0  0  0  0  0  0  0  0  0
   -2.2280   14.9000   -0.3210 C   0  0  0  0  0  0  0  0  0  0  0  0
   -4.4450   15.8420   -0.2710 C   0  0  0  0  0  0  0  0  0  0  0  0
   -2.2800   14.8530    1.0830 C   0  0  0  0  0  0  0  0  0  0  0  0
   -4.3580   15.7330    1.1010 C   0  0  0  0  0  0  0  0  0  0  0  0
   -1.0460   14.4370   -0.9300 C   0  0  0  0  0  0  0  0  0  0  0  0
   -3.3190   15.2600    1.7570 N   0  0  0  0  0  0  0  0  0  0  0  0
   -1.3000   14.4000    1.8240 N   0  0  0  0  0  0  0  0  0  0  0  0
   -0.0080   13.9600   -0.1370 C   0  0  0  0  0  0  0  0  0  0  0  0
   -0.2010   13.9660    1.2270 C   0  0  0  0  0  0  0  0  0  0  0  0
  1  2  1  0
  2  3  2  0
  2  4  1  0
  4  5  2  0
  3  6  1  0
  6  7  1  0
  5  8  1  0
  5  9  1  0
  6  9  2  0
  8 10  1  0
 10 11  1  0
 11 12  1  0
 12 13  1  0
 12 14  2  0
 13 15  2  0
 14 16  1  0
 13 17  1  0
 15 18  1  0
 16 18  2  0
 15 19  1  0
 17 20  2  0
 19 21  2  0
 20 21  1  0
M  END
