mac-x0365-diamond-x0727_0_A
     RDKit          3D

 25 26  0  0  0  0  0  0  0  0999 V2000
   -0.6620   14.9840   -1.8750 O   0  0  0  0  0  0  0  0  0  0  0  0
   -1.7870   14.8260   -2.6010 C   0  0  0  0  0  0  0  0  0  0  0  0
   -1.8690   14.6060   -3.8780 N   0  0  0  0  0  0  0  0  0  0  0  0
   -3.0360   14.9090   -1.7800 C   0  0  0  0  0  0  0  0  0  0  0  0
   -0.8070   14.4750   -4.8960 C   0  0  0  0  0  0  0  0  0  0  0  0
   -4.2320   15.0110   -2.4940 C   0  0  0  0  0  0  0  0  0  0  0  0
   -3.0790   14.8790   -0.3700 C   0  0  0  0  0  0  0  0  0  0  0  0
    0.5170   13.9670   -4.3290 C   0  0  0  0  0  0  0  0  0  0  0  0
   -5.4370   15.0720   -1.8170 C   0  0  0  0  0  0  0  0  0  0  0  0
   -4.3100   14.9420    0.3050 C   0  0  0  0  0  0  0  0  0  0  0  0
   -6.5790   15.1650   -2.5070 F   0  0  0  0  0  0  0  0  0  0  0  0
    0.8870   12.4960   -4.6090 C   0  0  2  0  0  0  0  0  0  0  0  0
   -5.4830   15.0340   -0.4370 C   0  0  0  0  0  0  0  0  0  0  0  0
   -6.6830   15.0860    0.2110 O   0  0  0  0  0  0  0  0  0  0  0  0
    0.0350   11.7680   -5.5760 N   0  0  0  0  0  0  0  0  0  0  0  0
    0.8360   11.7780   -3.2700 C   0  0  0  0  0  0  0  0  0  0  0  0
    0.3130   10.6990   -3.0350 O   0  0  0  0  0  0  0  0  0  0  0  0
    0.6640   11.2680   -6.7040 C   0  0  0  0  0  0  0  0  0  0  0  0
    1.4610   12.4750   -2.3020 O   0  0  0  0  0  0  0  0  0  0  0  0
    1.6940   11.7550   -7.1010 O   0  0  0  0  0  0  0  0  0  0  0  0
    0.0120   10.0640   -7.3920 C   0  0  0  0  0  0  0  0  0  0  0  0
   -1.2860   10.4440   -8.1060 C   0  0  0  0  0  0  0  0  0  0  0  0
   -0.3680    8.9350   -6.4140 C   0  0  0  0  0  0  0  0  0  0  0  0
   -2.1620    9.2020   -8.0220 C   0  0  0  0  0  0  0  0  0  0  0  0
   -1.8160    8.5610   -6.6890 C   0  0  0  0  0  0  0  0  0  0  0  0
  1  2  1  0
  2  3  2  3
  2  4  1  0
  3  5  1  0
  4  6  2  0
  4  7  1  0
  5  8  1  0
  6  9  1  0
  7 10  2  0
  9 11  1  0
 12  8  1  1
  9 13  2  0
 10 13  1  0
 13 14  1  0
 12 15  1  0
 12 16  1  0
 16 17  2  0
 15 18  1  0
 16 19  1  0
 18 20  2  0
 18 21  1  0
 21 22  1  0
 21 23  1  0
 22 24  1  0
 23 25  1  0
 24 25  1  0
M  END
