mac-x0397-diamond-x0727_0_A
     RDKit          3D

 27 29  0  0  0  0  0  0  0  0999 V2000
   -6.4420   14.9450   -2.6400 Cl  0  0  0  0  0  0  0  0  0  0  0  0
   -4.8820   14.9050   -1.9560 C   0  0  0  0  0  0  0  0  0  0  0  0
   -4.8570   14.9620   -0.5670 C   0  0  0  0  0  0  0  0  0  0  0  0
   -3.7030   14.8150   -2.7090 C   0  0  0  0  0  0  0  0  0  0  0  0
   -5.9340   15.0280    0.2950 N   0  0  0  0  0  0  0  0  0  0  0  0
   -3.6130   14.9440    0.0390 C   0  0  0  0  0  0  0  0  0  0  0  0
   -2.4630   14.7780   -2.0500 C   0  0  0  0  0  0  0  0  0  0  0  0
   -1.1370   14.6610   -2.7610 C   0  0  0  0  0  0  0  0  0  0  0  0
   -5.5100   15.0640    1.5170 C   0  0  0  0  0  0  0  0  0  0  0  0
   -3.8040   15.0520    1.7060 S   0  0  0  0  0  0  0  0  0  0  0  0
   -2.4250   14.8500   -0.6620 C   0  0  0  0  0  0  0  0  0  0  0  0
   -6.3500   15.1050    2.5640 N   0  0  0  0  0  0  0  0  0  0  0  0
    0.0370   14.4250   -1.7770 C   0  0  0  0  0  0  0  0  0  0  0  0
    1.3880   14.0900   -2.4130 C   0  0  0  0  0  0  0  0  0  0  0  0
    1.5920   12.6670   -2.4570 O   0  0  0  0  0  0  0  0  0  0  0  0
    0.7400   11.9490   -3.2600 C   0  0  0  0  0  0  0  0  0  0  0  0
    0.8810   12.3070   -4.7540 C   0  0  1  0  0  0  0  0  0  0  0  0
   -0.0280   11.0950   -2.8250 O   0  0  0  0  0  0  0  0  0  0  0  0
    0.1330   11.3960   -5.6190 N   0  0  0  0  0  0  0  0  0  0  0  0
    0.4780   13.7430   -5.0510 C   0  0  0  0  0  0  0  0  0  0  0  0
    0.6840   11.0700   -6.8260 C   0  0  0  0  0  0  0  0  0  0  0  0
    1.6250   11.6830   -7.2490 O   0  0  0  0  0  0  0  0  0  0  0  0
    0.0640    9.8870   -7.5460 C   0  0  0  0  0  0  0  0  0  0  0  0
   -1.2150   10.2750   -8.2940 C   0  0  0  0  0  0  0  0  0  0  0  0
   -0.3070    8.7050   -6.6340 C   0  0  0  0  0  0  0  0  0  0  0  0
   -2.1880    9.1320   -8.0550 C   0  0  0  0  0  0  0  0  0  0  0  0
   -1.8170    8.5860   -6.6920 C   0  0  0  0  0  0  0  0  0  0  0  0
  1  2  1  0
  2  3  2  0
  2  4  1  0
  3  5  1  0
  3  6  1  0
  4  7  2  0
  7  8  1  0
  5  9  2  0
  6 10  1  0
  9 10  1  0
  6 11  2  0
  7 11  1  0
  9 12  1  0
  8 13  1  0
 13 14  1  0
 14 15  1  0
 15 16  1  0
 16 17  1  0
 16 18  2  0
 17 19  1  0
 17 20  1  1
 19 21  1  0
 21 22  2  0
 21 23  1  0
 23 24  1  0
 23 25  1  0
 24 26  1  0
 25 27  1  0
 26 27  1  0
M  END
