mac-x0565-mac-x0182
     RDKit          3D

 24 27  0  0  0  0  0  0  0  0999 V2000
   -5.4990   15.2630    0.8680 O   0  0  0  0  0  0  0  0  0  0  0  0
   -6.0380   15.1770   -0.3590 C   0  0  0  0  0  0  0  0  0  0  0  0
   -7.2410   15.2420   -0.5470 O   0  0  0  0  0  0  0  0  0  0  0  0
   -5.0110   14.9600   -1.3960 C   0  0  0  0  0  0  0  0  0  0  0  0
   -3.6700   14.8810   -0.9890 C   0  0  0  0  0  0  0  0  0  0  0  0
   -5.3510   14.8220   -2.7560 C   0  0  0  0  0  0  0  0  0  0  0  0
   -2.7240   14.6400   -1.9600 C   0  0  0  0  0  0  0  0  0  0  0  0
   -4.3620   14.5770   -3.7160 C   0  0  0  0  0  0  0  0  0  0  0  0
   -3.0470   14.4740   -3.2940 C   0  0  0  0  0  0  0  0  0  0  0  0
   -1.3710   14.5270   -1.7550 O   0  0  0  0  0  0  0  0  0  0  0  0
   -1.9000   14.1900   -4.0440 N   0  0  0  0  0  0  0  0  0  0  0  0
   -0.8620   14.6450   -3.1130 C   0  0  0  0  0  0  0  0  0  0  0  0
   -1.7510   12.8990   -4.7890 N   0  0  0  0  0  0  0  0  0  0  0  0
   -0.8720   11.6510   -4.4840 S   0  0  2  0  0  0  0  0  0  0  0  0
   -0.5490   10.9570   -3.2500 O   0  0  0  0  0  0  0  0  0  0  0  0
    0.6010   12.1520   -5.1120 N   0  0  0  0  0  0  0  0  0  0  0  0
   -1.1770   10.4570   -5.7160 C   0  0  0  0  0  0  0  0  0  0  0  0
    0.8320   11.5790   -6.3300 C   0  0  0  0  0  0  0  0  0  0  0  0
   -0.1730   10.5390   -6.6640 C   0  0  0  0  0  0  0  0  0  0  0  0
   -2.2220    9.5530   -5.8040 C   0  0  0  0  0  0  0  0  0  0  0  0
    1.7500   11.8450   -7.0430 O   0  0  0  0  0  0  0  0  0  0  0  0
   -2.2380    8.7000   -6.9160 C   0  0  0  0  0  0  0  0  0  0  0  0
   -0.1770    9.7030   -7.7710 C   0  0  0  0  0  0  0  0  0  0  0  0
   -1.2240    8.7770   -7.8910 C   0  0  0  0  0  0  0  0  0  0  0  0
  1  2  1  0
  2  3  2  0
  2  4  1  0
  4  5  2  0
  4  6  1  0
  5  7  1  0
  6  8  2  0
  7  9  2  0
  8  9  1  0
  7 10  1  0
  9 11  1  0
 10 12  1  0
 11 12  1  0
 11 13  1  0
 13 14  2  0
 14 15  2  0
 14 16  1  6
 14 17  1  0
 16 18  1  0
 17 19  2  0
 18 19  1  0
 17 20  1  0
 18 21  2  0
 20 22  2  0
 19 23  1  0
 22 24  1  0
 23 24  2  0
M  END
