mac-x0115-mac-x0415
     RDKit          3D

 30 33  0  0  0  0  0  0  0  0999 V2000
   -1.7550   19.4650   -5.5740 C   0  0  0  0  0  0  0  0  0  0  0  0
   -0.6500   18.4170   -5.4130 C   0  0  0  0  0  0  0  0  0  0  0  0
    0.1410   18.3070   -4.1050 C   0  0  0  0  0  0  0  0  0  0  0  0
    0.3090   18.6620   -6.3630 O   0  0  0  0  0  0  0  0  0  0  0  0
   -1.0690   17.0920   -5.8720 C   0  0  1  0  0  0  0  0  0  0  0  0
    1.3900   17.9070   -5.9550 C   0  0  0  0  0  0  0  0  0  0  0  0
   -0.1490   15.9760   -5.3990 C   0  0  1  0  0  0  0  0  0  0  0  0
   -2.5580   16.8370   -5.5040 C   0  0  0  0  0  0  0  0  0  0  0  0
    1.2810   16.1290   -5.1620 N   0  0  0  0  0  0  0  0  0  0  0  0
   -0.8070   15.7420   -4.1330 C   0  0  2  0  0  0  0  0  0  0  0  0
   -2.9730   15.4550   -4.9620 C   0  0  1  0  0  0  0  0  0  0  0  0
   -3.9650   14.5150   -6.3450 Br  0  0  0  0  0  0  0  0  0  0  0  0
    0.2640   15.9880   -3.1310 C   0  0  2  0  0  0  0  0  0  0  0  0
    1.5070   15.4870   -3.8830 C   0  0  0  0  0  0  0  0  0  0  0  0
   -1.8060   14.6480   -4.3720 C   0  0  0  0  0  0  0  0  0  0  0  0
   -0.0190   15.7430   -1.7160 N   0  0  0  0  0  0  0  0  0  0  0  0
    0.6450   14.7040   -1.3150 C   0  0  0  0  0  0  0  0  0  0  0  0
   -1.3440   15.6090   -1.3800 C   0  0  0  0  0  0  0  0  0  0  0  0
    1.7510   14.1720   -2.5460 S   0  0  0  0  0  0  0  0  0  0  0  0
    0.4000   14.1260   -0.0840 N   0  0  0  0  0  0  0  0  0  0  0  0
   -1.6360   15.4640    0.0530 C   0  0  2  0  0  0  0  0  0  0  0  0
   -2.4620   15.5870   -2.1150 C   0  0  0  0  0  0  0  0  0  0  0  0
   -0.6930   14.5000    0.7180 C   0  0  0  0  0  0  0  0  0  0  0  0
   -3.1040   15.2540    0.1320 N   0  0  0  0  0  0  0  0  0  0  0  0
   -3.4850   15.3660   -1.1040 C   0  0  0  0  0  0  0  0  0  0  0  0
    2.7890   12.8210   -2.7170 C   0  0  0  0  0  0  0  0  0  0  0  0
   -0.8430   14.1000    1.8680 O   0  0  0  0  0  0  0  0  0  0  0  0
    1.7660   11.9140   -3.1570 N   0  0  0  0  0  0  0  0  0  0  0  0
    0.7380   11.8650   -2.4170 C   0  0  0  0  0  0  0  0  0  0  0  0
   -0.2530   11.0200   -2.7290 O   0  0  0  0  0  0  0  0  0  0  0  0
  1  2  1  0
  2  3  1  0
  2  4  1  0
  5  2  1  1
  4  6  1  0
  5  7  1  0
  5  8  1  0
  7  9  1  1
  7 10  1  0
  8 11  1  0
 11 12  1  6
 10 13  1  0
  9 14  1  0
 13 14  1  0
 10 15  1  6
 11 15  1  0
 13 16  1  1
 16 17  1  0
 16 18  1  0
 17 19  2  3
 17 20  1  0
 18 21  1  0
 18 22  2  0
 20 23  1  0
 21 23  1  0
 21 24  1  6
 22 25  1  0
 24 25  2  0
 19 26  1  0
 23 27  2  0
 26 28  1  0
 28 29  2  3
 29 30  1  0
M  END
