mac-x0124-diamond-x0104_0_A
     RDKit          3D

 27 30  0  0  0  0  0  0  0  0999 V2000
    0.0580   15.2750   -3.0420 C   0  0  0  0  0  0  0  0  0  0  0  0
   -1.1150   15.3550   -2.2060 N   0  0  0  0  0  0  0  0  0  0  0  0
   -2.3770   15.6660   -2.6300 C   0  0  0  0  0  0  0  0  0  0  0  0
   -1.1240   15.1310   -0.8520 C   0  0  0  0  0  0  0  0  0  0  0  0
   -3.2040   15.6420   -1.5310 C   0  0  0  0  0  0  0  0  0  0  0  0
   -2.4230   15.2970   -0.3840 C   0  0  0  0  0  0  0  0  0  0  0  0
   -0.0500   14.8070   -0.1300 N   0  0  0  0  0  0  0  0  0  0  0  0
   -2.6500   15.1000    1.0060 C   0  0  0  0  0  0  0  0  0  0  0  0
   -0.3750   14.6460    1.1680 C   0  0  0  0  0  0  0  0  0  0  0  0
   -3.9390   15.2350    1.5960 N   0  0  0  0  0  0  0  0  0  0  0  0
   -1.5780   14.7680    1.7600 N   0  0  0  0  0  0  0  0  0  0  0  0
   -5.0550   14.9800    0.7650 C   0  0  0  0  0  0  0  0  0  0  0  0
   -4.7700   14.9370   -0.5370 N   0  0  0  0  0  0  0  0  0  0  0  0
   -6.3850   14.7860    1.2510 C   0  0  0  0  0  0  0  0  0  0  0  0
   -6.6980   14.8420    2.6280 N   0  0  0  0  0  0  0  0  0  0  0  0
   -5.7440   14.7130   -1.4070 C   0  0  0  0  0  0  0  0  0  0  0  0
   -7.3760   14.5500    0.3010 C   0  0  0  0  0  0  0  0  0  0  0  0
   -5.3510   14.6930   -2.7100 O   0  0  0  0  0  0  0  0  0  0  0  0
   -7.9550   15.0690    3.1840 C   0  0  0  0  0  0  0  0  0  0  0  0
   -7.0530   14.5140   -1.0480 C   0  0  0  0  0  0  0  0  0  0  0  0
   -7.9290   15.0290    4.5700 N   0  0  0  0  0  0  0  0  0  0  0  0
   -8.9630   15.2850    2.5160 O   0  0  0  0  0  0  0  0  0  0  0  0
   -9.0490   15.0610    5.3770 C   0  0  0  0  0  0  0  0  0  0  0  0
   -9.2150   15.2000    6.7330 C   0  0  0  0  0  0  0  0  0  0  0  0
  -10.5390   14.8970    4.5590 S   0  0  0  0  0  0  0  0  0  0  0  0
  -11.4250   15.0080    6.0240 C   0  0  0  0  0  0  0  0  0  0  0  0
  -10.5940   15.1690    7.1110 C   0  0  0  0  0  0  0  0  0  0  0  0
  1  2  1  0
  2  3  1  0
  2  4  1  0
  3  5  2  0
  4  6  2  0
  5  6  1  0
  4  7  1  0
  6  8  1  0
  7  9  2  0
  8 10  1  0
  8 11  2  0
  9 11  1  0
 10 12  1  0
 12 13  2  0
 12 14  1  0
 14 15  1  0
 13 16  1  0
 14 17  2  0
 16 18  1  0
 15 19  1  0
 16 20  2  0
 17 20  1  0
 19 21  1  0
 19 22  2  0
 21 23  1  0
 23 24  2  0
 23 25  1  0
 25 26  1  0
 24 27  1  0
 26 27  2  0
M  END
