mac-x0373-mac-x0371
     RDKit          3D

 26 29  0  0  0  0  0  0  0  0999 V2000
   -0.1960   12.2610   -1.2440 O   0  0  0  0  0  0  0  0  0  0  0  0
   -0.3360   13.5610   -1.5300 C   0  0  0  0  0  0  0  0  0  0  0  0
    0.4280   14.3990   -1.0430 O   0  0  0  0  0  0  0  0  0  0  0  0
    0.2230   11.5460   -2.2980 C   0  0  0  0  0  0  0  0  0  0  0  0
   -1.4910   13.9310   -2.5470 C   0  0  0  0  0  0  0  0  0  0  0  0
    0.1270   10.3230   -2.3310 O   0  0  0  0  0  0  0  0  0  0  0  0
    0.8740   12.3310   -3.3950 C   0  0  0  0  0  0  0  0  0  0  0  0
   -1.9450   12.7120   -3.3960 C   0  0  0  0  0  0  0  0  0  0  0  0
   -2.5960   14.6180   -1.7080 C   0  0  0  0  0  0  0  0  0  0  0  0
    0.5820   13.7990   -3.7860 C   0  0  0  0  0  0  0  0  0  0  0  0
   -0.5140   14.6340   -3.4580 C   0  0  0  0  0  0  0  0  0  0  0  0
   -1.4210   12.5950   -4.7100 C   0  0  0  0  0  0  0  0  0  0  0  0
   -2.8280   11.7290   -2.9470 C   0  0  0  0  0  0  0  0  0  0  0  0
   -3.7660   15.1820   -2.2350 C   0  0  0  0  0  0  0  0  0  0  0  0
   -2.4010   14.6520   -0.3110 C   0  0  0  0  0  0  0  0  0  0  0  0
   -0.6040   15.9400   -3.9460 C   0  0  0  0  0  0  0  0  0  0  0  0
    1.5600   14.3080   -4.5630 C   0  0  0  0  0  0  0  0  0  0  0  0
    2.8480   13.1770   -4.8610 Cl  0  0  0  0  0  0  0  0  0  0  0  0
   -1.7630   11.5380   -5.5360 C   0  0  0  0  0  0  0  0  0  0  0  0
   -3.1710   10.6680   -3.7820 C   0  0  0  0  0  0  0  0  0  0  0  0
   -4.7070   15.7520   -1.3800 C   0  0  0  0  0  0  0  0  0  0  0  0
   -3.3400   15.2220    0.5300 C   0  0  0  0  0  0  0  0  0  0  0  0
    0.3920   16.4400   -4.7340 C   0  0  0  0  0  0  0  0  0  0  0  0
    1.4570   15.6400   -5.0320 C   0  0  0  0  0  0  0  0  0  0  0  0
   -2.6430   10.5700   -5.0680 C   0  0  0  0  0  0  0  0  0  0  0  0
   -4.4860   15.7660   -0.0080 C   0  0  0  0  0  0  0  0  0  0  0  0
  1  2  1  0
  2  3  2  0
  1  4  1  0
  2  5  1  0
  4  6  2  0
  4  7  1  0
  5  8  1  0
  5  9  1  0
  7 10  1  0
  5 11  1  0
 10 11  2  0
  8 12  2  0
  8 13  1  0
  9 14  2  0
  9 15  1  0
 11 16  1  0
 10 17  1  0
 17 18  1  0
 12 19  1  0
 13 20  2  0
 14 21  1  0
 15 22  2  0
 16 23  2  0
 17 24  2  0
 23 24  1  0
 19 25  2  0
 20 25  1  0
 21 26  2  0
 22 26  1  0
M  END
