mac-x0360-mac-x0347
     RDKit          3D

 26 28  0  0  0  0  0  0  0  0999 V2000
   -7.4870   11.7320    1.7120 Cl  0  0  0  0  0  0  0  0  0  0  0  0
   -6.1140   11.9530    0.6970 C   0  0  0  0  0  0  0  0  0  0  0  0
   -6.0370   11.2490   -0.4960 C   0  0  0  0  0  0  0  0  0  0  0  0
   -5.0930   12.8290    1.0780 C   0  0  0  0  0  0  0  0  0  0  0  0
   -3.9650   13.0190    0.2570 C   0  0  0  0  0  0  0  0  0  0  0  0
   -4.9250   11.4230   -1.3160 C   0  0  0  0  0  0  0  0  0  0  0  0
   -4.8500   10.5150   -2.7790 Cl  0  0  0  0  0  0  0  0  0  0  0  0
   -2.6580   14.1690    0.8140 S   0  0  0  0  0  0  0  0  0  0  0  0
   -3.8840   12.3030   -0.9640 C   0  0  0  0  0  0  0  0  0  0  0  0
   -2.5030   13.9430    2.1770 O   0  0  0  0  0  0  0  0  0  0  0  0
   -3.0790   15.5200    0.4210 N   0  0  0  0  0  0  0  0  0  0  0  0
   -4.3710   15.1540    0.1660 C   0  0  0  0  0  0  0  0  0  0  0  0
   -5.2800   15.1590    1.2040 C   0  0  0  0  0  0  0  0  0  0  0  0
   -4.6220   14.7740   -1.1180 C   0  0  0  0  0  0  0  0  0  0  0  0
   -3.5220   14.8040   -2.1210 C   0  0  0  0  0  0  0  0  0  0  0  0
   -6.5700   14.7450    0.9390 C   0  0  0  0  0  0  0  0  0  0  0  0
   -5.9300   14.3620   -1.3870 C   0  0  0  0  0  0  0  0  0  0  0  0
   -2.1660   14.4880   -1.8130 C   0  0  0  0  0  0  0  0  0  0  0  0
   -3.7700   15.1500   -3.4350 C   0  0  0  0  0  0  0  0  0  0  0  0
   -6.8950   14.3490   -0.3590 C   0  0  0  0  0  0  0  0  0  0  0  0
   -1.1770   14.5390   -2.8080 C   0  0  0  0  0  0  0  0  0  0  0  0
   -2.8340   15.2130   -4.4190 N   0  0  0  0  0  0  0  0  0  0  0  0
    0.2410   14.2120   -2.5270 C   0  0  0  0  0  0  0  0  0  0  0  0
   -1.5610   14.9060   -4.0850 C   0  0  0  0  0  0  0  0  0  0  0  0
    1.0910   14.6550   -3.4770 O   0  0  0  0  0  0  0  0  0  0  0  0
    0.6060   13.6030   -1.5390 O   0  0  0  0  0  0  0  0  0  0  0  0
  1  2  1  0
  2  3  2  0
  2  4  1  0
  4  5  2  0
  3  6  1  0
  6  7  1  0
  5  8  1  0
  5  9  1  0
  6  9  2  0
  8 10  2  0
  8 11  2  0
 11 12  1  0
 12 13  2  0
 12 14  1  0
 14 15  1  0
 13 16  1  0
 14 17  2  0
 15 18  2  0
 15 19  1  0
 16 20  2  0
 17 20  1  0
 18 21  1  0
 19 22  2  0
 21 23  1  0
 21 24  2  0
 22 24  1  0
 23 25  1  0
 23 26  2  0
M  END
