mac-x0451-mac-x0510
     RDKit          3D

 16 18  0  0  0  0  0  0  0  0999 V2000
   -6.2270   14.8890    3.4490 N   0  0  0  0  0  0  0  0  0  0  0  0
   -5.5200   14.9030    2.3090 C   0  0  0  0  0  0  0  0  0  0  0  0
   -6.0710   14.9350    1.1330 N   0  0  0  0  0  0  0  0  0  0  0  0
   -3.8040   14.8770    2.2990 S   0  0  0  0  0  0  0  0  0  0  0  0
   -5.1020   14.9410    0.1520 C   0  0  0  0  0  0  0  0  0  0  0  0
   -3.8120   14.9020    0.5890 C   0  0  0  0  0  0  0  0  0  0  0  0
   -5.4400   14.9720   -1.2320 C   0  0  0  0  0  0  0  0  0  0  0  0
   -2.5860   14.8530   -0.2850 C   0  0  1  0  0  0  0  0  0  0  0  0
   -6.6140   14.9010   -1.5370 O   0  0  0  0  0  0  0  0  0  0  0  0
   -4.3060   15.0880   -2.2410 C   0  0  0  0  0  0  0  0  0  0  0  0
   -2.9920   14.4720   -1.7480 C   0  0  1  0  0  0  0  0  0  0  0  0
   -1.6430   15.9870   -0.3110 N   0  0  0  0  0  0  0  0  0  0  0  0
   -1.7600   13.8090    0.4290 C   0  0  0  0  0  0  0  0  0  0  0  0
   -2.0110   14.8800   -2.6070 F   0  0  0  0  0  0  0  0  0  0  0  0
   -0.9130   14.5840    1.3260 N   0  0  0  0  0  0  0  0  0  0  0  0
   -0.4410   15.5740    0.4020 C   0  0  0  0  0  0  0  0  0  0  0  0
  1  2  1  0
  2  3  2  0
  2  4  1  0
  3  5  1  0
  4  6  1  0
  5  6  2  0
  5  7  1  0
  6  8  1  0
  7  9  2  0
  7 10  1  0
  8 11  1  0
 10 11  1  0
  8 12  1  0
  8 13  1  1
 11 14  1  6
 13 15  1  0
 12 16  1  0
 15 16  1  0
M  END
