mac-x0451-diamond-x0837_0_A
     RDKit          3D

 12 13  0  0  0  0  0  0  0  0999 V2000
   -6.5720   14.6350    2.9270 N   0  0  0  0  0  0  0  0  0  0  0  0
   -5.7290   14.7190    1.7010 C   0  0  0  0  0  0  0  0  0  0  0  0
   -6.2330   14.8500    0.3240 N   0  0  0  0  0  0  0  0  0  0  0  0
   -4.0160   14.6800    1.7530 S   0  0  0  0  0  0  0  0  0  0  0  0
   -7.4850   14.8860    0.1600 O   0  0  0  0  0  0  0  0  0  0  0  0
   -5.2400   14.9190   -0.5940 C   0  0  0  0  0  0  0  0  0  0  0  0
   -3.9850   14.8360    0.0280 C   0  0  0  0  0  0  0  0  0  0  0  0
   -5.3610   15.0520   -1.9800 C   0  0  0  0  0  0  0  0  0  0  0  0
   -2.8230   14.8800   -0.7420 C   0  0  0  0  0  0  0  0  0  0  0  0
   -4.1900   15.0940   -2.7350 C   0  0  0  0  0  0  0  0  0  0  0  0
   -2.9530   15.0070   -2.1190 C   0  0  0  0  0  0  0  0  0  0  0  0
   -1.8460   15.0430   -2.8710 F   0  0  0  0  0  0  0  0  0  0  0  0
  1  2  1  0
  2  3  2  0
  2  4  1  0
  3  5  1  0
  3  6  1  0
  4  7  1  0
  6  7  2  0
  6  8  1  0
  7  9  1  0
  8 10  2  0
  9 11  2  0
 10 11  1  0
 11 12  1  0
M  CHG  2   3   1   5  -1
M  END
