mac-x0345-diamond-x0910_1_A
     RDKit          3D

  9  9  0  0  0  0  0  0  0  0999 V2000
   -7.3810   14.5540    0.8630 C   0  0  0  0  0  0  0  0  0  0  0  0
   -6.2910   14.8510   -0.1330 C   0  0  0  0  0  0  0  0  0  0  0  0
   -6.6480   14.7470   -1.4350 N   0  0  0  0  0  0  0  0  0  0  0  0
   -4.9930   15.2090    0.2290 C   0  0  0  0  0  0  0  0  0  0  0  0
   -4.3740   15.3880    1.9790 Br  0  0  0  0  0  0  0  0  0  0  0  0
   -4.0550   15.4580   -0.7410 C   0  0  0  0  0  0  0  0  0  0  0  0
   -5.7150   14.9960   -2.3660 C   0  0  0  0  0  0  0  0  0  0  0  0
   -6.1290   14.8710   -3.6800 N   0  0  0  0  0  0  0  0  0  0  0  0
   -4.4140   15.3530   -2.0640 C   0  0  0  0  0  0  0  0  0  0  0  0
  1  2  1  0
  2  3  2  0
  2  4  1  0
  4  5  1  0
  4  6  2  0
  3  7  1  0
  7  8  1  0
  6  9  1  0
  7  9  2  0
M  END
