mac-x0213-mac-x0148
     RDKit          3D

 24 28  0  0  0  0  0  0  0  0999 V2000
    0.1680   11.2150   -2.7480 O   0  0  0  0  0  0  0  0  0  0  0  0
    0.6890   12.4480   -2.5970 C   0  0  0  0  0  0  0  0  0  0  0  0
    1.7200   12.6220   -1.9940 O   0  0  0  0  0  0  0  0  0  0  0  0
   -0.1260   13.5190   -3.2210 C   0  0  1  0  0  0  0  0  0  0  0  0
   -1.2220   14.2280   -2.3110 C   0  0  2  0  0  0  0  0  0  0  0  0
    0.8270   14.6610   -3.8460 C   0  0  0  0  0  0  0  0  0  0  0  0
    0.0120   15.7940   -4.5340 C   0  0  1  0  0  0  0  0  0  0  0  0
   -2.0480   14.5970   -3.5520 C   0  0  1  0  0  0  0  0  0  0  0  0
   -0.3670   15.2110   -1.6060 N   0  0  0  0  0  0  0  0  0  0  0  0
   -2.2430   13.8090   -1.1390 C   0  0  1  0  0  0  0  0  0  0  0  0
   -1.5170   15.5120   -4.6220 C   0  0  2  0  0  0  0  0  0  0  0  0
    0.3080   17.2680   -4.4380 C   0  0  0  0  0  0  0  0  0  0  0  0
   -3.0030   13.8500   -4.4270 C   0  0  0  0  0  0  0  0  0  0  0  0
    0.1830   14.7570   -0.3310 C   0  0  0  0  0  0  0  0  0  0  0  0
   -2.0280   14.3630    0.3620 C   0  0  1  0  0  0  0  0  0  0  0  0
   -3.6800   14.2580   -1.3610 C   0  0  0  0  0  0  0  0  0  0  0  0
   -2.0850   16.3510   -5.7660 C   0  0  0  0  0  0  0  0  0  0  0  0
   -0.4860   18.0920   -5.1630 C   0  0  0  0  0  0  0  0  0  0  0  0
   -3.6950   15.0840   -4.7430 O   0  0  0  0  0  0  0  0  0  0  0  0
   -2.7980   16.0630   -4.0720 C   0  0  0  0  0  0  0  0  0  0  0  0
   -0.7600   14.9410    0.7190 N   0  0  0  0  0  0  0  0  0  0  0  0
   -3.2170   15.1570    0.6570 N   0  0  0  0  0  0  0  0  0  0  0  0
   -4.1380   14.9940   -0.3370 C   0  0  0  0  0  0  0  0  0  0  0  0
   -1.5710   17.5740   -5.9860 C   0  0  0  0  0  0  0  0  0  0  0  0
  1  2  1  0
  2  3  2  0
  4  2  1  1
  4  5  1  0
  4  6  1  0
  7  6  1  1
  5  8  1  0
  5  9  1  1
  5 10  1  0
  7 11  1  0
  8 11  1  0
  7 12  1  0
  8 13  1  6
  9 14  1  0
 10 15  1  0
 10 16  1  6
 11 17  1  1
 12 18  2  0
 13 19  1  0
 11 20  1  0
 19 20  1  0
 14 21  1  0
 15 21  1  6
 15 22  1  0
 16 23  2  0
 22 23  1  0
 17 24  2  0
 18 24  1  0
M  END
