mac-x0302-diamond-x0950_0_A
     RDKit          3D

 18 18  0  0  0  0  0  0  0  0999 V2000
    1.2780   13.7250   -4.4430 N   0  0  0  0  0  0  0  0  0  0  0  0
    0.3740   13.8830   -3.3910 C   0  0  0  0  0  0  0  0  0  0  0  0
    0.2490   13.1560   -2.3560 N   0  0  0  0  0  0  0  0  0  0  0  0
    2.6200   13.2050   -4.1770 C   0  0  0  0  0  0  0  0  0  0  0  0
    0.7040   12.9120   -5.4490 O   0  0  0  0  0  0  0  0  0  0  0  0
   -0.6240   15.0510   -3.4550 C   0  0  0  0  0  0  0  0  0  0  0  0
   -1.6020   14.8490   -2.3870 N   0  0  0  0  0  0  0  0  0  0  0  0
    1.0760   12.0970   -2.3320 C   0  0  0  0  0  0  0  0  0  0  0  0
   -2.9530   15.1240   -2.5430 C   0  0  0  0  0  0  0  0  0  0  0  0
    0.7000   10.9450   -2.5490 O   0  0  0  0  0  0  0  0  0  0  0  0
   -3.4540   15.4080   -3.6270 O   0  0  0  0  0  0  0  0  0  0  0  0
   -3.7850   15.0720   -1.3100 C   0  0  0  0  0  0  0  0  0  0  0  0
   -5.1810   15.0650   -1.4400 C   0  0  0  0  0  0  0  0  0  0  0  0
   -3.2070   15.0280   -0.0330 C   0  0  0  0  0  0  0  0  0  0  0  0
   -5.9690   15.0100   -0.3010 C   0  0  0  0  0  0  0  0  0  0  0  0
   -4.0080   14.9760    1.1000 C   0  0  0  0  0  0  0  0  0  0  0  0
   -7.3320   15.0010   -0.3890 O   0  0  0  0  0  0  0  0  0  0  0  0
   -5.3950   14.9650    0.9680 C   0  0  0  0  0  0  0  0  0  0  0  0
  1  2  1  0
  2  3  2  3
  1  4  1  0
  1  5  1  0
  2  6  1  0
  6  7  1  0
  3  8  1  0
  7  9  1  0
  8 10  2  0
  9 11  2  0
  9 12  1  0
 12 13  2  0
 12 14  1  0
 13 15  1  0
 14 16  2  0
 15 17  1  0
 15 18  2  0
 16 18  1  0
M  END
