mac-x0576-mac-x0441
     RDKit          3D

 32 35  0  0  0  0  0  0  0  0999 V2000
    0.0300   14.1260    1.8160 N   0  0  0  0  0  0  0  0  0  0  0  0
   -0.8790   14.8960    1.0310 C   0  0  2  0  0  0  0  0  0  0  0  0
   -2.1020   14.2320    1.2830 N   0  0  0  0  0  0  0  0  0  0  0  0
   -0.5450   15.2020   -0.2940 N   0  0  0  0  0  0  0  0  0  0  0  0
   -1.5160   15.3150   -1.2430 C   0  0  0  0  0  0  0  0  0  0  0  0
   -3.1130   15.0780    0.7540 C   0  0  1  0  0  0  0  0  0  0  0  0
   -1.0090   15.3830   -2.4290 N   0  0  0  0  0  0  0  0  0  0  0  0
   -3.0010   15.3820   -0.7770 C   0  0  2  0  0  0  0  0  0  0  0  0
   -4.3480   14.4720    1.1350 N   0  0  0  0  0  0  0  0  0  0  0  0
    0.4650   15.4320   -2.4650 C   0  0  0  0  0  0  0  0  0  0  0  0
   -5.4940   14.7940    0.4650 C   0  0  0  0  0  0  0  0  0  0  0  0
   -4.0010   14.6070   -1.5340 N   0  0  0  0  0  0  0  0  0  0  0  0
   -6.5750   14.8460    1.0450 O   0  0  0  0  0  0  0  0  0  0  0  0
    1.2420   14.2940   -3.1330 C   0  0  0  0  0  0  0  0  0  0  0  0
   -5.3220   15.0670   -1.0340 C   0  0  0  0  0  0  0  0  0  0  0  0
    0.9580   12.9350   -2.6530 N   0  0  0  0  0  0  0  0  0  0  0  0
    0.6550   12.1720   -3.6050 C   0  0  0  0  0  0  0  0  0  0  0  0
    0.3830   10.8900   -3.3100 O   0  0  0  0  0  0  0  0  0  0  0  0
    0.5810   12.6270   -5.0280 C   0  0  0  0  0  0  0  0  0  0  0  0
    0.2500   11.6630   -6.0350 N   0  0  0  0  0  0  0  0  0  0  0  0
    1.0020   11.6690   -7.1540 N   0  0  0  0  0  0  0  0  0  0  0  0
   -0.7280   10.7180   -6.0580 C   0  0  0  0  0  0  0  0  0  0  0  0
    0.4810   10.7010   -7.9240 C   0  0  0  0  0  0  0  0  0  0  0  0
   -0.6020   10.0810   -7.2650 C   0  0  0  0  0  0  0  0  0  0  0  0
   -1.7460   10.4090   -5.0220 C   0  0  0  0  0  0  0  0  0  0  0  0
    0.9670   10.3250   -9.2970 C   0  0  0  0  0  0  0  0  0  0  0  0
   -1.4830    8.9700   -7.7100 C   0  0  0  0  0  0  0  0  0  0  0  0
   -2.9110    9.6620   -5.7000 C   0  0  0  0  0  0  0  0  0  0  0  0
    1.6730    9.1600   -9.2810 F   0  0  0  0  0  0  0  0  0  0  0  0
   -0.0780   10.1090  -10.1320 F   0  0  0  0  0  0  0  0  0  0  0  0
    1.7100   11.2460   -9.9440 F   0  0  0  0  0  0  0  0  0  0  0  0
   -2.4070    8.4980   -6.5710 C   0  0  0  0  0  0  0  0  0  0  0  0
  2  1  1  6
  2  3  1  0
  2  4  1  0
  4  5  1  0
  6  3  1  6
  5  7  2  3
  5  8  1  0
  6  8  1  0
  6  9  1  0
  7 10  1  0
  9 11  1  0
  8 12  1  6
 11 13  2  0
 10 14  1  0
 11 15  1  0
 12 15  1  0
 14 16  1  0
 16 17  2  3
 17 18  1  0
 17 19  1  0
 19 20  1  0
 20 21  1  0
 20 22  1  0
 21 23  2  0
 22 24  2  0
 23 24  1  0
 22 25  1  0
 23 26  1  0
 24 27  1  0
 25 28  1  0
 26 29  1  0
 26 30  1  0
 26 31  1  0
 27 32  1  0
 28 32  1  0
M  END
