mac-x0182-mac-x0178
     RDKit          3D

 24 26  0  0  0  0  0  0  0  0999 V2000
    1.7420   11.8140   -6.9740 O   0  0  0  0  0  0  0  0  0  0  0  0
    0.7040   11.5980   -6.4030 C   0  0  0  0  0  0  0  0  0  0  0  0
    0.1730   12.3490   -5.3960 N   0  0  0  0  0  0  0  0  0  0  0  0
   -0.1490   10.4280   -6.6850 C   0  0  0  0  0  0  0  0  0  0  0  0
   -0.8770   11.4290   -4.4600 S   0  0  2  0  0  0  0  0  0  0  0  0
   -1.0710   10.1990   -5.6700 C   0  0  0  0  0  0  0  0  0  0  0  0
   -0.1030    9.6030   -7.7970 C   0  0  0  0  0  0  0  0  0  0  0  0
   -2.1070   12.1680   -4.4780 O   0  0  0  0  0  0  0  0  0  0  0  0
    0.0120   11.2320   -3.2450 N   0  0  0  0  0  0  0  0  0  0  0  0
   -1.9750    9.1540   -5.7030 C   0  0  0  0  0  0  0  0  0  0  0  0
   -1.0100    8.5410   -7.8610 C   0  0  0  0  0  0  0  0  0  0  0  0
    0.2090   12.4780   -2.5760 C   0  0  0  0  0  0  0  0  0  0  0  0
   -1.9370    8.3180   -6.8200 C   0  0  0  0  0  0  0  0  0  0  0  0
    0.6160   12.5730   -1.4150 O   0  0  0  0  0  0  0  0  0  0  0  0
   -0.1610   13.7690   -3.3120 C   0  0  0  0  0  0  0  0  0  0  0  0
    0.7320   14.8490   -3.5270 C   0  0  0  0  0  0  0  0  0  0  0  0
   -1.4690   13.8880   -3.8070 C   0  0  0  0  0  0  0  0  0  0  0  0
    0.2990   16.0020   -4.2280 C   0  0  0  0  0  0  0  0  0  0  0  0
   -1.9000   15.0200   -4.5000 C   0  0  0  0  0  0  0  0  0  0  0  0
   -1.0230   16.0810   -4.7160 C   0  0  0  0  0  0  0  0  0  0  0  0
   -1.6080   17.5190   -5.6060 S   0  0  0  0  0  0  0  0  0  0  0  0
   -0.2040   18.1370   -6.2850 N   0  0  0  0  0  0  0  0  0  0  0  0
   -2.4780   17.0940   -6.6790 O   0  0  0  0  0  0  0  0  0  0  0  0
   -2.0410   18.5160   -4.6680 O   0  0  0  0  0  0  0  0  0  0  0  0
  1  2  2  0
  2  3  1  0
  2  4  1  0
  5  3  1  6
  4  6  2  0
  5  6  1  0
  4  7  1  0
  5  8  2  0
  5  9  2  0
  6 10  1  0
  7 11  2  0
  9 12  1  0
 10 13  2  0
 11 13  1  0
 12 14  2  0
 12 15  1  0
 15 16  2  0
 15 17  1  0
 16 18  1  0
 17 19  2  0
 18 20  2  0
 19 20  1  0
 20 21  1  0
 21 22  1  0
 21 23  2  0
 21 24  2  0
M  END
