mac-x0588-mac-x0590
     RDKit          3D

 23 26  0  0  0  0  0  0  0  0999 V2000
   -4.4150   14.5160    0.8830 N   0  0  0  0  0  0  0  0  0  0  0  0
   -3.6650   15.5690    0.2350 C   0  0  1  0  0  0  0  0  0  0  0  0
   -2.1220   15.4480    0.2570 C   0  0  2  0  0  0  0  0  0  0  0  0
   -4.2720   15.6320   -1.0820 N   0  0  0  0  0  0  0  0  0  0  0  0
   -3.5790   14.9850   -2.1960 C   0  0  0  0  0  0  0  0  0  0  0  0
   -1.6140   14.6620   -0.9160 C   0  0  1  0  0  0  0  0  0  0  0  0
   -1.4480   14.7630    1.3670 N   0  0  0  0  0  0  0  0  0  0  0  0
   -2.1560   15.2180   -2.1190 N   0  0  0  0  0  0  0  0  0  0  0  0
   -0.1930   14.8370   -0.6540 N   0  0  0  0  0  0  0  0  0  0  0  0
   -0.1080   14.5930    0.7950 C   0  0  0  0  0  0  0  0  0  0  0  0
   -1.4300   15.2090   -3.4080 C   0  0  2  0  0  0  0  0  0  0  0  0
   -0.6390   13.8790   -3.5200 C   0  0  0  0  0  0  0  0  0  0  0  0
   -0.6190   16.4970   -3.7880 C   0  0  2  0  0  0  0  0  0  0  0  0
   -0.4770   13.3050   -4.9370 C   0  0  0  0  0  0  0  0  0  0  0  0
   -1.4770   17.5430   -4.3340 O   0  0  0  0  0  0  0  0  0  0  0  0
    0.5750   16.3650   -4.7360 C   0  0  0  0  0  0  0  0  0  0  0  0
    0.6500   17.7370   -5.3620 C   0  0  0  0  0  0  0  0  0  0  0  0
   -0.8210   18.1100   -5.4820 C   0  0  0  0  0  0  0  0  0  0  0  0
    0.4610   12.0950   -4.9400 C   0  0  2  0  0  0  0  0  0  0  0  0
    0.9000   11.6840   -3.5330 C   0  0  0  0  0  0  0  0  0  0  0  0
    1.7840   12.3370   -5.6530 C   0  0  0  0  0  0  0  0  0  0  0  0
    2.7190   12.7450   -4.5370 C   0  0  0  0  0  0  0  0  0  0  0  0
    2.2430   12.1430   -3.3310 O   0  0  0  0  0  0  0  0  0  0  0  0
  2  1  1  6
  2  3  1  0
  2  4  1  0
  4  5  1  0
  3  6  1  0
  3  7  1  1
  5  8  1  0
  6  8  1  0
  6  9  1  6
  7 10  1  0
  9 10  1  0
  8 11  1  0
 11 12  1  1
 11 13  1  0
 12 14  1  0
 13 15  1  0
 13 16  1  6
 16 17  1  0
 15 18  1  0
 17 18  1  0
 19 14  1  1
 19 20  1  0
 19 21  1  0
 21 22  1  0
 20 23  1  0
 22 23  1  0
M  END
