mac-x0358-diamond-x0253_0_A
     RDKit          3D

 21 22  0  0  0  0  0  0  0  0999 V2000
    1.4680   13.1450   -2.2690 O   0  0  0  0  0  0  0  0  0  0  0  0
    0.6750   12.3560   -3.0340 C   0  0  0  0  0  0  0  0  0  0  0  0
    0.1220   11.4030   -2.5140 O   0  0  0  0  0  0  0  0  0  0  0  0
    0.5810   12.8010   -4.5130 C   0  0  1  0  0  0  0  0  0  0  0  0
    0.5480   11.6140   -5.3380 N   0  0  0  0  0  0  0  0  0  0  0  0
   -0.7030   13.5100   -4.8530 C   0  0  0  0  0  0  0  0  0  0  0  0
    1.1770   11.5900   -6.5440 C   0  0  0  0  0  0  0  0  0  0  0  0
   -1.8160   12.7480   -5.2050 C   0  0  0  0  0  0  0  0  0  0  0  0
   -0.8160   14.9060   -4.8340 C   0  0  0  0  0  0  0  0  0  0  0  0
   -1.6910   11.3830   -5.2140 O   0  0  0  0  0  0  0  0  0  0  0  0
    2.2050   12.2030   -6.7170 O   0  0  0  0  0  0  0  0  0  0  0  0
   -3.0270   13.3440   -5.5370 C   0  0  0  0  0  0  0  0  0  0  0  0
   -2.0330   15.5160   -5.1650 C   0  0  0  0  0  0  0  0  0  0  0  0
    0.5440   10.7330   -7.5960 C   0  0  0  0  0  0  0  0  0  0  0  0
   -3.1320   14.7350   -5.5170 C   0  0  0  0  0  0  0  0  0  0  0  0
   -0.4370    9.8270   -7.1720 C   0  0  0  0  0  0  0  0  0  0  0  0
    0.8740   10.7860   -8.9580 C   0  0  0  0  0  0  0  0  0  0  0  0
   -1.0810    8.9880   -8.0880 C   0  0  0  0  0  0  0  0  0  0  0  0
    0.2370    9.9520   -9.8730 C   0  0  0  0  0  0  0  0  0  0  0  0
   -2.1320    8.0260   -7.6200 C   0  0  0  0  0  0  0  0  0  0  0  0
   -0.7380    9.0570   -9.4410 C   0  0  0  0  0  0  0  0  0  0  0  0
  1  2  1  0
  2  3  2  0
  2  4  1  0
  4  5  1  6
  4  6  1  0
  5  7  1  0
  6  8  2  0
  6  9  1  0
  8 10  1  0
  7 11  2  0
  8 12  1  0
  9 13  2  0
  7 14  1  0
 12 15  2  0
 13 15  1  0
 14 16  2  0
 14 17  1  0
 16 18  1  0
 17 19  2  0
 18 20  1  0
 18 21  2  0
 19 21  1  0
M  END
