mac-x0131-mac-x0567
     RDKit          3D

 19 21  0  0  0  0  0  0  0  0999 V2000
   -3.4280   15.2120   -4.2470 C   0  0  0  0  0  0  0  0  0  0  0  0
   -3.0360   15.0780   -2.8190 C   0  0  0  0  0  0  0  0  0  0  0  0
   -3.8010   15.1950   -1.6640 C   0  0  0  0  0  0  0  0  0  0  0  0
   -1.7330   14.7940   -2.4350 N   0  0  0  0  0  0  0  0  0  0  0  0
   -5.2550   15.4960   -1.5600 C   0  0  0  0  0  0  0  0  0  0  0  0
   -0.5870   14.6020   -3.3210 C   0  0  0  0  0  0  0  0  0  0  0  0
   -2.9370   14.9710   -0.5560 C   0  0  0  0  0  0  0  0  0  0  0  0
   -1.6700   14.7170   -1.0580 C   0  0  0  0  0  0  0  0  0  0  0  0
   -3.0740   14.9540    0.8370 C   0  0  0  0  0  0  0  0  0  0  0  0
   -0.5780   14.4450   -0.3190 N   0  0  0  0  0  0  0  0  0  0  0  0
   -0.4210   13.1720   -3.6560 C   0  0  0  0  0  0  0  0  0  0  0  0
   -4.2630   15.2130    1.5010 N   0  0  0  0  0  0  0  0  0  0  0  0
   -2.0100   14.6730    1.5900 N   0  0  0  0  0  0  0  0  0  0  0  0
   -0.8560   14.4350    0.9960 C   0  0  0  0  0  0  0  0  0  0  0  0
    0.3920   12.1670   -3.1810 C   0  0  0  0  0  0  0  0  0  0  0  0
   -1.2290   12.6870   -4.6410 O   0  0  0  0  0  0  0  0  0  0  0  0
    0.1260   14.1440    1.8850 N   0  0  0  0  0  0  0  0  0  0  0  0
   -0.9300   11.3740   -4.7910 C   0  0  0  0  0  0  0  0  0  0  0  0
    0.0480   11.0070   -3.9140 C   0  0  0  0  0  0  0  0  0  0  0  0
  1  2  1  0
  2  3  2  0
  2  4  1  0
  3  5  1  0
  4  6  1  0
  3  7  1  0
  4  8  1  0
  7  8  2  0
  7  9  1  0
  8 10  1  0
  6 11  1  0
  9 12  1  0
  9 13  2  0
 10 14  2  0
 13 14  1  0
 11 15  2  0
 11 16  1  0
 14 17  1  0
 16 18  1  0
 15 19  1  0
 18 19  2  0
M  END
