mac-x0365-diamond-x0722_0_A
     RDKit          3D

 20 21  0  0  0  0  0  0  0  0999 V2000
   -0.9670   15.2220   -1.9610 O   0  0  0  0  0  0  0  0  0  0  0  0
   -2.0650   14.3440   -1.7720 C   0  0  0  0  0  0  0  0  0  0  0  0
   -1.7490   13.3620   -2.7510 O   0  0  0  0  0  0  0  0  0  0  0  0
   -3.4280   14.9320   -2.2070 C   0  0  1  0  0  0  0  0  0  0  0  0
   -2.0140   13.8210   -0.3020 C   0  0  0  0  0  0  0  0  0  0  0  0
   -3.3810   15.3900   -3.6370 C   0  0  0  0  0  0  0  0  0  0  0  0
   -4.6380   13.8970   -2.2250 C   0  0  1  0  0  0  0  0  0  0  0  0
   -1.5990   14.7350    0.7920 N   0  0  0  0  0  0  0  0  0  0  0  0
   -5.4130   13.7820   -1.0500 O   0  0  0  0  0  0  0  0  0  0  0  0
   -0.1980   14.5250    1.1320 C   0  0  0  0  0  0  0  0  0  0  0  0
   -5.3880   14.1680   -3.5390 C   0  0  2  0  0  0  0  0  0  0  0  0
   -2.4400   14.4910    1.9710 N   0  0  0  0  0  0  0  0  0  0  0  0
   -4.4220   14.9650   -4.3520 C   0  0  0  0  0  0  0  0  0  0  0  0
   -6.4870   14.9240   -3.3270 F   0  0  0  0  0  0  0  0  0  0  0  0
   -6.0910   14.8410   -0.5250 C   0  0  1  0  0  0  0  0  0  0  0  0
   -3.8450   14.8250    1.6940 C   0  0  1  0  0  0  0  0  0  0  0  0
   -4.5170   15.3010    2.9730 C   0  0  0  0  0  0  0  0  0  0  0  0
   -6.8170   14.4260    0.6480 N   0  0  0  0  0  0  0  0  0  0  0  0
   -5.0590   15.8650   -0.3020 C   0  0  0  0  0  0  0  0  0  0  0  0
   -4.1100   15.8470    0.6360 C   0  0  0  0  0  0  0  0  0  0  0  0
  2  1  1  0
  2  3  1  0
  2  4  1  0
  2  5  1  0
  4  6  1  6
  4  7  1  0
  5  8  1  0
  7  9  1  1
  8 10  1  0
  7 11  1  0
  8 12  1  0
  6 13  2  0
 11 13  1  0
 11 14  1  1
  9 15  1  0
 12 16  1  0
 16 17  1  1
 15 18  1  1
 15 19  1  0
 16 20  1  0
 19 20  2  0
M  END
