mac-x0397-diamond-x0864_0_A
     RDKit          3D

 26 28  0  0  0  0  0  0  0  0999 V2000
   -6.4080   15.1850   -2.4580 Cl  0  0  0  0  0  0  0  0  0  0  0  0
   -4.8560   14.9920   -1.7720 C   0  0  0  0  0  0  0  0  0  0  0  0
   -4.8530   14.9160   -0.3820 C   0  0  0  0  0  0  0  0  0  0  0  0
   -3.6800   14.9070   -2.5160 C   0  0  0  0  0  0  0  0  0  0  0  0
   -5.9500   14.9790    0.4560 N   0  0  0  0  0  0  0  0  0  0  0  0
   -3.6250   14.7570    0.2500 C   0  0  0  0  0  0  0  0  0  0  0  0
   -2.4460   14.7380   -1.8620 C   0  0  0  0  0  0  0  0  0  0  0  0
   -1.1550   14.6320   -2.6600 C   0  0  0  0  0  0  0  0  0  0  0  0
   -5.5770   14.8780    1.6910 C   0  0  0  0  0  0  0  0  0  0  0  0
   -3.8890   14.7000    1.9380 S   0  0  0  0  0  0  0  0  0  0  0  0
   -2.4180   14.6640   -0.4550 C   0  0  0  0  0  0  0  0  0  0  0  0
   -6.4610   14.9120    2.6970 N   0  0  0  0  0  0  0  0  0  0  0  0
    0.1050   15.0400   -1.8700 C   0  0  0  0  0  0  0  0  0  0  0  0
    1.3400   14.1820   -2.1510 C   0  0  0  0  0  0  0  0  0  0  0  0
    0.9930   12.7840   -2.0100 N   0  0  0  0  0  0  0  0  0  0  0  0
    0.7000   12.0540   -3.0120 C   0  0  0  0  0  0  0  0  0  0  0  0
    0.6750   12.6010   -4.4290 C   0  0  0  0  0  0  0  0  0  0  0  0
    0.3890   10.7430   -2.9080 O   0  0  0  0  0  0  0  0  0  0  0  0
   -0.1220   11.7550   -5.3150 N   0  0  0  0  0  0  0  0  0  0  0  0
   -1.3030   11.1850   -4.8680 C   0  0  0  0  0  0  0  0  0  0  0  0
    0.4950   11.3470   -6.4850 C   0  0  0  0  0  0  0  0  0  0  0  0
    1.5180   11.8420   -6.9300 O   0  0  0  0  0  0  0  0  0  0  0  0
   -1.8740   10.1760   -5.5380 C   0  0  0  0  0  0  0  0  0  0  0  0
   -0.1340   10.2190   -7.2100 C   0  0  0  0  0  0  0  0  0  0  0  0
   -1.2610    9.6700   -6.7440 C   0  0  0  0  0  0  0  0  0  0  0  0
   -2.0850    8.2410   -7.6110 Br  0  0  0  0  0  0  0  0  0  0  0  0
  1  2  1  0
  2  3  2  0
  2  4  1  0
  3  5  1  0
  3  6  1  0
  4  7  2  0
  7  8  1  0
  5  9  2  0
  6 10  1  0
  9 10  1  0
  6 11  2  0
  7 11  1  0
  9 12  1  0
  8 13  1  0
 13 14  1  0
 14 15  1  0
 15 16  2  3
 16 17  1  0
 16 18  1  0
 17 19  1  0
 19 20  1  0
 19 21  1  0
 21 22  2  0
 20 23  2  0
 21 24  1  0
 23 25  1  0
 24 25  2  0
 25 26  1  0
M  END
