mac-x1493-mac-x0439
     RDKit          3D

 27 30  0  0  0  0  0  0  0  0999 V2000
   -1.3280   14.7270   -1.2670 O   0  0  0  0  0  0  0  0  0  0  0  0
   -2.3460   14.8720   -2.1320 C   0  0  0  0  0  0  0  0  0  0  0  0
   -2.1720   15.0450   -3.3760 N   0  0  0  0  0  0  0  0  0  0  0  0
   -3.6670   14.8110   -1.5100 C   0  0  0  0  0  0  0  0  0  0  0  0
   -3.3720   15.1950   -4.1690 C   0  0  0  0  0  0  0  0  0  0  0  0
   -3.7620   14.9550   -0.1390 C   0  0  0  0  0  0  0  0  0  0  0  0
   -4.8310   14.6070   -2.2330 C   0  0  0  0  0  0  0  0  0  0  0  0
   -2.9770   15.8100   -5.4970 C   0  0  0  0  0  0  0  0  0  0  0  0
   -5.0140   14.8770    0.4620 C   0  0  0  0  0  0  0  0  0  0  0  0
   -6.0570   14.5310   -1.6820 N   0  0  0  0  0  0  0  0  0  0  0  0
   -6.1460   14.6590   -0.3520 C   0  0  0  0  0  0  0  0  0  0  0  0
   -5.1600   15.0050    1.8410 C   0  0  0  0  0  0  0  0  0  0  0  0
   -1.6730   16.5740   -5.4780 C   0  0  0  0  0  0  0  0  0  0  0  0
   -7.3900   14.5720    0.2520 C   0  0  0  0  0  0  0  0  0  0  0  0
   -6.4240   14.9110    2.4240 C   0  0  0  0  0  0  0  0  0  0  0  0
   -0.3600   15.8750   -5.1950 C   0  0  2  0  0  0  0  0  0  0  0  0
   -1.6360   17.8910   -5.7600 C   0  0  0  0  0  0  0  0  0  0  0  0
   -7.5400   14.6930    1.6310 C   0  0  0  0  0  0  0  0  0  0  0  0
   -0.0800   14.7520   -4.2710 C   0  0  0  0  0  0  0  0  0  0  0  0
    0.6940   16.8190   -4.7040 C   0  0  0  0  0  0  0  0  0  0  0  0
   -0.3920   18.6360   -5.7920 C   0  0  0  0  0  0  0  0  0  0  0  0
    1.0030   15.0690   -3.5550 C   0  0  0  0  0  0  0  0  0  0  0  0
    1.4680   16.3290   -3.8090 N   0  0  0  0  0  0  0  0  0  0  0  0
    0.7640   18.1650   -5.2950 C   0  0  0  0  0  0  0  0  0  0  0  0
    1.6180   14.1230   -2.5890 C   0  0  0  0  0  0  0  0  0  0  0  0
    2.9600   14.2680   -2.5020 O   0  0  0  0  0  0  0  0  0  0  0  0
    1.0320   13.2820   -1.9330 O   0  0  0  0  0  0  0  0  0  0  0  0
  1  2  1  0
  2  3  2  3
  2  4  1  0
  3  5  1  0
  4  6  2  0
  4  7  1  0
  5  8  1  0
  6  9  1  0
  7 10  2  0
  9 11  2  0
 10 11  1  0
  9 12  1  0
  8 13  1  0
 11 14  1  0
 12 15  2  0
 13 16  1  0
 13 17  2  0
 14 18  2  0
 15 18  1  0
 16 19  1  1
 16 20  1  0
 17 21  1  0
 19 22  2  0
 20 23  2  0
 22 23  1  0
 20 24  1  0
 21 24  2  0
 22 25  1  0
 25 26  1  0
 25 27  2  0
M  END
