mac-x0527-mac-x0392
     RDKit          3D

 24 26  0  0  0  0  0  0  0  0999 V2000
   -3.4580   15.0500   -3.9540 O   0  0  0  0  0  0  0  0  0  0  0  0
   -3.0040   14.9890   -2.8050 C   0  0  0  0  0  0  0  0  0  0  0  0
   -1.4800   15.0840   -2.4580 C   0  0  1  0  0  0  0  0  0  0  0  0
   -3.9180   14.8330   -1.6130 C   0  0  0  0  0  0  0  0  0  0  0  0
   -0.4920   14.2380   -3.3220 C   0  0  0  0  0  0  0  0  0  0  0  0
   -1.0510   16.4210   -2.7750 O   0  0  0  0  0  0  0  0  0  0  0  0
   -5.2320   15.3050   -1.6050 C   0  0  0  0  0  0  0  0  0  0  0  0
   -3.4100   14.2120   -0.5060 N   0  0  0  0  0  0  0  0  0  0  0  0
   -1.5910   14.9910   -0.9440 C   0  0  0  0  0  0  0  0  0  0  0  0
   -0.8070   13.0560   -4.2260 C   0  0  0  0  0  0  0  0  0  0  0  0
   -6.0520   15.1830   -0.5220 N   0  0  0  0  0  0  0  0  0  0  0  0
   -4.2300   14.0970    0.5690 C   0  0  0  0  0  0  0  0  0  0  0  0
   -0.7170   14.3400   -0.0450 C   0  0  0  0  0  0  0  0  0  0  0  0
   -2.7170   15.6280   -0.3980 C   0  0  0  0  0  0  0  0  0  0  0  0
    0.4570   13.6750   -0.4250 N   0  0  0  0  0  0  0  0  0  0  0  0
   -1.8490   12.1430   -4.0490 C   0  0  0  0  0  0  0  0  0  0  0  0
    0.0570   12.8830   -5.3290 C   0  0  0  0  0  0  0  0  0  0  0  0
   -5.5220   14.5740    0.5650 C   0  0  0  0  0  0  0  0  0  0  0  0
   -2.9550   15.5890    0.9570 C   0  0  0  0  0  0  0  0  0  0  0  0
   -1.0550   14.3640    1.3040 C   0  0  0  0  0  0  0  0  0  0  0  0
   -2.0200   11.0820   -4.9470 C   0  0  0  0  0  0  0  0  0  0  0  0
   -0.1140   11.8280   -6.2210 C   0  0  0  0  0  0  0  0  0  0  0  0
   -2.1420   14.9560    1.8220 N   0  0  0  0  0  0  0  0  0  0  0  0
   -1.1530   10.9250   -6.0300 C   0  0  0  0  0  0  0  0  0  0  0  0
  1  2  2  0
  2  3  1  0
  2  4  1  0
  3  5  1  0
  3  6  1  1
  4  7  2  0
  4  8  1  0
  3  9  1  0
  5 10  1  0
  7 11  1  0
  8 12  2  0
  9 13  2  0
  9 14  1  0
 13 15  1  0
 10 16  2  0
 10 17  1  0
 11 18  2  0
 12 18  1  0
 14 19  2  0
 13 20  1  0
 16 21  1  0
 17 22  2  0
 19 23  1  0
 20 23  2  0
 21 24  2  0
 22 24  1  0
M  END
