mac-x0333-diamond-x0766_0_A
     RDKit          3D

 21 24  0  0  0  0  0  0  0  0999 V2000
   -3.7260   16.3630   -2.3780 O   0  0  0  0  0  0  0  0  0  0  0  0
   -3.6930   15.0070   -2.1820 C   0  0  1  0  0  0  0  0  0  0  0  0
   -2.9140   14.8330   -0.9140 C   0  0  0  0  0  0  0  0  0  0  0  0
   -5.1230   14.6630   -2.1570 C   0  0  0  0  0  0  0  0  0  0  0  0
   -2.7570   14.7210   -3.2620 C   0  0  0  0  0  0  0  0  0  0  0  0
   -5.7050   14.6400   -0.9600 C   0  0  0  0  0  0  0  0  0  0  0  0
   -3.6300   14.9890    0.3450 C   0  0  0  0  0  0  0  0  0  0  0  0
   -1.5470   14.5410   -2.7360 C   0  0  0  0  0  0  0  0  0  0  0  0
   -1.6230   14.5750   -1.2540 C   0  0  0  0  0  0  0  0  0  0  0  0
   -4.9890   14.8940    0.2650 C   0  0  0  0  0  0  0  0  0  0  0  0
   -7.0210   14.3740   -0.7180 O   0  0  0  0  0  0  0  0  0  0  0  0
   -0.3700   14.3770   -3.6330 C   0  0  2  0  0  0  0  0  0  0  0  0
   -5.8870   15.0080    1.2860 O   0  0  0  0  0  0  0  0  0  0  0  0
   -7.0630   14.4080    0.7130 C   0  0  0  0  0  0  0  0  0  0  0  0
    0.2290   12.9960   -3.9180 C   0  0  2  0  0  0  0  0  0  0  0  0
    0.8500   15.2220   -3.3050 C   0  0  0  0  0  0  0  0  0  0  0  0
    0.5490   12.2300   -2.6660 C   0  0  0  0  0  0  0  0  0  0  0  0
    1.4710   13.3600   -4.7550 C   0  0  0  0  0  0  0  0  0  0  0  0
    1.7720   14.8330   -4.4340 C   0  0  0  0  0  0  0  0  0  0  0  0
    1.2380   12.6580   -1.7620 O   0  0  0  0  0  0  0  0  0  0  0  0
    0.0140   10.9990   -2.5880 O   0  0  0  0  0  0  0  0  0  0  0  0
  2  1  1  6
  2  3  1  0
  2  4  1  0
  2  5  1  0
  4  6  2  0
  3  7  1  0
  5  8  2  0
  3  9  2  0
  8  9  1  0
  6 10  1  0
  7 10  2  0
  6 11  1  0
 12  8  1  1
 10 13  1  0
 11 14  1  0
 13 14  1  0
 12 15  1  0
 12 16  1  0
 15 17  1  1
 15 18  1  0
 16 19  1  0
 18 19  1  0
 17 20  2  0
 17 21  1  0
M  END
