mac-x0321-diamond-x0895_0_A
     RDKit          3D

 17 18  0  0  0  0  0  0  0  0999 V2000
   -6.0610   11.4290   -0.4450 Cl  0  0  0  0  0  0  0  0  0  0  0  0
   -5.2200   12.7960   -0.9220 C   0  0  0  0  0  0  0  0  0  0  0  0
   -4.0130   12.7780   -1.6810 C   0  0  0  0  0  0  0  0  0  0  0  0
   -5.8480   13.8970   -0.4820 C   0  0  0  0  0  0  0  0  0  0  0  0
   -3.3990   13.9920   -1.9830 C   0  0  0  0  0  0  0  0  0  0  0  0
   -5.2600   15.0090   -0.7610 C   0  0  0  0  0  0  0  0  0  0  0  0
   -2.1260   14.1590   -2.7550 C   0  0  0  0  0  0  0  0  0  0  0  0
   -4.0850   15.0270   -1.4600 C   0  0  0  0  0  0  0  0  0  0  0  0
   -1.0490   14.2810   -1.9520 O   0  0  0  0  0  0  0  0  0  0  0  0
   -1.9960   14.2020   -3.9650 O   0  0  0  0  0  0  0  0  0  0  0  0
   -3.9270   16.2310   -1.3660 N   0  0  0  0  0  0  0  0  0  0  0  0
   -3.7370   15.9390   -0.0870 C   0  0  0  0  0  0  0  0  0  0  0  0
   -3.6290   16.6920    1.0550 N   0  0  0  0  0  0  0  0  0  0  0  0
   -3.5700   14.6410    0.3320 N   0  0  0  0  0  0  0  0  0  0  0  0
   -3.9170   15.7430    2.1240 C   0  0  0  0  0  0  0  0  0  0  0  0
   -2.9770   14.7530    1.5380 C   0  0  0  0  0  0  0  0  0  0  0  0
   -1.9630   14.2450    1.9980 O   0  0  0  0  0  0  0  0  0  0  0  0
  1  2  1  0
  2  3  2  0
  2  4  1  0
  3  5  1  0
  4  6  2  0
  5  7  1  0
  5  8  2  0
  6  8  1  0
  7  9  1  0
  7 10  2  0
  8 11  1  0
 11 12  2  3
 12 13  1  0
 12 14  1  0
 13 15  1  0
 14 16  1  0
 15 16  1  0
 16 17  2  0
M  END
