mac-x0385-mac-x0373
     RDKit          3D

 19 20  0  0  0  0  0  0  0  0999 V2000
   -5.2250   15.6020   -0.7860 C   0  0  0  0  0  0  0  0  0  0  0  0
   -4.0630   14.6490   -0.4940 C   0  0  1  0  0  0  0  0  0  0  0  0
   -2.9820   14.8470   -1.5750 C   0  0  0  0  0  0  0  0  0  0  0  0
   -3.5250   14.7480    0.9390 C   0  0  2  0  0  0  0  0  0  0  0  0
   -4.3330   15.5420    1.8200 N   0  0  0  0  0  0  0  0  0  0  0  0
   -2.2610   15.3730    1.0080 N   0  0  0  0  0  0  0  0  0  0  0  0
   -1.5690   14.6950   -1.1700 N   0  0  0  0  0  0  0  0  0  0  0  0
   -0.8480   13.6570   -1.9680 C   0  0  2  0  0  0  0  0  0  0  0  0
   -1.3020   14.5870    0.2750 C   0  0  1  0  0  0  0  0  0  0  0  0
    0.0570   15.1130    0.7280 C   0  0  0  0  0  0  0  0  0  0  0  0
    0.5950   14.0660   -2.2000 C   0  0  0  0  0  0  0  0  0  0  0  0
   -1.4930   12.8720   -3.1270 C   0  0  0  0  0  0  0  0  0  0  0  0
    1.4110   12.9960   -2.1190 O   0  0  0  0  0  0  0  0  0  0  0  0
    1.0640   15.1640   -2.4290 O   0  0  0  0  0  0  0  0  0  0  0  0
   -0.9840   12.8940   -4.4440 C   0  0  0  0  0  0  0  0  0  0  0  0
   -2.6260   12.0730   -2.8780 C   0  0  0  0  0  0  0  0  0  0  0  0
   -1.5830   12.1420   -5.4600 C   0  0  0  0  0  0  0  0  0  0  0  0
   -3.2210   11.3240   -3.8950 C   0  0  0  0  0  0  0  0  0  0  0  0
   -2.6990   11.3570   -5.1840 C   0  0  0  0  0  0  0  0  0  0  0  0
  2  1  1  6
  2  3  1  0
  2  4  1  0
  4  5  1  1
  4  6  1  0
  3  7  1  0
  7  8  1  0
  6  9  1  0
  7  9  1  0
  9 10  1  6
  8 11  1  6
  8 12  1  0
 11 13  1  0
 11 14  2  0
 12 15  2  0
 12 16  1  0
 15 17  1  0
 16 18  2  0
 17 19  2  0
 18 19  1  0
M  END
