mac-x0212-mac-x0132
     RDKit          3D

 18 19  0  0  0  0  0  0  0  0999 V2000
   -6.5560   12.3470    1.9240 C   0  0  0  0  0  0  0  0  0  0  0  0
   -8.0030   13.1500    1.2840 S   0  0  0  0  0  0  0  0  0  0  0  0
   -8.1930   14.4000    2.0130 O   0  0  0  0  0  0  0  0  0  0  0  0
   -7.8980   13.0290   -0.2510 N   0  0  0  0  0  0  0  0  0  0  0  0
   -6.9360   13.9570   -0.8540 N   0  0  0  0  0  0  0  0  0  0  0  0
   -5.5270   13.5230   -0.7670 C   0  0  0  0  0  0  0  0  0  0  0  0
   -7.0650   15.1660   -0.1090 C   0  0  0  0  0  0  0  0  0  0  0  0
   -4.5170   14.5890   -0.2440 C   0  0  1  0  0  0  0  0  0  0  0  0
   -6.4540   14.9770    1.2140 N   0  0  0  0  0  0  0  0  0  0  0  0
   -3.1310   14.0330    0.0120 C   0  0  0  0  0  0  0  0  0  0  0  0
   -4.4510   15.6050   -1.3620 C   0  0  0  0  0  0  0  0  0  0  0  0
   -5.0290   15.2070    1.0540 C   0  0  0  0  0  0  0  0  0  0  0  0
   -2.2860   13.8570   -0.9950 C   0  0  0  0  0  0  0  0  0  0  0  0
   -3.6020   15.4160   -2.3780 C   0  0  0  0  0  0  0  0  0  0  0  0
   -2.7070   14.2030   -2.3940 C   0  0  1  0  0  0  0  0  0  0  0  0
   -1.5020   14.3610   -3.3130 C   0  0  0  0  0  0  0  0  0  0  0  0
   -0.3270   14.2120   -3.0220 O   0  0  0  0  0  0  0  0  0  0  0  0
   -1.8450   14.6860   -4.5790 O   0  0  0  0  0  0  0  0  0  0  0  0
  1  2  1  0
  2  3  2  0
  2  4  2  0
  4  5  1  0
  5  6  1  0
  5  7  1  0
  8  6  1  6
  7  9  1  0
  8 10  1  0
  8 11  1  0
  8 12  1  0
  9 12  1  0
 10 13  2  0
 11 14  2  0
 13 15  1  0
 14 15  1  0
 15 16  1  6
 16 17  2  0
 16 18  1  0
M  END
