mac-x0379-diamond-x0950_1_A
     RDKit          3D

 16 16  0  0  0  0  0  0  0  0999 V2000
   -5.3640   15.0060    0.2750 C   0  0  0  0  0  0  0  0  0  0  0  0
   -4.4430   15.0160   -0.8830 C   0  0  0  0  0  0  0  0  0  0  0  0
   -4.8170   15.1540   -2.1340 N   0  0  0  0  0  0  0  0  0  0  0  0
   -2.7590   14.8370   -0.6300 S   0  0  0  0  0  0  0  0  0  0  0  0
   -3.7040   15.1390   -2.9460 C   0  0  0  0  0  0  0  0  0  0  0  0
   -2.4850   14.9840   -2.3160 C   0  0  0  0  0  0  0  0  0  0  0  0
   -1.1880   14.9610   -2.9290 C   0  0  0  0  0  0  0  0  0  0  0  0
   -0.7600   14.8480   -4.1100 N   0  0  0  0  0  0  0  0  0  0  0  0
   -0.2020   15.1180   -2.0250 O   0  0  0  0  0  0  0  0  0  0  0  0
    0.6620   14.8820   -4.3820 C   0  0  0  0  0  0  0  0  0  0  0  0
    0.9160   13.7200   -5.3220 C   0  0  0  0  0  0  0  0  0  0  0  0
    1.2700   12.3820   -4.7070 C   0  0  2  0  0  0  0  0  0  0  0  0
    0.6750   11.4100   -5.5690 O   0  0  0  0  0  0  0  0  0  0  0  0
    0.9080   12.1210   -3.2340 C   0  0  0  0  0  0  0  0  0  0  0  0
    0.1080   11.3170   -2.7970 O   0  0  0  0  0  0  0  0  0  0  0  0
    1.6170   12.8950   -2.3810 O   0  0  0  0  0  0  0  0  0  0  0  0
  1  2  1  0
  2  3  2  0
  2  4  1  0
  3  5  1  0
  4  6  1  0
  5  6  2  0
  6  7  1  0
  7  8  2  3
  7  9  1  0
  8 10  1  0
 10 11  1  0
 11 12  1  0
 12 13  1  6
 12 14  1  0
 14 15  2  0
 14 16  1  0
M  END
