mac-x0361-mac-x0204
     RDKit          3D

 20 21  0  0  0  0  0  0  0  0999 V2000
   -6.2880   14.8280    1.6960 N   0  0  0  0  0  0  0  0  0  0  0  0
   -6.3960   14.6690    0.3350 C   0  0  0  0  0  0  0  0  0  0  0  0
   -7.4620   14.2950   -0.1430 O   0  0  0  0  0  0  0  0  0  0  0  0
   -5.2230   14.9840   -0.5330 C   0  0  0  0  0  0  0  0  0  0  0  0
   -3.9470   15.2320   -0.0090 C   0  0  0  0  0  0  0  0  0  0  0  0
   -5.4070   15.0310   -1.9190 C   0  0  0  0  0  0  0  0  0  0  0  0
   -2.8710   15.5290   -0.8610 C   0  0  0  0  0  0  0  0  0  0  0  0
   -4.3340   15.3250   -2.7650 C   0  0  0  0  0  0  0  0  0  0  0  0
   -3.0580   15.5830   -2.2460 C   0  0  0  0  0  0  0  0  0  0  0  0
   -2.0530   15.8790   -3.1740 O   0  0  0  0  0  0  0  0  0  0  0  0
   -1.8870   14.8490   -4.0370 C   0  0  0  0  0  0  0  0  0  0  0  0
   -0.9380   13.8520   -3.8210 C   0  0  0  0  0  0  0  0  0  0  0  0
   -2.7140   14.8030   -5.1600 C   0  0  0  0  0  0  0  0  0  0  0  0
    0.0020   13.8650   -2.6810 C   0  0  0  0  0  0  0  0  0  0  0  0
   -3.6150   15.8000   -5.3930 O   0  0  0  0  0  0  0  0  0  0  0  0
   -2.5940   13.7330   -6.0120 C   0  0  0  0  0  0  0  0  0  0  0  0
   -0.8980   12.8200   -4.7370 C   0  0  0  0  0  0  0  0  0  0  0  0
    0.2750   12.6210   -2.2470 O   0  0  0  0  0  0  0  0  0  0  0  0
    0.5190   14.8390   -2.1710 O   0  0  0  0  0  0  0  0  0  0  0  0
   -1.7100   12.7330   -5.8220 N   0  0  0  0  0  0  0  0  0  0  0  0
  1  2  1  0
  2  3  2  0
  2  4  1  0
  4  5  2  0
  4  6  1  0
  5  7  1  0
  6  8  2  0
  7  9  2  0
  8  9  1  0
  9 10  1  0
 10 11  1  0
 11 12  2  0
 11 13  1  0
 12 14  1  0
 13 15  1  0
 13 16  2  0
 12 17  1  0
 14 18  1  0
 14 19  2  0
 16 20  1  0
 17 20  2  0
M  END
