mac-x0193-diamond-x1012_0_A
     RDKit          3D

 24 25  0  0  0  0  0  0  0  0999 V2000
    0.3630   10.3770   -2.8540 O   0  0  0  0  0  0  0  0  0  0  0  0
    0.9460   11.6520   -3.1580 C   0  0  2  0  0  0  0  0  0  0  0  0
    0.3950   12.8190   -2.4010 C   0  0  0  0  0  0  0  0  0  0  0  0
    0.9060   12.0770   -4.6670 C   0  0  0  0  0  0  0  0  0  0  0  0
    0.1510   11.2660   -5.6280 N   0  0  0  0  0  0  0  0  0  0  0  0
    0.2840   12.8740   -1.1650 O   0  0  0  0  0  0  0  0  0  0  0  0
   -0.0090   13.9240   -3.3420 C   0  0  0  0  0  0  0  0  0  0  0  0
    0.6430   11.1300   -6.9010 C   0  0  0  0  0  0  0  0  0  0  0  0
   -1.4740   14.2860   -3.3000 C   0  0  0  0  0  0  0  0  0  0  0  0
    0.9060   15.1230   -3.4610 C   0  0  0  0  0  0  0  0  0  0  0  0
    1.7200   11.5800   -7.1830 O   0  0  0  0  0  0  0  0  0  0  0  0
   -0.2120   10.4560   -7.7440 N   0  0  0  0  0  0  0  0  0  0  0  0
   -1.7750   15.0240   -4.5990 C   0  0  0  0  0  0  0  0  0  0  0  0
    0.6370   15.7740   -4.8060 C   0  0  0  0  0  0  0  0  0  0  0  0
    0.1950    9.6450   -8.9040 C   0  0  0  0  0  0  0  0  0  0  0  0
   -0.7940   16.0770   -4.9340 N   0  0  0  0  0  0  0  0  0  0  0  0
   -1.2770   17.3410   -4.8300 C   0  0  0  0  0  0  0  0  0  0  0  0
    1.3080    8.6620   -8.5700 C   0  0  0  0  0  0  0  0  0  0  0  0
    0.5590   10.5040  -10.1100 C   0  0  0  0  0  0  0  0  0  0  0  0
   -0.3710   18.3370   -4.7630 N   0  0  0  0  0  0  0  0  0  0  0  0
   -2.4570   17.6200   -4.7850 O   0  0  0  0  0  0  0  0  0  0  0  0
    2.0320    8.1420   -9.8190 C   0  0  0  0  0  0  0  0  0  0  0  0
    0.7420    9.6570  -11.3750 C   0  0  0  0  0  0  0  0  0  0  0  0
    1.1540    8.2200  -11.0600 C   0  0  0  0  0  0  0  0  0  0  0  0
  2  1  1  6
  2  3  1  0
  2  4  1  0
  4  5  1  0
  3  6  2  0
  3  7  1  0
  5  8  1  0
  7  9  1  0
  7 10  1  0
  8 11  2  0
  8 12  1  0
  9 13  1  0
 10 14  1  0
 12 15  1  0
 13 16  1  0
 14 16  1  0
 16 17  1  0
 15 18  1  0
 15 19  1  0
 17 20  1  0
 17 21  2  0
 18 22  1  0
 19 23  1  0
 22 24  1  0
 23 24  1  0
M  END
