mac-x0206-mac-x0326
     RDKit          3D

 24 26  0  0  0  0  0  0  0  0999 V2000
   -3.2510   13.9430    0.6380 N   0  0  0  0  0  0  0  0  0  0  0  0
   -4.2620   13.7940   -0.2680 C   0  0  0  0  0  0  0  0  0  0  0  0
   -4.0150   13.3530   -1.3850 O   0  0  0  0  0  0  0  0  0  0  0  0
   -5.6510   14.1710    0.1040 C   0  0  0  0  0  0  0  0  0  0  0  0
   -6.4920   14.9480   -0.6920 C   0  0  0  0  0  0  0  0  0  0  0  0
   -6.1250   13.7070    1.3270 C   0  0  0  0  0  0  0  0  0  0  0  0
   -5.9770   15.3960   -1.8830 O   0  0  0  0  0  0  0  0  0  0  0  0
   -7.7960   15.2480   -0.2730 C   0  0  0  0  0  0  0  0  0  0  0  0
   -7.4130   14.0080    1.7620 C   0  0  0  0  0  0  0  0  0  0  0  0
   -8.2550   14.7770    0.9610 C   0  0  0  0  0  0  0  0  0  0  0  0
   -4.5990   15.4560   -1.7910 C   0  0  0  0  0  0  0  0  0  0  0  0
   -3.8370   15.1260   -2.9160 C   0  0  0  0  0  0  0  0  0  0  0  0
   -3.9760   15.8240   -0.5940 C   0  0  0  0  0  0  0  0  0  0  0  0
   -2.4260   15.1580   -2.8280 C   0  0  0  0  0  0  0  0  0  0  0  0
   -2.5850   15.8640   -0.4900 C   0  0  0  0  0  0  0  0  0  0  0  0
   -1.5340   14.8490   -3.8490 N   0  0  0  0  0  0  0  0  0  0  0  0
   -1.8290   15.5240   -1.6170 C   0  0  0  0  0  0  0  0  0  0  0  0
   -0.2890   14.9710   -3.4260 C   0  0  0  0  0  0  0  0  0  0  0  0
   -0.1200   15.4700   -1.7890 S   0  0  0  0  0  0  0  0  0  0  0  0
    0.9400   14.7110   -4.2580 C   0  0  0  0  0  0  0  0  0  0  0  0
    1.0930   13.2300   -4.6270 C   0  0  0  0  0  0  0  0  0  0  0  0
    1.1270   12.3470   -3.4020 C   0  0  0  0  0  0  0  0  0  0  0  0
    0.2940   11.2830   -3.4950 O   0  0  0  0  0  0  0  0  0  0  0  0
    1.8210   12.5360   -2.4180 O   0  0  0  0  0  0  0  0  0  0  0  0
  1  2  1  0
  2  3  2  0
  2  4  1  0
  4  5  2  0
  4  6  1  0
  5  7  1  0
  5  8  1  0
  6  9  2  0
  8 10  2  0
  9 10  1  0
  7 11  1  0
 11 12  2  0
 11 13  1  0
 12 14  1  0
 13 15  2  0
 14 16  1  0
 14 17  2  0
 15 17  1  0
 16 18  2  0
 17 19  1  0
 18 19  1  0
 18 20  1  0
 20 21  1  0
 21 22  1  0
 22 23  1  0
 22 24  2  0
M  END
