mac-x0224-diamond-x0933_0_A
     RDKit          3D

 17 18  0  0  0  0  0  0  0  0999 V2000
   -2.2240   14.6590    1.2030 S   0  0  0  0  0  0  0  0  0  0  0  0
   -2.2390   14.6630   -0.5880 C   0  0  0  0  0  0  0  0  0  0  0  0
   -3.3270   14.9220   -1.4580 C   0  0  0  0  0  0  0  0  0  0  0  0
   -1.0070   14.3820   -1.0950 C   0  0  0  0  0  0  0  0  0  0  0  0
   -0.7940   14.3430   -2.4490 C   0  0  0  0  0  0  0  0  0  0  0  0
   -3.1100   14.8800   -2.8430 C   0  0  0  0  0  0  0  0  0  0  0  0
   -4.6290   15.2400   -0.8220 C   0  0  1  0  0  0  0  0  0  0  0  0
    0.5930   14.0300   -2.7900 C   0  0  0  0  0  0  0  0  0  0  0  0
   -1.8410   14.5910   -3.3420 C   0  0  0  0  0  0  0  0  0  0  0  0
   -5.6190   14.1780   -0.5560 N   0  0  0  0  0  0  0  0  0  0  0  0
   -4.2240   16.0370    0.4000 C   0  0  0  0  0  0  0  0  0  0  0  0
   -1.7150   14.5720   -4.7000 O   0  0  0  0  0  0  0  0  0  0  0  0
    1.5090   14.0120   -1.9950 O   0  0  0  0  0  0  0  0  0  0  0  0
    0.7760   13.7590   -4.0840 O   0  0  0  0  0  0  0  0  0  0  0  0
   -5.7610   13.8170    0.8390 C   0  0  0  0  0  0  0  0  0  0  0  0
   -4.3040   15.3320    1.7210 C   0  0  0  0  0  0  0  0  0  0  0  0
   -4.4770   13.9380    1.4460 N   0  0  0  0  0  0  0  0  0  0  0  0
  1  2  1  0
  2  3  2  0
  2  4  1  0
  4  5  2  0
  3  6  1  0
  7  3  1  1
  5  8  1  0
  5  9  1  0
  6  9  2  0
  7 10  1  0
  7 11  1  0
  9 12  1  0
  8 13  2  0
  8 14  1  0
 10 15  1  0
 11 16  1  0
 15 17  1  0
 16 17  1  0
M  END
