mac-x0305-mac-x0404
     RDKit          3D

 24 26  0  0  0  0  0  0  0  0999 V2000
    0.3520   12.9080   -1.3570 O   0  0  0  0  0  0  0  0  0  0  0  0
   -0.0290   14.2250   -1.5520 C   0  0  0  0  0  0  0  0  0  0  0  0
    0.6450   15.0460   -2.1320 O   0  0  0  0  0  0  0  0  0  0  0  0
    0.6440   12.0090   -2.3990 C   0  0  0  0  0  0  0  0  0  0  0  0
    0.5550   10.7740   -2.3100 O   0  0  0  0  0  0  0  0  0  0  0  0
    1.1130   12.6660   -3.7300 C   0  0  0  0  0  0  0  0  0  0  0  0
   -1.4160   14.5900   -0.9780 C   0  0  0  0  0  0  0  0  0  0  0  0
    1.0750   14.0860   -3.8650 O   0  0  0  0  0  0  0  0  0  0  0  0
   -1.7540   14.7560    0.4040 C   0  0  0  0  0  0  0  0  0  0  0  0
   -2.3740   14.7730   -1.9530 N   0  0  0  0  0  0  0  0  0  0  0  0
   -0.8930   14.6070    1.4660 O   0  0  0  0  0  0  0  0  0  0  0  0
   -3.0750   15.1090    0.7210 C   0  0  0  0  0  0  0  0  0  0  0  0
   -3.6280   15.1150   -1.5940 C   0  0  0  0  0  0  0  0  0  0  0  0
   -0.1200   14.5630   -4.3810 C   0  0  0  0  0  0  0  0  0  0  0  0
   -4.0210   15.2930   -0.2850 C   0  0  0  0  0  0  0  0  0  0  0  0
   -0.2130   15.9060   -4.7960 C   0  0  0  0  0  0  0  0  0  0  0  0
   -1.2120   13.7070   -4.4750 C   0  0  0  0  0  0  0  0  0  0  0  0
   -1.4450   16.3820   -5.3060 C   0  0  0  0  0  0  0  0  0  0  0  0
   -2.4230   14.1810   -4.9790 C   0  0  0  0  0  0  0  0  0  0  0  0
    0.8680   16.7880   -4.7240 C   0  0  0  0  0  0  0  0  0  0  0  0
   -2.5400   15.5100   -5.3880 C   0  0  0  0  0  0  0  0  0  0  0  0
   -1.5480   17.7140   -5.7230 C   0  0  0  0  0  0  0  0  0  0  0  0
    0.7590   18.1080   -5.1430 C   0  0  0  0  0  0  0  0  0  0  0  0
   -0.4560   18.5710   -5.6440 C   0  0  0  0  0  0  0  0  0  0  0  0
  1  2  1  0
  2  3  2  0
  1  4  1  0
  4  5  2  0
  4  6  1  0
  2  7  1  0
  6  8  1  0
  7  9  2  0
  7 10  1  0
  9 11  1  0
  9 12  1  0
 10 13  2  0
  8 14  1  0
 12 15  2  0
 13 15  1  0
 14 16  1  0
 14 17  2  0
 16 18  2  0
 17 19  1  0
 16 20  1  0
 18 21  1  0
 19 21  2  0
 18 22  1  0
 20 23  2  0
 22 24  2  0
 23 24  1  0
M  END
