mac-x0348-mac-x0496
     RDKit          3D

 35 38  0  0  0  0  0  0  0  0999 V2000
    0.4830   18.7540   -6.1410 C   0  0  0  0  0  0  0  0  0  0  0  0
    0.0260   17.5570   -5.4920 N   0  0  0  0  0  0  0  0  0  0  0  0
    0.7910   16.8070   -4.6590 C   0  0  0  0  0  0  0  0  0  0  0  0
   -1.2180   17.0010   -5.6050 C   0  0  0  0  0  0  0  0  0  0  0  0
    0.0780   15.7360   -4.2260 C   0  0  0  0  0  0  0  0  0  0  0  0
   -1.2030   15.8380   -4.8290 C   0  0  0  0  0  0  0  0  0  0  0  0
   -2.3560   17.3910   -6.3070 C   0  0  0  0  0  0  0  0  0  0  0  0
    0.5830   14.6770   -3.2720 C   0  0  2  0  0  0  0  0  0  0  0  0
   -2.3540   15.0400   -4.7760 C   0  0  0  0  0  0  0  0  0  0  0  0
   -3.4740   16.5650   -6.2040 C   0  0  0  0  0  0  0  0  0  0  0  0
    0.8170   13.3290   -3.9730 C   0  0  0  0  0  0  0  0  0  0  0  0
   -0.4600   14.5070   -2.1600 C   0  0  0  0  0  0  0  0  0  0  0  0
   -3.4820   15.4120   -5.4650 C   0  0  0  0  0  0  0  0  0  0  0  0
    0.9350   12.2680   -2.9180 C   0  0  0  0  0  0  0  0  0  0  0  0
   -1.7320   14.7890   -2.7910 N   0  0  0  0  0  0  0  0  0  0  0  0
    1.5100   12.4320   -1.8680 O   0  0  0  0  0  0  0  0  0  0  0  0
    0.3280   11.0970   -3.2170 O   0  0  0  0  0  0  0  0  0  0  0  0
   -2.8730   14.9500   -2.2990 C   0  0  0  0  0  0  0  0  0  0  0  0
   -3.8490   15.2150   -3.1830 O   0  0  0  0  0  0  0  0  0  0  0  0
   -3.4430   14.9310   -0.9850 C   0  0  0  0  0  0  0  0  0  0  0  0
   -2.6310   15.0460    0.1460 C   0  0  0  0  0  0  0  0  0  0  0  0
   -4.8130   14.7960   -0.8860 C   0  0  0  0  0  0  0  0  0  0  0  0
   -3.2150   15.0400    1.3990 C   0  0  0  0  0  0  0  0  0  0  0  0
   -5.3840   14.7800    0.3660 C   0  0  0  0  0  0  0  0  0  0  0  0
   -6.8450   14.6100    0.4790 C   0  0  0  0  0  0  0  0  0  0  0  0
   -4.5930   14.9140    1.4990 C   0  0  0  0  0  0  0  0  0  0  0  0
   -7.2430   13.9640    1.6340 N   0  0  0  0  0  0  0  0  0  0  0  0
   -7.5990   15.0010   -0.4020 O   0  0  0  0  0  0  0  0  0  0  0  0
   -8.6450   13.7680    1.9360 C   0  0  0  0  0  0  0  0  0  0  0  0
   -9.1620   15.0360    2.4860 C   0  0  0  0  0  0  0  0  0  0  0  0
  -10.0340   15.7440    1.7000 O   0  0  0  0  0  0  0  0  0  0  0  0
   -8.9040   15.6020    3.6360 N   0  0  0  0  0  0  0  0  0  0  0  0
   -9.6460   16.7370    3.5780 C   0  0  0  0  0  0  0  0  0  0  0  0
  -10.3390   16.8750    2.4370 N   0  0  0  0  0  0  0  0  0  0  0  0
   -9.6500   17.7040    4.7020 C   0  0  0  0  0  0  0  0  0  0  0  0
  1  2  1  0
  2  3  1  0
  2  4  1  0
  3  5  2  0
  4  6  2  0
  5  6  1  0
  4  7  1  0
  5  8  1  0
  6  9  1  0
  7 10  2  0
  8 11  1  6
  8 12  1  0
  9 13  2  0
 10 13  1  0
 11 14  1  0
 12 15  1  0
 14 16  2  0
 14 17  1  0
 15 18  2  3
 18 19  1  0
 18 20  1  0
 20 21  2  0
 20 22  1  0
 21 23  1  0
 22 24  2  0
 24 25  1  0
 23 26  2  0
 24 26  1  0
 25 27  1  0
 25 28  2  0
 27 29  1  0
 29 30  1  0
 30 31  1  0
 30 32  2  0
 32 33  1  0
 31 34  1  0
 33 34  2  0
 33 35  1  0
M  END
