mac-x0228-mac-x0283
     RDKit          3D

 13 14  0  0  0  0  0  0  0  0999 V2000
   -1.1510   14.5140   -1.5670 O   0  0  0  0  0  0  0  0  0  0  0  0
   -2.0930   14.6290   -2.5210 C   0  0  0  0  0  0  0  0  0  0  0  0
   -1.8410   14.6340   -3.7140 O   0  0  0  0  0  0  0  0  0  0  0  0
   -3.4770   14.7510   -1.9940 C   0  0  0  0  0  0  0  0  0  0  0  0
   -3.8140   14.5650   -0.6320 C   0  0  0  0  0  0  0  0  0  0  0  0
   -4.4690   15.0650   -2.9310 C   0  0  0  0  0  0  0  0  0  0  0  0
   -5.1580   14.7060   -0.2630 C   0  0  0  0  0  0  0  0  0  0  0  0
   -5.7970   15.2030   -2.5350 C   0  0  0  0  0  0  0  0  0  0  0  0
   -6.1130   15.0230   -1.2130 C   0  0  0  0  0  0  0  0  0  0  0  0
   -5.8560   14.5750    1.0520 C   0  0  2  0  0  0  0  0  0  0  0  0
   -5.6420   13.3420    1.7500 N   0  0  0  0  0  0  0  0  0  0  0  0
   -7.3890   15.1400   -0.7380 O   0  0  0  0  0  0  0  0  0  0  0  0
   -7.3230   14.6260    0.6010 C   0  0  0  0  0  0  0  0  0  0  0  0
  1  2  1  0
  2  3  2  0
  2  4  1  0
  4  5  2  0
  4  6  1  0
  5  7  1  0
  6  8  2  0
  7  9  2  0
  8  9  1  0
  7 10  1  0
 10 11  1  6
  9 12  1  0
 10 13  1  0
 12 13  1  0
M  END
