mac-x0161-mac-x0206
     RDKit          3D

 28 31  0  0  0  0  0  0  0  0999 V2000
   -4.4130   15.0640    1.1050 N   0  0  0  0  0  0  0  0  0  0  0  0
   -3.2750   15.3440    0.2320 C   0  0  1  0  0  0  0  0  0  0  0  0
   -2.1780   14.3120    0.4720 C   0  0  1  0  0  0  0  0  0  0  0  0
   -3.7850   15.3070   -1.1400 N   0  0  0  0  0  0  0  0  0  0  0  0
   -4.5780   14.1710   -1.1680 N   0  0  0  0  0  0  0  0  0  0  0  0
   -2.8180   15.0690   -2.2340 C   0  0  0  0  0  0  0  0  0  0  0  0
   -1.1530   14.2240   -0.6700 C   0  0  1  0  0  0  0  0  0  0  0  0
   -1.4020   14.7490    1.6270 N   0  0  0  0  0  0  0  0  0  0  0  0
   -5.8530   14.3890   -1.5070 C   0  0  0  0  0  0  0  0  0  0  0  0
   -1.4230   15.0060   -1.8460 N   0  0  0  0  0  0  0  0  0  0  0  0
    0.1090   14.6530   -0.0860 N   0  0  0  0  0  0  0  0  0  0  0  0
   -0.0730   14.3540    1.3200 C   0  0  0  0  0  0  0  0  0  0  0  0
   -0.5280   14.7800   -2.9990 C   0  0  0  0  0  0  0  0  0  0  0  0
   -6.2590   14.4440   -2.6560 O   0  0  0  0  0  0  0  0  0  0  0  0
   -6.7490   14.5800   -0.3520 C   0  0  0  0  0  0  0  0  0  0  0  0
   -0.4620   13.3540   -3.4280 C   0  0  0  0  0  0  0  0  0  0  0  0
   -8.0440   15.0340   -0.5260 C   0  0  0  0  0  0  0  0  0  0  0  0
   -6.2840   14.2960    0.9430 C   0  0  0  0  0  0  0  0  0  0  0  0
   -8.4980   15.3050   -1.7880 O   0  0  0  0  0  0  0  0  0  0  0  0
   -0.8710   12.6700   -4.5520 C   0  0  0  0  0  0  0  0  0  0  0  0
    0.1190   12.4820   -2.5650 O   0  0  0  0  0  0  0  0  0  0  0  0
   -8.8850   15.2120    0.5690 C   0  0  0  0  0  0  0  0  0  0  0  0
   -7.1180   14.4750    2.0440 C   0  0  0  0  0  0  0  0  0  0  0  0
    0.0990   11.2110   -3.1120 N   0  0  0  0  0  0  0  0  0  0  0  0
   -0.4940   11.3470   -4.2920 C   0  0  0  0  0  0  0  0  0  0  0  0
   -8.4160   14.9310    1.8570 C   0  0  0  0  0  0  0  0  0  0  0  0
   -0.6890   10.2880   -5.1150 O   0  0  0  0  0  0  0  0  0  0  0  0
   -1.7640   10.4620   -6.0360 C   0  0  0  0  0  0  0  0  0  0  0  0
  2  1  1  1
  2  3  1  0
  2  4  1  0
  4  5  1  0
  4  6  1  0
  3  7  1  0
  3  8  1  1
  5  9  1  0
  6 10  1  0
  7 10  1  0
  7 11  1  1
  8 12  1  0
 11 12  1  0
 10 13  1  0
  9 14  2  0
  9 15  1  0
 13 16  1  0
 15 17  2  0
 15 18  1  0
 17 19  1  0
 16 20  2  0
 16 21  1  0
 17 22  1  0
 18 23  2  0
 21 24  1  0
 20 25  1  0
 24 25  2  0
 22 26  2  0
 23 26  1  0
 25 27  1  0
 27 28  1  0
M  END
