mac-x0394-diamond-x0855_0_A
     RDKit          3D

 18 19  0  0  0  0  0  0  0  0999 V2000
    1.0170   18.1730   -4.7910 Cl  0  0  0  0  0  0  0  0  0  0  0  0
    0.1820   16.6910   -4.8480 C   0  0  0  0  0  0  0  0  0  0  0  0
   -1.1630   16.7560   -5.1360 C   0  0  0  0  0  0  0  0  0  0  0  0
    0.8350   15.4610   -4.6140 C   0  0  0  0  0  0  0  0  0  0  0  0
    0.0770   14.2630   -4.6820 C   0  0  0  0  0  0  0  0  0  0  0  0
   -1.8860   15.5830   -5.2020 C   0  0  0  0  0  0  0  0  0  0  0  0
   -3.5520   15.6060   -5.5670 Cl  0  0  0  0  0  0  0  0  0  0  0  0
    0.6410   12.8620   -4.4520 C   0  0  1  0  0  0  0  0  0  0  0  0
   -1.2790   14.3650   -4.9800 C   0  0  0  0  0  0  0  0  0  0  0  0
    0.8170   12.4930   -2.9910 C   0  0  0  0  0  0  0  0  0  0  0  0
   -0.2960   11.8700   -5.0250 N   0  0  0  0  0  0  0  0  0  0  0  0
    0.4570   11.2100   -2.7410 O   0  0  0  0  0  0  0  0  0  0  0  0
    1.2050   13.1740   -2.0630 O   0  0  0  0  0  0  0  0  0  0  0  0
   -0.1080   11.0190   -6.0930 C   0  0  0  0  0  0  0  0  0  0  0  0
   -1.5260   11.7260   -4.4660 N   0  0  0  0  0  0  0  0  0  0  0  0
   -1.2810   10.3010   -6.1980 C   0  0  0  0  0  0  0  0  0  0  0  0
   -2.1170   10.7710   -5.1860 C   0  0  0  0  0  0  0  0  0  0  0  0
   -1.7340    8.9630   -7.4140 Br  0  0  0  0  0  0  0  0  0  0  0  0
  1  2  1  0
  2  3  2  0
  2  4  1  0
  4  5  2  0
  3  6  1  0
  6  7  1  0
  5  8  1  0
  5  9  1  0
  6  9  2  0
  8 10  1  1
  8 11  1  0
 10 12  1  0
 10 13  2  0
 11 14  1  0
 11 15  1  0
 14 16  2  0
 15 17  2  0
 16 17  1  0
 16 18  1  0
M  END
