mac-x0365-diamond-x0837_0_A
     RDKit          3D

 11 11  0  0  0  0  0  0  0  0999 V2000
   -0.7240   14.8190   -1.3710 O   0  0  0  0  0  0  0  0  0  0  0  0
   -1.7470   14.7800   -2.2400 C   0  0  0  0  0  0  0  0  0  0  0  0
   -1.5530   14.6670   -3.4360 O   0  0  0  0  0  0  0  0  0  0  0  0
   -3.0810   14.8910   -1.5940 C   0  0  0  0  0  0  0  0  0  0  0  0
   -4.1880   14.9910   -2.4390 C   0  0  0  0  0  0  0  0  0  0  0  0
   -3.2630   14.8980   -0.1970 C   0  0  0  0  0  0  0  0  0  0  0  0
   -5.4540   15.0880   -1.8880 C   0  0  0  0  0  0  0  0  0  0  0  0
   -4.5510   14.9970    0.3440 C   0  0  0  0  0  0  0  0  0  0  0  0
   -6.5200   15.1780   -2.6860 F   0  0  0  0  0  0  0  0  0  0  0  0
   -5.6390   15.0890   -0.5160 C   0  0  0  0  0  0  0  0  0  0  0  0
   -6.9000   15.1770   -0.0080 O   0  0  0  0  0  0  0  0  0  0  0  0
  1  2  1  0
  2  3  2  0
  2  4  1  0
  4  5  2  0
  4  6  1  0
  5  7  1  0
  6  8  2  0
  7  9  1  0
  7 10  2  0
  8 10  1  0
 10 11  1  0
M  END
