mac-x0455-diamond-x0104_0_A
     RDKit          3D

 28 30  0  0  0  0  0  0  0  0999 V2000
   -2.5670   14.0990   -2.1110 C   0  0  0  0  0  0  0  0  0  0  0  0
   -1.4240   14.2330   -3.2020 C   0  0  1  0  0  0  0  0  0  0  0  0
   -1.5410   15.4690   -3.9680 O   0  0  0  0  0  0  0  0  0  0  0  0
   -3.8210   14.8720   -2.2790 O   0  0  0  0  0  0  0  0  0  0  0  0
   -0.1000   14.3370   -2.3940 C   0  0  0  0  0  0  0  0  0  0  0  0
   -1.2850   13.0540   -4.2020 C   0  0  0  0  0  0  0  0  0  0  0  0
   -4.6030   14.8240   -1.1050 C   0  0  0  0  0  0  0  0  0  0  0  0
    0.5180   15.3500   -2.1250 O   0  0  0  0  0  0  0  0  0  0  0  0
    0.3450   13.1070   -2.0010 O   0  0  0  0  0  0  0  0  0  0  0  0
   -2.2530   12.0430   -4.3100 C   0  0  0  0  0  0  0  0  0  0  0  0
   -0.1500   12.9510   -5.0510 C   0  0  0  0  0  0  0  0  0  0  0  0
   -3.9490   14.8080    0.0680 N   0  0  0  0  0  0  0  0  0  0  0  0
   -6.0080   14.7860   -1.1720 C   0  0  0  0  0  0  0  0  0  0  0  0
   -2.1040   10.9790   -5.2130 C   0  0  0  0  0  0  0  0  0  0  0  0
   -0.0030   11.8870   -5.9530 C   0  0  0  0  0  0  0  0  0  0  0  0
   -4.6770   14.7390    1.2080 C   0  0  0  0  0  0  0  0  0  0  0  0
   -6.7430   14.7140    0.0360 C   0  0  0  0  0  0  0  0  0  0  0  0
   -0.9810   10.9040   -6.0320 C   0  0  0  0  0  0  0  0  0  0  0  0
   -6.0690   14.6850    1.2710 C   0  0  0  0  0  0  0  0  0  0  0  0
   -6.7700   14.5970    2.5060 N   0  0  0  0  0  0  0  0  0  0  0  0
   -7.9910   15.0930    2.9720 C   0  0  0  0  0  0  0  0  0  0  0  0
   -7.9410   14.9960    4.3540 N   0  0  0  0  0  0  0  0  0  0  0  0
   -8.9150   15.5210    2.2930 O   0  0  0  0  0  0  0  0  0  0  0  0
   -9.0310   15.0480    5.2190 C   0  0  0  0  0  0  0  0  0  0  0  0
   -9.1440   15.1910    6.5850 C   0  0  0  0  0  0  0  0  0  0  0  0
  -10.5510   14.9090    4.4620 S   0  0  0  0  0  0  0  0  0  0  0  0
  -11.3820   15.0350    5.9620 C   0  0  0  0  0  0  0  0  0  0  0  0
  -10.5110   15.1820    7.0170 C   0  0  0  0  0  0  0  0  0  0  0  0
  1  2  1  0
  2  3  1  6
  1  4  1  0
  2  5  1  0
  2  6  1  0
  4  7  1  0
  5  8  2  0
  5  9  1  0
  6 10  2  0
  6 11  1  0
  7 12  2  0
  7 13  1  0
 10 14  1  0
 11 15  2  0
 12 16  1  0
 13 17  2  0
 14 18  2  0
 15 18  1  0
 16 19  2  0
 17 19  1  0
 19 20  1  0
 20 21  1  0
 21 22  1  0
 21 23  2  0
 22 24  1  0
 24 25  2  0
 24 26  1  0
 26 27  1  0
 25 28  1  0
 27 28  2  0
M  END
