mac-x0179-diamond-x0967_0_A
     RDKit          3D

 28 31  0  0  0  0  0  0  0  0999 V2000
    1.5010   12.8970   -2.2030 O   0  0  0  0  0  0  0  0  0  0  0  0
    0.9160   12.1380   -3.1480 C   0  0  0  0  0  0  0  0  0  0  0  0
    0.6170   10.9760   -2.9230 O   0  0  0  0  0  0  0  0  0  0  0  0
    0.6730   12.8360   -4.4790 C   0  0  0  0  0  0  0  0  0  0  0  0
    0.0110   11.9940   -5.4600 N   0  0  0  0  0  0  0  0  0  0  0  0
    0.7090   11.4830   -6.5050 C   0  0  0  0  0  0  0  0  0  0  0  0
   -1.1770   11.3170   -5.2600 C   0  0  0  0  0  0  0  0  0  0  0  0
    1.7820   11.8200   -6.9260 O   0  0  0  0  0  0  0  0  0  0  0  0
   -2.0060   11.6380   -4.3360 N   0  0  0  0  0  0  0  0  0  0  0  0
   -0.0800   10.3800   -7.0440 C   0  0  0  0  0  0  0  0  0  0  0  0
   -1.2300   10.2660   -6.2840 C   0  0  0  0  0  0  0  0  0  0  0  0
   -1.9340   12.7030   -3.3550 C   0  0  0  0  0  0  0  0  0  0  0  0
    0.2080    9.5510   -8.1150 C   0  0  0  0  0  0  0  0  0  0  0  0
   -2.1610    9.2850   -6.5770 C   0  0  0  0  0  0  0  0  0  0  0  0
   -3.0440   13.7050   -3.7210 C   0  0  0  0  0  0  0  0  0  0  0  0
   -0.7260    8.5580   -8.4200 C   0  0  0  0  0  0  0  0  0  0  0  0
   -1.9000    8.4270   -7.6560 C   0  0  0  0  0  0  0  0  0  0  0  0
   -2.9370   14.9940   -2.8920 C   0  0  0  0  0  0  0  0  0  0  0  0
   -3.7010   14.9410   -1.5930 C   0  0  0  0  0  0  0  0  0  0  0  0
   -5.0470   14.8170   -1.6950 N   0  0  0  0  0  0  0  0  0  0  0  0
   -3.0440   15.0140   -0.3740 C   0  0  0  0  0  0  0  0  0  0  0  0
   -5.7780   14.7580   -0.5870 C   0  0  0  0  0  0  0  0  0  0  0  0
   -3.7990   14.9590    0.7860 C   0  0  0  0  0  0  0  0  0  0  0  0
   -7.0940   14.6310   -0.7410 N   0  0  0  0  0  0  0  0  0  0  0  0
   -5.1850   14.8280    0.6840 C   0  0  0  0  0  0  0  0  0  0  0  0
   -6.0080   14.7600    1.8110 C   0  0  0  0  0  0  0  0  0  0  0  0
   -7.8700   14.5630    0.3620 C   0  0  0  0  0  0  0  0  0  0  0  0
   -7.3800   14.6230    1.6520 C   0  0  0  0  0  0  0  0  0  0  0  0
  1  2  1  0
  2  3  2  0
  2  4  1  0
  4  5  1  0
  5  6  1  0
  5  7  1  0
  6  8  2  0
  7  9  2  3
  6 10  1  0
  7 11  1  0
 10 11  2  0
  9 12  1  0
 10 13  1  0
 11 14  1  0
 12 15  1  0
 13 16  2  0
 14 17  2  0
 16 17  1  0
 15 18  1  0
 18 19  1  0
 19 20  2  0
 19 21  1  0
 20 22  1  0
 21 23  2  0
 22 24  2  0
 22 25  1  0
 23 25  1  0
 25 26  2  0
 24 27  1  0
 26 28  1  0
 27 28  2  0
M  END
