mac-x0180-diamond-x0926_0_A
     RDKit          3D

 13 13  0  0  0  0  0  0  0  0999 V2000
   -7.7270   14.4850    1.5860 C   0  0  0  0  0  0  0  0  0  0  0  0
   -6.7830   14.6960    0.4310 C   0  0  0  0  0  0  0  0  0  0  0  0
   -7.2130   14.7730   -0.7140 O   0  0  0  0  0  0  0  0  0  0  0  0
   -5.4550   14.7910    0.8210 N   0  0  0  0  0  0  0  0  0  0  0  0
   -4.3770   14.8280   -0.0920 C   0  0  0  0  0  0  0  0  0  0  0  0
   -3.0810   14.6690    0.4140 C   0  0  0  0  0  0  0  0  0  0  0  0
   -4.5570   15.0130   -1.4650 C   0  0  0  0  0  0  0  0  0  0  0  0
   -1.9790   14.6910   -0.4540 C   0  0  0  0  0  0  0  0  0  0  0  0
   -3.4640   15.0340   -2.3350 C   0  0  0  0  0  0  0  0  0  0  0  0
   -2.1760   14.8730   -1.8310 C   0  0  0  0  0  0  0  0  0  0  0  0
   -1.0410   14.9050   -2.7840 C   0  0  0  0  0  0  0  0  0  0  0  0
   -1.1760   14.9420   -3.9940 O   0  0  0  0  0  0  0  0  0  0  0  0
    0.1560   14.9020   -2.1660 O   0  0  0  0  0  0  0  0  0  0  0  0
  1  2  1  0
  2  3  2  0
  2  4  1  0
  4  5  1  0
  5  6  2  0
  5  7  1  0
  6  8  1  0
  7  9  2  0
  8 10  2  0
  9 10  1  0
 10 11  1  0
 11 12  2  0
 11 13  1  0
M  END
