mac-x0565-diamond-x0852_0_B
     RDKit          3D

 24 26  0  0  0  0  0  0  0  0999 V2000
   -5.7570   15.0830    0.7220 O   0  0  0  0  0  0  0  0  0  0  0  0
   -6.1870   15.0250   -0.5490 C   0  0  0  0  0  0  0  0  0  0  0  0
   -7.4600   15.0170   -0.7840 N   0  0  0  0  0  0  0  0  0  0  0  0
   -5.0530   14.9770   -1.4800 C   0  0  0  0  0  0  0  0  0  0  0  0
   -8.4360   15.0630    0.3110 C   0  0  0  0  0  0  0  0  0  0  0  0
   -3.7250   14.9150   -1.0260 C   0  0  0  0  0  0  0  0  0  0  0  0
   -5.3390   14.9920   -2.8530 C   0  0  0  0  0  0  0  0  0  0  0  0
   -9.4590   16.2080    0.1170 C   0  0  0  0  0  0  0  0  0  0  0  0
   -2.7310   14.8690   -1.9900 C   0  0  0  0  0  0  0  0  0  0  0  0
   -4.3110   14.9480   -3.7970 C   0  0  0  0  0  0  0  0  0  0  0  0
  -10.1320   16.5320    1.3580 O   0  0  0  0  0  0  0  0  0  0  0  0
   -3.0210   14.8890   -3.3360 C   0  0  0  0  0  0  0  0  0  0  0  0
   -1.3890   14.8020   -1.7620 O   0  0  0  0  0  0  0  0  0  0  0  0
   -1.9070   14.8460   -4.1150 O   0  0  0  0  0  0  0  0  0  0  0  0
   -0.8740   14.8540   -3.1120 C   0  0  0  0  0  0  0  0  0  0  0  0
   -9.5050   16.1490    2.5250 C   0  0  0  0  0  0  0  0  0  0  0  0
   -8.6060   15.0890    2.6230 C   0  0  0  0  0  0  0  0  0  0  0  0
   -9.7940   16.8900    3.6890 C   0  0  0  0  0  0  0  0  0  0  0  0
   -7.9960   14.7680    3.8280 C   0  0  0  0  0  0  0  0  0  0  0  0
   -9.1770   16.5610    4.9190 C   0  0  0  0  0  0  0  0  0  0  0  0
   -9.4840   17.3140    6.0940 C   0  0  0  0  0  0  0  0  0  0  0  0
   -8.2720   15.4950    4.9680 C   0  0  0  0  0  0  0  0  0  0  0  0
   -9.7500   17.8620    7.0860 N   0  0  0  0  0  0  0  0  0  0  0  0
   -7.6020   15.0810    6.0910 O   0  0  0  0  0  0  0  0  0  0  0  0
  1  2  1  0
  2  3  2  3
  2  4  1  0
  3  5  1  0
  4  6  2  0
  4  7  1  0
  5  8  1  0
  6  9  1  0
  7 10  2  0
  8 11  1  0
  9 12  2  0
 10 12  1  0
  9 13  1  0
 12 14  1  0
 13 15  1  0
 14 15  1  0
 11 16  1  0
 16 17  2  0
 16 18  1  0
 17 19  1  0
 18 20  2  0
 20 21  1  0
 19 22  2  0
 20 22  1  0
 21 23  3  0
 22 24  1  0
M  END
