mac-x0341-mac-x0148
     RDKit          3D

 25 29  0  0  0  0  0  0  0  0999 V2000
   -6.7870   14.8170    2.6320 N   0  0  0  0  0  0  0  0  0  0  0  0
   -6.0760   14.8080    1.4790 C   0  0  0  0  0  0  0  0  0  0  0  0
   -4.7770   14.9220    1.4880 N   0  0  0  0  0  0  0  0  0  0  0  0
   -6.7990   14.6820    0.3350 N   0  0  0  0  0  0  0  0  0  0  0  0
   -6.2710   15.0560   -0.8620 C   0  0  0  0  0  0  0  0  0  0  0  0
   -4.0710   14.8890    0.2610 C   0  0  0  0  0  0  0  0  0  0  0  0
   -6.9420   15.4160   -1.8160 O   0  0  0  0  0  0  0  0  0  0  0  0
   -4.8240   14.9620   -0.9310 C   0  0  0  0  0  0  0  0  0  0  0  0
   -2.6460   14.7750    0.1860 C   0  0  0  0  0  0  0  0  0  0  0  0
   -2.1170   14.7360   -1.1160 C   0  0  0  0  0  0  0  0  0  0  0  0
   -4.2640   14.9370   -2.1750 C   0  0  0  0  0  0  0  0  0  0  0  0
   -1.7930   14.6960    1.2630 N   0  0  0  0  0  0  0  0  0  0  0  0
   -2.9220   14.8220   -2.2590 C   0  0  0  0  0  0  0  0  0  0  0  0
   -0.4750   14.5880    0.9740 C   0  0  0  0  0  0  0  0  0  0  0  0
   -0.7600   14.6060   -1.2890 C   0  0  0  0  0  0  0  0  0  0  0  0
   -0.3100   14.5350   -2.6450 N   0  0  0  0  0  0  0  0  0  0  0  0
    0.0850   14.5360   -0.2530 N   0  0  0  0  0  0  0  0  0  0  0  0
   -1.5120   14.4400   -3.5640 C   0  0  1  0  0  0  0  0  0  0  0  0
    0.7720   13.5280   -2.7560 C   0  0  0  0  0  0  0  0  0  0  0  0
   -1.8090   15.5710   -4.5490 C   0  0  0  0  0  0  0  0  0  0  0  0
   -1.6360   13.1820   -4.4430 C   0  0  1  0  0  0  0  0  0  0  0  0
    0.2610   12.2150   -3.3360 C   0  0  0  0  0  0  0  0  0  0  0  0
   -2.3020   13.6380   -5.7260 C   0  0  0  0  0  0  0  0  0  0  0  0
   -2.6540   15.0180   -5.5760 O   0  0  0  0  0  0  0  0  0  0  0  0
   -0.3070   12.4980   -4.7010 C   0  0  0  0  0  0  0  0  0  0  0  0
  1  2  1  0
  2  3  2  0
  2  4  1  0
  4  5  1  0
  3  6  1  0
  5  7  2  0
  5  8  1  0
  6  8  2  0
  6  9  1  0
  9 10  2  0
  8 11  1  0
  9 12  1  0
 10 13  1  0
 11 13  2  0
 12 14  2  0
 10 15  1  0
 15 16  1  0
 14 17  1  0
 15 17  2  0
 16 18  1  0
 16 19  1  0
 18 20  1  6
 18 21  1  0
 19 22  1  0
 21 23  1  6
 20 24  1  0
 23 24  1  0
 21 25  1  0
 22 25  1  0
M  END
