mac-x0587-diamond-x1012_0_A
     RDKit          3D

 25 26  0  0  0  0  0  0  0  0999 V2000
   -0.3510   14.4460   -2.7330 C   0  0  0  0  0  0  0  0  0  0  0  0
   -1.6260   13.6180   -2.8840 C   0  0  2  0  0  0  0  0  0  0  0  0
   -1.7260   12.5930   -4.4320 S   0  0  0  0  0  0  0  0  0  0  0  0
   -2.7960   14.5970   -2.8760 C   0  0  0  0  0  0  0  0  0  0  0  0
   -0.4750   11.2740   -4.2000 C   0  0  0  0  0  0  0  0  0  0  0  0
   -3.3780   14.9110   -3.9190 O   0  0  0  0  0  0  0  0  0  0  0  0
   -3.1070   15.0720   -1.6220 N   0  0  0  0  0  0  0  0  0  0  0  0
    0.3990   11.4080   -2.9740 C   0  0  0  0  0  0  0  0  0  0  0  0
   -4.4390   15.3520   -1.1200 C   0  0  0  0  0  0  0  0  0  0  0  0
   -2.2670   14.8090   -0.5180 C   0  0  0  0  0  0  0  0  0  0  0  0
    0.4690   10.5970   -2.0530 O   0  0  0  0  0  0  0  0  0  0  0  0
    1.2780   12.6550   -2.8810 C   0  0  0  0  0  0  0  0  0  0  0  0
   -1.0580   14.6700   -0.4580 O   0  0  0  0  0  0  0  0  0  0  0  0
   -4.2550   15.4770    0.3820 C   0  0  0  0  0  0  0  0  0  0  0  0
   -3.0630   14.7330    0.6110 N   0  0  0  0  0  0  0  0  0  0  0  0
    1.9170   12.8080   -1.8690 O   0  0  0  0  0  0  0  0  0  0  0  0
    1.2890   13.6450   -4.0380 C   0  0  0  0  0  0  0  0  0  0  0  0
   -0.0910   13.6460   -4.7010 C   0  0  0  0  0  0  0  0  0  0  0  0
    1.7620   15.0330   -3.5360 C   0  0  0  0  0  0  0  0  0  0  0  0
   -0.5190   14.9620   -5.3020 C   0  0  0  0  0  0  0  0  0  0  0  0
    1.1700   16.2110   -4.3090 C   0  0  0  0  0  0  0  0  0  0  0  0
   -0.2580   16.1200   -4.4980 N   0  0  0  0  0  0  0  0  0  0  0  0
   -0.9980   17.2690   -4.7220 C   0  0  0  0  0  0  0  0  0  0  0  0
   -0.2710   18.3910   -4.8950 N   0  0  0  0  0  0  0  0  0  0  0  0
   -2.2270   17.3740   -4.7550 O   0  0  0  0  0  0  0  0  0  0  0  0
  2  1  1  6
  2  3  1  0
  2  4  1  0
  3  5  1  0
  4  6  2  0
  4  7  1  0
  5  8  1  0
  7  9  1  0
  7 10  1  0
  8 11  2  0
  8 12  1  0
 10 13  2  0
  9 14  1  0
 10 15  1  0
 14 15  1  0
 12 16  2  0
 12 17  1  0
 17 18  1  0
 17 19  1  0
 18 20  1  0
 19 21  1  0
 20 22  1  0
 21 22  1  0
 22 23  1  0
 23 24  1  0
 23 25  2  0
M  END
