mac-x0415-diamond-x0950_1_A
     RDKit          3D

 16 17  0  0  0  0  0  0  0  0999 V2000
    0.3950   10.9920   -3.0100 O   0  0  0  0  0  0  0  0  0  0  0  0
    0.8650   12.2440   -3.0840 C   0  0  0  0  0  0  0  0  0  0  0  0
    1.0870   12.8740   -2.0610 O   0  0  0  0  0  0  0  0  0  0  0  0
    1.0880   12.7890   -4.5170 C   0  0  1  0  0  0  0  0  0  0  0  0
    2.5130   12.5290   -4.9450 C   0  0  0  0  0  0  0  0  0  0  0  0
    0.2570   12.0720   -5.4390 O   0  0  0  0  0  0  0  0  0  0  0  0
    0.7180   14.2210   -4.5130 C   0  0  0  0  0  0  0  0  0  0  0  0
    1.7350   15.2670   -4.3260 C   0  0  0  0  0  0  0  0  0  0  0  0
   -0.3590   14.9810   -4.6640 C   0  0  0  0  0  0  0  0  0  0  0  0
    1.3760   16.5090   -4.3410 N   0  0  0  0  0  0  0  0  0  0  0  0
   -0.0480   16.4140   -4.4650 C   0  0  1  0  0  0  0  0  0  0  0  0
   -1.7220   14.6610   -4.9470 C   0  0  0  0  0  0  0  0  0  0  0  0
   -0.8010   17.3640   -5.3330 C   0  0  0  0  0  0  0  0  0  0  0  0
   -2.5040   15.6100   -5.5070 C   0  0  0  0  0  0  0  0  0  0  0  0
   -4.2640   15.1940   -5.9430 Br  0  0  0  0  0  0  0  0  0  0  0  0
   -1.9950   16.9610   -5.8120 C   0  0  0  0  0  0  0  0  0  0  0  0
  1  2  1  0
  2  3  2  0
  2  4  1  0
  4  5  1  6
  4  6  1  0
  4  7  1  0
  7  8  1  0
  7  9  2  0
  8 10  2  0
  9 11  1  0
 10 11  1  0
  9 12  1  0
 11 13  1  6
 12 14  2  0
 14 15  1  0
 13 16  2  0
 14 16  1  0
M  END
