mac-x0375-mac-x0159
     RDKit          3D

 29 32  0  0  0  0  0  0  0  0999 V2000
    1.9590   12.3800   -2.6710 O   0  0  0  0  0  0  0  0  0  0  0  0
    0.9300   11.6540   -3.1390 C   0  0  0  0  0  0  0  0  0  0  0  0
    0.7510   10.5040   -2.7820 O   0  0  0  0  0  0  0  0  0  0  0  0
    0.0790   12.4030   -4.1120 C   0  0  2  0  0  0  0  0  0  0  0  0
    0.2860   11.9400   -5.4560 O   0  0  0  0  0  0  0  0  0  0  0  0
    0.4140   13.8670   -3.8600 C   0  0  0  0  0  0  0  0  0  0  0  0
   -0.8450   14.7470   -3.6980 C   0  0  1  0  0  0  0  0  0  0  0  0
   -0.6770   11.0380   -5.8110 C   0  0  0  0  0  0  0  0  0  0  0  0
   -0.3380   10.0470   -6.7390 C   0  0  0  0  0  0  0  0  0  0  0  0
   -1.9640   11.0650   -5.2860 C   0  0  0  0  0  0  0  0  0  0  0  0
   -1.5740   14.7490   -2.3910 N   0  0  0  0  0  0  0  0  0  0  0  0
   -0.4430   16.0730   -4.2900 C   0  0  0  0  0  0  0  0  0  0  0  0
   -1.2850    9.0930   -7.1230 C   0  0  0  0  0  0  0  0  0  0  0  0
   -2.9080   10.1180   -5.6700 C   0  0  0  0  0  0  0  0  0  0  0  0
   -2.9850   15.0450   -2.5180 C   0  0  0  0  0  0  0  0  0  0  0  0
   -0.9320   15.2070   -1.1550 C   0  0  1  0  0  0  0  0  0  0  0  0
    0.8300   16.6120   -4.2400 C   0  0  0  0  0  0  0  0  0  0  0  0
   -1.3720   16.8460   -4.9680 N   0  0  0  0  0  0  0  0  0  0  0  0
   -2.5690    9.1290   -6.5870 C   0  0  0  0  0  0  0  0  0  0  0  0
   -3.7010   14.6010   -1.3440 N   0  0  0  0  0  0  0  0  0  0  0  0
   -1.8590   15.5140    0.0530 C   0  0  1  0  0  0  0  0  0  0  0  0
    0.0370   14.2640   -0.5900 N   0  0  0  0  0  0  0  0  0  0  0  0
   -0.7990   17.9370   -5.4190 C   0  0  0  0  0  0  0  0  0  0  0  0
    0.8680   18.1050   -5.0600 S   0  0  0  0  0  0  0  0  0  0  0  0
   -1.5020   18.9860   -6.1990 C   0  0  0  0  0  0  0  0  0  0  0  0
   -3.3840   15.4170   -0.2270 C   0  0  2  0  0  0  0  0  0  0  0  0
   -1.4650   14.5850    1.1300 N   0  0  0  0  0  0  0  0  0  0  0  0
   -0.0730   14.3990    0.8550 C   0  0  0  0  0  0  0  0  0  0  0  0
   -4.2050   15.0380    0.9120 N   0  0  0  0  0  0  0  0  0  0  0  0
  1  2  1  0
  2  3  2  0
  2  4  1  0
  4  5  1  0
  4  6  1  6
  7  6  1  1
  5  8  1  0
  8  9  2  0
  8 10  1  0
  7 11  1  0
  7 12  1  0
  9 13  1  0
 10 14  2  0
 11 15  1  0
 11 16  1  0
 12 17  2  0
 12 18  1  0
 13 19  2  0
 14 19  1  0
 15 20  1  0
 16 21  1  0
 16 22  1  1
 18 23  2  0
 17 24  1  0
 23 24  1  0
 23 25  1  0
 20 26  1  0
 21 26  1  0
 21 27  1  1
 22 28  1  0
 27 28  1  0
 26 29  1  1
M  END
