mac-x0124-diamond-x0371_0_A
     RDKit          3D

 29 33  0  0  0  0  0  0  0  0999 V2000
    0.4500   15.0600   -3.0320 C   0  0  0  0  0  0  0  0  0  0  0  0
   -0.7150   15.1990   -2.1880 N   0  0  0  0  0  0  0  0  0  0  0  0
   -1.9570   15.5570   -2.6240 C   0  0  0  0  0  0  0  0  0  0  0  0
   -0.7390   14.9930   -0.8200 C   0  0  0  0  0  0  0  0  0  0  0  0
   -2.7810   15.5800   -1.5210 C   0  0  0  0  0  0  0  0  0  0  0  0
   -2.0080   15.2190   -0.3670 C   0  0  0  0  0  0  0  0  0  0  0  0
    0.2820   14.6340   -0.0470 N   0  0  0  0  0  0  0  0  0  0  0  0
   -2.2580   15.0600    1.0210 C   0  0  0  0  0  0  0  0  0  0  0  0
   -0.1070   14.5140    1.2540 C   0  0  0  0  0  0  0  0  0  0  0  0
   -3.5300   15.2960    1.3980 N   0  0  0  0  0  0  0  0  0  0  0  0
   -1.2880   14.7000    1.8150 N   0  0  0  0  0  0  0  0  0  0  0  0
   -4.3170   15.2810    0.3200 C   0  0  0  0  0  0  0  0  0  0  0  0
   -5.6170   14.9240    0.3380 C   0  0  0  0  0  0  0  0  0  0  0  0
   -3.8030   15.6310   -0.9240 C   0  0  0  0  0  0  0  0  0  0  0  0
   -6.4070   14.5290    1.3560 N   0  0  0  0  0  0  0  0  0  0  0  0
   -6.4170   14.9000   -0.7850 C   0  0  0  0  0  0  0  0  0  0  0  0
   -4.5600   15.6160   -2.0860 C   0  0  0  0  0  0  0  0  0  0  0  0
   -7.6470   14.2920    0.8410 C   0  0  0  0  0  0  0  0  0  0  0  0
   -7.6810   14.5070   -0.4580 N   0  0  0  0  0  0  0  0  0  0  0  0
   -5.8910   15.2490   -2.0300 C   0  0  0  0  0  0  0  0  0  0  0  0
   -8.7570   13.8530    1.6980 C   0  0  0  0  0  0  0  0  0  0  0  0
   -8.4530   14.3000    3.0260 N   0  0  0  0  0  0  0  0  0  0  0  0
   -8.8590   15.4090    3.7090 C   0  0  0  0  0  0  0  0  0  0  0  0
   -9.3700   16.3280    3.0650 O   0  0  0  0  0  0  0  0  0  0  0  0
   -8.6960   15.4640    5.1380 C   0  0  0  0  0  0  0  0  0  0  0  0
   -8.0930   14.4410    5.8150 O   0  0  0  0  0  0  0  0  0  0  0  0
   -9.0700   16.4410    6.0410 C   0  0  0  0  0  0  0  0  0  0  0  0
   -8.6730   15.9830    7.3210 C   0  0  0  0  0  0  0  0  0  0  0  0
   -8.0810   14.7620    7.1290 C   0  0  0  0  0  0  0  0  0  0  0  0
  1  2  1  0
  2  3  1  0
  2  4  1  0
  3  5  2  0
  4  6  2  0
  5  6  1  0
  4  7  1  0
  6  8  1  0
  7  9  2  0
  8 10  1  0
  8 11  2  0
  9 11  1  0
 10 12  1  0
 12 13  1  0
 12 14  2  0
 13 15  1  0
 13 16  2  0
 14 17  1  0
 15 18  1  0
 16 19  1  0
 18 19  2  0
 16 20  1  0
 17 20  2  0
 18 21  1  0
 21 22  1  0
 22 23  1  0
 23 24  2  0
 23 25  1  0
 25 26  1  0
 25 27  2  0
 27 28  1  0
 26 29  1  0
 28 29  2  0
M  END
