mac-x0472-mac-x0303
     RDKit          3D

 28 31  0  0  0  0  0  0  0  0999 V2000
   -3.2600   14.5800   -4.1000 O   0  0  0  0  0  0  0  0  0  0  0  0
   -2.6660   13.9950   -2.9150 S   0  0  0  0  0  0  0  0  0  0  0  0
   -1.2700   13.6420   -2.9350 O   0  0  0  0  0  0  0  0  0  0  0  0
   -2.9760   15.0990   -1.6940 N   0  0  0  0  0  0  0  0  0  0  0  0
   -3.6420   12.5330   -2.5500 C   0  0  0  0  0  0  0  0  0  0  0  0
   -2.5730   14.8390   -0.3480 C   0  0  0  0  0  0  0  0  0  0  0  0
   -3.1230   11.2720   -2.8490 C   0  0  0  0  0  0  0  0  0  0  0  0
   -4.9200   12.6400   -1.9760 C   0  0  0  0  0  0  0  0  0  0  0  0
   -4.3430   15.1050   -1.5080 C   0  0  0  0  0  0  0  0  0  0  0  0
   -1.5540   14.1750    0.1340 N   0  0  0  0  0  0  0  0  0  0  0  0
   -3.6470   15.5240    0.7960 S   0  0  0  0  0  0  0  0  0  0  0  0
   -3.8770   10.1300   -2.5810 C   0  0  0  0  0  0  0  0  0  0  0  0
   -5.6670   11.4940   -1.7100 C   0  0  0  0  0  0  0  0  0  0  0  0
   -5.2710   15.3080   -2.4940 C   0  0  0  0  0  0  0  0  0  0  0  0
   -4.7180   14.8610   -0.1970 C   0  0  0  0  0  0  0  0  0  0  0  0
   -2.6690   14.8300    1.9580 C   0  0  0  0  0  0  0  0  0  0  0  0
   -1.6170   14.1740    1.5170 N   0  0  0  0  0  0  0  0  0  0  0  0
   -5.1500   10.2450   -2.0140 C   0  0  0  0  0  0  0  0  0  0  0  0
   -6.0450   14.8310    0.1160 C   0  0  0  0  0  0  0  0  0  0  0  0
   -6.6340   15.2860   -2.2040 C   0  0  0  0  0  0  0  0  0  0  0  0
   -6.9760   15.0420   -0.8750 C   0  0  0  0  0  0  0  0  0  0  0  0
   -6.6180   14.6130    1.3260 N   0  0  0  0  0  0  0  0  0  0  0  0
   -7.9000   14.6900    1.0960 C   0  0  0  0  0  0  0  0  0  0  0  0
   -8.1720   14.9470   -0.2220 N   0  0  0  0  0  0  0  0  0  0  0  0
   -9.1260   14.4940    2.3280 S   0  0  0  0  0  0  0  0  0  0  0  0
   -8.7980   13.0010    3.0260 N   0  0  0  0  0  0  0  0  0  0  0  0
   -8.8230   15.5250    3.2910 O   0  0  0  0  0  0  0  0  0  0  0  0
  -10.3660   14.4300    1.5990 O   0  0  0  0  0  0  0  0  0  0  0  0
  1  2  2  0
  2  3  2  0
  2  4  1  0
  2  5  1  0
  4  6  1  0
  5  7  2  0
  5  8  1  0
  4  9  1  0
  6 10  2  0
  6 11  1  0
  7 12  1  0
  8 13  2  0
  9 14  2  0
  9 15  1  0
 11 16  1  0
 10 17  1  0
 16 17  2  0
 12 18  2  0
 13 18  1  0
 15 19  2  0
 14 20  1  0
 19 21  1  0
 20 21  2  0
 19 22  1  0
 22 23  2  0
 21 24  1  0
 23 24  1  0
 23 25  1  0
 25 26  1  0
 25 27  2  0
 25 28  2  0
M  END
