mac-x0417-diamond-x0962_0_A
     RDKit          3D

 23 25  0  0  0  0  0  0  0  0999 V2000
    1.1060   12.8490   -2.4530 O   0  0  0  0  0  0  0  0  0  0  0  0
    0.7210   12.0210   -3.4440 C   0  0  0  0  0  0  0  0  0  0  0  0
    0.3200   10.9000   -3.1730 O   0  0  0  0  0  0  0  0  0  0  0  0
    0.8440   12.6390   -4.8260 C   0  0  2  0  0  0  0  0  0  0  0  0
    0.0630   13.9550   -4.9220 C   0  0  0  0  0  0  0  0  0  0  0  0
    0.4860   11.6500   -5.8970 C   0  0  0  0  0  0  0  0  0  0  0  0
   -1.4120   13.8210   -4.5170 C   0  0  0  0  0  0  0  0  0  0  0  0
    1.3530   11.5100   -6.9000 N   0  0  0  0  0  0  0  0  0  0  0  0
   -0.6350   10.7780   -6.0730 C   0  0  0  0  0  0  0  0  0  0  0  0
   -1.9760   15.1510   -4.0200 C   0  0  0  0  0  0  0  0  0  0  0  0
    0.8270   10.5650   -7.7530 O   0  0  0  0  0  0  0  0  0  0  0  0
   -0.3530   10.1210   -7.2630 C   0  0  0  0  0  0  0  0  0  0  0  0
   -1.8340   10.4480   -5.4100 C   0  0  0  0  0  0  0  0  0  0  0  0
   -2.5990   15.0040   -2.6950 C   0  0  0  0  0  0  0  0  0  0  0  0
   -1.1650    9.1570   -7.8540 C   0  0  0  0  0  0  0  0  0  0  0  0
   -2.6770    9.4780   -5.9780 C   0  0  0  0  0  0  0  0  0  0  0  0
   -3.1660   14.9920   -1.6420 C   0  0  0  0  0  0  0  0  0  0  0  0
   -2.3480    8.8450   -7.1780 C   0  0  0  0  0  0  0  0  0  0  0  0
   -3.9210   15.0710   -0.4560 C   0  0  0  0  0  0  0  0  0  0  0  0
   -3.4340   15.3720    0.7810 N   0  0  0  0  0  0  0  0  0  0  0  0
   -5.2650   14.8750   -0.2860 C   0  0  0  0  0  0  0  0  0  0  0  0
   -4.4910   15.3520    1.6410 C   0  0  0  0  0  0  0  0  0  0  0  0
   -5.6120   15.0490    1.0250 N   0  0  0  0  0  0  0  0  0  0  0  0
  1  2  1  0
  2  3  2  0
  2  4  1  0
  4  5  1  1
  4  6  1  0
  5  7  1  0
  6  8  2  0
  6  9  1  0
  7 10  1  0
  8 11  1  0
  9 12  2  0
 11 12  1  0
  9 13  1  0
 10 14  1  0
 12 15  1  0
 13 16  2  0
 14 17  3  0
 15 18  2  0
 16 18  1  0
 17 19  1  0
 19 20  1  0
 19 21  2  0
 20 22  1  0
 21 23  1  0
 22 23  2  0
M  END
