mac-x0411-mac-x0328
     RDKit          3D

 24 25  0  0  0  0  0  0  0  0999 V2000
    0.6530    8.9690   -7.8680 Cl  0  0  0  0  0  0  0  0  0  0  0  0
   -0.6110    9.6090   -6.8700 C   0  0  0  0  0  0  0  0  0  0  0  0
   -0.4590   10.8260   -6.1650 C   0  0  0  0  0  0  0  0  0  0  0  0
   -1.7970    8.8800   -6.7830 C   0  0  0  0  0  0  0  0  0  0  0  0
    0.7380   11.4950   -6.2930 O   0  0  0  0  0  0  0  0  0  0  0  0
   -1.5160   11.3140   -5.3610 C   0  0  0  0  0  0  0  0  0  0  0  0
   -2.8420    9.3540   -5.9980 C   0  0  0  0  0  0  0  0  0  0  0  0
   -1.4090   12.6130   -4.5690 C   0  0  0  0  0  0  0  0  0  0  0  0
    1.1450   12.3240   -5.2030 C   0  0  0  0  0  0  0  0  0  0  0  0
   -2.7040   10.5570   -5.2960 C   0  0  0  0  0  0  0  0  0  0  0  0
    0.9810   11.9340   -3.7210 C   0  0  0  0  0  0  0  0  0  0  0  0
   -2.6290   13.5310   -4.5350 C   0  0  0  0  0  0  0  0  0  0  0  0
    1.5380   12.8350   -2.8830 O   0  0  0  0  0  0  0  0  0  0  0  0
    0.4400   10.9450   -3.2650 O   0  0  0  0  0  0  0  0  0  0  0  0
   -2.2170   14.7960   -3.9650 O   0  0  0  0  0  0  0  0  0  0  0  0
   -2.0660   14.7910   -2.6110 C   0  0  0  0  0  0  0  0  0  0  0  0
   -1.0110   14.7130   -1.9950 O   0  0  0  0  0  0  0  0  0  0  0  0
   -3.3840   14.9030   -1.9430 C   0  0  0  0  0  0  0  0  0  0  0  0
   -3.5410   14.8550   -0.5500 C   0  0  0  0  0  0  0  0  0  0  0  0
   -4.5110   15.0610   -2.7570 C   0  0  0  0  0  0  0  0  0  0  0  0
   -4.8110   14.9580    0.0200 C   0  0  0  0  0  0  0  0  0  0  0  0
   -5.7780   15.1650   -2.1870 C   0  0  0  0  0  0  0  0  0  0  0  0
   -5.9210   15.1110   -0.8100 C   0  0  0  0  0  0  0  0  0  0  0  0
   -7.1790   15.2100   -0.2980 O   0  0  0  0  0  0  0  0  0  0  0  0
  1  2  1  0
  2  3  2  0
  2  4  1  0
  3  5  1  0
  3  6  1  0
  4  7  2  0
  6  8  1  0
  5  9  1  0
  6 10  2  0
  7 10  1  0
  9 11  1  0
  8 12  1  0
 11 13  1  0
 11 14  2  0
 12 15  1  0
 15 16  1  0
 16 17  2  0
 16 18  1  0
 18 19  2  0
 18 20  1  0
 19 21  1  0
 20 22  2  0
 21 23  2  0
 22 23  1  0
 23 24  1  0
M  END
