mac-x0555-mac-x0590
     RDKit          3D

 24 27  0  0  0  0  0  0  0  0999 V2000
   -7.4500   13.6920    2.8400 N   0  0  0  0  0  0  0  0  0  0  0  0
   -6.8130   13.9030    1.6080 C   0  0  0  0  0  0  0  0  0  0  0  0
   -7.4910   14.1320    0.4130 C   0  0  0  0  0  0  0  0  0  0  0  0
   -5.4250   13.8940    1.5470 C   0  0  0  0  0  0  0  0  0  0  0  0
   -4.7400   14.1140    0.3480 C   0  0  0  0  0  0  0  0  0  0  0  0
   -6.8920   14.3510   -0.7880 N   0  0  0  0  0  0  0  0  0  0  0  0
   -5.5260   14.3480   -0.8160 C   0  0  0  0  0  0  0  0  0  0  0  0
   -3.2110   14.1720    0.2540 C   0  0  1  0  0  0  0  0  0  0  0  0
   -4.8690   14.6360   -2.1740 C   0  0  0  0  0  0  0  0  0  0  0  0
   -3.5950   15.4240   -0.4040 C   0  0  1  0  0  0  0  0  0  0  0  0
   -2.3420   14.5370    1.4070 N   0  0  0  0  0  0  0  0  0  0  0  0
   -2.2710   13.5800   -0.8090 C   0  0  0  0  0  0  0  0  0  0  0  0
   -3.5520   16.5100    0.5820 N   0  0  0  0  0  0  0  0  0  0  0  0
   -3.5550   15.4150   -1.9700 C   0  0  1  0  0  0  0  0  0  0  0  0
   -0.9530   14.1680   -0.4730 N   0  0  0  0  0  0  0  0  0  0  0  0
   -0.9490   14.4230    0.9660 C   0  0  0  0  0  0  0  0  0  0  0  0
   -2.2420   15.0180   -2.8260 C   0  0  0  0  0  0  0  0  0  0  0  0
   -2.0430   13.6780   -3.5940 C   0  0  0  0  0  0  0  0  0  0  0  0
   -0.8560   13.6530   -4.6120 C   0  0  0  0  0  0  0  0  0  0  0  0
    0.1480   12.4790   -4.6520 C   0  0  2  0  0  0  0  0  0  0  0  0
    0.6840   11.9640   -3.3210 C   0  0  0  0  0  0  0  0  0  0  0  0
    1.4090   12.6940   -5.4860 C   0  0  0  0  0  0  0  0  0  0  0  0
    2.4620   13.0010   -4.4390 C   0  0  0  0  0  0  0  0  0  0  0  0
    2.0880   12.2850   -3.2580 O   0  0  0  0  0  0  0  0  0  0  0  0
  1  2  1  0
  2  3  2  0
  2  4  1  0
  4  5  2  0
  3  6  1  0
  5  7  1  0
  6  7  2  0
  5  8  1  0
  7  9  1  0
  8 10  1  0
  8 11  1  0
  8 12  1  6
 10 13  1  1
  9 14  1  0
 10 14  1  0
 12 15  1  0
 11 16  1  0
 15 16  1  0
 14 17  1  1
 17 18  1  0
 18 19  1  0
 20 19  1  1
 20 21  1  0
 20 22  1  0
 22 23  1  0
 21 24  1  0
 23 24  1  0
M  END
