mac-x0365-diamond-x0587_0_A
     RDKit          3D

 22 24  0  0  0  0  0  0  0  0999 V2000
   -2.0080   12.8890   -1.9810 O   0  0  0  0  0  0  0  0  0  0  0  0
   -3.0140   13.8380   -2.3210 C   0  0  0  0  0  0  0  0  0  0  0  0
   -2.5010   14.6710   -3.3550 O   0  0  0  0  0  0  0  0  0  0  0  0
   -4.6060   13.5620   -2.1440 C   0  0  1  0  0  0  0  0  0  0  0  0
   -3.2380   14.5760   -1.1490 C   0  0  0  0  0  0  0  0  0  0  0  0
   -4.9900   14.8480   -2.6140 O   0  0  0  0  0  0  0  0  0  0  0  0
   -5.1150   12.6170   -2.9710 F   0  0  0  0  0  0  0  0  0  0  0  0
   -2.4990   14.6950   -0.0250 C   0  0  0  0  0  0  0  0  0  0  0  0
   -4.4710   15.1620   -1.3860 C   0  0  0  0  0  0  0  0  0  0  0  0
   -5.3980   13.8090   -0.7670 C   0  0  0  0  0  0  0  0  0  0  0  0
   -5.0350   15.8990   -0.4570 C   0  0  0  0  0  0  0  0  0  0  0  0
   -3.0610   15.4510    0.9450 C   0  0  0  0  0  0  0  0  0  0  0  0
   -6.7150   14.1510   -0.9160 N   0  0  0  0  0  0  0  0  0  0  0  0
   -4.8530   13.7380    0.5000 N   0  0  0  0  0  0  0  0  0  0  0  0
   -6.2500   16.4150   -0.7470 O   0  0  0  0  0  0  0  0  0  0  0  0
   -4.3090   16.0470    0.7490 C   0  0  0  0  0  0  0  0  0  0  0  0
   -7.4750   14.4380    0.1760 C   0  0  0  0  0  0  0  0  0  0  0  0
   -5.6800   14.0430    1.5760 C   0  0  0  0  0  0  0  0  0  0  0  0
   -7.0190   14.4120    1.4720 C   0  0  0  0  0  0  0  0  0  0  0  0
   -7.9660   14.7680    2.5750 C   0  0  0  0  0  0  0  0  0  0  0  0
   -7.5030   15.0560    3.8330 N   0  0  0  0  0  0  0  0  0  0  0  0
   -9.1770   14.8240    2.3590 O   0  0  0  0  0  0  0  0  0  0  0  0
  2  1  1  0
  2  3  1  0
  2  4  1  0
  2  5  1  0
  4  6  1  0
  4  7  1  6
  5  8  1  0
  5  9  2  0
  6  9  1  0
  4 10  1  0
  9 11  1  0
  8 12  2  0
 10 13  2  0
 10 14  1  0
 11 15  1  0
 11 16  2  0
 12 16  1  0
 13 17  1  0
 14 18  2  0
 17 19  2  0
 18 19  1  0
 19 20  1  0
 20 21  1  0
 20 22  2  0
M  END
