mac-x0546-diamond-x0727_0_A
     RDKit          3D

 24 26  0  0  0  0  0  0  0  0999 V2000
   -4.3340   15.4970   -6.1550 C   0  0  0  0  0  0  0  0  0  0  0  0
   -3.4520   16.6220   -6.1090 O   0  0  0  0  0  0  0  0  0  0  0  0
   -2.2820   16.4090   -5.4470 C   0  0  0  0  0  0  0  0  0  0  0  0
   -1.8510   15.2090   -5.0640 C   0  0  0  0  0  0  0  0  0  0  0  0
   -1.4910   17.6090   -5.1680 C   0  0  0  0  0  0  0  0  0  0  0  0
   -0.5770   15.0720   -4.3280 C   0  0  2  0  0  0  0  0  0  0  0  0
   -0.1880   17.5530   -4.8000 C   0  0  0  0  0  0  0  0  0  0  0  0
    0.3540   16.1880   -4.7060 C   0  0  0  0  0  0  0  0  0  0  0  0
    0.3770   13.9350   -4.5230 C   0  0  0  0  0  0  0  0  0  0  0  0
   -0.0920   12.5140   -4.3650 C   0  0  2  0  0  0  0  0  0  0  0  0
    1.5750   15.8340   -4.9010 N   0  0  0  0  0  0  0  0  0  0  0  0
    1.5700   14.4590   -4.7960 C   0  0  0  0  0  0  0  0  0  0  0  0
    0.2220   12.0430   -2.9100 C   0  0  0  0  0  0  0  0  0  0  0  0
    0.5520   11.4520   -5.1690 N   0  0  0  0  0  0  0  0  0  0  0  0
   -1.5830   12.4810   -4.5550 C   0  0  0  0  0  0  0  0  0  0  0  0
    0.7150   12.7430   -2.0320 O   0  0  0  0  0  0  0  0  0  0  0  0
   -0.0870   10.7610   -2.6370 O   0  0  0  0  0  0  0  0  0  0  0  0
    0.8280   11.3350   -6.5090 C   0  0  0  0  0  0  0  0  0  0  0  0
    1.6270   12.0450   -7.0450 O   0  0  0  0  0  0  0  0  0  0  0  0
    0.1460   10.2010   -7.3020 C   0  0  0  0  0  0  0  0  0  0  0  0
   -1.1470   10.6110   -8.0110 C   0  0  0  0  0  0  0  0  0  0  0  0
   -0.2130    8.9560   -6.4620 C   0  0  0  0  0  0  0  0  0  0  0  0
   -1.9900    9.3410   -8.0400 C   0  0  0  0  0  0  0  0  0  0  0  0
   -1.6810    8.6560   -6.7210 C   0  0  0  0  0  0  0  0  0  0  0  0
  1  2  1  0
  2  3  1  0
  3  4  2  0
  3  5  1  0
  6  4  1  6
  5  7  2  0
  6  8  1  0
  7  8  1  0
  6  9  1  0
  9 10  1  0
  8 11  2  0
  9 12  2  0
 11 12  1  0
 10 13  1  0
 10 14  1  0
 10 15  1  1
 13 16  2  0
 13 17  1  0
 14 18  1  0
 18 19  2  0
 18 20  1  0
 20 21  1  0
 20 22  1  0
 21 23  1  0
 22 24  1  0
 23 24  1  0
M  END
