mac-x0115-mac-x0437
     RDKit          3D

 29 33  0  0  0  0  0  0  0  0999 V2000
   -1.4640   18.5200   -5.1570 C   0  0  0  0  0  0  0  0  0  0  0  0
   -0.4880   17.5250   -5.7360 C   0  0  0  0  0  0  0  0  0  0  0  0
    0.9480   17.9350   -5.4510 C   0  0  0  0  0  0  0  0  0  0  0  0
   -0.7860   16.2400   -5.1510 O   0  0  0  0  0  0  0  0  0  0  0  0
    0.3580   15.3830   -5.0210 C   0  0  0  0  0  0  0  0  0  0  0  0
    0.1340   13.9230   -4.3690 C   0  0  1  0  0  0  0  0  0  0  0  0
    1.5720   13.3740   -4.5690 C   0  0  0  0  0  0  0  0  0  0  0  0
   -0.2160   14.1710   -2.7810 N   0  0  0  0  0  0  0  0  0  0  0  0
   -0.6660   12.8300   -5.1670 N   0  0  0  0  0  0  0  0  0  0  0  0
    1.6600   12.4500   -3.4860 C   0  0  0  0  0  0  0  0  0  0  0  0
    0.8070   14.1520   -1.7690 C   0  0  0  0  0  0  0  0  0  0  0  0
   -1.4480   14.6680   -2.2600 C   0  0  0  0  0  0  0  0  0  0  0  0
   -2.0050   12.4480   -4.7310 C   0  0  0  0  0  0  0  0  0  0  0  0
   -0.0560   11.5050   -5.6340 C   0  0  1  0  0  0  0  0  0  0  0  0
    2.2100   13.1830   -2.0460 S   0  0  0  0  0  0  0  0  0  0  0  0
    1.2250   11.3310   -3.4390 O   0  0  0  0  0  0  0  0  0  0  0  0
    0.7290   14.8250   -0.5700 N   0  0  0  0  0  0  0  0  0  0  0  0
   -1.4320   15.5590   -1.0430 C   0  0  2  0  0  0  0  0  0  0  0  0
   -2.7150   14.5060   -2.6460 C   0  0  0  0  0  0  0  0  0  0  0  0
   -2.4000   11.2780   -5.5180 N   0  0  0  0  0  0  0  0  0  0  0  0
   -1.2080   10.4470   -5.5680 C   0  0  1  0  0  0  0  0  0  0  0  0
    0.7020   11.4370   -6.9450 C   0  0  0  0  0  0  0  0  0  0  0  0
   -0.5030   15.0320    0.0190 C   0  0  0  0  0  0  0  0  0  0  0  0
   -2.8390   15.8170   -0.6720 N   0  0  0  0  0  0  0  0  0  0  0  0
   -3.4820   15.2330   -1.6340 C   0  0  0  0  0  0  0  0  0  0  0  0
   -1.2830    9.4170   -6.6730 C   0  0  0  0  0  0  0  0  0  0  0  0
    0.5020   10.4940   -7.8950 C   0  0  0  0  0  0  0  0  0  0  0  0
   -0.7380   14.8100    1.2090 O   0  0  0  0  0  0  0  0  0  0  0  0
   -0.4810    9.4510   -7.7440 C   0  0  0  0  0  0  0  0  0  0  0  0
  1  2  1  0
  2  3  1  0
  2  4  1  0
  4  5  1  0
  6  5  1  6
  6  7  1  0
  6  8  1  0
  6  9  1  0
  7 10  1  0
  8 11  1  0
  8 12  1  0
  9 13  1  0
  9 14  1  0
 10 15  1  0
 11 15  2  0
 10 16  2  0
 11 17  1  0
 12 18  1  0
 12 19  2  0
 13 20  1  0
 14 21  1  0
 20 21  1  0
 14 22  1  6
 17 23  1  0
 18 23  1  0
 18 24  1  1
 19 25  1  0
 24 25  2  0
 21 26  1  6
 22 27  2  0
 23 28  2  0
 26 29  2  0
 27 29  1  0
M  END
