mac-x0282-mac-x0555
     RDKit          3D

 15 17  0  0  0  0  0  0  0  0999 V2000
   -6.9310   13.6480    2.2900 N   0  0  0  0  0  0  0  0  0  0  0  0
   -7.0140   14.6290    1.2080 C   0  0  2  0  0  0  0  0  0  0  0  0
   -7.7280   14.0810   -0.0170 C   0  0  0  0  0  0  0  0  0  0  0  0
   -5.6490   15.2710    0.7670 C   0  0  0  0  0  0  0  0  0  0  0  0
   -4.6320   14.3830    0.1410 C   0  0  1  0  0  0  0  0  0  0  0  0
   -6.7650   13.6450   -1.0240 N   0  0  0  0  0  0  0  0  0  0  0  0
   -3.7830   15.0630   -0.9870 C   0  0  0  0  0  0  0  0  0  0  0  0
   -3.7330   14.1460    1.2780 N   0  0  0  0  0  0  0  0  0  0  0  0
   -5.4700   13.2160   -0.4360 C   0  0  0  0  0  0  0  0  0  0  0  0
   -2.4070   15.0160   -0.4190 C   0  0  0  0  0  0  0  0  0  0  0  0
   -2.4500   14.5150    0.8700 C   0  0  0  0  0  0  0  0  0  0  0  0
   -1.1960   15.3780   -0.9710 C   0  0  0  0  0  0  0  0  0  0  0  0
   -1.4100   14.3720    1.6660 N   0  0  0  0  0  0  0  0  0  0  0  0
   -0.0750   15.2160   -0.1650 C   0  0  0  0  0  0  0  0  0  0  0  0
   -0.2430   14.7250    1.1240 C   0  0  0  0  0  0  0  0  0  0  0  0
  2  1  1  1
  2  3  1  0
  2  4  1  0
  5  4  1  1
  3  6  1  0
  5  7  1  0
  5  8  1  0
  5  9  1  0
  6  9  1  0
  7 10  1  0
  8 11  1  0
 10 11  2  0
 10 12  1  0
 11 13  1  0
 12 14  2  0
 13 15  2  0
 14 15  1  0
M  END
