mac-x0271-diamond-x0471_0_A
     RDKit          3D

 18 19  0  0  0  0  0  0  0  0999 V2000
   -3.9600   15.2950   -3.2580 O   0  0  0  0  0  0  0  0  0  0  0  0
   -4.4400   15.1970   -1.9880 C   0  0  0  0  0  0  0  0  0  0  0  0
   -3.5680   15.1570   -0.9050 C   0  0  0  0  0  0  0  0  0  0  0  0
   -5.8260   15.1380   -1.8080 C   0  0  0  0  0  0  0  0  0  0  0  0
   -6.3230   15.0290   -0.5080 C   0  0  0  0  0  0  0  0  0  0  0  0
   -4.0740   15.0530    0.3810 C   0  0  0  0  0  0  0  0  0  0  0  0
   -5.4510   14.9860    0.5800 C   0  0  0  0  0  0  0  0  0  0  0  0
   -7.7350   14.9620   -0.3000 O   0  0  0  0  0  0  0  0  0  0  0  0
   -5.9790   14.8690    1.9070 C   0  0  0  0  0  0  0  0  0  0  0  0
   -8.2300   14.7010    0.9850 C   0  0  0  0  0  0  0  0  0  0  0  0
   -9.4680   14.4390    1.2600 N   0  0  0  0  0  0  0  0  0  0  0  0
   -7.2820   14.7280    2.0980 C   0  0  0  0  0  0  0  0  0  0  0  0
   -9.6470   14.2050    2.6140 N   0  0  0  0  0  0  0  0  0  0  0  0
   -9.4450   15.2290    3.5370 C   0  0  0  0  0  0  0  0  0  0  0  0
   -9.3740   16.4110    3.2290 O   0  0  0  0  0  0  0  0  0  0  0  0
   -9.3480   14.8210    5.0170 C   0  0  0  0  0  0  0  0  0  0  0  0
   -9.6170   13.3390    5.2470 C   0  0  0  0  0  0  0  0  0  0  0  0
   -8.0440   15.2900    5.6650 C   0  0  0  0  0  0  0  0  0  0  0  0
  1  2  1  0
  2  3  2  0
  2  4  1  0
  4  5  2  0
  3  6  1  0
  5  7  1  0
  6  7  2  0
  5  8  1  0
  7  9  1  0
  8 10  1  0
 10 11  2  3
  9 12  2  0
 10 12  1  0
 11 13  1  0
 13 14  1  0
 14 15  2  0
 14 16  1  0
 16 17  1  0
 16 18  1  0
M  END
