mac-x0255-mac-x0354
     RDKit          3D

 25 28  0  0  0  0  0  0  0  0999 V2000
    1.5540   13.1570   -1.9040 O   0  0  0  0  0  0  0  0  0  0  0  0
    0.7830   12.2510   -2.5200 C   0  0  0  0  0  0  0  0  0  0  0  0
    0.6180   11.1570   -2.0110 O   0  0  0  0  0  0  0  0  0  0  0  0
    0.1270   12.6310   -3.8190 C   0  0  1  0  0  0  0  0  0  0  0  0
   -0.1610   14.0500   -4.2090 C   0  0  0  0  0  0  0  0  0  0  0  0
    0.6530   12.1530   -5.0960 C   0  0  0  0  0  0  0  0  0  0  0  0
    0.6830   15.1460   -4.3750 C   0  0  0  0  0  0  0  0  0  0  0  0
   -1.7710   14.4310   -4.5700 S   0  0  0  0  0  0  0  0  0  0  0  0
    1.7940   12.7090   -5.6520 C   0  0  0  0  0  0  0  0  0  0  0  0
    0.2260   11.1950   -5.9940 C   0  0  0  0  0  0  0  0  0  0  0  0
   -0.0270   16.3100   -4.8310 C   0  0  0  0  0  0  0  0  0  0  0  0
   -1.3870   16.0290   -4.9740 C   0  0  0  0  0  0  0  0  0  0  0  0
    1.1030   11.2730   -7.0160 N   0  0  0  0  0  0  0  0  0  0  0  0
    2.0600   12.1790   -6.8050 N   0  0  0  0  0  0  0  0  0  0  0  0
   -0.8700   10.2620   -6.0100 C   0  0  0  0  0  0  0  0  0  0  0  0
    1.0580   10.4950   -8.2260 C   0  0  0  0  0  0  0  0  0  0  0  0
    0.3980   17.6180   -5.1480 C   0  0  0  0  0  0  0  0  0  0  0  0
   -2.3120   16.9720   -5.4100 C   0  0  0  0  0  0  0  0  0  0  0  0
   -0.6630    8.9830   -6.5430 C   0  0  0  0  0  0  0  0  0  0  0  0
   -2.1160   10.6130   -5.5030 C   0  0  0  0  0  0  0  0  0  0  0  0
   -0.5320   18.5640   -5.5910 C   0  0  0  0  0  0  0  0  0  0  0  0
   -1.8680   18.2450   -5.7180 C   0  0  0  0  0  0  0  0  0  0  0  0
   -1.6990    8.0610   -6.5660 C   0  0  0  0  0  0  0  0  0  0  0  0
   -3.1540    9.6870   -5.5260 C   0  0  0  0  0  0  0  0  0  0  0  0
   -2.9460    8.4120   -6.0570 C   0  0  0  0  0  0  0  0  0  0  0  0
  1  2  1  0
  2  3  2  0
  4  2  1  1
  4  5  1  0
  4  6  1  0
  5  7  2  0
  5  8  1  0
  6  9  1  0
  6 10  2  0
  7 11  1  0
  8 12  1  0
 11 12  2  0
 10 13  1  0
  9 14  2  0
 13 14  1  0
 10 15  1  0
 13 16  1  0
 11 17  1  0
 12 18  1  0
 15 19  2  0
 15 20  1  0
 17 21  2  0
 18 22  2  0
 21 22  1  0
 19 23  1  0
 20 24  2  0
 23 25  2  0
 24 25  1  0
M  END
