mac-x0139-diamond-x0628_0_A
     RDKit          3D

 24 26  0  0  0  0  0  0  0  0999 V2000
   -2.5940   15.1280   -3.3650 C   0  0  0  0  0  0  0  0  0  0  0  0
   -1.4510   14.5090   -2.6660 N   0  0  0  0  0  0  0  0  0  0  0  0
   -0.2420   14.6200   -3.5420 C   0  0  0  0  0  0  0  0  0  0  0  0
   -1.4090   14.6860   -1.2390 C   0  0  0  0  0  0  0  0  0  0  0  0
    0.4100   13.3190   -4.1400 C   0  0  1  0  0  0  0  0  0  0  0  0
   -2.5790   14.8500   -0.5760 C   0  0  0  0  0  0  0  0  0  0  0  0
   -0.1980   14.7310   -0.5190 N   0  0  0  0  0  0  0  0  0  0  0  0
    1.3080   12.5990   -3.1240 C   0  0  0  0  0  0  0  0  0  0  0  0
   -2.5660   15.0160    0.8950 C   0  0  0  0  0  0  0  0  0  0  0  0
   -0.2590   14.8470    0.7830 C   0  0  0  0  0  0  0  0  0  0  0  0
   -3.9610   14.9340   -0.9020 C   0  0  0  0  0  0  0  0  0  0  0  0
   -0.4100   12.2600   -4.8350 N   0  0  0  0  0  0  0  0  0  0  0  0
    1.2740   13.1010   -1.8070 O   0  0  0  0  0  0  0  0  0  0  0  0
    0.9110   11.2370   -3.0200 O   0  0  0  0  0  0  0  0  0  0  0  0
    2.7490   12.7090   -3.6030 C   0  0  0  0  0  0  0  0  0  0  0  0
   -1.3890   14.8790    1.5260 N   0  0  0  0  0  0  0  0  0  0  0  0
   -3.7450   15.2650    1.3640 N   0  0  0  0  0  0  0  0  0  0  0  0
   -4.5750   15.2020    0.2590 C   0  0  0  0  0  0  0  0  0  0  0  0
    0.1690   11.5630   -5.8750 N   0  0  0  0  0  0  0  0  0  0  0  0
   -1.6890   11.7930   -4.6420 C   0  0  0  0  0  0  0  0  0  0  0  0
   -2.6240   12.2850   -3.6210 C   0  0  0  0  0  0  0  0  0  0  0  0
   -1.9460   10.8240   -5.5100 N   0  0  0  0  0  0  0  0  0  0  0  0
   -0.8040   10.7070   -6.2350 C   0  0  0  0  0  0  0  0  0  0  0  0
   -0.6550    9.7130   -7.3220 C   0  0  0  0  0  0  0  0  0  0  0  0
  1  2  1  0
  2  3  1  0
  2  4  1  0
  5  3  1  1
  4  6  2  0
  4  7  1  0
  5  8  1  0
  6  9  1  0
  7 10  2  0
  6 11  1  0
  5 12  1  0
  8 13  1  0
  8 14  1  0
  8 15  1  0
  9 16  1  0
 10 16  1  0
  9 17  2  0
 11 18  2  0
 17 18  1  0
 12 19  1  0
 12 20  1  0
 20 21  1  0
 20 22  2  0
 19 23  2  0
 22 23  1  0
 23 24  1  0
M  END
