mac-x0204-mac-x0341
     RDKit          3D

 23 25  0  0  0  0  0  0  0  0999 V2000
    0.3200   12.6590   -2.3780 O   0  0  0  0  0  0  0  0  0  0  0  0
    0.0080   13.9540   -2.8670 C   0  0  0  0  0  0  0  0  0  0  0  0
    1.2360   14.4430   -3.3780 O   0  0  0  0  0  0  0  0  0  0  0  0
   -0.3510   14.9090   -1.7530 C   0  0  0  0  0  0  0  0  0  0  0  0
   -1.0690   13.9760   -3.9100 C   0  0  0  0  0  0  0  0  0  0  0  0
   -1.5010   15.1830   -4.4790 C   0  0  0  0  0  0  0  0  0  0  0  0
   -1.6760   12.8040   -4.3370 C   0  0  0  0  0  0  0  0  0  0  0  0
   -1.7230   14.8630   -1.0770 C   0  0  0  0  0  0  0  0  0  0  0  0
   -2.5040   15.1600   -5.4310 C   0  0  0  0  0  0  0  0  0  0  0  0
   -2.6560   12.7530   -5.2650 N   0  0  0  0  0  0  0  0  0  0  0  0
   -1.5950   14.7120    0.2870 C   0  0  0  0  0  0  0  0  0  0  0  0
   -3.0470   14.9690   -1.6480 C   0  0  0  0  0  0  0  0  0  0  0  0
   -2.9660   16.3040   -6.0200 O   0  0  0  0  0  0  0  0  0  0  0  0
   -3.0490   13.9400   -5.7900 C   0  0  0  0  0  0  0  0  0  0  0  0
   -4.1770   14.9140   -0.7620 C   0  0  0  0  0  0  0  0  0  0  0  0
   -2.6900   14.6620    1.1050 C   0  0  0  0  0  0  0  0  0  0  0  0
   -5.6180   15.0020   -1.1550 C   0  0  0  0  0  0  0  0  0  0  0  0
   -3.9610   14.7600    0.6020 C   0  0  0  0  0  0  0  0  0  0  0  0
   -5.9840   15.2350   -2.2980 O   0  0  0  0  0  0  0  0  0  0  0  0
   -6.5420   14.7950   -0.1310 N   0  0  0  0  0  0  0  0  0  0  0  0
   -4.9650   14.6840    1.5460 N   0  0  0  0  0  0  0  0  0  0  0  0
   -6.1790   14.6900    1.1850 C   0  0  0  0  0  0  0  0  0  0  0  0
   -7.1180   14.5900    2.1640 N   0  0  0  0  0  0  0  0  0  0  0  0
  2  1  1  0
  2  3  1  0
  2  4  1  0
  2  5  1  0
  5  6  2  0
  5  7  1  0
  4  8  1  0
  6  9  1  0
  7 10  2  0
  8 11  2  0
  8 12  1  0
  9 13  1  0
  9 14  2  0
 10 14  1  0
 12 15  2  0
 11 16  1  0
 15 17  1  0
 15 18  1  0
 16 18  2  0
 17 19  2  0
 17 20  1  0
 18 21  1  0
 20 22  1  0
 21 22  2  0
 22 23  1  0
M  END
