mac-x0348-mac-x0451
     RDKit          3D

 27 30  0  0  0  0  0  0  0  0999 V2000
    1.0590   18.5110   -5.7190 C   0  0  0  0  0  0  0  0  0  0  0  0
    0.3810   17.3250   -5.2980 N   0  0  0  0  0  0  0  0  0  0  0  0
    0.9350   16.3060   -4.5700 C   0  0  0  0  0  0  0  0  0  0  0  0
   -0.9230   17.0450   -5.5720 C   0  0  0  0  0  0  0  0  0  0  0  0
   -0.0420   15.3570   -4.3850 C   0  0  0  0  0  0  0  0  0  0  0  0
   -1.2020   15.8150   -5.0090 C   0  0  0  0  0  0  0  0  0  0  0  0
   -1.8750   17.7530   -6.2630 C   0  0  0  0  0  0  0  0  0  0  0  0
   -0.0060   14.0520   -3.6750 C   0  0  1  0  0  0  0  0  0  0  0  0
   -2.4830   15.2510   -5.1300 C   0  0  0  0  0  0  0  0  0  0  0  0
   -3.1150   17.1700   -6.3650 C   0  0  0  0  0  0  0  0  0  0  0  0
    1.2910   13.3160   -3.4660 C   0  0  0  0  0  0  0  0  0  0  0  0
   -0.8390   14.2050   -2.4100 C   0  0  0  0  0  0  0  0  0  0  0  0
   -3.4420   15.9470   -5.8210 C   0  0  0  0  0  0  0  0  0  0  0  0
    0.8800   12.2520   -2.4930 C   0  0  0  0  0  0  0  0  0  0  0  0
   -1.9050   15.0770   -2.7520 O   0  0  0  0  0  0  0  0  0  0  0  0
    0.8260   12.4210   -1.2920 O   0  0  0  0  0  0  0  0  0  0  0  0
    0.5190   11.0950   -3.0880 O   0  0  0  0  0  0  0  0  0  0  0  0
   -2.9670   15.0410   -1.9380 C   0  0  0  0  0  0  0  0  0  0  0  0
   -4.1970   15.1530   -2.5730 C   0  0  0  0  0  0  0  0  0  0  0  0
   -2.8700   14.9040   -0.5720 C   0  0  0  0  0  0  0  0  0  0  0  0
   -4.0470   14.8810    0.1480 C   0  0  0  0  0  0  0  0  0  0  0  0
   -5.3760   15.1260   -1.8360 C   0  0  0  0  0  0  0  0  0  0  0  0
   -5.2990   14.9830   -0.4450 C   0  0  0  0  0  0  0  0  0  0  0  0
   -4.2290   14.7330    1.8260 S   0  0  0  0  0  0  0  0  0  0  0  0
   -5.9330   14.8050    1.6410 C   0  0  0  0  0  0  0  0  0  0  0  0
   -6.3660   14.9310    0.4190 N   0  0  0  0  0  0  0  0  0  0  0  0
   -6.7630   14.7410    2.6930 N   0  0  0  0  0  0  0  0  0  0  0  0
  1  2  1  0
  2  3  1  0
  2  4  1  0
  3  5  2  0
  4  6  2  0
  5  6  1  0
  4  7  1  0
  5  8  1  0
  6  9  1  0
  7 10  2  0
  8 11  1  1
  8 12  1  0
  9 13  2  0
 10 13  1  0
 11 14  1  0
 12 15  1  0
 14 16  2  0
 14 17  1  0
 15 18  1  0
 18 19  2  0
 18 20  1  0
 20 21  2  0
 19 22  1  0
 21 23  1  0
 22 23  2  0
 21 24  1  0
 24 25  1  0
 23 26  1  0
 25 26  2  0
 25 27  1  0
M  END
