mac-x0116-mac-x0193
     RDKit          3D

 32 35  0  0  0  0  0  0  0  0999 V2000
   -6.1410   14.6650    1.3130 C   0  0  0  0  0  0  0  0  0  0  0  0
   -4.7500   15.0160    1.5400 N   0  0  0  0  0  0  0  0  0  0  0  0
   -3.8990   14.9540    0.4330 C   0  0  0  0  0  0  0  0  0  0  0  0
   -6.5010   13.2320    1.4690 C   0  0  0  0  0  0  0  0  0  0  0  0
   -6.4280   12.4570    0.3440 O   0  0  0  0  0  0  0  0  0  0  0  0
   -6.9190   12.4730    2.5380 C   0  0  0  0  0  0  0  0  0  0  0  0
   -7.1160   11.1710    2.0510 C   0  0  0  0  0  0  0  0  0  0  0  0
   -6.8030   11.2120    0.7110 C   0  0  0  0  0  0  0  0  0  0  0  0
   -4.4050   15.0500   -0.8240 N   0  0  0  0  0  0  0  0  0  0  0  0
   -2.5020   14.8090    0.5690 C   0  0  0  0  0  0  0  0  0  0  0  0
   -3.5660   15.0040   -1.8740 C   0  0  0  0  0  0  0  0  0  0  0  0
   -1.7610   14.7910   -0.6020 C   0  0  0  0  0  0  0  0  0  0  0  0
   -1.6810   14.6840    1.6730 N   0  0  0  0  0  0  0  0  0  0  0  0
   -2.2250   14.8790   -1.8610 N   0  0  0  0  0  0  0  0  0  0  0  0
   -0.4600   14.6840   -0.1820 N   0  0  0  0  0  0  0  0  0  0  0  0
   -0.4700   14.6150    1.1820 C   0  0  0  0  0  0  0  0  0  0  0  0
    0.7310   14.6650   -1.0000 C   0  0  0  0  0  0  0  0  0  0  0  0
    1.1300   13.3200   -1.5660 C   0  0  0  0  0  0  0  0  0  0  0  0
    0.9190   13.3980   -2.9770 N   0  0  0  0  0  0  0  0  0  0  0  0
    0.6230   12.4200   -3.7110 C   0  0  0  0  0  0  0  0  0  0  0  0
    0.4980   11.1970   -3.1490 O   0  0  0  0  0  0  0  0  0  0  0  0
    0.3890   12.5370   -5.1830 C   0  0  0  0  0  0  0  0  0  0  0  0
    0.0490   11.3090   -5.8260 N   0  0  0  0  0  0  0  0  0  0  0  0
    0.7470   11.1400   -6.9640 C   0  0  0  0  0  0  0  0  0  0  0  0
    1.8570   11.5960   -7.0540 O   0  0  0  0  0  0  0  0  0  0  0  0
    0.0830   10.4430   -7.9350 N   0  0  0  0  0  0  0  0  0  0  0  0
    0.7950   10.0050   -9.1220 C   0  0  0  0  0  0  0  0  0  0  0  0
    1.4090    8.6260   -8.8790 C   0  0  0  0  0  0  0  0  0  0  0  0
   -0.0910    9.9630  -10.3630 C   0  0  0  0  0  0  0  0  0  0  0  0
    2.1920    8.0700  -10.0710 C   0  0  0  0  0  0  0  0  0  0  0  0
    0.6780    9.4310  -11.5740 C   0  0  0  0  0  0  0  0  0  0  0  0
    1.3600    8.0780  -11.3440 C   0  0  0  0  0  0  0  0  0  0  0  0
  1  2  1  0
  2  3  1  0
  1  4  1  0
  4  5  1  0
  4  6  2  0
  6  7  1  0
  5  8  1  0
  7  8  2  0
  3  9  2  0
  3 10  1  0
  9 11  1  0
 10 12  2  0
 10 13  1  0
 11 14  2  0
 12 14  1  0
 12 15  1  0
 13 16  2  0
 15 16  1  0
 15 17  1  0
 17 18  1  0
 18 19  1  0
 19 20  2  3
 20 21  1  0
 20 22  1  0
 22 23  1  0
 23 24  1  0
 24 25  2  0
 24 26  1  0
 26 27  1  0
 27 28  1  0
 27 29  1  0
 28 30  1  0
 29 31  1  0
 30 32  1  0
 31 32  1  0
M  END
