mac-x0206-diamond-x0104_0_A
     RDKit          3D

 18 19  0  0  0  0  0  0  0  0999 V2000
   -2.9520   15.0650   -0.6080 N   0  0  0  0  0  0  0  0  0  0  0  0
   -4.1910   15.1090   -1.1700 C   0  0  0  0  0  0  0  0  0  0  0  0
   -4.3220   15.2420   -2.3770 O   0  0  0  0  0  0  0  0  0  0  0  0
   -5.3640   14.9880   -0.2650 C   0  0  0  0  0  0  0  0  0  0  0  0
   -6.7010   14.8460   -0.6830 C   0  0  0  0  0  0  0  0  0  0  0  0
   -5.0830   15.0260    1.0990 C   0  0  0  0  0  0  0  0  0  0  0  0
   -7.0190   14.7990   -2.0140 O   0  0  0  0  0  0  0  0  0  0  0  0
   -7.7400   14.7450    0.2520 C   0  0  0  0  0  0  0  0  0  0  0  0
   -6.1110   14.9270    2.0180 C   0  0  0  0  0  0  0  0  0  0  0  0
   -7.4390   14.7920    1.6120 C   0  0  0  0  0  0  0  0  0  0  0  0
   -8.3560   14.7240    2.6370 N   0  0  0  0  0  0  0  0  0  0  0  0
   -7.8240   14.9630    3.7790 C   0  0  0  0  0  0  0  0  0  0  0  0
   -8.1700   15.0320    5.0860 N   0  0  0  0  0  0  0  0  0  0  0  0
   -9.3660   15.0480    5.6890 C   0  0  0  0  0  0  0  0  0  0  0  0
   -9.6480   15.1680    7.0270 C   0  0  0  0  0  0  0  0  0  0  0  0
  -10.8060   14.9090    4.7590 S   0  0  0  0  0  0  0  0  0  0  0  0
  -11.7890   15.0070    6.1520 C   0  0  0  0  0  0  0  0  0  0  0  0
  -11.0450   15.1430    7.3000 C   0  0  0  0  0  0  0  0  0  0  0  0
  1  2  1  0
  2  3  2  0
  2  4  1  0
  4  5  2  0
  4  6  1  0
  5  7  1  0
  5  8  1  0
  6  9  2  0
  8 10  2  0
  9 10  1  0
 10 11  1  0
 11 12  2  3
 12 13  1  0
 13 14  1  0
 14 15  2  0
 14 16  1  0
 16 17  1  0
 15 18  1  0
 17 18  2  0
M  END
