mac-x0138-mac-x0357
     RDKit          3D

 22 24  0  0  0  0  0  0  0  0999 V2000
   -1.5980   13.8510   -3.0010 C   0  0  0  0  0  0  0  0  0  0  0  0
   -0.3940   13.2690   -2.9340 C   0  0  0  0  0  0  0  0  0  0  0  0
    0.4750   13.1370   -1.8670 O   0  0  0  0  0  0  0  0  0  0  0  0
   -2.3990   14.4430   -2.0600 N   0  0  0  0  0  0  0  0  0  0  0  0
   -3.6420   15.0250   -2.2270 C   0  0  0  0  0  0  0  0  0  0  0  0
   -2.1110   14.5200   -0.7280 C   0  0  0  0  0  0  0  0  0  0  0  0
   -0.0840   12.6420   -4.1910 C   0  0  0  0  0  0  0  0  0  0  0  0
   -4.1650   15.4340   -1.0990 N   0  0  0  0  0  0  0  0  0  0  0  0
   -3.2200   15.1110   -0.1590 C   0  0  0  0  0  0  0  0  0  0  0  0
   -0.9920   14.0930   -0.1050 N   0  0  0  0  0  0  0  0  0  0  0  0
    1.1020   12.6680   -4.9100 C   0  0  0  0  0  0  0  0  0  0  0  0
   -1.2050   11.9320   -4.6670 C   0  0  0  0  0  0  0  0  0  0  0  0
    2.3380   13.3950   -4.4520 C   0  0  0  0  0  0  0  0  0  0  0  0
   -3.1800   15.2530    1.2200 C   0  0  0  0  0  0  0  0  0  0  0  0
   -1.0570   14.2970    1.2120 C   0  0  0  0  0  0  0  0  0  0  0  0
   -1.1770   11.2420   -5.8570 C   0  0  0  0  0  0  0  0  0  0  0  0
    1.0840   11.9610   -6.1060 C   0  0  0  0  0  0  0  0  0  0  0  0
   -4.2190   15.7940    1.9590 N   0  0  0  0  0  0  0  0  0  0  0  0
    0.0140   13.9320    2.0050 N   0  0  0  0  0  0  0  0  0  0  0  0
    2.1540   11.9130   -6.8800 O   0  0  0  0  0  0  0  0  0  0  0  0
   -2.0790   14.8330    1.8770 N   0  0  0  0  0  0  0  0  0  0  0  0
   -0.0160   11.2590   -6.5880 C   0  0  0  0  0  0  0  0  0  0  0  0
  1  2  2  3
  2  3  1  0
  1  4  1  0
  4  5  1  0
  4  6  1  0
  2  7  1  0
  5  8  2  0
  6  9  2  0
  8  9  1  0
  6 10  1  0
  7 11  2  0
  7 12  1  0
 11 13  1  0
  9 14  1  0
 10 15  2  0
 12 16  2  0
 11 17  1  0
 14 18  1  0
 15 19  1  0
 17 20  1  0
 14 21  2  0
 15 21  1  0
 16 22  1  0
 17 22  2  0
M  END
