mac-x0344-diamond-x0592_0_A
     RDKit          3D

 26 27  0  0  0  0  0  0  0  0999 V2000
    2.3310   13.2260   -4.8330 O   0  0  0  0  0  0  0  0  0  0  0  0
    1.3590   13.0500   -3.9260 C   0  0  0  0  0  0  0  0  0  0  0  0
    1.2310   13.8030   -2.8960 N   0  0  0  0  0  0  0  0  0  0  0  0
    0.4750   11.8590   -4.3200 C   0  0  0  0  0  0  0  0  0  0  0  0
    0.2600   11.0190   -3.4340 O   0  0  0  0  0  0  0  0  0  0  0  0
   -0.0580   11.7080   -5.5740 N   0  0  0  0  0  0  0  0  0  0  0  0
    0.1280   13.5190   -1.9920 C   0  0  0  0  0  0  0  0  0  0  0  0
    0.3670   14.0220   -0.5750 C   0  0  0  0  0  0  0  0  0  0  0  0
   -0.8380   10.6880   -6.1370 C   0  0  0  0  0  0  0  0  0  0  0  0
   -0.7870   14.7240    0.1400 C   0  0  0  0  0  0  0  0  0  0  0  0
   -0.2930    9.9530   -7.1930 C   0  0  0  0  0  0  0  0  0  0  0  0
   -2.1200   10.3730   -5.7060 C   0  0  0  0  0  0  0  0  0  0  0  0
   -2.0950   14.7020   -0.5530 N   0  0  0  0  0  0  0  0  0  0  0  0
   -1.0270    8.9250   -7.7950 C   0  0  0  0  0  0  0  0  0  0  0  0
   -2.8560    9.3490   -6.2990 C   0  0  0  0  0  0  0  0  0  0  0  0
   -3.1340   14.7670    0.2080 C   0  0  0  0  0  0  0  0  0  0  0  0
   -2.3090    8.6220   -7.3460 C   0  0  0  0  0  0  0  0  0  0  0  0
   -2.9360   14.8300    1.5570 N   0  0  0  0  0  0  0  0  0  0  0  0
   -4.5450   14.7900   -0.1170 C   0  0  0  0  0  0  0  0  0  0  0  0
   -5.2470   15.0280   -1.3280 C   0  0  0  0  0  0  0  0  0  0  0  0
   -5.5510   14.5660    0.7950 C   0  0  0  0  0  0  0  0  0  0  0  0
   -6.5820   14.9550   -1.1760 N   0  0  0  0  0  0  0  0  0  0  0  0
   -6.7320   14.6720    0.1350 N   0  0  0  0  0  0  0  0  0  0  0  0
   -8.0410   14.5090    0.7310 C   0  0  0  0  0  0  0  0  0  0  0  0
   -7.9360   14.0830    2.1930 C   0  0  0  0  0  0  0  0  0  0  0  0
   -7.1690   15.0190    2.9500 O   0  0  0  0  0  0  0  0  0  0  0  0
  1  2  1  0
  2  3  2  3
  2  4  1  0
  4  5  2  0
  4  6  1  0
  3  7  1  0
  7  8  1  0
  6  9  1  0
  8 10  1  0
  9 11  2  0
  9 12  1  0
 10 13  1  0
 11 14  1  0
 12 15  2  0
 13 16  2  3
 14 17  2  0
 15 17  1  0
 16 18  1  0
 16 19  1  0
 19 20  1  0
 19 21  2  0
 20 22  2  0
 21 23  1  0
 22 23  1  0
 23 24  1  0
 24 25  1  0
 25 26  1  0
M  END
