mac-x0417-mac-x0576
     RDKit          3D

 28 31  0  0  0  0  0  0  0  0999 V2000
    1.3890   12.5420   -2.0910 O   0  0  0  0  0  0  0  0  0  0  0  0
    0.8140   11.8460   -3.1010 C   0  0  0  0  0  0  0  0  0  0  0  0
    0.4060   10.6960   -2.9430 O   0  0  0  0  0  0  0  0  0  0  0  0
    0.7610   12.6440   -4.3860 C   0  0  2  0  0  0  0  0  0  0  0  0
    0.2320   14.0810   -4.0690 C   0  0  0  0  0  0  0  0  0  0  0  0
    0.4290   11.7910   -5.6020 C   0  0  0  0  0  0  0  0  0  0  0  0
   -1.2460   14.4470   -4.2400 C   0  0  0  0  0  0  0  0  0  0  0  0
    1.2760   11.8310   -6.6400 N   0  0  0  0  0  0  0  0  0  0  0  0
   -0.6520   10.8780   -5.8790 C   0  0  0  0  0  0  0  0  0  0  0  0
   -2.0910   14.4290   -3.0150 N   0  0  0  0  0  0  0  0  0  0  0  0
    0.7800   10.9600   -7.5990 O   0  0  0  0  0  0  0  0  0  0  0  0
   -0.3630   10.3870   -7.1540 C   0  0  0  0  0  0  0  0  0  0  0  0
   -1.8150   10.3960   -5.2420 C   0  0  0  0  0  0  0  0  0  0  0  0
   -1.1330    9.4550   -7.8500 C   0  0  0  0  0  0  0  0  0  0  0  0
   -2.6110    9.4530   -5.9190 C   0  0  0  0  0  0  0  0  0  0  0  0
   -1.8680   14.5460   -1.7210 C   0  0  0  0  0  0  0  0  0  0  0  0
   -2.2770    8.9920   -7.1960 C   0  0  0  0  0  0  0  0  0  0  0  0
   -0.7110   14.7380   -0.9780 N   0  0  0  0  0  0  0  0  0  0  0  0
   -3.2020   14.4430   -0.9520 C   0  0  1  0  0  0  0  0  0  0  0  0
   -0.7250   14.4240    0.4180 C   0  0  1  0  0  0  0  0  0  0  0  0
   -3.0450   14.2790    0.5870 C   0  0  1  0  0  0  0  0  0  0  0  0
   -3.9790   15.6460   -1.3130 N   0  0  0  0  0  0  0  0  0  0  0  0
    0.3500   14.8700    1.2360 N   0  0  0  0  0  0  0  0  0  0  0  0
   -1.8570   14.8230    1.1990 N   0  0  0  0  0  0  0  0  0  0  0  0
   -4.1480   14.8590    1.3120 N   0  0  0  0  0  0  0  0  0  0  0  0
   -5.3400   15.5050   -0.7780 C   0  0  0  0  0  0  0  0  0  0  0  0
   -5.3550   15.0500    0.6820 C   0  0  0  0  0  0  0  0  0  0  0  0
   -6.4090   14.8490    1.2860 O   0  0  0  0  0  0  0  0  0  0  0  0
  1  2  1  0
  2  3  2  0
  2  4  1  0
  4  5  1  1
  4  6  1  0
  5  7  1  0
  6  8  2  0
  6  9  1  0
  7 10  1  0
  8 11  1  0
  9 12  2  0
 11 12  1  0
  9 13  1  0
 12 14  1  0
 13 15  2  0
 10 16  2  3
 14 17  2  0
 15 17  1  0
 16 18  1  0
 16 19  1  0
 18 20  1  0
 19 21  1  0
 19 22  1  1
 20 23  1  1
 20 24  1  0
 21 24  1  1
 21 25  1  0
 22 26  1  0
 25 27  1  0
 26 27  1  0
 27 28  2  0
M  END
