mac-x0301-mac-x0178
     RDKit          3D

 25 27  0  0  0  0  0  0  0  0999 V2000
    1.2270   13.8530   -2.1430 O   0  0  0  0  0  0  0  0  0  0  0  0
    0.2030   14.7800   -2.4110 C   0  0  0  0  0  0  0  0  0  0  0  0
    0.8130   15.9620   -2.7560 O   0  0  0  0  0  0  0  0  0  0  0  0
   -0.9860   14.8390   -1.4610 C   0  0  0  0  0  0  0  0  0  0  0  0
   -0.4900   14.5250   -3.5620 C   0  0  0  0  0  0  0  0  0  0  0  0
   -0.8390   14.7270   -0.1380 C   0  0  0  0  0  0  0  0  0  0  0  0
   -2.3400   15.0200   -1.9070 C   0  0  0  0  0  0  0  0  0  0  0  0
   -0.8710   15.6840   -4.1530 C   0  0  0  0  0  0  0  0  0  0  0  0
   -0.7680   13.2960   -4.0020 C   0  0  0  0  0  0  0  0  0  0  0  0
   -0.2240   12.1360   -3.2400 C   0  0  0  0  0  0  0  0  0  0  0  0
   -1.8840   14.7850    0.7560 C   0  0  0  0  0  0  0  0  0  0  0  0
   -3.4260   15.0880   -1.0030 C   0  0  0  0  0  0  0  0  0  0  0  0
    0.3370   14.5460    0.4670 O   0  0  0  0  0  0  0  0  0  0  0  0
   -1.6100   15.6730   -5.2350 C   0  0  0  0  0  0  0  0  0  0  0  0
   -1.5590   13.2090   -5.1480 C   0  0  0  0  0  0  0  0  0  0  0  0
   -1.9730   17.3130   -5.8110 S   0  0  0  0  0  0  0  0  0  0  0  0
    0.5750   12.1980   -2.3160 O   0  0  0  0  0  0  0  0  0  0  0  0
   -0.6990   10.9760   -3.6880 O   0  0  0  0  0  0  0  0  0  0  0  0
   -3.1920   14.9680    0.3640 C   0  0  0  0  0  0  0  0  0  0  0  0
   -1.4380   14.6400    2.0230 O   0  0  0  0  0  0  0  0  0  0  0  0
   -0.1300   14.1370    1.7480 C   0  0  0  0  0  0  0  0  0  0  0  0
   -1.9960   14.4150   -5.7640 C   0  0  0  0  0  0  0  0  0  0  0  0
   -0.4900   17.8670   -6.3590 N   0  0  0  0  0  0  0  0  0  0  0  0
   -2.8010   17.2450   -6.9470 O   0  0  0  0  0  0  0  0  0  0  0  0
   -2.2390   18.1960   -4.7110 O   0  0  0  0  0  0  0  0  0  0  0  0
  2  1  1  0
  2  3  1  0
  2  4  1  0
  2  5  1  0
  4  6  1  0
  4  7  2  0
  5  8  2  0
  5  9  1  0
  9 10  1  0
  6 11  2  0
  7 12  1  0
  6 13  1  0
  8 14  1  0
  9 15  2  0
 14 16  1  0
 10 17  2  0
 10 18  1  0
 11 19  1  0
 12 19  2  0
 11 20  1  0
 13 21  1  0
 20 21  1  0
 14 22  2  0
 15 22  1  0
 16 23  1  0
 16 24  2  0
 16 25  2  0
M  END
