mac-x0568-mac-x0180
     RDKit          3D

 22 23  0  0  0  0  0  0  0  0999 V2000
   -7.5760   14.1930    0.9520 C   0  0  0  0  0  0  0  0  0  0  0  0
   -8.0140   14.7930   -0.3660 C   0  0  0  0  0  0  0  0  0  0  0  0
   -9.0910   14.4770   -0.8520 O   0  0  0  0  0  0  0  0  0  0  0  0
   -6.1050   14.0930    0.8630 C   0  0  0  0  0  0  0  0  0  0  0  0
   -7.0830   15.6860   -0.9110 N   0  0  0  0  0  0  0  0  0  0  0  0
   -5.6660   13.3530   -0.1810 N   0  0  0  0  0  0  0  0  0  0  0  0
   -5.2670   14.7270    1.7660 C   0  0  0  0  0  0  0  0  0  0  0  0
   -4.3290   13.2600   -0.3350 C   0  0  0  0  0  0  0  0  0  0  0  0
   -3.8950   14.6120    1.5810 C   0  0  0  0  0  0  0  0  0  0  0  0
   -5.7590   15.4640   -1.3800 C   0  0  0  0  0  0  0  0  0  0  0  0
   -3.4120   13.8720    0.5060 C   0  0  0  0  0  0  0  0  0  0  0  0
   -4.5930   15.6220   -0.6250 C   0  0  0  0  0  0  0  0  0  0  0  0
   -5.6190   15.0590   -2.7070 C   0  0  0  0  0  0  0  0  0  0  0  0
   -1.9600   13.7710    0.2880 C   0  0  0  0  0  0  0  0  0  0  0  0
   -3.3310   15.3730   -1.1970 C   0  0  0  0  0  0  0  0  0  0  0  0
   -4.3600   14.8200   -3.2810 C   0  0  0  0  0  0  0  0  0  0  0  0
   -1.5130   13.2450   -0.7230 O   0  0  0  0  0  0  0  0  0  0  0  0
   -1.1290   14.2900    1.2400 N   0  0  0  0  0  0  0  0  0  0  0  0
   -3.1970   14.9770   -2.5270 C   0  0  0  0  0  0  0  0  0  0  0  0
   -1.8770   14.7180   -3.1860 C   0  0  0  0  0  0  0  0  0  0  0  0
   -1.7160   14.5050   -4.3760 O   0  0  0  0  0  0  0  0  0  0  0  0
   -0.8200   14.7490   -2.3490 O   0  0  0  0  0  0  0  0  0  0  0  0
  1  2  1  0
  2  3  2  0
  1  4  1  0
  2  5  1  0
  4  6  2  0
  4  7  1  0
  6  8  1  0
  7  9  2  0
  5 10  1  0
  8 11  2  0
  9 11  1  0
 10 12  2  0
 10 13  1  0
 11 14  1  0
 12 15  1  0
 13 16  2  0
 14 17  2  0
 14 18  1  0
 15 19  2  0
 16 19  1  0
 19 20  1  0
 20 21  2  0
 20 22  1  0
M  END
