mac-x0163-mac-x0565
     RDKit          3D

 24 26  0  0  0  0  0  0  0  0999 V2000
   -3.8680   13.4690   -0.9850 Cl  0  0  0  0  0  0  0  0  0  0  0  0
   -2.3850   13.9760   -0.2460 C   0  0  0  0  0  0  0  0  0  0  0  0
   -2.4440   14.6190    0.9780 C   0  0  0  0  0  0  0  0  0  0  0  0
   -1.1140   13.7780   -0.8110 C   0  0  0  0  0  0  0  0  0  0  0  0
   -3.6690   14.8970    1.6080 N   0  0  0  0  0  0  0  0  0  0  0  0
   -0.0140   14.1940   -0.1700 N   0  0  0  0  0  0  0  0  0  0  0  0
   -1.3610   15.0190    1.6230 N   0  0  0  0  0  0  0  0  0  0  0  0
   -0.9170   13.1510   -2.0560 N   0  0  0  0  0  0  0  0  0  0  0  0
   -0.1960   14.7890    1.0120 C   0  0  0  0  0  0  0  0  0  0  0  0
   -0.0410   13.9510   -2.9250 C   0  0  0  0  0  0  0  0  0  0  0  0
   -2.1370   12.6080   -2.6800 C   0  0  0  0  0  0  0  0  0  0  0  0
   -0.4390   13.7600   -4.4020 C   0  0  1  0  0  0  0  0  0  0  0  0
   -1.8370   11.7220   -3.8900 C   0  0  0  0  0  0  0  0  0  0  0  0
   -0.7050   12.2780   -4.7290 C   0  0  0  0  0  0  0  0  0  0  0  0
   -1.6080   14.7150   -4.7910 C   0  0  0  0  0  0  0  0  0  0  0  0
   -2.7980   14.8490   -3.8320 C   0  0  0  0  0  0  0  0  0  0  0  0
   -2.6300   15.2010   -2.4900 C   0  0  0  0  0  0  0  0  0  0  0  0
   -4.1230   14.6250   -4.2630 C   0  0  0  0  0  0  0  0  0  0  0  0
   -3.7220   15.3290   -1.6060 C   0  0  0  0  0  0  0  0  0  0  0  0
   -5.2210   14.7440   -3.3770 C   0  0  0  0  0  0  0  0  0  0  0  0
   -5.0270   15.0960   -2.0360 C   0  0  0  0  0  0  0  0  0  0  0  0
   -6.1370   15.2260   -1.0400 C   0  0  0  0  0  0  0  0  0  0  0  0
   -5.6940   15.3190    0.2280 O   0  0  0  0  0  0  0  0  0  0  0  0
   -7.3340   15.2330   -1.2700 O   0  0  0  0  0  0  0  0  0  0  0  0
  1  2  1  0
  2  3  2  0
  2  4  1  0
  3  5  1  0
  4  6  2  0
  3  7  1  0
  4  8  1  0
  6  9  1  0
  7  9  2  0
  8 10  1  0
  8 11  1  0
 10 12  1  0
 11 13  1  0
 12 14  1  0
 13 14  1  0
 12 15  1  1
 15 16  1  0
 16 17  2  0
 16 18  1  0
 17 19  1  0
 18 20  2  0
 19 21  2  0
 20 21  1  0
 21 22  1  0
 22 23  1  0
 22 24  2  0
M  END
