mac-x0255-mac-x0303
     RDKit          3D

 29 32  0  0  0  0  0  0  0  0999 V2000
    2.3550   12.4550   -2.2540 O   0  0  0  0  0  0  0  0  0  0  0  0
    1.0480   12.6240   -2.6800 C   0  0  0  0  0  0  0  0  0  0  0  0
    0.3380   11.4210   -2.4080 O   0  0  0  0  0  0  0  0  0  0  0  0
    1.0540   12.8420   -4.2030 C   0  0  0  0  0  0  0  0  0  0  0  0
    0.5190   13.8440   -1.9100 C   0  0  0  0  0  0  0  0  0  0  0  0
   -0.9470   14.2470   -2.0460 C   0  0  0  0  0  0  0  0  0  0  0  0
    0.4470   14.1520   -4.5560 C   0  0  0  0  0  0  0  0  0  0  0  0
   -1.6320   14.5030   -0.7120 C   0  0  0  0  0  0  0  0  0  0  0  0
    1.0710   15.3620   -4.7250 C   0  0  0  0  0  0  0  0  0  0  0  0
   -1.2370   14.2600   -4.7940 S   0  0  0  0  0  0  0  0  0  0  0  0
    0.1620   16.4070   -5.0630 C   0  0  0  0  0  0  0  0  0  0  0  0
   -1.1530   15.9340   -5.1320 C   0  0  0  0  0  0  0  0  0  0  0  0
   -3.1240   14.7300   -0.7760 C   0  0  0  0  0  0  0  0  0  0  0  0
    0.3970   17.7680   -5.3240 C   0  0  0  0  0  0  0  0  0  0  0  0
   -2.2260   16.7810   -5.4500 C   0  0  0  0  0  0  0  0  0  0  0  0
   -3.8200   15.1510   -1.9320 C   0  0  0  0  0  0  0  0  0  0  0  0
   -3.8280   14.4850    0.3920 C   0  0  0  0  0  0  0  0  0  0  0  0
   -0.6680   18.6080   -5.6460 C   0  0  0  0  0  0  0  0  0  0  0  0
   -1.9580   18.1200   -5.7080 C   0  0  0  0  0  0  0  0  0  0  0  0
   -5.2040   14.6380    0.4100 C   0  0  0  0  0  0  0  0  0  0  0  0
   -5.2220   15.3140   -1.9280 C   0  0  0  0  0  0  0  0  0  0  0  0
   -5.8790   15.0400   -0.7310 C   0  0  0  0  0  0  0  0  0  0  0  0
   -6.0480   14.4340    1.4470 N   0  0  0  0  0  0  0  0  0  0  0  0
   -7.2440   14.6900    0.9900 C   0  0  0  0  0  0  0  0  0  0  0  0
   -7.2020   15.0660   -0.3340 N   0  0  0  0  0  0  0  0  0  0  0  0
   -8.6960   14.5620    1.9800 S   0  0  0  0  0  0  0  0  0  0  0  0
   -8.6180   13.0290    2.6690 N   0  0  0  0  0  0  0  0  0  0  0  0
   -8.5050   15.5320    3.0310 O   0  0  0  0  0  0  0  0  0  0  0  0
   -9.8080   14.6130    1.0690 O   0  0  0  0  0  0  0  0  0  0  0  0
  2  1  1  0
  2  3  1  0
  2  4  1  0
  2  5  1  0
  5  6  1  0
  4  7  1  0
  6  8  1  0
  7  9  2  0
  7 10  1  0
  9 11  1  0
 10 12  1  0
 11 12  2  0
  8 13  1  0
 11 14  1  0
 12 15  1  0
 13 16  2  0
 13 17  1  0
 14 18  2  0
 15 19  2  0
 18 19  1  0
 17 20  2  0
 16 21  1  0
 20 22  1  0
 21 22  2  0
 20 23  1  0
 23 24  2  0
 22 25  1  0
 24 25  1  0
 24 26  1  0
 26 27  1  0
 26 28  2  0
 26 29  2  0
M  END
