mac-x0568-mac-x0433
     RDKit          3D

 11 11  0  0  0  0  0  0  0  0999 V2000
   -8.6540   14.5410    1.2290 C   0  0  0  0  0  0  0  0  0  0  0  0
   -7.2980   14.6850    0.6090 C   0  0  0  0  0  0  0  0  0  0  0  0
   -6.1700   14.6130    1.4060 C   0  0  0  0  0  0  0  0  0  0  0  0
   -7.2350   14.8900   -0.7320 N   0  0  0  0  0  0  0  0  0  0  0  0
   -6.0250   15.0270   -1.3210 C   0  0  0  0  0  0  0  0  0  0  0  0
   -4.9200   14.7520    0.8140 C   0  0  0  0  0  0  0  0  0  0  0  0
   -6.0280   15.2320   -2.7270 N   0  0  0  0  0  0  0  0  0  0  0  0
   -4.8350   14.9590   -0.5720 C   0  0  0  0  0  0  0  0  0  0  0  0
   -3.5190   15.0980   -1.2410 C   0  0  0  0  0  0  0  0  0  0  0  0
   -3.4300   15.3920   -2.4270 O   0  0  0  0  0  0  0  0  0  0  0  0
   -2.3890   14.8670   -0.4970 N   0  0  0  0  0  0  0  0  0  0  0  0
  1  2  1  0
  2  3  2  0
  2  4  1  0
  4  5  2  0
  3  6  1  0
  5  7  1  0
  5  8  1  0
  6  8  2  0
  8  9  1  0
  9 10  2  0
  9 11  1  0
M  END
