mac-x0357-mac-x0361
     RDKit          3D

 22 23  0  0  0  0  0  0  0  0999 V2000
    2.4050   13.1680   -4.3900 C   0  0  0  0  0  0  0  0  0  0  0  0
    1.0870   12.5130   -4.7260 C   0  0  0  0  0  0  0  0  0  0  0  0
    0.8940   11.9050   -5.9750 C   0  0  0  0  0  0  0  0  0  0  0  0
    0.0110   12.4780   -3.8190 C   0  0  0  0  0  0  0  0  0  0  0  0
    1.9190   11.9180   -6.8610 O   0  0  0  0  0  0  0  0  0  0  0  0
    0.0710   13.0820   -2.4670 C   0  0  0  0  0  0  0  0  0  0  0  0
   -1.2010   11.8540   -4.1640 C   0  0  0  0  0  0  0  0  0  0  0  0
   -0.3050   11.2870   -6.3250 C   0  0  0  0  0  0  0  0  0  0  0  0
   -0.3550   14.2670   -2.2170 N   0  0  0  0  0  0  0  0  0  0  0  0
    0.6220   12.2670   -1.5360 O   0  0  0  0  0  0  0  0  0  0  0  0
   -1.3550   11.2620   -5.4150 C   0  0  0  0  0  0  0  0  0  0  0  0
   -0.8690   14.9730   -3.3910 C   0  0  0  0  0  0  0  0  0  0  0  0
   -2.2830   15.1890   -3.5840 O   0  0  0  0  0  0  0  0  0  0  0  0
   -3.2810   15.0770   -2.6460 C   0  0  0  0  0  0  0  0  0  0  0  0
   -2.9460   14.9470   -1.2910 C   0  0  0  0  0  0  0  0  0  0  0  0
   -4.6240   15.0890   -2.9960 C   0  0  0  0  0  0  0  0  0  0  0  0
   -3.9540   14.8380   -0.3150 C   0  0  0  0  0  0  0  0  0  0  0  0
   -5.6310   14.9860   -2.0390 C   0  0  0  0  0  0  0  0  0  0  0  0
   -5.3050   14.8580   -0.6930 C   0  0  0  0  0  0  0  0  0  0  0  0
   -6.3690   14.7430    0.3430 C   0  0  0  0  0  0  0  0  0  0  0  0
   -5.9890   14.7820    1.6540 N   0  0  0  0  0  0  0  0  0  0  0  0
   -7.5500   14.6160    0.0420 O   0  0  0  0  0  0  0  0  0  0  0  0
  1  2  1  0
  2  3  2  0
  2  4  1  0
  3  5  1  0
  4  6  1  0
  4  7  2  0
  3  8  1  0
  6  9  2  3
  6 10  1  0
  7 11  1  0
  8 11  2  0
  9 12  1  0
 12 13  1  0
 13 14  1  0
 14 15  2  0
 14 16  1  0
 15 17  1  0
 16 18  2  0
 17 19  2  0
 18 19  1  0
 19 20  1  0
 20 21  1  0
 20 22  2  0
M  END
