mac-x0433-diamond-x0724_0_A
     RDKit          3D

 15 16  0  0  0  0  0  0  0  0999 V2000
   -3.2060   14.8900    0.8070 C   0  0  0  0  0  0  0  0  0  0  0  0
   -4.5640   14.8930    0.1640 C   0  0  0  0  0  0  0  0  0  0  0  0
   -5.7730   14.8240    0.9810 C   0  0  0  0  0  0  0  0  0  0  0  0
   -4.6850   14.9750   -1.1310 N   0  0  0  0  0  0  0  0  0  0  0  0
   -5.9480   14.9990   -1.6950 C   0  0  0  0  0  0  0  0  0  0  0  0
   -6.9560   14.3310    0.2670 C   0  0  2  0  0  0  0  0  0  0  0  0
   -6.0800   15.0880    2.2510 C   0  0  0  0  0  0  0  0  0  0  0  0
   -6.8920   12.8240    0.1920 C   0  0  0  0  0  0  0  0  0  0  0  0
   -5.9940   15.2820   -3.0030 N   0  0  0  0  0  0  0  0  0  0  0  0
   -7.0710   14.7500   -1.1040 N   0  0  0  0  0  0  0  0  0  0  0  0
   -7.5260   14.9010    2.4250 C   0  0  0  0  0  0  0  0  0  0  0  0
   -8.0640   14.5210    1.2540 C   0  0  0  0  0  0  0  0  0  0  0  0
   -8.2470   15.1460    3.7060 C   0  0  0  0  0  0  0  0  0  0  0  0
   -8.2540   13.9650    4.5620 N   0  0  0  0  0  0  0  0  0  0  0  0
   -8.7120   14.2100    5.9180 C   0  0  0  0  0  0  0  0  0  0  0  0
  1  2  1  0
  2  3  1  0
  2  4  2  0
  4  5  1  0
  3  6  1  0
  3  7  2  0
  6  8  1  6
  5  9  1  0
  5 10  2  0
  6 10  1  0
  7 11  1  0
  6 12  1  0
 11 12  2  0
 11 13  1  0
 13 14  1  0
 14 15  1  0
M  END
