mac-x0326-mac-x0204
     RDKit          3D

 23 25  0  0  0  0  0  0  0  0999 V2000
   -6.3220   15.5540   -1.2210 Cl  0  0  0  0  0  0  0  0  0  0  0  0
   -4.6390   15.2620   -1.0270 C   0  0  0  0  0  0  0  0  0  0  0  0
   -3.8660   15.1150   -2.1550 C   0  0  0  0  0  0  0  0  0  0  0  0
   -4.0740   15.1740    0.2430 C   0  0  0  0  0  0  0  0  0  0  0  0
   -2.5000   14.8700   -1.9980 C   0  0  0  0  0  0  0  0  0  0  0  0
   -2.6990   14.9280    0.4130 C   0  0  0  0  0  0  0  0  0  0  0  0
   -1.6530   14.7110   -3.0200 N   0  0  0  0  0  0  0  0  0  0  0  0
   -1.9140   14.7760   -0.7390 C   0  0  0  0  0  0  0  0  0  0  0  0
   -0.4320   14.4990   -2.6150 C   0  0  0  0  0  0  0  0  0  0  0  0
   -0.2060   14.4720   -0.9090 S   0  0  0  0  0  0  0  0  0  0  0  0
    0.5260   14.3230   -3.7540 C   0  0  2  0  0  0  0  0  0  0  0  0
    1.3360   13.0150   -3.7600 C   0  0  0  0  0  0  0  0  0  0  0  0
    1.3220   15.5170   -3.7260 O   0  0  0  0  0  0  0  0  0  0  0  0
   -0.7360   14.2910   -4.5890 C   0  0  0  0  0  0  0  0  0  0  0  0
    0.8600   12.0710   -2.7080 C   0  0  0  0  0  0  0  0  0  0  0  0
   -1.4010   15.4570   -4.9690 C   0  0  0  0  0  0  0  0  0  0  0  0
   -1.3020   13.0720   -4.9700 C   0  0  0  0  0  0  0  0  0  0  0  0
    0.3820   10.9050   -3.1830 O   0  0  0  0  0  0  0  0  0  0  0  0
    0.8770   12.2910   -1.5120 O   0  0  0  0  0  0  0  0  0  0  0  0
   -2.5800   15.3560   -5.6920 C   0  0  0  0  0  0  0  0  0  0  0  0
   -2.4480   12.9470   -5.6780 N   0  0  0  0  0  0  0  0  0  0  0  0
   -3.2080   16.5060   -6.0510 O   0  0  0  0  0  0  0  0  0  0  0  0
   -3.0620   14.0990   -6.0220 C   0  0  0  0  0  0  0  0  0  0  0  0
  1  2  1  0
  2  3  2  0
  2  4  1  0
  3  5  1  0
  4  6  2  0
  5  7  1  0
  5  8  2  0
  6  8  1  0
  7  9  2  0
  8 10  1  0
  9 10  1  0
  9 11  1  0
 11 12  1  0
 11 13  1  6
 11 14  1  0
 12 15  1  0
 14 16  2  0
 14 17  1  0
 15 18  1  0
 15 19  2  0
 16 20  1  0
 17 21  2  0
 20 22  1  0
 20 23  2  0
 21 23  1  0
M  END
