mac-x0178-diamond-x0689_0_A
     RDKit          3D

 22 23  0  0  0  0  0  0  0  0999 V2000
   -0.4180   18.3580   -6.7150 N   0  0  0  0  0  0  0  0  0  0  0  0
   -1.7870   17.7820   -5.9310 S   0  0  0  0  0  0  0  0  0  0  0  0
   -2.7490   17.3700   -6.9060 O   0  0  0  0  0  0  0  0  0  0  0  0
   -2.0680   18.7080   -4.8560 O   0  0  0  0  0  0  0  0  0  0  0  0
   -1.1750   16.3300   -5.1810 C   0  0  0  0  0  0  0  0  0  0  0  0
    0.0230   16.4670   -4.5020 C   0  0  0  0  0  0  0  0  0  0  0  0
   -1.8900   15.1200   -5.2700 C   0  0  0  0  0  0  0  0  0  0  0  0
    0.5070   15.3730   -3.8690 C   0  0  0  0  0  0  0  0  0  0  0  0
   -1.3900   14.0070   -4.6270 C   0  0  0  0  0  0  0  0  0  0  0  0
   -0.2140   14.1910   -3.9380 C   0  0  0  0  0  0  0  0  0  0  0  0
    0.3740   13.2260   -3.1510 C   0  0  0  0  0  0  0  0  0  0  0  0
    0.4640   13.7710   -2.0660 N   0  0  0  0  0  0  0  0  0  0  0  0
    0.6620   11.9770   -3.5440 O   0  0  0  0  0  0  0  0  0  0  0  0
    0.8270   13.4280   -0.8150 C   0  0  0  0  0  0  0  0  0  0  0  0
   -0.3000   13.9260   -0.0120 C   0  0  0  0  0  0  0  0  0  0  0  0
   -1.4170   14.3260   -0.7000 C   0  0  0  0  0  0  0  0  0  0  0  0
   -0.3920   14.0420    1.3510 C   0  0  0  0  0  0  0  0  0  0  0  0
   -2.5230   14.7880   -0.1300 N   0  0  0  0  0  0  0  0  0  0  0  0
   -1.4930   14.5040    1.9660 N   0  0  0  0  0  0  0  0  0  0  0  0
   -2.5200   14.8580    1.1910 C   0  0  0  0  0  0  0  0  0  0  0  0
   -3.6400   15.3240    1.8280 N   0  0  0  0  0  0  0  0  0  0  0  0
   -4.7540   15.3910    0.9240 C   0  0  0  0  0  0  0  0  0  0  0  0
  2  1  1  0
  2  3  2  0
  2  4  2  0
  2  5  1  0
  5  6  2  0
  5  7  1  0
  6  8  1  0
  7  9  2  0
  8 10  2  0
  9 10  1  0
 10 11  1  0
 11 12  2  3
 11 13  1  0
 12 14  1  0
 14 15  1  0
 15 16  2  0
 15 17  1  0
 16 18  1  0
 17 19  2  0
 18 20  2  0
 19 20  1  0
 20 21  1  0
 21 22  1  0
M  END
