mac-x0178-mac-x0301
     RDKit          3D

 25 27  0  0  0  0  0  0  0  0999 V2000
   -0.4860   17.8390   -6.4470 N   0  0  0  0  0  0  0  0  0  0  0  0
   -1.9600   17.3490   -5.8030 S   0  0  0  0  0  0  0  0  0  0  0  0
   -2.8410   17.2530   -6.9040 O   0  0  0  0  0  0  0  0  0  0  0  0
   -2.1540   18.2330   -4.6840 O   0  0  0  0  0  0  0  0  0  0  0  0
   -1.6090   15.7010   -5.2310 C   0  0  0  0  0  0  0  0  0  0  0  0
   -0.8650   15.7070   -4.1510 C   0  0  0  0  0  0  0  0  0  0  0  0
   -2.0110   14.4470   -5.7640 C   0  0  0  0  0  0  0  0  0  0  0  0
   -0.4960   14.5480   -3.5670 C   0  0  0  0  0  0  0  0  0  0  0  0
   -1.5830   13.2420   -5.1560 C   0  0  0  0  0  0  0  0  0  0  0  0
    0.2020   14.7530   -2.4050 C   0  0  0  0  0  0  0  0  0  0  0  0
   -0.7880   13.3150   -4.0140 C   0  0  0  0  0  0  0  0  0  0  0  0
   -0.2670   12.1290   -3.2790 C   0  0  0  0  0  0  0  0  0  0  0  0
    1.1630   13.7530   -2.1610 O   0  0  0  0  0  0  0  0  0  0  0  0
    0.8090   15.9400   -2.7010 O   0  0  0  0  0  0  0  0  0  0  0  0
   -0.9810   14.8210   -1.4430 C   0  0  0  0  0  0  0  0  0  0  0  0
    0.6230   12.1300   -2.4370 O   0  0  0  0  0  0  0  0  0  0  0  0
   -0.8790   10.9980   -3.6400 O   0  0  0  0  0  0  0  0  0  0  0  0
   -0.8340   14.7150   -0.1210 C   0  0  0  0  0  0  0  0  0  0  0  0
   -2.3340   15.0110   -1.9000 C   0  0  0  0  0  0  0  0  0  0  0  0
   -1.8800   14.7860    0.7630 C   0  0  0  0  0  0  0  0  0  0  0  0
   -3.4180   15.0920   -1.0020 C   0  0  0  0  0  0  0  0  0  0  0  0
    0.3400   14.5280    0.4800 O   0  0  0  0  0  0  0  0  0  0  0  0
   -3.1880   14.9770    0.3700 C   0  0  0  0  0  0  0  0  0  0  0  0
   -1.4380   14.6420    2.0320 O   0  0  0  0  0  0  0  0  0  0  0  0
   -0.1290   14.1300    1.7630 C   0  0  0  0  0  0  0  0  0  0  0  0
  2  1  1  0
  2  3  2  0
  2  4  2  0
  2  5  1  0
  5  6  2  0
  5  7  1  0
  6  8  1  0
  7  9  2  0
  8 10  1  0
  8 11  2  0
  9 11  1  0
 11 12  1  0
 10 13  1  0
 10 14  1  0
 10 15  1  0
 12 16  2  0
 12 17  1  0
 15 18  1  0
 15 19  2  0
 18 20  2  0
 19 21  1  0
 18 22  1  0
 20 23  1  0
 21 23  2  0
 20 24  1  0
 22 25  1  0
 24 25  1  0
M  END
