mac-x0402-mac-x0282
     RDKit          3D

 16 18  0  0  0  0  0  0  0  0999 V2000
   -1.8860   14.8450   -3.4440 Cl  0  0  0  0  0  0  0  0  0  0  0  0
   -2.9860   15.5030   -2.1670 C   0  0  1  0  0  0  0  0  0  0  0  0
   -4.3860   15.2610   -2.7140 C   0  0  0  0  0  0  0  0  0  0  0  0
   -2.6930   14.9300   -0.7150 C   0  0  1  0  0  0  0  0  0  0  0  0
   -4.0140   14.8310    0.0260 C   0  0  0  0  0  0  0  0  0  0  0  0
   -5.4340   14.9710   -1.9270 C   0  0  0  0  0  0  0  0  0  0  0  0
   -1.7480   13.7460   -0.9660 C   0  0  0  0  0  0  0  0  0  0  0  0
   -1.9110   15.8880    0.1980 C   0  0  0  0  0  0  0  0  0  0  0  0
   -5.2670   14.8660   -0.5330 C   0  0  0  0  0  0  0  0  0  0  0  0
   -4.1770   14.7160    1.7040 S   0  0  0  0  0  0  0  0  0  0  0  0
   -0.6040   13.5680   -0.2780 C   0  0  0  0  0  0  0  0  0  0  0  0
   -1.2520   15.2320    1.3220 N   0  0  0  0  0  0  0  0  0  0  0  0
   -5.8910   14.7340    1.5370 C   0  0  0  0  0  0  0  0  0  0  0  0
   -6.3380   14.8070    0.3110 N   0  0  0  0  0  0  0  0  0  0  0  0
   -0.1520   14.4510    0.8330 C   0  0  0  0  0  0  0  0  0  0  0  0
   -6.7100   14.6860    2.6010 N   0  0  0  0  0  0  0  0  0  0  0  0
  2  1  1  6
  2  3  1  0
  2  4  1  0
  4  5  1  0
  3  6  2  0
  4  7  1  6
  4  8  1  0
  5  9  2  0
  6  9  1  0
  5 10  1  0
  7 11  2  0
  8 12  1  0
 10 13  1  0
  9 14  1  0
 13 14  2  0
 11 15  1  0
 12 15  1  0
 13 16  1  0
M  END
