mac-x0568-mac-x0255
     RDKit          3D

 25 27  0  0  0  0  0  0  0  0999 V2000
   -8.5100   14.4850    1.4150 C   0  0  0  0  0  0  0  0  0  0  0  0
   -7.1620   14.6320    0.7810 C   0  0  0  0  0  0  0  0  0  0  0  0
   -6.0200   14.6020    1.5720 C   0  0  0  0  0  0  0  0  0  0  0  0
   -7.1130   14.7970   -0.5590 N   0  0  0  0  0  0  0  0  0  0  0  0
   -5.8850   14.9330   -1.1220 C   0  0  0  0  0  0  0  0  0  0  0  0
   -4.7670   14.7430    0.9750 C   0  0  0  0  0  0  0  0  0  0  0  0
   -4.6950   14.9120   -0.4060 C   0  0  0  0  0  0  0  0  0  0  0  0
   -3.4310   15.0670   -1.1580 C   0  0  0  0  0  0  0  0  0  0  0  0
   -3.4680   15.4410   -2.3200 O   0  0  0  0  0  0  0  0  0  0  0  0
   -2.2560   14.7570   -0.4880 N   0  0  0  0  0  0  0  0  0  0  0  0
   -0.9880   14.6230   -1.2040 C   0  0  0  0  0  0  0  0  0  0  0  0
   -0.2600   13.3140   -0.9030 C   0  0  0  0  0  0  0  0  0  0  0  0
    0.8840   13.1290   -1.7650 O   0  0  0  0  0  0  0  0  0  0  0  0
    0.7650   12.2260   -2.7740 C   0  0  0  0  0  0  0  0  0  0  0  0
    0.2800   11.1080   -2.6550 O   0  0  0  0  0  0  0  0  0  0  0  0
    1.3190   12.7830   -4.0720 C   0  0  0  0  0  0  0  0  0  0  0  0
    0.6380   14.0710   -4.4330 C   0  0  0  0  0  0  0  0  0  0  0  0
    1.2090   15.3110   -4.6140 C   0  0  0  0  0  0  0  0  0  0  0  0
   -1.0510   14.1300   -4.6820 S   0  0  0  0  0  0  0  0  0  0  0  0
    0.2670   16.3260   -4.9680 C   0  0  0  0  0  0  0  0  0  0  0  0
   -1.0320   15.8120   -5.0410 C   0  0  0  0  0  0  0  0  0  0  0  0
    0.4570   17.6970   -5.2410 C   0  0  0  0  0  0  0  0  0  0  0  0
   -2.1320   16.6260   -5.3770 C   0  0  0  0  0  0  0  0  0  0  0  0
   -0.6280   18.4990   -5.5780 C   0  0  0  0  0  0  0  0  0  0  0  0
   -1.9040   17.9720   -5.6460 C   0  0  0  0  0  0  0  0  0  0  0  0
  1  2  1  0
  2  3  2  0
  2  4  1  0
  4  5  2  0
  3  6  1  0
  5  7  1  0
  6  7  2  0
  7  8  1  0
  8  9  2  0
  8 10  1  0
 10 11  1  0
 11 12  1  0
 12 13  1  0
 13 14  1  0
 14 15  2  0
 14 16  1  0
 16 17  1  0
 17 18  2  0
 17 19  1  0
 18 20  1  0
 19 21  1  0
 20 21  2  0
 20 22  1  0
 21 23  1  0
 22 24  2  0
 23 25  2  0
 24 25  1  0
M  END
