mac-x0190-diamond-x0626_0_A
     RDKit          3D

 21 23  0  0  0  0  0  0  0  0999 V2000
   -9.2100   14.4200    1.1680 O   0  0  0  0  0  0  0  0  0  0  0  0
   -7.9060   14.2770    1.7390 C   0  0  1  0  0  0  0  0  0  0  0  0
   -7.3300   12.8860    1.8640 C   0  0  0  0  0  0  0  0  0  0  0  0
   -6.8410   14.7230    0.8580 C   0  0  0  0  0  0  0  0  0  0  0  0
   -6.0600   12.9010    0.9660 C   0  0  0  0  0  0  0  0  0  0  0  0
   -6.9070   14.7410   -0.5120 N   0  0  0  0  0  0  0  0  0  0  0  0
   -5.6800   15.1160    1.3070 N   0  0  0  0  0  0  0  0  0  0  0  0
   -4.8870   13.2630    1.6240 N   0  0  0  0  0  0  0  0  0  0  0  0
   -6.1850   12.6270   -0.2300 O   0  0  0  0  0  0  0  0  0  0  0  0
   -5.6740   15.1440   -0.9520 C   0  0  0  0  0  0  0  0  0  0  0  0
   -4.9410   15.3720    0.2080 C   0  0  0  0  0  0  0  0  0  0  0  0
   -5.1380   15.3190   -2.2160 C   0  0  0  0  0  0  0  0  0  0  0  0
   -3.6210   15.7970    0.1410 C   0  0  0  0  0  0  0  0  0  0  0  0
   -3.6590   13.5910    1.0620 C   0  0  0  0  0  0  0  0  0  0  0  0
   -3.8010   15.7320   -2.2710 C   0  0  0  0  0  0  0  0  0  0  0  0
   -3.0550   15.9680   -1.1150 C   0  0  0  0  0  0  0  0  0  0  0  0
   -2.5630   14.1090    1.6320 N   0  0  0  0  0  0  0  0  0  0  0  0
   -3.5460   13.2720   -0.6150 S   0  0  0  0  0  0  0  0  0  0  0  0
   -1.9320   13.8520   -0.6060 C   0  0  0  0  0  0  0  0  0  0  0  0
   -1.5750   14.2520    0.6640 C   0  0  0  0  0  0  0  0  0  0  0  0
   -0.2580   14.7990    1.0440 C   0  0  0  0  0  0  0  0  0  0  0  0
  2  1  1  6
  2  3  1  0
  2  4  1  0
  3  5  1  0
  4  6  1  0
  4  7  2  0
  5  8  1  0
  5  9  2  0
  6 10  1  0
  7 11  1  0
 10 11  2  0
 10 12  1  0
 11 13  1  0
  8 14  1  0
 12 15  2  0
 13 16  2  0
 15 16  1  0
 14 17  2  0
 14 18  1  0
 18 19  1  0
 17 20  1  0
 19 20  2  0
 20 21  1  0
M  END
