mac-x0255-mac-x0341
     RDKit          3D

 27 30  0  0  0  0  0  0  0  0999 V2000
    2.0080   12.7790   -1.9000 O   0  0  0  0  0  0  0  0  0  0  0  0
    0.8570   12.4650   -2.6080 C   0  0  0  0  0  0  0  0  0  0  0  0
    0.7320   11.0440   -2.5830 O   0  0  0  0  0  0  0  0  0  0  0  0
    1.0450   12.8410   -4.0900 C   0  0  0  0  0  0  0  0  0  0  0  0
   -0.4190   12.9430   -1.8980 C   0  0  0  0  0  0  0  0  0  0  0  0
   -0.5090   14.2560   -1.0890 C   0  0  0  0  0  0  0  0  0  0  0  0
    0.4450   14.1410   -4.4750 C   0  0  0  0  0  0  0  0  0  0  0  0
    1.0700   15.3530   -4.6340 C   0  0  0  0  0  0  0  0  0  0  0  0
   -1.2260   14.2350   -4.7730 S   0  0  0  0  0  0  0  0  0  0  0  0
   -1.9760   14.5610   -0.9890 C   0  0  0  0  0  0  0  0  0  0  0  0
    0.1630   16.3910   -5.0090 C   0  0  0  0  0  0  0  0  0  0  0  0
   -1.1440   15.9090   -5.1170 C   0  0  0  0  0  0  0  0  0  0  0  0
   -2.7100   14.5110    0.2110 C   0  0  0  0  0  0  0  0  0  0  0  0
   -2.6270   14.8800   -2.1810 C   0  0  0  0  0  0  0  0  0  0  0  0
    0.3950   17.7540   -5.2710 C   0  0  0  0  0  0  0  0  0  0  0  0
   -2.2160   16.7410   -5.4730 C   0  0  0  0  0  0  0  0  0  0  0  0
   -4.0910   14.7560    0.1950 C   0  0  0  0  0  0  0  0  0  0  0  0
   -3.9820   15.1250   -2.2060 C   0  0  0  0  0  0  0  0  0  0  0  0
   -0.6690   18.5800   -5.6310 C   0  0  0  0  0  0  0  0  0  0  0  0
   -1.9520   18.0820   -5.7300 C   0  0  0  0  0  0  0  0  0  0  0  0
   -4.6990   15.0490   -1.0260 C   0  0  0  0  0  0  0  0  0  0  0  0
   -4.8300   14.6860    1.3820 N   0  0  0  0  0  0  0  0  0  0  0  0
   -6.1230   14.7350    1.3110 C   0  0  0  0  0  0  0  0  0  0  0  0
   -6.1440   15.2580   -1.0250 C   0  0  0  0  0  0  0  0  0  0  0  0
   -6.8810   14.6600    2.4370 N   0  0  0  0  0  0  0  0  0  0  0  0
   -6.7340   15.7070   -1.9920 O   0  0  0  0  0  0  0  0  0  0  0  0
   -6.7830   14.8720    0.1220 N   0  0  0  0  0  0  0  0  0  0  0  0
  2  1  1  0
  2  3  1  0
  2  4  1  0
  2  5  1  0
  5  6  1  0
  4  7  1  0
  7  8  2  0
  7  9  1  0
  6 10  1  0
  8 11  1  0
  9 12  1  0
 11 12  2  0
 10 13  2  0
 10 14  1  0
 11 15  1  0
 12 16  1  0
 13 17  1  0
 14 18  2  0
 15 19  2  0
 16 20  2  0
 19 20  1  0
 17 21  2  0
 18 21  1  0
 17 22  1  0
 22 23  2  0
 21 24  1  0
 23 25  1  0
 24 26  2  0
 23 27  1  0
 24 27  1  0
M  END
