mac-x0455-mac-x0361
     RDKit          3D

 21 22  0  0  0  0  0  0  0  0999 V2000
   -1.5390   14.2730   -2.0930 C   0  0  0  0  0  0  0  0  0  0  0  0
   -0.8730   14.3660   -3.4670 C   0  0  1  0  0  0  0  0  0  0  0  0
   -1.2690   15.5610   -4.1660 O   0  0  0  0  0  0  0  0  0  0  0  0
   -2.9800   14.5170   -1.7350 C   0  0  0  0  0  0  0  0  0  0  0  0
    0.5880   14.4370   -2.9760 C   0  0  0  0  0  0  0  0  0  0  0  0
   -0.9900   13.1080   -4.3500 C   0  0  0  0  0  0  0  0  0  0  0  0
   -3.1520   14.2070   -0.4030 C   0  0  0  0  0  0  0  0  0  0  0  0
   -4.0780   14.9720   -2.5010 C   0  0  0  0  0  0  0  0  0  0  0  0
    1.3620   15.3660   -2.9830 O   0  0  0  0  0  0  0  0  0  0  0  0
    0.9880   13.2450   -2.4530 O   0  0  0  0  0  0  0  0  0  0  0  0
   -2.0800   12.2190   -4.2890 C   0  0  0  0  0  0  0  0  0  0  0  0
    0.0400   12.8100   -5.2710 C   0  0  0  0  0  0  0  0  0  0  0  0
   -4.3570   14.3120    0.2160 C   0  0  0  0  0  0  0  0  0  0  0  0
   -5.3370   15.0820   -1.8590 C   0  0  0  0  0  0  0  0  0  0  0  0
   -2.1320   11.0850   -5.1120 C   0  0  0  0  0  0  0  0  0  0  0  0
   -0.0130   11.6810   -6.0910 C   0  0  0  0  0  0  0  0  0  0  0  0
   -5.4600   14.7380   -0.4850 C   0  0  0  0  0  0  0  0  0  0  0  0
   -6.7380   14.8000    0.2620 C   0  0  0  0  0  0  0  0  0  0  0  0
   -1.1000   10.8170   -6.0100 C   0  0  0  0  0  0  0  0  0  0  0  0
   -6.6700   14.7990    1.6440 N   0  0  0  0  0  0  0  0  0  0  0  0
   -7.8230   14.8350   -0.3000 O   0  0  0  0  0  0  0  0  0  0  0  0
  1  2  1  0
  2  3  1  6
  1  4  1  0
  2  5  1  0
  2  6  1  0
  4  7  2  0
  4  8  1  0
  5  9  2  0
  5 10  1  0
  6 11  2  0
  6 12  1  0
  7 13  1  0
  8 14  2  0
 11 15  1  0
 12 16  2  0
 13 17  2  0
 14 17  1  0
 17 18  1  0
 15 19  2  0
 16 19  1  0
 18 20  1  0
 18 21  2  0
M  END
