mac-x0348-mac-x0361
     RDKit          3D

 26 28  0  0  0  0  0  0  0  0999 V2000
    0.4330   18.7260   -6.1510 C   0  0  0  0  0  0  0  0  0  0  0  0
   -0.0310   17.5370   -5.4880 N   0  0  0  0  0  0  0  0  0  0  0  0
    0.7300   16.7860   -4.6440 C   0  0  0  0  0  0  0  0  0  0  0  0
   -1.2880   16.9810   -5.5960 C   0  0  0  0  0  0  0  0  0  0  0  0
   -0.0090   15.7280   -4.2040 C   0  0  0  0  0  0  0  0  0  0  0  0
   -1.2800   15.8350   -4.8050 C   0  0  0  0  0  0  0  0  0  0  0  0
   -2.4300   17.3530   -6.3000 C   0  0  0  0  0  0  0  0  0  0  0  0
    0.3800   14.6310   -3.2580 C   0  0  2  0  0  0  0  0  0  0  0  0
   -2.4240   15.0290   -4.7240 C   0  0  0  0  0  0  0  0  0  0  0  0
   -3.5470   16.5180   -6.1740 C   0  0  0  0  0  0  0  0  0  0  0  0
    0.6240   13.2850   -3.9410 C   0  0  0  0  0  0  0  0  0  0  0  0
   -0.7710   14.4930   -2.2390 C   0  0  0  0  0  0  0  0  0  0  0  0
   -3.5480   15.3850   -5.4140 C   0  0  0  0  0  0  0  0  0  0  0  0
    0.8230   12.2680   -2.8660 C   0  0  0  0  0  0  0  0  0  0  0  0
   -1.9570   15.1320   -2.7380 O   0  0  0  0  0  0  0  0  0  0  0  0
    1.5010   12.4360   -1.8780 O   0  0  0  0  0  0  0  0  0  0  0  0
    0.1650   11.1130   -3.0610 O   0  0  0  0  0  0  0  0  0  0  0  0
   -3.1390   15.0520   -2.0790 C   0  0  0  0  0  0  0  0  0  0  0  0
   -3.0200   14.7890   -0.7200 C   0  0  0  0  0  0  0  0  0  0  0  0
   -4.4050   15.2090   -2.6380 C   0  0  0  0  0  0  0  0  0  0  0  0
   -4.1460   14.6800    0.0850 C   0  0  0  0  0  0  0  0  0  0  0  0
   -5.5440   15.1030   -1.8400 C   0  0  0  0  0  0  0  0  0  0  0  0
   -5.4160   14.8360   -0.4710 C   0  0  0  0  0  0  0  0  0  0  0  0
   -6.5930   14.7060    0.4270 C   0  0  0  0  0  0  0  0  0  0  0  0
   -6.4030   14.8140    1.7850 N   0  0  0  0  0  0  0  0  0  0  0  0
   -7.7160   14.5130   -0.0200 O   0  0  0  0  0  0  0  0  0  0  0  0
  1  2  1  0
  2  3  1  0
  2  4  1  0
  3  5  2  0
  4  6  2  0
  5  6  1  0
  4  7  1  0
  5  8  1  0
  6  9  1  0
  7 10  2  0
  8 11  1  6
  8 12  1  0
  9 13  2  0
 10 13  1  0
 11 14  1  0
 12 15  1  0
 14 16  2  0
 14 17  1  0
 15 18  1  0
 18 19  2  0
 18 20  1  0
 19 21  1  0
 20 22  2  0
 21 23  2  0
 22 23  1  0
 23 24  1  0
 24 25  1  0
 24 26  2  0
M  END
