mac-x0441-mac-x0282
     RDKit          3D

 27 30  0  0  0  0  0  0  0  0999 V2000
    0.6150   11.2520   -3.2690 O   0  0  0  0  0  0  0  0  0  0  0  0
    0.7030   12.5680   -3.5800 C   0  0  0  0  0  0  0  0  0  0  0  0
    0.8140   13.5450   -2.7460 N   0  0  0  0  0  0  0  0  0  0  0  0
    0.6680   12.8920   -5.0480 C   0  0  0  0  0  0  0  0  0  0  0  0
    0.8650   13.4230   -1.3070 C   0  0  0  0  0  0  0  0  0  0  0  0
    0.2980   11.8440   -5.9890 N   0  0  0  0  0  0  0  0  0  0  0  0
    1.0160   11.7990   -7.1330 N   0  0  0  0  0  0  0  0  0  0  0  0
   -0.6680   10.8710   -5.9540 C   0  0  0  0  0  0  0  0  0  0  0  0
   -0.3300   13.9620   -0.5690 C   0  0  0  0  0  0  0  0  0  0  0  0
    0.4950   10.7890   -7.8500 C   0  0  0  0  0  0  0  0  0  0  0  0
   -0.5570   10.1780   -7.1420 C   0  0  0  0  0  0  0  0  0  0  0  0
   -1.6690   10.5650   -4.8980 C   0  0  0  0  0  0  0  0  0  0  0  0
   -1.4290   14.3780   -1.3020 C   0  0  0  0  0  0  0  0  0  0  0  0
   -0.3970   14.0480    0.8370 C   0  0  0  0  0  0  0  0  0  0  0  0
    0.9420   10.3490   -9.2210 C   0  0  0  0  0  0  0  0  0  0  0  0
   -1.4130    9.0290   -7.5340 C   0  0  0  0  0  0  0  0  0  0  0  0
   -2.8400    9.8030   -5.5540 C   0  0  0  0  0  0  0  0  0  0  0  0
   -2.5390   14.8390   -0.6050 C   0  0  0  0  0  0  0  0  0  0  0  0
   -1.4460   14.4940    1.5720 N   0  0  0  0  0  0  0  0  0  0  0  0
    1.6550    9.1910   -9.1780 F   0  0  0  0  0  0  0  0  0  0  0  0
   -0.0940   10.1080  -10.0570 F   0  0  0  0  0  0  0  0  0  0  0  0
    1.6870   11.2570   -9.8890 F   0  0  0  0  0  0  0  0  0  0  0  0
   -2.3510    8.6030   -6.3880 C   0  0  0  0  0  0  0  0  0  0  0  0
   -3.8120   15.3230   -0.9770 C   0  0  0  0  0  0  0  0  0  0  0  0
   -2.4740   14.8630    0.7860 C   0  0  0  0  0  0  0  0  0  0  0  0
   -4.4850   15.6150    0.1740 C   0  0  0  0  0  0  0  0  0  0  0  0
   -3.6670   15.3340    1.2360 N   0  0  0  0  0  0  0  0  0  0  0  0
  1  2  1  0
  2  3  2  3
  2  4  1  0
  3  5  1  0
  4  6  1  0
  6  7  1  0
  6  8  1  0
  5  9  1  0
  7 10  2  0
  8 11  2  0
 10 11  1  0
  8 12  1  0
  9 13  2  0
  9 14  1  0
 10 15  1  0
 11 16  1  0
 12 17  1  0
 13 18  1  0
 14 19  2  0
 15 20  1  0
 15 21  1  0
 15 22  1  0
 16 23  1  0
 17 23  1  0
 18 24  1  0
 18 25  2  0
 19 25  1  0
 24 26  2  0
 25 27  1  0
 26 27  1  0
M  END
