mac-x0131-diamond-x0900_0_A
     RDKit          3D

 22 25  0  0  0  0  0  0  0  0999 V2000
   -3.4870   14.9500   -4.1210 C   0  0  0  0  0  0  0  0  0  0  0  0
   -2.8970   14.8950   -2.7550 C   0  0  0  0  0  0  0  0  0  0  0  0
   -3.4760   14.9980   -1.5120 C   0  0  0  0  0  0  0  0  0  0  0  0
   -1.5430   14.7230   -2.5040 N   0  0  0  0  0  0  0  0  0  0  0  0
   -0.4960   14.5630   -3.4940 C   0  0  0  0  0  0  0  0  0  0  0  0
   -2.5020   14.8980   -0.4960 C   0  0  0  0  0  0  0  0  0  0  0  0
   -1.3040   14.7220   -1.1410 C   0  0  0  0  0  0  0  0  0  0  0  0
   -4.7340   15.1840   -1.1830 N   0  0  0  0  0  0  0  0  0  0  0  0
   -2.4770   14.9450    0.9250 C   0  0  0  0  0  0  0  0  0  0  0  0
   -0.1160   14.5840   -0.5380 N   0  0  0  0  0  0  0  0  0  0  0  0
   -0.4120   13.1150   -3.7280 C   0  0  0  0  0  0  0  0  0  0  0  0
   -5.6680   14.0670   -0.9680 C   0  0  0  0  0  0  0  0  0  0  0  0
   -4.7560   16.0060   -0.0290 C   0  0  0  0  0  0  0  0  0  0  0  0
   -3.5680   15.1510    1.7450 N   0  0  0  0  0  0  0  0  0  0  0  0
   -1.3250   14.7980    1.5560 N   0  0  0  0  0  0  0  0  0  0  0  0
   -0.2440   14.6370    0.8050 C   0  0  0  0  0  0  0  0  0  0  0  0
    0.5890   12.1760   -3.6670 C   0  0  0  0  0  0  0  0  0  0  0  0
   -1.5880   12.5290   -4.0810 O   0  0  0  0  0  0  0  0  0  0  0  0
   -6.2470   14.2840    0.4290 C   0  0  0  0  0  0  0  0  0  0  0  0
   -5.1500   15.0520    1.0960 C   0  0  0  0  0  0  0  0  0  0  0  0
   -1.3450   11.2160   -4.2430 C   0  0  0  0  0  0  0  0  0  0  0  0
   -0.0300   10.9430   -4.0000 C   0  0  0  0  0  0  0  0  0  0  0  0
  1  2  1  0
  2  3  2  0
  2  4  1  0
  4  5  1  0
  3  6  1  0
  4  7  1  0
  6  7  2  0
  3  8  1  0
  6  9  1  0
  7 10  1  0
  5 11  1  0
  8 12  1  0
  8 13  1  0
  9 14  1  0
  9 15  2  0
 10 16  2  0
 15 16  1  0
 11 17  2  0
 11 18  1  0
 12 19  1  0
 13 20  1  0
 19 20  1  0
 18 21  1  0
 17 22  1  0
 21 22  2  0
M  END
