mac-x0188-mac-x0224
     RDKit          3D

 18 19  0  0  0  0  0  0  0  0999 V2000
    1.5680   13.0560   -5.1320 C   0  0  0  0  0  0  0  0  0  0  0  0
    0.2700   13.4720   -4.5800 C   0  0  0  0  0  0  0  0  0  0  0  0
   -0.7550   13.5650   -5.4670 O   0  0  0  0  0  0  0  0  0  0  0  0
   -0.1800   13.8070   -3.3190 C   0  0  0  0  0  0  0  0  0  0  0  0
    0.5840   13.8350   -2.0980 C   0  0  0  0  0  0  0  0  0  0  0  0
   -1.8910   13.9630   -4.8100 N   0  0  0  0  0  0  0  0  0  0  0  0
   -1.5480   14.1130   -3.5200 C   0  0  0  0  0  0  0  0  0  0  0  0
    1.1910   14.8210   -1.7080 O   0  0  0  0  0  0  0  0  0  0  0  0
    0.5960   12.6480   -1.4150 O   0  0  0  0  0  0  0  0  0  0  0  0
   -2.5400   14.5390   -2.5640 C   0  0  0  0  0  0  0  0  0  0  0  0
   -3.7320   15.0590   -3.0250 C   0  0  0  0  0  0  0  0  0  0  0  0
   -2.3070   14.4320   -1.1980 C   0  0  0  0  0  0  0  0  0  0  0  0
   -3.8690   15.1330   -4.3820 O   0  0  0  0  0  0  0  0  0  0  0  0
   -4.7210   15.4770   -2.1350 C   0  0  0  0  0  0  0  0  0  0  0  0
   -3.2720   14.8430   -0.2950 C   0  0  0  0  0  0  0  0  0  0  0  0
   -3.0150   14.7210    1.4510 S   0  0  0  0  0  0  0  0  0  0  0  0
   -4.4860   15.3700   -0.7670 C   0  0  0  0  0  0  0  0  0  0  0  0
   -4.5180   15.6050    1.8760 C   0  0  0  0  0  0  0  0  0  0  0  0
  1  2  1  0
  2  3  1  0
  2  4  2  0
  4  5  1  0
  3  6  1  0
  4  7  1  0
  6  7  2  0
  5  8  2  0
  5  9  1  0
  7 10  1  0
 10 11  2  0
 10 12  1  0
 11 13  1  0
 11 14  1  0
 12 15  2  0
 15 16  1  0
 14 17  2  0
 15 17  1  0
 16 18  1  0
M  END
