mac-x0190-diamond-x0926_0_A
     RDKit          3D

 12 13  0  0  0  0  0  0  0  0999 V2000
   -9.3440   15.0450    2.6230 O   0  0  0  0  0  0  0  0  0  0  0  0
   -8.9840   14.1640    1.5720 C   0  0  0  0  0  0  0  0  0  0  0  0
   -7.5990   14.4620    1.0690 C   0  0  0  0  0  0  0  0  0  0  0  0
   -7.4470   14.6890   -0.2880 N   0  0  0  0  0  0  0  0  0  0  0  0
   -6.5290   14.5300    1.8130 N   0  0  0  0  0  0  0  0  0  0  0  0
   -6.1750   14.9070   -0.3750 C   0  0  0  0  0  0  0  0  0  0  0  0
   -5.5370   14.8080    0.9160 C   0  0  0  0  0  0  0  0  0  0  0  0
   -5.3830   15.2160   -1.5640 C   0  0  0  0  0  0  0  0  0  0  0  0
   -4.2180   14.9810    1.0360 C   0  0  0  0  0  0  0  0  0  0  0  0
   -5.9440   15.2980   -2.6160 O   0  0  0  0  0  0  0  0  0  0  0  0
   -3.9230   15.3850   -1.3640 C   0  0  0  0  0  0  0  0  0  0  0  0
   -3.4070   15.2630   -0.1280 C   0  0  0  0  0  0  0  0  0  0  0  0
  1  2  1  0
  2  3  1  0
  3  4  1  0
  3  5  2  0
  4  6  2  0
  5  7  1  0
  6  7  1  0
  6  8  1  0
  7  9  2  0
  8 10  2  0
  8 11  1  0
  9 12  1  0
 11 12  2  0
M  END
