mac-x0341-mac-x0441
     RDKit          3D

 31 34  0  0  0  0  0  0  0  0999 V2000
   -6.8800   14.6900    2.4360 N   0  0  0  0  0  0  0  0  0  0  0  0
   -6.1170   14.7450    1.3100 C   0  0  0  0  0  0  0  0  0  0  0  0
   -4.8260   14.6990    1.3930 N   0  0  0  0  0  0  0  0  0  0  0  0
   -6.7710   14.8650    0.1150 N   0  0  0  0  0  0  0  0  0  0  0  0
   -6.1230   15.2300   -1.0350 C   0  0  0  0  0  0  0  0  0  0  0  0
   -4.0780   14.7550    0.2090 C   0  0  0  0  0  0  0  0  0  0  0  0
   -6.7040   15.6590   -2.0160 O   0  0  0  0  0  0  0  0  0  0  0  0
   -4.6760   15.0250   -1.0190 C   0  0  0  0  0  0  0  0  0  0  0  0
   -2.6990   14.5170    0.2450 C   0  0  0  0  0  0  0  0  0  0  0  0
   -1.9490   14.5520   -0.9480 C   0  0  0  0  0  0  0  0  0  0  0  0
   -3.9470   15.0880   -2.1980 C   0  0  0  0  0  0  0  0  0  0  0  0
   -0.4780   14.2520   -0.9970 C   0  0  0  0  0  0  0  0  0  0  0  0
   -2.5850   14.8500   -2.1570 C   0  0  0  0  0  0  0  0  0  0  0  0
   -0.4410   12.9130   -1.7630 C   0  0  0  0  0  0  0  0  0  0  0  0
    0.8510   12.5430   -2.3100 N   0  0  0  0  0  0  0  0  0  0  0  0
    1.0570   12.5360   -3.5740 C   0  0  0  0  0  0  0  0  0  0  0  0
    2.2750   12.1490   -3.8740 O   0  0  0  0  0  0  0  0  0  0  0  0
    0.2320   12.8810   -4.7920 C   0  0  0  0  0  0  0  0  0  0  0  0
    0.0800   11.8770   -5.8550 N   0  0  0  0  0  0  0  0  0  0  0  0
    0.8640   11.9040   -6.9760 N   0  0  0  0  0  0  0  0  0  0  0  0
   -0.8110   10.8460   -5.9010 C   0  0  0  0  0  0  0  0  0  0  0  0
    0.4300   10.8640   -7.7410 C   0  0  0  0  0  0  0  0  0  0  0  0
   -0.6080   10.1850   -7.0880 C   0  0  0  0  0  0  0  0  0  0  0  0
   -1.8360   10.4630   -4.9000 C   0  0  0  0  0  0  0  0  0  0  0  0
    0.9160   10.4190   -9.1080 C   0  0  0  0  0  0  0  0  0  0  0  0
   -1.3780    8.9940   -7.5360 C   0  0  0  0  0  0  0  0  0  0  0  0
   -2.9510    9.6980   -5.6390 C   0  0  0  0  0  0  0  0  0  0  0  0
    1.6170    9.2550   -9.0470 F   0  0  0  0  0  0  0  0  0  0  0  0
   -0.1040   10.1770   -9.9610 F   0  0  0  0  0  0  0  0  0  0  0  0
    1.6660   11.3060   -9.7890 F   0  0  0  0  0  0  0  0  0  0  0  0
   -2.3850    8.5290   -6.4680 C   0  0  0  0  0  0  0  0  0  0  0  0
  1  2  1  0
  2  3  2  0
  2  4  1  0
  4  5  1  0
  3  6  1  0
  5  7  2  0
  5  8  1  0
  6  8  2  0
  6  9  1  0
  9 10  2  0
  8 11  1  0
 10 12  1  0
 10 13  1  0
 11 13  2  0
 12 14  1  0
 14 15  1  0
 15 16  2  3
 16 17  1  0
 16 18  1  0
 18 19  1  0
 19 20  1  0
 19 21  1  0
 20 22  2  0
 21 23  2  0
 22 23  1  0
 21 24  1  0
 22 25  1  0
 23 26  1  0
 24 27  1  0
 25 28  1  0
 25 29  1  0
 25 30  1  0
 26 31  1  0
 27 31  1  0
M  END
