mac-x0328-diamond-x0895_0_A
     RDKit          3D

 17 18  0  0  0  0  0  0  0  0999 V2000
   -2.0050   14.9960   -4.0710 O   0  0  0  0  0  0  0  0  0  0  0  0
   -2.2480   14.7550   -2.7730 C   0  0  0  0  0  0  0  0  0  0  0  0
   -1.3410   14.7040   -1.9550 O   0  0  0  0  0  0  0  0  0  0  0  0
   -3.7060   14.5560   -2.5190 C   0  0  0  0  0  0  0  0  0  0  0  0
   -4.4030   13.6080   -3.2240 C   0  0  0  0  0  0  0  0  0  0  0  0
   -4.4720   15.2300   -1.6150 C   0  0  0  0  0  0  0  0  0  0  0  0
   -4.2310   16.1510   -0.7630 N   0  0  0  0  0  0  0  0  0  0  0  0
   -5.7750   13.3840   -2.9890 C   0  0  0  0  0  0  0  0  0  0  0  0
   -5.7970   15.0200   -1.3980 C   0  0  0  0  0  0  0  0  0  0  0  0
   -6.4640   14.1130   -2.0580 C   0  0  0  0  0  0  0  0  0  0  0  0
   -3.6800   15.7740    0.2410 C   0  0  0  0  0  0  0  0  0  0  0  0
   -7.7810   13.9870   -1.7480 O   0  0  0  0  0  0  0  0  0  0  0  0
   -3.4560   16.4500    1.3620 N   0  0  0  0  0  0  0  0  0  0  0  0
   -3.2090   14.5080    0.3710 N   0  0  0  0  0  0  0  0  0  0  0  0
   -3.6600   15.3800    2.2890 C   0  0  0  0  0  0  0  0  0  0  0  0
   -2.6380   14.5580    1.5810 C   0  0  0  0  0  0  0  0  0  0  0  0
   -1.5860   14.1330    2.0010 O   0  0  0  0  0  0  0  0  0  0  0  0
  1  2  1  0
  2  3  2  0
  2  4  1  0
  4  5  2  0
  4  6  1  0
  6  7  1  0
  5  8  1  0
  6  9  2  0
  8 10  2  0
  9 10  1  0
  7 11  2  3
 10 12  1  0
 11 13  1  0
 11 14  1  0
 13 15  1  0
 14 16  1  0
 15 16  1  0
 16 17  2  0
M  END
