mac-x0567-diamond-x0685_0_A
     RDKit          3D

 14 15  0  0  0  0  0  0  0  0999 V2000
    0.2810   14.1710   -0.0630 N   0  0  0  0  0  0  0  0  0  0  0  0
   -0.9770   14.3810    0.3930 C   0  0  0  0  0  0  0  0  0  0  0  0
   -1.2820   14.3460    1.7100 N   0  0  0  0  0  0  0  0  0  0  0  0
   -2.1720   14.6490   -0.2150 C   0  0  0  0  0  0  0  0  0  0  0  0
   -2.5820   14.5670    1.9950 N   0  0  0  0  0  0  0  0  0  0  0  0
   -3.1710   14.7600    0.8150 C   0  0  0  0  0  0  0  0  0  0  0  0
   -2.3700   14.7810   -1.5740 C   0  0  0  0  0  0  0  0  0  0  0  0
   -4.5360   15.0280    0.5450 C   0  0  0  0  0  0  0  0  0  0  0  0
   -3.7130   15.0550   -1.8780 C   0  0  0  0  0  0  0  0  0  0  0  0
   -5.4990   15.1200    1.6080 N   0  0  0  0  0  0  0  0  0  0  0  0
   -4.7530   15.1760   -0.8680 C   0  0  0  0  0  0  0  0  0  0  0  0
   -4.0270   15.2130   -3.2400 N   0  0  0  0  0  0  0  0  0  0  0  0
   -6.8240   14.4880    1.4780 C   0  0  0  0  0  0  0  0  0  0  0  0
   -7.4700   14.1570    2.8210 C   0  0  0  0  0  0  0  0  0  0  0  0
  1  2  1  0
  2  3  1  0
  2  4  2  0
  3  5  1  0
  4  6  1  0
  5  6  2  0
  4  7  1  0
  6  8  1  0
  7  9  2  0
  8 10  1  0
  8 11  2  0
  9 11  1  0
  9 12  1  0
 10 13  1  0
 13 14  1  0
M  END
