mac-x0188-diamond-x0465_0_A
     RDKit          3D

 26 29  0  0  0  0  0  0  0  0999 V2000
    0.9900   13.5400   -4.9780 C   0  0  0  0  0  0  0  0  0  0  0  0
    0.4110   12.2110   -4.5350 C   0  0  1  0  0  0  0  0  0  0  0  0
    0.6250   11.1760   -5.4360 O   0  0  0  0  0  0  0  0  0  0  0  0
   -0.2680   14.0420   -4.5340 C   0  0  0  0  0  0  0  0  0  0  0  0
    0.5980   11.9130   -3.0210 C   0  0  0  0  0  0  0  0  0  0  0  0
   -1.2660   14.2900   -5.3940 O   0  0  0  0  0  0  0  0  0  0  0  0
   -0.6140   14.2540   -3.2660 C   0  0  0  0  0  0  0  0  0  0  0  0
    0.3270   14.0480   -2.1970 C   0  0  0  0  0  0  0  0  0  0  0  0
    0.5710   12.7170   -1.9910 N   0  0  0  0  0  0  0  0  0  0  0  0
    0.7610   10.6340   -2.6910 O   0  0  0  0  0  0  0  0  0  0  0  0
   -2.3590   14.6690   -4.6490 N   0  0  0  0  0  0  0  0  0  0  0  0
   -1.9700   14.6340   -3.3540 C   0  0  0  0  0  0  0  0  0  0  0  0
   -0.5050   10.4880   -5.7610 C   0  0  0  0  0  0  0  0  0  0  0  0
    0.8510   14.9580   -1.5710 O   0  0  0  0  0  0  0  0  0  0  0  0
   -2.9010   14.9420   -2.2920 C   0  0  0  0  0  0  0  0  0  0  0  0
   -0.6430    9.5020   -6.7270 C   0  0  0  0  0  0  0  0  0  0  0  0
   -1.6340   10.8480   -5.0050 C   0  0  0  0  0  0  0  0  0  0  0  0
    0.3960    9.1170   -7.4810 F   0  0  0  0  0  0  0  0  0  0  0  0
   -4.1990   15.3490   -2.5760 C   0  0  0  0  0  0  0  0  0  0  0  0
   -2.5010   14.8210   -0.9550 C   0  0  0  0  0  0  0  0  0  0  0  0
   -1.8680    8.8810   -6.9440 C   0  0  0  0  0  0  0  0  0  0  0  0
   -2.8640   10.2320   -5.2180 C   0  0  0  0  0  0  0  0  0  0  0  0
   -5.0860   15.6380   -1.5440 C   0  0  0  0  0  0  0  0  0  0  0  0
   -3.3870   15.1100    0.0780 C   0  0  0  0  0  0  0  0  0  0  0  0
   -2.9820    9.2450   -6.1890 C   0  0  0  0  0  0  0  0  0  0  0  0
   -4.6800   15.5200   -0.2200 C   0  0  0  0  0  0  0  0  0  0  0  0
  1  2  1  0
  2  3  1  6
  1  4  1  0
  2  5  1  0
  4  6  1  0
  4  7  2  0
  7  8  1  0
  5  9  2  0
  8  9  1  0
  5 10  1  0
  6 11  1  0
  7 12  1  0
 11 12  2  0
  3 13  1  0
  8 14  2  0
 12 15  1  0
 13 16  2  0
 13 17  1  0
 16 18  1  0
 15 19  2  0
 15 20  1  0
 16 21  1  0
 17 22  2  0
 19 23  1  0
 20 24  2  0
 21 25  2  0
 22 25  1  0
 23 26  2  0
 24 26  1  0
M  END
