mac-x0277-mac-x0510
     RDKit          3D

 24 26  0  0  0  0  0  0  0  0999 V2000
   -1.3400   18.3190   -5.2790 Cl  0  0  0  0  0  0  0  0  0  0  0  0
   -0.6340   16.7840   -4.9210 C   0  0  0  0  0  0  0  0  0  0  0  0
   -1.4080   15.6160   -4.8380 C   0  0  0  0  0  0  0  0  0  0  0  0
    0.7440   16.7400   -4.7130 C   0  0  0  0  0  0  0  0  0  0  0  0
   -2.9140   15.5830   -5.0430 C   0  0  0  0  0  0  0  0  0  0  0  0
   -0.7470   14.4040   -4.5450 C   0  0  0  0  0  0  0  0  0  0  0  0
    1.3770   15.5280   -4.4190 C   0  0  0  0  0  0  0  0  0  0  0  0
   -3.6930   15.0290   -3.8280 C   0  0  0  0  0  0  0  0  0  0  0  0
    0.6390   14.3450   -4.3330 C   0  0  0  0  0  0  0  0  0  0  0  0
    1.3220   13.0230   -4.0140 C   0  0  0  0  0  0  0  0  0  0  0  0
   -2.8350   14.9490   -2.6730 N   0  0  0  0  0  0  0  0  0  0  0  0
    0.7590   12.2910   -2.8040 C   0  0  0  0  0  0  0  0  0  0  0  0
   -3.1210   14.9650   -1.4280 C   0  0  0  0  0  0  0  0  0  0  0  0
    0.1680   11.1310   -3.1530 O   0  0  0  0  0  0  0  0  0  0  0  0
    0.7870   12.6210   -1.6220 O   0  0  0  0  0  0  0  0  0  0  0  0
   -2.2260   14.8600   -0.3410 C   0  0  0  0  0  0  0  0  0  0  0  0
   -4.4400   15.0820   -1.0240 N   0  0  0  0  0  0  0  0  0  0  0  0
   -4.9060   14.9740    0.2760 C   0  0  0  0  0  0  0  0  0  0  0  0
   -2.6510   14.7890    0.9470 C   0  0  0  0  0  0  0  0  0  0  0  0
   -0.8670   14.8080   -0.2430 N   0  0  0  0  0  0  0  0  0  0  0  0
   -6.1070   15.0000    0.5300 O   0  0  0  0  0  0  0  0  0  0  0  0
   -3.9710   14.8210    1.2670 N   0  0  0  0  0  0  0  0  0  0  0  0
   -1.6350   14.6840    1.8290 N   0  0  0  0  0  0  0  0  0  0  0  0
   -0.5580   14.7050    1.0810 C   0  0  0  0  0  0  0  0  0  0  0  0
  1  2  1  0
  2  3  2  0
  2  4  1  0
  3  5  1  0
  3  6  1  0
  4  7  2  0
  5  8  1  0
  6  9  2  0
  7  9  1  0
  9 10  1  0
  8 11  1  0
 10 12  1  0
 11 13  2  3
 12 14  1  0
 12 15  2  0
 13 16  1  0
 13 17  1  0
 17 18  1  0
 16 19  2  0
 16 20  1  0
 18 21  2  0
 18 22  1  0
 19 22  1  0
 19 23  1  0
 20 24  1  0
 23 24  2  0
M  END
