mac-x0555-mac-x0380
     RDKit          3D

 14 15  0  0  0  0  0  0  0  0999 V2000
   -7.6280   14.3870    2.8500 N   0  0  0  0  0  0  0  0  0  0  0  0
   -7.0270   14.5410    1.6030 C   0  0  0  0  0  0  0  0  0  0  0  0
   -7.7150   14.5760    0.3930 C   0  0  0  0  0  0  0  0  0  0  0  0
   -5.6540   14.6700    1.5320 C   0  0  0  0  0  0  0  0  0  0  0  0
   -5.0090   14.8140    0.3120 C   0  0  0  0  0  0  0  0  0  0  0  0
   -7.1270   14.7200   -0.8260 N   0  0  0  0  0  0  0  0  0  0  0  0
   -5.7850   14.8330   -0.8680 C   0  0  0  0  0  0  0  0  0  0  0  0
   -3.6240   14.9310    0.2720 C   0  0  0  0  0  0  0  0  0  0  0  0
   -5.1190   14.9650   -2.0850 C   0  0  0  0  0  0  0  0  0  0  0  0
   -2.9810   15.0520   -0.9400 C   0  0  0  0  0  0  0  0  0  0  0  0
   -3.7150   15.0660   -2.1090 C   0  0  0  0  0  0  0  0  0  0  0  0
   -2.9560   15.1800   -3.3630 C   0  0  0  0  0  0  0  0  0  0  0  0
   -1.6420   14.9180   -3.1740 O   0  0  0  0  0  0  0  0  0  0  0  0
   -3.4410   15.4600   -4.4330 O   0  0  0  0  0  0  0  0  0  0  0  0
  1  2  1  0
  2  3  2  0
  2  4  1  0
  4  5  2  0
  3  6  1  0
  5  7  1  0
  6  7  2  0
  5  8  1  0
  7  9  1  0
  8 10  2  0
  9 11  2  0
 10 11  1  0
 11 12  1  0
 12 13  1  0
 12 14  2  0
M  END
