mac-x0455-diamond-x0950_0_A
     RDKit          3D

 17 17  0  0  0  0  0  0  0  0999 V2000
   -2.2500   14.3990   -2.4350 C   0  0  0  0  0  0  0  0  0  0  0  0
   -1.0510   14.2510   -3.3840 C   0  0  1  0  0  0  0  0  0  0  0  0
   -1.0530   15.4710   -4.1520 O   0  0  0  0  0  0  0  0  0  0  0  0
    0.2390   14.2120   -2.5160 C   0  0  0  0  0  0  0  0  0  0  0  0
   -1.1260   13.0880   -4.3850 C   0  0  0  0  0  0  0  0  0  0  0  0
    0.8610   15.2370   -2.2720 O   0  0  0  0  0  0  0  0  0  0  0  0
    0.5400   12.9570   -2.1000 O   0  0  0  0  0  0  0  0  0  0  0  0
   -2.0110   12.0130   -4.1540 C   0  0  0  0  0  0  0  0  0  0  0  0
   -0.3390   13.0390   -5.5480 C   0  0  0  0  0  0  0  0  0  0  0  0
    0.8900   12.0060   -3.0080 C   0  0  0  0  0  0  0  0  0  0  0  0
   -2.1000   10.9400   -5.0460 C   0  0  0  0  0  0  0  0  0  0  0  0
   -0.4290   11.9610   -6.4400 C   0  0  0  0  0  0  0  0  0  0  0  0
    1.6790   12.6270   -4.1850 C   0  0  1  0  0  0  0  0  0  0  0  0
    0.6310   10.8120   -2.9370 O   0  0  0  0  0  0  0  0  0  0  0  0
   -1.3090   10.9160   -6.1870 C   0  0  0  0  0  0  0  0  0  0  0  0
    3.1710   12.5370   -3.9600 C   0  0  0  0  0  0  0  0  0  0  0  0
    1.4430   11.9840   -5.4300 O   0  0  0  0  0  0  0  0  0  0  0  0
  2  1  1  1
  2  3  1  0
  2  4  1  0
  2  5  1  0
  4  6  2  0
  4  7  1  0
  5  8  2  0
  5  9  1  0
  7 10  1  0
  8 11  1  0
  9 12  2  0
 10 13  1  0
 10 14  2  0
 11 15  2  0
 12 15  1  0
 13 16  1  1
 13 17  1  0
M  END
