mac-x0328-mac-x0397
     RDKit          3D

 15 16  0  0  0  0  0  0  0  0999 V2000
   -1.7780   14.7250   -3.3830 O   0  0  0  0  0  0  0  0  0  0  0  0
   -1.9540   14.6940   -2.0410 C   0  0  0  0  0  0  0  0  0  0  0  0
   -1.0190   14.6300   -1.2670 O   0  0  0  0  0  0  0  0  0  0  0  0
   -3.3680   14.7520   -1.5900 C   0  0  0  0  0  0  0  0  0  0  0  0
   -3.8770   14.8310   -0.2420 C   0  0  0  0  0  0  0  0  0  0  0  0
   -4.3100   14.7120   -2.6340 C   0  0  0  0  0  0  0  0  0  0  0  0
   -5.2600   14.8770   -0.0370 C   0  0  0  0  0  0  0  0  0  0  0  0
   -5.6680   14.7510   -2.3740 C   0  0  0  0  0  0  0  0  0  0  0  0
   -3.1980   14.8860    1.3630 S   0  0  0  0  0  0  0  0  0  0  0  0
   -6.7820   14.6730   -3.6520 Cl  0  0  0  0  0  0  0  0  0  0  0  0
   -6.1370   14.8420   -1.0950 C   0  0  0  0  0  0  0  0  0  0  0  0
   -4.7650   14.9670    2.0770 C   0  0  0  0  0  0  0  0  0  0  0  0
   -5.7360   14.9530    1.2460 N   0  0  0  0  0  0  0  0  0  0  0  0
   -7.4810   14.8970   -0.8340 O   0  0  0  0  0  0  0  0  0  0  0  0
   -4.9830   15.0370    3.3970 N   0  0  0  0  0  0  0  0  0  0  0  0
  1  2  1  0
  2  3  2  0
  2  4  1  0
  4  5  2  0
  4  6  1  0
  5  7  1  0
  6  8  2  0
  5  9  1  0
  8 10  1  0
  7 11  2  0
  8 11  1  0
  9 12  1  0
  7 13  1  0
 12 13  2  0
 11 14  1  0
 12 15  1  0
M  END
