mac-x0380-mac-x0411
     RDKit          3D

 28 30  0  0  0  0  0  0  0  0999 V2000
   -1.4680   15.0510   -2.5890 O   0  0  0  0  0  0  0  0  0  0  0  0
   -2.7420   14.6960   -2.7780 C   0  0  0  0  0  0  0  0  0  0  0  0
   -3.2390   14.2260   -3.8630 N   0  0  0  0  0  0  0  0  0  0  0  0
   -3.5700   14.8340   -1.5590 C   0  0  0  0  0  0  0  0  0  0  0  0
   -2.4500   13.9620   -5.0660 C   0  0  0  0  0  0  0  0  0  0  0  0
   -4.9580   14.9180   -1.6480 C   0  0  0  0  0  0  0  0  0  0  0  0
   -2.9520   14.8510   -0.2990 C   0  0  0  0  0  0  0  0  0  0  0  0
   -1.4110   12.8510   -4.7830 C   0  0  0  0  0  0  0  0  0  0  0  0
   -5.7300   14.9950   -0.4910 C   0  0  0  0  0  0  0  0  0  0  0  0
   -3.7230   14.9320    0.8650 C   0  0  0  0  0  0  0  0  0  0  0  0
   -5.1180   14.9930    0.7700 C   0  0  0  0  0  0  0  0  0  0  0  0
   -7.4960   15.0740   -0.6570 S   0  0  0  0  0  0  0  0  0  0  0  0
   -1.5490   11.4890   -5.4770 C   0  0  0  0  0  0  0  0  0  0  0  0
   -5.8650   15.0400    1.9620 N   0  0  0  0  0  0  0  0  0  0  0  0
   -7.8700   14.1220    0.8260 C   0  0  0  0  0  0  0  0  0  0  0  0
   -0.4750   10.8870   -6.1980 C   0  0  0  0  0  0  0  0  0  0  0  0
   -2.7700   10.7800   -5.4160 C   0  0  0  0  0  0  0  0  0  0  0  0
    0.7510   11.5200   -6.2930 O   0  0  0  0  0  0  0  0  0  0  0  0
   -7.1910   14.6820    2.0500 C   0  0  0  0  0  0  0  0  0  0  0  0
   -2.9310    9.5370   -6.0370 C   0  0  0  0  0  0  0  0  0  0  0  0
   -0.6600    9.6320   -6.8250 C   0  0  0  0  0  0  0  0  0  0  0  0
   -7.8080   14.8310    3.1100 O   0  0  0  0  0  0  0  0  0  0  0  0
    0.5870    8.8420   -7.7350 Cl  0  0  0  0  0  0  0  0  0  0  0  0
    1.1130   12.4670   -5.2710 C   0  0  0  0  0  0  0  0  0  0  0  0
   -1.8770    8.9640   -6.7420 C   0  0  0  0  0  0  0  0  0  0  0  0
    0.8970   11.9440   -3.8470 C   0  0  0  0  0  0  0  0  0  0  0  0
    1.4000   12.7670   -2.8930 O   0  0  0  0  0  0  0  0  0  0  0  0
    0.3500   10.8930   -3.5370 O   0  0  0  0  0  0  0  0  0  0  0  0
  1  2  1  0
  2  3  2  3
  2  4  1  0
  3  5  1  0
  4  6  2  0
  4  7  1  0
  5  8  1  0
  6  9  1  0
  7 10  2  0
  9 11  2  0
 10 11  1  0
  9 12  1  0
  8 13  1  0
 11 14  1  0
 12 15  1  0
 13 16  2  0
 13 17  1  0
 16 18  1  0
 14 19  1  0
 15 19  1  0
 17 20  2  0
 16 21  1  0
 19 22  2  0
 21 23  1  0
 18 24  1  0
 20 25  1  0
 21 25  2  0
 24 26  1  0
 26 27  1  0
 26 28  2  0
M  END
