mac-x0455-mac-x0394
     RDKit          3D

 22 23  0  0  0  0  0  0  0  0999 V2000
   -2.2170   12.9360   -1.8780 C   0  0  0  0  0  0  0  0  0  0  0  0
   -1.1870   13.3610   -2.9340 C   0  0  1  0  0  0  0  0  0  0  0  0
   -1.6840   14.6420   -3.3650 O   0  0  0  0  0  0  0  0  0  0  0  0
    0.2640   13.5250   -2.4480 S   0  0  0  0  0  0  0  0  0  0  0  0
   -1.2820   12.4890   -4.1190 C   0  0  0  0  0  0  0  0  0  0  0  0
    0.1700   14.8150   -1.7530 O   0  0  0  0  0  0  0  0  0  0  0  0
    0.6340   13.0140   -0.6770 O   0  0  0  0  0  0  0  0  0  0  0  0
    0.6100   11.9940   -2.6410 O   0  0  0  0  0  0  0  0  0  0  0  0
    1.3920   14.0580   -3.4240 C   0  0  0  0  0  0  0  0  0  0  0  0
   -2.4050   11.7080   -4.3560 C   0  0  0  0  0  0  0  0  0  0  0  0
   -0.2810   12.3690   -5.0560 C   0  0  0  0  0  0  0  0  0  0  0  0
   -2.4870   10.8910   -5.4330 C   0  0  0  0  0  0  0  0  0  0  0  0
   -0.3490   11.5460   -6.1540 C   0  0  0  0  0  0  0  0  0  0  0  0
    0.5630   15.0370   -4.1920 C   0  0  0  0  0  0  0  0  0  0  0  0
   -1.4640   10.7970   -6.3440 C   0  0  0  0  0  0  0  0  0  0  0  0
   -0.7610   14.8210   -4.5120 C   0  0  0  0  0  0  0  0  0  0  0  0
    1.0850   16.2020   -4.5790 C   0  0  0  0  0  0  0  0  0  0  0  0
   -1.5320   15.7530   -5.1830 C   0  0  0  0  0  0  0  0  0  0  0  0
    0.3760   17.1440   -5.2480 C   0  0  0  0  0  0  0  0  0  0  0  0
    1.1740   18.5940   -5.7000 Cl  0  0  0  0  0  0  0  0  0  0  0  0
   -3.2120   15.5110   -5.5830 Cl  0  0  0  0  0  0  0  0  0  0  0  0
   -0.9400   16.9270   -5.5460 C   0  0  0  0  0  0  0  0  0  0  0  0
  2  1  1  1
  2  3  1  0
  2  4  1  0
  2  5  1  0
  4  6  2  0
  4  7  1  0
  4  8  1  0
  4  9  1  0
  5 10  2  0
  5 11  1  0
 10 12  1  0
 11 13  2  0
  9 14  1  0
 12 15  2  0
 13 15  1  0
 14 16  2  0
 14 17  1  0
 16 18  1  0
 17 19  2  0
 19 20  1  0
 18 21  1  0
 18 22  2  0
 19 22  1  0
M  END
