mac-x0132-mac-x0455
     RDKit          3D

 23 25  0  0  0  0  0  0  0  0999 V2000
   -4.4220   14.8510    2.0020 N   0  0  0  0  0  0  0  0  0  0  0  0
   -5.3920   14.8140    1.0080 C   0  0  0  0  0  0  0  0  0  0  0  0
   -6.6790   14.8370    1.3720 N   0  0  0  0  0  0  0  0  0  0  0  0
   -4.9700   14.7590   -0.2930 C   0  0  0  0  0  0  0  0  0  0  0  0
   -5.9450   14.7650   -1.2730 C   0  0  0  0  0  0  0  0  0  0  0  0
   -7.5510   14.8260    0.3530 C   0  0  0  0  0  0  0  0  0  0  0  0
   -3.6200   14.6920   -0.6190 C   0  0  0  0  0  0  0  0  0  0  0  0
   -7.2490   14.8020   -0.9580 N   0  0  0  0  0  0  0  0  0  0  0  0
   -5.5150   14.7260   -2.6020 C   0  0  0  0  0  0  0  0  0  0  0  0
   -3.1870   14.6200   -1.9270 C   0  0  0  0  0  0  0  0  0  0  0  0
   -1.6900   14.4900   -2.0650 C   0  0  0  0  0  0  0  0  0  0  0  0
   -4.1450   14.6530   -2.9450 C   0  0  0  0  0  0  0  0  0  0  0  0
   -0.8760   14.3330   -3.3670 C   0  0  1  0  0  0  0  0  0  0  0  0
   -0.9670   15.5430   -4.1550 O   0  0  0  0  0  0  0  0  0  0  0  0
    0.5620   14.2950   -2.7980 C   0  0  0  0  0  0  0  0  0  0  0  0
   -1.0490   13.0870   -4.2550 C   0  0  0  0  0  0  0  0  0  0  0  0
    1.2540   15.2870   -2.6690 O   0  0  0  0  0  0  0  0  0  0  0  0
    1.0310   13.0850   -2.4150 O   0  0  0  0  0  0  0  0  0  0  0  0
   -2.1410   12.2030   -4.2160 C   0  0  0  0  0  0  0  0  0  0  0  0
   -0.0190   12.8040   -5.1840 C   0  0  0  0  0  0  0  0  0  0  0  0
   -2.1900   11.0880   -5.0690 C   0  0  0  0  0  0  0  0  0  0  0  0
   -0.0690   11.6960   -6.0310 C   0  0  0  0  0  0  0  0  0  0  0  0
   -1.1580   10.8360   -5.9710 C   0  0  0  0  0  0  0  0  0  0  0  0
  1  2  1  0
  2  3  2  0
  2  4  1  0
  4  5  2  0
  3  6  1  0
  4  7  1  0
  5  8  1  0
  6  8  2  0
  5  9  1  0
  7 10  2  0
 10 11  1  0
  9 12  2  0
 10 12  1  0
 11 13  1  0
 13 14  1  6
 13 15  1  0
 13 16  1  0
 15 17  2  0
 15 18  1  0
 16 19  2  0
 16 20  1  0
 19 21  1  0
 20 22  2  0
 21 23  2  0
 22 23  1  0
M  END
