mac-x0348-mac-x0345
     RDKit          3D

 25 27  0  0  0  0  0  0  0  0999 V2000
    0.2190   18.6940   -6.2230 C   0  0  0  0  0  0  0  0  0  0  0  0
   -0.1500   17.5140   -5.4830 N   0  0  0  0  0  0  0  0  0  0  0  0
    0.6980   16.8650   -4.6410 C   0  0  0  0  0  0  0  0  0  0  0  0
   -1.3680   16.8720   -5.5060 C   0  0  0  0  0  0  0  0  0  0  0  0
    0.0590   15.7810   -4.1060 C   0  0  0  0  0  0  0  0  0  0  0  0
   -1.2530   15.7790   -4.6460 C   0  0  0  0  0  0  0  0  0  0  0  0
   -2.5610   17.1310   -6.1930 C   0  0  0  0  0  0  0  0  0  0  0  0
    0.6400   14.8000   -3.1380 C   0  0  0  0  0  0  0  0  0  0  0  0
   -2.3440   14.9260   -4.4600 C   0  0  0  0  0  0  0  0  0  0  0  0
   -3.6350   16.2430   -5.9800 C   0  0  0  0  0  0  0  0  0  0  0  0
    0.6800   13.3710   -3.6820 C   0  0  0  0  0  0  0  0  0  0  0  0
   -3.5430   15.1490   -5.1220 C   0  0  0  0  0  0  0  0  0  0  0  0
    0.6820   12.3920   -2.5360 C   0  0  0  0  0  0  0  0  0  0  0  0
   -4.6970   14.1850   -4.8720 C   0  0  0  0  0  0  0  0  0  0  0  0
    0.7610   12.7010   -1.3560 O   0  0  0  0  0  0  0  0  0  0  0  0
    0.5770   11.1080   -2.9370 O   0  0  0  0  0  0  0  0  0  0  0  0
   -5.7230   14.7460   -3.9830 N   0  0  0  0  0  0  0  0  0  0  0  0
   -5.4760   14.8990   -2.6060 C   0  0  0  0  0  0  0  0  0  0  0  0
   -4.1960   15.2540   -2.2210 C   0  0  0  0  0  0  0  0  0  0  0  0
   -6.4590   14.7080   -1.6930 N   0  0  0  0  0  0  0  0  0  0  0  0
   -6.1790   14.8740   -0.3740 C   0  0  0  0  0  0  0  0  0  0  0  0
   -3.9170   15.4200   -0.8900 C   0  0  0  0  0  0  0  0  0  0  0  0
   -7.3260   14.6370    0.5740 C   0  0  0  0  0  0  0  0  0  0  0  0
   -4.9010   15.2390    0.0360 C   0  0  0  0  0  0  0  0  0  0  0  0
   -4.3490   15.5260    1.7850 Br  0  0  0  0  0  0  0  0  0  0  0  0
  1  2  1  0
  2  3  1  0
  2  4  1  0
  3  5  2  0
  4  6  2  0
  5  6  1  0
  4  7  1  0
  5  8  1  0
  6  9  1  0
  7 10  2  0
  8 11  1  0
  9 12  2  0
 10 12  1  0
 11 13  1  0
 12 14  1  0
 13 15  2  0
 13 16  1  0
 14 17  1  0
 17 18  1  0
 18 19  2  0
 18 20  1  0
 20 21  2  0
 19 22  1  0
 21 23  1  0
 21 24  1  0
 22 24  2  0
 24 25  1  0
M  END
