mac-x0404-mac-x0284
     RDKit          3D

 24 27  0  0  0  0  0  0  0  0999 V2000
   -0.3690   12.4420   -2.0230 N   0  0  0  0  0  0  0  0  0  0  0  0
    0.6070   11.9420   -2.8170 C   0  0  0  0  0  0  0  0  0  0  0  0
    0.9720   10.8180   -2.6900 O   0  0  0  0  0  0  0  0  0  0  0  0
   -0.5900   13.6290   -2.4580 C   0  0  0  0  0  0  0  0  0  0  0  0
    1.0540   12.9380   -3.9040 C   0  0  0  0  0  0  0  0  0  0  0  0
    0.2530   14.0830   -3.4610 N   0  0  0  0  0  0  0  0  0  0  0  0
   -1.8230   14.3310   -1.9680 C   0  0  0  0  0  0  0  0  0  0  0  0
   -0.5790   14.7830   -4.3130 C   0  0  0  0  0  0  0  0  0  0  0  0
   -2.0930   14.6450   -0.6280 C   0  0  0  0  0  0  0  0  0  0  0  0
   -2.7840   14.6670   -2.9270 C   0  0  0  0  0  0  0  0  0  0  0  0
   -2.5900   14.3840   -4.2320 O   0  0  0  0  0  0  0  0  0  0  0  0
   -0.4190   16.1020   -4.7790 C   0  0  0  0  0  0  0  0  0  0  0  0
   -1.7110   14.0340   -4.6620 C   0  0  0  0  0  0  0  0  0  0  0  0
   -3.3210   15.2810   -0.2980 C   0  0  0  0  0  0  0  0  0  0  0  0
   -3.9700   15.2860   -2.6070 C   0  0  0  0  0  0  0  0  0  0  0  0
   -3.6640   15.6300    1.1100 C   0  0  0  0  0  0  0  0  0  0  0  0
   -1.4690   16.6400   -5.5630 C   0  0  0  0  0  0  0  0  0  0  0  0
   -2.7260   14.5730   -5.4390 C   0  0  0  0  0  0  0  0  0  0  0  0
    0.6950   16.9240   -4.5180 C   0  0  0  0  0  0  0  0  0  0  0  0
   -4.2400   15.5930   -1.2950 C   0  0  0  0  0  0  0  0  0  0  0  0
   -2.6080   15.8780   -5.8720 C   0  0  0  0  0  0  0  0  0  0  0  0
   -1.3900   17.9380   -6.0480 C   0  0  0  0  0  0  0  0  0  0  0  0
    0.7650   18.2160   -5.0200 C   0  0  0  0  0  0  0  0  0  0  0  0
   -0.2810   18.7180   -5.7830 C   0  0  0  0  0  0  0  0  0  0  0  0
  1  2  1  0
  2  3  2  0
  1  4  2  0
  2  5  1  0
  4  6  1  0
  5  6  1  0
  4  7  1  0
  6  8  1  0
  7  9  2  0
  7 10  1  0
 10 11  1  0
  8 12  1  0
  8 13  2  0
  9 14  1  0
 10 15  2  0
 14 16  1  0
 12 17  2  0
 13 18  1  0
 12 19  1  0
 14 20  2  0
 15 20  1  0
 17 21  1  0
 18 21  2  0
 17 22  1  0
 19 23  2  0
 22 24  2  0
 23 24  1  0
M  END
