mac-x0588-mac-x0565
     RDKit          3D

 27 31  0  0  0  0  0  0  0  0999 V2000
   -4.8300   15.0060    0.8080 N   0  0  0  0  0  0  0  0  0  0  0  0
   -5.6760   14.5400   -0.1930 C   0  0  0  0  0  0  0  0  0  0  0  0
   -6.8780   14.3080   -0.0970 O   0  0  0  0  0  0  0  0  0  0  0  0
   -3.5930   15.6080    0.3340 C   0  0  2  0  0  0  0  0  0  0  0  0
   -3.9620   15.9030   -1.0500 N   0  0  0  0  0  0  0  0  0  0  0  0
   -2.3730   14.6620    0.4910 C   0  0  1  0  0  0  0  0  0  0  0  0
   -4.9350   14.3670   -1.4810 C   0  0  0  0  0  0  0  0  0  0  0  0
   -2.9530   15.7180   -2.0790 C   0  0  0  0  0  0  0  0  0  0  0  0
   -1.3170   14.8700   -0.6340 C   0  0  1  0  0  0  0  0  0  0  0  0
   -1.5940   14.7460    1.7110 N   0  0  0  0  0  0  0  0  0  0  0  0
   -3.6600   13.7760   -1.4750 C   0  0  0  0  0  0  0  0  0  0  0  0
   -5.4970   14.8120   -2.6990 C   0  0  0  0  0  0  0  0  0  0  0  0
   -1.6060   15.8980   -1.6110 N   0  0  0  0  0  0  0  0  0  0  0  0
   -0.0880   15.1620    0.0860 N   0  0  0  0  0  0  0  0  0  0  0  0
   -0.2640   14.3920    1.2920 C   0  0  0  0  0  0  0  0  0  0  0  0
   -2.9820   13.6690   -2.6750 C   0  0  0  0  0  0  0  0  0  0  0  0
   -4.7820   14.6790   -3.9050 C   0  0  0  0  0  0  0  0  0  0  0  0
   -0.6540   15.7670   -2.7330 C   0  0  0  0  0  0  0  0  0  0  0  0
   -3.5250   14.1100   -3.8570 C   0  0  0  0  0  0  0  0  0  0  0  0
   -1.7360   13.1390   -2.8450 O   0  0  0  0  0  0  0  0  0  0  0  0
   -0.3350   17.0140   -3.6080 C   0  0  2  0  0  0  0  0  0  0  0  0
   -2.6880   13.9180   -4.9120 O   0  0  0  0  0  0  0  0  0  0  0  0
   -1.4890   13.4970   -4.2230 C   0  0  0  0  0  0  0  0  0  0  0  0
   -1.4870   17.6120   -4.2650 O   0  0  0  0  0  0  0  0  0  0  0  0
    0.5840   16.6460   -4.7600 C   0  0  0  0  0  0  0  0  0  0  0  0
    0.4780   17.8970   -5.5920 C   0  0  0  0  0  0  0  0  0  0  0  0
   -1.0090   18.2060   -5.4820 C   0  0  0  0  0  0  0  0  0  0  0  0
  1  2  1  0
  2  3  2  0
  4  1  1  6
  4  5  1  0
  4  6  1  0
  2  7  1  0
  5  8  1  0
  6  9  1  0
  6 10  1  1
  7 11  2  0
  7 12  1  0
  8 13  1  0
  9 13  1  0
  9 14  1  1
 10 15  1  0
 14 15  1  0
 11 16  1  0
 12 17  2  0
 13 18  1  0
 16 19  2  0
 17 19  1  0
 16 20  1  0
 21 18  1  6
 19 22  1  0
 20 23  1  0
 22 23  1  0
 21 24  1  0
 21 25  1  0
 25 26  1  0
 24 27  1  0
 26 27  1  0
M  END
