mac-x0527-diamond-x0592_0_A
     RDKit          3D

 20 21  0  0  0  0  0  0  0  0999 V2000
   -3.9360   15.0860   -3.8530 O   0  0  0  0  0  0  0  0  0  0  0  0
   -3.3360   14.9880   -2.7850 C   0  0  0  0  0  0  0  0  0  0  0  0
   -2.0080   14.6010   -2.7300 N   0  0  0  0  0  0  0  0  0  0  0  0
   -4.0030   15.3000   -1.4140 C   0  0  1  0  0  0  0  0  0  0  0  0
   -1.1380   14.7090   -3.8900 C   0  0  0  0  0  0  0  0  0  0  0  0
   -5.4680   14.8050   -1.2050 C   0  0  0  0  0  0  0  0  0  0  0  0
   -3.0910   14.9400   -0.3230 N   0  0  0  0  0  0  0  0  0  0  0  0
   -0.9980   13.3630   -4.5660 C   0  0  0  0  0  0  0  0  0  0  0  0
   -6.0230   15.0630    0.1580 N   0  0  0  0  0  0  0  0  0  0  0  0
   -3.6370   15.2180    0.9790 C   0  0  1  0  0  0  0  0  0  0  0  0
   -7.3960   14.5450    0.4290 C   0  0  0  0  0  0  0  0  0  0  0  0
   -1.8970   12.3250   -4.2660 C   0  0  0  0  0  0  0  0  0  0  0  0
    0.0250   13.1240   -5.5010 C   0  0  0  0  0  0  0  0  0  0  0  0
   -5.0580   14.6300    1.2050 C   0  0  0  0  0  0  0  0  0  0  0  0
   -2.7150   14.6450    1.9090 N   0  0  0  0  0  0  0  0  0  0  0  0
   -7.6470   14.0120    1.8630 C   0  0  0  0  0  0  0  0  0  0  0  0
   -1.7780   11.0790   -4.8850 C   0  0  0  0  0  0  0  0  0  0  0  0
    0.1400   11.8740   -6.1180 C   0  0  0  0  0  0  0  0  0  0  0  0
   -7.2480   14.9420    2.8730 O   0  0  0  0  0  0  0  0  0  0  0  0
   -0.7610   10.8550   -5.8100 C   0  0  0  0  0  0  0  0  0  0  0  0
  1  2  2  0
  2  3  1  0
  4  2  1  6
  3  5  1  0
  4  6  1  0
  4  7  1  0
  5  8  1  0
  6  9  1  0
  7 10  1  0
  9 11  1  0
  8 12  2  0
  8 13  1  0
  9 14  1  0
 10 14  1  0
 10 15  1  1
 11 16  1  0
 12 17  1  0
 13 18  2  0
 16 19  1  0
 17 20  2  0
 18 20  1  0
M  END
