mac-x0190-mac-x0206
     RDKit          3D

 15 16  0  0  0  0  0  0  0  0999 V2000
   -8.8630   14.8090    1.6450 O   0  0  0  0  0  0  0  0  0  0  0  0
   -8.3570   14.5430    0.3210 C   0  0  0  0  0  0  0  0  0  0  0  0
   -6.9320   13.9160    0.3600 C   0  0  1  0  0  0  0  0  0  0  0  0
   -6.1650   13.7610   -0.8780 N   0  0  0  0  0  0  0  0  0  0  0  0
   -5.9870   14.8820    0.9680 N   0  0  0  0  0  0  0  0  0  0  0  0
   -6.2270   14.6750   -1.8660 C   0  0  0  0  0  0  0  0  0  0  0  0
   -5.6890   15.8050   -0.1100 O   0  0  0  0  0  0  0  0  0  0  0  0
   -4.8460   13.4310   -0.4460 C   0  0  2  0  0  0  0  0  0  0  0  0
   -4.7880   14.0610    0.9820 C   0  0  1  0  0  0  0  0  0  0  0  0
   -5.4010   15.7330   -1.7170 N   0  0  0  0  0  0  0  0  0  0  0  0
   -6.9220   14.5900   -2.8590 O   0  0  0  0  0  0  0  0  0  0  0  0
   -3.8100   13.9620   -1.3960 C   0  0  0  0  0  0  0  0  0  0  0  0
   -3.4900   14.7200    1.3590 C   0  0  0  0  0  0  0  0  0  0  0  0
   -2.7720   14.6870   -0.9660 C   0  0  0  0  0  0  0  0  0  0  0  0
   -2.5690   15.0030    0.4320 C   0  0  0  0  0  0  0  0  0  0  0  0
  1  2  1  0
  3  2  1  6
  3  4  1  0
  3  5  1  0
  4  6  1  0
  5  7  1  0
  4  8  1  0
  5  9  1  0
  8  9  1  0
  6 10  1  0
  6 11  2  0
  8 12  1  6
  9 13  1  6
 12 14  2  0
 13 15  2  0
 14 15  1  0
M  END
