mac-x0415-mac-x0271
     RDKit          3D

 27 30  0  0  0  0  0  0  0  0999 V2000
   -0.1330   11.1810   -2.8090 O   0  0  0  0  0  0  0  0  0  0  0  0
    0.6480   12.2810   -2.8020 C   0  0  0  0  0  0  0  0  0  0  0  0
    0.9270   12.8310   -1.7560 O   0  0  0  0  0  0  0  0  0  0  0  0
    1.0600   12.6640   -4.1970 C   0  0  0  0  0  0  0  0  0  0  0  0
    0.8500   14.1000   -4.4750 C   0  0  0  0  0  0  0  0  0  0  0  0
    1.8230   15.1530   -4.1940 C   0  0  0  0  0  0  0  0  0  0  0  0
   -0.1620   14.8330   -4.9400 C   0  0  0  0  0  0  0  0  0  0  0  0
    1.5030   16.3740   -4.4760 N   0  0  0  0  0  0  0  0  0  0  0  0
    0.2300   16.2630   -5.1110 C   0  0  2  0  0  0  0  0  0  0  0  0
   -1.4960   14.4760   -5.3040 C   0  0  0  0  0  0  0  0  0  0  0  0
   -0.8160   17.2410   -4.7970 C   0  0  0  0  0  0  0  0  0  0  0  0
   -2.4220   15.4570   -5.2590 C   0  0  0  0  0  0  0  0  0  0  0  0
   -3.7420   15.2150   -5.5370 O   0  0  0  0  0  0  0  0  0  0  0  0
   -2.0770   16.8260   -4.8860 C   0  0  0  0  0  0  0  0  0  0  0  0
   -4.3800   14.7510   -4.3260 C   0  0  0  0  0  0  0  0  0  0  0  0
   -3.7510   15.2580   -3.1260 O   0  0  0  0  0  0  0  0  0  0  0  0
   -4.4710   15.1620   -1.9630 C   0  0  0  0  0  0  0  0  0  0  0  0
   -5.8570   15.0960   -1.9080 C   0  0  0  0  0  0  0  0  0  0  0  0
   -3.7270   15.1310   -0.7710 C   0  0  0  0  0  0  0  0  0  0  0  0
   -6.4860   14.9930   -0.6700 C   0  0  0  0  0  0  0  0  0  0  0  0
   -4.3710   15.0300    0.4700 C   0  0  0  0  0  0  0  0  0  0  0  0
   -5.7650   14.9580    0.5230 C   0  0  0  0  0  0  0  0  0  0  0  0
   -7.8970   14.9250   -0.6620 O   0  0  0  0  0  0  0  0  0  0  0  0
   -6.5110   14.8510    1.7690 C   0  0  0  0  0  0  0  0  0  0  0  0
   -8.6200   14.8610    0.5240 C   0  0  0  0  0  0  0  0  0  0  0  0
   -9.8430   14.8680    0.5590 O   0  0  0  0  0  0  0  0  0  0  0  0
   -7.8410   14.8010    1.7660 C   0  0  0  0  0  0  0  0  0  0  0  0
  1  2  1  0
  2  3  2  0
  2  4  1  0
  4  5  1  0
  5  6  1  0
  5  7  2  0
  6  8  2  0
  7  9  1  0
  8  9  1  0
  7 10  1  0
  9 11  1  1
 10 12  2  0
 12 13  1  0
 11 14  2  0
 12 14  1  0
 13 15  1  0
 15 16  1  0
 16 17  1  0
 17 18  2  0
 17 19  1  0
 18 20  1  0
 19 21  2  0
 20 22  2  0
 21 22  1  0
 20 23  1  0
 22 24  1  0
 23 25  1  0
 25 26  2  0
 24 27  2  0
 25 27  1  0
M  END
