mac-x0394-diamond-x0626_0_A
     RDKit          3D

 25 26  0  0  0  0  0  0  0  0999 V2000
    1.0240   18.3260   -5.1380 Cl  0  0  0  0  0  0  0  0  0  0  0  0
    0.2820   16.7980   -5.0440 C   0  0  0  0  0  0  0  0  0  0  0  0
   -1.0890   16.7280   -5.2140 C   0  0  0  0  0  0  0  0  0  0  0  0
    1.0520   15.6600   -4.8030 C   0  0  0  0  0  0  0  0  0  0  0  0
    0.4350   14.4090   -4.7370 C   0  0  0  0  0  0  0  0  0  0  0  0
   -1.7050   15.4910   -5.1490 C   0  0  0  0  0  0  0  0  0  0  0  0
   -3.4040   15.3790   -5.3670 Cl  0  0  0  0  0  0  0  0  0  0  0  0
    1.1920   13.1350   -4.4680 C   0  0  0  0  0  0  0  0  0  0  0  0
   -0.9570   14.3400   -4.9130 C   0  0  0  0  0  0  0  0  0  0  0  0
    0.6160   12.6870   -3.1730 C   0  0  0  0  0  0  0  0  0  0  0  0
    0.5630   11.3610   -2.9420 O   0  0  0  0  0  0  0  0  0  0  0  0
    0.1510   13.4790   -2.3040 N   0  0  0  0  0  0  0  0  0  0  0  0
   -0.4530   13.0890   -1.0700 C   0  0  0  0  0  0  0  0  0  0  0  0
    0.3790   13.7650    0.0140 C   0  0  0  0  0  0  0  0  0  0  0  0
   -0.3200   14.7800    0.8670 C   0  0  0  0  0  0  0  0  0  0  0  0
   -1.7190   14.8240    0.4770 C   0  0  0  0  0  0  0  0  0  0  0  0
   -2.6660   14.7850    1.4600 N   0  0  0  0  0  0  0  0  0  0  0  0
   -2.1810   14.8990   -0.8230 C   0  0  0  0  0  0  0  0  0  0  0  0
   -3.8400   14.8470    0.8750 C   0  0  0  0  0  0  0  0  0  0  0  0
   -3.8790   14.9440   -0.8270 S   0  0  0  0  0  0  0  0  0  0  0  0
   -5.0610   14.8430    1.4440 N   0  0  0  0  0  0  0  0  0  0  0  0
   -6.2350   14.6600    0.7860 C   0  0  0  0  0  0  0  0  0  0  0  0
   -6.2610   14.7830   -0.4430 O   0  0  0  0  0  0  0  0  0  0  0  0
   -7.4750   14.3180    1.5860 C   0  0  0  0  0  0  0  0  0  0  0  0
   -8.7490   14.6870    0.8450 C   0  0  0  0  0  0  0  0  0  0  0  0
  1  2  1  0
  2  3  2  0
  2  4  1  0
  4  5  2  0
  3  6  1  0
  6  7  1  0
  5  8  1  0
  5  9  1  0
  6  9  2  0
  8 10  1  0
 10 11  1  0
 10 12  2  3
 12 13  1  0
 13 14  1  0
 14 15  1  0
 15 16  1  0
 16 17  1  0
 16 18  2  0
 17 19  2  0
 18 20  1  0
 19 20  1  0
 19 21  1  0
 21 22  1  0
 22 23  2  0
 22 24  1  0
 24 25  1  0
M  END
