mac-x0116-mac-x0180
     RDKit          3D

 22 24  0  0  0  0  0  0  0  0999 V2000
   -5.9470   14.0890    0.6920 C   0  0  2  0  0  0  0  0  0  0  0  0
   -4.8260   14.8620    1.2440 N   0  0  0  0  0  0  0  0  0  0  0  0
   -3.7950   14.8740    0.3110 C   0  0  0  0  0  0  0  0  0  0  0  0
   -7.2040   14.8660    0.3330 C   0  0  0  0  0  0  0  0  0  0  0  0
   -6.4730   12.8830    1.3510 C   0  0  0  0  0  0  0  0  0  0  0  0
   -8.2800   14.8840    1.3860 C   0  0  0  0  0  0  0  0  0  0  0  0
   -7.3630   15.4240   -0.7520 O   0  0  0  0  0  0  0  0  0  0  0  0
   -6.6540   11.8750    0.4600 O   0  0  0  0  0  0  0  0  0  0  0  0
   -6.8510   12.4780    2.6140 C   0  0  0  0  0  0  0  0  0  0  0  0
   -7.2840   11.1480    2.4750 C   0  0  0  0  0  0  0  0  0  0  0  0
   -7.1470   10.8360    1.1460 C   0  0  0  0  0  0  0  0  0  0  0  0
   -4.1920   15.0590   -1.0000 N   0  0  0  0  0  0  0  0  0  0  0  0
   -2.4820   14.7000    0.5890 C   0  0  0  0  0  0  0  0  0  0  0  0
   -3.3230   15.0160   -1.9510 C   0  0  0  0  0  0  0  0  0  0  0  0
   -1.5370   14.6730   -0.5240 C   0  0  0  0  0  0  0  0  0  0  0  0
   -1.7580   14.5180    1.7380 N   0  0  0  0  0  0  0  0  0  0  0  0
   -1.9820   14.7920   -1.8000 N   0  0  0  0  0  0  0  0  0  0  0  0
   -0.3350   14.5210   -0.0630 N   0  0  0  0  0  0  0  0  0  0  0  0
   -0.5340   14.4280    1.3050 C   0  0  0  0  0  0  0  0  0  0  0  0
   -1.1340   14.9530   -2.8800 C   0  0  0  0  0  0  0  0  0  0  0  0
   -1.4420   15.0660   -4.0590 O   0  0  0  0  0  0  0  0  0  0  0  0
    0.1740   14.9950   -2.5630 O   0  0  0  0  0  0  0  0  0  0  0  0
  1  2  1  1
  2  3  1  0
  1  4  1  0
  1  5  1  0
  4  6  1  0
  4  7  2  0
  5  8  1  0
  5  9  2  0
  9 10  1  0
  8 11  1  0
 10 11  2  0
  3 12  1  0
  3 13  2  0
 12 14  2  0
 13 15  1  0
 13 16  1  0
 14 17  1  0
 15 17  1  0
 15 18  2  0
 16 19  2  0
 18 19  1  0
 17 20  1  0
 20 21  2  0
 20 22  1  0
M  END
