mac-x0179-mac-x0301
     RDKit          3D

 28 31  0  0  0  0  0  0  0  0999 V2000
    2.0170   12.6120   -2.5540 O   0  0  0  0  0  0  0  0  0  0  0  0
    1.0030   11.9390   -3.1300 C   0  0  0  0  0  0  0  0  0  0  0  0
    0.7710   10.7900   -2.8020 O   0  0  0  0  0  0  0  0  0  0  0  0
    0.2330   12.7240   -4.1590 C   0  0  1  0  0  0  0  0  0  0  0  0
    0.8440   14.1070   -4.3170 C   0  0  0  0  0  0  0  0  0  0  0  0
   -0.1350   11.9530   -5.3470 N   0  0  0  0  0  0  0  0  0  0  0  0
    0.2080   14.8570   -3.2630 O   0  0  0  0  0  0  0  0  0  0  0  0
    0.6880   11.5400   -6.3710 C   0  0  0  0  0  0  0  0  0  0  0  0
   -1.2150   11.1370   -5.2400 C   0  0  0  0  0  0  0  0  0  0  0  0
    1.7810   11.9550   -6.6940 O   0  0  0  0  0  0  0  0  0  0  0  0
   -2.0870   11.1420   -4.3950 O   0  0  0  0  0  0  0  0  0  0  0  0
   -1.1370   14.7240   -3.3100 C   0  0  0  0  0  0  0  0  0  0  0  0
   -0.0170   10.4360   -7.0450 C   0  0  0  0  0  0  0  0  0  0  0  0
   -1.1770   10.1970   -6.3430 C   0  0  0  0  0  0  0  0  0  0  0  0
   -1.7540   14.5110   -4.3390 O   0  0  0  0  0  0  0  0  0  0  0  0
    0.3080    9.6940   -8.1660 C   0  0  0  0  0  0  0  0  0  0  0  0
   -2.0840    9.2200   -6.6960 C   0  0  0  0  0  0  0  0  0  0  0  0
   -1.8220   14.8710   -1.9920 C   0  0  0  0  0  0  0  0  0  0  0  0
   -0.5980    8.6890   -8.5500 C   0  0  0  0  0  0  0  0  0  0  0  0
   -1.7820    8.4540   -7.8210 C   0  0  0  0  0  0  0  0  0  0  0  0
   -1.2640   14.6840   -0.7130 C   0  0  0  0  0  0  0  0  0  0  0  0
   -3.1780   15.2490   -2.0480 C   0  0  0  0  0  0  0  0  0  0  0  0
   -2.0350   14.8810    0.4340 C   0  0  0  0  0  0  0  0  0  0  0  0
   -3.9370   15.4380   -0.8800 C   0  0  0  0  0  0  0  0  0  0  0  0
    0.0010   14.3210   -0.3820 O   0  0  0  0  0  0  0  0  0  0  0  0
   -3.3610   15.2550    0.3790 C   0  0  0  0  0  0  0  0  0  0  0  0
   -1.3390   14.6750    1.5940 O   0  0  0  0  0  0  0  0  0  0  0  0
   -0.0360   14.4290    1.0550 C   0  0  0  0  0  0  0  0  0  0  0  0
  1  2  1  0
  2  3  2  0
  2  4  1  0
  4  5  1  6
  4  6  1  0
  5  7  1  0
  6  8  1  0
  6  9  1  0
  8 10  2  0
  9 11  2  0
  7 12  1  0
  8 13  1  0
  9 14  1  0
 13 14  2  0
 12 15  2  0
 13 16  1  0
 14 17  1  0
 12 18  1  0
 16 19  2  0
 17 20  2  0
 19 20  1  0
 18 21  1  0
 18 22  2  0
 21 23  2  0
 22 24  1  0
 21 25  1  0
 23 26  1  0
 24 26  2  0
 23 27  1  0
 25 28  1  0
 27 28  1  0
M  END
