mac-x0567-mac-x0182
     RDKit          3D

 24 27  0  0  0  0  0  0  0  0999 V2000
    0.1480   13.7880    0.0180 N   0  0  0  0  0  0  0  0  0  0  0  0
   -1.0720   14.2690    0.3680 C   0  0  0  0  0  0  0  0  0  0  0  0
   -1.4000   14.4480    1.6750 N   0  0  0  0  0  0  0  0  0  0  0  0
   -2.1970   14.6720   -0.3230 C   0  0  0  0  0  0  0  0  0  0  0  0
   -2.6390   14.9260    1.8870 N   0  0  0  0  0  0  0  0  0  0  0  0
   -3.1610   15.0820    0.6700 C   0  0  0  0  0  0  0  0  0  0  0  0
   -2.4060   14.6950   -1.7090 C   0  0  0  0  0  0  0  0  0  0  0  0
   -1.4620   14.2730   -2.7780 C   0  0  0  0  0  0  0  0  0  0  0  0
   -4.4300   15.5590    0.3060 C   0  0  0  0  0  0  0  0  0  0  0  0
   -3.7000   15.1840   -2.0390 C   0  0  0  0  0  0  0  0  0  0  0  0
   -1.2510   12.7720   -2.6330 C   0  0  0  0  0  0  0  0  0  0  0  0
   -4.6650   15.5980   -1.0810 C   0  0  0  0  0  0  0  0  0  0  0  0
   -1.6130   12.0870   -3.8820 N   0  0  0  0  0  0  0  0  0  0  0  0
   -0.5960   11.0450   -4.2700 S   0  0  2  0  0  0  0  0  0  0  0  0
    0.1490   10.2120   -3.3670 O   0  0  0  0  0  0  0  0  0  0  0  0
    0.5480   11.9770   -5.0780 N   0  0  0  0  0  0  0  0  0  0  0  0
   -1.0830   10.1360   -5.6650 C   0  0  0  0  0  0  0  0  0  0  0  0
    0.7630   11.4920   -6.3380 C   0  0  0  0  0  0  0  0  0  0  0  0
   -0.2500   10.4800   -6.7210 C   0  0  0  0  0  0  0  0  0  0  0  0
   -2.1040    9.2140   -5.7770 C   0  0  0  0  0  0  0  0  0  0  0  0
    1.6770   11.8150   -7.0440 O   0  0  0  0  0  0  0  0  0  0  0  0
   -2.2760    8.6140   -7.0300 C   0  0  0  0  0  0  0  0  0  0  0  0
   -0.4170    9.8900   -7.9660 C   0  0  0  0  0  0  0  0  0  0  0  0
   -1.4410    8.9470   -8.1150 C   0  0  0  0  0  0  0  0  0  0  0  0
  1  2  1  0
  2  3  1  0
  2  4  2  0
  3  5  1  0
  4  6  1  0
  5  6  2  0
  4  7  1  0
  7  8  1  0
  6  9  1  0
  7 10  2  0
  8 11  1  0
  9 12  2  0
 10 12  1  0
 11 13  1  0
 13 14  2  0
 14 15  2  0
 14 16  1  6
 14 17  1  0
 16 18  1  0
 17 19  2  0
 18 19  1  0
 17 20  1  0
 18 21  2  0
 20 22  2  0
 19 23  1  0
 22 24  1  0
 23 24  2  0
M  END
