mac-x0206-diamond-x1012_0_A
     RDKit          3D

 24 25  0  0  0  0  0  0  0  0999 V2000
   -3.0330   15.0190   -0.2740 N   0  0  0  0  0  0  0  0  0  0  0  0
   -4.2520   14.9670   -0.9030 C   0  0  0  0  0  0  0  0  0  0  0  0
   -4.3960   14.9500   -2.1890 N   0  0  0  0  0  0  0  0  0  0  0  0
   -5.4810   14.8880   -0.0350 C   0  0  0  0  0  0  0  0  0  0  0  0
   -3.1540   14.9550   -2.9750 C   0  0  0  0  0  0  0  0  0  0  0  0
   -6.7650   14.7810   -0.5900 C   0  0  0  0  0  0  0  0  0  0  0  0
   -5.3520   14.9130    1.3630 C   0  0  0  0  0  0  0  0  0  0  0  0
   -6.9840   14.7490   -1.9370 O   0  0  0  0  0  0  0  0  0  0  0  0
   -3.3150   15.5350   -4.3860 C   0  0  0  0  0  0  0  0  0  0  0  0
   -7.8960   14.6950    0.2220 C   0  0  0  0  0  0  0  0  0  0  0  0
   -6.4920   14.8270    2.1750 C   0  0  0  0  0  0  0  0  0  0  0  0
   -2.6480   16.8490   -4.5060 N   0  0  0  0  0  0  0  0  0  0  0  0
   -7.7580   14.7170    1.6050 C   0  0  0  0  0  0  0  0  0  0  0  0
   -1.3930   16.8430   -4.7470 C   0  0  0  0  0  0  0  0  0  0  0  0
   -0.7670   18.0490   -4.8460 N   0  0  0  0  0  0  0  0  0  0  0  0
   -0.5710   15.7610   -4.9110 N   0  0  0  0  0  0  0  0  0  0  0  0
   -1.1390   14.4530   -5.2140 C   0  0  0  0  0  0  0  0  0  0  0  0
    0.8150   15.7690   -4.4310 C   0  0  0  0  0  0  0  0  0  0  0  0
   -1.0360   13.5520   -4.0030 C   0  0  0  0  0  0  0  0  0  0  0  0
    1.0990   14.7260   -3.3290 C   0  0  0  0  0  0  0  0  0  0  0  0
    0.4190   13.3710   -3.5970 C   0  0  0  0  0  0  0  0  0  0  0  0
    0.4590   12.4660   -2.3860 C   0  0  0  0  0  0  0  0  0  0  0  0
    0.1950   11.1850   -2.7040 O   0  0  0  0  0  0  0  0  0  0  0  0
    0.6700   12.7780   -1.2280 O   0  0  0  0  0  0  0  0  0  0  0  0
  1  2  1  0
  2  3  2  3
  2  4  1  0
  3  5  1  0
  4  6  2  0
  4  7  1  0
  6  8  1  0
  5  9  1  0
  6 10  1  0
  7 11  2  0
  9 12  1  0
 10 13  2  0
 11 13  1  0
 12 14  2  3
 14 15  1  0
 14 16  1  0
 16 17  1  0
 16 18  1  0
 17 19  1  0
 18 20  1  0
 19 21  1  0
 20 21  1  0
 21 22  1  0
 22 23  1  0
 22 24  2  0
M  END
