mac-x0354-diamond-x0662_0_A
     RDKit          3D

 33 36  0  0  0  0  0  0  0  0999 V2000
    0.6610    8.4960   -8.3490 C   0  0  0  0  0  0  0  0  0  0  0  0
    0.3880    9.4210   -7.2880 N   0  0  0  0  0  0  0  0  0  0  0  0
    1.0770   10.5610   -7.2570 N   0  0  0  0  0  0  0  0  0  0  0  0
   -0.5240    9.2930   -6.2700 C   0  0  0  0  0  0  0  0  0  0  0  0
    0.5740   11.1410   -6.1840 C   0  0  0  0  0  0  0  0  0  0  0  0
   -0.3960   10.4270   -5.4850 C   0  0  0  0  0  0  0  0  0  0  0  0
   -1.3920    8.1560   -6.1780 C   0  0  0  0  0  0  0  0  0  0  0  0
   -1.1050   10.7980   -4.2670 C   0  0  0  0  0  0  0  0  0  0  0  0
    1.0120   12.3160   -5.9250 O   0  0  0  0  0  0  0  0  0  0  0  0
   -0.9440    6.8710   -6.4620 C   0  0  0  0  0  0  0  0  0  0  0  0
   -2.7210    8.3790   -5.8150 C   0  0  0  0  0  0  0  0  0  0  0  0
   -0.8110   11.7920   -3.6060 O   0  0  0  0  0  0  0  0  0  0  0  0
   -2.1080    9.9870   -3.8530 O   0  0  0  0  0  0  0  0  0  0  0  0
   -0.0830   12.9000   -6.3750 C   0  0  0  0  0  0  0  0  0  0  0  0
   -1.8400    5.8070   -6.3870 C   0  0  0  0  0  0  0  0  0  0  0  0
   -3.6120    7.3200   -5.7370 C   0  0  0  0  0  0  0  0  0  0  0  0
   -0.5650   13.9570   -5.9820 O   0  0  0  0  0  0  0  0  0  0  0  0
   -3.1700    6.0320   -6.0260 C   0  0  0  0  0  0  0  0  0  0  0  0
   -0.6840   11.9980   -7.4760 C   0  0  0  0  0  0  0  0  0  0  0  0
   -2.0470   11.6780   -7.3810 C   0  0  0  0  0  0  0  0  0  0  0  0
    0.0380   11.4600   -8.6030 C   0  0  0  0  0  0  0  0  0  0  0  0
   -2.6600   10.8740   -8.3500 C   0  0  0  0  0  0  0  0  0  0  0  0
   -0.5750   10.6650   -9.5840 C   0  0  0  0  0  0  0  0  0  0  0  0
    0.0630   10.1180  -10.7440 N   0  0  0  0  0  0  0  0  0  0  0  0
   -1.9340   10.3780   -9.4370 C   0  0  0  0  0  0  0  0  0  0  0  0
    1.3290    9.5680  -10.9510 C   0  0  0  0  0  0  0  0  0  0  0  0
    1.8310    8.6190  -10.3620 O   0  0  0  0  0  0  0  0  0  0  0  0
    2.0890   10.2340  -12.0350 C   0  0  0  0  0  0  0  0  0  0  0  0
    1.9520   11.5600  -12.5320 C   0  0  0  0  0  0  0  0  0  0  0  0
    3.0670    9.5710  -12.6970 N   0  0  0  0  0  0  0  0  0  0  0  0
    3.5330   10.4710  -13.5870 N   0  0  0  0  0  0  0  0  0  0  0  0
    2.8960   11.6710  -13.5260 C   0  0  0  0  0  0  0  0  0  0  0  0
    4.6090   10.1030  -14.4770 C   0  0  0  0  0  0  0  0  0  0  0  0
  1  2  1  0
  2  3  1  0
  2  4  1  0
  3  5  2  0
  4  6  2  0
  5  6  1  0
  4  7  1  0
  6  8  1  0
  5  9  1  0
  7 10  2  0
  7 11  1  0
  8 12  2  0
  8 13  1  0
  9 14  1  0
 10 15  1  0
 11 16  2  0
 14 17  2  0
 15 18  2  0
 16 18  1  0
 14 19  1  0
 19 20  2  0
 19 21  1  0
 20 22  1  0
 21 23  2  0
 23 24  1  0
 22 25  2  0
 23 25  1  0
 24 26  1  0
 26 27  2  0
 26 28  1  0
 28 29  1  0
 28 30  2  0
 30 31  1  0
 29 32  2  0
 31 32  1  0
 31 33  1  0
M  END
