mac-x0576-diamond-x0950_0_A
     RDKit          3D

 21 22  0  0  0  0  0  0  0  0999 V2000
    0.0650   14.1880    1.9540 N   0  0  0  0  0  0  0  0  0  0  0  0
   -0.8450   14.2120    0.8490 C   0  0  1  0  0  0  0  0  0  0  0  0
   -2.1160   14.1530    1.5110 N   0  0  0  0  0  0  0  0  0  0  0  0
   -0.6650   15.2690   -0.0790 N   0  0  0  0  0  0  0  0  0  0  0  0
   -1.6210   15.4570   -1.0430 C   0  0  0  0  0  0  0  0  0  0  0  0
   -3.1130   15.0570    0.9370 C   0  0  1  0  0  0  0  0  0  0  0  0
   -1.2300   15.6190   -2.2560 N   0  0  0  0  0  0  0  0  0  0  0  0
   -3.0650   15.4830   -0.5500 C   0  0  2  0  0  0  0  0  0  0  0  0
   -4.3670   14.4620    1.2730 N   0  0  0  0  0  0  0  0  0  0  0  0
    0.2100   15.6190   -2.4920 C   0  0  0  0  0  0  0  0  0  0  0  0
   -5.5070   14.7730    0.5790 C   0  0  0  0  0  0  0  0  0  0  0  0
   -3.9870   14.7050   -1.3920 N   0  0  0  0  0  0  0  0  0  0  0  0
   -6.5940   14.8150    1.1490 O   0  0  0  0  0  0  0  0  0  0  0  0
    0.6150   14.4040   -3.2960 C   0  0  0  0  0  0  0  0  0  0  0  0
   -5.3390   15.0540   -0.9180 C   0  0  0  0  0  0  0  0  0  0  0  0
    0.7500   13.2070   -2.4980 O   0  0  0  0  0  0  0  0  0  0  0  0
    0.8080   12.1160   -3.2920 C   0  0  0  0  0  0  0  0  0  0  0  0
    1.3060   12.6100   -4.6570 C   0  0  1  0  0  0  0  0  0  0  0  0
    0.5110   10.9710   -2.9720 O   0  0  0  0  0  0  0  0  0  0  0  0
    2.7980   12.8840   -4.5980 C   0  0  0  0  0  0  0  0  0  0  0  0
    1.0240   11.7390   -5.7400 O   0  0  0  0  0  0  0  0  0  0  0  0
  2  1  1  1
  2  3  1  0
  2  4  1  0
  4  5  1  0
  6  3  1  6
  5  7  2  3
  5  8  1  0
  6  8  1  0
  6  9  1  0
  7 10  1  0
  9 11  1  0
  8 12  1  6
 11 13  2  0
 10 14  1  0
 11 15  1  0
 12 15  1  0
 14 16  1  0
 16 17  1  0
 17 18  1  0
 17 19  2  0
 18 20  1  1
 18 21  1  0
M  END
