mac-x0345-mac-x1494
     RDKit          3D

 14 15  0  0  0  0  0  0  0  0999 V2000
   -7.2770   12.7400    0.0180 C   0  0  0  0  0  0  0  0  0  0  0  0
   -6.3720   13.8390   -0.4610 C   0  0  0  0  0  0  0  0  0  0  0  0
   -6.1010   13.8880   -1.7200 N   0  0  0  0  0  0  0  0  0  0  0  0
   -5.9010   14.7460    0.6050 C   0  0  0  0  0  0  0  0  0  0  0  0
   -6.7960   14.6590    2.2230 Br  0  0  0  0  0  0  0  0  0  0  0  0
   -4.8740   15.5420    0.3120 C   0  0  0  0  0  0  0  0  0  0  0  0
   -5.2910   15.0020   -2.1330 C   0  0  1  0  0  0  0  0  0  0  0  0
   -6.3770   15.9420   -2.2800 N   0  0  0  0  0  0  0  0  0  0  0  0
   -4.2810   15.5120   -1.0480 C   0  0  2  0  0  0  0  0  0  0  0  0
   -4.5550   14.7710   -3.4310 C   0  0  0  0  0  0  0  0  0  0  0  0
   -3.2270   14.5210   -3.4460 C   0  0  0  0  0  0  0  0  0  0  0  0
   -2.9280   14.8810   -1.0790 C   0  0  0  0  0  0  0  0  0  0  0  0
   -2.3750   14.2890   -4.9250 Cl  0  0  0  0  0  0  0  0  0  0  0  0
   -2.4500   14.4300   -2.2310 C   0  0  0  0  0  0  0  0  0  0  0  0
  1  2  1  0
  2  3  2  0
  2  4  1  0
  4  5  1  0
  4  6  2  0
  3  7  1  0
  7  8  1  6
  9  6  1  1
  7  9  1  0
  7 10  1  0
 10 11  2  0
  9 12  1  0
 11 13  1  0
 11 14  1  0
 12 14  2  0
M  END
