mac-x0587-mac-x0588
     RDKit          3D

 24 26  0  0  0  0  0  0  0  0999 V2000
    0.5290   14.6400   -2.7240 C   0  0  0  0  0  0  0  0  0  0  0  0
   -0.5650   14.9860   -3.7080 C   0  0  1  0  0  0  0  0  0  0  0  0
   -0.2920   13.6170   -5.0290 S   0  0  0  0  0  0  0  0  0  0  0  0
   -2.0790   14.9680   -3.2360 C   0  0  0  0  0  0  0  0  0  0  0  0
   -0.2200   16.3920   -4.1990 C   0  0  2  0  0  0  0  0  0  0  0  0
   -0.6770   12.0740   -4.1170 C   0  0  0  0  0  0  0  0  0  0  0  0
   -2.9460   14.9470   -4.1320 O   0  0  0  0  0  0  0  0  0  0  0  0
   -2.4930   15.0110   -1.9110 N   0  0  0  0  0  0  0  0  0  0  0  0
   -1.3480   17.1310   -4.7100 O   0  0  0  0  0  0  0  0  0  0  0  0
    0.8150   16.4660   -5.2740 C   0  0  0  0  0  0  0  0  0  0  0  0
    0.4710   11.5690   -3.2580 C   0  0  0  0  0  0  0  0  0  0  0  0
   -3.8670   15.0440   -1.3850 C   0  0  0  0  0  0  0  0  0  0  0  0
   -1.6820   14.5760   -0.8070 C   0  0  2  0  0  0  0  0  0  0  0  0
    0.6650   17.8930   -5.7210 C   0  0  0  0  0  0  0  0  0  0  0  0
   -0.8310   18.1390   -5.5890 C   0  0  0  0  0  0  0  0  0  0  0  0
    0.4830   10.4350   -2.8040 O   0  0  0  0  0  0  0  0  0  0  0  0
    1.4720   12.4460   -3.0220 O   0  0  0  0  0  0  0  0  0  0  0  0
   -1.6410   13.2100   -0.7320 O   0  0  0  0  0  0  0  0  0  0  0  0
   -3.7150   14.6490    0.1110 C   0  0  1  0  0  0  0  0  0  0  0  0
   -2.3560   15.1050    0.3470 N   0  0  0  0  0  0  0  0  0  0  0  0
   -0.3820   15.0830   -0.5450 N   0  0  0  0  0  0  0  0  0  0  0  0
   -4.6220   15.2280    1.0930 N   0  0  0  0  0  0  0  0  0  0  0  0
   -1.5290   14.5800    1.4520 N   0  0  0  0  0  0  0  0  0  0  0  0
   -0.1910   14.6370    0.8330 C   0  0  0  0  0  0  0  0  0  0  0  0
  2  1  1  1
  2  3  1  0
  2  4  1  0
  2  5  1  0
  3  6  1  0
  4  7  2  0
  4  8  1  0
  5  9  1  0
  5 10  1  6
  6 11  1  0
  8 12  1  0
  8 13  1  0
 10 14  1  0
  9 15  1  0
 14 15  1  0
 11 16  2  0
 11 17  1  0
 13 18  1  1
 12 19  1  0
 13 20  1  0
 19 20  1  0
 13 21  1  0
 19 22  1  1
 20 23  1  0
 21 24  1  0
 23 24  1  0
M  END
