mac-x0397-mac-x0565
     RDKit          3D

 17 19  0  0  0  0  0  0  0  0999 V2000
   -6.2740   15.6500   -1.9290 N   0  0  0  0  0  0  0  0  0  0  0  0
   -7.3990   15.3330   -1.0940 C   0  0  0  0  0  0  0  0  0  0  0  0
   -6.9540   14.7400    0.1010 O   0  0  0  0  0  0  0  0  0  0  0  0
   -5.0510   14.8830   -1.7040 C   0  0  2  0  0  0  0  0  0  0  0  0
   -4.8290   14.7400   -0.2400 C   0  0  0  0  0  0  0  0  0  0  0  0
   -3.7260   15.4640   -2.2200 C   0  0  0  0  0  0  0  0  0  0  0  0
   -5.8180   14.9690    0.6820 N   0  0  0  0  0  0  0  0  0  0  0  0
   -3.6220   14.3690    0.2740 C   0  0  0  0  0  0  0  0  0  0  0  0
   -2.4970   14.5500   -1.9860 C   0  0  1  0  0  0  0  0  0  0  0  0
   -5.3740   14.7850    1.8870 C   0  0  0  0  0  0  0  0  0  0  0  0
   -3.7150   14.3160    1.9660 S   0  0  0  0  0  0  0  0  0  0  0  0
   -2.4050   14.0500   -0.5220 C   0  0  0  0  0  0  0  0  0  0  0  0
   -2.4280   13.5010   -3.0690 C   0  0  0  0  0  0  0  0  0  0  0  0
   -1.2500   15.2290   -2.2270 O   0  0  0  0  0  0  0  0  0  0  0  0
   -6.1780   14.9570    2.9580 N   0  0  0  0  0  0  0  0  0  0  0  0
   -1.9530   14.2490   -4.1920 O   0  0  0  0  0  0  0  0  0  0  0  0
   -0.9410   15.0570   -3.6090 C   0  0  0  0  0  0  0  0  0  0  0  0
  1  2  1  0
  2  3  1  0
  4  1  1  1
  4  5  1  0
  4  6  1  0
  5  7  1  0
  5  8  2  0
  9  6  1  1
  7 10  2  0
  8 11  1  0
 10 11  1  0
  8 12  1  0
  9 12  1  0
  9 13  1  0
  9 14  1  0
 10 15  1  0
 13 16  1  0
 14 17  1  0
 16 17  1  0
M  END
