mac-x0451-diamond-x0128_0_A
     RDKit          3D

 20 22  0  0  0  0  0  0  0  0999 V2000
   -6.6220   14.4350    2.7260 N   0  0  0  0  0  0  0  0  0  0  0  0
   -7.7120   15.1400    3.1470 C   0  0  0  0  0  0  0  0  0  0  0  0
   -8.5810   15.4760    2.3410 O   0  0  0  0  0  0  0  0  0  0  0  0
   -5.8890   14.5930    1.5740 C   0  0  0  0  0  0  0  0  0  0  0  0
   -7.6860   15.3820    4.4900 N   0  0  0  0  0  0  0  0  0  0  0  0
   -6.3190   14.8990    0.3750 N   0  0  0  0  0  0  0  0  0  0  0  0
   -4.2100   14.3550    1.7340 S   0  0  0  0  0  0  0  0  0  0  0  0
   -5.2360   14.9490   -0.4930 C   0  0  0  0  0  0  0  0  0  0  0  0
   -3.9890   14.6760    0.0740 C   0  0  0  0  0  0  0  0  0  0  0  0
   -8.5230   16.1830    5.2880 C   0  0  0  0  0  0  0  0  0  0  0  0
   -5.2950   15.2440   -1.8690 C   0  0  0  0  0  0  0  0  0  0  0  0
   -2.8050   14.6800   -0.6630 C   0  0  0  0  0  0  0  0  0  0  0  0
   -9.2120   17.3140    4.8690 C   0  0  0  0  0  0  0  0  0  0  0  0
   -8.6730   15.8060    6.6230 C   0  0  0  0  0  0  0  0  0  0  0  0
   -4.1200   15.2470   -2.6200 C   0  0  0  0  0  0  0  0  0  0  0  0
   -2.9030   14.9680   -2.0200 C   0  0  0  0  0  0  0  0  0  0  0  0
  -10.0120   18.0600    5.6710 N   0  0  0  0  0  0  0  0  0  0  0  0
   -9.4880   16.5560    7.4710 C   0  0  0  0  0  0  0  0  0  0  0  0
   -1.7890   14.9750   -2.7630 F   0  0  0  0  0  0  0  0  0  0  0  0
  -10.1300   17.6650    6.9520 C   0  0  0  0  0  0  0  0  0  0  0  0
  1  2  1  0
  2  3  2  0
  1  4  1  0
  2  5  1  0
  4  6  2  0
  4  7  1  0
  6  8  1  0
  7  9  1  0
  8  9  2  0
  5 10  1  0
  8 11  1  0
  9 12  1  0
 10 13  2  0
 10 14  1  0
 11 15  2  0
 12 16  2  0
 15 16  1  0
 13 17  1  0
 14 18  2  0
 16 19  1  0
 17 20  2  0
 18 20  1  0
M  END
