mac-x0437-mac-x0371
     RDKit          3D

 22 24  0  0  0  0  0  0  0  0999 V2000
    1.3570   13.0080   -2.0360 O   0  0  0  0  0  0  0  0  0  0  0  0
    1.5460   12.1310   -3.1460 C   0  0  1  0  0  0  0  0  0  0  0  0
    0.5060   11.0370   -3.1920 N   0  0  0  0  0  0  0  0  0  0  0  0
    1.6930   12.9850   -4.4360 C   0  0  1  0  0  0  0  0  0  0  0  0
    1.1180   12.4780   -5.7670 C   0  0  0  0  0  0  0  0  0  0  0  0
    0.3670   10.4910   -2.0850 O   0  0  0  0  0  0  0  0  0  0  0  0
    0.9870   14.2680   -4.3670 C   0  0  0  0  0  0  0  0  0  0  0  0
   -0.0350   11.6020   -5.7620 N   0  0  0  0  0  0  0  0  0  0  0  0
   -0.3860   14.2180   -4.3380 C   0  0  0  0  0  0  0  0  0  0  0  0
    1.6510   15.4760   -4.3480 C   0  0  0  0  0  0  0  0  0  0  0  0
   -1.1160   11.5110   -4.9200 C   0  0  0  0  0  0  0  0  0  0  0  0
   -0.1600   10.6690   -6.7180 C   0  0  0  0  0  0  0  0  0  0  0  0
   -1.1140   15.3730   -4.3000 C   0  0  0  0  0  0  0  0  0  0  0  0
    0.9230   16.6580   -4.3120 C   0  0  0  0  0  0  0  0  0  0  0  0
   -2.8230   15.2360   -4.2620 Cl  0  0  0  0  0  0  0  0  0  0  0  0
   -1.9300   10.5400   -5.3030 N   0  0  0  0  0  0  0  0  0  0  0  0
   -1.3360   10.0080   -6.4210 C   0  0  0  0  0  0  0  0  0  0  0  0
    0.6620   10.3690   -7.7940 C   0  0  0  0  0  0  0  0  0  0  0  0
   -0.4700   16.6060   -4.2910 C   0  0  0  0  0  0  0  0  0  0  0  0
   -1.7280    8.9540   -7.2560 C   0  0  0  0  0  0  0  0  0  0  0  0
    0.2650    9.3240   -8.6120 C   0  0  0  0  0  0  0  0  0  0  0  0
   -0.9130    8.6230   -8.3480 C   0  0  0  0  0  0  0  0  0  0  0  0
  2  1  1  1
  2  3  1  0
  2  4  1  0
  4  5  1  6
  3  6  2  0
  4  7  1  0
  5  8  1  0
  7  9  2  0
  7 10  1  0
  8 11  1  0
  8 12  1  0
  9 13  1  0
 10 14  2  0
 13 15  1  0
 11 16  2  0
 12 17  2  0
 16 17  1  0
 12 18  1  0
 13 19  2  0
 14 19  1  0
 17 20  1  0
 18 21  2  0
 20 22  2  0
 21 22  1  0
M  END
