mac-x0344-mac-x0124
     RDKit          3D

 24 26  0  0  0  0  0  0  0  0999 V2000
    1.9500   13.6790   -4.6490 O   0  0  0  0  0  0  0  0  0  0  0  0
    1.3030   12.9960   -3.6120 C   0  0  0  0  0  0  0  0  0  0  0  0
    2.3330   12.4470   -2.8210 O   0  0  0  0  0  0  0  0  0  0  0  0
    0.4450   11.7940   -4.1310 C   0  0  0  0  0  0  0  0  0  0  0  0
    0.5860   13.8470   -2.5920 C   0  0  0  0  0  0  0  0  0  0  0  0
    0.1450   10.8920   -3.3320 O   0  0  0  0  0  0  0  0  0  0  0  0
    0.0110   11.6340   -5.4050 N   0  0  0  0  0  0  0  0  0  0  0  0
   -0.2870   14.9570   -3.1460 C   0  0  0  0  0  0  0  0  0  0  0  0
   -0.7920   10.6820   -6.0760 C   0  0  0  0  0  0  0  0  0  0  0  0
   -1.4230   15.1280   -2.2660 N   0  0  0  0  0  0  0  0  0  0  0  0
   -0.7370   10.4020   -7.4380 C   0  0  0  0  0  0  0  0  0  0  0  0
   -1.7130    9.9640   -5.2780 C   0  0  0  0  0  0  0  0  0  0  0  0
   -2.7380   15.3560   -2.6070 C   0  0  0  0  0  0  0  0  0  0  0  0
   -1.2870   15.0590   -0.9180 C   0  0  0  0  0  0  0  0  0  0  0  0
   -1.5870    9.4380   -7.9900 C   0  0  0  0  0  0  0  0  0  0  0  0
   -2.5570    9.0110   -5.8480 C   0  0  0  0  0  0  0  0  0  0  0  0
   -3.4550   15.4410   -1.4160 C   0  0  0  0  0  0  0  0  0  0  0  0
   -2.5250   15.2530   -0.3410 C   0  0  0  0  0  0  0  0  0  0  0  0
   -0.1190   14.8600   -0.2830 N   0  0  0  0  0  0  0  0  0  0  0  0
   -2.4990    8.7450   -7.2000 C   0  0  0  0  0  0  0  0  0  0  0  0
   -2.5610   15.2020    1.0550 C   0  0  0  0  0  0  0  0  0  0  0  0
   -0.2770   14.8360    1.0510 C   0  0  0  0  0  0  0  0  0  0  0  0
   -3.7130   15.3750    1.7800 N   0  0  0  0  0  0  0  0  0  0  0  0
   -1.4200   14.9860    1.7460 N   0  0  0  0  0  0  0  0  0  0  0  0
  2  1  1  0
  2  3  1  0
  2  4  1  0
  2  5  1  0
  4  6  2  0
  4  7  1  0
  5  8  1  0
  7  9  1  0
  8 10  1  0
  9 11  2  0
  9 12  1  0
 10 13  1  0
 10 14  1  0
 11 15  1  0
 12 16  2  0
 13 17  2  0
 14 18  2  0
 17 18  1  0
 14 19  1  0
 15 20  2  0
 16 20  1  0
 18 21  1  0
 19 22  2  0
 21 23  1  0
 21 24  2  0
 22 24  1  0
M  END
