mac-x0510-mac-x0381
     RDKit          3D

 27 30  0  0  0  0  0  0  0  0999 V2000
   -6.1410   14.9340    0.5730 O   0  0  0  0  0  0  0  0  0  0  0  0
   -4.9490   15.0720    0.3110 C   0  0  0  0  0  0  0  0  0  0  0  0
   -4.5780   15.3880   -0.9730 N   0  0  0  0  0  0  0  0  0  0  0  0
   -3.9450   14.9150    1.2480 N   0  0  0  0  0  0  0  0  0  0  0  0
   -4.2780   14.2120    2.4620 C   0  0  0  0  0  0  0  0  0  0  0  0
   -2.6370   15.0820    0.8580 C   0  0  0  0  0  0  0  0  0  0  0  0
   -3.3010   15.5990   -1.4290 C   0  0  0  0  0  0  0  0  0  0  0  0
   -3.0510   15.9000   -2.5870 O   0  0  0  0  0  0  0  0  0  0  0  0
   -4.8390   15.1520    3.5210 C   0  0  0  0  0  0  0  0  0  0  0  0
   -2.3240   15.4130   -0.4220 C   0  0  0  0  0  0  0  0  0  0  0  0
   -1.5220   14.9470    1.6300 N   0  0  0  0  0  0  0  0  0  0  0  0
   -6.0010   14.5590    4.3230 C   0  0  0  0  0  0  0  0  0  0  0  0
   -0.9640   15.4950   -0.4630 N   0  0  0  0  0  0  0  0  0  0  0  0
   -0.5180   15.2060    0.8040 C   0  0  0  0  0  0  0  0  0  0  0  0
   -7.2040   15.2830    4.0000 N   0  0  0  0  0  0  0  0  0  0  0  0
   -8.2580   14.5990    3.7940 C   0  0  0  0  0  0  0  0  0  0  0  0
   -8.1570   13.2350    3.9260 N   0  0  0  0  0  0  0  0  0  0  0  0
   -9.5670   15.1570    3.4040 C   0  0  0  0  0  0  0  0  0  0  0  0
   -9.6750   15.8110    2.1770 C   0  0  0  0  0  0  0  0  0  0  0  0
  -10.6650   15.0250    4.2460 C   0  0  0  0  0  0  0  0  0  0  0  0
  -10.8970   16.3410    1.7660 C   0  0  0  0  0  0  0  0  0  0  0  0
  -11.8950   15.5530    3.8480 C   0  0  0  0  0  0  0  0  0  0  0  0
  -12.0250   16.2090    2.6110 C   0  0  0  0  0  0  0  0  0  0  0  0
  -11.0220   16.9940    0.5340 C   0  0  0  0  0  0  0  0  0  0  0  0
  -13.2550   16.7370    2.1910 C   0  0  0  0  0  0  0  0  0  0  0  0
  -12.2530   17.5080    0.1300 C   0  0  0  0  0  0  0  0  0  0  0  0
  -13.3690   17.3780    0.9580 C   0  0  0  0  0  0  0  0  0  0  0  0
  1  2  2  0
  2  3  1  0
  2  4  1  0
  4  5  1  0
  4  6  1  0
  3  7  1  0
  7  8  2  0
  5  9  1  0
  6 10  2  0
  7 10  1  0
  6 11  1  0
  9 12  1  0
 10 13  1  0
 11 14  2  0
 13 14  1  0
 12 15  1  0
 15 16  2  3
 16 17  1  0
 16 18  1  0
 18 19  2  0
 18 20  1  0
 19 21  1  0
 20 22  2  0
 21 23  2  0
 22 23  1  0
 21 24  1  0
 23 25  1  0
 24 26  2  0
 25 27  2  0
 26 27  1  0
M  END
