mac-x0193-mac-x0204
     RDKit          3D

 23 24  0  0  0  0  0  0  0  0999 V2000
    0.7150   10.7870   -2.8690 O   0  0  0  0  0  0  0  0  0  0  0  0
    0.6480   12.0670   -3.2910 C   0  0  0  0  0  0  0  0  0  0  0  0
    0.4010   12.9440   -2.3920 N   0  0  0  0  0  0  0  0  0  0  0  0
    0.8660   12.2630   -4.7890 C   0  0  0  0  0  0  0  0  0  0  0  0
    0.1760   11.3940   -5.7190 N   0  0  0  0  0  0  0  0  0  0  0  0
    0.2830   14.2110   -2.8900 C   0  0  0  0  0  0  0  0  0  0  0  0
    0.8050   11.2840   -6.9140 C   0  0  0  0  0  0  0  0  0  0  0  0
    0.9920   15.1580   -2.5740 O   0  0  0  0  0  0  0  0  0  0  0  0
   -0.8220   14.3450   -3.8870 C   0  0  0  0  0  0  0  0  0  0  0  0
    1.9080   11.7420   -7.0440 O   0  0  0  0  0  0  0  0  0  0  0  0
    0.0880   10.6190   -7.8800 N   0  0  0  0  0  0  0  0  0  0  0  0
   -1.2770   15.5750   -4.3620 C   0  0  0  0  0  0  0  0  0  0  0  0
   -1.4450   13.2170   -4.3840 C   0  0  0  0  0  0  0  0  0  0  0  0
    0.7650   10.1050   -9.0700 C   0  0  0  0  0  0  0  0  0  0  0  0
   -2.3210   15.5950   -5.2840 C   0  0  0  0  0  0  0  0  0  0  0  0
   -2.4660   13.2050   -5.2760 N   0  0  0  0  0  0  0  0  0  0  0  0
   -2.8020   16.7650   -5.7850 O   0  0  0  0  0  0  0  0  0  0  0  0
    1.3640    8.7340   -8.7940 C   0  0  0  0  0  0  0  0  0  0  0  0
   -0.1490   10.0400  -10.2950 C   0  0  0  0  0  0  0  0  0  0  0  0
   -2.8830   14.4060   -5.7080 C   0  0  0  0  0  0  0  0  0  0  0  0
    2.0800    8.1310  -10.0090 C   0  0  0  0  0  0  0  0  0  0  0  0
    0.5530    9.4760  -11.5360 C   0  0  0  0  0  0  0  0  0  0  0  0
    1.2240    8.1300  -11.2740 C   0  0  0  0  0  0  0  0  0  0  0  0
  1  2  1  0
  2  3  2  3
  2  4  1  0
  4  5  1  0
  3  6  1  0
  5  7  1  0
  6  8  2  0
  6  9  1  0
  7 10  2  0
  7 11  1  0
  9 12  2  0
  9 13  1  0
 11 14  1  0
 12 15  1  0
 13 16  2  0
 15 17  1  0
 14 18  1  0
 14 19  1  0
 15 20  2  0
 16 20  1  0
 18 21  1  0
 19 22  1  0
 21 23  1  0
 22 23  1  0
M  END
