mac-x0441-diamond-x0910_0_A
     RDKit          3D

 26 28  0  0  0  0  0  0  0  0999 V2000
    1.9920   11.1950   -4.0540 O   0  0  0  0  0  0  0  0  0  0  0  0
    1.0950   12.1060   -3.7220 C   0  0  0  0  0  0  0  0  0  0  0  0
    0.9840   12.2290   -2.4650 N   0  0  0  0  0  0  0  0  0  0  0  0
    0.4180   12.7840   -4.8840 C   0  0  0  0  0  0  0  0  0  0  0  0
    0.0530   13.1530   -1.8690 C   0  0  0  0  0  0  0  0  0  0  0  0
    0.1140   11.8890   -5.9940 N   0  0  0  0  0  0  0  0  0  0  0  0
   -1.3780   12.6630   -2.0640 C   0  0  0  0  0  0  0  0  0  0  0  0
    0.9390   11.8520   -7.0760 N   0  0  0  0  0  0  0  0  0  0  0  0
   -0.9390   11.0280   -6.1200 C   0  0  0  0  0  0  0  0  0  0  0  0
   -2.2890   13.7220   -2.6900 C   0  0  0  0  0  0  0  0  0  0  0  0
    0.3850   10.9370   -7.9140 C   0  0  0  0  0  0  0  0  0  0  0  0
   -0.7890   10.4130   -7.3400 C   0  0  0  0  0  0  0  0  0  0  0  0
   -2.0410   10.7730   -5.1520 C   0  0  0  0  0  0  0  0  0  0  0  0
    0.8980   10.4910   -9.2650 C   0  0  0  0  0  0  0  0  0  0  0  0
   -2.6640   14.6530   -1.6420 N   0  0  0  0  0  0  0  0  0  0  0  0
   -1.7280    9.3920   -7.8590 C   0  0  0  0  0  0  0  0  0  0  0  0
   -3.0890    9.8110   -5.7570 C   0  0  0  0  0  0  0  0  0  0  0  0
    1.5710    9.3100   -9.2260 F   0  0  0  0  0  0  0  0  0  0  0  0
   -0.1320   10.2920  -10.1260 F   0  0  0  0  0  0  0  0  0  0  0  0
    1.6850   11.3630   -9.9160 F   0  0  0  0  0  0  0  0  0  0  0  0
   -2.4790    8.7440   -6.6850 C   0  0  0  0  0  0  0  0  0  0  0  0
   -1.8590   14.7650   -0.5670 C   0  0  0  0  0  0  0  0  0  0  0  0
   -2.2730   14.6710    0.7320 N   0  0  0  0  0  0  0  0  0  0  0  0
   -0.5700   14.9820   -0.5880 N   0  0  0  0  0  0  0  0  0  0  0  0
   -1.2400   14.8270    1.5720 N   0  0  0  0  0  0  0  0  0  0  0  0
   -0.2330   15.0160    0.7260 C   0  0  0  0  0  0  0  0  0  0  0  0
  1  2  1  0
  2  3  2  3
  2  4  1  0
  3  5  1  0
  4  6  1  0
  5  7  1  0
  6  8  1  0
  6  9  1  0
  7 10  1  0
  8 11  2  0
  9 12  2  0
 11 12  1  0
  9 13  1  0
 11 14  1  0
 10 15  1  0
 12 16  1  0
 13 17  1  0
 14 18  1  0
 14 19  1  0
 14 20  1  0
 16 21  1  0
 17 21  1  0
 15 22  1  0
 22 23  1  0
 22 24  2  0
 23 25  1  0
 24 26  1  0
 25 26  2  0
M  END
