mac-x0123-diamond-x0910_0_A
     RDKit          3D

 18 21  0  0  0  0  0  0  0  0999 V2000
   -3.9010   13.7970    1.5680 N   0  0  0  0  0  0  0  0  0  0  0  0
   -4.6750   14.8360    0.9000 C   0  0  2  0  0  0  0  0  0  0  0  0
   -6.1890   14.6960    0.9730 C   0  0  1  0  0  0  0  0  0  0  0  0
   -4.2690   15.0840   -0.4850 N   0  0  0  0  0  0  0  0  0  0  0  0
   -5.3770   14.9110   -1.4620 C   0  0  2  0  0  0  0  0  0  0  0  0
   -6.6970   13.5510    0.1550 C   0  0  2  0  0  0  0  0  0  0  0  0
   -6.9780   14.5870    2.2440 C   0  0  0  0  0  0  0  0  0  0  0  0
   -3.1810   14.3190   -1.0540 N   0  0  0  0  0  0  0  0  0  0  0  0
   -6.3580   13.8420   -1.2400 N   0  0  0  0  0  0  0  0  0  0  0  0
   -8.1920   13.5590    0.5330 C   0  0  0  0  0  0  0  0  0  0  0  0
   -8.1180   13.9400    1.9900 C   0  0  0  0  0  0  0  0  0  0  0  0
   -4.7710   14.5690   -2.7620 N   0  0  0  0  0  0  0  0  0  0  0  0
   -3.3290   14.6170   -2.4630 C   0  0  0  0  0  0  0  0  0  0  0  0
   -1.9770   14.5730   -0.4460 C   0  0  0  0  0  0  0  0  0  0  0  0
   -1.9330   14.8520    0.8880 N   0  0  0  0  0  0  0  0  0  0  0  0
   -0.7410   14.6030   -0.9150 N   0  0  0  0  0  0  0  0  0  0  0  0
   -0.6840   15.0630    1.3150 N   0  0  0  0  0  0  0  0  0  0  0  0
    0.0040   14.9050    0.1910 C   0  0  0  0  0  0  0  0  0  0  0  0
  2  1  1  6
  2  3  1  0
  2  4  1  0
  4  5  1  0
  3  6  1  0
  3  7  1  1
  4  8  1  0
  5  9  1  1
  6  9  1  0
  6 10  1  6
  7 11  2  0
 10 11  1  0
  5 12  1  0
  8 13  1  0
 12 13  1  0
  8 14  1  0
 14 15  1  0
 14 16  2  0
 15 17  1  0
 16 18  1  0
 17 18  2  0
M  END
