mac-x0180-mac-x0381
     RDKit          3D

 28 30  0  0  0  0  0  0  0  0999 V2000
   -8.1110   13.6220    0.3390 C   0  0  0  0  0  0  0  0  0  0  0  0
   -6.7720   14.3400    0.4680 C   0  0  2  0  0  0  0  0  0  0  0  0
   -6.9160   15.5200   -0.2960 O   0  0  0  0  0  0  0  0  0  0  0  0
   -5.6810   13.6030   -0.0670 N   0  0  0  0  0  0  0  0  0  0  0  0
   -6.4010   14.4510    1.9370 C   0  0  0  0  0  0  0  0  0  0  0  0
   -7.2240   15.1770    2.9840 C   0  0  0  0  0  0  0  0  0  0  0  0
   -4.5390   14.0320   -0.7350 C   0  0  0  0  0  0  0  0  0  0  0  0
   -8.1670   14.5330    3.9660 C   0  0  0  0  0  0  0  0  0  0  0  0
   -3.2970   14.0430   -0.0600 C   0  0  0  0  0  0  0  0  0  0  0  0
   -4.5560   14.4320   -2.0630 C   0  0  0  0  0  0  0  0  0  0  0  0
   -7.8560   13.1370    4.0740 N   0  0  0  0  0  0  0  0  0  0  0  0
   -7.7830   15.0130    5.2820 N   0  0  0  0  0  0  0  0  0  0  0  0
   -2.1130   14.4110   -0.7230 C   0  0  0  0  0  0  0  0  0  0  0  0
   -3.3930   14.8000   -2.7300 C   0  0  0  0  0  0  0  0  0  0  0  0
   -9.5530   15.0590    3.5810 C   0  0  0  0  0  0  0  0  0  0  0  0
   -2.1660   14.7760   -2.0730 C   0  0  0  0  0  0  0  0  0  0  0  0
   -9.6790   15.8470    2.4120 C   0  0  0  0  0  0  0  0  0  0  0  0
  -10.7270   14.8260    4.3120 C   0  0  0  0  0  0  0  0  0  0  0  0
   -0.9260   15.1230   -2.8050 C   0  0  0  0  0  0  0  0  0  0  0  0
  -10.8890   16.3870    1.9730 C   0  0  0  0  0  0  0  0  0  0  0  0
  -11.9580   15.3560    3.8880 C   0  0  0  0  0  0  0  0  0  0  0  0
   -0.8670   15.3820   -3.9920 O   0  0  0  0  0  0  0  0  0  0  0  0
    0.1740   15.1170   -2.0390 O   0  0  0  0  0  0  0  0  0  0  0  0
  -12.0540   16.1380    2.7220 C   0  0  0  0  0  0  0  0  0  0  0  0
  -10.9640   17.1680    0.8070 C   0  0  0  0  0  0  0  0  0  0  0  0
  -13.2730   16.6760    2.2840 C   0  0  0  0  0  0  0  0  0  0  0  0
  -12.1800   17.6980    0.3860 C   0  0  0  0  0  0  0  0  0  0  0  0
  -13.3380   17.4520    1.1230 C   0  0  0  0  0  0  0  0  0  0  0  0
  2  1  1  1
  2  3  1  0
  2  4  1  0
  2  5  1  0
  5  6  1  0
  4  7  1  0
  6  8  1  0
  7  9  2  0
  7 10  1  0
  8 11  1  0
  8 12  1  0
  9 13  1  0
 10 14  2  0
  8 15  1  0
 13 16  2  0
 14 16  1  0
 15 17  2  0
 15 18  1  0
 16 19  1  0
 17 20  1  0
 18 21  2  0
 19 22  2  0
 19 23  1  0
 20 24  2  0
 21 24  1  0
 20 25  1  0
 24 26  1  0
 25 27  2  0
 26 28  2  0
 27 28  1  0
M  END
