mac-x0455-diamond-x0837_0_A
     RDKit          3D

 19 20  0  0  0  0  0  0  0  0999 V2000
   -2.8200   14.6950   -2.6570 C   0  0  0  0  0  0  0  0  0  0  0  0
   -1.3610   14.2480   -3.1380 C   0  0  1  0  0  0  0  0  0  0  0  0
   -0.9850   15.3880   -3.9790 O   0  0  0  0  0  0  0  0  0  0  0  0
   -3.6410   14.4440   -1.3150 C   0  0  1  0  0  0  0  0  0  0  0  0
   -0.2040   14.3030   -2.0970 C   0  0  0  0  0  0  0  0  0  0  0  0
   -1.2670   13.0570   -4.1140 C   0  0  0  0  0  0  0  0  0  0  0  0
   -3.0600   14.8850    0.0150 C   0  0  0  0  0  0  0  0  0  0  0  0
   -5.1080   14.9390   -1.4100 C   0  0  0  0  0  0  0  0  0  0  0  0
    0.2440   15.2270   -1.4590 O   0  0  0  0  0  0  0  0  0  0  0  0
    0.3890   13.0840   -1.9460 O   0  0  0  0  0  0  0  0  0  0  0  0
   -2.2380   12.0460   -4.2050 C   0  0  0  0  0  0  0  0  0  0  0  0
   -0.1470   12.9400   -4.9860 C   0  0  0  0  0  0  0  0  0  0  0  0
   -3.8460   15.0510    1.0980 C   0  0  0  0  0  0  0  0  0  0  0  0
   -5.9160   14.8260   -0.1210 C   0  0  0  0  0  0  0  0  0  0  0  0
   -7.1470   14.7340   -0.1060 O   0  0  0  0  0  0  0  0  0  0  0  0
   -2.1060   10.9800   -5.1080 C   0  0  0  0  0  0  0  0  0  0  0  0
   -0.0150   11.8750   -5.8880 C   0  0  0  0  0  0  0  0  0  0  0  0
   -5.1910   14.8350    1.0420 N   0  0  0  0  0  0  0  0  0  0  0  0
   -0.9970   10.8950   -5.9470 C   0  0  0  0  0  0  0  0  0  0  0  0
  1  2  1  0
  2  3  1  6
  4  1  1  6
  2  5  1  0
  2  6  1  0
  4  7  1  0
  4  8  1  0
  5  9  2  0
  5 10  1  0
  6 11  2  0
  6 12  1  0
  7 13  2  0
  8 14  1  0
 14 15  2  0
 11 16  1  0
 12 17  2  0
 13 18  1  0
 14 18  1  0
 16 19  2  0
 17 19  1  0
M  END
