mac-x0213-mac-x0132
     RDKit          3D

 26 29  0  0  0  0  0  0  0  0999 V2000
   -0.5730   12.2230   -2.2350 O   0  0  0  0  0  0  0  0  0  0  0  0
    0.4250   13.2020   -2.4810 C   0  0  0  0  0  0  0  0  0  0  0  0
    1.6230   12.4840   -2.3980 O   0  0  0  0  0  0  0  0  0  0  0  0
    0.4570   14.2930   -1.3630 C   0  0  0  0  0  0  0  0  0  0  0  0
    0.2780   13.7870   -3.9170 C   0  0  0  0  0  0  0  0  0  0  0  0
   -0.8390   15.0720   -1.0140 C   0  0  0  0  0  0  0  0  0  0  0  0
   -1.1760   14.1070   -4.3690 C   0  0  0  0  0  0  0  0  0  0  0  0
    1.1190   15.0730   -4.1340 C   0  0  0  0  0  0  0  0  0  0  0  0
   -1.7090   15.5090   -2.2030 C   0  0  0  0  0  0  0  0  0  0  0  0
   -1.1340   15.5520   -4.7800 C   0  0  0  0  0  0  0  0  0  0  0  0
    0.1460   16.0820   -4.6470 C   0  0  0  0  0  0  0  0  0  0  0  0
   -2.1830   16.3360   -5.2460 C   0  0  0  0  0  0  0  0  0  0  0  0
    0.4100   17.3970   -4.9730 C   0  0  0  0  0  0  0  0  0  0  0  0
   -3.1660   15.2950   -1.8970 C   0  0  0  0  0  0  0  0  0  0  0  0
   -1.9170   17.6680   -5.5810 C   0  0  0  0  0  0  0  0  0  0  0  0
   -0.6320   18.1910   -5.4440 C   0  0  0  0  0  0  0  0  0  0  0  0
   -4.1390   15.0880   -2.8810 C   0  0  0  0  0  0  0  0  0  0  0  0
   -3.5640   15.2930   -0.5700 C   0  0  0  0  0  0  0  0  0  0  0  0
   -4.9020   15.0700   -0.2130 C   0  0  0  0  0  0  0  0  0  0  0  0
   -5.4780   14.8700   -2.5100 C   0  0  0  0  0  0  0  0  0  0  0  0
   -5.3320   15.0510    1.0930 C   0  0  0  0  0  0  0  0  0  0  0  0
   -5.8780   14.8500   -1.1780 C   0  0  0  0  0  0  0  0  0  0  0  0
   -4.4130   15.2910    2.1050 N   0  0  0  0  0  0  0  0  0  0  0  0
   -7.1630   14.6230   -0.8550 N   0  0  0  0  0  0  0  0  0  0  0  0
   -6.6030   14.8180    1.4590 N   0  0  0  0  0  0  0  0  0  0  0  0
   -7.4610   14.6120    0.4520 C   0  0  0  0  0  0  0  0  0  0  0  0
  2  1  1  0
  2  3  1  0
  2  4  1  0
  2  5  1  0
  4  6  1  0
  5  7  1  0
  5  8  1  0
  6  9  1  0
  7 10  1  0
  8 11  1  0
 10 11  2  0
 10 12  1  0
 11 13  1  0
  9 14  1  0
 12 15  2  0
 13 16  2  0
 15 16  1  0
 14 17  2  0
 14 18  1  0
 18 19  2  0
 17 20  1  0
 19 21  1  0
 19 22  1  0
 20 22  2  0
 21 23  1  0
 22 24  1  0
 21 25  2  0
 24 26  2  0
 25 26  1  0
M  END
