mac-x0437-mac-x0277
     RDKit          3D

 22 24  0  0  0  0  0  0  0  0999 V2000
    1.4150   12.9420   -2.0560 O   0  0  0  0  0  0  0  0  0  0  0  0
    1.0430   12.3820   -3.2130 C   0  0  0  0  0  0  0  0  0  0  0  0
    0.5070   11.2860   -3.2020 O   0  0  0  0  0  0  0  0  0  0  0  0
    1.3670   13.2230   -4.4330 C   0  0  1  0  0  0  0  0  0  0  0  0
    1.0510   12.5600   -5.7550 C   0  0  0  0  0  0  0  0  0  0  0  0
    0.6670   14.5500   -4.5560 C   0  0  0  0  0  0  0  0  0  0  0  0
   -0.0710   11.6510   -5.7740 N   0  0  0  0  0  0  0  0  0  0  0  0
   -0.6940   14.6080   -4.8680 C   0  0  0  0  0  0  0  0  0  0  0  0
    1.3760   15.7320   -4.3850 C   0  0  0  0  0  0  0  0  0  0  0  0
   -1.1770   11.5750   -4.9660 C   0  0  0  0  0  0  0  0  0  0  0  0
   -0.1450   10.6800   -6.6960 C   0  0  0  0  0  0  0  0  0  0  0  0
   -1.3350   15.8320   -5.0220 C   0  0  0  0  0  0  0  0  0  0  0  0
    0.7400   16.9630   -4.5420 C   0  0  0  0  0  0  0  0  0  0  0  0
   -3.0150   15.8070   -5.4150 Cl  0  0  0  0  0  0  0  0  0  0  0  0
   -1.9630   10.5770   -5.3380 N   0  0  0  0  0  0  0  0  0  0  0  0
   -1.3230   10.0100   -6.4140 C   0  0  0  0  0  0  0  0  0  0  0  0
    0.7150   10.3450   -7.7280 C   0  0  0  0  0  0  0  0  0  0  0  0
   -0.6160   17.0120   -4.8680 C   0  0  0  0  0  0  0  0  0  0  0  0
   -1.3590   18.5490   -5.0740 Cl  0  0  0  0  0  0  0  0  0  0  0  0
   -1.6720    8.9190   -7.2180 C   0  0  0  0  0  0  0  0  0  0  0  0
    0.3620    9.2640   -8.5180 C   0  0  0  0  0  0  0  0  0  0  0  0
   -0.8150    8.5570   -8.2690 C   0  0  0  0  0  0  0  0  0  0  0  0
  1  2  1  0
  2  3  2  0
  2  4  1  0
  4  5  1  6
  4  6  1  0
  5  7  1  0
  6  8  2  0
  6  9  1  0
  7 10  1  0
  7 11  1  0
  8 12  1  0
  9 13  2  0
 12 14  1  0
 10 15  2  0
 11 16  2  0
 15 16  1  0
 11 17  1  0
 12 18  2  0
 13 18  1  0
 18 19  1  0
 16 20  1  0
 17 21  2  0
 20 22  2  0
 21 22  1  0
M  END
