mac-x0231-mac-x0333
     RDKit          3D

 25 28  0  0  0  0  0  0  0  0999 V2000
    0.6390   10.8860   -3.4700 O   0  0  0  0  0  0  0  0  0  0  0  0
    1.3710   12.0060   -3.3400 C   0  0  0  0  0  0  0  0  0  0  0  0
    1.5790   12.4530   -2.2240 O   0  0  0  0  0  0  0  0  0  0  0  0
    1.8470   12.6490   -4.6210 C   0  0  0  0  0  0  0  0  0  0  0  0
    1.2470   14.0070   -4.6170 C   0  0  0  0  0  0  0  0  0  0  0  0
   -0.2130   14.0410   -4.5970 C   0  0  0  0  0  0  0  0  0  0  0  0
    2.0180   15.0230   -4.5000 N   0  0  0  0  0  0  0  0  0  0  0  0
   -0.8070   15.2160   -4.1660 C   0  0  0  0  0  0  0  0  0  0  0  0
    1.4090   16.2090   -4.3680 N   0  0  0  0  0  0  0  0  0  0  0  0
   -0.9690   12.9170   -4.9570 C   0  0  0  0  0  0  0  0  0  0  0  0
    0.1130   16.3750   -3.9100 C   0  0  0  0  0  0  0  0  0  0  0  0
   -2.2080   15.1820   -4.0110 C   0  0  0  0  0  0  0  0  0  0  0  0
   -2.3480   12.9340   -4.8600 C   0  0  0  0  0  0  0  0  0  0  0  0
   -0.2170   17.4350   -3.4140 O   0  0  0  0  0  0  0  0  0  0  0  0
   -2.9300   16.1920   -3.4840 O   0  0  0  0  0  0  0  0  0  0  0  0
   -2.9630   14.0650   -4.3700 C   0  0  0  0  0  0  0  0  0  0  0  0
   -3.6360   15.8030   -2.3000 C   0  0  0  0  0  0  0  0  0  0  0  0
   -4.9870   15.4170   -2.3270 C   0  0  0  0  0  0  0  0  0  0  0  0
   -2.9560   15.8170   -1.0470 C   0  0  0  0  0  0  0  0  0  0  0  0
   -5.6130   15.0910   -1.1420 C   0  0  0  0  0  0  0  0  0  0  0  0
   -3.6270   15.4710    0.1490 C   0  0  0  0  0  0  0  0  0  0  0  0
   -4.9590   15.1190    0.0590 C   0  0  0  0  0  0  0  0  0  0  0  0
   -6.9150   14.7160   -1.0200 O   0  0  0  0  0  0  0  0  0  0  0  0
   -5.7800   14.7710    1.0910 O   0  0  0  0  0  0  0  0  0  0  0  0
   -6.9900   14.4330    0.3890 C   0  0  0  0  0  0  0  0  0  0  0  0
  1  2  1  0
  2  3  2  0
  2  4  1  0
  4  5  1  0
  5  6  1  0
  5  7  2  0
  6  8  2  0
  7  9  1  0
  6 10  1  0
  8 11  1  0
  9 11  1  0
  8 12  1  0
 10 13  2  0
 11 14  2  0
 12 15  1  0
 12 16  2  0
 13 16  1  0
 15 17  1  0
 17 18  2  0
 17 19  1  0
 18 20  1  0
 19 21  2  0
 20 22  2  0
 21 22  1  0
 20 23  1  0
 22 24  1  0
 23 25  1  0
 24 25  1  0
M  END
