mac-x0139-mac-x0138
     RDKit          3D

 18 19  0  0  0  0  0  0  0  0999 V2000
   -2.2260   15.4150   -3.7220 C   0  0  0  0  0  0  0  0  0  0  0  0
   -1.3220   14.8180   -2.7430 N   0  0  0  0  0  0  0  0  0  0  0  0
   -0.7440   13.6110   -3.3180 C   0  0  0  0  0  0  0  0  0  0  0  0
   -1.5930   14.8420   -1.3530 C   0  0  0  0  0  0  0  0  0  0  0  0
    0.7340   13.7260   -3.5480 C   0  0  0  0  0  0  0  0  0  0  0  0
   -2.8300   15.1360   -0.9000 C   0  0  0  0  0  0  0  0  0  0  0  0
   -0.5530   14.5610   -0.4320 N   0  0  0  0  0  0  0  0  0  0  0  0
    1.3430   12.5390   -2.8910 C   0  0  0  0  0  0  0  0  0  0  0  0
   -3.0670   15.1720    0.5400 C   0  0  0  0  0  0  0  0  0  0  0  0
   -0.8510   14.5670    0.8520 C   0  0  0  0  0  0  0  0  0  0  0  0
   -4.1140   15.4700   -1.4150 C   0  0  0  0  0  0  0  0  0  0  0  0
    2.3250   12.5740   -2.1920 O   0  0  0  0  0  0  0  0  0  0  0  0
    0.6600   11.3950   -3.1460 O   0  0  0  0  0  0  0  0  0  0  0  0
    0.0460   14.2700    1.8120 N   0  0  0  0  0  0  0  0  0  0  0  0
   -2.0910   14.8420    1.3550 N   0  0  0  0  0  0  0  0  0  0  0  0
   -4.2760   15.4950    0.8690 N   0  0  0  0  0  0  0  0  0  0  0  0
   -4.8890   15.6730   -0.3450 C   0  0  0  0  0  0  0  0  0  0  0  0
   -2.6980   13.9620    2.2110 N   0  0  0  0  0  0  0  0  0  0  0  0
  1  2  1  0
  2  3  1  0
  2  4  1  0
  3  5  1  0
  4  6  2  0
  4  7  1  0
  5  8  1  0
  6  9  1  0
  7 10  2  0
  6 11  1  0
  8 12  2  0
  8 13  1  0
 10 14  1  0
  9 15  1  0
 10 15  1  0
  9 16  2  0
 11 17  2  0
 16 17  1  0
 15 18  1  0
M  END
