mac-x0163-mac-x0472
     RDKit          3D

 26 30  0  0  0  0  0  0  0  0999 V2000
   -3.3970   15.1450   -1.5080 N   0  0  0  0  0  0  0  0  0  0  0  0
   -3.0450   13.5290   -2.3610 S   0  0  0  0  0  0  0  0  0  0  0  0
   -2.8780   13.7420   -3.2110 O   0  0  0  0  0  0  0  0  0  0  0  0
   -2.3950   14.8270   -0.5640 C   0  0  0  0  0  0  0  0  0  0  0  0
   -1.6230   12.9760   -1.4450 N   0  0  0  0  0  0  0  0  0  0  0  0
   -2.5370   14.9530    0.7870 C   0  0  0  0  0  0  0  0  0  0  0  0
   -1.1320   14.2640   -1.0960 C   0  0  2  0  0  0  0  0  0  0  0  0
   -4.1890   12.3150   -2.1440 C   0  0  0  0  0  0  0  0  0  0  0  0
   -3.7450   15.4480    1.4130 N   0  0  0  0  0  0  0  0  0  0  0  0
   -0.1260   14.2180   -0.1080 N   0  0  0  0  0  0  0  0  0  0  0  0
   -1.5370   14.5900    1.7080 N   0  0  0  0  0  0  0  0  0  0  0  0
   -0.6910   14.5890   -2.4450 N   0  0  0  0  0  0  0  0  0  0  0  0
   -3.8360   11.1120   -2.6040 C   0  0  0  0  0  0  0  0  0  0  0  0
   -5.3860   12.5000   -1.5340 C   0  0  0  0  0  0  0  0  0  0  0  0
   -0.3790   14.2430    1.2980 C   0  0  0  0  0  0  0  0  0  0  0  0
    0.5010   15.3630   -2.5980 C   0  0  0  0  0  0  0  0  0  0  0  0
   -0.5550   13.5770   -3.4020 C   0  0  0  0  0  0  0  0  0  0  0  0
   -4.6700   10.0360   -2.4710 C   0  0  0  0  0  0  0  0  0  0  0  0
   -6.2400   11.4150   -1.3920 C   0  0  0  0  0  0  0  0  0  0  0  0
    1.4000   15.1840   -3.7770 C   0  0  0  0  0  0  0  0  0  0  0  0
    0.8370   12.8960   -3.2460 C   0  0  0  0  0  0  0  0  0  0  0  0
   -1.0860   12.1930   -3.4650 C   0  0  0  0  0  0  0  0  0  0  0  0
   -0.6240   14.1810   -4.7940 C   0  0  0  0  0  0  0  0  0  0  0  0
   -5.8900   10.1730   -1.8590 C   0  0  0  0  0  0  0  0  0  0  0  0
    0.6460   14.8670   -5.1010 C   0  0  0  0  0  0  0  0  0  0  0  0
    0.1570   11.6400   -2.7370 C   0  0  0  0  0  0  0  0  0  0  0  0
  1  2  1  0
  2  3  2  0
  1  4  1  0
  2  5  1  0
  4  6  2  0
  4  7  1  0
  5  7  1  0
  2  8  1  0
  6  9  1  0
  7 10  1  0
  6 11  1  0
  7 12  1  6
  8 13  2  0
  8 14  1  0
 10 15  1  0
 11 15  2  0
 12 16  1  0
 17 12  1  0
 13 18  1  0
 14 19  2  0
 16 20  1  0
 17 21  1  0
 17 22  1  0
 17 23  1  0
 18 24  2  0
 19 24  1  0
 20 25  1  0
 23 25  1  0
 21 26  1  0
 22 26  1  0
M  END
