mac-x0212-mac-x0588
     RDKit          3D

 23 25  0  0  0  0  0  0  0  0999 V2000
   -6.4970   12.6760    1.4000 C   0  0  0  0  0  0  0  0  0  0  0  0
   -6.9750   14.3410    0.9790 S   0  0  0  0  0  0  0  0  0  0  0  0
   -7.7770   14.8770    2.0580 O   0  0  0  0  0  0  0  0  0  0  0  0
   -7.4380   14.3900   -0.3870 O   0  0  0  0  0  0  0  0  0  0  0  0
   -5.4940   15.1160    1.0740 N   0  0  0  0  0  0  0  0  0  0  0  0
   -4.4420   14.7440    0.1330 C   0  0  2  0  0  0  0  0  0  0  0  0
   -3.1550   15.4900    0.4670 C   0  0  0  0  0  0  0  0  0  0  0  0
   -4.8830   15.0820   -1.2490 C   0  0  0  0  0  0  0  0  0  0  0  0
   -2.0140   15.1570   -0.5320 C   0  0  2  0  0  0  0  0  0  0  0  0
   -4.0130   15.3580   -2.2230 C   0  0  0  0  0  0  0  0  0  0  0  0
   -2.4900   15.3890   -2.0590 C   0  0  2  0  0  0  0  0  0  0  0  0
   -1.5350   13.8190   -0.1370 N   0  0  0  0  0  0  0  0  0  0  0  0
   -0.7810   16.0130   -0.2050 C   0  0  0  0  0  0  0  0  0  0  0  0
   -1.6540   14.8270   -3.3050 C   0  0  0  0  0  0  0  0  0  0  0  0
    0.2990   15.0640   -0.0870 N   0  0  0  0  0  0  0  0  0  0  0  0
   -0.3590   14.0610    0.6780 C   0  0  0  0  0  0  0  0  0  0  0  0
   -0.5470   14.0370   -2.8660 O   0  0  0  0  0  0  0  0  0  0  0  0
   -2.4260   13.9640   -4.1090 O   0  0  0  0  0  0  0  0  0  0  0  0
   -1.0590   15.9160   -4.3100 C   0  0  1  0  0  0  0  0  0  0  0  0
   -1.6610   17.2500   -4.1940 O   0  0  0  0  0  0  0  0  0  0  0  0
    0.4400   16.2180   -4.3080 C   0  0  0  0  0  0  0  0  0  0  0  0
    0.5430   17.5640   -5.0090 C   0  0  0  0  0  0  0  0  0  0  0  0
   -0.8990   18.0440   -5.1010 C   0  0  0  0  0  0  0  0  0  0  0  0
  1  2  1  0
  2  3  2  0
  2  4  2  0
  2  5  1  0
  6  5  1  1
  6  7  1  0
  6  8  1  0
  9  7  1  1
  8 10  2  0
  9 11  1  0
 10 11  1  0
  9 12  1  0
  9 13  1  0
 11 14  1  6
 13 15  1  0
 12 16  1  0
 15 16  1  0
 14 17  1  0
 14 18  1  0
 19 14  1  1
 19 20  1  0
 19 21  1  0
 21 22  1  0
 20 23  1  0
 22 23  1  0
M  END
