mac-x0132-diamond-x0128_0_A
     RDKit          3D

 21 23  0  0  0  0  0  0  0  0999 V2000
   -4.1520   14.0600    1.7550 N   0  0  0  0  0  0  0  0  0  0  0  0
   -5.2020   14.9340    1.2680 C   0  0  2  0  0  0  0  0  0  0  0  0
   -6.4620   14.2080    1.4350 N   0  0  0  0  0  0  0  0  0  0  0  0
   -4.8750   15.5410   -0.1170 C   0  0  2  0  0  0  0  0  0  0  0  0
   -6.9310   14.2110    2.7670 N   0  0  0  0  0  0  0  0  0  0  0  0
   -6.0370   15.3280   -1.1540 C   0  0  2  0  0  0  0  0  0  0  0  0
   -7.5230   14.4240    0.4620 C   0  0  0  0  0  0  0  0  0  0  0  0
   -3.4900   15.2190   -0.6410 C   0  0  0  0  0  0  0  0  0  0  0  0
   -7.8870   15.1410    3.1710 C   0  0  0  0  0  0  0  0  0  0  0  0
   -6.9900   14.2520   -0.8650 N   0  0  0  0  0  0  0  0  0  0  0  0
   -5.5730   15.1570   -2.5690 C   0  0  0  0  0  0  0  0  0  0  0  0
   -3.2420   14.9770   -1.9290 C   0  0  0  0  0  0  0  0  0  0  0  0
   -8.7740   15.5920    2.4510 O   0  0  0  0  0  0  0  0  0  0  0  0
   -7.6640   15.4560    4.4920 N   0  0  0  0  0  0  0  0  0  0  0  0
   -4.2890   15.0020   -2.9150 C   0  0  0  0  0  0  0  0  0  0  0  0
   -8.5060   16.2160    5.3310 C   0  0  0  0  0  0  0  0  0  0  0  0
   -9.2140   17.3470    4.9360 C   0  0  0  0  0  0  0  0  0  0  0  0
   -8.6430   15.8070    6.6560 C   0  0  0  0  0  0  0  0  0  0  0  0
  -10.0230   18.0630    5.7580 N   0  0  0  0  0  0  0  0  0  0  0  0
   -9.4660   16.5290    7.5250 C   0  0  0  0  0  0  0  0  0  0  0  0
  -10.1270   17.6400    7.0290 C   0  0  0  0  0  0  0  0  0  0  0  0
  2  1  1  6
  2  3  1  0
  2  4  1  0
  3  5  1  0
  4  6  1  0
  3  7  1  0
  4  8  1  6
  5  9  1  0
  6 10  1  0
  7 10  1  0
  6 11  1  6
  8 12  2  0
  9 13  2  0
  9 14  1  0
 11 15  2  0
 12 15  1  0
 14 16  1  0
 16 17  2  0
 16 18  1  0
 17 19  1  0
 18 20  2  0
 19 21  2  0
 20 21  1  0
M  END
