mac-x0148-mac-x0360
     RDKit          3D

 29 33  0  0  0  0  0  0  0  0999 V2000
   -7.5930   11.6620    2.1210 Cl  0  0  0  0  0  0  0  0  0  0  0  0
   -6.4480   11.9740    0.8270 C   0  0  0  0  0  0  0  0  0  0  0  0
   -6.4080   11.0990   -0.2460 C   0  0  0  0  0  0  0  0  0  0  0  0
   -5.5840   13.0570    0.8300 C   0  0  0  0  0  0  0  0  0  0  0  0
   -4.6970   13.2850   -0.1870 C   0  0  0  0  0  0  0  0  0  0  0  0
   -5.5350   11.3100   -1.2570 C   0  0  0  0  0  0  0  0  0  0  0  0
   -5.4660   10.2160   -2.6120 Cl  0  0  0  0  0  0  0  0  0  0  0  0
   -3.6420   14.6980   -0.1020 S   0  0  0  0  0  0  0  0  0  0  0  0
   -4.6860   12.3830   -1.2370 C   0  0  0  0  0  0  0  0  0  0  0  0
   -3.1800   15.2770    1.2480 N   0  0  0  0  0  0  0  0  0  0  0  0
   -5.1180   16.1310   -0.6890 O   0  0  0  0  0  0  0  0  0  0  0  0
   -2.7820   14.8590   -1.6450 C   0  0  0  0  0  0  0  0  0  0  0  0
   -1.7730   14.6720   -0.8560 C   0  0  0  0  0  0  0  0  0  0  0  0
   -4.0550   14.9090   -1.5200 C   0  0  0  0  0  0  0  0  0  0  0  0
   -2.6270   14.5270    0.3400 C   0  0  0  0  0  0  0  0  0  0  0  0
   -0.4060   14.5970   -0.8670 C   0  0  0  0  0  0  0  0  0  0  0  0
   -3.9790   14.6710   -0.1400 N   0  0  0  0  0  0  0  0  0  0  0  0
    0.5000   14.7320   -1.9590 N   0  0  0  0  0  0  0  0  0  0  0  0
    0.1350   14.3540    0.3780 N   0  0  0  0  0  0  0  0  0  0  0  0
   -1.9350   14.3090    1.5100 N   0  0  0  0  0  0  0  0  0  0  0  0
   -0.0150   14.7390   -3.2620 C   0  0  1  0  0  0  0  0  0  0  0  0
    1.8350   14.2340   -1.6130 C   0  0  0  0  0  0  0  0  0  0  0  0
   -0.6070   14.2250    1.4770 C   0  0  0  0  0  0  0  0  0  0  0  0
    0.4770   15.9800   -4.0520 C   0  0  0  0  0  0  0  0  0  0  0  0
    0.5770   13.7340   -4.1580 C   0  0  1  0  0  0  0  0  0  0  0  0
    2.5180   13.3910   -2.6270 C   0  0  0  0  0  0  0  0  0  0  0  0
    0.3330   14.3620   -5.5120 C   0  0  0  0  0  0  0  0  0  0  0  0
   -0.1830   15.6450   -5.2620 O   0  0  0  0  0  0  0  0  0  0  0  0
    2.0550   13.6160   -4.0160 C   0  0  0  0  0  0  0  0  0  0  0  0
  1  2  1  0
  2  3  2  0
  2  4  1  0
  4  5  2  0
  3  6  1  0
  6  7  1  0
  5  8  1  0
  5  9  1  0
  6  9  2  0
  8 10  1  0
  8 11  2  0
  8 12  1  0
 12 13  1  0
 12 14  2  0
 13 15  1  0
 13 16  2  0
 14 17  1  0
 15 17  2  0
 16 18  1  0
 16 19  1  0
 15 20  1  0
 18 21  1  0
 18 22  1  0
 19 23  1  0
 20 23  2  0
 21 24  1  6
 21 25  1  0
 22 26  1  0
 25 27  1  6
 24 28  1  0
 27 28  1  0
 25 29  1  0
 26 29  1  0
M  END
