mac-x0178-mac-x0453
     RDKit          3D

 22 23  0  0  0  0  0  0  0  0999 V2000
   -0.3350   18.1750   -6.4460 N   0  0  0  0  0  0  0  0  0  0  0  0
   -1.6690   17.5610   -5.6480 S   0  0  0  0  0  0  0  0  0  0  0  0
   -2.5890   17.1160   -6.6700 O   0  0  0  0  0  0  0  0  0  0  0  0
   -2.0120   18.5840   -4.6940 O   0  0  0  0  0  0  0  0  0  0  0  0
   -0.9760   16.1810   -4.7710 C   0  0  0  0  0  0  0  0  0  0  0  0
    0.4110   16.0200   -4.6920 C   0  0  0  0  0  0  0  0  0  0  0  0
   -1.8300   15.2670   -4.1520 C   0  0  0  0  0  0  0  0  0  0  0  0
    0.9370   14.9320   -3.9910 C   0  0  0  0  0  0  0  0  0  0  0  0
   -1.3100   14.1750   -3.4340 C   0  0  0  0  0  0  0  0  0  0  0  0
   -2.2690   13.2310   -2.7540 C   0  0  0  0  0  0  0  0  0  0  0  0
    0.0830   14.0110   -3.3650 C   0  0  0  0  0  0  0  0  0  0  0  0
    0.6760   12.8750   -2.6260 C   0  0  0  0  0  0  0  0  0  0  0  0
   -3.1680   13.9680   -1.8750 N   0  0  0  0  0  0  0  0  0  0  0  0
    1.5000   12.9810   -1.7520 O   0  0  0  0  0  0  0  0  0  0  0  0
    0.1740   11.7040   -3.0550 O   0  0  0  0  0  0  0  0  0  0  0  0
   -3.2380   13.8940   -0.5110 C   0  0  0  0  0  0  0  0  0  0  0  0
   -4.1110   14.8700   -2.2800 C   0  0  0  0  0  0  0  0  0  0  0  0
   -4.2440   14.7570   -0.1560 C   0  0  0  0  0  0  0  0  0  0  0  0
   -4.7750   15.3590   -1.2650 N   0  0  0  0  0  0  0  0  0  0  0  0
   -4.7560   15.0600    1.1930 C   0  0  0  0  0  0  0  0  0  0  0  0
   -6.0120   14.2410    1.6010 C   0  0  0  0  0  0  0  0  0  0  0  0
   -7.2290   14.3600    0.7930 N   0  0  0  0  0  0  0  0  0  0  0  0
  2  1  1  0
  2  3  2  0
  2  4  2  0
  2  5  1  0
  5  6  2  0
  5  7  1  0
  6  8  1  0
  7  9  2  0
  9 10  1  0
  8 11  2  0
  9 11  1  0
 11 12  1  0
 10 13  1  0
 12 14  2  0
 12 15  1  0
 13 16  1  0
 13 17  1  0
 16 18  2  0
 17 19  2  0
 18 19  1  0
 18 20  1  0
 20 21  1  0
 21 22  1  0
M  END
