mac-x0365-diamond-x0895_1_A
     RDKit          3D

 12 12  0  0  0  0  0  0  0  0999 V2000
   -0.5260   14.9190   -1.4480 O   0  0  0  0  0  0  0  0  0  0  0  0
   -1.6450   14.9730   -2.1840 C   0  0  0  0  0  0  0  0  0  0  0  0
   -1.6230   14.6840   -3.3770 O   0  0  0  0  0  0  0  0  0  0  0  0
   -2.9240   15.4090   -1.5060 C   0  0  1  0  0  0  0  0  0  0  0  0
   -4.0730   14.9670   -2.4280 C   0  0  0  0  0  0  0  0  0  0  0  0
   -3.1020   15.0750   -0.0350 C   0  0  0  0  0  0  0  0  0  0  0  0
   -2.1200   14.8430    0.6960 O   0  0  0  0  0  0  0  0  0  0  0  0
   -5.4070   14.6820   -1.7690 C   0  0  2  0  0  0  0  0  0  0  0  0
   -4.4980   15.0430    0.5510 C   0  0  0  0  0  0  0  0  0  0  0  0
   -6.3890   15.1320   -2.6050 F   0  0  0  0  0  0  0  0  0  0  0  0
   -5.5890   15.4080   -0.4570 C   0  0  2  0  0  0  0  0  0  0  0  0
   -6.8570   15.0520    0.0880 O   0  0  0  0  0  0  0  0  0  0  0  0
  1  2  1  0
  2  3  2  0
  4  2  1  6
  4  5  1  0
  4  6  1  0
  6  7  2  0
  5  8  1  0
  6  9  1  0
  8 10  1  6
  8 11  1  0
  9 11  1  0
 11 12  1  1
M  END
