mac-x0139-mac-x0441
     RDKit          3D

 29 32  0  0  0  0  0  0  0  0999 V2000
   -2.3790   15.1080   -3.5350 C   0  0  0  0  0  0  0  0  0  0  0  0
   -1.2490   14.7010   -2.7050 N   0  0  0  0  0  0  0  0  0  0  0  0
   -0.0670   14.2620   -3.5290 C   0  0  0  0  0  0  0  0  0  0  0  0
   -1.3140   14.7690   -1.2670 C   0  0  0  0  0  0  0  0  0  0  0  0
   -0.0980   12.7610   -4.0430 C   0  0  2  0  0  0  0  0  0  0  0  0
   -2.5210   14.9150   -0.6380 C   0  0  0  0  0  0  0  0  0  0  0  0
   -0.1440   14.7330   -0.4780 N   0  0  0  0  0  0  0  0  0  0  0  0
    0.8550   11.9860   -3.1420 C   0  0  0  0  0  0  0  0  0  0  0  0
   -2.5620   14.9910    0.8480 C   0  0  0  0  0  0  0  0  0  0  0  0
   -0.2630   14.7840    0.8290 C   0  0  0  0  0  0  0  0  0  0  0  0
   -3.8950   15.0520   -0.9940 C   0  0  0  0  0  0  0  0  0  0  0  0
   -0.2120   12.2700   -5.5240 N   0  0  0  0  0  0  0  0  0  0  0  0
    1.8550   12.4370   -2.6010 O   0  0  0  0  0  0  0  0  0  0  0  0
    0.5220   10.7010   -2.9160 O   0  0  0  0  0  0  0  0  0  0  0  0
   -1.4220   14.8240    1.5250 N   0  0  0  0  0  0  0  0  0  0  0  0
   -3.7570   15.2170    1.2930 N   0  0  0  0  0  0  0  0  0  0  0  0
   -4.5460   15.2440    0.1590 C   0  0  0  0  0  0  0  0  0  0  0  0
    0.8770   11.6460   -6.3060 N   0  0  0  0  0  0  0  0  0  0  0  0
   -1.4680   11.5990   -5.9440 C   0  0  1  0  0  0  0  0  0  0  0  0
    0.2320   11.3530   -7.6490 C   0  0  2  0  0  0  0  0  0  0  0  0
   -1.1610   10.8920   -7.2920 C   0  0  1  0  0  0  0  0  0  0  0  0
   -2.0740   10.6690   -4.9250 C   0  0  0  0  0  0  0  0  0  0  0  0
    0.8820   10.5080   -8.7820 C   0  0  0  0  0  0  0  0  0  0  0  0
   -1.4820    9.4250   -7.4270 C   0  0  0  0  0  0  0  0  0  0  0  0
   -2.3320    9.3720   -5.1690 C   0  0  0  0  0  0  0  0  0  0  0  0
    1.5360    9.4060   -8.3540 F   0  0  0  0  0  0  0  0  0  0  0  0
   -0.1160   10.0350   -9.5680 F   0  0  0  0  0  0  0  0  0  0  0  0
    1.6280   11.1690   -9.6740 F   0  0  0  0  0  0  0  0  0  0  0  0
   -2.0330    8.7370   -6.4280 C   0  0  0  0  0  0  0  0  0  0  0  0
  1  2  1  0
  2  3  1  0
  2  4  1  0
  5  3  1  6
  4  6  2  0
  4  7  1  0
  5  8  1  0
  6  9  1  0
  7 10  2  0
  6 11  1  0
  5 12  1  0
  8 13  2  0
  8 14  1  0
  9 15  1  0
 10 15  1  0
  9 16  2  0
 11 17  2  0
 16 17  1  0
 12 18  1  0
 12 19  1  0
 18 20  1  0
 19 21  1  0
 20 21  1  0
 19 22  1  1
 20 23  1  1
 21 24  1  1
 22 25  2  0
 23 26  1  0
 23 27  1  0
 23 28  1  0
 24 29  2  0
 25 29  1  0
M  END
