mac-x0344-mac-x0590
     RDKit          3D

 29 32  0  0  0  0  0  0  0  0999 V2000
    1.6160   13.6290   -2.8250 O   0  0  0  0  0  0  0  0  0  0  0  0
    0.8370   12.7980   -2.0780 C   0  0  0  0  0  0  0  0  0  0  0  0
    0.6050   12.8920   -0.9150 O   0  0  0  0  0  0  0  0  0  0  0  0
    0.3190   11.7440   -2.9860 C   0  0  0  0  0  0  0  0  0  0  0  0
   -0.4010   10.8100   -2.6520 O   0  0  0  0  0  0  0  0  0  0  0  0
    0.8980   12.1430   -4.2360 C   0  0  2  0  0  0  0  0  0  0  0  0
    0.1170   12.2010   -5.5250 C   0  0  2  0  0  0  0  0  0  0  0  0
    2.1180   11.4580   -4.3390 O   0  0  0  0  0  0  0  0  0  0  0  0
   -0.7620   11.0350   -6.0860 C   0  0  0  0  0  0  0  0  0  0  0  0
    1.3970   12.5160   -6.3000 C   0  0  0  0  0  0  0  0  0  0  0  0
    2.6110   12.0160   -5.5190 C   0  0  0  0  0  0  0  0  0  0  0  0
   -0.8830   13.4160   -5.4490 C   0  0  0  0  0  0  0  0  0  0  0  0
   -0.6340   10.5900   -7.4260 C   0  0  0  0  0  0  0  0  0  0  0  0
   -1.7290   10.3760   -5.2910 C   0  0  0  0  0  0  0  0  0  0  0  0
   -1.7670   13.6680   -4.2000 C   0  0  0  0  0  0  0  0  0  0  0  0
   -1.4220    9.5480   -7.9330 C   0  0  0  0  0  0  0  0  0  0  0  0
   -2.5150    9.3360   -5.8040 C   0  0  0  0  0  0  0  0  0  0  0  0
   -1.4300   14.8490   -3.2650 C   0  0  0  0  0  0  0  0  0  0  0  0
   -2.3620    8.9200   -7.1250 C   0  0  0  0  0  0  0  0  0  0  0  0
   -2.2510   15.0060   -2.0380 N   0  0  0  0  0  0  0  0  0  0  0  0
   -3.6960   15.0160   -2.2560 C   0  0  0  0  0  0  0  0  0  0  0  0
   -1.7190   14.2980   -0.8680 C   0  0  2  0  0  0  0  0  0  0  0  0
   -4.4620   14.8070   -1.0190 N   0  0  0  0  0  0  0  0  0  0  0  0
   -2.5020   14.5000    0.4450 C   0  0  2  0  0  0  0  0  0  0  0  0
   -0.3550   14.7310   -0.5430 N   0  0  0  0  0  0  0  0  0  0  0  0
   -3.7820   15.3170    0.1490 C   0  0  2  0  0  0  0  0  0  0  0  0
   -1.5690   15.1840    1.3450 N   0  0  0  0  0  0  0  0  0  0  0  0
   -0.2710   14.7410    0.8980 C   0  0  0  0  0  0  0  0  0  0  0  0
   -4.7840   15.2850    1.2090 N   0  0  0  0  0  0  0  0  0  0  0  0
  1  2  1  0
  2  3  2  0
  2  4  1  0
  4  5  2  0
  6  4  1  1
  6  7  1  0
  6  8  1  0
  7  9  1  0
  7 10  1  0
  8 11  1  0
 10 11  1  0
  7 12  1  1
  9 13  2  0
  9 14  1  0
 12 15  1  0
 13 16  1  0
 14 17  2  0
 15 18  1  0
 16 19  2  0
 17 19  1  0
 18 20  1  0
 20 21  1  0
 20 22  1  0
 21 23  1  0
 22 24  1  0
 22 25  1  1
 23 26  1  0
 24 26  1  0
 24 27  1  1
 25 28  1  0
 27 28  1  0
 26 29  1  1
M  END
