mac-x0564-diamond-x0253_0_A
     RDKit          3D

 27 30  0  0  0  0  0  0  0  0999 V2000
    0.7230   13.6740   -1.9740 N   0  0  0  0  0  0  0  0  0  0  0  0
    1.1080   12.8510   -2.9230 C   0  0  0  0  0  0  0  0  0  0  0  0
    0.4890   12.7340   -4.3490 C   0  0  0  0  0  0  0  0  0  0  0  0
   -0.3230   14.2170   -2.6150 C   0  0  0  0  0  0  0  0  0  0  0  0
    2.1060   12.0190   -2.7190 O   0  0  0  0  0  0  0  0  0  0  0  0
   -1.5620   14.4590   -2.0760 C   0  0  0  0  0  0  0  0  0  0  0  0
   -0.0800   14.4720   -3.8990 N   0  0  0  0  0  0  0  0  0  0  0  0
    0.5890   11.5250   -5.1480 N   0  0  0  0  0  0  0  0  0  0  0  0
   -2.5350   14.9020   -2.9480 C   0  0  0  0  0  0  0  0  0  0  0  0
   -1.0680   14.9190   -4.6440 C   0  0  0  0  0  0  0  0  0  0  0  0
   -2.0590   14.3310   -0.8070 O   0  0  0  0  0  0  0  0  0  0  0  0
    1.1040   11.5900   -6.4330 C   0  0  0  0  0  0  0  0  0  0  0  0
   -2.3270   15.1480   -4.2680 N   0  0  0  0  0  0  0  0  0  0  0  0
   -3.3780   14.6840   -0.8920 C   0  0  0  0  0  0  0  0  0  0  0  0
   -3.7020   15.0120   -2.1930 C   0  0  0  0  0  0  0  0  0  0  0  0
    2.0570   12.2930   -6.6930 O   0  0  0  0  0  0  0  0  0  0  0  0
   -5.0020   15.3590   -2.4940 C   0  0  0  0  0  0  0  0  0  0  0  0
   -4.3030   14.7150    0.1500 C   0  0  0  0  0  0  0  0  0  0  0  0
    0.4550   10.7040   -7.4640 C   0  0  0  0  0  0  0  0  0  0  0  0
   -5.9590   15.4070   -1.4980 C   0  0  0  0  0  0  0  0  0  0  0  0
   -5.6120   15.0920   -0.1910 C   0  0  0  0  0  0  0  0  0  0  0  0
   -0.5340    9.7870   -7.1060 C   0  0  0  0  0  0  0  0  0  0  0  0
    0.8360   10.7800   -8.8170 C   0  0  0  0  0  0  0  0  0  0  0  0
   -1.1340    8.9650   -8.0680 C   0  0  0  0  0  0  0  0  0  0  0  0
    0.2450    9.9660   -9.7780 C   0  0  0  0  0  0  0  0  0  0  0  0
   -2.1940    7.9860   -7.6740 C   0  0  0  0  0  0  0  0  0  0  0  0
   -0.7380    9.0620   -9.4020 C   0  0  0  0  0  0  0  0  0  0  0  0
  1  2  2  3
  2  3  1  0
  1  4  1  0
  2  5  1  0
  4  6  1  0
  4  7  2  0
  3  8  1  0
  6  9  2  0
  7 10  1  0
  6 11  1  0
  8 12  1  0
  9 13  1  0
 10 13  2  0
 11 14  1  0
  9 15  1  0
 14 15  2  0
 12 16  2  0
 15 17  1  0
 14 18  1  0
 12 19  1  0
 17 20  2  0
 18 21  2  0
 20 21  1  0
 19 22  2  0
 19 23  1  0
 22 24  1  0
 23 25  2  0
 24 26  1  0
 24 27  2  0
 25 27  1  0
M  END
