mac-x0546-diamond-x0837_0_A
     RDKit          3D

 25 27  0  0  0  0  0  0  0  0999 V2000
   -4.0520   15.0740   -6.7580 C   0  0  0  0  0  0  0  0  0  0  0  0
   -3.8160   15.6020   -5.4830 N   0  0  0  0  0  0  0  0  0  0  0  0
   -4.5230   14.9310   -4.4140 C   0  0  0  0  0  0  0  0  0  0  0  0
   -2.4320   15.9050   -5.1790 C   0  0  0  0  0  0  0  0  0  0  0  0
   -3.7370   13.8140   -3.8690 C   0  0  0  0  0  0  0  0  0  0  0  0
   -1.7440   14.8200   -4.8970 C   0  0  0  0  0  0  0  0  0  0  0  0
   -1.8680   17.2750   -5.1740 C   0  0  0  0  0  0  0  0  0  0  0  0
   -2.7800   14.6090   -2.2090 I   0  0  0  0  0  0  0  0  0  0  0  0
   -0.3750   14.9700   -4.5160 C   0  0  2  0  0  0  0  0  0  0  0  0
   -0.5610   17.4170   -4.9930 C   0  0  0  0  0  0  0  0  0  0  0  0
    0.2620   16.2390   -4.8190 C   0  0  0  0  0  0  0  0  0  0  0  0
    0.6020   13.9470   -4.5340 C   0  0  0  0  0  0  0  0  0  0  0  0
   -4.1730   15.3540   -0.8610 C   0  0  2  0  0  0  0  0  0  0  0  0
    0.4960   12.4560   -4.4230 C   0  0  0  0  0  0  0  0  0  0  0  0
    1.5200   15.9620   -4.8360 N   0  0  0  0  0  0  0  0  0  0  0  0
    1.7670   14.5680   -4.6660 C   0  0  0  0  0  0  0  0  0  0  0  0
   -3.6510   15.4890    0.5160 C   0  0  0  0  0  0  0  0  0  0  0  0
   -5.4000   14.4450   -0.9020 C   0  0  0  0  0  0  0  0  0  0  0  0
    0.5500   11.9890   -3.0270 C   0  0  0  0  0  0  0  0  0  0  0  0
   -4.3850   15.2740    1.5720 C   0  0  0  0  0  0  0  0  0  0  0  0
   -6.3070   14.7190    0.2270 C   0  0  0  0  0  0  0  0  0  0  0  0
    0.9220   12.7410   -2.1050 O   0  0  0  0  0  0  0  0  0  0  0  0
    0.1780   10.6960   -2.7800 O   0  0  0  0  0  0  0  0  0  0  0  0
   -7.5390   14.8050    0.0470 O   0  0  0  0  0  0  0  0  0  0  0  0
   -5.7470   14.8760    1.5160 N   0  0  0  0  0  0  0  0  0  0  0  0
  1  2  1  0
  2  3  1  0
  2  4  1  0
  3  5  1  0
  4  6  2  0
  4  7  1  0
  5  8  1  0
  9  6  1  6
  7 10  2  0
  9 11  1  0
 10 11  1  0
  9 12  1  0
 13  8  1  6
 12 14  1  0
 11 15  2  0
 12 16  2  0
 15 16  1  0
 13 17  1  0
 13 18  1  0
 14 19  1  0
 17 20  2  0
 18 21  1  0
 19 22  2  0
 19 23  1  0
 21 24  2  0
 20 25  1  0
 21 25  1  0
M  END
