mac-x0302-diamond-x0681_0_A
     RDKit          3D

 18 19  0  0  0  0  0  0  0  0999 V2000
    1.5830   14.2970   -3.6720 O   0  0  0  0  0  0  0  0  0  0  0  0
    0.5410   14.1040   -2.8330 C   0  0  0  0  0  0  0  0  0  0  0  0
    0.6580   13.5230   -1.7650 O   0  0  0  0  0  0  0  0  0  0  0  0
   -0.7690   14.6700   -3.3470 C   0  0  0  0  0  0  0  0  0  0  0  0
   -1.7020   14.8400   -2.2540 N   0  0  0  0  0  0  0  0  0  0  0  0
   -2.9830   15.2760   -2.4930 C   0  0  0  0  0  0  0  0  0  0  0  0
   -3.2800   15.8510   -3.5360 O   0  0  0  0  0  0  0  0  0  0  0  0
   -3.9780   14.9540   -1.3770 C   0  0  2  0  0  0  0  0  0  0  0  0
   -5.3960   15.4410   -1.6730 C   0  0  0  0  0  0  0  0  0  0  0  0
   -3.6750   15.3030    0.0580 C   0  0  0  0  0  0  0  0  0  0  0  0
   -6.3540   14.6050   -0.8390 C   0  0  2  0  0  0  0  0  0  0  0  0
   -4.5070   14.7400    0.9100 C   0  0  0  0  0  0  0  0  0  0  0  0
   -7.4400   15.3960   -0.3650 O   0  0  0  0  0  0  0  0  0  0  0  0
   -5.5280   13.8540    0.2350 C   0  0  2  0  0  0  0  0  0  0  0  0
   -4.7360   12.7800   -0.5780 C   0  0  0  0  0  0  0  0  0  0  0  0
   -6.3630   12.8750    1.0430 C   0  0  0  0  0  0  0  0  0  0  0  0
   -5.8040   11.8390   -0.8640 N   0  0  0  0  0  0  0  0  0  0  0  0
   -6.4850   11.7440    0.3210 C   0  0  0  0  0  0  0  0  0  0  0  0
  1  2  1  0
  2  3  2  0
  2  4  1  0
  4  5  1  0
  5  6  1  0
  6  7  2  0
  8  6  1  6
  8  9  1  0
  8 10  1  0
  9 11  1  0
 10 12  2  0
 11 13  1  1
 11 14  1  0
 14 12  1  1
 14 15  1  0
 14 16  1  0
 15 17  1  0
 16 18  2  0
 17 18  1  0
M  END
