mac-x0188-diamond-x0855_0_A
     RDKit          3D

 23 26  0  0  0  0  0  0  0  0999 V2000
    0.5740   12.6910   -4.7080 C   0  0  2  0  0  0  0  0  0  0  0  0
    0.9570   12.1790   -3.3210 C   0  0  0  0  0  0  0  0  0  0  0  0
    0.9070   10.9930   -3.0390 O   0  0  0  0  0  0  0  0  0  0  0  0
   -0.5760   13.3900   -4.2990 C   0  0  0  0  0  0  0  0  0  0  0  0
   -0.1780   11.6430   -5.3770 N   0  0  0  0  0  0  0  0  0  0  0  0
    1.2030   13.0190   -2.3010 O   0  0  0  0  0  0  0  0  0  0  0  0
   -1.6340   13.4610   -5.1110 O   0  0  0  0  0  0  0  0  0  0  0  0
   -0.7730   13.9640   -3.1030 C   0  0  0  0  0  0  0  0  0  0  0  0
    0.0430   10.8280   -6.4480 C   0  0  0  0  0  0  0  0  0  0  0  0
   -1.3890   11.4280   -4.7940 N   0  0  0  0  0  0  0  0  0  0  0  0
    0.3020   14.0080   -2.1460 C   0  0  0  0  0  0  0  0  0  0  0  0
   -2.6390   14.0590   -4.4060 N   0  0  0  0  0  0  0  0  0  0  0  0
   -2.1280   14.3190   -3.1870 C   0  0  0  0  0  0  0  0  0  0  0  0
   -1.1010   10.0510   -6.5280 C   0  0  0  0  0  0  0  0  0  0  0  0
   -1.9420   10.4580   -5.5000 C   0  0  0  0  0  0  0  0  0  0  0  0
    0.4370   14.8720   -1.2910 O   0  0  0  0  0  0  0  0  0  0  0  0
   -1.5220    8.7000   -7.7370 Br  0  0  0  0  0  0  0  0  0  0  0  0
   -2.9750   14.8440   -2.1660 C   0  0  0  0  0  0  0  0  0  0  0  0
   -4.2340   15.3380   -2.4750 C   0  0  0  0  0  0  0  0  0  0  0  0
   -2.5300   14.8130   -0.8480 C   0  0  0  0  0  0  0  0  0  0  0  0
   -5.0540   15.7970   -1.4510 C   0  0  0  0  0  0  0  0  0  0  0  0
   -3.3480   15.2730    0.1700 C   0  0  0  0  0  0  0  0  0  0  0  0
   -4.6030   15.7580   -0.1370 C   0  0  0  0  0  0  0  0  0  0  0  0
  1  2  1  0
  2  3  2  0
  1  4  1  0
  1  5  1  6
  2  6  1  0
  4  7  1  0
  4  8  2  0
  5  9  1  0
  5 10  1  0
  6 11  1  0
  8 11  1  0
  7 12  1  0
  8 13  1  0
 12 13  2  0
  9 14  2  0
 10 15  2  0
 14 15  1  0
 11 16  2  0
 14 17  1  0
 13 18  1  0
 18 19  2  0
 18 20  1  0
 19 21  1  0
 20 22  2  0
 21 23  2  0
 22 23  1  0
M  END
