mac-x0417-mac-x0565
     RDKit          3D

 26 29  0  0  0  0  0  0  0  0999 V2000
    1.4960   13.2310   -3.2780 O   0  0  0  0  0  0  0  0  0  0  0  0
    0.8050   12.0910   -3.1920 C   0  0  0  0  0  0  0  0  0  0  0  0
    1.1440   11.2230   -2.4450 O   0  0  0  0  0  0  0  0  0  0  0  0
   -0.3970   11.9570   -4.0470 C   0  0  1  0  0  0  0  0  0  0  0  0
   -1.4770   13.0120   -3.7810 C   0  0  0  0  0  0  0  0  0  0  0  0
   -0.1360   11.4410   -5.4250 C   0  0  0  0  0  0  0  0  0  0  0  0
    0.8800   11.7860   -6.2410 N   0  0  0  0  0  0  0  0  0  0  0  0
   -0.9680   10.4890   -6.0120 C   0  0  0  0  0  0  0  0  0  0  0  0
   -1.1020   14.4590   -3.4880 C   0  0  1  0  0  0  0  0  0  0  0  0
    0.6950   11.0130   -7.3910 O   0  0  0  0  0  0  0  0  0  0  0  0
   -0.4150   10.2400   -7.2430 C   0  0  0  0  0  0  0  0  0  0  0  0
   -2.1240    9.8200   -5.6140 C   0  0  0  0  0  0  0  0  0  0  0  0
   -2.0120   15.1710   -4.3040 O   0  0  0  0  0  0  0  0  0  0  0  0
   -1.3000   14.8230   -2.0910 O   0  0  0  0  0  0  0  0  0  0  0  0
   -0.9540    9.3310   -8.1480 C   0  0  0  0  0  0  0  0  0  0  0  0
   -2.6940    8.9050   -6.4910 C   0  0  0  0  0  0  0  0  0  0  0  0
   -2.6620   14.9000   -2.1460 C   0  0  0  0  0  0  0  0  0  0  0  0
   -3.0660   15.0770   -3.4490 C   0  0  0  0  0  0  0  0  0  0  0  0
   -2.1190    8.6630   -7.7390 C   0  0  0  0  0  0  0  0  0  0  0  0
   -3.5690   14.8190   -1.1000 C   0  0  0  0  0  0  0  0  0  0  0  0
   -4.3780   15.1470   -3.7870 C   0  0  0  0  0  0  0  0  0  0  0  0
   -4.9360   14.9140   -1.4250 C   0  0  0  0  0  0  0  0  0  0  0  0
   -5.3300   15.0670   -2.7680 C   0  0  0  0  0  0  0  0  0  0  0  0
   -5.9480   14.8490   -0.3380 C   0  0  0  0  0  0  0  0  0  0  0  0
   -5.4060   15.0120    0.8780 O   0  0  0  0  0  0  0  0  0  0  0  0
   -7.1480   14.6830   -0.4860 O   0  0  0  0  0  0  0  0  0  0  0  0
  1  2  1  0
  2  3  2  0
  2  4  1  0
  4  5  1  6
  4  6  1  0
  6  7  2  0
  6  8  1  0
  9  5  1  1
  7 10  1  0
  8 11  2  0
 10 11  1  0
  8 12  1  0
  9 13  1  0
  9 14  1  0
 11 15  1  0
 12 16  2  0
 14 17  1  0
 13 18  1  0
 17 18  2  0
 15 19  2  0
 16 19  1  0
 17 20  1  0
 18 21  1  0
 20 22  2  0
 21 23  2  0
 22 23  1  0
 22 24  1  0
 24 25  1  0
 24 26  2  0
M  END
