mac-x0365-diamond-x0104_0_A
     RDKit          3D

 20 21  0  0  0  0  0  0  0  0999 V2000
   -1.2580   14.7140   -0.5910 O   0  0  0  0  0  0  0  0  0  0  0  0
   -2.2000   14.7900   -1.5380 C   0  0  0  0  0  0  0  0  0  0  0  0
   -1.8730   14.7710   -2.7190 O   0  0  0  0  0  0  0  0  0  0  0  0
   -3.6180   14.8940   -1.0370 C   0  0  0  0  0  0  0  0  0  0  0  0
   -4.5760   15.0590   -2.0210 C   0  0  0  0  0  0  0  0  0  0  0  0
   -4.0340   14.8270    0.3610 C   0  0  0  0  0  0  0  0  0  0  0  0
   -5.8970   15.1480   -1.6700 C   0  0  0  0  0  0  0  0  0  0  0  0
   -5.4450   14.9220    0.7300 C   0  0  0  0  0  0  0  0  0  0  0  0
   -6.8070   15.3000   -2.6290 F   0  0  0  0  0  0  0  0  0  0  0  0
   -6.0880   14.8730    2.0840 N   0  0  0  0  0  0  0  0  0  0  0  0
   -6.3240   15.0820   -0.3480 C   0  0  0  0  0  0  0  0  0  0  0  0
   -7.6620   15.1760   -0.0880 O   0  0  0  0  0  0  0  0  0  0  0  0
   -7.4570   14.9670    2.5930 C   0  0  0  0  0  0  0  0  0  0  0  0
   -7.5200   14.9720    4.0180 N   0  0  0  0  0  0  0  0  0  0  0  0
   -8.4650   15.0440    1.8970 O   0  0  0  0  0  0  0  0  0  0  0  0
   -8.6630   15.0360    4.8600 C   0  0  0  0  0  0  0  0  0  0  0  0
   -8.7990   15.1760    6.2360 C   0  0  0  0  0  0  0  0  0  0  0  0
  -10.1960   14.9210    4.1080 S   0  0  0  0  0  0  0  0  0  0  0  0
  -11.0390   15.0550    5.6050 C   0  0  0  0  0  0  0  0  0  0  0  0
  -10.1680   15.1870    6.6610 C   0  0  0  0  0  0  0  0  0  0  0  0
  1  2  1  0
  2  3  2  0
  2  4  1  0
  4  5  2  0
  4  6  1  0
  5  7  1  0
  6  8  2  0
  7  9  1  0
  8 10  1  0
  7 11  2  0
  8 11  1  0
 11 12  1  0
 10 13  1  0
 13 14  1  0
 13 15  2  0
 14 16  1  0
 16 17  2  0
 16 18  1  0
 18 19  1  0
 17 20  1  0
 19 20  2  0
M  END
