mac-x0138-diamond-x1012_0_A
     RDKit          3D

 26 28  0  0  0  0  0  0  0  0999 V2000
   -1.9330   14.8470   -3.2040 C   0  0  0  0  0  0  0  0  0  0  0  0
   -2.8690   14.9540   -2.1570 N   0  0  0  0  0  0  0  0  0  0  0  0
   -4.2040   15.1650   -2.2620 C   0  0  0  0  0  0  0  0  0  0  0  0
   -2.5560   14.8610   -0.8620 C   0  0  0  0  0  0  0  0  0  0  0  0
   -4.7670   15.2100   -1.0750 N   0  0  0  0  0  0  0  0  0  0  0  0
   -3.7280   15.0190   -0.1880 C   0  0  0  0  0  0  0  0  0  0  0  0
   -1.3700   14.6670   -0.3540 N   0  0  0  0  0  0  0  0  0  0  0  0
   -3.6380   14.9580    1.2100 C   0  0  0  0  0  0  0  0  0  0  0  0
   -1.3870   14.6380    0.9730 C   0  0  0  0  0  0  0  0  0  0  0  0
   -4.7360   15.1030    2.0350 N   0  0  0  0  0  0  0  0  0  0  0  0
   -0.1320   14.4940    1.4030 N   0  0  0  0  0  0  0  0  0  0  0  0
   -2.4300   14.7540    1.7830 N   0  0  0  0  0  0  0  0  0  0  0  0
    0.5750   15.0330    0.2550 C   0  0  0  0  0  0  0  0  0  0  0  0
    1.0440   13.8630   -0.6270 C   0  0  0  0  0  0  0  0  0  0  0  0
    0.6680   13.9550   -1.9680 N   0  0  0  0  0  0  0  0  0  0  0  0
    0.4290   13.0680   -2.8150 C   0  0  0  0  0  0  0  0  0  0  0  0
    0.4470   11.7050   -2.7530 O   0  0  0  0  0  0  0  0  0  0  0  0
    0.0690   13.7500   -4.0710 C   0  0  0  0  0  0  0  0  0  0  0  0
   -1.1470   13.3570   -4.8370 C   0  0  0  0  0  0  0  0  0  0  0  0
    1.1550   14.3750   -4.8880 C   0  0  0  0  0  0  0  0  0  0  0  0
   -1.7670   14.7100   -5.2190 C   0  0  0  0  0  0  0  0  0  0  0  0
    0.6520   15.7870   -5.1370 C   0  0  0  0  0  0  0  0  0  0  0  0
   -0.8340   15.9100   -5.1750 N   0  0  0  0  0  0  0  0  0  0  0  0
   -1.3220   17.1730   -4.8980 C   0  0  0  0  0  0  0  0  0  0  0  0
   -0.3950   18.1540   -4.7220 N   0  0  0  0  0  0  0  0  0  0  0  0
   -2.5010   17.4630   -4.8010 O   0  0  0  0  0  0  0  0  0  0  0  0
  1  2  1  0
  2  3  1  0
  2  4  1  0
  3  5  2  0
  4  6  2  0
  5  6  1  0
  4  7  1  0
  6  8  1  0
  7  9  2  0
  8 10  1  0
  9 11  1  0
  8 12  2  0
  9 12  1  0
 11 13  1  0
 13 14  1  0
 14 15  1  0
 15 16  2  3
 16 17  1  0
 16 18  1  0
 18 19  1  0
 18 20  1  0
 19 21  1  0
 20 22  1  0
 21 23  1  0
 22 23  1  0
 23 24  1  0
 24 25  1  0
 24 26  2  0
M  END
